=
 OpenBabel10272415213D

 34 39  0  0  1  0  0  0  0  0999 V2000
  189.5840  178.2810  144.0190 C   0  0  1  0  0  3  0  0  0  0  0  0
  191.5660  177.1920  140.9540 C   0  0  0  0  0  2  0  0  0  0  0  0
  191.7270  176.5790  143.4340 C   0  0  0  0  0  3  0  0  0  0  0  0
  188.3550  178.0670  145.8430 N   0  0  0  0  0  0  0  0  0  0  0  0
  188.3650  178.3170  144.4620 N   0  0  0  0  0  2  0  0  0  0  0  0
  189.9750  176.7380  147.1180 C   0  0  0  0  0  2  0  0  0  0  0  0
  191.2540  175.9870  146.9880 C   0  0  0  0  0  3  0  0  0  0  0  0
  189.6740  177.6740  146.2050 C   0  0  1  0  0  3  0  0  0  0  0  0
  191.4500  176.8350  144.7210 C   0  0  0  0  0  0  0  0  0  0  0  0
  190.5840  178.0040  145.0830 C   0  0  1  0  0  3  0  0  0  0  0  0
  191.9470  176.0050  145.8330 C   0  0  0  0  0  3  0  0  0  0  0  0
  190.6020  176.5160  140.0970 N   0  0  0  0  0  0  0  0  0  0  0  0
  189.4340  176.9870  139.7740 C   0  0  0  0  0  0  0  0  0  0  0  0
  188.9090  178.2610  140.3320 C   0  0  0  0  0  3  0  0  0  0  0  0
  191.0410  177.3330  142.3420 C   0  0  0  0  0  0  0  0  0  0  0  0
  189.1330  178.7410  141.5590 C   0  0  0  0  0  3  0  0  0  0  0  0
  189.9550  178.1000  142.6060 C   0  0  0  0  0  0  0  0  0  0  0  0
  188.6670  176.2630  138.8560 O   0  0  0  0  0  0  0  0  0  0  0  0
  188.2530  176.7850  137.5990 C   0  0  0  0  0  2  0  0  0  0  0  0
  189.4600  177.2320  136.7960 C   0  0  0  0  0  1  0  0  0  0  0  0
  187.1480  177.6770  146.5600 C   0  0  0  0  0  2  0  0  0  0  0  0
  183.6440  178.8380  145.7080 C   0  0  0  0  0  3  0  0  0  0  0  0
  185.9320  177.8990  144.3840 C   0  0  0  0  0  3  0  0  0  0  0  0
  182.4790  178.8770  142.1910 C   0  0  0  0  0  0  0  0  0  0  0  0
  182.4910  179.0210  143.5860 C   0  0  0  0  0  3  0  0  0  0  0  0
  183.6350  178.6970  144.3190 C   0  0  0  0  0  0  0  0  0  0  0  0
  184.7770  178.0800  142.2620 C   0  0  0  0  0  3  0  0  0  0  0  0
  184.7870  178.2230  143.6520 C   0  0  0  0  0  0  0  0  0  0  0  0
  183.6280  178.4050  141.5360 C   0  0  0  0  0  3  0  0  0  0  0  0
  185.9370  178.0490  145.7760 C   0  0  0  0  0  0  0  0  0  0  0  0
  184.7930  178.5120  146.4350 C   0  0  0  0  0  3  0  0  0  0  0  0
  181.2700  179.2190  141.4240 C   0  0  0  0  0  0  0  0  0  0  0  0
  181.0070  178.6220  140.3470 O   0  0  0  0  0  0  0  0  0  0  0  0
  180.4070  180.2070  141.8840 O   0  0  0  0  0  1  0  0  0  0  0  0
  1 17  1  6  0  0  0
  1  5  1  0  0  0  0
  1 10  1  0  0  0  0
  2 15  1  0  0  0  0
  3  9  2  0  0  0  0
  4  8  1  0  0  0  0
  4 21  1  0  0  0  0
  5  4  1  0  0  0  0
  7  6  1  0  0  0  0
  8  6  1  6  0  0  0
  9 11  1  0  0  0  0
 10  9  1  6  0  0  0
 10  8  1  0  0  0  0
 11  7  2  0  0  0  0
 12  2  1  0  0  0  0
 13 12  2  0  0  0  0
 13 14  1  0  0  0  0
 14 16  2  0  0  0  0
 15 17  2  0  0  0  0
 15  3  1  0  0  0  0
 16 17  1  0  0  0  0
 18 13  1  0  0  0  0
 19 18  1  0  0  0  0
 20 19  1  0  0  0  0
 22 31  1  0  0  0  0
 23 30  1  0  0  0  0
 24 25  2  0  0  0  0
 25 26  1  0  0  0  0
 26 22  2  0  0  0  0
 27 28  1  0  0  0  0
 28 26  1  0  0  0  0
 28 23  2  0  0  0  0
 29 24  1  0  0  0  0
 29 27  2  0  0  0  0
 30 31  2  0  0  0  0
 30 21  1  0  0  0  0
 32 34  1  0  0  0  0
 32 24  1  0  0  0  0
 33 32  2  0  0  0  0
M  END
>  <MODEL>
1

>  <REMARK>
 VINA RESULT:     -10.7      0.000      0.000
  Name = 
  5 active torsions:
  status: ('A' for Active; 'I' for Inactive)
    1  A    between atoms: O_3  and  C_13
    2  A    between atoms: O_3  and  C_25
    3  A    between atoms: C_7  and  C_11
    4  A    between atoms: N_8  and  C_18
    5  A    between atoms: C_18  and  C_30
                            x       y       z     vdW  Elec       q    Type
                         _______ _______ _______ _____ _____    ______ ____

>  <TORSDO>
F 5

$$$$
=
 OpenBabel10272415213D

 34 39  0  0  1  0  0  0  0  0999 V2000
  189.8690  175.9000  137.7900 C   0  0  1  0  0  3  0  0  0  0  0  0
  192.1630  174.9430  134.9030 C   0  0  0  0  0  2  0  0  0  0  0  0
  189.7510  175.7950  134.9960 C   0  0  0  0  0  3  0  0  0  0  0  0
  188.5150  177.1630  138.9940 N   0  0  0  0  0  0  0  0  0  0  0  0
  189.8260  176.6980  138.8110 N   0  0  0  0  0  2  0  0  0  0  0  0
  186.7920  177.4470  137.2720 C   0  0  0  0  0  2  0  0  0  0  0  0
  186.5140  177.2230  135.8270 C   0  0  0  0  0  3  0  0  0  0  0  0
  187.7590  176.7340  137.8680 C   0  0  1  0  0  3  0  0  0  0  0  0
  188.6150  176.0140  135.6740 C   0  0  0  0  0  0  0  0  0  0  0  0
  188.5470  175.7100  137.1400 C   0  0  1  0  0  3  0  0  0  0  0  0
  187.3980  176.5660  135.0510 C   0  0  0  0  0  3  0  0  0  0  0  0
  193.2720  175.8850  134.9690 N   0  0  0  0  0  0  0  0  0  0  0  0
  193.9440  176.1700  136.0460 C   0  0  0  0  0  0  0  0  0  0  0  0
  193.5850  175.6150  137.3770 C   0  0  0  0  0  3  0  0  0  0  0  0
  191.0070  175.4210  135.7140 C   0  0  0  0  0  0  0  0  0  0  0  0
  192.3510  175.3460  137.8170 C   0  0  0  0  0  3  0  0  0  0  0  0
  191.0970  175.5420  137.0610 C   0  0  0  0  0  0  0  0  0  0  0  0
  195.0500  177.0180  135.9220 O   0  0  0  0  0  0  0  0  0  0  0  0
  195.4690  177.5810  134.6840 C   0  0  0  0  0  2  0  0  0  0  0  0
  196.3090  178.8200  134.9320 C   0  0  0  0  0  1  0  0  0  0  0  0
  188.2040  178.3350  139.8020 C   0  0  0  0  0  2  0  0  0  0  0  0
  187.5890  177.5600  143.4590 C   0  0  0  0  0  3  0  0  0  0  0  0
  189.7540  178.0670  141.7480 C   0  0  0  0  0  3  0  0  0  0  0  0
  190.4230  177.3390  145.8360 C   0  0  0  0  0  0  0  0  0  0  0  0
  189.1170  177.3280  145.3240 C   0  0  0  0  0  3  0  0  0  0  0  0
  188.8890  177.5690  143.9670 C   0  0  0  0  0  0  0  0  0  0  0  0
  191.2810  177.8350  143.6150 C   0  0  0  0  0  3  0  0  0  0  0  0
  189.9800  177.8240  143.1050 C   0  0  0  0  0  0  0  0  0  0  0  0
  191.5000  177.5940  144.9740 C   0  0  0  0  0  3  0  0  0  0  0  0
  188.4480  178.0500  141.2430 C   0  0  0  0  0  0  0  0  0  0  0  0
  187.3690  177.8030  142.0990 C   0  0  0  0  0  3  0  0  0  0  0  0
  190.6550  177.0840  147.2670 C   0  0  0  0  0  0  0  0  0  0  0  0
  189.7500  177.3160  148.1120 O   0  0  0  0  0  1  0  0  0  0  0  0
  191.8790  176.5860  147.7000 O   0  0  0  0  0  0  0  0  0  0  0  0
  1 17  1  6  0  0  0
  1  5  1  0  0  0  0
  2 12  1  0  0  0  0
  2 15  1  0  0  0  0
  3  9  2  0  0  0  0
  3 15  1  0  0  0  0
  4 21  1  0  0  0  0
  5  4  1  0  0  0  0
  7  6  1  0  0  0  0
  8  6  1  6  0  0  0
  8  4  1  0  0  0  0
 10  9  1  6  0  0  0
 10  1  1  0  0  0  0
 10  8  1  0  0  0  0
 11  9  1  0  0  0  0
 11  7  2  0  0  0  0
 12 13  2  0  0  0  0
 13 14  1  0  0  0  0
 14 16  2  0  0  0  0
 15 17  2  0  0  0  0
 17 16  1  0  0  0  0
 18 13  1  0  0  0  0
 19 20  1  0  0  0  0
 19 18  1  0  0  0  0
 21 30  1  0  0  0  0
 22 26  1  0  0  0  0
 23 28  1  0  0  0  0
 24 32  1  0  0  0  0
 25 24  1  0  0  0  0
 26 25  2  0  0  0  0
 27 29  1  0  0  0  0
 28 27  2  0  0  0  0
 28 26  1  0  0  0  0
 29 24  2  0  0  0  0
 30 23  2  0  0  0  0
 30 31  1  0  0  0  0
 31 22  2  0  0  0  0
 32 34  2  0  0  0  0
 32 33  1  0  0  0  0
M  END
>  <MODEL>
2

>  <REMARK>
 VINA RESULT:      -9.4      4.296      7.972
  Name = 
  5 active torsions:
  status: ('A' for Active; 'I' for Inactive)
    1  A    between atoms: O_3  and  C_13
    2  A    between atoms: O_3  and  C_25
    3  A    between atoms: C_7  and  C_11
    4  A    between atoms: N_8  and  C_18
    5  A    between atoms: C_18  and  C_30
                            x       y       z     vdW  Elec       q    Type
                         _______ _______ _______ _____ _____    ______ ____

>  <TORSDO>
F 5

$$$$
=
 OpenBabel10272415213D

 34 39  0  0  1  0  0  0  0  0999 V2000
  188.4470  177.8200  138.2940 C   0  0  1  0  0  3  0  0  0  0  0  0
  185.8950  177.4390  135.4930 C   0  0  0  0  0  2  0  0  0  0  0  0
  188.3600  176.7800  135.6980 C   0  0  0  0  0  3  0  0  0  0  0  0
  189.9660  177.2050  139.7750 N   0  0  0  0  0  0  0  0  0  0  0  0
  188.6170  177.5100  139.5420 N   0  0  0  0  0  2  0  0  0  0  0  0
  191.5780  176.3000  138.1630 C   0  0  0  0  0  2  0  0  0  0  0  0
  191.7370  175.9240  136.7320 C   0  0  0  0  0  3  0  0  0  0  0  0
  190.6100  177.1620  138.5070 C   0  0  1  0  0  3  0  0  0  0  0  0
  189.5530  176.8940  136.2990 C   0  0  0  0  0  0  0  0  0  0  0  0
  189.7050  177.7730  137.5040 C   0  0  1  0  0  3  0  0  0  0  0  0
  190.7580  176.1770  135.8420 C   0  0  0  0  0  3  0  0  0  0  0  0
  184.8600  176.5690  136.0350 N   0  0  0  0  0  0  0  0  0  0  0  0
  184.2870  176.7260  137.1920 C   0  0  0  0  0  0  0  0  0  0  0  0
  184.7010  177.7880  138.1460 C   0  0  0  0  0  3  0  0  0  0  0  0
  187.1350  177.3720  136.3160 C   0  0  0  0  0  0  0  0  0  0  0  0
  185.9420  178.2540  138.3240 C   0  0  0  0  0  3  0  0  0  0  0  0
  187.1500  177.8090  137.5990 C   0  0  0  0  0  0  0  0  0  0  0  0
  183.2360  175.8660  137.5240 O   0  0  0  0  0  0  0  0  0  0  0  0
  182.8650  175.5650  138.8640 C   0  0  0  0  0  2  0  0  0  0  0  0
  181.4700  176.0890  139.1500 C   0  0  0  0  0  1  0  0  0  0  0  0
  190.4130  176.4750  140.9550 C   0  0  0  0  0  2  0  0  0  0  0  0
  189.5300  177.3240  144.5400 C   0  0  0  0  0  3  0  0  0  0  0  0
  188.2820  177.2280  142.0290 C   0  0  0  0  0  3  0  0  0  0  0  0
  186.0860  178.3610  145.4330 C   0  0  0  0  0  0  0  0  0  0  0  0
  187.4450  178.0320  145.5500 C   0  0  0  0  0  3  0  0  0  0  0  0
  188.1780  177.6540  144.4220 C   0  0  0  0  0  0  0  0  0  0  0  0
  186.1970  177.9340  143.0410 C   0  0  0  0  0  3  0  0  0  0  0  0
  187.5490  177.6060  143.1570 C   0  0  0  0  0  0  0  0  0  0  0  0
  185.4690  178.3100  144.1730 C   0  0  0  0  0  3  0  0  0  0  0  0
  189.6380  176.9040  142.1530 C   0  0  0  0  0  0  0  0  0  0  0  0
  190.2580  176.9470  143.4070 C   0  0  0  0  0  3  0  0  0  0  0  0
  185.3190  178.7570  146.6250 C   0  0  0  0  0  0  0  0  0  0  0  0
  184.1400  178.3460  146.7910 O   0  0  0  0  0  0  0  0  0  0  0  0
  185.8900  179.5910  147.5800 O   0  0  0  0  0  1  0  0  0  0  0  0
  1 17  1  6  0  0  0
  1  5  1  0  0  0  0
  2 12  1  0  0  0  0
  2 15  1  0  0  0  0
  3  9  2  0  0  0  0
  3 15  1  0  0  0  0
  4 21  1  0  0  0  0
  5  4  1  0  0  0  0
  7  6  1  0  0  0  0
  8  6  1  6  0  0  0
  8  4  1  0  0  0  0
 10  9  1  6  0  0  0
 10  1  1  0  0  0  0
 10  8  1  0  0  0  0
 11  9  1  0  0  0  0
 11  7  2  0  0  0  0
 12 13  2  0  0  0  0
 13 18  1  0  0  0  0
 13 14  1  0  0  0  0
 14 16  2  0  0  0  0
 15 17  2  0  0  0  0
 17 16  1  0  0  0  0
 18 19  1  0  0  0  0
 19 20  1  0  0  0  0
 21 30  1  0  0  0  0
 23 30  2  0  0  0  0
 23 28  1  0  0  0  0
 24 25  1  0  0  0  0
 24 32  1  0  0  0  0
 26 22  1  0  0  0  0
 26 25  2  0  0  0  0
 27 28  2  0  0  0  0
 27 29  1  0  0  0  0
 28 26  1  0  0  0  0
 29 24  2  0  0  0  0
 30 31  1  0  0  0  0
 31 22  2  0  0  0  0
 32 33  2  0  0  0  0
 32 34  1  0  0  0  0
M  END
>  <MODEL>
3

>  <REMARK>
 VINA RESULT:      -9.3      3.026      6.592
  Name = 
  5 active torsions:
  status: ('A' for Active; 'I' for Inactive)
    1  A    between atoms: O_3  and  C_13
    2  A    between atoms: O_3  and  C_25
    3  A    between atoms: C_7  and  C_11
    4  A    between atoms: N_8  and  C_18
    5  A    between atoms: C_18  and  C_30
                            x       y       z     vdW  Elec       q    Type
                         _______ _______ _______ _____ _____    ______ ____

>  <TORSDO>
F 5

$$$$
=
 OpenBabel10272415213D

 34 39  0  0  1  0  0  0  0  0999 V2000
  185.0840  177.7790  137.7330 C   0  0  1  0  0  3  0  0  0  0  0  0
  181.5100  176.5660  138.2500 C   0  0  0  0  0  2  0  0  0  0  0  0
  183.6760  175.3640  137.6080 C   0  0  0  0  0  3  0  0  0  0  0  0
  187.2730  177.8700  138.0120 N   0  0  0  0  0  0  0  0  0  0  0  0
  186.0270  178.4110  138.3610 N   0  0  0  0  0  2  0  0  0  0  0  0
  187.7420  175.5700  137.3010 C   0  0  0  0  0  2  0  0  0  0  0  0
  187.0850  174.2750  136.9740 C   0  0  0  0  0  3  0  0  0  0  0  0
  187.0200  176.6990  137.2450 C   0  0  1  0  0  3  0  0  0  0  0  0
  184.9360  175.3920  137.1480 C   0  0  0  0  0  0  0  0  0  0  0  0
  185.5930  176.7040  136.8430 C   0  0  1  0  0  3  0  0  0  0  0  0
  185.7420  174.1770  136.9310 C   0  0  0  0  0  3  0  0  0  0  0  0
  181.2140  176.8370  139.6500 N   0  0  0  0  0  0  0  0  0  0  0  0
  181.4310  177.9690  140.2510 C   0  0  0  0  0  0  0  0  0  0  0  0
  182.1040  179.1100  139.5780 C   0  0  0  0  0  3  0  0  0  0  0  0
  182.9770  176.6260  137.9920 C   0  0  0  0  0  0  0  0  0  0  0  0
  183.0740  179.0310  138.6610 C   0  0  0  0  0  3  0  0  0  0  0  0
  183.6660  177.7850  138.1290 C   0  0  0  0  0  0  0  0  0  0  0  0
  180.9950  178.1030  141.5730 O   0  0  0  0  0  0  0  0  0  0  0  0
  181.4050  179.1630  142.4290 C   0  0  0  0  0  2  0  0  0  0  0  0
  181.4170  178.6940  143.8720 C   0  0  0  0  0  1  0  0  0  0  0  0
  188.4760  178.0980  138.8020 C   0  0  0  0  0  2  0  0  0  0  0  0
  188.7590  177.2510  142.4840 C   0  0  0  0  0  3  0  0  0  0  0  0
  186.9630  178.5280  140.7490 C   0  0  0  0  0  3  0  0  0  0  0  0
  186.0600  178.1920  144.8430 C   0  0  0  0  0  0  0  0  0  0  0  0
  187.2610  177.6670  144.3420 C   0  0  0  0  0  3  0  0  0  0  0  0
  187.5650  177.7760  142.9830 C   0  0  0  0  0  0  0  0  0  0  0  0
  185.4640  178.9420  142.6070 C   0  0  0  0  0  3  0  0  0  0  0  0
  186.6600  178.4190  142.1080 C   0  0  0  0  0  0  0  0  0  0  0  0
  185.1660  178.8280  143.9670 C   0  0  0  0  0  3  0  0  0  0  0  0
  188.1650  178.0060  140.2560 C   0  0  0  0  0  0  0  0  0  0  0  0
  189.0570  177.3640  141.1230 C   0  0  0  0  0  3  0  0  0  0  0  0
  185.7450  178.0730  146.2760 C   0  0  0  0  0  0  0  0  0  0  0  0
  186.6140  177.6580  147.0880 O   0  0  0  0  0  1  0  0  0  0  0  0
  184.4830  178.4170  146.7460 O   0  0  0  0  0  0  0  0  0  0  0  0
  1 17  1  1  0  0  0
  1  5  1  0  0  0  0
  2 12  1  0  0  0  0
  3 15  1  0  0  0  0
  4  5  1  0  0  0  0
  4 21  1  0  0  0  0
  7  6  1  0  0  0  0
  8  6  1  1  0  0  0
  8  4  1  0  0  0  0
  9  3  2  0  0  0  0
 10  9  1  1  0  0  0
 10  8  1  0  0  0  0
 10  1  1  0  0  0  0
 11  7  2  0  0  0  0
 11  9  1  0  0  0  0
 12 13  2  0  0  0  0
 13 18  1  0  0  0  0
 14 13  1  0  0  0  0
 15 17  2  0  0  0  0
 15  2  1  0  0  0  0
 16 14  2  0  0  0  0
 17 16  1  0  0  0  0
 18 19  1  0  0  0  0
 19 20  1  0  0  0  0
 21 30  1  0  0  0  0
 22 26  1  0  0  0  0
 23 28  1  0  0  0  0
 24 32  1  0  0  0  0
 25 24  1  0  0  0  0
 26 25  2  0  0  0  0
 27 29  1  0  0  0  0
 28 27  2  0  0  0  0
 28 26  1  0  0  0  0
 29 24  2  0  0  0  0
 30 23  2  0  0  0  0
 30 31  1  0  0  0  0
 31 22  2  0  0  0  0
 32 34  2  0  0  0  0
 32 33  1  0  0  0  0
M  END
>  <MODEL>
4

>  <REMARK>
 VINA RESULT:      -9.3      3.455      7.861
  Name = 
  5 active torsions:
  status: ('A' for Active; 'I' for Inactive)
    1  A    between atoms: O_3  and  C_13
    2  A    between atoms: O_3  and  C_25
    3  A    between atoms: C_7  and  C_11
    4  A    between atoms: N_8  and  C_18
    5  A    between atoms: C_18  and  C_30
                            x       y       z     vdW  Elec       q    Type
                         _______ _______ _______ _____ _____    ______ ____

>  <TORSDO>
F 5

$$$$
=
 OpenBabel10272415213D

 34 39  0  0  1  0  0  0  0  0999 V2000
  187.5980  178.1550  138.4720 C   0  0  1  0  0  3  0  0  0  0  0  0
  184.1700  177.6810  136.8820 C   0  0  0  0  0  2  0  0  0  0  0  0
  186.5370  177.0730  136.1200 C   0  0  0  0  0  3  0  0  0  0  0  0
  189.5870  177.5920  139.2510 N   0  0  0  0  0  0  0  0  0  0  0  0
  188.2460  177.8680  139.5580 N   0  0  0  0  0  2  0  0  0  0  0  0
  190.4690  176.6940  137.1470 C   0  0  0  0  0  2  0  0  0  0  0  0
  190.0700  176.2990  135.7690 C   0  0  0  0  0  3  0  0  0  0  0  0
  189.6890  177.5420  137.8330 C   0  0  1  0  0  3  0  0  0  0  0  0
  187.8670  177.2200  136.2100 C   0  0  0  0  0  0  0  0  0  0  0  0
  188.4520  178.1190  137.2560 C   0  0  1  0  0  3  0  0  0  0  0  0
  188.8170  176.5190  135.3260 C   0  0  0  0  0  3  0  0  0  0  0  0
  183.4470  176.8000  137.7890 N   0  0  0  0  0  0  0  0  0  0  0  0
  183.3640  176.9640  139.0760 C   0  0  0  0  0  0  0  0  0  0  0  0
  184.0900  178.0480  139.7880 C   0  0  0  0  0  3  0  0  0  0  0  0
  185.6340  177.6510  137.1600 C   0  0  0  0  0  0  0  0  0  0  0  0
  185.2910  178.5410  139.4680 C   0  0  0  0  0  3  0  0  0  0  0  0
  186.1340  178.1080  138.3340 C   0  0  0  0  0  0  0  0  0  0  0  0
  182.5440  176.0880  139.7960 O   0  0  0  0  0  0  0  0  0  0  0  0
  181.1230  176.1200  139.7350 C   0  0  0  0  0  2  0  0  0  0  0  0
  180.5970  177.3600  140.4330 C   0  0  0  0  0  1  0  0  0  0  0  0
  190.4730  176.8900  140.1710 C   0  0  0  0  0  2  0  0  0  0  0  0
  190.7480  178.0040  143.7810 C   0  0  0  0  0  3  0  0  0  0  0  0
  188.8170  176.9400  142.0470 C   0  0  0  0  0  3  0  0  0  0  0  0
  187.8300  177.7590  146.0520 C   0  0  0  0  0  0  0  0  0  0  0  0
  189.1250  178.0180  145.5790 C   0  0  0  0  0  3  0  0  0  0  0  0
  189.4580  177.7480  144.2500 C   0  0  0  0  0  0  0  0  0  0  0  0
  187.1950  176.9530  143.8460 C   0  0  0  0  0  3  0  0  0  0  0  0
  188.4850  177.2110  143.3760 C   0  0  0  0  0  0  0  0  0  0  0  0
  186.8700  177.2250  145.1780 C   0  0  0  0  0  3  0  0  0  0  0  0
  190.1110  177.2050  141.5810 C   0  0  0  0  0  0  0  0  0  0  0  0
  191.0740  177.7300  142.4490 C   0  0  0  0  0  3  0  0  0  0  0  0
  187.4860  178.0460  147.4540 C   0  0  0  0  0  0  0  0  0  0  0  0
  186.3740  178.5600  147.7460 O   0  0  0  0  0  0  0  0  0  0  0  0
  188.3890  177.7520  148.4710 O   0  0  0  0  0  1  0  0  0  0  0  0
  1 17  1  6  0  0  0
  1  5  1  0  0  0  0
  2 15  1  0  0  0  0
  2 12  1  0  0  0  0
  3  9  2  0  0  0  0
  3 15  1  0  0  0  0
  4  5  1  0  0  0  0
  4 21  1  0  0  0  0
  7  6  1  0  0  0  0
  8  6  1  1  0  0  0
  8  4  1  0  0  0  0
 10  9  1  6  0  0  0
 10  8  1  0  0  0  0
 10  1  1  0  0  0  0
 11  7  2  0  0  0  0
 11  9  1  0  0  0  0
 12 13  2  0  0  0  0
 13 14  1  0  0  0  0
 13 18  1  0  0  0  0
 15 17  2  0  0  0  0
 16 14  2  0  0  0  0
 17 16  1  0  0  0  0
 19 18  1  0  0  0  0
 19 20  1  0  0  0  0
 21 30  1  0  0  0  0
 22 26  1  0  0  0  0
 23 28  1  0  0  0  0
 24 32  1  0  0  0  0
 25 24  1  0  0  0  0
 26 25  2  0  0  0  0
 27 29  1  0  0  0  0
 28 27  2  0  0  0  0
 28 26  1  0  0  0  0
 29 24  2  0  0  0  0
 30 23  2  0  0  0  0
 30 31  1  0  0  0  0
 31 22  2  0  0  0  0
 32 33  2  0  0  0  0
 32 34  1  0  0  0  0
M  END
>  <MODEL>
5

>  <REMARK>
 VINA RESULT:      -9.2      3.211      7.479
  Name = 
  5 active torsions:
  status: ('A' for Active; 'I' for Inactive)
    1  A    between atoms: O_3  and  C_13
    2  A    between atoms: O_3  and  C_25
    3  A    between atoms: C_7  and  C_11
    4  A    between atoms: N_8  and  C_18
    5  A    between atoms: C_18  and  C_30
                            x       y       z     vdW  Elec       q    Type
                         _______ _______ _______ _____ _____    ______ ____

>  <TORSDO>
F 5

$$$$
=
 OpenBabel10272415213D

 34 39  0  0  1  0  0  0  0  0999 V2000
  190.0440  175.7220  137.6890 C   0  0  1  0  0  3  0  0  0  0  0  0
  192.4160  174.8220  134.8480 C   0  0  0  0  0  2  0  0  0  0  0  0
  189.9600  175.5390  134.8980 C   0  0  0  0  0  3  0  0  0  0  0  0
  188.6090  176.9370  138.8470 N   0  0  0  0  0  0  0  0  0  0  0  0
  189.9450  176.5420  138.6880 N   0  0  0  0  0  2  0  0  0  0  0  0
  186.8900  177.0790  137.1040 C   0  0  0  0  0  2  0  0  0  0  0  0
  186.6400  176.8030  135.6630 C   0  0  0  0  0  3  0  0  0  0  0  0
  187.8890  176.4370  137.7260 C   0  0  1  0  0  3  0  0  0  0  0  0
  188.8060  175.7110  135.5600 C   0  0  0  0  0  0  0  0  0  0  0  0
  188.7400  175.4410  137.0330 C   0  0  1  0  0  3  0  0  0  0  0  0
  187.5670  176.1770  134.9120 C   0  0  0  0  0  3  0  0  0  0  0  0
  193.4700  175.8260  134.8980 N   0  0  0  0  0  0  0  0  0  0  0  0
  194.1140  176.1760  135.9720 C   0  0  0  0  0  0  0  0  0  0  0  0
  193.7730  175.6360  137.3150 C   0  0  0  0  0  3  0  0  0  0  0  0
  191.2270  175.2540  135.6350 C   0  0  0  0  0  0  0  0  0  0  0  0
  192.5520  175.3090  137.7510 C   0  0  0  0  0  3  0  0  0  0  0  0
  191.2970  175.4140  136.9790 C   0  0  0  0  0  0  0  0  0  0  0  0
  195.1720  177.0810  135.8360 O   0  0  0  0  0  0  0  0  0  0  0  0
  196.2730  176.8700  134.9600 C   0  0  0  0  0  2  0  0  0  0  0  0
  197.1780  175.7850  135.5100 C   0  0  0  0  0  1  0  0  0  0  0  0
  188.2240  178.1110  139.6210 C   0  0  0  0  0  2  0  0  0  0  0  0
  190.3370  177.6060  142.7250 C   0  0  0  0  0  3  0  0  0  0  0  0
  187.6310  177.8890  142.0420 C   0  0  0  0  0  3  0  0  0  0  0  0
  188.7450  177.3260  146.0590 C   0  0  0  0  0  0  0  0  0  0  0  0
  189.7250  177.3740  145.0570 C   0  0  0  0  0  3  0  0  0  0  0  0
  189.3610  177.5600  143.7220 C   0  0  0  0  0  0  0  0  0  0  0  0
  187.0200  177.6550  144.3750 C   0  0  0  0  0  3  0  0  0  0  0  0
  187.9970  177.7030  143.3780 C   0  0  0  0  0  0  0  0  0  0  0  0
  187.3920  177.4670  145.7090 C   0  0  0  0  0  3  0  0  0  0  0  0
  188.6160  177.9400  141.0490 C   0  0  0  0  0  0  0  0  0  0  0  0
  189.9650  177.7930  141.3900 C   0  0  0  0  0  3  0  0  0  0  0  0
  189.1360  177.1280  147.4640 C   0  0  0  0  0  0  0  0  0  0  0  0
  190.3000  176.7450  147.7550 O   0  0  0  0  0  0  0  0  0  0  0  0
  188.2210  177.3630  148.4850 O   0  0  0  0  0  1  0  0  0  0  0  0
  1 17  1  6  0  0  0
  1  5  1  0  0  0  0
  2 12  1  0  0  0  0
  2 15  1  0  0  0  0
  3  9  2  0  0  0  0
  3 15  1  0  0  0  0
  4 21  1  0  0  0  0
  5  4  1  0  0  0  0
  7  6  1  0  0  0  0
  8  6  1  6  0  0  0
  8  4  1  0  0  0  0
 10  9  1  6  0  0  0
 10  1  1  0  0  0  0
 10  8  1  0  0  0  0
 11  9  1  0  0  0  0
 11  7  2  0  0  0  0
 12 13  2  0  0  0  0
 13 14  1  0  0  0  0
 14 16  2  0  0  0  0
 15 17  2  0  0  0  0
 17 16  1  0  0  0  0
 18 13  1  0  0  0  0
 19 20  1  0  0  0  0
 19 18  1  0  0  0  0
 21 30  1  0  0  0  0
 22 26  1  0  0  0  0
 23 28  1  0  0  0  0
 24 32  1  0  0  0  0
 25 24  2  0  0  0  0
 26 25  1  0  0  0  0
 27 29  2  0  0  0  0
 28 26  2  0  0  0  0
 28 27  1  0  0  0  0
 29 24  1  0  0  0  0
 30 31  1  0  0  0  0
 30 23  2  0  0  0  0
 31 22  2  0  0  0  0
 32 33  2  0  0  0  0
 32 34  1  0  0  0  0
M  END
>  <MODEL>
6

>  <REMARK>
 VINA RESULT:      -9.1      4.097      7.827
  Name = 
  5 active torsions:
  status: ('A' for Active; 'I' for Inactive)
    1  A    between atoms: O_3  and  C_13
    2  A    between atoms: O_3  and  C_25
    3  A    between atoms: C_7  and  C_11
    4  A    between atoms: N_8  and  C_18
    5  A    between atoms: C_18  and  C_30
                            x       y       z     vdW  Elec       q    Type
                         _______ _______ _______ _____ _____    ______ ____

>  <TORSDO>
F 5

$$$$
=
 OpenBabel10272415213D

 34 39  0  0  1  0  0  0  0  0999 V2000
  186.0320  177.9200  137.6510 C   0  0  1  0  0  3  0  0  0  0  0  0
  182.4240  177.0620  138.5220 C   0  0  0  0  0  2  0  0  0  0  0  0
  184.3890  175.6550  137.6780 C   0  0  0  0  0  3  0  0  0  0  0  0
  188.2370  177.7940  137.7140 N   0  0  0  0  0  0  0  0  0  0  0  0
  187.0900  178.4530  138.1800 N   0  0  0  0  0  2  0  0  0  0  0  0
  188.4060  175.4620  136.9740 C   0  0  0  0  0  2  0  0  0  0  0  0
  187.5960  174.2390  136.7200 C   0  0  0  0  0  3  0  0  0  0  0  0
  187.7960  176.6570  136.9820 C   0  0  1  0  0  3  0  0  0  0  0  0
  185.5940  175.5610  137.0970 C   0  0  0  0  0  0  0  0  0  0  0  0
  186.3440  176.8040  136.7220 C   0  0  1  0  0  3  0  0  0  0  0  0
  186.2520  174.2740  136.8090 C   0  0  0  0  0  3  0  0  0  0  0  0
  182.2950  177.3550  139.9430 N   0  0  0  0  0  0  0  0  0  0  0  0
  182.6800  178.4580  140.5130 C   0  0  0  0  0  0  0  0  0  0  0  0
  183.3920  179.5300  139.7710 C   0  0  0  0  0  3  0  0  0  0  0  0
  183.8580  176.9790  138.1220 C   0  0  0  0  0  0  0  0  0  0  0  0
  184.2550  179.3590  138.7640 C   0  0  0  0  0  3  0  0  0  0  0  0
  184.6670  178.0640  138.1840 C   0  0  0  0  0  0  0  0  0  0  0  0
  182.3900  178.6290  141.8710 O   0  0  0  0  0  0  0  0  0  0  0  0
  183.3900  178.7900  142.8700 C   0  0  0  0  0  2  0  0  0  0  0  0
  182.7570  178.7870  144.2490 C   0  0  0  0  0  1  0  0  0  0  0  0
  189.5280  177.8990  138.3820 C   0  0  0  0  0  2  0  0  0  0  0  0
  188.0620  178.3440  141.8470 C   0  0  0  0  0  3  0  0  0  0  0  0
  190.3410  177.2280  140.6510 C   0  0  0  0  0  3  0  0  0  0  0  0
  189.8740  177.0970  144.8290 C   0  0  0  0  0  0  0  0  0  0  0  0
  188.8900  177.6970  144.0300 C   0  0  0  0  0  3  0  0  0  0  0  0
  189.0410  177.7430  142.6420 C   0  0  0  0  0  0  0  0  0  0  0  0
  191.1700  176.5840  142.8350 C   0  0  0  0  0  3  0  0  0  0  0  0
  190.1900  177.1820  142.0400 C   0  0  0  0  0  0  0  0  0  0  0  0
  191.0130  176.5420  144.2230 C   0  0  0  0  0  3  0  0  0  0  0  0
  189.3540  177.8250  139.8600 C   0  0  0  0  0  0  0  0  0  0  0  0
  188.2200  178.3870  140.4580 C   0  0  0  0  0  3  0  0  0  0  0  0
  189.7100  177.0520  146.2910 C   0  0  0  0  0  0  0  0  0  0  0  0
  188.5950  177.3160  146.8160 O   0  0  0  0  0  0  0  0  0  0  0  0
  190.7850  176.7180  147.1070 O   0  0  0  0  0  1  0  0  0  0  0  0
  1  5  1  1  0  0  0
  1 17  1  0  0  0  0
  2 12  1  0  0  0  0
  3 15  1  0  0  0  0
  4  5  1  0  0  0  0
  4 21  1  0  0  0  0
  7 11  2  0  0  0  0
  7  6  1  0  0  0  0
  8  6  1  1  0  0  0
  8  4  1  0  0  0  0
  9  3  2  0  0  0  0
 10  8  1  0  0  0  0
 10  9  1  1  0  0  0
 10  1  1  0  0  0  0
 11  9  1  0  0  0  0
 12 13  2  0  0  0  0
 13 18  1  0  0  0  0
 14 13  1  0  0  0  0
 15 17  2  0  0  0  0
 15  2  1  0  0  0  0
 16 14  2  0  0  0  0
 17 16  1  0  0  0  0
 18 19  1  0  0  0  0
 19 20  1  0  0  0  0
 21 30  1  0  0  0  0
 22 26  1  0  0  0  0
 23 28  1  0  0  0  0
 24 32  1  0  0  0  0
 25 24  2  0  0  0  0
 26 25  1  0  0  0  0
 27 29  2  0  0  0  0
 28 26  2  0  0  0  0
 28 27  1  0  0  0  0
 29 24  1  0  0  0  0
 30 31  1  0  0  0  0
 30 23  2  0  0  0  0
 31 22  2  0  0  0  0
 32 33  2  0  0  0  0
 32 34  1  0  0  0  0
M  END
>  <MODEL>
7

>  <REMARK>
 VINA RESULT:      -8.9      3.243      8.285
  Name = 
  5 active torsions:
  status: ('A' for Active; 'I' for Inactive)
    1  A    between atoms: O_3  and  C_13
    2  A    between atoms: O_3  and  C_25
    3  A    between atoms: C_7  and  C_11
    4  A    between atoms: N_8  and  C_18
    5  A    between atoms: C_18  and  C_30
                            x       y       z     vdW  Elec       q    Type
                         _______ _______ _______ _____ _____    ______ ____

>  <TORSDO>
F 5

$$$$
=
 OpenBabel10272415213D

 34 39  0  0  1  0  0  0  0  0999 V2000
  188.0710  177.4690  137.8190 C   0  0  1  0  0  3  0  0  0  0  0  0
  184.5050  176.4660  136.9310 C   0  0  0  0  0  2  0  0  0  0  0  0
  186.7360  175.2150  136.8360 C   0  0  0  0  0  3  0  0  0  0  0  0
  190.0430  177.3510  138.8070 N   0  0  0  0  0  0  0  0  0  0  0  0
  188.7630  177.9250  138.8170 N   0  0  0  0  0  2  0  0  0  0  0  0
  190.6740  175.1570  137.9100 C   0  0  0  0  0  2  0  0  0  0  0  0
  190.1380  173.9800  137.1730 C   0  0  0  0  0  3  0  0  0  0  0  0
  190.0360  176.3330  137.8130 C   0  0  1  0  0  3  0  0  0  0  0  0
  188.0770  175.2180  136.8230 C   0  0  0  0  0  0  0  0  0  0  0  0
  188.8260  176.5070  136.9750 C   0  0  1  0  0  3  0  0  0  0  0  0
  188.8840  173.9920  136.6790 C   0  0  0  0  0  3  0  0  0  0  0  0
  183.7640  176.5420  138.1830 N   0  0  0  0  0  0  0  0  0  0  0  0
  183.7920  177.5490  139.0040 C   0  0  0  0  0  0  0  0  0  0  0  0
  184.6740  178.7260  138.7890 C   0  0  0  0  0  3  0  0  0  0  0  0
  185.9750  176.4530  137.1790 C   0  0  0  0  0  0  0  0  0  0  0  0
  185.8930  178.7130  138.2390 C   0  0  0  0  0  3  0  0  0  0  0  0
  186.6020  177.5230  137.7270 C   0  0  0  0  0  0  0  0  0  0  0  0
  182.9420  177.5130  140.1140 O   0  0  0  0  0  0  0  0  0  0  0  0
  182.8640  178.5600  141.0750 C   0  0  0  0  0  2  0  0  0  0  0  0
  183.8610  178.3180  142.1920 C   0  0  0  0  0  1  0  0  0  0  0  0
  190.9180  177.3640  139.9730 C   0  0  0  0  0  2  0  0  0  0  0  0
  187.9480  177.4150  142.3250 C   0  0  0  0  0  3  0  0  0  0  0  0
  190.7500  177.4530  142.4680 C   0  0  0  0  0  3  0  0  0  0  0  0
  188.4570  177.5890  145.9920 C   0  0  0  0  0  0  0  0  0  0  0  0
  187.8230  177.5230  144.7420 C   0  0  0  0  0  3  0  0  0  0  0  0
  188.5800  177.4780  143.5690 C   0  0  0  0  0  0  0  0  0  0  0  0
  190.6240  177.5620  144.8850 C   0  0  0  0  0  3  0  0  0  0  0  0
  189.9920  177.4970  143.6410 C   0  0  0  0  0  0  0  0  0  0  0  0
  189.8590  177.6080  146.0550 C   0  0  0  0  0  3  0  0  0  0  0  0
  190.1100  177.3830  141.2250 C   0  0  0  0  0  0  0  0  0  0  0  0
  188.7130  177.3710  141.1550 C   0  0  0  0  0  3  0  0  0  0  0  0
  187.6530  177.6370  147.2240 C   0  0  0  0  0  0  0  0  0  0  0  0
  188.0710  177.0900  148.2800 O   0  0  0  0  0  1  0  0  0  0  0  0
  186.4240  178.2860  147.2330 O   0  0  0  0  0  0  0  0  0  0  0  0
  1 17  1  1  0  0  0
  1  5  1  0  0  0  0
  2 15  1  0  0  0  0
  2 12  1  0  0  0  0
  3 15  1  0  0  0  0
  4  5  1  0  0  0  0
  4 21  1  0  0  0  0
  7  6  1  0  0  0  0
  8  6  1  1  0  0  0
  8  4  1  0  0  0  0
  9  3  2  0  0  0  0
 10  9  1  1  0  0  0
 10  8  1  0  0  0  0
 10  1  1  0  0  0  0
 11  9  1  0  0  0  0
 11  7  2  0  0  0  0
 12 13  2  0  0  0  0
 13 18  1  0  0  0  0
 14 13  1  0  0  0  0
 15 17  2  0  0  0  0
 16 14  2  0  0  0  0
 17 16  1  0  0  0  0
 18 19  1  0  0  0  0
 19 20  1  0  0  0  0
 21 30  1  0  0  0  0
 22 26  1  0  0  0  0
 23 28  1  0  0  0  0
 24 29  1  0  0  0  0
 24 32  1  0  0  0  0
 25 24  2  0  0  0  0
 26 28  2  0  0  0  0
 26 25  1  0  0  0  0
 27 29  2  0  0  0  0
 28 27  1  0  0  0  0
 30 23  2  0  0  0  0
 31 30  1  0  0  0  0
 31 22  2  0  0  0  0
 32 34  2  0  0  0  0
 32 33  1  0  0  0  0
M  END
>  <MODEL>
8

>  <REMARK>
 VINA RESULT:      -8.8      3.120      7.326
  Name = 
  5 active torsions:
  status: ('A' for Active; 'I' for Inactive)
    1  A    between atoms: O_3  and  C_13
    2  A    between atoms: O_3  and  C_25
    3  A    between atoms: C_7  and  C_11
    4  A    between atoms: N_8  and  C_18
    5  A    between atoms: C_18  and  C_30
                            x       y       z     vdW  Elec       q    Type
                         _______ _______ _______ _____ _____    ______ ____

>  <TORSDO>
F 5

$$$$
=
 OpenBabel10272415213D

 34 39  0  0  1  0  0  0  0  0999 V2000
  186.7250  176.7500  137.2820 C   0  0  1  0  0  3  0  0  0  0  0  0
  183.5230  174.7630  136.7300 C   0  0  0  0  0  2  0  0  0  0  0  0
  185.9980  174.1110  136.7010 C   0  0  0  0  0  3  0  0  0  0  0  0
  188.6750  177.2800  138.1750 N   0  0  0  0  0  0  0  0  0  0  0  0
  187.2920  177.5100  138.1680 N   0  0  0  0  0  2  0  0  0  0  0  0
  189.8340  175.2050  137.5690 C   0  0  0  0  0  2  0  0  0  0  0  0
  189.6060  173.8340  137.0370 C   0  0  0  0  0  3  0  0  0  0  0  0
  188.9160  176.1550  137.3380 C   0  0  1  0  0  3  0  0  0  0  0  0
  187.2940  174.4480  136.6190 C   0  0  0  0  0  0  0  0  0  0  0  0
  187.6900  175.8920  136.5470 C   0  0  1  0  0  3  0  0  0  0  0  0
  188.3850  173.4570  136.6100 C   0  0  0  0  0  3  0  0  0  0  0  0
  182.8040  174.8390  137.9940 N   0  0  0  0  0  0  0  0  0  0  0  0
  182.5840  175.9340  138.6600 C   0  0  0  0  0  0  0  0  0  0  0  0
  183.1340  177.2470  138.2350 C   0  0  0  0  0  3  0  0  0  0  0  0
  184.9500  175.1570  136.9020 C   0  0  0  0  0  0  0  0  0  0  0  0
  184.3080  177.4570  137.6300 C   0  0  0  0  0  3  0  0  0  0  0  0
  185.2910  176.4190  137.2580 C   0  0  0  0  0  0  0  0  0  0  0  0
  181.7860  175.8540  139.8070 O   0  0  0  0  0  0  0  0  0  0  0  0
  180.3780  176.0580  139.7950 C   0  0  0  0  0  2  0  0  0  0  0  0
  180.0480  177.4480  140.3050 C   0  0  0  0  0  1  0  0  0  0  0  0
  189.5330  177.6880  139.2800 C   0  0  0  0  0  2  0  0  0  0  0  0
  188.4040  176.9570  142.8220 C   0  0  0  0  0  3  0  0  0  0  0  0
  187.6120  178.5350  140.6420 C   0  0  0  0  0  3  0  0  0  0  0  0
  185.3770  178.5880  144.2050 C   0  0  0  0  0  0  0  0  0  0  0  0
  186.5220  177.7830  144.1040 C   0  0  0  0  0  3  0  0  0  0  0  0
  187.2670  177.7610  142.9230 C   0  0  0  0  0  0  0  0  0  0  0  0
  185.7280  179.3580  141.9240 C   0  0  0  0  0  3  0  0  0  0  0  0
  186.8670  178.5560  141.8240 C   0  0  0  0  0  0  0  0  0  0  0  0
  184.9870  179.3730  143.1090 C   0  0  0  0  0  3  0  0  0  0  0  0
  188.7540  177.7320  140.5500 C   0  0  0  0  0  0  0  0  0  0  0  0
  189.1450  176.9410  141.6360 C   0  0  0  0  0  3  0  0  0  0  0  0
  184.5960  178.6050  145.4530 C   0  0  0  0  0  0  0  0  0  0  0  0
  183.4360  179.0950  145.4720 O   0  0  0  0  0  0  0  0  0  0  0  0
  185.1340  178.0790  146.6220 O   0  0  0  0  0  1  0  0  0  0  0  0
  1 17  1  1  0  0  0
  1  5  1  0  0  0  0
  2 15  1  0  0  0  0
  2 12  1  0  0  0  0
  3 15  1  0  0  0  0
  4 21  1  0  0  0  0
  5  4  1  0  0  0  0
  7  6  1  0  0  0  0
  8  6  1  1  0  0  0
  8  4  1  0  0  0  0
  9  3  2  0  0  0  0
 10  9  1  1  0  0  0
 10  1  1  0  0  0  0
 10  8  1  0  0  0  0
 11  9  1  0  0  0  0
 11  7  2  0  0  0  0
 12 13  2  0  0  0  0
 13 18  1  0  0  0  0
 14 13  1  0  0  0  0
 15 17  2  0  0  0  0
 16 14  2  0  0  0  0
 17 16  1  0  0  0  0
 19 18  1  0  0  0  0
 19 20  1  0  0  0  0
 21 30  1  0  0  0  0
 22 26  1  0  0  0  0
 23 28  1  0  0  0  0
 24 32  1  0  0  0  0
 25 24  1  0  0  0  0
 26 25  2  0  0  0  0
 27 29  1  0  0  0  0
 28 27  2  0  0  0  0
 28 26  1  0  0  0  0
 29 24  2  0  0  0  0
 30 23  2  0  0  0  0
 30 31  1  0  0  0  0
 31 22  2  0  0  0  0
 32 33  2  0  0  0  0
 32 34  1  0  0  0  0
M  END
>  <MODEL>
9

>  <REMARK>
 VINA RESULT:      -8.8      3.306      7.254
  Name = 
  5 active torsions:
  status: ('A' for Active; 'I' for Inactive)
    1  A    between atoms: O_3  and  C_13
    2  A    between atoms: O_3  and  C_25
    3  A    between atoms: C_7  and  C_11
    4  A    between atoms: N_8  and  C_18
    5  A    between atoms: C_18  and  C_30
                            x       y       z     vdW  Elec       q    Type
                         _______ _______ _______ _____ _____    ______ ____

>  <TORSDO>
F 5

$$$$
