=
 OpenBabel10272414573D

 37 41  0  0  1  0  0  0  0  0999 V2000
  183.6700  177.6840  141.4720 C   0  0  1  0  0  3  0  0  0  0  0  0
  180.2460  178.4950  141.4500 S   0  0  1  0  0  0  0  0  0  0  0  0
  183.8760  177.3360  138.8650 C   0  0  0  0  0  2  0  0  0  0  0  0
  180.5320  181.4720  138.1860 C   0  0  0  0  0  3  0  0  0  0  0  0
  181.5210  178.3190  140.1660 C   0  0  1  0  0  0  0  0  0  0  0  0
  180.7120  180.5930  139.2570 C   0  0  0  0  0  0  0  0  0  0  0  0
  181.5200  176.8130  139.7550 C   0  0  2  0  0  3  0  0  0  0  0  0
  180.4160  181.0730  140.5410 O   0  0  0  0  0  0  0  0  0  0  0  0
  181.1770  179.2690  139.0150 C   0  0  0  0  0  0  0  0  0  0  0  0
  181.2500  179.7790  136.6270 C   0  0  0  0  0  3  0  0  0  0  0  0
  180.9130  177.9920  142.7240 O   0  0  0  0  0  0  0  0  0  0  0  0
  180.2120  180.2500  141.6450 C   0  0  0  0  0  0  0  0  0  0  0  0
  181.4490  178.8950  137.6860 C   0  0  0  0  0  3  0  0  0  0  0  0
  182.7720  176.2940  139.0320 C   0  0  0  0  0  2  0  0  0  0  0  0
  179.9830  180.7580  142.7730 O   0  0  0  0  0  0  0  0  0  0  0  0
  182.8790  178.7900  140.7630 C   0  0  2  0  0  3  0  0  0  0  0  0
  180.7920  181.0720  136.8700 C   0  0  0  0  0  0  0  0  0  0  0  0
  184.1210  178.2050  140.1030 C   0  0  1  0  0  0  0  0  0  0  0  0
  180.6080  181.9390  135.7880 O   0  0  0  0  0  0  0  0  0  0  0  0
  180.4140  183.3370  135.9490 C   0  0  0  0  0  1  0  0  0  0  0  0
  184.4380  178.2860  142.6380 C   0  0  0  0  0  2  0  0  0  0  0  0
  184.0980  178.9830  144.9840 C   0  0  0  0  0  1  0  0  0  0  0  0
  183.4670  178.9220  143.6100 C   0  0  0  0  0  2  0  0  0  0  0  0
  185.2650  179.2090  140.0250 C   0  0  0  0  0  2  0  0  0  0  0  0
  186.3930  178.6020  139.4710 O   0  0  0  0  0  0  0  0  0  0  0  0
  187.3040  178.5270  140.5240 C   0  0  0  0  0  2  0  0  0  0  0  0
  189.1720  178.2500  138.9780 C   0  0  0  0  0  2  0  0  0  0  0  0
  188.5350  177.8280  140.0640 C   0  0  0  0  0  3  0  0  0  0  0  0
  180.2410  176.3600  139.0570 C   0  0  0  0  0  2  0  0  0  0  0  0
  180.5010  176.1060  137.5840 C   0  0  0  0  0  2  0  0  0  0  0  0
  180.0060  173.7560  138.2860 C   0  0  0  0  0  3  0  0  0  0  0  0
  180.4720  174.6430  137.3080 C   0  0  0  0  0  0  0  0  0  0  0  0
  180.9410  174.1500  136.0860 C   0  0  0  0  0  3  0  0  0  0  0  0
  181.4270  172.2520  134.5370 C   0  0  0  0  0  1  0  0  0  0  0  0
  180.4640  171.8900  136.8120 C   0  0  0  0  0  3  0  0  0  0  0  0
  180.9350  172.7740  135.8360 C   0  0  0  0  0  0  0  0  0  0  0  0
  180.0000  172.3810  138.0370 C   0  0  0  0  0  3  0  0  0  0  0  0
  1 21  1  1  0  0  0
  2 12  1  0  0  0  0
  2 11  2  1  0  0  0
  3 14  1  0  0  0  0
  3 18  1  0  0  0  0
  4  6  1  0  0  0  0
  5  9  1  6  0  0  0
  5 16  1  0  0  0  0
  5  2  1  0  0  0  0
  6  8  1  0  0  0  0
  7 29  1  6  0  0  0
  7  5  1  0  0  0  0
  8 12  1  0  0  0  0
  9  6  2  0  0  0  0
 10 17  1  0  0  0  0
 10 13  2  0  0  0  0
 12 15  2  0  0  0  0
 13  9  1  0  0  0  0
 14  7  1  0  0  0  0
 16  1  1  0  0  0  0
 17  4  2  0  0  0  0
 18 16  1  0  0  0  0
 18  1  1  0  0  0  0
 19 20  1  0  0  0  0
 19 17  1  0  0  0  0
 21 23  1  0  0  0  0
 23 22  1  0  0  0  0
 24 18  1  0  0  0  0
 25 24  1  0  0  0  0
 25 26  1  0  0  0  0
 27 28  2  0  0  0  0
 28 26  1  0  0  0  0
 30 29  1  0  0  0  0
 32 30  1  0  0  0  0
 32 31  2  0  0  0  0
 33 32  1  0  0  0  0
 34 36  1  0  0  0  0
 35 37  2  0  0  0  0
 36 33  2  0  0  0  0
 36 35  1  0  0  0  0
 37 31  1  0  0  0  0
M  END
>  <MODEL>
1

>  <REMARK>
 VINA RESULT:      -5.8      0.000      0.000
  Name = 
  10 active torsions:
  status: ('A' for Active; 'I' for Inactive)
    1  A    between atoms: C_1  and  C_5
    2  A    between atoms: O_3  and  C_32
    3  A    between atoms: C_5  and  C_23
    4  A    between atoms: C_6  and  C_31
    5  A    between atoms: C_14  and  C_37
    6  A    between atoms: O_17  and  C_26
    7  A    between atoms: O_17  and  C_33
    8  A    between atoms: C_26  and  C_34
    9  A    between atoms: C_31  and  C_37
   10  A    between atoms: C_33  and  C_36
                            x       y       z     vdW  Elec       q    Type
                         _______ _______ _______ _____ _____    ______ ____

>  <TORSDO>
F 10

$$$$
=
 OpenBabel10272414573D

 37 41  0  0  1  0  0  0  0  0999 V2000
  181.4810  175.5620  136.2320 C   0  0  1  0  0  3  0  0  0  0  0  0
  182.2630  178.9860  136.4490 S   0  0  1  0  0  0  0  0  0  0  0  0
  182.8320  174.8460  138.3810 C   0  0  0  0  0  2  0  0  0  0  0  0
  181.2340  179.3910  140.7340 C   0  0  0  0  0  3  0  0  0  0  0  0
  182.4470  177.5650  137.5670 C   0  0  1  0  0  0  0  0  0  0  0  0
  181.3810  179.0470  139.3880 C   0  0  0  0  0  0  0  0  0  0  0  0
  183.8260  176.9180  137.2270 C   0  0  2  0  0  3  0  0  0  0  0  0
  180.5500  179.6970  138.4630 O   0  0  0  0  0  0  0  0  0  0  0  0
  182.3470  178.0740  139.0080 C   0  0  0  0  0  0  0  0  0  0  0  0
  182.9750  177.8440  141.3580 C   0  0  0  0  0  3  0  0  0  0  0  0
  181.8200  178.3760  135.1240 O   0  0  0  0  0  0  0  0  0  0  0  0
  180.7970  179.7290  137.0930 C   0  0  0  0  0  0  0  0  0  0  0  0
  183.1230  177.4800  140.0210 C   0  0  0  0  0  3  0  0  0  0  0  0
  184.0420  175.4690  137.6890 C   0  0  0  0  0  2  0  0  0  0  0  0
  179.9860  180.3050  136.3230 O   0  0  0  0  0  0  0  0  0  0  0  0
  181.2450  176.6040  137.3330 C   0  0  2  0  0  3  0  0  0  0  0  0
  182.0290  178.8000  141.7230 C   0  0  0  0  0  0  0  0  0  0  0  0
  181.4890  175.1480  137.7070 C   0  0  1  0  0  0  0  0  0  0  0  0
  181.8990  179.1420  143.0730 O   0  0  0  0  0  0  0  0  0  0  0  0
  182.8880  178.8290  144.0430 C   0  0  0  0  0  1  0  0  0  0  0  0
  180.1660  175.2750  135.5250 C   0  0  0  0  0  2  0  0  0  0  0  0
  181.8670  173.9190  134.3510 C   0  0  0  0  0  1  0  0  0  0  0  0
  180.3980  174.2810  134.4070 C   0  0  0  0  0  2  0  0  0  0  0  0
  180.2530  174.4870  138.3060 C   0  0  0  0  0  2  0  0  0  0  0  0
  180.5390  173.1640  138.6460 O   0  0  0  0  0  0  0  0  0  0  0  0
  179.9820  172.4090  137.6150 C   0  0  0  0  0  2  0  0  0  0  0  0
  182.2130  171.6200  137.0130 C   0  0  0  0  0  2  0  0  0  0  0  0
  180.9320  171.3330  137.2200 C   0  0  0  0  0  3  0  0  0  0  0  0
  185.0260  177.7980  137.5630 C   0  0  0  0  0  2  0  0  0  0  0  0
  186.2780  177.2690  136.8880 C   0  0  0  0  0  2  0  0  0  0  0  0
  187.3450  178.1320  138.9800 C   0  0  0  0  0  3  0  0  0  0  0  0
  187.4290  177.3380  137.8310 C   0  0  0  0  0  0  0  0  0  0  0  0
  188.6070  176.6370  137.5510 C   0  0  0  0  0  3  0  0  0  0  0  0
  190.9430  175.9700  138.1320 C   0  0  0  0  0  1  0  0  0  0  0  0
  189.6080  177.5090  139.5760 C   0  0  0  0  0  3  0  0  0  0  0  0
  189.6950  176.7200  138.4250 C   0  0  0  0  0  0  0  0  0  0  0  0
  188.4340  178.2160  139.8530 C   0  0  0  0  0  3  0  0  0  0  0  0
  1 21  1  6  0  0  0
  1 16  1  0  0  0  0
  1 18  1  0  0  0  0
  2 11  2  6  0  0  0
  2 12  1  0  0  0  0
  2  5  1  0  0  0  0
  4 17  1  0  0  0  0
  5  9  1  1  0  0  0
  6  4  2  0  0  0  0
  7 29  1  1  0  0  0
  7  5  1  0  0  0  0
  7 14  1  0  0  0  0
  8  6  1  0  0  0  0
  9  6  1  0  0  0  0
  9 13  2  0  0  0  0
 10 17  2  0  0  0  0
 12  8  1  0  0  0  0
 13 10  1  0  0  0  0
 14  3  1  0  0  0  0
 15 12  2  0  0  0  0
 16  5  1  0  0  0  0
 16 18  1  0  0  0  0
 17 19  1  0  0  0  0
 18 24  1  0  0  0  0
 18  3  1  0  0  0  0
 19 20  1  0  0  0  0
 22 23  1  0  0  0  0
 23 21  1  0  0  0  0
 24 25  1  0  0  0  0
 26 25  1  0  0  0  0
 27 28  2  0  0  0  0
 28 26  1  0  0  0  0
 30 29  1  0  0  0  0
 30 32  1  0  0  0  0
 31 37  1  0  0  0  0
 32 31  2  0  0  0  0
 33 32  1  0  0  0  0
 33 36  2  0  0  0  0
 34 36  1  0  0  0  0
 35 37  2  0  0  0  0
 36 35  1  0  0  0  0
M  END
>  <MODEL>
2

>  <REMARK>
 VINA RESULT:      -5.6      2.164      7.298
  Name = 
  10 active torsions:
  status: ('A' for Active; 'I' for Inactive)
    1  A    between atoms: C_1  and  C_5
    2  A    between atoms: O_3  and  C_32
    3  A    between atoms: C_5  and  C_23
    4  A    between atoms: C_6  and  C_31
    5  A    between atoms: C_14  and  C_37
    6  A    between atoms: O_17  and  C_26
    7  A    between atoms: O_17  and  C_33
    8  A    between atoms: C_26  and  C_34
    9  A    between atoms: C_31  and  C_37
   10  A    between atoms: C_33  and  C_36
                            x       y       z     vdW  Elec       q    Type
                         _______ _______ _______ _____ _____    ______ ____

>  <TORSDO>
F 10

$$$$
=
 OpenBabel10272414573D

 37 41  0  0  1  0  0  0  0  0999 V2000
  189.2690  177.0160  139.1350 C   0  0  1  0  0  3  0  0  0  0  0  0
  188.8180  174.4750  136.7430 S   0  0  1  0  0  0  0  0  0  0  0  0
  188.3640  178.9730  137.6160 C   0  0  0  0  0  2  0  0  0  0  0  0
  184.6630  175.5950  135.7060 C   0  0  0  0  0  3  0  0  0  0  0  0
  188.2820  176.2070  136.8780 C   0  0  1  0  0  0  0  0  0  0  0  0
  185.9180  175.3680  136.2770 C   0  0  0  0  0  0  0  0  0  0  0  0
  189.4250  177.0670  136.2540 C   0  0  2  0  0  3  0  0  0  0  0  0
  186.1070  174.1550  136.9550 O   0  0  0  0  0  0  0  0  0  0  0  0
  186.9400  176.3500  136.1520 C   0  0  0  0  0  0  0  0  0  0  0  0
  185.3870  177.7410  134.8780 C   0  0  0  0  0  3  0  0  0  0  0  0
  189.7950  174.2860  137.8980 O   0  0  0  0  0  0  0  0  0  0  0  0
  187.3580  173.6330  137.2710 C   0  0  0  0  0  0  0  0  0  0  0  0
  186.6400  177.5350  135.4550 C   0  0  0  0  0  3  0  0  0  0  0  0
  189.4510  178.5570  136.6280 C   0  0  0  0  0  2  0  0  0  0  0  0
  187.4450  172.5540  137.9120 O   0  0  0  0  0  0  0  0  0  0  0  0
  188.0290  176.5210  138.3810 C   0  0  2  0  0  3  0  0  0  0  0  0
  184.3910  176.7740  135.0010 C   0  0  0  0  0  0  0  0  0  0  0  0
  188.1430  177.9900  138.7700 C   0  0  1  0  0  0  0  0  0  0  0  0
  183.1430  177.0100  134.4180 O   0  0  0  0  0  0  0  0  0  0  0  0
  182.0810  176.0680  134.4690 C   0  0  0  0  0  1  0  0  0  0  0  0
  189.2100  176.5260  140.5730 C   0  0  0  0  0  2  0  0  0  0  0  0
  190.0030  177.9390  142.4390 C   0  0  0  0  0  1  0  0  0  0  0  0
  190.4320  177.0090  141.3240 C   0  0  0  0  0  2  0  0  0  0  0  0
  187.1270  178.3900  139.8320 C   0  0  0  0  0  2  0  0  0  0  0  0
  185.8630  178.5220  139.2550 O   0  0  0  0  0  0  0  0  0  0  0  0
  185.0840  179.1150  140.2470 C   0  0  0  0  0  2  0  0  0  0  0  0
  184.5370  178.6020  142.5710 C   0  0  0  0  0  2  0  0  0  0  0  0
  185.3930  178.4860  141.5610 C   0  0  0  0  0  3  0  0  0  0  0  0
  189.6090  176.8620  134.7530 C   0  0  0  0  0  2  0  0  0  0  0  0
  191.0800  176.9310  134.3840 C   0  0  0  0  0  2  0  0  0  0  0  0
  191.5850  174.4810  134.3780 C   0  0  0  0  0  3  0  0  0  0  0  0
  191.7970  175.7480  134.9340 C   0  0  0  0  0  0  0  0  0  0  0  0
  192.6560  175.8950  136.0280 C   0  0  0  0  0  3  0  0  0  0  0  0
  194.2290  174.9370  137.7160 C   0  0  0  0  0  1  0  0  0  0  0  0
  193.1040  173.5160  135.9980 C   0  0  0  0  0  3  0  0  0  0  0  0
  193.3120  174.7800  136.5580 C   0  0  0  0  0  0  0  0  0  0  0  0
  192.2400  173.3660  134.9090 C   0  0  0  0  0  3  0  0  0  0  0  0
  1 21  1  1  0  0  0
  2  5  1  0  0  0  0
  2 12  1  0  0  0  0
  2 11  2  1  0  0  0
  3 18  1  0  0  0  0
  4  6  1  0  0  0  0
  5  9  1  6  0  0  0
  5 16  1  0  0  0  0
  6  8  1  0  0  0  0
  7 29  1  6  0  0  0
  7 14  1  0  0  0  0
  7  5  1  0  0  0  0
  8 12  1  0  0  0  0
  9  6  2  0  0  0  0
 10 17  1  0  0  0  0
 10 13  2  0  0  0  0
 12 15  2  0  0  0  0
 13  9  1  0  0  0  0
 14  3  1  0  0  0  0
 16 18  1  0  0  0  0
 16  1  1  0  0  0  0
 17  4  2  0  0  0  0
 18  1  1  0  0  0  0
 18 24  1  0  0  0  0
 19 20  1  0  0  0  0
 19 17  1  0  0  0  0
 21 23  1  0  0  0  0
 23 22  1  0  0  0  0
 25 24  1  0  0  0  0
 25 26  1  0  0  0  0
 26 28  1  0  0  0  0
 28 27  2  0  0  0  0
 30 29  1  0  0  0  0
 30 32  1  0  0  0  0
 31 37  2  0  0  0  0
 31 32  1  0  0  0  0
 32 33  2  0  0  0  0
 33 36  1  0  0  0  0
 35 36  2  0  0  0  0
 36 34  1  0  0  0  0
 37 35  1  0  0  0  0
M  END
>  <MODEL>
3

>  <REMARK>
 VINA RESULT:      -5.4      4.480      8.618
  Name = 
  10 active torsions:
  status: ('A' for Active; 'I' for Inactive)
    1  A    between atoms: C_1  and  C_5
    2  A    between atoms: O_3  and  C_32
    3  A    between atoms: C_5  and  C_23
    4  A    between atoms: C_6  and  C_31
    5  A    between atoms: C_14  and  C_37
    6  A    between atoms: O_17  and  C_26
    7  A    between atoms: O_17  and  C_33
    8  A    between atoms: C_26  and  C_34
    9  A    between atoms: C_31  and  C_37
   10  A    between atoms: C_33  and  C_36
                            x       y       z     vdW  Elec       q    Type
                         _______ _______ _______ _____ _____    ______ ____

>  <TORSDO>
F 10

$$$$
=
 OpenBabel10272414573D

 37 41  0  0  1  0  0  0  0  0999 V2000
  187.3270  175.0840  135.1340 C   0  0  1  0  0  3  0  0  0  0  0  0
  188.9900  178.1610  135.5090 S   0  0  1  0  0  0  0  0  0  0  0  0
  189.0240  173.6850  136.5910 C   0  0  0  0  0  2  0  0  0  0  0  0
  189.4240  177.8810  139.9060 C   0  0  0  0  0  3  0  0  0  0  0  0
  189.1270  176.5340  136.3080 C   0  0  1  0  0  0  0  0  0  0  0  0
  189.0700  177.7970  138.5560 C   0  0  0  0  0  0  0  0  0  0  0  0
  190.1280  175.7060  135.4430 C   0  0  2  0  0  3  0  0  0  0  0  0
  188.1980  178.7760  138.0580 O   0  0  0  0  0  0  0  0  0  0  0  0
  189.5950  176.7480  137.7520 C   0  0  0  0  0  0  0  0  0  0  0  0
  190.8130  175.9210  139.7010 C   0  0  0  0  0  3  0  0  0  0  0  0
  188.0310  177.9370  134.3460 O   0  0  0  0  0  0  0  0  0  0  0  0
  188.0250  179.0370  136.7010 C   0  0  0  0  0  0  0  0  0  0  0  0
  190.4570  175.8150  138.3580 C   0  0  0  0  0  3  0  0  0  0  0  0
  190.0910  174.1800  135.6160 C   0  0  0  0  0  2  0  0  0  0  0  0
  187.1980  179.9100  136.3300 O   0  0  0  0  0  0  0  0  0  0  0  0
  187.7060  175.9040  136.3730 C   0  0  2  0  0  3  0  0  0  0  0  0
  190.2980  176.9530  140.4840 C   0  0  0  0  0  0  0  0  0  0  0  0
  187.6670  174.3840  136.4540 C   0  0  1  0  0  0  0  0  0  0  0  0
  190.6680  177.0310  141.8300 O   0  0  0  0  0  0  0  0  0  0  0  0
  190.1730  176.1340  142.8150 C   0  0  0  0  0  1  0  0  0  0  0  0
  185.8330  175.2180  134.8820 C   0  0  0  0  0  2  0  0  0  0  0  0
  184.0410  176.9160  134.7720 C   0  0  0  0  0  1  0  0  0  0  0  0
  185.5080  176.6490  134.5110 C   0  0  0  0  0  2  0  0  0  0  0  0
  186.5390  173.8770  137.3460 C   0  0  0  0  0  2  0  0  0  0  0  0
  186.3060  172.5250  137.0940 O   0  0  0  0  0  0  0  0  0  0  0  0
  184.9180  172.4140  137.0330 C   0  0  0  0  0  2  0  0  0  0  0  0
  183.1820  174.1170  137.2390 C   0  0  0  0  0  2  0  0  0  0  0  0
  184.2970  173.5790  137.7200 C   0  0  0  0  0  3  0  0  0  0  0  0
  191.5570  176.2390  135.4640 C   0  0  0  0  0  2  0  0  0  0  0  0
  192.5050  175.2420  134.8220 C   0  0  0  0  0  2  0  0  0  0  0  0
  193.4280  174.4440  137.0070 C   0  0  0  0  0  3  0  0  0  0  0  0
  193.6540  174.9770  135.7320 C   0  0  0  0  0  0  0  0  0  0  0  0
  194.9560  175.2910  135.3270 C   0  0  0  0  0  3  0  0  0  0  0  0
  197.4140  175.3890  135.7580 C   0  0  0  0  0  1  0  0  0  0  0  0
  195.8050  174.5250  137.4610 C   0  0  0  0  0  3  0  0  0  0  0  0
  196.0320  175.0620  136.1900 C   0  0  0  0  0  0  0  0  0  0  0  0
  194.5040  174.2170  137.8700 C   0  0  0  0  0  3  0  0  0  0  0  0
  1 21  1  1  0  0  0
  1 16  1  0  0  0  0
  1 18  1  0  0  0  0
  2 11  2  6  0  0  0
  2  5  1  0  0  0  0
  2 12  1  0  0  0  0
  4 17  1  0  0  0  0
  5 16  1  0  0  0  0
  5  9  1  1  0  0  0
  6  4  2  0  0  0  0
  7 29  1  1  0  0  0
  7 14  1  0  0  0  0
  7  5  1  0  0  0  0
  8  6  1  0  0  0  0
  9 13  2  0  0  0  0
  9  6  1  0  0  0  0
 10 17  2  0  0  0  0
 12  8  1  0  0  0  0
 13 10  1  0  0  0  0
 14  3  1  0  0  0  0
 15 12  2  0  0  0  0
 16 18  1  0  0  0  0
 17 19  1  0  0  0  0
 18  3  1  0  0  0  0
 18 24  1  0  0  0  0
 19 20  1  0  0  0  0
 23 22  1  0  0  0  0
 23 21  1  0  0  0  0
 25 24  1  0  0  0  0
 26 25  1  0  0  0  0
 26 28  1  0  0  0  0
 27 28  2  0  0  0  0
 30 29  1  0  0  0  0
 30 32  1  0  0  0  0
 31 37  1  0  0  0  0
 32 31  2  0  0  0  0
 33 32  1  0  0  0  0
 33 36  2  0  0  0  0
 34 36  1  0  0  0  0
 35 37  2  0  0  0  0
 36 35  1  0  0  0  0
M  END
>  <MODEL>
4

>  <REMARK>
 VINA RESULT:      -5.3      5.529     10.615
  Name = 
  10 active torsions:
  status: ('A' for Active; 'I' for Inactive)
    1  A    between atoms: C_1  and  C_5
    2  A    between atoms: O_3  and  C_32
    3  A    between atoms: C_5  and  C_23
    4  A    between atoms: C_6  and  C_31
    5  A    between atoms: C_14  and  C_37
    6  A    between atoms: O_17  and  C_26
    7  A    between atoms: O_17  and  C_33
    8  A    between atoms: C_26  and  C_34
    9  A    between atoms: C_31  and  C_37
   10  A    between atoms: C_33  and  C_36
                            x       y       z     vdW  Elec       q    Type
                         _______ _______ _______ _____ _____    ______ ____

>  <TORSDO>
F 10

$$$$
=
 OpenBabel10272414573D

 37 41  0  0  1  0  0  0  0  0999 V2000
  191.2540  176.2110  135.7000 C   0  0  1  0  0  3  0  0  0  0  0  0
  188.3660  178.0130  136.5890 S   0  0  1  0  0  0  0  0  0  0  0  0
  190.6800  174.0700  137.1310 C   0  0  0  0  0  2  0  0  0  0  0  0
  185.5320  174.7120  135.7760 C   0  0  0  0  0  3  0  0  0  0  0  0
  188.9000  176.2870  136.7860 C   0  0  1  0  0  0  0  0  0  0  0  0
  186.5910  175.6210  135.8490 C   0  0  0  0  0  0  0  0  0  0  0  0
  189.6930  176.2260  138.1280 C   0  0  2  0  0  3  0  0  0  0  0  0
  186.5460  176.7320  134.9950 O   0  0  0  0  0  0  0  0  0  0  0  0
  187.6540  175.3960  136.7680 C   0  0  0  0  0  0  0  0  0  0  0  0
  186.5300  173.3540  137.5000 C   0  0  0  0  0  3  0  0  0  0  0  0
  189.6000  178.7390  136.0660 O   0  0  0  0  0  0  0  0  0  0  0  0
  187.3150  177.8780  135.1770 C   0  0  0  0  0  0  0  0  0  0  0  0
  187.6010  174.2430  137.5740 C   0  0  0  0  0  3  0  0  0  0  0  0
  190.6270  175.0210  138.3240 C   0  0  0  0  0  2  0  0  0  0  0  0
  187.2430  178.8210  134.3470 O   0  0  0  0  0  0  0  0  0  0  0  0
  189.7600  175.9010  135.5470 C   0  0  2  0  0  3  0  0  0  0  0  0
  185.4910  173.5810  136.6000 C   0  0  0  0  0  0  0  0  0  0  0  0
  190.7500  174.7650  135.7670 C   0  0  1  0  0  0  0  0  0  0  0  0
  184.4330  172.6690  136.5440 O   0  0  0  0  0  0  0  0  0  0  0  0
  183.0920  173.0270  136.8490 C   0  0  0  0  0  1  0  0  0  0  0  0
  191.8270  176.5950  134.3460 C   0  0  0  0  0  2  0  0  0  0  0  0
  193.8030  176.4050  135.8190 C   0  0  0  0  0  1  0  0  0  0  0  0
  193.3360  176.4720  134.3800 C   0  0  0  0  0  2  0  0  0  0  0  0
  190.8870  173.8680  134.5420 C   0  0  0  0  0  2  0  0  0  0  0  0
  191.4600  172.6490  134.9080 O   0  0  0  0  0  0  0  0  0  0  0  0
  192.7910  172.7530  134.5050 C   0  0  0  0  0  2  0  0  0  0  0  0
  194.8360  172.9280  135.8270 C   0  0  0  0  0  2  0  0  0  0  0  0
  193.6800  172.3080  135.6130 C   0  0  0  0  0  3  0  0  0  0  0  0
  188.8410  176.4820  139.3670 C   0  0  0  0  0  2  0  0  0  0  0  0
  189.6880  177.0630  140.4840 C   0  0  0  0  0  2  0  0  0  0  0  0
  189.3780  176.7360  142.9450 C   0  0  0  0  0  3  0  0  0  0  0  0
  188.8730  177.1950  141.7230 C   0  0  0  0  0  0  0  0  0  0  0  0
  187.5890  177.7470  141.6620 C   0  0  0  0  0  3  0  0  0  0  0  0
  185.4550  178.4430  142.7570 C   0  0  0  0  0  1  0  0  0  0  0  0
  187.3220  177.3970  144.0420 C   0  0  0  0  0  3  0  0  0  0  0  0
  186.8150  177.8510  142.8210 C   0  0  0  0  0  0  0  0  0  0  0  0
  188.6030  176.8380  144.1040 C   0  0  0  0  0  3  0  0  0  0  0  0
  1 21  1  6  0  0  0
  1 18  1  0  0  0  0
  2 11  2  6  0  0  0
  2  5  1  0  0  0  0
  3 14  1  0  0  0  0
  4  6  2  0  0  0  0
  4 17  1  0  0  0  0
  5  9  1  1  0  0  0
  5  7  1  0  0  0  0
  6  9  1  0  0  0  0
  7 14  1  0  0  0  0
  7 29  1  1  0  0  0
  8 12  1  0  0  0  0
  8  6  1  0  0  0  0
  9 13  2  0  0  0  0
 10 13  1  0  0  0  0
 12  2  1  0  0  0  0
 15 12  2  0  0  0  0
 16  1  1  0  0  0  0
 16 18  1  0  0  0  0
 16  5  1  0  0  0  0
 17 10  2  0  0  0  0
 18  3  1  0  0  0  0
 19 17  1  0  0  0  0
 19 20  1  0  0  0  0
 21 23  1  0  0  0  0
 23 22  1  0  0  0  0
 24 25  1  0  0  0  0
 24 18  1  0  0  0  0
 26 25  1  0  0  0  0
 26 28  1  0  0  0  0
 28 27  2  0  0  0  0
 29 30  1  0  0  0  0
 30 32  1  0  0  0  0
 31 37  1  0  0  0  0
 32 31  2  0  0  0  0
 33 32  1  0  0  0  0
 33 36  2  0  0  0  0
 34 36  1  0  0  0  0
 35 37  2  0  0  0  0
 36 35  1  0  0  0  0
M  END
>  <MODEL>
5

>  <REMARK>
 VINA RESULT:      -5.1      5.364      9.796
  Name = 
  10 active torsions:
  status: ('A' for Active; 'I' for Inactive)
    1  A    between atoms: C_1  and  C_5
    2  A    between atoms: O_3  and  C_32
    3  A    between atoms: C_5  and  C_23
    4  A    between atoms: C_6  and  C_31
    5  A    between atoms: C_14  and  C_37
    6  A    between atoms: O_17  and  C_26
    7  A    between atoms: O_17  and  C_33
    8  A    between atoms: C_26  and  C_34
    9  A    between atoms: C_31  and  C_37
   10  A    between atoms: C_33  and  C_36
                            x       y       z     vdW  Elec       q    Type
                         _______ _______ _______ _____ _____    ______ ____

>  <TORSDO>
F 10

$$$$
=
 OpenBabel10272414573D

 37 41  0  0  1  0  0  0  0  0999 V2000
  191.0800  176.0190  135.7210 C   0  0  1  0  0  3  0  0  0  0  0  0
  188.2090  177.8500  136.6070 S   0  0  1  0  0  0  0  0  0  0  0  0
  190.5290  173.9210  137.2220 C   0  0  0  0  0  2  0  0  0  0  0  0
  185.3590  174.5300  135.9380 C   0  0  0  0  0  3  0  0  0  0  0  0
  188.7450  176.1300  136.8440 C   0  0  1  0  0  0  0  0  0  0  0  0
  186.4200  175.4400  135.9670 C   0  0  0  0  0  0  0  0  0  0  0  0
  189.5610  176.1060  138.1740 C   0  0  2  0  0  3  0  0  0  0  0  0
  186.3600  176.5260  135.0820 O   0  0  0  0  0  0  0  0  0  0  0  0
  187.4980  175.2400  136.8740 C   0  0  0  0  0  0  0  0  0  0  0  0
  186.3850  173.2210  137.6830 C   0  0  0  0  0  3  0  0  0  0  0  0
  189.4340  178.5590  136.0420 O   0  0  0  0  0  0  0  0  0  0  0  0
  187.1330  177.6760  135.2170 C   0  0  0  0  0  0  0  0  0  0  0  0
  187.4580  174.1110  137.7130 C   0  0  0  0  0  3  0  0  0  0  0  0
  190.4970  174.9070  138.3890 C   0  0  0  0  0  2  0  0  0  0  0  0
  187.0480  178.5950  134.3620 O   0  0  0  0  0  0  0  0  0  0  0  0
  189.5830  175.7070  135.6020 C   0  0  2  0  0  3  0  0  0  0  0  0
  185.3310  173.4230  136.7950 C   0  0  0  0  0  0  0  0  0  0  0  0
  190.5760  174.5770  135.8380 C   0  0  1  0  0  0  0  0  0  0  0  0
  184.2720  172.5110  136.7830 O   0  0  0  0  0  0  0  0  0  0  0  0
  184.3300  171.2760  136.0830 C   0  0  0  0  0  1  0  0  0  0  0  0
  191.6300  176.3640  134.3470 C   0  0  0  0  0  2  0  0  0  0  0  0
  193.6120  176.1940  135.8130 C   0  0  0  0  0  1  0  0  0  0  0  0
  193.1430  176.3150  134.3790 C   0  0  0  0  0  2  0  0  0  0  0  0
  190.6910  173.6440  134.6380 C   0  0  0  0  0  2  0  0  0  0  0  0
  190.0740  172.4260  134.9220 O   0  0  0  0  0  0  0  0  0  0  0  0
  188.7710  172.5740  134.4500 C   0  0  0  0  0  2  0  0  0  0  0  0
  187.7750  170.5800  135.4470 C   0  0  0  0  0  2  0  0  0  0  0  0
  188.1260  171.2360  134.3460 C   0  0  0  0  0  3  0  0  0  0  0  0
  188.7300  176.3990  139.4190 C   0  0  0  0  0  2  0  0  0  0  0  0
  189.3800  177.4930  140.2470 C   0  0  0  0  0  2  0  0  0  0  0  0
  189.7650  176.8670  142.6380 C   0  0  0  0  0  3  0  0  0  0  0  0
  188.9190  177.4020  141.6590 C   0  0  0  0  0  0  0  0  0  0  0  0
  187.6290  177.8200  142.0040 C   0  0  0  0  0  3  0  0  0  0  0  0
  185.8220  178.1650  143.6940 C   0  0  0  0  0  1  0  0  0  0  0  0
  188.0360  177.1850  144.3050 C   0  0  0  0  0  3  0  0  0  0  0  0
  187.1890  177.7150  143.3270 C   0  0  0  0  0  0  0  0  0  0  0  0
  189.3240  176.7600  143.9600 C   0  0  0  0  0  3  0  0  0  0  0  0
  1 21  1  6  0  0  0
  1 18  1  0  0  0  0
  2 11  2  6  0  0  0
  2  5  1  0  0  0  0
  3 14  1  0  0  0  0
  4  6  2  0  0  0  0
  4 17  1  0  0  0  0
  5  9  1  1  0  0  0
  5  7  1  0  0  0  0
  6  9  1  0  0  0  0
  7 14  1  0  0  0  0
  7 29  1  1  0  0  0
  8 12  1  0  0  0  0
  8  6  1  0  0  0  0
  9 13  2  0  0  0  0
 10 13  1  0  0  0  0
 12  2  1  0  0  0  0
 15 12  2  0  0  0  0
 16  1  1  0  0  0  0
 16 18  1  0  0  0  0
 16  5  1  0  0  0  0
 17 10  2  0  0  0  0
 18  3  1  0  0  0  0
 19 17  1  0  0  0  0
 20 19  1  0  0  0  0
 21 23  1  0  0  0  0
 23 22  1  0  0  0  0
 24 25  1  0  0  0  0
 24 18  1  0  0  0  0
 26 25  1  0  0  0  0
 28 26  1  0  0  0  0
 28 27  2  0  0  0  0
 29 30  1  0  0  0  0
 30 32  1  0  0  0  0
 31 37  1  0  0  0  0
 32 33  1  0  0  0  0
 32 31  2  0  0  0  0
 33 36  2  0  0  0  0
 36 34  1  0  0  0  0
 36 35  1  0  0  0  0
 37 35  2  0  0  0  0
M  END
>  <MODEL>
6

>  <REMARK>
 VINA RESULT:      -5.0      5.797      9.845
  Name = 
  10 active torsions:
  status: ('A' for Active; 'I' for Inactive)
    1  A    between atoms: C_1  and  C_5
    2  A    between atoms: O_3  and  C_32
    3  A    between atoms: C_5  and  C_23
    4  A    between atoms: C_6  and  C_31
    5  A    between atoms: C_14  and  C_37
    6  A    between atoms: O_17  and  C_26
    7  A    between atoms: O_17  and  C_33
    8  A    between atoms: C_26  and  C_34
    9  A    between atoms: C_31  and  C_37
   10  A    between atoms: C_33  and  C_36
                            x       y       z     vdW  Elec       q    Type
                         _______ _______ _______ _____ _____    ______ ____

>  <TORSDO>
F 10

$$$$
=
 OpenBabel10272414573D

 37 41  0  0  1  0  0  0  0  0999 V2000
  188.5450  176.2100  136.7990 C   0  0  1  0  0  3  0  0  0  0  0  0
  185.7070  174.5250  135.5800 S   0  0  1  0  0  0  0  0  0  0  0  0
  187.3310  178.5170  137.2020 C   0  0  0  0  0  2  0  0  0  0  0  0
  183.0130  175.7990  138.8530 C   0  0  0  0  0  3  0  0  0  0  0  0
  185.9810  176.1150  136.4180 C   0  0  1  0  0  0  0  0  0  0  0  0
  184.0660  175.4400  138.0080 C   0  0  0  0  0  0  0  0  0  0  0  0
  186.2720  177.1560  135.2930 C   0  0  2  0  0  3  0  0  0  0  0  0
  184.4120  174.0820  137.9520 O   0  0  0  0  0  0  0  0  0  0  0  0
  184.7360  176.4400  137.2480 C   0  0  0  0  0  0  0  0  0  0  0  0
  183.2480  178.1140  138.2230 C   0  0  0  0  0  3  0  0  0  0  0  0
  187.1060  174.0130  135.2610 O   0  0  0  0  0  0  0  0  0  0  0  0
  185.1800  173.5220  136.9340 C   0  0  0  0  0  0  0  0  0  0  0  0
  184.3100  177.7740  137.3870 C   0  0  0  0  0  3  0  0  0  0  0  0
  186.9700  178.4570  135.7190 C   0  0  0  0  0  2  0  0  0  0  0  0
  185.4760  172.3000  136.9710 O   0  0  0  0  0  0  0  0  0  0  0  0
  187.1660  175.9400  137.4130 C   0  0  2  0  0  3  0  0  0  0  0  0
  182.5940  177.1310  138.9620 C   0  0  0  0  0  0  0  0  0  0  0  0
  187.9160  177.2180  137.7670 C   0  0  1  0  0  0  0  0  0  0  0  0
  181.5360  177.5020  139.7970 O   0  0  0  0  0  0  0  0  0  0  0  0
  181.5510  178.6930  140.5720 C   0  0  0  0  0  1  0  0  0  0  0  0
  189.5700  175.2970  137.4510 C   0  0  0  0  0  2  0  0  0  0  0  0
  191.9850  175.0440  137.9120 C   0  0  0  0  0  1  0  0  0  0  0  0
  190.9620  175.7000  137.0110 C   0  0  0  0  0  2  0  0  0  0  0  0
  188.3690  177.2420  139.2220 C   0  0  0  0  0  2  0  0  0  0  0  0
  189.4750  178.0820  139.3610 O   0  0  0  0  0  0  0  0  0  0  0  0
  190.1640  177.5750  140.4610 C   0  0  0  0  0  2  0  0  0  0  0  0
  189.6040  176.7700  142.6970 C   0  0  0  0  0  2  0  0  0  0  0  0
  189.1880  177.0930  141.4770 C   0  0  0  0  0  3  0  0  0  0  0  0
  185.0830  177.4320  134.3780 C   0  0  0  0  0  2  0  0  0  0  0  0
  184.1490  176.2370  134.3460 C   0  0  0  0  0  2  0  0  0  0  0  0
  181.7470  175.7540  134.8580 C   0  0  0  0  0  3  0  0  0  0  0  0
  182.7420  176.6860  134.5400 C   0  0  0  0  0  0  0  0  0  0  0  0
  182.4070  178.0340  134.3720 C   0  0  0  0  0  3  0  0  0  0  0  0
  180.7290  179.8840  134.3600 C   0  0  0  0  0  1  0  0  0  0  0  0
  180.0910  177.5210  134.8550 C   0  0  0  0  0  3  0  0  0  0  0  0
  181.0830  178.4520  134.5320 C   0  0  0  0  0  0  0  0  0  0  0  0
  180.4230  176.1720  135.0170 C   0  0  0  0  0  3  0  0  0  0  0  0
  1 16  1  0  0  0  0
  1 21  1  1  0  0  0
  1 18  1  0  0  0  0
  2 11  2  1  0  0  0
  2  5  1  0  0  0  0
  2 12  1  0  0  0  0
  3 18  1  0  0  0  0
  4 17  1  0  0  0  0
  5  9  1  1  0  0  0
  5 16  1  0  0  0  0
  6  4  2  0  0  0  0
  7 29  1  1  0  0  0
  7 14  1  0  0  0  0
  7  5  1  0  0  0  0
  8  6  1  0  0  0  0
  9 13  2  0  0  0  0
  9  6  1  0  0  0  0
 10 17  2  0  0  0  0
 12 15  2  0  0  0  0
 12  8  1  0  0  0  0
 13 10  1  0  0  0  0
 14  3  1  0  0  0  0
 16 18  1  0  0  0  0
 17 19  1  0  0  0  0
 18 24  1  0  0  0  0
 19 20  1  0  0  0  0
 23 21  1  0  0  0  0
 23 22  1  0  0  0  0
 24 25  1  0  0  0  0
 25 26  1  0  0  0  0
 26 28  1  0  0  0  0
 28 27  2  0  0  0  0
 30 29  1  0  0  0  0
 30 32  1  0  0  0  0
 31 37  1  0  0  0  0
 32 31  2  0  0  0  0
 33 36  2  0  0  0  0
 33 32  1  0  0  0  0
 34 36  1  0  0  0  0
 35 37  2  0  0  0  0
 36 35  1  0  0  0  0
M  END
>  <MODEL>
7

>  <REMARK>
 VINA RESULT:      -4.9      3.575      6.538
  Name = 
  10 active torsions:
  status: ('A' for Active; 'I' for Inactive)
    1  A    between atoms: C_1  and  C_5
    2  A    between atoms: O_3  and  C_32
    3  A    between atoms: C_5  and  C_23
    4  A    between atoms: C_6  and  C_31
    5  A    between atoms: C_14  and  C_37
    6  A    between atoms: O_17  and  C_26
    7  A    between atoms: O_17  and  C_33
    8  A    between atoms: C_26  and  C_34
    9  A    between atoms: C_31  and  C_37
   10  A    between atoms: C_33  and  C_36
                            x       y       z     vdW  Elec       q    Type
                         _______ _______ _______ _____ _____    ______ ____

>  <TORSDO>
F 10

$$$$
=
 OpenBabel10272414573D

 37 41  0  0  1  0  0  0  0  0999 V2000
  189.7590  176.8930  137.8790 C   0  0  1  0  0  3  0  0  0  0  0  0
  187.8880  174.9650  135.6070 S   0  0  1  0  0  0  0  0  0  0  0  0
  187.8550  178.6540  138.3620 C   0  0  0  0  0  2  0  0  0  0  0  0
  184.2920  174.6510  138.1700 C   0  0  0  0  0  3  0  0  0  0  0  0
  187.4880  176.2950  136.7800 C   0  0  1  0  0  0  0  0  0  0  0  0
  185.5630  174.7880  137.6030 C   0  0  0  0  0  0  0  0  0  0  0  0
  187.6920  177.6340  136.0060 C   0  0  2  0  0  3  0  0  0  0  0  0
  186.3010  173.6160  137.3850 O   0  0  0  0  0  0  0  0  0  0  0  0
  186.0520  176.0830  137.2720 C   0  0  0  0  0  0  0  0  0  0  0  0
  183.9580  177.0370  138.0920 C   0  0  0  0  0  3  0  0  0  0  0  0
  189.4110  174.9030  135.6030 O   0  0  0  0  0  0  0  0  0  0  0  0
  187.4020  173.5440  136.5370 C   0  0  0  0  0  0  0  0  0  0  0  0
  185.2290  177.1920  137.5400 C   0  0  0  0  0  3  0  0  0  0  0  0
  187.8610  178.9030  136.8560 C   0  0  0  0  0  2  0  0  0  0  0  0
  188.0340  172.4620  136.4190 O   0  0  0  0  0  0  0  0  0  0  0  0
  188.4240  176.1510  138.0150 C   0  0  2  0  0  3  0  0  0  0  0  0
  183.4830  175.7670  138.4120 C   0  0  0  0  0  0  0  0  0  0  0  0
  188.6630  177.4300  138.8060 C   0  0  1  0  0  0  0  0  0  0  0  0
  182.2070  175.6420  138.9690 O   0  0  0  0  0  0  0  0  0  0  0  0
  181.2370  176.6790  138.9070 C   0  0  0  0  0  1  0  0  0  0  0  0
  190.8420  176.1110  138.6040 C   0  0  0  0  0  2  0  0  0  0  0  0
  193.1880  176.3910  137.8770 C   0  0  0  0  0  1  0  0  0  0  0  0
  191.8910  175.6570  137.6110 C   0  0  0  0  0  2  0  0  0  0  0  0
  188.7610  177.1760  140.3060 C   0  0  0  0  0  2  0  0  0  0  0  0
  188.4660  178.3460  141.0060 O   0  0  0  0  0  0  0  0  0  0  0  0
  189.0900  178.1830  142.2420 C   0  0  0  0  0  2  0  0  0  0  0  0
  187.8410  176.9850  143.9640 C   0  0  0  0  0  2  0  0  0  0  0  0
  188.6060  176.9270  142.8790 C   0  0  0  0  0  3  0  0  0  0  0  0
  186.7030  177.8510  134.8650 C   0  0  0  0  0  2  0  0  0  0  0  0
  186.1830  176.5200  134.3530 C   0  0  0  0  0  2  0  0  0  0  0  0
  183.9840  177.7040  134.5000 C   0  0  0  0  0  3  0  0  0  0  0  0
  184.6960  176.5020  134.4070 C   0  0  0  0  0  0  0  0  0  0  0  0
  184.0080  175.2840  134.3990 C   0  0  0  0  0  3  0  0  0  0  0  0
  181.8830  173.9730  134.4570 C   0  0  0  0  0  1  0  0  0  0  0  0
  181.9030  176.4680  134.5590 C   0  0  0  0  0  3  0  0  0  0  0  0
  182.6120  175.2670  134.4720 C   0  0  0  0  0  0  0  0  0  0  0  0
  182.5890  177.6870  134.5750 C   0  0  0  0  0  3  0  0  0  0  0  0
  1 16  1  0  0  0  0
  1 21  1  1  0  0  0
  1 18  1  0  0  0  0
  2 11  2  1  0  0  0
  2 12  1  0  0  0  0
  2  5  1  0  0  0  0
  3 18  1  0  0  0  0
  4 17  1  0  0  0  0
  5  9  1  1  0  0  0
  5 16  1  0  0  0  0
  6  4  2  0  0  0  0
  7 29  1  6  0  0  0
  7  5  1  0  0  0  0
  7 14  1  0  0  0  0
  8  6  1  0  0  0  0
  9 13  2  0  0  0  0
  9  6  1  0  0  0  0
 10 17  2  0  0  0  0
 12  8  1  0  0  0  0
 13 10  1  0  0  0  0
 14  3  1  0  0  0  0
 15 12  2  0  0  0  0
 16 18  1  0  0  0  0
 17 19  1  0  0  0  0
 18 24  1  0  0  0  0
 20 19  1  0  0  0  0
 23 22  1  0  0  0  0
 23 21  1  0  0  0  0
 24 25  1  0  0  0  0
 25 26  1  0  0  0  0
 26 28  1  0  0  0  0
 28 27  2  0  0  0  0
 30 32  1  0  0  0  0
 30 29  1  0  0  0  0
 31 37  1  0  0  0  0
 32 31  2  0  0  0  0
 33 32  1  0  0  0  0
 33 36  2  0  0  0  0
 34 36  1  0  0  0  0
 35 37  2  0  0  0  0
 36 35  1  0  0  0  0
M  END
>  <MODEL>
8

>  <REMARK>
 VINA RESULT:      -4.4      3.958      7.197
  Name = 
  10 active torsions:
  status: ('A' for Active; 'I' for Inactive)
    1  A    between atoms: C_1  and  C_5
    2  A    between atoms: O_3  and  C_32
    3  A    between atoms: C_5  and  C_23
    4  A    between atoms: C_6  and  C_31
    5  A    between atoms: C_14  and  C_37
    6  A    between atoms: O_17  and  C_26
    7  A    between atoms: O_17  and  C_33
    8  A    between atoms: C_26  and  C_34
    9  A    between atoms: C_31  and  C_37
   10  A    between atoms: C_33  and  C_36
                            x       y       z     vdW  Elec       q    Type
                         _______ _______ _______ _____ _____    ______ ____

>  <TORSDO>
F 10

$$$$
=
 OpenBabel10272414573D

 37 41  0  0  1  0  0  0  0  0999 V2000
  182.2000  178.5710  136.2400 C   0  0  1  0  0  3  0  0  0  0  0  0
  183.4750  176.7810  138.9880 S   0  0  1  0  0  0  0  0  0  0  0  0
  183.5870  177.2700  134.4110 C   0  0  0  0  0  2  0  0  0  0  0  0
  182.8240  172.7710  137.2290 C   0  0  0  0  0  3  0  0  0  0  0  0
  183.5350  176.5580  137.1850 C   0  0  1  0  0  0  0  0  0  0  0  0
  182.8240  174.1160  137.6120 C   0  0  0  0  0  0  0  0  0  0  0  0
  184.7800  177.3570  136.6880 C   0  0  2  0  0  3  0  0  0  0  0  0
  182.0300  174.4720  138.7110 O   0  0  0  0  0  0  0  0  0  0  0  0
  183.6120  175.0560  136.8910 C   0  0  0  0  0  0  0  0  0  0  0  0
  184.3680  173.2440  135.4380 C   0  0  0  0  0  3  0  0  0  0  0  0
  182.8550  178.1600  139.1830 O   0  0  0  0  0  0  0  0  0  0  0  0
  182.1790  175.6610  139.4190 C   0  0  0  0  0  0  0  0  0  0  0  0
  184.3660  174.5900  135.7980 C   0  0  0  0  0  3  0  0  0  0  0  0
  184.8200  177.7130  135.1940 C   0  0  0  0  0  2  0  0  0  0  0  0
  181.4060  175.9250  140.3760 O   0  0  0  0  0  0  0  0  0  0  0  0
  182.1950  177.0760  136.5870 C   0  0  2  0  0  3  0  0  0  0  0  0
  183.5960  172.3270  136.1490 C   0  0  0  0  0  0  0  0  0  0  0  0
  182.2560  177.5150  135.1300 C   0  0  1  0  0  0  0  0  0  0  0  0
  183.6130  170.9840  135.7620 O   0  0  0  0  0  0  0  0  0  0  0  0
  182.4340  170.1940  135.6760 C   0  0  0  0  0  1  0  0  0  0  0  0
  180.8110  179.1430  136.4690 C   0  0  0  0  0  2  0  0  0  0  0  0
  180.7800  180.8480  138.2580 C   0  0  0  0  0  1  0  0  0  0  0  0
  180.9150  180.6230  136.7670 C   0  0  0  0  0  2  0  0  0  0  0  0
  180.9850  177.1670  134.3640 C   0  0  0  0  0  2  0  0  0  0  0  0
  180.1780  176.3310  135.1380 O   0  0  0  0  0  0  0  0  0  0  0  0
  179.9820  175.2010  134.3460 C   0  0  0  0  0  2  0  0  0  0  0  0
  180.1110  172.7790  134.6220 C   0  0  0  0  0  2  0  0  0  0  0  0
  180.0890  173.9800  135.1900 C   0  0  0  0  0  3  0  0  0  0  0  0
  186.1140  176.7900  137.1660 C   0  0  0  0  0  2  0  0  0  0  0  0
  187.1500  177.8940  137.2790 C   0  0  0  0  0  2  0  0  0  0  0  0
  188.8750  178.1010  139.0780 C   0  0  0  0  0  3  0  0  0  0  0  0
  187.5260  178.0920  138.7060 C   0  0  0  0  0  0  0  0  0  0  0  0
  186.5320  178.2350  139.6800 C   0  0  0  0  0  3  0  0  0  0  0  0
  185.8310  178.5560  142.0560 C   0  0  0  0  0  1  0  0  0  0  0  0
  188.2340  178.4130  141.3930 C   0  0  0  0  0  3  0  0  0  0  0  0
  186.8860  178.3980  141.0230 C   0  0  0  0  0  0  0  0  0  0  0  0
  189.2290  178.2630  140.4210 C   0  0  0  0  0  3  0  0  0  0  0  0
  1 21  1  6  0  0  0
  1 16  1  0  0  0  0
  2 11  2  6  0  0  0
  2 12  1  0  0  0  0
  3 18  1  0  0  0  0
  3 14  1  0  0  0  0
  4  6  1  0  0  0  0
  5  9  1  6  0  0  0
  5  2  1  0  0  0  0
  6  8  1  0  0  0  0
  7 29  1  6  0  0  0
  7  5  1  0  0  0  0
  8 12  1  0  0  0  0
  9  6  2  0  0  0  0
 10 13  2  0  0  0  0
 10 17  1  0  0  0  0
 12 15  2  0  0  0  0
 13  9  1  0  0  0  0
 14  7  1  0  0  0  0
 16  5  1  0  0  0  0
 17  4  2  0  0  0  0
 18  1  1  0  0  0  0
 18 16  1  0  0  0  0
 19 17  1  0  0  0  0
 20 19  1  0  0  0  0
 21 23  1  0  0  0  0
 23 22  1  0  0  0  0
 24 18  1  0  0  0  0
 24 25  1  0  0  0  0
 26 25  1  0  0  0  0
 26 28  1  0  0  0  0
 27 28  2  0  0  0  0
 29 30  1  0  0  0  0
 30 32  1  0  0  0  0
 31 37  1  0  0  0  0
 32 31  2  0  0  0  0
 32 33  1  0  0  0  0
 33 36  2  0  0  0  0
 36 35  1  0  0  0  0
 36 34  1  0  0  0  0
 37 35  2  0  0  0  0
M  END
>  <MODEL>
9

>  <REMARK>
 VINA RESULT:      -4.4      3.038      7.942
  Name = 
  10 active torsions:
  status: ('A' for Active; 'I' for Inactive)
    1  A    between atoms: C_1  and  C_5
    2  A    between atoms: O_3  and  C_32
    3  A    between atoms: C_5  and  C_23
    4  A    between atoms: C_6  and  C_31
    5  A    between atoms: C_14  and  C_37
    6  A    between atoms: O_17  and  C_26
    7  A    between atoms: O_17  and  C_33
    8  A    between atoms: C_26  and  C_34
    9  A    between atoms: C_31  and  C_37
   10  A    between atoms: C_33  and  C_36
                            x       y       z     vdW  Elec       q    Type
                         _______ _______ _______ _____ _____    ______ ____

>  <TORSDO>
F 10

$$$$
