=
 OpenBabel10272400353D

 31 34  0  0  1  0  0  0  0  0999 V2000
  188.6220  178.0300  140.1940 C   0  0  1  0  0  3  0  0  0  0  0  0
  185.8640  178.7540  142.8040 C   0  0  2  0  0  3  0  0  0  0  0  0
  184.4880  178.4460  142.2540 C   0  0  0  0  0  0  0  0  0  0  0  0
  183.0240  177.5150  140.5540 C   0  0  0  0  0  3  0  0  0  0  0  0
  187.0060  178.0110  142.1040 C   0  0  1  0  0  3  0  0  0  0  0  0
  189.5390  177.2280  141.0920 C   0  0  0  0  0  3  0  0  0  0  0  0
  184.3090  177.7370  141.0570 C   0  0  0  0  0  3  0  0  0  0  0  0
  186.6030  177.4760  144.9730 C   0  0  2  0  0  3  0  0  0  0  0  0
  187.9650  177.1710  139.3330 F   0  0  0  0  0  0  0  0  0  0  0  0
  183.5840  179.7280  144.1970 C   0  0  0  0  0  2  0  0  0  0  0  0
  181.9110  178.0110  141.2370 C   0  0  0  0  0  3  0  0  0  0  0  0
  187.5770  176.7840  144.1110 N   0  0  0  0  0  2  0  0  0  0  0  0
  185.9350  178.7290  144.3620 C   0  0  2  0  0  3  0  0  0  0  0  0
  187.5920  178.8520  140.9750 C   0  0  0  0  0  2  0  0  0  0  0  0
  180.6460  179.3420  143.2430 Cl  0  0  0  0  0  0  0  0  0  0  0  0
  188.1160  177.6710  143.0880 C   0  0  1  0  0  3  0  0  0  0  0  0
  189.2840  177.0240  142.3950 C   0  0  0  0  0  3  0  0  0  0  0  0
  184.5930  178.9910  145.0720 C   0  0  0  0  0  2  0  0  0  0  0  0
  183.3650  178.9510  142.9340 C   0  0  0  0  0  0  0  0  0  0  0  0
  182.0740  178.7320  142.4230 C   0  0  0  0  0  0  0  0  0  0  0  0
  187.2450  177.8290  146.3090 C   0  0  0  0  0  2  0  0  0  0  0  0
  187.9970  176.2400  147.8330 C   0  0  0  0  0  1  0  0  0  0  0  0
  188.3550  176.9260  146.5970 N   0  0  0  0  0  0  0  0  0  0  0  0
  189.6720  178.0230  148.2180 O   0  0  0  0  0  1  0  0  0  0  0  0
  189.5510  177.7390  146.8540 C   0  0  1  0  0  3  0  0  0  0  0  0
  191.2130  177.2570  145.1360 C   0  0  0  0  0  2  0  0  0  0  0  0
  190.8030  177.0430  146.3860 C   0  0  0  0  0  0  0  0  0  0  0  0
  191.6320  176.1760  147.3000 C   0  0  0  0  0  0  0  0  0  0  0  0
  192.1500  176.9440  148.3260 F   0  0  0  0  0  0  0  0  0  0  0  0
  190.8670  175.1590  147.8490 F   0  0  0  0  0  0  0  0  0  0  0  0
  192.6740  175.6110  146.5880 F   0  0  0  0  0  0  0  0  0  0  0  0
  1  9  1  6  0  0  0
  1 14  1  0  0  0  0
  1  6  1  0  0  0  0
  2  3  1  1  0  0  0
  2 13  1  0  0  0  0
  3 19  1  0  0  0  0
  4  7  1  0  0  0  0
  4 11  2  0  0  0  0
  5 14  1  6  0  0  0
  5  2  1  0  0  0  0
  5 16  1  0  0  0  0
  6 17  2  0  0  0  0
  7  3  2  0  0  0  0
  8 21  1  1  0  0  0
 10 18  1  0  0  0  0
 11 20  1  0  0  0  0
 12  8  1  0  0  0  0
 13  8  1  0  0  0  0
 13 18  1  1  0  0  0
 16 17  1  6  0  0  0
 16 12  1  0  0  0  0
 19 10  1  0  0  0  0
 20 19  2  0  0  0  0
 20 15  1  0  0  0  0
 21 23  1  0  0  0  0
 23 25  1  0  0  0  0
 23 22  1  0  0  0  0
 25 24  1  1  0  0  0
 26 27  2  0  0  0  0
 27 25  1  0  0  0  0
 27 28  1  0  0  0  0
 28 30  1  0  0  0  0
 28 29  1  0  0  0  0
 31 28  1  0  0  0  0
M  END
>  <MODEL>
1

>  <REMARK>
 VINA RESULT:      -8.7      0.000      0.000
  Name = 
  5 active torsions:
  status: ('A' for Active; 'I' for Inactive)
    1  A    between atoms: C_1  and  C_19
    2  A    between atoms: N_9  and  C_22
    3  A    between atoms: N_9  and  C_23
    4  A    between atoms: C_15  and  C_23
    5  A    between atoms: C_19  and  C_22
                            x       y       z     vdW  Elec       q    Type
                         _______ _______ _______ _____ _____    ______ ____

>  <TORSDO>
F 5

$$$$
=
 OpenBabel10272400353D

 31 34  0  0  1  0  0  0  0  0999 V2000
  190.7680  176.9430  139.7940 C   0  0  1  0  0  3  0  0  0  0  0  0
  188.1440  177.2800  142.6130 C   0  0  2  0  0  3  0  0  0  0  0  0
  188.7980  177.5870  143.9430 C   0  0  0  0  0  0  0  0  0  0  0  0
  190.7290  178.1900  145.2880 C   0  0  0  0  0  3  0  0  0  0  0  0
  188.9830  177.6670  141.3920 C   0  0  1  0  0  3  0  0  0  0  0  0
  190.0900  177.8430  138.7850 C   0  0  0  0  0  3  0  0  0  0  0  0
  190.1460  177.9630  144.0380 C   0  0  0  0  0  3  0  0  0  0  0  0
  186.3760  179.0000  141.7190 C   0  0  2  0  0  3  0  0  0  0  0  0
  191.8470  177.6090  140.3450 F   0  0  0  0  0  0  0  0  0  0  0  0
  186.6110  176.9940  144.9920 C   0  0  0  0  0  2  0  0  0  0  0  0
  189.9720  178.0310  146.4510 C   0  0  0  0  0  3  0  0  0  0  0  0
  187.3630  179.3140  140.6700 N   0  0  0  0  0  2  0  0  0  0  0  0
  186.6490  177.7160  142.5360 C   0  0  2  0  0  3  0  0  0  0  0  0
  189.8260  176.4890  140.9150 C   0  0  0  0  0  2  0  0  0  0  0  0
  187.7220  177.4500  147.8630 Cl  0  0  0  0  0  0  0  0  0  0  0  0
  188.0930  178.1270  140.2460 C   0  0  1  0  0  3  0  0  0  0  0  0
  188.8980  178.4210  139.0090 C   0  0  0  0  0  3  0  0  0  0  0  0
  185.9350  177.8150  143.8990 C   0  0  0  0  0  2  0  0  0  0  0  0
  188.0410  177.4210  145.1170 C   0  0  0  0  0  0  0  0  0  0  0  0
  188.6320  177.6430  146.3740 C   0  0  0  0  0  0  0  0  0  0  0  0
  184.9760  178.9480  141.1210 C   0  0  0  0  0  2  0  0  0  0  0  0
  184.1410  179.9520  139.1960 C   0  0  0  0  0  1  0  0  0  0  0  0
  185.0430  178.9070  139.6640 N   0  0  0  0  0  0  0  0  0  0  0  0
  183.1860  177.4520  139.6280 O   0  0  0  0  0  1  0  0  0  0  0  0
  184.5140  177.6110  139.2190 C   0  0  1  0  0  3  0  0  0  0  0  0
  183.4410  177.4370  137.0360 C   0  0  0  0  0  2  0  0  0  0  0  0
  184.5850  177.4710  137.7200 C   0  0  0  0  0  0  0  0  0  0  0  0
  185.8960  177.4330  136.9760 C   0  0  0  0  0  0  0  0  0  0  0  0
  185.6730  177.0690  135.6610 F   0  0  0  0  0  0  0  0  0  0  0  0
  186.5140  178.6720  136.9950 F   0  0  0  0  0  0  0  0  0  0  0  0
  186.7390  176.5070  137.5630 F   0  0  0  0  0  0  0  0  0  0  0  0
  1  9  1  1  0  0  0
  1 14  1  0  0  0  0
  2  3  1  1  0  0  0
  3  7  2  0  0  0  0
  3 19  1  0  0  0  0
  4 11  2  0  0  0  0
  5 14  1  6  0  0  0
  5  2  1  0  0  0  0
  6 17  2  0  0  0  0
  6  1  1  0  0  0  0
  7  4  1  0  0  0  0
  8 21  1  6  0  0  0
  8 13  1  0  0  0  0
 10 19  1  0  0  0  0
 12  8  1  0  0  0  0
 13  2  1  0  0  0  0
 13 18  1  1  0  0  0
 16 17  1  6  0  0  0
 16 12  1  0  0  0  0
 16  5  1  0  0  0  0
 18 10  1  0  0  0  0
 19 20  2  0  0  0  0
 20 11  1  0  0  0  0
 20 15  1  0  0  0  0
 22 23  1  0  0  0  0
 23 21  1  0  0  0  0
 25 24  1  6  0  0  0
 25 23  1  0  0  0  0
 26 27  2  0  0  0  0
 27 25  1  0  0  0  0
 28 30  1  0  0  0  0
 28 31  1  0  0  0  0
 28 27  1  0  0  0  0
 29 28  1  0  0  0  0
M  END
>  <MODEL>
2

>  <REMARK>
 VINA RESULT:      -8.1      4.013      7.585
  Name = 
  5 active torsions:
  status: ('A' for Active; 'I' for Inactive)
    1  A    between atoms: C_1  and  C_19
    2  A    between atoms: N_9  and  C_22
    3  A    between atoms: N_9  and  C_23
    4  A    between atoms: C_15  and  C_23
    5  A    between atoms: C_19  and  C_22
                            x       y       z     vdW  Elec       q    Type
                         _______ _______ _______ _____ _____    ______ ____

>  <TORSDO>
F 5

$$$$
=
 OpenBabel10272400353D

 31 34  0  0  1  0  0  0  0  0999 V2000
  183.4890  179.4300  144.6330 C   0  0  1  0  0  3  0  0  0  0  0  0
  185.9650  178.7640  141.7390 C   0  0  2  0  0  3  0  0  0  0  0  0
  187.1200  177.8960  142.1890 C   0  0  0  0  0  0  0  0  0  0  0  0
  188.2140  176.4710  143.8240 C   0  0  0  0  0  3  0  0  0  0  0  0
  184.7020  178.6290  142.5960 C   0  0  1  0  0  3  0  0  0  0  0  0
  182.2180  179.0890  143.8880 C   0  0  0  0  0  3  0  0  0  0  0  0
  187.1080  177.2230  143.4200 C   0  0  0  0  0  3  0  0  0  0  0  0
  184.4960  177.8730  139.7560 C   0  0  2  0  0  3  0  0  0  0  0  0
  183.7990  178.3990  145.4990 F   0  0  0  0  0  0  0  0  0  0  0  0
  188.2640  178.5750  140.0750 C   0  0  0  0  0  2  0  0  0  0  0  0
  189.3450  176.3980  143.0070 C   0  0  0  0  0  3  0  0  0  0  0  0
  183.4240  177.7160  140.7550 N   0  0  0  0  0  2  0  0  0  0  0  0
  185.7110  178.7190  140.2010 C   0  0  2  0  0  3  0  0  0  0  0  0
  184.6780  179.6820  143.6990 C   0  0  0  0  0  2  0  0  0  0  0  0
  190.8240  176.9580  140.7950 Cl  0  0  0  0  0  0  0  0  0  0  0  0
  183.4500  178.7840  141.7440 C   0  0  1  0  0  3  0  0  0  0  0  0
  182.2050  178.7480  142.5880 C   0  0  0  0  0  3  0  0  0  0  0  0
  186.9410  178.3330  139.3560 C   0  0  0  0  0  2  0  0  0  0  0  0
  188.2640  177.8260  141.3730 C   0  0  0  0  0  0  0  0  0  0  0  0
  189.3790  177.0750  141.7850 C   0  0  0  0  0  0  0  0  0  0  0  0
  183.9240  178.4280  138.4580 C   0  0  0  0  0  2  0  0  0  0  0  0
  182.8900  176.7150  137.2710 C   0  0  0  0  0  1  0  0  0  0  0  0
  182.6240  177.8280  138.1740 N   0  0  0  0  0  0  0  0  0  0  0  0
  180.8100  178.1870  136.7090 O   0  0  0  0  0  1  0  0  0  0  0  0
  181.8110  178.8180  137.4560 C   0  0  1  0  0  3  0  0  0  0  0  0
  180.4260  179.3210  139.3990 C   0  0  0  0  0  2  0  0  0  0  0  0
  181.1700  179.8000  138.4020 C   0  0  0  0  0  0  0  0  0  0  0  0
  181.3970  181.2870  138.2950 C   0  0  0  0  0  0  0  0  0  0  0  0
  182.7010  181.5840  138.6470 F   0  0  0  0  0  0  0  0  0  0  0  0
  181.1740  181.7320  137.0030 F   0  0  0  0  0  0  0  0  0  0  0  0
  180.5360  181.9530  139.1480 F   0  0  0  0  0  0  0  0  0  0  0  0
  1  9  1  1  0  0  0
  2  3  1  1  0  0  0
  2  5  1  0  0  0  0
  3  7  1  0  0  0  0
  5 14  1  1  0  0  0
  6  1  1  0  0  0  0
  7  4  2  0  0  0  0
  8 21  1  6  0  0  0
  8 13  1  0  0  0  0
  8 12  1  0  0  0  0
 10 19  1  0  0  0  0
 11  4  1  0  0  0  0
 12 16  1  0  0  0  0
 13 18  1  6  0  0  0
 13  2  1  0  0  0  0
 14  1  1  0  0  0  0
 15 20  1  0  0  0  0
 16 17  1  1  0  0  0
 16  5  1  0  0  0  0
 17  6  2  0  0  0  0
 18 10  1  0  0  0  0
 19 20  1  0  0  0  0
 19  3  2  0  0  0  0
 20 11  2  0  0  0  0
 22 23  1  0  0  0  0
 23 21  1  0  0  0  0
 25 24  1  1  0  0  0
 25 23  1  0  0  0  0
 25 27  1  0  0  0  0
 27 26  2  0  0  0  0
 28 27  1  0  0  0  0
 28 29  1  0  0  0  0
 28 31  1  0  0  0  0
 30 28  1  0  0  0  0
M  END
>  <MODEL>
3

>  <REMARK>
 VINA RESULT:      -8.0      5.083      9.257
  Name = 
  5 active torsions:
  status: ('A' for Active; 'I' for Inactive)
    1  A    between atoms: C_1  and  C_19
    2  A    between atoms: N_9  and  C_22
    3  A    between atoms: N_9  and  C_23
    4  A    between atoms: C_15  and  C_23
    5  A    between atoms: C_19  and  C_22
                            x       y       z     vdW  Elec       q    Type
                         _______ _______ _______ _____ _____    ______ ____

>  <TORSDO>
F 5

$$$$
=
 OpenBabel10272400353D

 31 34  0  0  1  0  0  0  0  0999 V2000
  190.5480  177.1030  136.5950 C   0  0  1  0  0  3  0  0  0  0  0  0
  187.6310  178.1540  138.9040 C   0  0  2  0  0  3  0  0  0  0  0  0
  186.3030  177.6450  138.3840 C   0  0  0  0  0  0  0  0  0  0  0  0
  184.9800  176.2860  136.8660 C   0  0  0  0  0  3  0  0  0  0  0  0
  188.8470  177.3640  138.4120 C   0  0  1  0  0  3  0  0  0  0  0  0
  191.4680  176.5690  137.6700 C   0  0  0  0  0  3  0  0  0  0  0  0
  186.2240  176.6950  137.3550 C   0  0  0  0  0  3  0  0  0  0  0  0
  188.3430  177.4020  141.3140 C   0  0  2  0  0  3  0  0  0  0  0  0
  189.9850  176.0430  135.9100 F   0  0  0  0  0  0  0  0  0  0  0  0
  185.2320  179.2320  139.9870 C   0  0  0  0  0  2  0  0  0  0  0  0
  183.8080  176.8340  137.3930 C   0  0  0  0  0  3  0  0  0  0  0  0
  189.3970  176.6170  140.6480 N   0  0  0  0  0  2  0  0  0  0  0  0
  187.6290  178.4540  140.4340 C   0  0  2  0  0  3  0  0  0  0  0  0
  189.4340  177.9950  137.1540 C   0  0  0  0  0  2  0  0  0  0  0  0
  182.3710  178.4560  139.0360 Cl  0  0  0  0  0  0  0  0  0  0  0  0
  189.9280  177.3110  139.4820 C   0  0  1  0  0  3  0  0  0  0  0  0
  191.1650  176.6190  138.9780 C   0  0  0  0  0  3  0  0  0  0  0  0
  186.2410  178.7620  141.0290 C   0  0  0  0  0  2  0  0  0  0  0  0
  185.1210  178.2000  138.9060 C   0  0  0  0  0  0  0  0  0  0  0  0
  183.8710  177.7920  138.4080 C   0  0  0  0  0  0  0  0  0  0  0  0
  188.8990  178.0650  142.5680 C   0  0  0  0  0  2  0  0  0  0  0  0
  187.5450  176.5340  143.6810 C   0  0  0  0  0  1  0  0  0  0  0  0
  188.8740  177.1350  143.6920 N   0  0  0  0  0  0  0  0  0  0  0  0
  187.7790  178.0580  145.5670 O   0  0  0  0  0  1  0  0  0  0  0  0
  189.0160  177.9100  144.9310 C   0  0  1  0  0  3  0  0  0  0  0  0
  189.5260  176.8740  147.0790 C   0  0  0  0  0  2  0  0  0  0  0  0
  189.9810  177.2550  145.8860 C   0  0  0  0  0  0  0  0  0  0  0  0
  191.4130  176.9630  145.5100 C   0  0  0  0  0  0  0  0  0  0  0  0
  192.1220  176.5930  146.6370 F   0  0  0  0  0  0  0  0  0  0  0  0
  191.4840  175.9360  144.5830 F   0  0  0  0  0  0  0  0  0  0  0  0
  191.9910  178.0940  144.9630 F   0  0  0  0  0  0  0  0  0  0  0  0
  1  9  1  1  0  0  0
  1 14  1  0  0  0  0
  1  6  1  0  0  0  0
  2  3  1  1  0  0  0
  2 13  1  0  0  0  0
  3 19  1  0  0  0  0
  4  7  1  0  0  0  0
  4 11  2  0  0  0  0
  5 14  1  6  0  0  0
  5  2  1  0  0  0  0
  5 16  1  0  0  0  0
  6 17  2  0  0  0  0
  7  3  2  0  0  0  0
  8 21  1  1  0  0  0
 10 18  1  0  0  0  0
 11 20  1  0  0  0  0
 12  8  1  0  0  0  0
 13 18  1  1  0  0  0
 13  8  1  0  0  0  0
 16 17  1  6  0  0  0
 16 12  1  0  0  0  0
 19 10  1  0  0  0  0
 20 19  2  0  0  0  0
 20 15  1  0  0  0  0
 21 23  1  0  0  0  0
 22 23  1  0  0  0  0
 23 25  1  0  0  0  0
 25 24  1  1  0  0  0
 25 27  1  0  0  0  0
 27 26  2  0  0  0  0
 28 27  1  0  0  0  0
 28 29  1  0  0  0  0
 30 28  1  0  0  0  0
 31 28  1  0  0  0  0
M  END
>  <MODEL>
4

>  <REMARK>
 VINA RESULT:      -7.7      2.693      3.843
  Name = 
  5 active torsions:
  status: ('A' for Active; 'I' for Inactive)
    1  A    between atoms: C_1  and  C_19
    2  A    between atoms: N_9  and  C_22
    3  A    between atoms: N_9  and  C_23
    4  A    between atoms: C_15  and  C_23
    5  A    between atoms: C_19  and  C_22
                            x       y       z     vdW  Elec       q    Type
                         _______ _______ _______ _____ _____    ______ ____

>  <TORSDO>
F 5

$$$$
=
 OpenBabel10272400353D

 31 34  0  0  1  0  0  0  0  0999 V2000
  183.4420  179.4520  144.6200 C   0  0  1  0  0  3  0  0  0  0  0  0
  186.0530  178.8150  141.8410 C   0  0  2  0  0  3  0  0  0  0  0  0
  187.1950  177.9580  142.3420 C   0  0  0  0  0  0  0  0  0  0  0  0
  188.2280  176.5410  144.0220 C   0  0  0  0  0  3  0  0  0  0  0  0
  184.7540  178.6660  142.6390 C   0  0  1  0  0  3  0  0  0  0  0  0
  182.2100  179.0990  143.8180 C   0  0  0  0  0  3  0  0  0  0  0  0
  187.1340  177.2820  143.5700 C   0  0  0  0  0  3  0  0  0  0  0  0
  184.6850  177.9130  139.7920 C   0  0  2  0  0  3  0  0  0  0  0  0
  183.7230  178.4220  145.4990 F   0  0  0  0  0  0  0  0  0  0  0  0
  188.4270  178.6520  140.2830 C   0  0  0  0  0  2  0  0  0  0  0  0
  189.3960  176.4800  143.2580 C   0  0  0  0  0  3  0  0  0  0  0  0
  183.5700  177.7430  140.7410 N   0  0  0  0  0  2  0  0  0  0  0  0
  185.8700  178.7700  140.2930 C   0  0  2  0  0  3  0  0  0  0  0  0
  184.6700  179.7170  143.7410 C   0  0  0  0  0  2  0  0  0  0  0  0
  190.9680  177.0590  141.1160 Cl  0  0  0  0  0  0  0  0  0  0  0  0
  183.5400  178.8100  141.7320 C   0  0  1  0  0  3  0  0  0  0  0  0
  182.2590  178.7600  142.5180 C   0  0  0  0  0  3  0  0  0  0  0  0
  187.1400  178.3980  139.5040 C   0  0  0  0  0  2  0  0  0  0  0  0
  188.3760  177.9000  141.5780 C   0  0  0  0  0  0  0  0  0  0  0  0
  189.4780  177.1590  142.0390 C   0  0  0  0  0  0  0  0  0  0  0  0
  184.1670  178.4650  138.4700 C   0  0  0  0  0  2  0  0  0  0  0  0
  183.1590  176.3910  138.1570 C   0  0  0  0  0  1  0  0  0  0  0  0
  183.9950  177.3890  137.4990 N   0  0  0  0  0  0  0  0  0  0  0  0
  185.2250  175.3920  137.2410 O   0  0  0  0  0  1  0  0  0  0  0  0
  185.3100  176.7880  137.2440 C   0  0  1  0  0  3  0  0  0  0  0  0
  185.1400  177.0920  134.8300 C   0  0  0  0  0  2  0  0  0  0  0  0
  185.8820  177.2460  135.9270 C   0  0  0  0  0  0  0  0  0  0  0  0
  187.2250  177.9240  135.8250 C   0  0  0  0  0  0  0  0  0  0  0  0
  188.1670  177.1970  136.5280 F   0  0  0  0  0  0  0  0  0  0  0  0
  187.6340  178.0220  134.5050 F   0  0  0  0  0  0  0  0  0  0  0  0
  187.1460  179.1980  136.3590 F   0  0  0  0  0  0  0  0  0  0  0  0
  1  9  1  1  0  0  0
  2  3  1  1  0  0  0
  2  5  1  0  0  0  0
  3  7  1  0  0  0  0
  5 14  1  1  0  0  0
  6  1  1  0  0  0  0
  7  4  2  0  0  0  0
  8 21  1  6  0  0  0
  8 13  1  0  0  0  0
  8 12  1  0  0  0  0
 10 19  1  0  0  0  0
 11  4  1  0  0  0  0
 12 16  1  0  0  0  0
 13 18  1  6  0  0  0
 13  2  1  0  0  0  0
 14  1  1  0  0  0  0
 15 20  1  0  0  0  0
 16 17  1  1  0  0  0
 16  5  1  0  0  0  0
 17  6  2  0  0  0  0
 18 10  1  0  0  0  0
 19 20  1  0  0  0  0
 19  3  2  0  0  0  0
 20 11  2  0  0  0  0
 23 22  1  0  0  0  0
 23 21  1  0  0  0  0
 25 24  1  6  0  0  0
 25 23  1  0  0  0  0
 26 27  2  0  0  0  0
 27 25  1  0  0  0  0
 28 27  1  0  0  0  0
 28 31  1  0  0  0  0
 28 29  1  0  0  0  0
 30 28  1  0  0  0  0
M  END
>  <MODEL>
5

>  <REMARK>
 VINA RESULT:      -7.6      4.723      8.482
  Name = 
  5 active torsions:
  status: ('A' for Active; 'I' for Inactive)
    1  A    between atoms: C_1  and  C_19
    2  A    between atoms: N_9  and  C_22
    3  A    between atoms: N_9  and  C_23
    4  A    between atoms: C_15  and  C_23
    5  A    between atoms: C_19  and  C_22
                            x       y       z     vdW  Elec       q    Type
                         _______ _______ _______ _____ _____    ______ ____

>  <TORSDO>
F 5

$$$$
=
 OpenBabel10272400353D

 31 34  0  0  1  0  0  0  0  0999 V2000
  191.8720  177.0500  143.5530 C   0  0  1  0  0  3  0  0  0  0  0  0
  189.7640  178.0100  140.4570 C   0  0  2  0  0  3  0  0  0  0  0  0
  190.1330  177.1670  139.2550 C   0  0  0  0  0  0  0  0  0  0  0  0
  191.2950  175.2970  138.2300 C   0  0  0  0  0  3  0  0  0  0  0  0
  190.1090  177.3720  141.8060 C   0  0  1  0  0  3  0  0  0  0  0  0
  190.7310  176.9350  144.5400 C   0  0  0  0  0  3  0  0  0  0  0  0
  190.9350  176.0220  139.3690 C   0  0  0  0  0  3  0  0  0  0  0  0
  187.2690  177.9310  141.2600 C   0  0  2  0  0  3  0  0  0  0  0  0
  192.3030  175.7840  143.2070 F   0  0  0  0  0  0  0  0  0  0  0  0
  188.8740  178.8320  137.8840 C   0  0  0  0  0  2  0  0  0  0  0  0
  190.8670  175.7180  136.9690 C   0  0  0  0  0  3  0  0  0  0  0  0
  187.7810  177.2310  142.4520 N   0  0  0  0  0  2  0  0  0  0  0  0
  188.3330  178.6220  140.3770 C   0  0  2  0  0  3  0  0  0  0  0  0
  191.4870  177.8190  142.2840 C   0  0  0  0  0  2  0  0  0  0  0  0
  189.5680  177.3580  135.2320 Cl  0  0  0  0  0  0  0  0  0  0  0  0
  189.0790  177.7480  142.8620 C   0  0  1  0  0  3  0  0  0  0  0  0
  189.4560  177.2050  144.2140 C   0  0  0  0  0  3  0  0  0  0  0  0
  187.7820  178.7880  138.9470 C   0  0  0  0  0  2  0  0  0  0  0  0
  189.7090  177.5920  137.9830 C   0  0  0  0  0  0  0  0  0  0  0  0
  190.0790  176.8640  136.8380 C   0  0  0  0  0  0  0  0  0  0  0  0
  186.1970  178.9360  141.6650 C   0  0  0  0  0  2  0  0  0  0  0  0
  184.0610  178.0380  141.8810 C   0  0  0  0  0  1  0  0  0  0  0  0
  185.2760  178.3420  142.6280 N   0  0  0  0  0  0  0  0  0  0  0  0
  183.7230  179.9630  143.3530 O   0  0  0  0  0  1  0  0  0  0  0  0
  184.9520  179.3570  143.6370 C   0  0  1  0  0  3  0  0  0  0  0  0
  183.7320  178.7880  145.6710 C   0  0  0  0  0  2  0  0  0  0  0  0
  184.8960  178.7640  145.0220 C   0  0  0  0  0  0  0  0  0  0  0  0
  186.0870  178.0950  145.6600 C   0  0  0  0  0  0  0  0  0  0  0  0
  185.9010  178.0220  147.0270 F   0  0  0  0  0  0  0  0  0  0  0  0
  186.2600  176.8120  145.1660 F   0  0  0  0  0  0  0  0  0  0  0  0
  187.2300  178.8280  145.3970 F   0  0  0  0  0  0  0  0  0  0  0  0
  1  9  1  6  0  0  0
  1  6  1  0  0  0  0
  2  3  1  6  0  0  0
  2  5  1  0  0  0  0
  3  7  1  0  0  0  0
  4  7  2  0  0  0  0
  5 14  1  1  0  0  0
  5 16  1  0  0  0  0
  8 21  1  1  0  0  0
  8 12  1  0  0  0  0
 10 19  1  0  0  0  0
 10 18  1  0  0  0  0
 11  4  1  0  0  0  0
 12 16  1  0  0  0  0
 13 18  1  6  0  0  0
 13  2  1  0  0  0  0
 13  8  1  0  0  0  0
 14  1  1  0  0  0  0
 15 20  1  0  0  0  0
 16 17  1  1  0  0  0
 17  6  2  0  0  0  0
 19  3  2  0  0  0  0
 20 11  2  0  0  0  0
 20 19  1  0  0  0  0
 21 23  1  0  0  0  0
 22 23  1  0  0  0  0
 23 25  1  0  0  0  0
 25 24  1  6  0  0  0
 25 27  1  0  0  0  0
 27 28  1  0  0  0  0
 27 26  2  0  0  0  0
 28 29  1  0  0  0  0
 30 28  1  0  0  0  0
 31 28  1  0  0  0  0
M  END
>  <MODEL>
6

>  <REMARK>
 VINA RESULT:      -7.6      3.728      6.528
  Name = 
  5 active torsions:
  status: ('A' for Active; 'I' for Inactive)
    1  A    between atoms: C_1  and  C_19
    2  A    between atoms: N_9  and  C_22
    3  A    between atoms: N_9  and  C_23
    4  A    between atoms: C_15  and  C_23
    5  A    between atoms: C_19  and  C_22
                            x       y       z     vdW  Elec       q    Type
                         _______ _______ _______ _____ _____    ______ ____

>  <TORSDO>
F 5

$$$$
=
 OpenBabel10272400353D

 31 34  0  0  1  0  0  0  0  0999 V2000
  189.8280  176.7610  145.4950 C   0  0  1  0  0  3  0  0  0  0  0  0
  187.0600  177.6450  142.9450 C   0  0  2  0  0  3  0  0  0  0  0  0
  185.8440  178.2300  143.6300 C   0  0  0  0  0  0  0  0  0  0  0  0
  184.7150  179.1230  145.5860 C   0  0  0  0  0  3  0  0  0  0  0  0
  188.3610  177.7790  143.7430 C   0  0  1  0  0  3  0  0  0  0  0  0
  190.9800  177.4230  144.7730 C   0  0  0  0  0  3  0  0  0  0  0  0
  185.8710  178.6340  144.9730 C   0  0  0  0  0  3  0  0  0  0  0  0
  188.2370  179.1190  141.1220 C   0  0  2  0  0  3  0  0  0  0  0  0
  189.4610  177.5400  146.5760 F   0  0  0  0  0  0  0  0  0  0  0  0
  184.6280  177.8410  141.4840 C   0  0  0  0  0  2  0  0  0  0  0  0
  183.5210  179.2000  144.8650 C   0  0  0  0  0  3  0  0  0  0  0  0
  189.3580  179.2210  142.0720 N   0  0  0  0  0  2  0  0  0  0  0  0
  187.1800  178.0370  141.4400 C   0  0  2  0  0  3  0  0  0  0  0  0
  188.6090  176.5390  144.5930 C   0  0  0  0  0  2  0  0  0  0  0  0
  181.9500  178.8980  142.6660 Cl  0  0  0  0  0  0  0  0  0  0  0  0
  189.5490  177.9800  142.8120 C   0  0  1  0  0  3  0  0  0  0  0  0
  190.8440  178.0200  143.5770 C   0  0  0  0  0  3  0  0  0  0  0  0
  185.8460  178.4090  140.7630 C   0  0  0  0  0  2  0  0  0  0  0  0
  184.6380  178.3020  142.9090 C   0  0  0  0  0  0  0  0  0  0  0  0
  183.4740  178.7880  143.5300 C   0  0  0  0  0  0  0  0  0  0  0  0
  188.7670  178.9270  139.7060 C   0  0  0  0  0  2  0  0  0  0  0  0
  189.8920  176.8930  139.6090 C   0  0  0  0  0  1  0  0  0  0  0  0
  188.6220  177.5360  139.2900 N   0  0  0  0  0  0  0  0  0  0  0  0
  189.5460  176.9030  137.2140 O   0  0  0  0  0  1  0  0  0  0  0  0
  188.4480  177.5100  137.8330 C   0  0  1  0  0  3  0  0  0  0  0  0
  187.2480  175.4430  137.3460 C   0  0  0  0  0  2  0  0  0  0  0  0
  187.1940  176.7720  137.4380 C   0  0  0  0  0  0  0  0  0  0  0  0
  185.8810  177.4790  137.2120 C   0  0  0  0  0  0  0  0  0  0  0  0
  185.9790  178.7890  137.6450 F   0  0  0  0  0  0  0  0  0  0  0  0
  185.5410  177.4790  135.8700 F   0  0  0  0  0  0  0  0  0  0  0  0
  184.8810  176.8420  137.9230 F   0  0  0  0  0  0  0  0  0  0  0  0
  1  9  1  1  0  0  0
  2  3  1  1  0  0  0
  2  5  1  0  0  0  0
  3  7  1  0  0  0  0
  5 14  1  6  0  0  0
  6  1  1  0  0  0  0
  7  4  2  0  0  0  0
  8 21  1  6  0  0  0
  8 13  1  0  0  0  0
  8 12  1  0  0  0  0
 10 19  1  0  0  0  0
 11  4  1  0  0  0  0
 12 16  1  0  0  0  0
 13 18  1  1  0  0  0
 13  2  1  0  0  0  0
 14  1  1  0  0  0  0
 15 20  1  0  0  0  0
 16 17  1  1  0  0  0
 16  5  1  0  0  0  0
 17  6  2  0  0  0  0
 18 10  1  0  0  0  0
 19 20  1  0  0  0  0
 19  3  2  0  0  0  0
 20 11  2  0  0  0  0
 23 22  1  0  0  0  0
 23 21  1  0  0  0  0
 25 24  1  6  0  0  0
 25 23  1  0  0  0  0
 26 27  2  0  0  0  0
 27 25  1  0  0  0  0
 28 27  1  0  0  0  0
 28 29  1  0  0  0  0
 28 31  1  0  0  0  0
 30 28  1  0  0  0  0
M  END
>  <MODEL>
7

>  <REMARK>
 VINA RESULT:      -7.4      3.025      6.832
  Name = 
  5 active torsions:
  status: ('A' for Active; 'I' for Inactive)
    1  A    between atoms: C_1  and  C_19
    2  A    between atoms: N_9  and  C_22
    3  A    between atoms: N_9  and  C_23
    4  A    between atoms: C_15  and  C_23
    5  A    between atoms: C_19  and  C_22
                            x       y       z     vdW  Elec       q    Type
                         _______ _______ _______ _____ _____    ______ ____

>  <TORSDO>
F 5

$$$$
=
 OpenBabel10272400353D

 31 34  0  0  1  0  0  0  0  0999 V2000
  188.5340  178.1570  136.0760 C   0  0  1  0  0  3  0  0  0  0  0  0
  186.8740  178.6050  139.5390 C   0  0  2  0  0  3  0  0  0  0  0  0
  185.4290  178.1520  139.5210 C   0  0  0  0  0  0  0  0  0  0  0  0
  183.5430  177.0630  138.4480 C   0  0  0  0  0  3  0  0  0  0  0  0
  187.7450  177.9810  138.4440 C   0  0  1  0  0  3  0  0  0  0  0  0
  189.7910  177.4610  136.5490 C   0  0  0  0  0  3  0  0  0  0  0  0
  184.8930  177.4210  138.4510 C   0  0  0  0  0  3  0  0  0  0  0  0
  188.4820  177.4260  141.2420 C   0  0  2  0  0  3  0  0  0  0  0  0
  187.6950  177.2290  135.4890 F   0  0  0  0  0  0  0  0  0  0  0  0
  185.1810  179.3450  141.7020 C   0  0  0  0  0  2  0  0  0  0  0  0
  182.7160  177.4450  139.5070 C   0  0  0  0  0  3  0  0  0  0  0  0
  189.1340  176.8330  140.0600 N   0  0  0  0  0  2  0  0  0  0  0  0
  187.5140  178.5980  140.9600 C   0  0  2  0  0  3  0  0  0  0  0  0
  187.7880  178.8720  137.2080 C   0  0  0  0  0  2  0  0  0  0  0  0
  182.1530  178.6480  141.8790 Cl  0  0  0  0  0  0  0  0  0  0  0  0
  189.1670  177.7650  138.9410 C   0  0  1  0  0  3  0  0  0  0  0  0
  190.0570  177.2400  137.8480 C   0  0  0  0  0  3  0  0  0  0  0  0
  186.5090  178.7230  142.1210 C   0  0  0  0  0  2  0  0  0  0  0  0
  184.5920  178.5410  140.5830 C   0  0  0  0  0  0  0  0  0  0  0  0
  183.2320  178.1860  140.5730 C   0  0  0  0  0  0  0  0  0  0  0  0
  189.5320  177.8520  142.2600 C   0  0  0  0  0  2  0  0  0  0  0  0
  188.3410  176.1200  143.2570 C   0  0  0  0  0  1  0  0  0  0  0  0
  189.5360  176.9430  143.4020 N   0  0  0  0  0  0  0  0  0  0  0  0
  188.0670  177.7530  145.0610 O   0  0  0  0  0  1  0  0  0  0  0  0
  189.3960  177.7440  144.6240 C   0  0  1  0  0  3  0  0  0  0  0  0
  191.4810  176.7560  145.4160 C   0  0  0  0  0  2  0  0  0  0  0  0
  190.2720  177.2200  145.7330 C   0  0  0  0  0  0  0  0  0  0  0  0
  189.8520  177.2660  147.1810 C   0  0  0  0  0  0  0  0  0  0  0  0
  189.0740  176.1620  147.4740 F   0  0  0  0  0  0  0  0  0  0  0  0
  190.9550  177.2670  148.0190 F   0  0  0  0  0  0  0  0  0  0  0  0
  189.1160  178.4130  147.4170 F   0  0  0  0  0  0  0  0  0  0  0  0
  1  9  1  1  0  0  0
  1  6  1  0  0  0  0
  1 14  1  0  0  0  0
  2  3  1  1  0  0  0
  2 13  1  0  0  0  0
  3 19  1  0  0  0  0
  4  7  1  0  0  0  0
  4 11  2  0  0  0  0
  5 14  1  6  0  0  0
  5 16  1  0  0  0  0
  5  2  1  0  0  0  0
  6 17  2  0  0  0  0
  7  3  2  0  0  0  0
  8 21  1  1  0  0  0
 10 18  1  0  0  0  0
 11 20  1  0  0  0  0
 12  8  1  0  0  0  0
 13  8  1  0  0  0  0
 13 18  1  1  0  0  0
 16 17  1  6  0  0  0
 16 12  1  0  0  0  0
 19 10  1  0  0  0  0
 20 19  2  0  0  0  0
 20 15  1  0  0  0  0
 21 23  1  0  0  0  0
 22 23  1  0  0  0  0
 23 25  1  0  0  0  0
 25 24  1  1  0  0  0
 25 27  1  0  0  0  0
 26 27  2  0  0  0  0
 27 28  1  0  0  0  0
 28 31  1  0  0  0  0
 28 29  1  0  0  0  0
 28 30  1  0  0  0  0
M  END
>  <MODEL>
8

>  <REMARK>
 VINA RESULT:      -7.3      2.294      3.404
  Name = 
  5 active torsions:
  status: ('A' for Active; 'I' for Inactive)
    1  A    between atoms: C_1  and  C_19
    2  A    between atoms: N_9  and  C_22
    3  A    between atoms: N_9  and  C_23
    4  A    between atoms: C_15  and  C_23
    5  A    between atoms: C_19  and  C_22
                            x       y       z     vdW  Elec       q    Type
                         _______ _______ _______ _____ _____    ______ ____

>  <TORSDO>
F 5

$$$$
=
 OpenBabel10272400353D

 31 34  0  0  1  0  0  0  0  0999 V2000
  191.4260  176.0040  136.3250 C   0  0  1  0  0  3  0  0  0  0  0  0
  188.1270  177.3360  137.8380 C   0  0  2  0  0  3  0  0  0  0  0  0
  186.9420  176.5010  137.4010 C   0  0  0  0  0  0  0  0  0  0  0  0
  185.9850  174.5440  136.3280 C   0  0  0  0  0  3  0  0  0  0  0  0
  189.4730  176.6080  137.7680 C   0  0  1  0  0  3  0  0  0  0  0  0
  192.2370  175.9920  137.6020 C   0  0  0  0  0  3  0  0  0  0  0  0
  187.1020  175.2630  136.7620 C   0  0  0  0  0  3  0  0  0  0  0  0
  188.5710  177.5340  140.4160 C   0  0  2  0  0  3  0  0  0  0  0  0
  191.0720  174.7080  135.9990 F   0  0  0  0  0  0  0  0  0  0  0  0
  185.5050  178.3610  138.2460 C   0  0  0  0  0  2  0  0  0  0  0  0
  184.7020  175.0630  136.5180 C   0  0  0  0  0  3  0  0  0  0  0  0
  189.7810  176.7300  140.1660 N   0  0  0  0  0  2  0  0  0  0  0  0
  187.8830  178.1220  139.1620 C   0  0  2  0  0  3  0  0  0  0  0  0
  190.1610  176.8630  136.4320 C   0  0  0  0  0  2  0  0  0  0  0  0
  182.8960  176.9170  137.3530 Cl  0  0  0  0  0  0  0  0  0  0  0  0
  190.3950  177.0660  138.8890 C   0  0  1  0  0  3  0  0  0  0  0  0
  191.7530  176.4290  138.7760 C   0  0  0  0  0  3  0  0  0  0  0  0
  186.4030  178.4100  139.4780 C   0  0  0  0  0  2  0  0  0  0  0  0
  185.6490  177.0240  137.5840 C   0  0  0  0  0  0  0  0  0  0  0  0
  184.5270  176.3020  137.1410 C   0  0  0  0  0  0  0  0  0  0  0  0
  188.8790  178.6460  141.4100 C   0  0  0  0  0  2  0  0  0  0  0  0
  189.8870  177.4500  143.1320 C   0  0  0  0  0  1  0  0  0  0  0  0
  188.6750  178.1800  142.7780 N   0  0  0  0  0  0  0  0  0  0  0  0
  187.9700  175.9700  143.2120 O   0  0  0  0  0  1  0  0  0  0  0  0
  187.5530  177.2320  142.7760 C   0  0  1  0  0  3  0  0  0  0  0  0
  186.5470  177.5440  144.9760 C   0  0  0  0  0  2  0  0  0  0  0  0
  186.4270  177.7060  143.6580 C   0  0  0  0  0  0  0  0  0  0  0  0
  185.2120  178.4090  143.1050 C   0  0  0  0  0  0  0  0  0  0  0  0
  184.3250  178.6770  144.1300 F   0  0  0  0  0  0  0  0  0  0  0  0
  185.5630  179.6030  142.4970 F   0  0  0  0  0  0  0  0  0  0  0  0
  184.5920  177.6010  142.1700 F   0  0  0  0  0  0  0  0  0  0  0  0
  1  9  1  1  0  0  0
  1 14  1  0  0  0  0
  1  6  1  0  0  0  0
  2  3  1  1  0  0  0
  2 13  1  0  0  0  0
  3 19  1  0  0  0  0
  4 11  2  0  0  0  0
  4  7  1  0  0  0  0
  5 14  1  6  0  0  0
  5  2  1  0  0  0  0
  5 16  1  0  0  0  0
  6 17  2  0  0  0  0
  7  3  2  0  0  0  0
  8 21  1  1  0  0  0
 10 18  1  0  0  0  0
 11 20  1  0  0  0  0
 12  8  1  0  0  0  0
 13 18  1  1  0  0  0
 13  8  1  0  0  0  0
 16 17  1  6  0  0  0
 16 12  1  0  0  0  0
 19 10  1  0  0  0  0
 20 15  1  0  0  0  0
 20 19  2  0  0  0  0
 21 23  1  0  0  0  0
 23 22  1  0  0  0  0
 25 23  1  0  0  0  0
 25 24  1  1  0  0  0
 25 27  1  0  0  0  0
 27 26  2  0  0  0  0
 28 27  1  0  0  0  0
 28 29  1  0  0  0  0
 30 28  1  0  0  0  0
 31 28  1  0  0  0  0
M  END
>  <MODEL>
9

>  <REMARK>
 VINA RESULT:      -7.3      3.959      5.973
  Name = 
  5 active torsions:
  status: ('A' for Active; 'I' for Inactive)
    1  A    between atoms: C_1  and  C_19
    2  A    between atoms: N_9  and  C_22
    3  A    between atoms: N_9  and  C_23
    4  A    between atoms: C_15  and  C_23
    5  A    between atoms: C_19  and  C_22
                            x       y       z     vdW  Elec       q    Type
                         _______ _______ _______ _____ _____    ______ ____

>  <TORSDO>
F 5

$$$$
