=
 OpenBabel10272413373D

 32 36  0  0  1  0  0  0  0  0999 V2000
  183.2120  178.9960  143.9180 C   0  0  0  0  0  3  0  0  0  0  0  0
  183.5980  178.8440  145.2490 C   0  0  0  0  0  3  0  0  0  0  0  0
  184.1160  178.7150  142.8950 C   0  0  0  0  0  3  0  0  0  0  0  0
  185.4200  178.2840  143.1860 C   0  0  0  0  0  0  0  0  0  0  0  0
  184.8900  178.4170  145.5540 C   0  0  0  0  0  3  0  0  0  0  0  0
  185.8220  178.1380  144.5400 C   0  0  0  0  0  0  0  0  0  0  0  0
  189.3840  176.7560  144.3470 C   0  0  0  0  0  0  0  0  0  0  0  0
  189.7810  176.9610  145.6680 C   0  0  0  0  0  0  0  0  0  0  0  0
  189.6230  177.5820  147.7640 C   0  0  0  0  0  0  0  0  0  0  0  0
  187.1930  177.7100  144.9320 C   0  0  0  0  0  0  0  0  0  0  0  0
  190.8820  177.0520  147.5160 C   0  0  0  0  0  3  0  0  0  0  0  0
  190.9770  176.6690  146.2170 N   0  0  0  0  0  0  0  0  0  0  0  0
  187.6370  177.9090  146.2600 C   0  0  0  0  0  3  0  0  0  0  0  0
  190.2990  176.1550  143.3390 C   0  0  0  0  0  1  0  0  0  0  0  0
  189.1690  178.0670  148.9460 F   0  0  0  0  0  0  0  0  0  0  0  0
  188.0810  177.1410  143.9860 C   0  0  0  0  0  3  0  0  0  0  0  0
  188.9330  177.5180  146.5840 C   0  0  1  0  0  3  0  0  0  0  0  0
  186.3140  177.9500  142.1170 N   0  0  0  0  0  2  0  0  0  0  0  0
  188.4020  177.8890  136.7580 C   0  0  0  0  0  2  0  0  0  0  0  0
  188.4920  178.5320  139.4510 C   0  0  2  0  0  3  0  0  0  0  0  0
  186.1540  178.6850  139.8040 C   0  0  0  0  0  2  0  0  0  0  0  0
  187.0510  178.1010  137.4800 C   0  0  0  0  0  2  0  0  0  0  0  0
  186.8310  178.9120  141.1550 C   0  0  2  0  0  3  0  0  0  0  0  0
  189.4400  177.0840  137.5790 C   0  0  1  0  0  3  0  0  0  0  0  0
  187.1890  177.9500  138.9920 C   0  0  1  0  0  3  0  0  0  0  0  0
  189.6390  177.6250  139.0150 C   0  0  0  0  0  2  0  0  0  0  0  0
  188.3290  178.6700  140.9440 C   0  0  0  0  0  2  0  0  0  0  0  0
  189.0690  175.6090  137.6370 C   0  0  0  0  0  2  0  0  0  0  0  0
  190.1130  174.7710  136.9240 C   0  0  0  0  0  2  0  0  0  0  0  0
  191.1320  174.3590  137.8720 N   0  0  0  0  0  2  0  0  0  0  0  0
  193.1140  176.1660  137.7970 S   0  0  0  0  0  1  0  0  0  0  0  0
  192.4190  174.5830  137.2390 C   0  0  0  0  0  2  0  0  0  0  0  0
  1  2  1  0  0  0  0
  2  5  2  0  0  0  0
  3  4  1  0  0  0  0
  3  1  2  0  0  0  0
  4  6  2  0  0  0  0
  6 10  1  0  0  0  0
  6  5  1  0  0  0  0
  7  8  1  0  0  0  0
  8 12  2  0  0  0  0
  8 17  1  0  0  0  0
  9 15  1  0  0  0  0
 10 13  2  0  0  0  0
 11  9  2  0  0  0  0
 12 11  1  0  0  0  0
 14  7  1  0  0  0  0
 16  7  2  0  0  0  0
 16 10  1  0  0  0  0
 17 13  1  6  0  0  0
 17  9  1  0  0  0  0
 18  4  1  0  0  0  0
 19 22  1  0  0  0  0
 19 24  1  0  0  0  0
 20 26  1  1  0  0  0
 20 27  1  0  0  0  0
 21 23  1  0  0  0  0
 23 18  1  1  0  0  0
 24 28  1  1  0  0  0
 24 26  1  0  0  0  0
 25 22  1  6  0  0  0
 25 20  1  0  0  0  0
 25 21  1  0  0  0  0
 27 23  1  0  0  0  0
 29 28  1  0  0  0  0
 29 30  1  0  0  0  0
 32 31  1  0  0  0  0
 32 30  1  0  0  0  0
M  END
>  <MODEL>
1

>  <REMARK>
 VINA RESULT:      -9.6      0.000      0.000
  Name = 
  7 active torsions:
  status: ('A' for Active; 'I' for Inactive)
    1  A    between atoms: N_3  and  C_14
    2  A    between atoms: N_3  and  C_15
    3  A    between atoms: C_10  and  N_20
    4  A    between atoms: C_10  and  C_24
    5  A    between atoms: C_16  and  C_26
    6  A    between atoms: C_17  and  N_20
    7  A    between atoms: C_19  and  C_24
                            x       y       z     vdW  Elec       q    Type
                         _______ _______ _______ _____ _____    ______ ____

>  <TORSDO>
F 7

$$$$
=
 OpenBabel10272413373D

 32 36  0  0  1  0  0  0  0  0999 V2000
  183.1980  178.8590  143.8260 C   0  0  0  0  0  3  0  0  0  0  0  0
  183.5100  178.7990  145.1820 C   0  0  0  0  0  3  0  0  0  0  0  0
  184.1790  178.5910  142.8730 C   0  0  0  0  0  3  0  0  0  0  0  0
  185.4890  178.2650  143.2620 C   0  0  0  0  0  0  0  0  0  0  0  0
  184.8070  178.4770  145.5850 C   0  0  0  0  0  3  0  0  0  0  0  0
  185.8160  178.2140  144.6420 C   0  0  0  0  0  0  0  0  0  0  0  0
  188.8210  177.7900  146.9690 C   0  0  0  0  0  0  0  0  0  0  0  0
  189.7400  177.2610  146.0630 C   0  0  0  0  0  0  0  0  0  0  0  0
  190.5130  176.5300  144.1480 C   0  0  0  0  0  0  0  0  0  0  0  0
  187.1840  177.9010  145.1360 C   0  0  0  0  0  0  0  0  0  0  0  0
  191.4940  176.4380  145.1260 C   0  0  0  0  0  3  0  0  0  0  0  0
  191.0120  176.8920  146.3110 N   0  0  0  0  0  0  0  0  0  0  0  0
  188.1420  177.3550  144.2510 C   0  0  0  0  0  3  0  0  0  0  0  0
  189.1720  178.0160  148.3980 C   0  0  0  0  0  1  0  0  0  0  0  0
  190.6330  176.1680  142.8460 F   0  0  0  0  0  0  0  0  0  0  0  0
  187.5360  178.1040  146.4940 C   0  0  0  0  0  2  0  0  0  0  0  0
  189.4050  177.0530  144.7550 C   0  0  0  0  0  0  0  0  0  0  0  0
  186.4670  177.9410  142.2660 N   0  0  0  0  0  2  0  0  0  0  0  0
  188.2630  177.8410  136.8030 C   0  0  0  0  0  2  0  0  0  0  0  0
  188.5260  178.4480  139.4930 C   0  0  2  0  0  3  0  0  0  0  0  0
  186.2210  178.7080  139.9710 C   0  0  0  0  0  2  0  0  0  0  0  0
  186.9640  178.1090  137.5980 C   0  0  0  0  0  2  0  0  0  0  0  0
  186.9780  178.8890  141.2860 C   0  0  2  0  0  3  0  0  0  0  0  0
  189.3030  176.9780  137.5610 C   0  0  1  0  0  3  0  0  0  0  0  0
  187.1740  177.9350  139.0980 C   0  0  1  0  0  3  0  0  0  0  0  0
  189.6030  177.4930  138.9880 C   0  0  0  0  0  2  0  0  0  0  0  0
  188.4490  178.5780  140.9930 C   0  0  0  0  0  2  0  0  0  0  0  0
  188.8660  175.5220  137.6260 C   0  0  0  0  0  2  0  0  0  0  0  0
  189.9130  174.6240  136.9950 C   0  0  0  0  0  2  0  0  0  0  0  0
  191.0310  174.4710  137.9090 N   0  0  0  0  0  2  0  0  0  0  0  0
  193.1650  176.0960  137.8700 S   0  0  0  0  0  1  0  0  0  0  0  0
  192.2420  174.7090  137.1450 C   0  0  0  0  0  2  0  0  0  0  0  0
  1  2  1  0  0  0  0
  2  5  2  0  0  0  0
  3  4  1  0  0  0  0
  3  1  2  0  0  0  0
  4  6  2  0  0  0  0
  6 10  1  0  0  0  0
  6  5  1  0  0  0  0
  7 14  1  0  0  0  0
  8 12  1  0  0  0  0
  8  7  2  0  0  0  0
  9 17  2  0  0  0  0
  9 11  1  0  0  0  0
 10 16  1  0  0  0  0
 11 12  2  0  0  0  0
 13 17  1  0  0  0  0
 13 10  2  0  0  0  0
 15  9  1  0  0  0  0
 16  7  1  0  0  0  0
 17  8  1  0  0  0  0
 18  4  1  0  0  0  0
 19 24  1  0  0  0  0
 19 22  1  0  0  0  0
 20 26  1  1  0  0  0
 20 27  1  0  0  0  0
 21 23  1  0  0  0  0
 23 18  1  1  0  0  0
 24 28  1  1  0  0  0
 24 26  1  0  0  0  0
 25 22  1  6  0  0  0
 25 20  1  0  0  0  0
 25 21  1  0  0  0  0
 27 23  1  0  0  0  0
 29 28  1  0  0  0  0
 29 30  1  0  0  0  0
 32 31  1  0  0  0  0
 32 30  1  0  0  0  0
M  END
>  <MODEL>
2

>  <REMARK>
 VINA RESULT:      -9.6      1.247      1.935
  Name = 
  7 active torsions:
  status: ('A' for Active; 'I' for Inactive)
    1  A    between atoms: N_3  and  C_14
    2  A    between atoms: N_3  and  C_15
    3  A    between atoms: C_10  and  N_20
    4  A    between atoms: C_10  and  C_24
    5  A    between atoms: C_16  and  C_26
    6  A    between atoms: C_17  and  N_20
    7  A    between atoms: C_19  and  C_24
                            x       y       z     vdW  Elec       q    Type
                         _______ _______ _______ _____ _____    ______ ____

>  <TORSDO>
F 7

$$$$
=
 OpenBabel10272413373D

 32 36  0  0  1  0  0  0  0  0999 V2000
  184.0180  178.6230  142.8180 C   0  0  0  0  0  3  0  0  0  0  0  0
  183.9590  178.7850  144.2000 C   0  0  0  0  0  3  0  0  0  0  0  0
  185.1980  178.1860  142.2170 C   0  0  0  0  0  3  0  0  0  0  0  0
  186.3370  177.9100  142.9890 C   0  0  0  0  0  0  0  0  0  0  0  0
  185.0840  178.5140  144.9810 C   0  0  0  0  0  3  0  0  0  0  0  0
  186.2870  178.0830  144.3970 C   0  0  0  0  0  0  0  0  0  0  0  0
  188.4590  177.7520  147.5280 C   0  0  0  0  0  0  0  0  0  0  0  0
  189.6460  177.3170  146.9390 C   0  0  0  0  0  0  0  0  0  0  0  0
  191.0180  176.7130  145.3410 C   0  0  0  0  0  0  0  0  0  0  0  0
  187.4580  177.8360  145.2820 C   0  0  0  0  0  0  0  0  0  0  0  0
  191.6570  176.6420  146.5720 C   0  0  0  0  0  3  0  0  0  0  0  0
  190.8040  177.0180  147.5600 N   0  0  0  0  0  2  0  0  0  0  0  0
  188.6770  177.3850  144.7250 C   0  0  0  0  0  3  0  0  0  0  0  0
  188.3390  177.9420  149.0000 C   0  0  0  0  0  1  0  0  0  0  0  0
  191.5560  176.4120  144.1340 F   0  0  0  0  0  0  0  0  0  0  0  0
  187.3620  178.0050  146.6860 C   0  0  0  0  0  3  0  0  0  0  0  0
  189.7430  177.1420  145.5870 C   0  0  0  0  0  0  0  0  0  0  0  0
  187.5220  177.4100  142.3550 N   0  0  0  0  0  2  0  0  0  0  0  0
  189.6640  177.6040  137.0210 C   0  0  0  0  0  2  0  0  0  0  0  0
  189.8770  177.5510  139.7820 C   0  0  2  0  0  3  0  0  0  0  0  0
  187.8190  178.6190  140.2650 C   0  0  0  0  0  2  0  0  0  0  0  0
  188.5000  178.2190  137.8320 C   0  0  0  0  0  2  0  0  0  0  0  0
  188.4540  178.2360  141.6010 C   0  0  2  0  0  3  0  0  0  0  0  0
  190.2080  176.2740  137.6000 C   0  0  1  0  0  3  0  0  0  0  0  0
  188.4780  177.7030  139.2670 C   0  0  1  0  0  3  0  0  0  0  0  0
  190.5430  176.3550  139.1080 C   0  0  0  0  0  2  0  0  0  0  0  0
  189.7100  177.4230  141.2750 C   0  0  0  0  0  2  0  0  0  0  0  0
  189.2350  175.1300  137.3540 C   0  0  0  0  0  2  0  0  0  0  0  0
  188.8720  175.0490  135.8840 C   0  0  0  0  0  2  0  0  0  0  0  0
  187.5190  174.5390  135.7490 N   0  0  0  0  0  2  0  0  0  0  0  0
  185.8850  173.2180  137.4160 S   0  0  0  0  0  1  0  0  0  0  0  0
  186.8740  174.6940  137.0410 C   0  0  0  0  0  2  0  0  0  0  0  0
  1  2  1  0  0  0  0
  2  5  2  0  0  0  0
  3  1  2  0  0  0  0
  3  4  1  0  0  0  0
  4  6  2  0  0  0  0
  6  5  1  0  0  0  0
  6 10  1  0  0  0  0
  7 14  1  0  0  0  0
  8  7  1  0  0  0  0
  8 12  1  0  0  0  0
  9 17  1  0  0  0  0
  9 11  2  0  0  0  0
 10 16  1  0  0  0  0
 11 12  1  0  0  0  0
 13 10  2  0  0  0  0
 13 17  1  0  0  0  0
 15  9  1  0  0  0  0
 16  7  2  0  0  0  0
 17  8  2  0  0  0  0
 18  4  1  0  0  0  0
 19 24  1  0  0  0  0
 19 22  1  0  0  0  0
 20 26  1  6  0  0  0
 20 27  1  0  0  0  0
 21 23  1  0  0  0  0
 23 18  1  1  0  0  0
 24 28  1  1  0  0  0
 24 26  1  0  0  0  0
 25 22  1  6  0  0  0
 25 20  1  0  0  0  0
 25 21  1  0  0  0  0
 27 23  1  0  0  0  0
 29 28  1  0  0  0  0
 30 29  1  0  0  0  0
 30 32  1  0  0  0  0
 32 31  1  0  0  0  0
M  END
>  <MODEL>
3

>  <REMARK>
 VINA RESULT:      -9.6      2.166      2.819
  Name = 
  7 active torsions:
  status: ('A' for Active; 'I' for Inactive)
    1  A    between atoms: N_3  and  C_14
    2  A    between atoms: N_3  and  C_15
    3  A    between atoms: C_10  and  N_20
    4  A    between atoms: C_10  and  C_24
    5  A    between atoms: C_16  and  C_26
    6  A    between atoms: C_17  and  N_20
    7  A    between atoms: C_19  and  C_24
                            x       y       z     vdW  Elec       q    Type
                         _______ _______ _______ _____ _____    ______ ____

>  <TORSDO>
F 7

$$$$
=
 OpenBabel10272413373D

 32 36  0  0  1  0  0  0  0  0999 V2000
  189.1330  177.6250  148.1870 C   0  0  0  0  0  3  0  0  0  0  0  0
  187.7760  177.8120  148.4420 C   0  0  0  0  0  3  0  0  0  0  0  0
  189.6060  177.6610  146.8760 C   0  0  0  0  0  3  0  0  0  0  0  0
  188.7290  177.8810  145.8010 C   0  0  0  0  0  0  0  0  0  0  0  0
  186.8920  178.0300  147.3850 C   0  0  0  0  0  3  0  0  0  0  0  0
  187.3440  178.0610  146.0540 C   0  0  0  0  0  0  0  0  0  0  0  0
  184.0280  178.6640  144.2460 C   0  0  0  0  0  0  0  0  0  0  0  0
  184.4920  178.7230  142.9310 C   0  0  0  0  0  0  0  0  0  0  0  0
  185.9340  178.6830  141.2820 C   0  0  0  0  0  0  0  0  0  0  0  0
  186.3470  178.2720  144.9700 C   0  0  0  0  0  0  0  0  0  0  0  0
  184.6530  178.9040  140.7930 C   0  0  0  0  0  3  0  0  0  0  0  0
  183.7620  178.9280  141.8170 N   0  0  0  0  0  0  0  0  0  0  0  0
  186.7770  178.3470  143.6260 C   0  0  0  0  0  3  0  0  0  0  0  0
  182.5870  178.8340  144.5760 C   0  0  0  0  0  1  0  0  0  0  0  0
  187.0740  178.5980  140.5540 F   0  0  0  0  0  0  0  0  0  0  0  0
  184.9700  178.4420  145.2650 C   0  0  0  0  0  2  0  0  0  0  0  0
  185.8180  178.5690  142.6410 C   0  0  0  0  0  0  0  0  0  0  0  0
  189.2470  177.9670  144.4680 N   0  0  0  0  0  2  0  0  0  0  0  0
  191.7470  177.0540  139.3690 C   0  0  0  0  0  2  0  0  0  0  0  0
  190.1530  176.3350  141.5180 C   0  0  2  0  0  3  0  0  0  0  0  0
  191.2710  177.6170  143.1660 C   0  0  0  0  0  2  0  0  0  0  0  0
  192.0960  177.6670  140.7450 C   0  0  0  0  0  2  0  0  0  0  0  0
  190.0790  176.9470  143.8470 C   0  0  2  0  0  3  0  0  0  0  0  0
  190.2290  177.0120  139.0610 C   0  0  1  0  0  3  0  0  0  0  0  0
  190.9110  177.6150  141.7040 C   0  0  1  0  0  3  0  0  0  0  0  0
  189.3910  176.3800  140.1960 C   0  0  0  0  0  2  0  0  0  0  0  0
  189.2830  176.2390  142.7460 C   0  0  0  0  0  2  0  0  0  0  0  0
  189.6950  178.4010  138.7450 C   0  0  0  0  0  2  0  0  0  0  0  0
  189.1050  178.4380  137.3480 C   0  0  0  0  0  2  0  0  0  0  0  0
  187.6690  178.6390  137.4350 N   0  0  0  0  0  2  0  0  0  0  0  0
  185.2490  177.4930  137.2830 S   0  0  0  0  0  1  0  0  0  0  0  0
  187.0530  177.3240  137.4080 C   0  0  0  0  0  2  0  0  0  0  0  0
  1  2  1  0  0  0  0
  3  1  2  0  0  0  0
  4  6  2  0  0  0  0
  4  3  1  0  0  0  0
  5  2  2  0  0  0  0
  6  5  1  0  0  0  0
  7 14  1  0  0  0  0
  7 16  1  0  0  0  0
  8  7  2  0  0  0  0
  9 17  2  0  0  0  0
 10 16  1  0  0  0  0
 10  6  1  0  0  0  0
 11  9  1  0  0  0  0
 11 12  2  0  0  0  0
 12  8  1  0  0  0  0
 13 10  2  0  0  0  0
 15  9  1  0  0  0  0
 17  8  1  0  0  0  0
 17 13  1  0  0  0  0
 18  4  1  0  0  0  0
 19 22  1  0  0  0  0
 20 26  1  6  0  0  0
 20 25  1  0  0  0  0
 20 27  1  0  0  0  0
 21 23  1  0  0  0  0
 23 18  1  6  0  0  0
 24 28  1  1  0  0  0
 24 19  1  0  0  0  0
 24 26  1  0  0  0  0
 25 22  1  6  0  0  0
 25 21  1  0  0  0  0
 27 23  1  0  0  0  0
 29 30  1  0  0  0  0
 29 28  1  0  0  0  0
 31 32  1  0  0  0  0
 32 30  1  0  0  0  0
M  END
>  <MODEL>
4

>  <REMARK>
 VINA RESULT:      -9.3      2.761      5.527
  Name = 
  7 active torsions:
  status: ('A' for Active; 'I' for Inactive)
    1  A    between atoms: N_3  and  C_14
    2  A    between atoms: N_3  and  C_15
    3  A    between atoms: C_10  and  N_20
    4  A    between atoms: C_10  and  C_24
    5  A    between atoms: C_16  and  C_26
    6  A    between atoms: C_17  and  N_20
    7  A    between atoms: C_19  and  C_24
                            x       y       z     vdW  Elec       q    Type
                         _______ _______ _______ _____ _____    ______ ____

>  <TORSDO>
F 7

$$$$
=
 OpenBabel10272413373D

 32 36  0  0  1  0  0  0  0  0999 V2000
  183.3130  178.9670  143.9570 C   0  0  0  0  0  3  0  0  0  0  0  0
  183.7100  178.8140  145.2830 C   0  0  0  0  0  3  0  0  0  0  0  0
  184.2030  178.6740  142.9250 C   0  0  0  0  0  3  0  0  0  0  0  0
  185.5050  178.2290  143.2040 C   0  0  0  0  0  0  0  0  0  0  0  0
  185.0010  178.3740  145.5770 C   0  0  0  0  0  3  0  0  0  0  0  0
  185.9200  178.0820  144.5530 C   0  0  0  0  0  0  0  0  0  0  0  0
  189.4490  176.6240  144.3370 C   0  0  0  0  0  0  0  0  0  0  0  0
  189.8770  176.8650  145.6430 C   0  0  0  0  0  0  0  0  0  0  0  0
  189.7740  177.5580  147.7190 C   0  0  0  0  0  0  0  0  0  0  0  0
  187.2890  177.6410  144.9330 C   0  0  0  0  0  0  0  0  0  0  0  0
  191.0170  176.9950  147.4640 C   0  0  0  0  0  3  0  0  0  0  0  0
  191.0780  176.5670  146.1770 N   0  0  0  0  0  0  0  0  0  0  0  0
  187.7640  177.8750  146.2440 C   0  0  0  0  0  3  0  0  0  0  0  0
  190.3310  175.9700  143.3320 C   0  0  0  0  0  1  0  0  0  0  0  0
  189.3540  178.0920  148.8920 F   0  0  0  0  0  0  0  0  0  0  0  0
  188.1470  177.0220  143.9890 C   0  0  0  0  0  3  0  0  0  0  0  0
  189.0590  177.4690  146.5560 C   0  0  1  0  0  3  0  0  0  0  0  0
  186.3850  177.8830  142.1260 N   0  0  0  0  0  2  0  0  0  0  0  0
  188.2200  177.9650  136.6760 C   0  0  0  0  0  2  0  0  0  0  0  0
  188.4960  178.4090  139.3960 C   0  0  2  0  0  3  0  0  0  0  0  0
  186.2070  178.7860  139.8750 C   0  0  0  0  0  2  0  0  0  0  0  0
  186.9330  178.2700  137.4770 C   0  0  0  0  0  2  0  0  0  0  0  0
  186.9620  178.8480  141.2020 C   0  0  2  0  0  3  0  0  0  0  0  0
  189.1980  176.9990  137.3910 C   0  0  1  0  0  3  0  0  0  0  0  0
  187.1180  178.0030  138.9670 C   0  0  1  0  0  3  0  0  0  0  0  0
  189.5170  177.4170  138.8460 C   0  0  0  0  0  2  0  0  0  0  0  0
  188.4140  178.4620  140.9010 C   0  0  0  0  0  2  0  0  0  0  0  0
  188.6700  175.5720  137.3750 C   0  0  0  0  0  2  0  0  0  0  0  0
  188.5490  175.0670  135.9500 C   0  0  0  0  0  2  0  0  0  0  0  0
  187.3060  174.3290  135.8040 N   0  0  0  0  0  2  0  0  0  0  0  0
  185.6000  173.1580  137.5110 S   0  0  0  0  0  1  0  0  0  0  0  0
  186.4840  174.6450  136.9580 C   0  0  0  0  0  2  0  0  0  0  0  0
  1  2  1  0  0  0  0
  2  5  2  0  0  0  0
  3  4  1  0  0  0  0
  3  1  2  0  0  0  0
  4  6  2  0  0  0  0
  6 10  1  0  0  0  0
  6  5  1  0  0  0  0
  7  8  1  0  0  0  0
  8 12  2  0  0  0  0
  8 17  1  0  0  0  0
  9 15  1  0  0  0  0
 10 13  2  0  0  0  0
 11  9  2  0  0  0  0
 12 11  1  0  0  0  0
 14  7  1  0  0  0  0
 16  7  2  0  0  0  0
 16 10  1  0  0  0  0
 17 13  1  6  0  0  0
 17  9  1  0  0  0  0
 18  4  1  0  0  0  0
 19 24  1  0  0  0  0
 19 22  1  0  0  0  0
 20 26  1  1  0  0  0
 20 27  1  0  0  0  0
 21 23  1  0  0  0  0
 23 18  1  1  0  0  0
 24 28  1  1  0  0  0
 24 26  1  0  0  0  0
 25 22  1  6  0  0  0
 25 20  1  0  0  0  0
 25 21  1  0  0  0  0
 27 23  1  0  0  0  0
 29 28  1  0  0  0  0
 30 29  1  0  0  0  0
 30 32  1  0  0  0  0
 32 31  1  0  0  0  0
M  END
>  <MODEL>
5

>  <REMARK>
 VINA RESULT:      -9.3      1.798      1.971
  Name = 
  7 active torsions:
  status: ('A' for Active; 'I' for Inactive)
    1  A    between atoms: N_3  and  C_14
    2  A    between atoms: N_3  and  C_15
    3  A    between atoms: C_10  and  N_20
    4  A    between atoms: C_10  and  C_24
    5  A    between atoms: C_16  and  C_26
    6  A    between atoms: C_17  and  N_20
    7  A    between atoms: C_19  and  C_24
                            x       y       z     vdW  Elec       q    Type
                         _______ _______ _______ _____ _____    ______ ____

>  <TORSDO>
F 7

$$$$
=
 OpenBabel10272413373D

 32 36  0  0  1  0  0  0  0  0999 V2000
  189.1770  177.5210  148.1530 C   0  0  0  0  0  3  0  0  0  0  0  0
  187.8020  177.6690  148.3270 C   0  0  0  0  0  3  0  0  0  0  0  0
  189.7310  177.6150  146.8770 C   0  0  0  0  0  3  0  0  0  0  0  0
  188.9180  177.8530  145.7570 C   0  0  0  0  0  0  0  0  0  0  0  0
  186.9810  177.9050  147.2240 C   0  0  0  0  0  3  0  0  0  0  0  0
  187.5160  177.9930  145.9270 C   0  0  0  0  0  0  0  0  0  0  0  0
  186.1720  178.4240  142.3720 C   0  0  0  0  0  0  0  0  0  0  0  0
  184.8180  178.5970  142.6580 C   0  0  0  0  0  0  0  0  0  0  0  0
  183.0060  178.7710  143.8770 C   0  0  0  0  0  0  0  0  0  0  0  0
  186.5840  178.2210  144.7890 C   0  0  0  0  0  0  0  0  0  0  0  0
  182.6910  178.9000  142.5310 C   0  0  0  0  0  3  0  0  0  0  0  0
  183.8160  178.7920  141.7790 N   0  0  0  0  0  0  0  0  0  0  0  0
  185.2030  178.3920  145.0360 C   0  0  0  0  0  3  0  0  0  0  0  0
  186.6850  178.4360  140.9740 C   0  0  0  0  0  1  0  0  0  0  0  0
  182.1390  178.8240  144.9190 F   0  0  0  0  0  0  0  0  0  0  0  0
  187.0520  178.2300  143.4500 C   0  0  0  0  0  2  0  0  0  0  0  0
  184.3590  178.5800  143.9450 C   0  0  0  0  0  0  0  0  0  0  0  0
  189.5170  177.9990  144.4630 N   0  0  0  0  0  2  0  0  0  0  0  0
  191.8030  177.0550  139.2700 C   0  0  0  0  0  2  0  0  0  0  0  0
  190.2900  176.3540  141.4820 C   0  0  2  0  0  3  0  0  0  0  0  0
  191.4840  177.6290  143.0820 C   0  0  0  0  0  2  0  0  0  0  0  0
  192.2120  177.6680  140.6300 C   0  0  0  0  0  2  0  0  0  0  0  0
  190.3140  176.9700  143.8110 C   0  0  2  0  0  3  0  0  0  0  0  0
  190.2740  177.0260  139.0230 C   0  0  1  0  0  3  0  0  0  0  0  0
  191.0660  177.6280  141.6350 C   0  0  1  0  0  3  0  0  0  0  0  0
  189.4760  176.4030  140.1920 C   0  0  0  0  0  2  0  0  0  0  0  0
  189.4690  176.2670  142.7440 C   0  0  0  0  0  2  0  0  0  0  0  0
  189.7400  178.4190  138.7260 C   0  0  0  0  0  2  0  0  0  0  0  0
  189.0880  178.4570  137.3570 C   0  0  0  0  0  2  0  0  0  0  0  0
  187.6820  178.7940  137.5010 N   0  0  0  0  0  2  0  0  0  0  0  0
  187.7370  176.5440  136.0400 S   0  0  0  0  0  1  0  0  0  0  0  0
  186.9280  177.5680  137.3040 C   0  0  0  0  0  2  0  0  0  0  0  0
  1  2  1  0  0  0  0
  3  1  2  0  0  0  0
  4  6  2  0  0  0  0
  4  3  1  0  0  0  0
  5  2  2  0  0  0  0
  6  5  1  0  0  0  0
  7  8  2  0  0  0  0
  7 16  1  0  0  0  0
  8 17  1  0  0  0  0
  9 17  2  0  0  0  0
  9 15  1  0  0  0  0
 10 13  2  0  0  0  0
 10  6  1  0  0  0  0
 11  9  1  0  0  0  0
 12 11  2  0  0  0  0
 12  8  1  0  0  0  0
 14  7  1  0  0  0  0
 16 10  1  0  0  0  0
 17 13  1  0  0  0  0
 18  4  1  0  0  0  0
 19 22  1  0  0  0  0
 20 26  1  6  0  0  0
 20 25  1  0  0  0  0
 20 27  1  0  0  0  0
 21 23  1  0  0  0  0
 23 18  1  6  0  0  0
 24 28  1  1  0  0  0
 24 19  1  0  0  0  0
 24 26  1  0  0  0  0
 25 22  1  6  0  0  0
 25 21  1  0  0  0  0
 27 23  1  0  0  0  0
 29 30  1  0  0  0  0
 29 28  1  0  0  0  0
 31 32  1  0  0  0  0
 32 30  1  0  0  0  0
M  END
>  <MODEL>
6

>  <REMARK>
 VINA RESULT:      -9.1      2.491      5.275
  Name = 
  7 active torsions:
  status: ('A' for Active; 'I' for Inactive)
    1  A    between atoms: N_3  and  C_14
    2  A    between atoms: N_3  and  C_15
    3  A    between atoms: C_10  and  N_20
    4  A    between atoms: C_10  and  C_24
    5  A    between atoms: C_16  and  C_26
    6  A    between atoms: C_17  and  N_20
    7  A    between atoms: C_19  and  C_24
                            x       y       z     vdW  Elec       q    Type
                         _______ _______ _______ _____ _____    ______ ____

>  <TORSDO>
F 7

$$$$
=
 OpenBabel10272413373D

 32 36  0  0  1  0  0  0  0  0999 V2000
  191.6450  176.5400  144.8680 C   0  0  0  0  0  3  0  0  0  0  0  0
  190.8810  176.9340  145.9640 C   0  0  0  0  0  3  0  0  0  0  0  0
  191.0760  176.5150  143.5960 C   0  0  0  0  0  3  0  0  0  0  0  0
  189.7330  176.8780  143.4020 C   0  0  0  0  0  0  0  0  0  0  0  0
  189.5450  177.2970  145.7880 C   0  0  0  0  0  3  0  0  0  0  0  0
  188.9460  177.2690  144.5160 C   0  0  0  0  0  0  0  0  0  0  0  0
  185.3650  178.2360  145.4450 C   0  0  0  0  0  0  0  0  0  0  0  0
  184.8320  178.3980  144.1660 C   0  0  0  0  0  0  0  0  0  0  0  0
  184.7840  178.4400  141.9760 C   0  0  0  0  0  0  0  0  0  0  0  0
  187.5110  177.6430  144.3990 C   0  0  0  0  0  0  0  0  0  0  0  0
  183.5390  178.7810  142.4880 C   0  0  0  0  0  3  0  0  0  0  0  0
  183.5720  178.7540  143.8450 N   0  0  0  0  0  0  0  0  0  0  0  0
  186.9350  177.8260  143.1210 C   0  0  0  0  0  3  0  0  0  0  0  0
  184.5450  178.4540  146.6680 C   0  0  0  0  0  1  0  0  0  0  0  0
  185.1260  178.3630  140.6660 F   0  0  0  0  0  0  0  0  0  0  0  0
  186.7150  177.8610  145.5520 C   0  0  0  0  0  2  0  0  0  0  0  0
  185.5950  178.1990  143.0510 C   0  0  0  0  0  0  0  0  0  0  0  0
  189.1860  176.8950  142.0770 N   0  0  0  0  0  2  0  0  0  0  0  0
  188.1460  177.5900  136.4630 C   0  0  0  0  0  2  0  0  0  0  0  0
  189.7220  176.8790  138.6280 C   0  0  2  0  0  3  0  0  0  0  0  0
  188.7780  178.3820  140.1970 C   0  0  0  0  0  2  0  0  0  0  0  0
  187.8950  178.3330  137.7960 C   0  0  0  0  0  2  0  0  0  0  0  0
  189.8190  177.5470  140.9400 C   0  0  2  0  0  3  0  0  0  0  0  0
  188.3750  176.0660  136.6210 C   0  0  1  0  0  3  0  0  0  0  0  0
  188.4310  177.5500  138.9890 C   0  0  1  0  0  3  0  0  0  0  0  0
  189.4450  175.7140  137.6820 C   0  0  0  0  0  2  0  0  0  0  0  0
  190.3190  176.4860  139.9550 C   0  0  0  0  0  2  0  0  0  0  0  0
  187.0750  175.3460  136.9500 C   0  0  0  0  0  2  0  0  0  0  0  0
  187.1700  173.8810  136.5730 C   0  0  0  0  0  2  0  0  0  0  0  0
  186.3780  173.0920  137.5000 N   0  0  0  0  0  2  0  0  0  0  0  0
  183.9770  172.0150  136.9750 S   0  0  0  0  0  1  0  0  0  0  0  0
  184.9920  173.4830  137.3170 C   0  0  0  0  0  2  0  0  0  0  0  0
  1  2  1  0  0  0  0
  3  1  2  0  0  0  0
  4  3  1  0  0  0  0
  4  6  2  0  0  0  0
  5  2  2  0  0  0  0
  6  5  1  0  0  0  0
  7 16  1  0  0  0  0
  7 14  1  0  0  0  0
  8  7  2  0  0  0  0
  9 11  1  0  0  0  0
  9 17  2  0  0  0  0
 10  6  1  0  0  0  0
 10 16  1  0  0  0  0
 11 12  2  0  0  0  0
 12  8  1  0  0  0  0
 13 10  2  0  0  0  0
 15  9  1  0  0  0  0
 17 13  1  0  0  0  0
 17  8  1  0  0  0  0
 18  4  1  0  0  0  0
 19 24  1  0  0  0  0
 19 22  1  0  0  0  0
 20 26  1  6  0  0  0
 20 25  1  0  0  0  0
 20 27  1  0  0  0  0
 21 23  1  0  0  0  0
 23 18  1  1  0  0  0
 24 28  1  1  0  0  0
 24 26  1  0  0  0  0
 25 22  1  6  0  0  0
 25 21  1  0  0  0  0
 27 23  1  0  0  0  0
 29 28  1  0  0  0  0
 29 30  1  0  0  0  0
 31 32  1  0  0  0  0
 32 30  1  0  0  0  0
M  END
>  <MODEL>
7

>  <REMARK>
 VINA RESULT:      -9.0      3.024      5.361
  Name = 
  7 active torsions:
  status: ('A' for Active; 'I' for Inactive)
    1  A    between atoms: N_3  and  C_14
    2  A    between atoms: N_3  and  C_15
    3  A    between atoms: C_10  and  N_20
    4  A    between atoms: C_10  and  C_24
    5  A    between atoms: C_16  and  C_26
    6  A    between atoms: C_17  and  N_20
    7  A    between atoms: C_19  and  C_24
                            x       y       z     vdW  Elec       q    Type
                         _______ _______ _______ _____ _____    ______ ____

>  <TORSDO>
F 7

$$$$
=
 OpenBabel10272413373D

 32 36  0  0  1  0  0  0  0  0999 V2000
  188.7710  177.4570  146.5920 C   0  0  0  0  0  3  0  0  0  0  0  0
  187.5450  177.9390  147.0470 C   0  0  0  0  0  3  0  0  0  0  0  0
  188.9690  177.2350  145.2300 C   0  0  0  0  0  3  0  0  0  0  0  0
  187.9440  177.4860  144.3040 C   0  0  0  0  0  0  0  0  0  0  0  0
  186.5160  178.1930  146.1390 C   0  0  0  0  0  3  0  0  0  0  0  0
  186.6900  177.9670  144.7630 C   0  0  0  0  0  0  0  0  0  0  0  0
  183.1530  178.6880  143.4980 C   0  0  0  0  0  0  0  0  0  0  0  0
  183.4140  178.7880  142.1320 C   0  0  0  0  0  0  0  0  0  0  0  0
  184.5910  178.7890  140.2840 C   0  0  0  0  0  0  0  0  0  0  0  0
  185.5450  178.2340  143.8500 C   0  0  0  0  0  0  0  0  0  0  0  0
  183.2560  179.0470  140.0010 C   0  0  0  0  0  3  0  0  0  0  0  0
  182.5300  179.0460  141.1480 N   0  0  0  0  0  0  0  0  0  0  0  0
  185.7700  178.3530  142.4590 C   0  0  0  0  0  3  0  0  0  0  0  0
  181.7810  178.8670  144.0490 C   0  0  0  0  0  1  0  0  0  0  0  0
  185.6070  178.7150  139.3880 F   0  0  0  0  0  0  0  0  0  0  0  0
  184.2330  178.4130  144.3550 C   0  0  0  0  0  2  0  0  0  0  0  0
  184.6780  178.6260  141.6390 C   0  0  0  0  0  0  0  0  0  0  0  0
  188.1890  177.3010  142.9040 N   0  0  0  0  0  2  0  0  0  0  0  0
  189.7310  178.0080  137.4090 C   0  0  0  0  0  2  0  0  0  0  0  0
  190.2030  177.3290  140.0520 C   0  0  2  0  0  3  0  0  0  0  0  0
  188.6140  178.7900  141.0280 C   0  0  0  0  0  2  0  0  0  0  0  0
  188.8910  178.7330  138.4860 C   0  0  0  0  0  2  0  0  0  0  0  0
  189.2410  177.9820  142.1630 C   0  0  2  0  0  3  0  0  0  0  0  0
  189.9140  176.4910  137.6620 C   0  0  1  0  0  3  0  0  0  0  0  0
  188.8650  177.9570  139.7980 C   0  0  1  0  0  3  0  0  0  0  0  0
  190.4110  176.1640  139.0900 C   0  0  0  0  0  2  0  0  0  0  0  0
  190.1600  176.9440  141.5100 C   0  0  0  0  0  2  0  0  0  0  0  0
  188.6270  175.7290  137.3840 C   0  0  0  0  0  2  0  0  0  0  0  0
  188.1680  175.9650  135.9570 C   0  0  0  0  0  2  0  0  0  0  0  0
  186.7240  175.8290  135.8860 N   0  0  0  0  0  2  0  0  0  0  0  0
  184.4110  176.6570  136.9630 S   0  0  0  0  0  1  0  0  0  0  0  0
  186.1530  176.9790  136.5640 C   0  0  0  0  0  2  0  0  0  0  0  0
  1  2  1  0  0  0  0
  3  1  2  0  0  0  0
  4  6  2  0  0  0  0
  4  3  1  0  0  0  0
  5  2  2  0  0  0  0
  6  5  1  0  0  0  0
  7 14  1  0  0  0  0
  7 16  1  0  0  0  0
  8  7  2  0  0  0  0
  9 17  2  0  0  0  0
 10 16  1  0  0  0  0
 10  6  1  0  0  0  0
 11  9  1  0  0  0  0
 11 12  2  0  0  0  0
 12  8  1  0  0  0  0
 13 10  2  0  0  0  0
 15  9  1  0  0  0  0
 17  8  1  0  0  0  0
 17 13  1  0  0  0  0
 18  4  1  0  0  0  0
 19 24  1  0  0  0  0
 19 22  1  0  0  0  0
 20 26  1  6  0  0  0
 20 27  1  0  0  0  0
 21 23  1  0  0  0  0
 23 18  1  6  0  0  0
 24 28  1  1  0  0  0
 24 26  1  0  0  0  0
 25 22  1  6  0  0  0
 25 20  1  0  0  0  0
 25 21  1  0  0  0  0
 27 23  1  0  0  0  0
 29 28  1  0  0  0  0
 30 29  1  0  0  0  0
 30 32  1  0  0  0  0
 32 31  1  0  0  0  0
M  END
>  <MODEL>
8

>  <REMARK>
 VINA RESULT:      -9.0      2.966      5.516
  Name = 
  7 active torsions:
  status: ('A' for Active; 'I' for Inactive)
    1  A    between atoms: N_3  and  C_14
    2  A    between atoms: N_3  and  C_15
    3  A    between atoms: C_10  and  N_20
    4  A    between atoms: C_10  and  C_24
    5  A    between atoms: C_16  and  C_26
    6  A    between atoms: C_17  and  N_20
    7  A    between atoms: C_19  and  C_24
                            x       y       z     vdW  Elec       q    Type
                         _______ _______ _______ _____ _____    ______ ____

>  <TORSDO>
F 7

$$$$
=
 OpenBabel10272413373D

 32 36  0  0  1  0  0  0  0  0999 V2000
  185.1940  178.5800  146.7580 C   0  0  0  0  0  3  0  0  0  0  0  0
  186.5220  178.3650  147.1200 C   0  0  0  0  0  3  0  0  0  0  0  0
  184.8040  178.4340  145.4270 C   0  0  0  0  0  3  0  0  0  0  0  0
  185.7360  178.0750  144.4400 C   0  0  0  0  0  0  0  0  0  0  0  0
  187.4600  178.0090  146.1510 C   0  0  0  0  0  3  0  0  0  0  0  0
  187.0920  177.8660  144.8020 C   0  0  0  0  0  0  0  0  0  0  0  0
  190.3170  176.4840  143.2790 C   0  0  0  0  0  0  0  0  0  0  0  0
  190.0900  176.7970  141.9380 C   0  0  0  0  0  0  0  0  0  0  0  0
  189.0340  177.5830  140.1870 C   0  0  0  0  0  0  0  0  0  0  0  0
  188.1450  177.5090  143.8120 C   0  0  0  0  0  0  0  0  0  0  0  0
  190.2470  177.0270  139.8040 C   0  0  0  0  0  3  0  0  0  0  0  0
  190.8990  176.5410  140.8920 N   0  0  0  0  0  0  0  0  0  0  0  0
  187.9490  177.8000  142.4430 C   0  0  0  0  0  3  0  0  0  0  0  0
  191.5570  175.7890  143.7220 C   0  0  0  0  0  1  0  0  0  0  0  0
  188.1170  178.1610  139.3720 F   0  0  0  0  0  0  0  0  0  0  0  0
  189.3300  176.8420  144.2130 C   0  0  0  0  0  2  0  0  0  0  0  0
  188.9460  177.4310  141.5430 C   0  0  0  0  0  0  0  0  0  0  0  0
  185.3000  177.8790  143.0890 N   0  0  0  0  0  2  0  0  0  0  0  0
  182.3570  178.0770  138.1510 C   0  0  0  0  0  2  0  0  0  0  0  0
  184.2950  178.9570  139.9240 C   0  0  2  0  0  3  0  0  0  0  0  0
  183.2070  178.2870  141.9190 C   0  0  0  0  0  2  0  0  0  0  0  0
  182.0920  177.8530  139.6580 C   0  0  0  0  0  2  0  0  0  0  0  0
  184.5630  178.8690  142.3170 C   0  0  2  0  0  3  0  0  0  0  0  0
  183.8140  177.7810  137.7130 C   0  0  1  0  0  3  0  0  0  0  0  0
  183.3800  177.9040  140.4720 C   0  0  1  0  0  3  0  0  0  0  0  0
  184.8730  178.4890  138.5910 C   0  0  0  0  0  2  0  0  0  0  0  0
  185.3140  179.1660  141.0150 C   0  0  0  0  0  2  0  0  0  0  0  0
  184.0870  176.2850  137.6920 C   0  0  0  0  0  2  0  0  0  0  0  0
  185.0340  175.9340  136.5590 C   0  0  0  0  0  2  0  0  0  0  0  0
  186.0870  175.0700  137.0610 N   0  0  0  0  0  2  0  0  0  0  0  0
  187.1720  177.1840  135.8150 S   0  0  0  0  0  1  0  0  0  0  0  0
  187.3210  175.8350  137.0230 C   0  0  0  0  0  2  0  0  0  0  0  0
  1  2  1  0  0  0  0
  3  1  2  0  0  0  0
  4  6  2  0  0  0  0
  4  3  1  0  0  0  0
  5  2  2  0  0  0  0
  6  5  1  0  0  0  0
  7 14  1  0  0  0  0
  7 16  1  0  0  0  0
  8  7  2  0  0  0  0
  9 17  2  0  0  0  0
 10 16  1  0  0  0  0
 10  6  1  0  0  0  0
 11  9  1  0  0  0  0
 11 12  2  0  0  0  0
 12  8  1  0  0  0  0
 13 10  2  0  0  0  0
 15  9  1  0  0  0  0
 17  8  1  0  0  0  0
 17 13  1  0  0  0  0
 18  4  1  0  0  0  0
 19 22  1  0  0  0  0
 20 26  1  6  0  0  0
 20 25  1  0  0  0  0
 20 27  1  0  0  0  0
 21 23  1  0  0  0  0
 23 18  1  1  0  0  0
 24 28  1  1  0  0  0
 24 19  1  0  0  0  0
 24 26  1  0  0  0  0
 25 22  1  6  0  0  0
 25 21  1  0  0  0  0
 27 23  1  0  0  0  0
 29 30  1  0  0  0  0
 29 28  1  0  0  0  0
 31 32  1  0  0  0  0
 32 30  1  0  0  0  0
M  END
>  <MODEL>
9

>  <REMARK>
 VINA RESULT:      -8.9      2.956      4.608
  Name = 
  7 active torsions:
  status: ('A' for Active; 'I' for Inactive)
    1  A    between atoms: N_3  and  C_14
    2  A    between atoms: N_3  and  C_15
    3  A    between atoms: C_10  and  N_20
    4  A    between atoms: C_10  and  C_24
    5  A    between atoms: C_16  and  C_26
    6  A    between atoms: C_17  and  N_20
    7  A    between atoms: C_19  and  C_24
                            x       y       z     vdW  Elec       q    Type
                         _______ _______ _______ _____ _____    ______ ____

>  <TORSDO>
F 7

$$$$
