=
 OpenBabel10272401033D

 27 31  0  0  1  0  0  0  0  0999 V2000
  188.2030  176.1350  143.4940 C   0  0  0  0  0  2  0  0  0  0  0  0
  186.6360  177.7670  144.6090 C   0  0  1  0  0  3  0  0  0  0  0  0
  186.8220  178.4400  142.2850 O   0  0  0  0  0  0  0  0  0  0  0  0
  182.5430  178.9390  144.3810 C   0  0  0  0  0  3  0  0  0  0  0  0
  180.5600  179.7980  143.1310 C   0  0  0  0  0  1  0  0  0  0  0  0
  185.6610  177.2030  145.6350 C   0  0  0  0  0  2  0  0  0  0  0  0
  183.9890  178.6740  142.0040 C   0  0  0  0  0  3  0  0  0  0  0  0
  188.9400  178.1590  139.5300 C   0  0  0  0  0  3  0  0  0  0  0  0
  182.6750  179.1490  141.9750 C   0  0  0  0  0  3  0  0  0  0  0  0
  189.7620  177.1170  139.4280 C   0  0  0  0  0  3  0  0  0  0  0  0
  184.5990  178.3440  143.2220 C   0  0  0  0  0  0  0  0  0  0  0  0
  187.8900  177.0050  144.6260 N   0  0  0  0  0  0  0  0  0  0  0  0
  181.9550  179.2860  143.1620 C   0  0  0  0  0  0  0  0  0  0  0  0
  183.8530  178.4510  144.4200 C   0  0  0  0  0  0  0  0  0  0  0  0
  188.7430  176.9340  142.3470 C   0  0  0  0  0  0  0  0  0  0  0  0
  185.9880  177.7530  143.2160 C   0  0  2  0  0  3  0  0  0  0  0  0
  188.7360  178.8850  140.8150 C   0  0  0  0  0  2  0  0  0  0  0  0
  184.4630  178.1380  145.7570 C   0  0  0  0  0  2  0  0  0  0  0  0
  190.4830  176.5170  140.5650 C   0  0  0  0  0  3  0  0  0  0  0  0
  190.0440  176.4500  141.8270 C   0  0  0  0  0  3  0  0  0  0  0  0
  188.0920  178.0170  141.8460 C   0  0  0  0  0  0  0  0  0  0  0  0
  190.7740  177.6480  147.6880 C   0  0  0  0  0  3  0  0  0  0  0  0
  188.8690  177.2250  145.6630 C   0  0  0  0  0  0  0  0  0  0  0  0
  190.2230  176.9170  145.4470 C   0  0  0  0  0  3  0  0  0  0  0  0
  191.1700  177.1280  146.4530 C   0  0  0  0  0  3  0  0  0  0  0  0
  189.4310  177.9580  147.9160 C   0  0  0  0  0  3  0  0  0  0  0  0
  188.4840  177.7470  146.9090 C   0  0  0  0  0  3  0  0  0  0  0  0
  1 12  1  0  0  0  0
  2 12  1  0  0  0  0
  2  6  1  1  0  0  0
  4 14  1  0  0  0  0
  5 13  1  0  0  0  0
  6 18  1  0  0  0  0
  7 11  1  0  0  0  0
  8 17  1  0  0  0  0
  9  7  2  0  0  0  0
  9 13  1  0  0  0  0
 10  8  2  0  0  0  0
 10 19  1  0  0  0  0
 11 14  2  0  0  0  0
 12 23  1  0  0  0  0
 13  4  2  0  0  0  0
 14 18  1  0  0  0  0
 15  1  1  0  0  0  0
 16  3  1  6  0  0  0
 16 11  1  0  0  0  0
 16  2  1  0  0  0  0
 17 21  1  0  0  0  0
 19 20  2  0  0  0  0
 20 15  1  0  0  0  0
 21  3  1  0  0  0  0
 21 15  2  0  0  0  0
 22 26  1  0  0  0  0
 23 27  1  0  0  0  0
 24 23  2  0  0  0  0
 24 25  1  0  0  0  0
 25 22  2  0  0  0  0
 27 26  2  0  0  0  0
M  END
>  <MODEL>
1

>  <REMARK>
 VINA RESULT:      -9.7      0.000      0.000
  Name = 
  1 active torsions:
  status: ('A' for Active; 'I' for Inactive)
    1  A    between atoms: C_9  and  N_15
                            x       y       z     vdW  Elec       q    Type
                         _______ _______ _______ _____ _____    ______ ____

>  <TORSDO>
F 1

$$$$
=
 OpenBabel10272401033D

 27 31  0  0  1  0  0  0  0  0999 V2000
  188.4950  179.1440  141.4550 C   0  0  0  0  0  2  0  0  0  0  0  0
  186.2160  178.2000  140.9250 C   0  0  1  0  0  3  0  0  0  0  0  0
  186.6710  177.6850  143.2510 O   0  0  0  0  0  0  0  0  0  0  0  0
  182.1570  178.7910  142.0890 C   0  0  0  0  0  3  0  0  0  0  0  0
  180.3470  178.8980  143.8050 C   0  0  0  0  0  1  0  0  0  0  0  0
  185.3140  179.0290  140.0190 C   0  0  0  0  0  2  0  0  0  0  0  0
  184.1070  178.6300  144.0840 C   0  0  0  0  0  3  0  0  0  0  0  0
  189.3180  177.2970  145.4870 C   0  0  0  0  0  3  0  0  0  0  0  0
  182.7570  178.7260  144.4320 C   0  0  0  0  0  3  0  0  0  0  0  0
  190.4710  177.9250  145.2670 C   0  0  0  0  0  3  0  0  0  0  0  0
  184.4950  178.5950  142.7380 C   0  0  0  0  0  0  0  0  0  0  0  0
  187.6230  178.3900  140.5550 N   0  0  0  0  0  0  0  0  0  0  0  0
  181.7830  178.8020  143.4350 C   0  0  0  0  0  0  0  0  0  0  0  0
  183.5070  178.7080  141.7310 C   0  0  0  0  0  0  0  0  0  0  0  0
  188.9460  178.2830  142.5950 C   0  0  0  0  0  0  0  0  0  0  0  0
  185.9640  178.5770  142.3930 C   0  0  2  0  0  3  0  0  0  0  0  0
  188.5630  176.6200  144.3960 C   0  0  0  0  0  2  0  0  0  0  0  0
  183.8600  178.6480  140.2720 C   0  0  0  0  0  2  0  0  0  0  0  0
  191.0790  178.0980  143.9350 C   0  0  0  0  0  3  0  0  0  0  0  0
  190.4150  178.2420  142.7810 C   0  0  0  0  0  3  0  0  0  0  0  0
  188.0710  177.5940  143.3750 C   0  0  0  0  0  0  0  0  0  0  0  0
  189.2570  176.4060  137.1640 C   0  0  0  0  0  3  0  0  0  0  0  0
  188.1770  177.7190  139.4040 C   0  0  0  0  0  0  0  0  0  0  0  0
  187.4610  177.6570  138.1960 C   0  0  0  0  0  3  0  0  0  0  0  0
  187.9980  177.0050  137.0830 C   0  0  0  0  0  3  0  0  0  0  0  0
  189.9800  176.4600  138.3590 C   0  0  0  0  0  3  0  0  0  0  0  0
  189.4430  177.1130  139.4720 C   0  0  0  0  0  3  0  0  0  0  0  0
  1 15  1  0  0  0  0
  2  6  1  6  0  0  0
  2 16  1  0  0  0  0
  3 21  1  0  0  0  0
  4 13  1  0  0  0  0
  6 18  1  0  0  0  0
  7  9  1  0  0  0  0
 10  8  2  0  0  0  0
 11  7  2  0  0  0  0
 12  2  1  0  0  0  0
 12  1  1  0  0  0  0
 13  5  1  0  0  0  0
 13  9  2  0  0  0  0
 14  4  2  0  0  0  0
 14 11  1  0  0  0  0
 15 20  1  0  0  0  0
 15 21  2  0  0  0  0
 16 11  1  1  0  0  0
 16  3  1  0  0  0  0
 17  8  1  0  0  0  0
 18 14  1  0  0  0  0
 19 10  1  0  0  0  0
 20 19  2  0  0  0  0
 21 17  1  0  0  0  0
 22 26  1  0  0  0  0
 23 27  1  0  0  0  0
 23 12  1  0  0  0  0
 24 23  2  0  0  0  0
 25 22  2  0  0  0  0
 25 24  1  0  0  0  0
 26 27  2  0  0  0  0
M  END
>  <MODEL>
2

>  <REMARK>
 VINA RESULT:      -9.0      1.650      5.149
  Name = 
  1 active torsions:
  status: ('A' for Active; 'I' for Inactive)
    1  A    between atoms: C_9  and  N_15
                            x       y       z     vdW  Elec       q    Type
                         _______ _______ _______ _____ _____    ______ ____

>  <TORSDO>
F 1

$$$$
=
 OpenBabel10272401033D

 27 31  0  0  1  0  0  0  0  0999 V2000
  189.5820  178.5450  144.5030 C   0  0  0  0  0  2  0  0  0  0  0  0
  190.2100  177.2160  142.4520 C   0  0  1  0  0  3  0  0  0  0  0  0
  187.8000  177.4900  142.4070 O   0  0  0  0  0  0  0  0  0  0  0  0
  190.1070  177.6370  138.2110 C   0  0  0  0  0  3  0  0  0  0  0  0
  188.9020  178.0390  136.0620 C   0  0  0  0  0  1  0  0  0  0  0  0
  191.4910  177.6160  141.7310 C   0  0  0  0  0  2  0  0  0  0  0  0
  187.8290  178.3260  139.6750 C   0  0  0  0  0  3  0  0  0  0  0  0
  185.0900  178.1220  144.5080 C   0  0  0  0  0  3  0  0  0  0  0  0
  187.7990  178.3590  138.2790 C   0  0  0  0  0  3  0  0  0  0  0  0
  185.2740  178.7880  145.6450 C   0  0  0  0  0  3  0  0  0  0  0  0
  188.9900  177.9320  140.3530 C   0  0  0  0  0  0  0  0  0  0  0  0
  190.3420  177.4550  143.8940 N   0  0  0  0  0  0  0  0  0  0  0  0
  188.9360  178.0100  137.5480 C   0  0  0  0  0  0  0  0  0  0  0  0
  190.1510  177.6130  139.6090 C   0  0  0  0  0  0  0  0  0  0  0  0
  188.1600  178.1320  144.7350 C   0  0  0  0  0  0  0  0  0  0  0  0
  189.0200  177.9870  141.8610 C   0  0  2  0  0  3  0  0  0  0  0  0
  186.0300  177.0600  144.0510 C   0  0  0  0  0  2  0  0  0  0  0  0
  191.4150  177.1570  140.2800 C   0  0  0  0  0  2  0  0  0  0  0  0
  186.4460  178.6220  146.5240 C   0  0  0  0  0  3  0  0  0  0  0  0
  187.6900  178.3270  146.1260 C   0  0  0  0  0  3  0  0  0  0  0  0
  187.3850  177.6110  143.7470 C   0  0  0  0  0  0  0  0  0  0  0  0
  192.5280  174.7520  146.3490 C   0  0  0  0  0  3  0  0  0  0  0  0
  191.0850  176.5380  144.7250 C   0  0  0  0  0  0  0  0  0  0  0  0
  191.6390  175.3660  144.1830 C   0  0  0  0  0  3  0  0  0  0  0  0
  192.3570  174.4790  144.9890 C   0  0  0  0  0  3  0  0  0  0  0  0
  191.9820  175.9130  146.9010 C   0  0  0  0  0  3  0  0  0  0  0  0
  191.2650  176.8010  146.0940 C   0  0  0  0  0  3  0  0  0  0  0  0
  1 15  1  0  0  0  0
  2  6  1  6  0  0  0
  2 12  1  0  0  0  0
  3 21  1  0  0  0  0
  4 14  1  0  0  0  0
  5 13  1  0  0  0  0
  7 11  1  0  0  0  0
  8 10  2  0  0  0  0
  9  7  2  0  0  0  0
 10 19  1  0  0  0  0
 12  1  1  0  0  0  0
 12 23  1  0  0  0  0
 13  4  2  0  0  0  0
 13  9  1  0  0  0  0
 14 18  1  0  0  0  0
 14 11  2  0  0  0  0
 15 20  1  0  0  0  0
 16 11  1  6  0  0  0
 16  3  1  0  0  0  0
 16  2  1  0  0  0  0
 17  8  1  0  0  0  0
 18  6  1  0  0  0  0
 20 19  2  0  0  0  0
 21 17  1  0  0  0  0
 21 15  2  0  0  0  0
 22 26  1  0  0  0  0
 23 27  1  0  0  0  0
 24 23  2  0  0  0  0
 24 25  1  0  0  0  0
 25 22  2  0  0  0  0
 27 26  2  0  0  0  0
M  END
>  <MODEL>
3

>  <REMARK>
 VINA RESULT:      -8.9      2.017      5.784
  Name = 
  1 active torsions:
  status: ('A' for Active; 'I' for Inactive)
    1  A    between atoms: C_9  and  N_15
                            x       y       z     vdW  Elec       q    Type
                         _______ _______ _______ _____ _____    ______ ____

>  <TORSDO>
F 1

$$$$
=
 OpenBabel10272401033D

 27 31  0  0  1  0  0  0  0  0999 V2000
  187.1010  179.3630  140.8560 C   0  0  0  0  0  2  0  0  0  0  0  0
  185.9950  178.3070  142.8630 C   0  0  1  0  0  3  0  0  0  0  0  0
  188.2110  177.3370  142.6850 O   0  0  0  0  0  0  0  0  0  0  0  0
  186.5160  178.1500  147.0910 C   0  0  0  0  0  3  0  0  0  0  0  0
  187.8690  177.6570  149.1310 C   0  0  0  0  0  1  0  0  0  0  0  0
  185.1310  179.2100  143.7350 C   0  0  0  0  0  2  0  0  0  0  0  0
  188.7500  177.7680  145.4570 C   0  0  0  0  0  3  0  0  0  0  0  0
  190.7550  176.7620  140.3700 C   0  0  0  0  0  3  0  0  0  0  0  0
  188.8650  177.6280  146.8420 C   0  0  0  0  0  3  0  0  0  0  0  0
  190.8750  177.5520  139.3060 C   0  0  0  0  0  3  0  0  0  0  0  0
  187.5160  178.0830  144.8730 C   0  0  0  0  0  0  0  0  0  0  0  0
  185.9270  178.7370  141.4610 N   0  0  0  0  0  0  0  0  0  0  0  0
  187.7480  177.8140  147.6580 C   0  0  0  0  0  0  0  0  0  0  0  0
  186.3940  178.3060  145.7070 C   0  0  0  0  0  0  0  0  0  0  0  0
  188.1050  178.3250  140.4540 C   0  0  0  0  0  0  0  0  0  0  0  0
  187.4400  178.3120  143.3830 C   0  0  2  0  0  3  0  0  0  0  0  0
  189.4320  176.2660  140.8450 C   0  0  0  0  0  2  0  0  0  0  0  0
  185.0400  178.6170  145.1360 C   0  0  0  0  0  2  0  0  0  0  0  0
  189.7360  178.0900  138.5410 C   0  0  0  0  0  3  0  0  0  0  0  0
  188.5360  178.4120  139.0400 C   0  0  0  0  0  3  0  0  0  0  0  0
  188.5600  177.3820  141.3210 C   0  0  0  0  0  0  0  0  0  0  0  0
  182.5500  177.7720  139.0580 C   0  0  0  0  0  3  0  0  0  0  0  0
  184.7800  178.4110  140.6480 C   0  0  0  0  0  0  0  0  0  0  0  0
  183.6800  177.7310  141.1980 C   0  0  0  0  0  3  0  0  0  0  0  0
  182.5720  177.4150  140.4080 C   0  0  0  0  0  3  0  0  0  0  0  0
  183.6370  178.4480  138.4980 C   0  0  0  0  0  3  0  0  0  0  0  0
  184.7450  178.7660  139.2890 C   0  0  0  0  0  3  0  0  0  0  0  0
  1 12  1  0  0  0  0
  2 16  1  0  0  0  0
  2  6  1  1  0  0  0
  4 13  1  0  0  0  0
  6 18  1  0  0  0  0
  7  9  1  0  0  0  0
  8 17  1  0  0  0  0
  9 13  2  0  0  0  0
 10  8  2  0  0  0  0
 11  7  2  0  0  0  0
 11 14  1  0  0  0  0
 12  2  1  0  0  0  0
 13  5  1  0  0  0  0
 14  4  2  0  0  0  0
 15  1  1  0  0  0  0
 15 21  2  0  0  0  0
 16  3  1  6  0  0  0
 16 11  1  0  0  0  0
 17 21  1  0  0  0  0
 18 14  1  0  0  0  0
 19 20  2  0  0  0  0
 19 10  1  0  0  0  0
 20 15  1  0  0  0  0
 21  3  1  0  0  0  0
 22 25  1  0  0  0  0
 23 24  1  0  0  0  0
 23 12  1  0  0  0  0
 25 24  2  0  0  0  0
 26 22  2  0  0  0  0
 26 27  1  0  0  0  0
 27 23  2  0  0  0  0
M  END
>  <MODEL>
4

>  <REMARK>
 VINA RESULT:      -8.2      1.855      5.908
  Name = 
  1 active torsions:
  status: ('A' for Active; 'I' for Inactive)
    1  A    between atoms: C_9  and  N_15
                            x       y       z     vdW  Elec       q    Type
                         _______ _______ _______ _____ _____    ______ ____

>  <TORSDO>
F 1

$$$$
=
 OpenBabel10272401033D

 27 31  0  0  1  0  0  0  0  0999 V2000
  189.4190  177.9700  137.5920 C   0  0  0  0  0  2  0  0  0  0  0  0
  188.4670  177.3220  139.8370 C   0  0  1  0  0  3  0  0  0  0  0  0
  190.5550  176.1150  139.5780 O   0  0  0  0  0  0  0  0  0  0  0  0
  189.4610  177.7010  143.9650 C   0  0  0  0  0  3  0  0  0  0  0  0
  190.9950  177.3620  145.9050 C   0  0  0  0  0  1  0  0  0  0  0  0
  187.7920  178.4210  140.6480 C   0  0  0  0  0  2  0  0  0  0  0  0
  191.4490  176.8700  142.1850 C   0  0  0  0  0  3  0  0  0  0  0  0
  192.7520  174.9660  137.1270 C   0  0  0  0  0  3  0  0  0  0  0  0
  191.7110  176.9120  143.5560 C   0  0  0  0  0  3  0  0  0  0  0  0
  192.8150  175.5840  135.9510 C   0  0  0  0  0  3  0  0  0  0  0  0
  190.1870  177.2250  141.6910 C   0  0  0  0  0  0  0  0  0  0  0  0
  188.2730  177.5580  138.4010 N   0  0  0  0  0  0  0  0  0  0  0  0
  190.7170  177.3240  144.4460 C   0  0  0  0  0  0  0  0  0  0  0  0
  189.1930  177.6750  142.5920 C   0  0  0  0  0  0  0  0  0  0  0  0
  190.2750  176.7890  137.2490 C   0  0  0  0  0  0  0  0  0  0  0  0
  189.9580  177.2510  140.1990 C   0  0  2  0  0  3  0  0  0  0  0  0
  191.4560  174.6800  137.8040 C   0  0  0  0  0  2  0  0  0  0  0  0
  187.8130  178.0410  142.1240 C   0  0  0  0  0  2  0  0  0  0  0  0
  191.6460  176.1240  135.2340 C   0  0  0  0  0  3  0  0  0  0  0  0
  190.5450  176.6340  135.8000 C   0  0  0  0  0  3  0  0  0  0  0  0
  190.7450  175.9340  138.1950 C   0  0  0  0  0  0  0  0  0  0  0  0
  184.5650  176.6180  136.5370 C   0  0  0  0  0  3  0  0  0  0  0  0
  187.0160  177.2410  137.7680 C   0  0  0  0  0  0  0  0  0  0  0  0
  185.9160  178.1090  137.8830 C   0  0  0  0  0  3  0  0  0  0  0  0
  184.6990  177.8000  137.2700 C   0  0  0  0  0  3  0  0  0  0  0  0
  185.6500  175.7470  136.4150 C   0  0  0  0  0  3  0  0  0  0  0  0
  186.8680  176.0570  137.0260 C   0  0  0  0  0  3  0  0  0  0  0  0
  1 12  1  0  0  0  0
  2 16  1  0  0  0  0
  2  6  1  1  0  0  0
  4 13  1  0  0  0  0
  6 18  1  0  0  0  0
  7  9  1  0  0  0  0
  8 17  1  0  0  0  0
  9 13  2  0  0  0  0
 10  8  2  0  0  0  0
 11  7  2  0  0  0  0
 11 14  1  0  0  0  0
 12  2  1  0  0  0  0
 13  5  1  0  0  0  0
 14  4  2  0  0  0  0
 15  1  1  0  0  0  0
 15 21  2  0  0  0  0
 16  3  1  6  0  0  0
 16 11  1  0  0  0  0
 17 21  1  0  0  0  0
 18 14  1  0  0  0  0
 19 20  2  0  0  0  0
 19 10  1  0  0  0  0
 20 15  1  0  0  0  0
 21  3  1  0  0  0  0
 22 25  1  0  0  0  0
 23 24  1  0  0  0  0
 23 12  1  0  0  0  0
 25 24  2  0  0  0  0
 26 22  2  0  0  0  0
 26 27  1  0  0  0  0
 27 23  2  0  0  0  0
M  END
>  <MODEL>
5

>  <REMARK>
 VINA RESULT:      -8.1      3.619      7.645
  Name = 
  1 active torsions:
  status: ('A' for Active; 'I' for Inactive)
    1  A    between atoms: C_9  and  N_15
                            x       y       z     vdW  Elec       q    Type
                         _______ _______ _______ _____ _____    ______ ____

>  <TORSDO>
F 1

$$$$
=
 OpenBabel10272401033D

 27 31  0  0  1  0  0  0  0  0999 V2000
  190.6470  178.0570  140.4460 C   0  0  0  0  0  2  0  0  0  0  0  0
  188.6590  177.4020  139.0370 C   0  0  1  0  0  3  0  0  0  0  0  0
  187.9520  177.2870  141.3550 O   0  0  0  0  0  0  0  0  0  0  0  0
  184.7460  178.8480  138.1550 C   0  0  0  0  0  3  0  0  0  0  0  0
  182.4570  179.5750  138.8350 C   0  0  0  0  0  1  0  0  0  0  0  0
  188.4450  178.1710  137.7390 C   0  0  0  0  0  2  0  0  0  0  0  0
  185.5700  178.7720  140.8240 C   0  0  0  0  0  3  0  0  0  0  0  0
  189.2310  176.9270  144.5780 C   0  0  0  0  0  3  0  0  0  0  0  0
  184.2630  179.1480  140.5060 C   0  0  0  0  0  3  0  0  0  0  0  0
  190.4780  177.3090  144.8430 C   0  0  0  0  0  3  0  0  0  0  0  0
  186.4730  178.4140  139.8140 C   0  0  0  0  0  0  0  0  0  0  0  0
  190.0920  177.2900  139.3310 N   0  0  0  0  0  0  0  0  0  0  0  0
  183.8500  179.1820  139.1730 C   0  0  0  0  0  0  0  0  0  0  0  0
  186.0610  178.4830  138.4620 C   0  0  0  0  0  0  0  0  0  0  0  0
  190.3600  177.3750  141.7500 C   0  0  0  0  0  0  0  0  0  0  0  0
  187.9020  178.0940  140.1810 C   0  0  2  0  0  3  0  0  0  0  0  0
  188.8780  176.1790  143.3390 C   0  0  0  0  0  2  0  0  0  0  0  0
  186.9770  178.0830  137.3400 C   0  0  0  0  0  2  0  0  0  0  0  0
  191.6160  177.1190  143.9250 C   0  0  0  0  0  3  0  0  0  0  0  0
  191.5580  177.1380  142.5880 C   0  0  0  0  0  3  0  0  0  0  0  0
  189.1040  177.0000  142.1110 C   0  0  0  0  0  0  0  0  0  0  0  0
  192.5130  174.4500  137.2870 C   0  0  0  0  0  3  0  0  0  0  0  0
  190.9120  176.3280  138.6360 C   0  0  0  0  0  0  0  0  0  0  0  0
  190.3320  175.2110  138.0100 C   0  0  0  0  0  3  0  0  0  0  0  0
  191.1280  174.2790  137.3380 C   0  0  0  0  0  3  0  0  0  0  0  0
  193.1030  175.5550  137.9060 C   0  0  0  0  0  3  0  0  0  0  0  0
  192.3060  176.4880  138.5760 C   0  0  0  0  0  3  0  0  0  0  0  0
  1 15  1  0  0  0  0
  2  6  1  6  0  0  0
  2 12  1  0  0  0  0
  2 16  1  0  0  0  0
  3 21  1  0  0  0  0
  4 14  2  0  0  0  0
  4 13  1  0  0  0  0
  5 13  1  0  0  0  0
  8 10  2  0  0  0  0
  9  7  1  0  0  0  0
 11  7  2  0  0  0  0
 12  1  1  0  0  0  0
 13  9  2  0  0  0  0
 14 11  1  0  0  0  0
 15 21  2  0  0  0  0
 15 20  1  0  0  0  0
 16 11  1  6  0  0  0
 16  3  1  0  0  0  0
 17  8  1  0  0  0  0
 18  6  1  0  0  0  0
 18 14  1  0  0  0  0
 19 10  1  0  0  0  0
 20 19  2  0  0  0  0
 21 17  1  0  0  0  0
 22 25  2  0  0  0  0
 22 26  1  0  0  0  0
 23 12  1  0  0  0  0
 24 23  2  0  0  0  0
 25 24  1  0  0  0  0
 26 27  2  0  0  0  0
 27 23  1  0  0  0  0
M  END
>  <MODEL>
6

>  <REMARK>
 VINA RESULT:      -8.0      2.808      6.158
  Name = 
  1 active torsions:
  status: ('A' for Active; 'I' for Inactive)
    1  A    between atoms: C_9  and  N_15
                            x       y       z     vdW  Elec       q    Type
                         _______ _______ _______ _____ _____    ______ ____

>  <TORSDO>
F 1

$$$$
=
 OpenBabel10272401033D

 27 31  0  0  1  0  0  0  0  0999 V2000
  188.8460  176.4890  141.6230 C   0  0  0  0  0  2  0  0  0  0  0  0
  187.3570  178.0130  142.9740 C   0  0  1  0  0  3  0  0  0  0  0  0
  187.0440  178.6030  140.6420 O   0  0  0  0  0  0  0  0  0  0  0  0
  183.1970  178.7880  143.4920 C   0  0  0  0  0  3  0  0  0  0  0  0
  180.9420  179.4060  142.6160 C   0  0  0  0  0  1  0  0  0  0  0  0
  186.6490  177.4040  144.1780 C   0  0  0  0  0  2  0  0  0  0  0  0
  184.1980  178.5610  140.8920 C   0  0  0  0  0  3  0  0  0  0  0  0
  188.6340  178.4070  137.5450 C   0  0  0  0  0  3  0  0  0  0  0  0
  182.8610  178.9090  141.0990 C   0  0  0  0  0  3  0  0  0  0  0  0
  189.5220  177.4430  137.3150 C   0  0  0  0  0  3  0  0  0  0  0  0
  185.0520  178.3400  141.9810 C   0  0  0  0  0  0  0  0  0  0  0  0
  188.6620  177.3730  142.7730 N   0  0  0  0  0  0  0  0  0  0  0  0
  182.3620  179.0270  142.3970 C   0  0  0  0  0  0  0  0  0  0  0  0
  184.5330  178.4260  143.2950 C   0  0  0  0  0  0  0  0  0  0  0  0
  189.0830  177.2870  140.3770 C   0  0  0  0  0  0  0  0  0  0  0  0
  186.4670  177.8810  141.7290 C   0  0  2  0  0  3  0  0  0  0  0  0
  188.5990  179.1630  138.8290 C   0  0  0  0  0  2  0  0  0  0  0  0
  185.4080  178.2270  144.5010 C   0  0  0  0  0  2  0  0  0  0  0  0
  190.4970  176.9600  138.3100 C   0  0  0  0  0  3  0  0  0  0  0  0
  190.3060  176.9040  139.6340 C   0  0  0  0  0  3  0  0  0  0  0  0
  188.2460  178.2830  139.9830 C   0  0  0  0  0  0  0  0  0  0  0  0
  191.9820  178.4180  145.2210 C   0  0  0  0  0  3  0  0  0  0  0  0
  189.7890  177.7250  143.6030 C   0  0  0  0  0  0  0  0  0  0  0  0
  190.1630  176.9130  144.6870 C   0  0  0  0  0  3  0  0  0  0  0  0
  191.2530  177.2570  145.4900 C   0  0  0  0  0  3  0  0  0  0  0  0
  191.6210  179.2340  144.1460 C   0  0  0  0  0  3  0  0  0  0  0  0
  190.5310  178.8890  143.3420 C   0  0  0  0  0  3  0  0  0  0  0  0
  1 12  1  0  0  0  0
  2  6  1  1  0  0  0
  6 18  1  0  0  0  0
  7  9  2  0  0  0  0
  7 11  1  0  0  0  0
  8 17  1  0  0  0  0
  9 13  1  0  0  0  0
 10  8  2  0  0  0  0
 10 19  1  0  0  0  0
 11 14  2  0  0  0  0
 12  2  1  0  0  0  0
 12 23  1  0  0  0  0
 13  5  1  0  0  0  0
 13  4  2  0  0  0  0
 14  4  1  0  0  0  0
 14 18  1  0  0  0  0
 15  1  1  0  0  0  0
 16  3  1  6  0  0  0
 16 11  1  0  0  0  0
 16  2  1  0  0  0  0
 17 21  1  0  0  0  0
 19 20  2  0  0  0  0
 20 15  1  0  0  0  0
 21 15  2  0  0  0  0
 21  3  1  0  0  0  0
 22 25  1  0  0  0  0
 23 24  1  0  0  0  0
 24 25  2  0  0  0  0
 26 22  2  0  0  0  0
 27 23  2  0  0  0  0
 27 26  1  0  0  0  0
M  END
>  <MODEL>
7

>  <REMARK>
 VINA RESULT:      -8.0      1.488      2.066
  Name = 
  1 active torsions:
  status: ('A' for Active; 'I' for Inactive)
    1  A    between atoms: C_9  and  N_15
                            x       y       z     vdW  Elec       q    Type
                         _______ _______ _______ _____ _____    ______ ____

>  <TORSDO>
F 1

$$$$
=
 OpenBabel10272401033D

 27 31  0  0  1  0  0  0  0  0999 V2000
  187.8340  179.2300  141.4730 C   0  0  0  0  0  2  0  0  0  0  0  0
  187.6840  177.7800  143.5320 C   0  0  1  0  0  3  0  0  0  0  0  0
  189.4110  176.8260  142.1200 O   0  0  0  0  0  0  0  0  0  0  0  0
  190.1160  176.6800  146.8560 C   0  0  0  0  0  3  0  0  0  0  0  0
  192.1980  175.7210  147.8460 C   0  0  0  0  0  1  0  0  0  0  0  0
  187.4560  178.4860  144.8630 C   0  0  0  0  0  2  0  0  0  0  0  0
  191.2450  176.6230  144.3010 C   0  0  0  0  0  3  0  0  0  0  0  0
  190.4640  176.7240  138.7980 C   0  0  0  0  0  3  0  0  0  0  0  0
  191.9820  176.1770  145.4010 C   0  0  0  0  0  3  0  0  0  0  0  0
  190.1650  177.7270  137.9760 C   0  0  0  0  0  3  0  0  0  0  0  0
  189.9320  177.0850  144.4630 C   0  0  0  0  0  0  0  0  0  0  0  0
  187.0170  178.5100  142.4480 N   0  0  0  0  0  0  0  0  0  0  0  0
  191.4160  176.2020  146.6770 C   0  0  0  0  0  0  0  0  0  0  0  0
  189.3750  177.1410  145.7630 C   0  0  0  0  0  0  0  0  0  0  0  0
  188.3890  178.2850  140.4500 C   0  0  0  0  0  0  0  0  0  0  0  0
  189.1910  177.6390  143.2710 C   0  0  2  0  0  3  0  0  0  0  0  0
  189.4710  176.1630  139.7580 C   0  0  0  0  0  2  0  0  0  0  0  0
  187.9640  177.6000  145.9950 C   0  0  0  0  0  2  0  0  0  0  0  0
  188.8780  178.4450  137.9780 C   0  0  0  0  0  3  0  0  0  0  0  0
  188.1080  178.6740  139.0480 C   0  0  0  0  0  3  0  0  0  0  0  0
  189.0760  177.1640  140.7950 C   0  0  0  0  0  0  0  0  0  0  0  0
  182.8140  178.1690  141.8750 C   0  0  0  0  0  3  0  0  0  0  0  0
  185.5910  178.3970  142.2550 C   0  0  0  0  0  0  0  0  0  0  0  0
  184.7080  178.5250  143.3400 C   0  0  0  0  0  3  0  0  0  0  0  0
  183.3270  178.4130  143.1510 C   0  0  0  0  0  3  0  0  0  0  0  0
  183.6810  178.0390  140.7870 C   0  0  0  0  0  3  0  0  0  0  0  0
  185.0610  178.1530  140.9770 C   0  0  0  0  0  3  0  0  0  0  0  0
  1 12  1  0  0  0  0
  2  6  1  1  0  0  0
  6 18  1  0  0  0  0
  7 11  2  0  0  0  0
  7  9  1  0  0  0  0
  8 17  1  0  0  0  0
  9 13  2  0  0  0  0
 10 19  1  0  0  0  0
 10  8  2  0  0  0  0
 11 14  1  0  0  0  0
 12  2  1  0  0  0  0
 13  4  1  0  0  0  0
 13  5  1  0  0  0  0
 14 18  1  0  0  0  0
 14  4  2  0  0  0  0
 15 21  2  0  0  0  0
 15  1  1  0  0  0  0
 16  3  1  6  0  0  0
 16  2  1  0  0  0  0
 16 11  1  0  0  0  0
 17 21  1  0  0  0  0
 19 20  2  0  0  0  0
 20 15  1  0  0  0  0
 21  3  1  0  0  0  0
 22 25  1  0  0  0  0
 23 12  1  0  0  0  0
 23 24  1  0  0  0  0
 25 24  2  0  0  0  0
 26 27  1  0  0  0  0
 26 22  2  0  0  0  0
 27 23  2  0  0  0  0
M  END
>  <MODEL>
8

>  <REMARK>
 VINA RESULT:      -8.0      1.635      6.291
  Name = 
  1 active torsions:
  status: ('A' for Active; 'I' for Inactive)
    1  A    between atoms: C_9  and  N_15
                            x       y       z     vdW  Elec       q    Type
                         _______ _______ _______ _____ _____    ______ ____

>  <TORSDO>
F 1

$$$$
=
 OpenBabel10272401033D

 27 31  0  0  1  0  0  0  0  0999 V2000
  183.3820  177.8320  140.6410 C   0  0  0  0  0  2  0  0  0  0  0  0
  185.2460  178.6530  139.1530 C   0  0  1  0  0  3  0  0  0  0  0  0
  185.9820  178.9620  141.4440 O   0  0  0  0  0  0  0  0  0  0  0  0
  189.2860  177.6470  138.2340 C   0  0  0  0  0  3  0  0  0  0  0  0
  191.6600  177.2340  138.8870 C   0  0  0  0  0  1  0  0  0  0  0  0
  185.5260  177.8550  137.8850 C   0  0  0  0  0  2  0  0  0  0  0  0
  188.5150  177.7500  140.9180 C   0  0  0  0  0  3  0  0  0  0  0  0
  184.7340  179.3180  144.6800 C   0  0  0  0  0  3  0  0  0  0  0  0
  189.8510  177.5190  140.5830 C   0  0  0  0  0  3  0  0  0  0  0  0
  183.5490  178.8020  144.9950 C   0  0  0  0  0  3  0  0  0  0  0  0
  187.5540  177.9490  139.9180 C   0  0  0  0  0  0  0  0  0  0  0  0
  183.8170  178.6060  139.4790 N   0  0  0  0  0  0  0  0  0  0  0  0
  190.2370  177.4720  139.2430 C   0  0  0  0  0  0  0  0  0  0  0  0
  187.9440  177.8660  138.5590 C   0  0  0  0  0  0  0  0  0  0  0  0
  183.6110  178.6040  141.9050 C   0  0  0  0  0  0  0  0  0  0  0  0
  186.1050  178.1120  140.3060 C   0  0  2  0  0  3  0  0  0  0  0  0
  184.9690  180.0440  143.4000 C   0  0  0  0  0  2  0  0  0  0  0  0
  186.9640  178.0990  137.4450 C   0  0  0  0  0  2  0  0  0  0  0  0
  182.3770  178.8100  144.0990 C   0  0  0  0  0  3  0  0  0  0  0  0
  182.4100  178.7350  142.7630 C   0  0  0  0  0  3  0  0  0  0  0  0
  184.8190  179.1440  142.2170 C   0  0  0  0  0  0  0  0  0  0  0  0
  181.0260  181.0300  137.3710 C   0  0  0  0  0  3  0  0  0  0  0  0
  182.8720  179.4290  138.7640 C   0  0  0  0  0  0  0  0  0  0  0  0
  182.8040  180.8130  138.9990 C   0  0  0  0  0  3  0  0  0  0  0  0
  181.8870  181.6080  138.3070 C   0  0  0  0  0  3  0  0  0  0  0  0
  181.0830  179.6550  137.1280 C   0  0  0  0  0  3  0  0  0  0  0  0
  182.0010  178.8600  137.8200 C   0  0  0  0  0  3  0  0  0  0  0  0
  1 15  1  0  0  0  0
  2  6  1  6  0  0  0
  2 12  1  0  0  0  0
  2 16  1  0  0  0  0
  3 21  1  0  0  0  0
  4 14  2  0  0  0  0
  4 13  1  0  0  0  0
  5 13  1  0  0  0  0
  8 10  2  0  0  0  0
  9  7  1  0  0  0  0
 11  7  2  0  0  0  0
 12  1  1  0  0  0  0
 13  9  2  0  0  0  0
 14 11  1  0  0  0  0
 15 21  2  0  0  0  0
 15 20  1  0  0  0  0
 16 11  1  6  0  0  0
 16  3  1  0  0  0  0
 17  8  1  0  0  0  0
 18  6  1  0  0  0  0
 18 14  1  0  0  0  0
 19 10  1  0  0  0  0
 20 19  2  0  0  0  0
 21 17  1  0  0  0  0
 22 25  1  0  0  0  0
 23 24  1  0  0  0  0
 23 12  1  0  0  0  0
 25 24  2  0  0  0  0
 26 22  2  0  0  0  0
 26 27  1  0  0  0  0
 27 23  2  0  0  0  0
M  END
>  <MODEL>
9

>  <REMARK>
 VINA RESULT:      -7.8      3.236      8.517
  Name = 
  1 active torsions:
  status: ('A' for Active; 'I' for Inactive)
    1  A    between atoms: C_9  and  N_15
                            x       y       z     vdW  Elec       q    Type
                         _______ _______ _______ _____ _____    ______ ____

>  <TORSDO>
F 1

$$$$
