=
 OpenBabel10272413343D

 32 37  0  0  1  0  0  0  0  0999 V2000
  188.5940  177.6370  145.2760 C   0  0  0  0  0  0  0  0  0  0  0  0
  190.5450  176.9870  140.7280 C   0  0  0  0  0  0  0  0  0  0  0  0
  186.7780  177.8400  137.6290 C   0  0  0  0  0  2  0  0  0  0  0  0
  187.7950  178.2850  136.5940 C   0  0  0  0  0  2  0  0  0  0  0  0
  190.2390  177.0900  143.0690 C   0  0  0  0  0  0  0  0  0  0  0  0
  188.4360  177.6810  141.6130 N   0  0  0  0  0  0  0  0  0  0  0  0
  188.0970  177.7980  143.9780 C   0  0  0  0  0  3  0  0  0  0  0  0
  187.3240  178.1210  139.0250 C   0  0  0  0  0  2  0  0  0  0  0  0
  189.2180  177.4210  140.5280 C   0  0  0  0  0  0  0  0  0  0  0  0
  188.7190  177.5790  139.2230 C   0  0  0  0  0  0  0  0  0  0  0  0
  190.8880  176.8870  138.3280 C   0  0  0  0  0  0  0  0  0  0  0  0
  189.9180  177.2010  145.4630 C   0  0  0  0  0  3  0  0  0  0  0  0
  188.9120  177.5270  142.8760 C   0  0  0  0  0  0  0  0  0  0  0  0
  190.7380  176.9290  144.3640 C   0  0  0  0  0  3  0  0  0  0  0  0
  189.0400  177.4120  136.7030 C   0  0  0  0  0  2  0  0  0  0  0  0
  189.5670  177.3250  138.1150 C   0  0  0  0  0  0  0  0  0  0  0  0
  191.0220  176.8320  141.9910 N   0  0  0  0  0  0  0  0  0  0  0  0
  191.3660  176.7230  139.6340 C   0  0  0  0  0  3  0  0  0  0  0  0
  187.7560  177.9150  146.3590 O   0  0  0  0  0  0  0  0  0  0  0  0
  186.3530  177.6880  146.3210 C   0  0  0  0  0  2  0  0  0  0  0  0
  184.7260  179.0620  145.1130 C   0  0  0  0  0  2  0  0  0  0  0  0
  184.2460  178.7820  146.4040 O   0  0  0  0  0  0  0  0  0  0  0  0
  185.6270  179.0160  146.2830 C   0  0  1  0  0  3  0  0  0  0  0  0
  191.7330  176.5970  137.2060 N   0  0  0  0  0  2  0  0  0  0  0  0
  192.6880  175.4960  137.1750 C   0  0  2  0  0  3  0  0  0  0  0  0
  195.0780  175.4440  136.2910 C   0  0  1  0  0  3  0  0  0  0  0  0
  195.3110  175.1570  137.6400 O   0  0  0  0  0  1  0  0  0  0  0  0
  193.6310  175.6380  135.9770 C   0  0  2  0  0  3  0  0  0  0  0  0
  194.5030  176.7230  136.1800 O   0  0  0  0  0  0  0  0  0  0  0  0
  191.9510  174.1600  137.1330 C   0  0  0  0  0  2  0  0  0  0  0  0
  190.7550  174.0710  135.7600 S   0  0  0  0  0  0  0  0  0  0  0  0
  189.4040  173.6160  136.8800 C   0  0  0  0  0  1  0  0  0  0  0  0
  1 12  1  0  0  0  0
  1 19  1  0  0  0  0
  2 17  1  0  0  0  0
  3  8  1  0  0  0  0
  4 15  1  0  0  0  0
  4  3  1  0  0  0  0
  5 14  1  0  0  0  0
  6 13  2  0  0  0  0
  7  1  2  0  0  0  0
  8 10  1  0  0  0  0
  9  2  1  0  0  0  0
  9  6  1  0  0  0  0
 10  9  2  0  0  0  0
 11 18  1  0  0  0  0
 13  5  1  0  0  0  0
 13  7  1  0  0  0  0
 14 12  2  0  0  0  0
 15 16  1  0  0  0  0
 16 11  2  0  0  0  0
 16 10  1  0  0  0  0
 17  5  2  0  0  0  0
 18  2  2  0  0  0  0
 20 19  1  0  0  0  0
 21 23  1  0  0  0  0
 21 22  1  0  0  0  0
 23 20  1  6  0  0  0
 23 22  1  0  0  0  0
 24 11  1  0  0  0  0
 25 30  1  6  0  0  0
 25 24  1  0  0  0  0
 26 27  1  1  0  0  0
 28 29  1  0  0  0  0
 28 26  1  0  0  0  0
 28 25  1  1  0  0  0
 29 26  1  0  0  0  0
 31 32  1  0  0  0  0
 31 30  1  0  0  0  0
M  END
>  <MODEL>
1

>  <REMARK>
 VINA RESULT:      -7.8      0.000      0.000
  Name = 
  8 active torsions:
  status: ('A' for Active; 'I' for Inactive)
    1  A    between atoms: C_2  and  O_24
    2  A    between atoms: S_6  and  C_7
    3  A    between atoms: C_7  and  C_32
    4  A    between atoms: C_10  and  C_20
    5  A    between atoms: C_10  and  O_24
    6  A    between atoms: C_16  and  N_27
    7  A    between atoms: C_22  and  C_32
    8  A    between atoms: N_27  and  C_32
                            x       y       z     vdW  Elec       q    Type
                         _______ _______ _______ _____ _____    ______ ____

>  <TORSDO>
F 8

$$$$
=
 OpenBabel10272413343D

 32 37  0  0  1  0  0  0  0  0999 V2000
  188.4580  177.3270  146.6810 C   0  0  0  0  0  0  0  0  0  0  0  0
  186.2540  178.3880  142.3300 C   0  0  0  0  0  0  0  0  0  0  0  0
  189.8350  177.8280  138.9570 C   0  0  0  0  0  2  0  0  0  0  0  0
  188.7580  177.4790  137.9450 C   0  0  0  0  0  2  0  0  0  0  0  0
  186.6930  178.0710  144.6310 C   0  0  0  0  0  0  0  0  0  0  0  0
  188.4070  177.6190  143.0260 N   0  0  0  0  0  0  0  0  0  0  0  0
  188.8800  177.2860  145.3480 C   0  0  0  0  0  3  0  0  0  0  0  0
  189.3680  177.4190  140.3490 C   0  0  0  0  0  2  0  0  0  0  0  0
  187.5660  177.9770  142.0160 C   0  0  0  0  0  0  0  0  0  0  0  0
  187.9890  177.9390  140.6760 C   0  0  0  0  0  0  0  0  0  0  0  0
  185.7750  178.7070  139.9730 C   0  0  0  0  0  0  0  0  0  0  0  0
  187.1490  177.7420  146.9830 C   0  0  0  0  0  3  0  0  0  0  0  0
  188.0050  177.6560  144.3230 C   0  0  0  0  0  0  0  0  0  0  0  0
  186.2690  178.1130  145.9610 C   0  0  0  0  0  3  0  0  0  0  0  0
  187.5250  178.3360  138.2040 C   0  0  0  0  0  2  0  0  0  0  0  0
  187.0810  178.2930  139.6460 C   0  0  0  0  0  0  0  0  0  0  0  0
  185.8510  178.4260  143.6270 N   0  0  0  0  0  0  0  0  0  0  0  0
  185.3730  178.7510  141.3140 C   0  0  0  0  0  3  0  0  0  0  0  0
  189.3550  176.9520  147.6840 O   0  0  0  0  0  0  0  0  0  0  0  0
  190.7640  177.0790  147.5400 C   0  0  0  0  0  2  0  0  0  0  0  0
  192.3750  175.5310  146.5370 C   0  0  0  0  0  2  0  0  0  0  0  0
  192.7900  175.8730  147.8360 O   0  0  0  0  0  0  0  0  0  0  0  0
  191.4070  175.7110  147.6390 C   0  0  1  0  0  3  0  0  0  0  0  0
  184.8690  179.0980  138.9330 N   0  0  0  0  0  2  0  0  0  0  0  0
  183.4920  178.6260  138.8380 C   0  0  2  0  0  3  0  0  0  0  0  0
  182.9940  176.2730  137.9950 C   0  0  1  0  0  3  0  0  0  0  0  0
  182.8810  176.0670  139.3740 O   0  0  0  0  0  1  0  0  0  0  0  0
  183.3300  177.6850  137.6410 C   0  0  2  0  0  3  0  0  0  0  0  0
  184.3080  176.6740  137.6910 O   0  0  0  0  0  0  0  0  0  0  0  0
  182.5350  179.8110  138.7350 C   0  0  0  0  0  2  0  0  0  0  0  0
  180.9140  179.4590  139.4920 S   0  0  0  0  0  0  0  0  0  0  0  0
  181.6830  178.8940  141.0330 C   0  0  0  0  0  1  0  0  0  0  0  0
  1 12  1  0  0  0  0
  1 19  1  0  0  0  0
  2 17  1  0  0  0  0
  3  8  1  0  0  0  0
  4 15  1  0  0  0  0
  4  3  1  0  0  0  0
  5 14  1  0  0  0  0
  6 13  2  0  0  0  0
  7  1  2  0  0  0  0
  8 10  1  0  0  0  0
  9  2  1  0  0  0  0
  9  6  1  0  0  0  0
 10  9  2  0  0  0  0
 11 18  1  0  0  0  0
 13  5  1  0  0  0  0
 13  7  1  0  0  0  0
 14 12  2  0  0  0  0
 15 16  1  0  0  0  0
 16 11  2  0  0  0  0
 16 10  1  0  0  0  0
 17  5  2  0  0  0  0
 18  2  2  0  0  0  0
 20 19  1  0  0  0  0
 21 23  1  0  0  0  0
 21 22  1  0  0  0  0
 23 20  1  6  0  0  0
 23 22  1  0  0  0  0
 24 11  1  0  0  0  0
 25 30  1  6  0  0  0
 25 24  1  0  0  0  0
 26 27  1  1  0  0  0
 28 29  1  0  0  0  0
 28 26  1  0  0  0  0
 28 25  1  1  0  0  0
 29 26  1  0  0  0  0
 30 31  1  0  0  0  0
 31 32  1  0  0  0  0
M  END
>  <MODEL>
2

>  <REMARK>
 VINA RESULT:      -7.6      4.366      6.872
  Name = 
  8 active torsions:
  status: ('A' for Active; 'I' for Inactive)
    1  A    between atoms: C_2  and  O_24
    2  A    between atoms: S_6  and  C_7
    3  A    between atoms: C_7  and  C_32
    4  A    between atoms: C_10  and  C_20
    5  A    between atoms: C_10  and  O_24
    6  A    between atoms: C_16  and  N_27
    7  A    between atoms: C_22  and  C_32
    8  A    between atoms: N_27  and  C_32
                            x       y       z     vdW  Elec       q    Type
                         _______ _______ _______ _____ _____    ______ ____

>  <TORSDO>
F 8

$$$$
=
 OpenBabel10272413343D

 32 37  0  0  1  0  0  0  0  0999 V2000
  190.4620  177.3230  145.1180 C   0  0  0  0  0  0  0  0  0  0  0  0
  188.8440  177.7020  140.4120 C   0  0  0  0  0  0  0  0  0  0  0  0
  184.0210  178.7430  140.8390 C   0  0  0  0  0  2  0  0  0  0  0  0
  184.1100  179.4640  139.5050 C   0  0  0  0  0  2  0  0  0  0  0  0
  190.1830  177.3460  142.3260 C   0  0  0  0  0  0  0  0  0  0  0  0
  187.9030  178.0180  142.5860 N   0  0  0  0  0  0  0  0  0  0  0  0
  189.2350  177.6690  144.5420 C   0  0  0  0  0  3  0  0  0  0  0  0
  185.3730  178.8160  141.5410 C   0  0  0  0  0  2  0  0  0  0  0  0
  187.7460  178.0360  141.2330 C   0  0  0  0  0  0  0  0  0  0  0  0
  186.5130  178.3810  140.6520 C   0  0  0  0  0  0  0  0  0  0  0  0
  187.4930  178.0740  138.4310 C   0  0  0  0  0  0  0  0  0  0  0  0
  191.5480  176.9870  144.2900 C   0  0  0  0  0  3  0  0  0  0  0  0
  189.0910  177.6830  143.1520 C   0  0  0  0  0  0  0  0  0  0  0  0
  191.4090  177.0000  142.8990 C   0  0  0  0  0  3  0  0  0  0  0  0
  185.0630  178.7080  138.5860 C   0  0  0  0  0  2  0  0  0  0  0  0
  186.3920  178.4150  139.2400 C   0  0  0  0  0  0  0  0  0  0  0  0
  190.0320  177.3650  140.9770 N   0  0  0  0  0  0  0  0  0  0  0  0
  188.7100  177.7200  139.0250 C   0  0  0  0  0  3  0  0  0  0  0  0
  190.5760  177.3180  146.5110 O   0  0  0  0  0  0  0  0  0  0  0  0
  189.5210  176.8930  147.3660 C   0  0  0  0  0  2  0  0  0  0  0  0
  187.5190  178.2110  147.8630 C   0  0  0  0  0  2  0  0  0  0  0  0
  188.0150  177.6360  149.0470 O   0  0  0  0  0  0  0  0  0  0  0  0
  188.9690  178.0860  148.1160 C   0  0  1  0  0  3  0  0  0  0  0  0
  187.3570  178.0750  137.0040 N   0  0  0  0  0  2  0  0  0  0  0  0
  187.3690  176.8660  136.1880 C   0  0  2  0  0  3  0  0  0  0  0  0
  189.6380  176.1800  135.2520 C   0  0  1  0  0  3  0  0  0  0  0  0
  189.6310  175.4410  136.4390 O   0  0  0  0  0  1  0  0  0  0  0  0
  188.3980  176.9900  135.0610 C   0  0  2  0  0  3  0  0  0  0  0  0
  189.5880  177.5520  135.5590 O   0  0  0  0  0  0  0  0  0  0  0  0
  185.9750  176.5950  135.6270 C   0  0  0  0  0  2  0  0  0  0  0  0
  185.6300  174.8130  135.4610 S   0  0  0  0  0  0  0  0  0  0  0  0
  186.2790  174.4660  137.1170 C   0  0  0  0  0  1  0  0  0  0  0  0
  1 19  1  0  0  0  0
  2 17  2  0  0  0  0
  2  9  1  0  0  0  0
  3  8  1  0  0  0  0
  4  3  1  0  0  0  0
  5 14  2  0  0  0  0
  5 13  1  0  0  0  0
  6 13  1  0  0  0  0
  7  1  1  0  0  0  0
  9  6  2  0  0  0  0
 10  9  1  0  0  0  0
 10  8  1  0  0  0  0
 11 18  2  0  0  0  0
 11 16  1  0  0  0  0
 12  1  2  0  0  0  0
 13  7  2  0  0  0  0
 14 12  1  0  0  0  0
 15 16  1  0  0  0  0
 15  4  1  0  0  0  0
 16 10  2  0  0  0  0
 17  5  1  0  0  0  0
 18  2  1  0  0  0  0
 19 20  1  0  0  0  0
 21 23  1  0  0  0  0
 21 22  1  0  0  0  0
 23 20  1  6  0  0  0
 23 22  1  0  0  0  0
 24 11  1  0  0  0  0
 25 30  1  6  0  0  0
 25 24  1  0  0  0  0
 26 29  1  0  0  0  0
 26 27  1  1  0  0  0
 28 26  1  0  0  0  0
 28 29  1  0  0  0  0
 28 25  1  1  0  0  0
 31 30  1  0  0  0  0
 31 32  1  0  0  0  0
M  END
>  <MODEL>
3

>  <REMARK>
 VINA RESULT:      -7.2      2.932      3.818
  Name = 
  8 active torsions:
  status: ('A' for Active; 'I' for Inactive)
    1  A    between atoms: C_2  and  O_24
    2  A    between atoms: S_6  and  C_7
    3  A    between atoms: C_7  and  C_32
    4  A    between atoms: C_10  and  C_20
    5  A    between atoms: C_10  and  O_24
    6  A    between atoms: C_16  and  N_27
    7  A    between atoms: C_22  and  C_32
    8  A    between atoms: N_27  and  C_32
                            x       y       z     vdW  Elec       q    Type
                         _______ _______ _______ _____ _____    ______ ____

>  <TORSDO>
F 8

$$$$
=
 OpenBabel10272413343D

 32 37  0  0  1  0  0  0  0  0999 V2000
  188.7260  177.7090  145.8030 C   0  0  0  0  0  0  0  0  0  0  0  0
  185.5940  178.3280  141.9650 C   0  0  0  0  0  0  0  0  0  0  0  0
  181.1150  178.6310  144.0560 C   0  0  0  0  0  2  0  0  0  0  0  0
  180.6800  179.4870  142.8800 C   0  0  0  0  0  2  0  0  0  0  0  0
  187.5260  177.9750  143.2800 C   0  0  0  0  0  0  0  0  0  0  0  0
  185.4100  178.2890  144.3480 N   0  0  0  0  0  0  0  0  0  0  0  0
  187.3480  177.9360  145.7050 C   0  0  0  0  0  3  0  0  0  0  0  0
  182.6100  178.8230  144.2910 C   0  0  0  0  0  2  0  0  0  0  0  0
  184.8080  178.4200  143.1330 C   0  0  0  0  0  0  0  0  0  0  0  0
  183.4240  178.6450  143.0330 C   0  0  0  0  0  0  0  0  0  0  0  0
  183.6270  178.7040  140.5950 C   0  0  0  0  0  0  0  0  0  0  0  0
  189.4990  177.6160  144.6320 C   0  0  0  0  0  3  0  0  0  0  0  0
  186.7460  178.0690  144.4510 C   0  0  0  0  0  0  0  0  0  0  0  0
  188.9010  177.7490  143.3750 C   0  0  0  0  0  3  0  0  0  0  0  0
  181.3390  178.9700  141.6070 C   0  0  0  0  0  2  0  0  0  0  0  0
  182.8330  178.8030  141.7540 C   0  0  0  0  0  0  0  0  0  0  0  0
  186.9310  178.1070  142.0670 N   0  0  0  0  0  0  0  0  0  0  0  0
  185.0030  178.4670  140.7120 C   0  0  0  0  0  3  0  0  0  0  0  0
  189.2990  177.5800  147.0700 O   0  0  0  0  0  0  0  0  0  0  0  0
  190.0340  176.4290  147.4660 C   0  0  0  0  0  2  0  0  0  0  0  0
  192.3050  175.5180  147.5490 C   0  0  0  0  0  2  0  0  0  0  0  0
  192.1260  176.2400  146.3560 O   0  0  0  0  0  0  0  0  0  0  0  0
  191.5110  176.7630  147.5070 C   0  0  1  0  0  3  0  0  0  0  0  0
  183.0220  178.8300  139.3010 N   0  0  0  0  0  2  0  0  0  0  0  0
  182.5780  177.6950  138.5010 C   0  0  2  0  0  3  0  0  0  0  0  0
  184.0100  176.1210  137.0980 C   0  0  1  0  0  3  0  0  0  0  0  0
  183.5610  175.2320  138.0790 O   0  0  0  0  0  1  0  0  0  0  0  0
  183.4880  177.5080  137.2840 C   0  0  2  0  0  3  0  0  0  0  0  0
  184.7780  177.1330  137.7040 O   0  0  0  0  0  0  0  0  0  0  0  0
  181.1260  177.8880  138.0720 C   0  0  0  0  0  2  0  0  0  0  0  0
  180.9390  179.2170  136.8370 S   0  0  0  0  0  0  0  0  0  0  0  0
  179.9880  180.2430  137.9900 C   0  0  0  0  0  1  0  0  0  0  0  0
  1 19  1  0  0  0  0
  2 17  2  0  0  0  0
  2  9  1  0  0  0  0
  3  8  1  0  0  0  0
  4  3  1  0  0  0  0
  5 14  2  0  0  0  0
  5 13  1  0  0  0  0
  6 13  1  0  0  0  0
  7  1  1  0  0  0  0
  9  6  2  0  0  0  0
 10  9  1  0  0  0  0
 10  8  1  0  0  0  0
 11 18  2  0  0  0  0
 11 16  1  0  0  0  0
 12  1  2  0  0  0  0
 13  7  2  0  0  0  0
 14 12  1  0  0  0  0
 15 16  1  0  0  0  0
 15  4  1  0  0  0  0
 16 10  2  0  0  0  0
 17  5  1  0  0  0  0
 18  2  1  0  0  0  0
 19 20  1  0  0  0  0
 22 23  1  0  0  0  0
 22 21  1  0  0  0  0
 23 20  1  6  0  0  0
 23 21  1  0  0  0  0
 24 11  1  0  0  0  0
 25 30  1  6  0  0  0
 25 24  1  0  0  0  0
 26 28  1  0  0  0  0
 26 29  1  0  0  0  0
 26 27  1  1  0  0  0
 28 29  1  0  0  0  0
 28 25  1  1  0  0  0
 31 32  1  0  0  0  0
 31 30  1  0  0  0  0
M  END
>  <MODEL>
4

>  <REMARK>
 VINA RESULT:      -7.2      5.409      7.673
  Name = 
  8 active torsions:
  status: ('A' for Active; 'I' for Inactive)
    1  A    between atoms: C_2  and  O_24
    2  A    between atoms: S_6  and  C_7
    3  A    between atoms: C_7  and  C_32
    4  A    between atoms: C_10  and  C_20
    5  A    between atoms: C_10  and  O_24
    6  A    between atoms: C_16  and  N_27
    7  A    between atoms: C_22  and  C_32
    8  A    between atoms: N_27  and  C_32
                            x       y       z     vdW  Elec       q    Type
                         _______ _______ _______ _____ _____    ______ ____

>  <TORSDO>
F 8

$$$$
=
 OpenBabel10272413343D

 32 37  0  0  1  0  0  0  0  0999 V2000
  182.2540  178.7860  141.3950 C   0  0  0  0  0  0  0  0  0  0  0  0
  186.4140  178.1010  144.0690 C   0  0  0  0  0  0  0  0  0  0  0  0
  189.8600  176.9110  140.7180 C   0  0  0  0  0  2  0  0  0  0  0  0
  190.9000  177.5080  141.6500 C   0  0  0  0  0  2  0  0  0  0  0  0
  184.1770  178.5030  143.4200 C   0  0  0  0  0  0  0  0  0  0  0  0
  185.8400  178.1050  141.7490 N   0  0  0  0  0  0  0  0  0  0  0  0
  183.5860  178.5120  141.0610 C   0  0  0  0  0  3  0  0  0  0  0  0
  188.5280  177.6230  140.9290 C   0  0  0  0  0  2  0  0  0  0  0  0
  186.7890  177.9640  142.7160 C   0  0  0  0  0  0  0  0  0  0  0  0
  188.1260  177.6860  142.3820 C   0  0  0  0  0  0  0  0  0  0  0  0
  188.7060  177.7050  144.7600 C   0  0  0  0  0  0  0  0  0  0  0  0
  181.8910  178.9170  142.7480 C   0  0  0  0  0  3  0  0  0  0  0  0
  184.5470  178.3700  142.0660 C   0  0  0  0  0  0  0  0  0  0  0  0
  182.8490  178.7770  143.7560 C   0  0  0  0  0  3  0  0  0  0  0  0
  190.5220  177.1980  143.0930 C   0  0  0  0  0  2  0  0  0  0  0  0
  189.0940  177.5710  143.4120 C   0  0  0  0  0  0  0  0  0  0  0  0
  185.1190  178.3660  144.3870 N   0  0  0  0  0  0  0  0  0  0  0  0
  187.3670  177.9690  145.0760 C   0  0  0  0  0  3  0  0  0  0  0  0
  181.3160  178.9210  140.3690 O   0  0  0  0  0  0  0  0  0  0  0  0
  180.7540  180.1750  140.0040 C   0  0  0  0  0  2  0  0  0  0  0  0
  180.9700  181.9300  138.3110 C   0  0  0  0  0  2  0  0  0  0  0  0
  182.2190  181.3200  138.5260 O   0  0  0  0  0  0  0  0  0  0  0  0
  181.0930  180.4790  138.5600 C   0  0  1  0  0  3  0  0  0  0  0  0
  189.6790  177.5530  145.8010 N   0  0  0  0  0  2  0  0  0  0  0  0
  189.4000  176.9230  147.0860 C   0  0  2  0  0  3  0  0  0  0  0  0
  188.2820  178.1140  149.0430 C   0  0  1  0  0  3  0  0  0  0  0  0
  187.2300  177.2930  148.6250 O   0  0  0  0  0  1  0  0  0  0  0  0
  189.5180  177.9440  148.2210 C   0  0  2  0  0  3  0  0  0  0  0  0
  188.6170  179.0040  148.0070 O   0  0  0  0  0  0  0  0  0  0  0  0
  190.3430  175.7450  147.3120 C   0  0  0  0  0  2  0  0  0  0  0  0
  191.9890  176.0250  146.5800 S   0  0  0  0  0  0  0  0  0  0  0  0
  192.8170  175.7130  148.1620 C   0  0  0  0  0  1  0  0  0  0  0  0
  1 12  1  0  0  0  0
  2 17  2  0  0  0  0
  2 18  1  0  0  0  0
  3  8  1  0  0  0  0
  3  4  1  0  0  0  0
  4 15  1  0  0  0  0
  5 14  1  0  0  0  0
  5 17  1  0  0  0  0
  6 13  1  0  0  0  0
  6  9  2  0  0  0  0
  7  1  2  0  0  0  0
  7 13  1  0  0  0  0
  8 10  1  0  0  0  0
  9  2  1  0  0  0  0
 10  9  1  0  0  0  0
 10 16  2  0  0  0  0
 11 18  2  0  0  0  0
 11 24  1  0  0  0  0
 12 14  2  0  0  0  0
 13  5  2  0  0  0  0
 15 16  1  0  0  0  0
 16 11  1  0  0  0  0
 19  1  1  0  0  0  0
 20 19  1  0  0  0  0
 21 22  1  0  0  0  0
 21 23  1  0  0  0  0
 22 23  1  0  0  0  0
 23 20  1  1  0  0  0
 24 25  1  0  0  0  0
 25 30  1  1  0  0  0
 26 27  1  6  0  0  0
 28 25  1  6  0  0  0
 28 26  1  0  0  0  0
 29 28  1  0  0  0  0
 29 26  1  0  0  0  0
 31 30  1  0  0  0  0
 31 32  1  0  0  0  0
M  END
>  <MODEL>
5

>  <REMARK>
 VINA RESULT:      -7.2      5.076      8.506
  Name = 
  8 active torsions:
  status: ('A' for Active; 'I' for Inactive)
    1  A    between atoms: C_2  and  O_24
    2  A    between atoms: S_6  and  C_7
    3  A    between atoms: C_7  and  C_32
    4  A    between atoms: C_10  and  C_20
    5  A    between atoms: C_10  and  O_24
    6  A    between atoms: C_16  and  N_27
    7  A    between atoms: C_22  and  C_32
    8  A    between atoms: N_27  and  C_32
                            x       y       z     vdW  Elec       q    Type
                         _______ _______ _______ _____ _____    ______ ____

>  <TORSDO>
F 8

$$$$
=
 OpenBabel10272413343D

 32 37  0  0  1  0  0  0  0  0999 V2000
  188.7930  177.6560  145.3070 C   0  0  0  0  0  0  0  0  0  0  0  0
  190.7490  177.0190  140.7580 C   0  0  0  0  0  0  0  0  0  0  0  0
  186.9490  177.7320  137.6640 C   0  0  0  0  0  2  0  0  0  0  0  0
  187.9510  178.1960  136.6210 C   0  0  0  0  0  2  0  0  0  0  0  0
  190.4460  177.1360  143.1000 C   0  0  0  0  0  0  0  0  0  0  0  0
  188.6230  177.6590  141.6430 N   0  0  0  0  0  0  0  0  0  0  0  0
  188.2880  177.7890  144.0080 C   0  0  0  0  0  3  0  0  0  0  0  0
  187.4910  178.0430  139.0550 C   0  0  0  0  0  2  0  0  0  0  0  0
  189.4090  177.4120  140.5580 C   0  0  0  0  0  0  0  0  0  0  0  0
  188.9020  177.5430  139.2540 C   0  0  0  0  0  0  0  0  0  0  0  0
  191.0880  176.9060  138.3580 C   0  0  0  0  0  0  0  0  0  0  0  0
  190.1290  177.2600  145.4930 C   0  0  0  0  0  3  0  0  0  0  0  0
  189.1070  177.5320  142.9060 C   0  0  0  0  0  0  0  0  0  0  0  0
  190.9540  177.0020  144.3940 C   0  0  0  0  0  3  0  0  0  0  0  0
  189.2210  177.3610  136.7350 C   0  0  0  0  0  2  0  0  0  0  0  0
  189.7540  177.3030  138.1460 C   0  0  0  0  0  0  0  0  0  0  0  0
  191.2330  176.8900  142.0210 N   0  0  0  0  0  0  0  0  0  0  0  0
  191.5740  176.7680  139.6650 C   0  0  0  0  0  3  0  0  0  0  0  0
  187.9500  177.9200  146.3890 O   0  0  0  0  0  0  0  0  0  0  0  0
  186.5470  177.6940  146.3420 C   0  0  0  0  0  2  0  0  0  0  0  0
  184.9450  179.1580  145.2080 C   0  0  0  0  0  2  0  0  0  0  0  0
  184.4370  178.7790  146.4630 O   0  0  0  0  0  0  0  0  0  0  0  0
  185.8200  179.0210  146.3900 C   0  0  1  0  0  3  0  0  0  0  0  0
  191.9380  176.6300  137.2370 N   0  0  0  0  0  2  0  0  0  0  0  0
  192.5800  175.3410  137.0050 C   0  0  2  0  0  3  0  0  0  0  0  0
  191.4140  173.2180  136.2150 C   0  0  1  0  0  3  0  0  0  0  0  0
  192.1580  173.5260  135.0720 O   0  0  0  0  0  1  0  0  0  0  0  0
  191.6150  174.1960  137.3250 C   0  0  2  0  0  3  0  0  0  0  0  0
  190.5000  174.2570  136.4690 O   0  0  0  0  0  0  0  0  0  0  0  0
  193.8540  175.2300  137.8380 C   0  0  0  0  0  2  0  0  0  0  0  0
  194.7920  173.7100  137.4700 S   0  0  0  0  0  0  0  0  0  0  0  0
  196.2360  174.6570  136.9180 C   0  0  0  0  0  1  0  0  0  0  0  0
  1 12  1  0  0  0  0
  1 19  1  0  0  0  0
  2 17  1  0  0  0  0
  3  8  1  0  0  0  0
  4 15  1  0  0  0  0
  4  3  1  0  0  0  0
  5 14  1  0  0  0  0
  6 13  2  0  0  0  0
  7  1  2  0  0  0  0
  8 10  1  0  0  0  0
  9  2  1  0  0  0  0
  9  6  1  0  0  0  0
 10  9  2  0  0  0  0
 11 18  1  0  0  0  0
 13  5  1  0  0  0  0
 13  7  1  0  0  0  0
 14 12  2  0  0  0  0
 15 16  1  0  0  0  0
 16 11  2  0  0  0  0
 16 10  1  0  0  0  0
 17  5  2  0  0  0  0
 18  2  2  0  0  0  0
 20 19  1  0  0  0  0
 21 23  1  0  0  0  0
 21 22  1  0  0  0  0
 23 20  1  6  0  0  0
 23 22  1  0  0  0  0
 24 11  1  0  0  0  0
 25 24  1  0  0  0  0
 25 30  1  1  0  0  0
 26 27  1  6  0  0  0
 26 29  1  0  0  0  0
 26 28  1  0  0  0  0
 28 25  1  6  0  0  0
 29 28  1  0  0  0  0
 31 30  1  0  0  0  0
 32 31  1  0  0  0  0
M  END
>  <MODEL>
6

>  <REMARK>
 VINA RESULT:      -7.0      1.436      2.101
  Name = 
  8 active torsions:
  status: ('A' for Active; 'I' for Inactive)
    1  A    between atoms: C_2  and  O_24
    2  A    between atoms: S_6  and  C_7
    3  A    between atoms: C_7  and  C_32
    4  A    between atoms: C_10  and  C_20
    5  A    between atoms: C_10  and  O_24
    6  A    between atoms: C_16  and  N_27
    7  A    between atoms: C_22  and  C_32
    8  A    between atoms: N_27  and  C_32
                            x       y       z     vdW  Elec       q    Type
                         _______ _______ _______ _____ _____    ______ ____

>  <TORSDO>
F 8

$$$$
=
 OpenBabel10272413343D

 32 37  0  0  1  0  0  0  0  0999 V2000
  182.8310  178.7800  142.3850 C   0  0  0  0  0  0  0  0  0  0  0  0
  187.3640  177.8340  144.2480 C   0  0  0  0  0  0  0  0  0  0  0  0
  190.1800  176.9530  140.2720 C   0  0  0  0  0  2  0  0  0  0  0  0
  191.3720  177.4580  141.0660 C   0  0  0  0  0  2  0  0  0  0  0  0
  185.0580  178.3020  144.0230 C   0  0  0  0  0  0  0  0  0  0  0  0
  186.4120  178.0570  142.0670 N   0  0  0  0  0  0  0  0  0  0  0  0
  184.0820  178.5340  141.8080 C   0  0  0  0  0  3  0  0  0  0  0  0
  188.9160  177.6470  140.7670 C   0  0  0  0  0  2  0  0  0  0  0  0
  187.5060  177.8230  142.8450 C   0  0  0  0  0  0  0  0  0  0  0  0
  188.7630  177.5740  142.2670 C   0  0  0  0  0  0  0  0  0  0  0  0
  189.7310  177.3680  144.5050 C   0  0  0  0  0  0  0  0  0  0  0  0
  182.7000  178.7840  143.7850 C   0  0  0  0  0  3  0  0  0  0  0  0
  185.1940  178.2960  142.6200 C   0  0  0  0  0  0  0  0  0  0  0  0
  183.8100  178.5470  144.6010 C   0  0  0  0  0  3  0  0  0  0  0  0
  191.2340  177.0150  142.5180 C   0  0  0  0  0  2  0  0  0  0  0  0
  189.8860  177.3600  143.1050 C   0  0  0  0  0  0  0  0  0  0  0  0
  186.1460  178.0720  144.8020 N   0  0  0  0  0  0  0  0  0  0  0  0
  188.4690  177.6050  145.0640 C   0  0  0  0  0  3  0  0  0  0  0  0
  181.7370  179.0140  141.5470 O   0  0  0  0  0  0  0  0  0  0  0  0
  181.7320  178.6530  140.1720 C   0  0  0  0  0  2  0  0  0  0  0  0
  181.2270  176.8310  138.6170 C   0  0  0  0  0  2  0  0  0  0  0  0
  182.0460  176.3550  139.6550 O   0  0  0  0  0  0  0  0  0  0  0  0
  181.0680  177.3020  140.0070 C   0  0  1  0  0  3  0  0  0  0  0  0
  190.8610  177.1160  145.3510 N   0  0  0  0  0  2  0  0  0  0  0  0
  190.7640  176.8930  146.7880 C   0  0  2  0  0  3  0  0  0  0  0  0
  192.4700  175.6090  148.1810 C   0  0  1  0  0  3  0  0  0  0  0  0
  192.7310  176.9110  148.6170 O   0  0  0  0  0  1  0  0  0  0  0  0
  191.3780  175.5410  147.1630 C   0  0  2  0  0  3  0  0  0  0  0  0
  192.7390  175.5170  146.8030 O   0  0  0  0  0  0  0  0  0  0  0  0
  189.3080  176.9740  147.2370 C   0  0  0  0  0  2  0  0  0  0  0  0
  189.0800  178.1120  148.6440 S   0  0  0  0  0  0  0  0  0  0  0  0
  187.3470  178.4130  148.2030 C   0  0  0  0  0  1  0  0  0  0  0  0
  1 12  1  0  0  0  0
  2 17  2  0  0  0  0
  2 18  1  0  0  0  0
  3  8  1  0  0  0  0
  3  4  1  0  0  0  0
  4 15  1  0  0  0  0
  5 14  1  0  0  0  0
  5 17  1  0  0  0  0
  6 13  1  0  0  0  0
  6  9  2  0  0  0  0
  7  1  2  0  0  0  0
  7 13  1  0  0  0  0
  8 10  1  0  0  0  0
  9  2  1  0  0  0  0
 10  9  1  0  0  0  0
 10 16  2  0  0  0  0
 11 18  2  0  0  0  0
 11 24  1  0  0  0  0
 12 14  2  0  0  0  0
 13  5  2  0  0  0  0
 15 16  1  0  0  0  0
 16 11  1  0  0  0  0
 19  1  1  0  0  0  0
 20 19  1  0  0  0  0
 21 22  1  0  0  0  0
 21 23  1  0  0  0  0
 22 23  1  0  0  0  0
 23 20  1  6  0  0  0
 24 25  1  0  0  0  0
 25 30  1  6  0  0  0
 26 27  1  6  0  0  0
 28 25  1  6  0  0  0
 28 26  1  0  0  0  0
 29 28  1  0  0  0  0
 29 26  1  0  0  0  0
 30 31  1  0  0  0  0
 32 31  1  0  0  0  0
M  END
>  <MODEL>
7

>  <REMARK>
 VINA RESULT:      -7.0      4.816      7.794
  Name = 
  8 active torsions:
  status: ('A' for Active; 'I' for Inactive)
    1  A    between atoms: C_2  and  O_24
    2  A    between atoms: S_6  and  C_7
    3  A    between atoms: C_7  and  C_32
    4  A    between atoms: C_10  and  C_20
    5  A    between atoms: C_10  and  O_24
    6  A    between atoms: C_16  and  N_27
    7  A    between atoms: C_22  and  C_32
    8  A    between atoms: N_27  and  C_32
                            x       y       z     vdW  Elec       q    Type
                         _______ _______ _______ _____ _____    ______ ____

>  <TORSDO>
F 8

$$$$
=
 OpenBabel10272413343D

 32 37  0  0  1  0  0  0  0  0999 V2000
  191.5530  176.1810  136.9510 C   0  0  0  0  0  0  0  0  0  0  0  0
  188.8960  177.6220  140.9240 C   0  0  0  0  0  0  0  0  0  0  0  0
  191.5890  176.1580  144.8130 C   0  0  0  0  0  2  0  0  0  0  0  0
  190.9790  177.3030  145.6030 C   0  0  0  0  0  2  0  0  0  0  0  0
  189.6100  177.1750  138.7150 C   0  0  0  0  0  0  0  0  0  0  0  0
  191.0280  176.6050  140.5550 N   0  0  0  0  0  0  0  0  0  0  0  0
  191.7790  176.1440  138.3320 C   0  0  0  0  0  3  0  0  0  0  0  0
  191.6460  176.5390  143.3380 C   0  0  0  0  0  2  0  0  0  0  0  0
  190.0980  177.0820  141.4290 C   0  0  0  0  0  0  0  0  0  0  0  0
  190.3220  177.0430  142.8160 C   0  0  0  0  0  0  0  0  0  0  0  0
  188.1470  178.1030  143.1810 C   0  0  0  0  0  0  0  0  0  0  0  0
  190.3490  176.7170  136.4590 C   0  0  0  0  0  3  0  0  0  0  0  0
  190.8150  176.6380  139.2140 C   0  0  0  0  0  0  0  0  0  0  0  0
  189.3820  177.2130  137.3380 C   0  0  0  0  0  3  0  0  0  0  0  0
  189.5210  177.4770  145.1940 C   0  0  0  0  0  2  0  0  0  0  0  0
  189.3450  177.5720  143.6970 C   0  0  0  0  0  0  0  0  0  0  0  0
  188.6820  177.6530  139.5820 N   0  0  0  0  0  0  0  0  0  0  0  0
  187.9330  178.1220  141.7970 C   0  0  0  0  0  3  0  0  0  0  0  0
  192.5350  175.6790  136.0930 O   0  0  0  0  0  0  0  0  0  0  0  0
  193.8740  176.1580  136.0960 C   0  0  0  0  0  2  0  0  0  0  0  0
  195.8580  174.9690  135.2950 C   0  0  0  0  0  2  0  0  0  0  0  0
  196.1130  175.5170  136.5650 O   0  0  0  0  0  0  0  0  0  0  0  0
  194.8220  175.0040  136.3470 C   0  0  1  0  0  3  0  0  0  0  0  0
  187.1450  178.6050  144.0750 N   0  0  0  0  0  2  0  0  0  0  0  0
  185.9230  177.8830  144.4100 C   0  0  2  0  0  3  0  0  0  0  0  0
  183.9420  178.6390  142.9950 C   0  0  1  0  0  3  0  0  0  0  0  0
  184.4850  177.6630  142.1530 O   0  0  0  0  0  1  0  0  0  0  0  0
  184.7040  178.7990  144.2700 C   0  0  2  0  0  3  0  0  0  0  0  0
  184.8820  179.6700  143.1780 O   0  0  0  0  0  0  0  0  0  0  0  0
  186.0170  177.3140  145.8230 C   0  0  0  0  0  2  0  0  0  0  0  0
  185.9330  178.6120  147.1000 S   0  0  0  0  0  0  0  0  0  0  0  0
  187.4680  178.0380  147.8760 C   0  0  0  0  0  1  0  0  0  0  0  0
  1  7  1  0  0  0  0
  2  9  1  0  0  0  0
  2 18  1  0  0  0  0
  3  4  1  0  0  0  0
  5 13  1  0  0  0  0
  5 17  1  0  0  0  0
  6  9  2  0  0  0  0
  7 13  2  0  0  0  0
  8  3  1  0  0  0  0
  9 10  1  0  0  0  0
 10  8  1  0  0  0  0
 10 16  2  0  0  0  0
 11 16  1  0  0  0  0
 11 24  1  0  0  0  0
 12  1  2  0  0  0  0
 12 14  1  0  0  0  0
 13  6  1  0  0  0  0
 14  5  2  0  0  0  0
 15  4  1  0  0  0  0
 16 15  1  0  0  0  0
 17  2  2  0  0  0  0
 18 11  2  0  0  0  0
 19 20  1  0  0  0  0
 19  1  1  0  0  0  0
 21 23  1  0  0  0  0
 21 22  1  0  0  0  0
 23 20  1  6  0  0  0
 23 22  1  0  0  0  0
 24 25  1  0  0  0  0
 25 30  1  1  0  0  0
 26 27  1  6  0  0  0
 26 29  1  0  0  0  0
 26 28  1  0  0  0  0
 28 25  1  6  0  0  0
 29 28  1  0  0  0  0
 30 31  1  0  0  0  0
 31 32  1  0  0  0  0
M  END
>  <MODEL>
8

>  <REMARK>
 VINA RESULT:      -7.0      2.948      9.570
  Name = 
  8 active torsions:
  status: ('A' for Active; 'I' for Inactive)
    1  A    between atoms: C_2  and  O_24
    2  A    between atoms: S_6  and  C_7
    3  A    between atoms: C_7  and  C_32
    4  A    between atoms: C_10  and  C_20
    5  A    between atoms: C_10  and  O_24
    6  A    between atoms: C_16  and  N_27
    7  A    between atoms: C_22  and  C_32
    8  A    between atoms: N_27  and  C_32
                            x       y       z     vdW  Elec       q    Type
                         _______ _______ _______ _____ _____    ______ ____

>  <TORSDO>
F 8

$$$$
=
 OpenBabel10272413343D

 32 37  0  0  1  0  0  0  0  0999 V2000
  192.6460  175.3280  136.7490 C   0  0  0  0  0  0  0  0  0  0  0  0
  188.8900  177.5140  139.2050 C   0  0  0  0  0  0  0  0  0  0  0  0
  189.7740  176.5080  143.9720 C   0  0  0  0  0  2  0  0  0  0  0  0
  189.0490  177.7940  144.3260 C   0  0  0  0  0  2  0  0  0  0  0  0
  190.3140  176.6930  137.5070 C   0  0  0  0  0  0  0  0  0  0  0  0
  190.8780  176.3300  139.8020 N   0  0  0  0  0  0  0  0  0  0  0  0
  192.3410  175.4900  138.1050 C   0  0  0  0  0  3  0  0  0  0  0  0
  190.4140  176.6550  142.5960 C   0  0  0  0  0  2  0  0  0  0  0  0
  189.7510  176.9890  140.1910 C   0  0  0  0  0  0  0  0  0  0  0  0
  189.4420  177.1500  141.5530 C   0  0  0  0  0  0  0  0  0  0  0  0
  187.4200  178.3790  140.9310 C   0  0  0  0  0  0  0  0  0  0  0  0
  191.7770  175.8530  135.7750 C   0  0  0  0  0  3  0  0  0  0  0  0
  191.1810  176.1690  138.4880 C   0  0  0  0  0  0  0  0  0  0  0  0
  190.6160  176.5340  136.1520 C   0  0  0  0  0  3  0  0  0  0  0  0
  187.8740  177.9890  143.3750 C   0  0  0  0  0  2  0  0  0  0  0  0
  188.2750  177.8640  141.9240 C   0  0  0  0  0  0  0  0  0  0  0  0
  189.1910  177.3530  137.8900 N   0  0  0  0  0  0  0  0  0  0  0  0
  187.7360  178.1990  139.5790 C   0  0  0  0  0  3  0  0  0  0  0  0
  193.8120  174.6440  136.3970 O   0  0  0  0  0  0  0  0  0  0  0  0
  194.3860  173.6340  137.2160 C   0  0  0  0  0  2  0  0  0  0  0  0
  195.7310  174.2880  139.1540 C   0  0  0  0  0  2  0  0  0  0  0  0
  196.2640  173.1210  138.5780 O   0  0  0  0  0  0  0  0  0  0  0  0
  195.7510  174.0840  137.6910 C   0  0  1  0  0  3  0  0  0  0  0  0
  186.2220  179.0700  141.3080 N   0  0  0  0  0  2  0  0  0  0  0  0
  184.8800  178.5370  141.1040 C   0  0  2  0  0  3  0  0  0  0  0  0
  183.8360  178.9810  138.8220 C   0  0  1  0  0  3  0  0  0  0  0  0
  184.4180  177.7310  138.5840 O   0  0  0  0  0  1  0  0  0  0  0  0
  184.0610  179.4750  140.2130 C   0  0  2  0  0  3  0  0  0  0  0  0
  184.8440  179.9120  139.1300 O   0  0  0  0  0  0  0  0  0  0  0  0
  184.1900  178.3180  142.4480 C   0  0  0  0  0  2  0  0  0  0  0  0
  184.7080  179.5370  143.7000 S   0  0  0  0  0  0  0  0  0  0  0  0
  183.3300  179.0990  144.7920 C   0  0  0  0  0  1  0  0  0  0  0  0
  1  7  1  0  0  0  0
  2 18  1  0  0  0  0
  2  9  1  0  0  0  0
  3  4  1  0  0  0  0
  5 17  1  0  0  0  0
  5 13  1  0  0  0  0
  6  9  2  0  0  0  0
  7 13  2  0  0  0  0
  8  3  1  0  0  0  0
  9 10  1  0  0  0  0
 10 16  2  0  0  0  0
 10  8  1  0  0  0  0
 11 24  1  0  0  0  0
 11 16  1  0  0  0  0
 12 14  1  0  0  0  0
 12  1  2  0  0  0  0
 13  6  1  0  0  0  0
 14  5  2  0  0  0  0
 15  4  1  0  0  0  0
 16 15  1  0  0  0  0
 17  2  2  0  0  0  0
 18 11  2  0  0  0  0
 19  1  1  0  0  0  0
 19 20  1  0  0  0  0
 22 21  1  0  0  0  0
 23 20  1  1  0  0  0
 23 22  1  0  0  0  0
 23 21  1  0  0  0  0
 25 24  1  0  0  0  0
 25 30  1  1  0  0  0
 26 27  1  1  0  0  0
 26 29  1  0  0  0  0
 26 28  1  0  0  0  0
 28 25  1  1  0  0  0
 29 28  1  0  0  0  0
 30 31  1  0  0  0  0
 31 32  1  0  0  0  0
M  END
>  <MODEL>
9

>  <REMARK>
 VINA RESULT:      -6.9      3.356      9.007
  Name = 
  8 active torsions:
  status: ('A' for Active; 'I' for Inactive)
    1  A    between atoms: C_2  and  O_24
    2  A    between atoms: S_6  and  C_7
    3  A    between atoms: C_7  and  C_32
    4  A    between atoms: C_10  and  C_20
    5  A    between atoms: C_10  and  O_24
    6  A    between atoms: C_16  and  N_27
    7  A    between atoms: C_22  and  C_32
    8  A    between atoms: N_27  and  C_32
                            x       y       z     vdW  Elec       q    Type
                         _______ _______ _______ _____ _____    ______ ____

>  <TORSDO>
F 8

$$$$
