=
 OpenBabel10272401443D

 55 55  0  0  1  0  0  0  0  0999 V2000
  186.3840  178.0850  140.2940 C   0  0  2  0  0  3  0  0  0  0  0  0
  188.5260  179.1370  140.5860 O   0  0  0  0  0  0  0  0  0  0  0  0
  187.7840  178.1510  140.8390 C   0  0  0  0  0  0  0  0  0  0  0  0
  188.2720  177.0950  141.6560 N   0  0  0  0  0  1  0  0  0  0  0  0
  186.3640  178.1760  138.7570 C   0  0  2  0  0  3  0  0  0  0  0  0
  185.3330  177.2330  138.1420 C   0  0  0  0  0  1  0  0  0  0  0  0
  188.0830  179.1680  137.4240 O   0  0  0  0  0  1  0  0  0  0  0  0
  187.7450  177.9960  138.1050 C   0  0  2  0  0  3  0  0  0  0  0  0
  187.4770  177.1490  135.8620 O   0  0  0  0  0  1  0  0  0  0  0  0
  187.8060  176.7820  137.1680 C   0  0  1  0  0  3  0  0  0  0  0  0
  189.2030  176.1850  137.1790 C   0  0  0  0  0  2  0  0  0  0  0  0
  189.2910  174.9450  136.2910 C   0  0  1  0  0  3  0  0  0  0  0  0
  191.2030  173.5460  135.9030 O   0  0  0  0  0  1  0  0  0  0  0  0
  190.6670  174.8060  135.6260 C   0  0  2  0  0  3  0  0  0  0  0  0
  191.6410  175.9000  136.0630 C   0  0  0  0  0  2  0  0  0  0  0  0
  192.5410  175.4150  137.0540 O   0  0  0  0  0  0  0  0  0  0  0  0
  193.9040  175.7280  137.0500 C   0  0  0  0  0  0  0  0  0  0  0  0
  194.2990  176.8850  136.7410 O   0  0  0  0  0  0  0  0  0  0  0  0
  194.8830  174.7010  137.4250 C   0  0  0  0  0  0  0  0  0  0  0  0
  196.0820  175.0210  137.6420 O   0  0  0  0  0  0  0  0  0  0  0  0
  194.4860  173.3370  137.5270 N   0  0  0  0  0  1  0  0  0  0  0  0
  188.9350  173.6980  137.0920 C   0  0  0  0  0  2  0  0  0  0  0  0
  188.0540  172.8650  136.3530 O   0  0  0  0  0  0  0  0  0  0  0  0
  186.0770  173.0060  134.9840 C   0  0  0  0  0  3  0  0  0  0  0  0
  184.5600  173.8190  137.1900 C   0  0  0  0  0  0  0  0  0  0  0  0
  185.9240  173.5530  137.3370 C   0  0  0  0  0  3  0  0  0  0  0  0
  184.7120  173.2710  134.8360 C   0  0  0  0  0  3  0  0  0  0  0  0
  186.6910  173.1420  136.2330 C   0  0  0  0  0  0  0  0  0  0  0  0
  183.8270  174.2120  138.2580 F   0  0  0  0  0  0  0  0  0  0  0  0
  183.9540  173.6760  135.9390 C   0  0  0  0  0  3  0  0  0  0  0  0
  186.1840  180.0880  141.6830 O   0  0  0  0  0  1  0  0  0  0  0  0
  185.4750  179.1650  140.9110 C   0  0  2  0  0  3  0  0  0  0  0  0
  184.2040  178.6670  141.6200 C   0  0  2  0  0  3  0  0  0  0  0  0
  185.7530  177.7590  143.2560 O   0  0  0  0  0  1  0  0  0  0  0  0
  184.4040  178.0210  143.0010 C   0  0  1  0  0  3  0  0  0  0  0  0
  183.6040  180.2560  143.7760 O   0  0  0  0  0  0  0  0  0  0  0  0
  183.8760  178.9280  144.0670 C   0  0  0  0  0  0  0  0  0  0  0  0
  183.7070  178.5010  145.2410 O   0  0  0  0  0  1  0  0  0  0  0  0
  183.4030  177.7350  140.7040 C   0  0  0  0  0  2  0  0  0  0  0  0
  182.0830  178.3490  140.2210 C   0  0  2  0  0  0  0  0  0  0  0  0
  182.9640  180.2160  138.8800 O   0  0  0  0  0  1  0  0  0  0  0  0
  182.3760  178.9490  138.8130 C   0  0  2  0  0  3  0  0  0  0  0  0
  181.1520  178.9670  137.8820 C   0  0  1  0  0  3  0  0  0  0  0  0
  180.7790  180.2760  137.5680 O   0  0  0  0  0  1  0  0  0  0  0  0
  180.2600  177.6850  135.8240 C   0  0  0  0  0  1  0  0  0  0  0  0
  181.4080  178.1910  136.6250 C   0  0  0  0  0  0  0  0  0  0  0  0
  182.5500  177.9840  136.2420 O   0  0  0  0  0  0  0  0  0  0  0  0
  181.7350  179.4530  141.2500 C   0  0  0  0  0  2  0  0  0  0  0  0
  180.4320  179.9400  141.1120 O   0  0  0  0  0  0  0  0  0  0  0  0
  179.9900  180.1290  142.4210 C   0  0  0  0  0  2  0  0  0  0  0  0
  180.2260  178.8610  143.2190 C   0  0  0  0  0  1  0  0  0  0  0  0
  181.1220  177.2980  140.1910 O   0  0  0  0  0  0  0  0  0  0  0  0
  181.7280  176.0520  139.9650 C   0  0  0  0  0  2  0  0  0  0  0  0
  180.8090  175.1820  139.1280 C   0  0  0  0  0  2  0  0  0  0  0  0
  180.0630  174.3450  139.9570 O   0  0  0  0  0  1  0  0  0  0  0  0
  1  3  1  1  0  0  0
  1 32  1  0  0  0  0
  2  3  2  0  0  0  0
  3  4  1  0  0  0  0
  5  6  1  6  0  0  0
  5  1  1  0  0  0  0
  8  7  1  6  0  0  0
  8  5  1  0  0  0  0
 10  9  1  6  0  0  0
 10 11  1  0  0  0  0
 10  8  1  0  0  0  0
 12 22  1  1  0  0  0
 12 11  1  0  0  0  0
 14 13  1  1  0  0  0
 14 15  1  0  0  0  0
 14 12  1  0  0  0  0
 15 16  1  0  0  0  0
 17 16  1  0  0  0  0
 17 19  1  0  0  0  0
 18 17  2  0  0  0  0
 19 21  1  0  0  0  0
 19 20  2  0  0  0  0
 23 22  1  0  0  0  0
 24 28  1  0  0  0  0
 25 26  1  0  0  0  0
 25 29  1  0  0  0  0
 27 24  2  0  0  0  0
 27 30  1  0  0  0  0
 28 23  1  0  0  0  0
 28 26  2  0  0  0  0
 30 25  2  0  0  0  0
 32 33  1  0  0  0  0
 32 31  1  1  0  0  0
 33 39  1  6  0  0  0
 33 35  1  0  0  0  0
 35 34  1  1  0  0  0
 35 37  1  0  0  0  0
 36 37  2  0  0  0  0
 37 38  1  0  0  0  0
 40 39  1  1  0  0  0
 40 48  1  0  0  0  0
 42 41  1  1  0  0  0
 42 40  1  0  0  0  0
 43 44  1  6  0  0  0
 43 42  1  0  0  0  0
 45 46  1  0  0  0  0
 46 43  1  0  0  0  0
 47 46  2  0  0  0  0
 49 48  1  0  0  0  0
 49 50  1  0  0  0  0
 50 51  1  0  0  0  0
 52 40  1  0  0  0  0
 53 52  1  0  0  0  0
 54 55  1  0  0  0  0
 54 53  1  0  0  0  0
M  END
>  <MODEL>
1

>  <REMARK>
 VINA RESULT:      -4.0      0.000      0.000
  Name = 
  29 active torsions:
  status: ('A' for Active; 'I' for Inactive)
    1  A    between atoms: C_1  and  C_30
    2  A    between atoms: O_2  and  C_28
    3  A    between atoms: O_2  and  C_44
    4  A    between atoms: C_6  and  C_8
    5  A    between atoms: C_6  and  O_20
    6  A    between atoms: C_6  and  C_38
    7  A    between atoms: C_6  and  C_46
    8  A    between atoms: C_7  and  C_8
    9  A    between atoms: C_7  and  C_23
   10  A    between atoms: C_7  and  C_43
   11  A    between atoms: C_10  and  C_32
   12  A    between atoms: C_11  and  C_29
   13  A    between atoms: C_11  and  C_38
   14  A    between atoms: C_12  and  O_14
   15  A    between atoms: O_14  and  C_46
   16  A    between atoms: C_16  and  C_17
   17  A    between atoms: C_16  and  C_26
   18  A    between atoms: C_17  and  C_23
   19  A    between atoms: C_17  and  C_37
   20  A    between atoms: O_20  and  C_30
   21  A    between atoms: C_26  and  C_45
   22  A    between atoms: C_28  and  C_33
   23  A    between atoms: C_32  and  O_39
   24  A    between atoms: C_33  and  C_49
   25  A    between atoms: C_33  and  C_52
   26  A    between atoms: C_34  and  O_39
   27  A    between atoms: C_34  and  C_52
   28  A    between atoms: C_35  and  C_43
   29  A    between atoms: C_45  and  C_49
                            x       y       z     vdW  Elec       q    Type
                         _______ _______ _______ _____ _____    ______ ____

>  <TORSDO>
F 29

$$$$
=
 OpenBabel10272401443D

 55 55  0  0  1  0  0  0  0  0999 V2000
  189.7360  177.1450  141.5290 C   0  0  2  0  0  3  0  0  0  0  0  0
  191.7700  177.7900  142.6390 O   0  0  0  0  0  0  0  0  0  0  0  0
  190.9090  176.8920  142.4360 C   0  0  0  0  0  0  0  0  0  0  0  0
  191.0420  175.6320  143.0790 N   0  0  0  0  0  1  0  0  0  0  0  0
  190.1780  177.3580  140.0700 C   0  0  2  0  0  3  0  0  0  0  0  0
  189.0370  177.1110  139.0860 C   0  0  0  0  0  1  0  0  0  0  0  0
  192.5480  177.4060  139.7630 O   0  0  0  0  0  1  0  0  0  0  0  0
  191.4350  176.5650  139.6780 C   0  0  2  0  0  3  0  0  0  0  0  0
  191.2020  176.9240  137.3040 O   0  0  0  0  0  1  0  0  0  0  0  0
  191.3300  175.9360  138.2820 C   0  0  1  0  0  3  0  0  0  0  0  0
  192.5680  175.1060  137.9900 C   0  0  0  0  0  2  0  0  0  0  0  0
  192.5740  174.5950  136.5500 C   0  0  1  0  0  3  0  0  0  0  0  0
  193.9990  173.1540  135.2620 O   0  0  0  0  0  1  0  0  0  0  0  0
  193.9950  174.3130  136.0420 C   0  0  2  0  0  3  0  0  0  0  0  0
  195.0080  174.1850  137.1800 C   0  0  0  0  0  2  0  0  0  0  0  0
  196.0350  175.1630  137.0600 O   0  0  0  0  0  0  0  0  0  0  0  0
  197.2600  174.8950  136.4390 C   0  0  0  0  0  0  0  0  0  0  0  0
  198.0960  175.8180  136.2380 O   0  0  0  0  0  0  0  0  0  0  0  0
  197.5790  173.5230  136.0310 C   0  0  0  0  0  0  0  0  0  0  0  0
  197.3560  173.1480  134.8480 O   0  0  0  0  0  0  0  0  0  0  0  0
  198.1250  172.6040  136.9710 N   0  0  0  0  0  1  0  0  0  0  0  0
  191.6880  173.3600  136.4280 C   0  0  0  0  0  2  0  0  0  0  0  0
  190.5930  173.6170  135.5610 O   0  0  0  0  0  0  0  0  0  0  0  0
  188.7940  172.0190  135.4490 C   0  0  0  0  0  3  0  0  0  0  0  0
  187.1480  173.7080  136.9520 C   0  0  0  0  0  0  0  0  0  0  0  0
  188.4520  174.0990  136.6380 C   0  0  0  0  0  3  0  0  0  0  0  0
  187.4890  171.6270  135.7630 C   0  0  0  0  0  3  0  0  0  0  0  0
  189.2850  173.2530  135.8850 C   0  0  0  0  0  0  0  0  0  0  0  0
  186.3510  174.5260  137.6800 F   0  0  0  0  0  0  0  0  0  0  0  0
  186.6670  172.4710  136.5160 C   0  0  0  0  0  3  0  0  0  0  0  0
  189.5200  179.0910  142.9960 O   0  0  0  0  0  1  0  0  0  0  0  0
  188.8790  178.3310  142.0140 C   0  0  2  0  0  3  0  0  0  0  0  0
  187.4200  178.0170  142.3810 C   0  0  2  0  0  3  0  0  0  0  0  0
  187.7970  175.7420  143.1440 O   0  0  0  0  0  1  0  0  0  0  0  0
  187.2050  176.9630  143.4800 C   0  0  1  0  0  3  0  0  0  0  0  0
  188.9380  176.8550  145.2740 O   0  0  0  0  0  0  0  0  0  0  0  0
  187.7920  177.4480  144.7680 C   0  0  0  0  0  0  0  0  0  0  0  0
  187.2310  178.3730  145.4160 O   0  0  0  0  0  1  0  0  0  0  0  0
  186.6130  177.6550  141.1280 C   0  0  0  0  0  2  0  0  0  0  0  0
  185.3140  178.4600  140.9920 C   0  0  2  0  0  0  0  0  0  0  0  0
  184.4200  180.1300  139.4210 O   0  0  0  0  0  1  0  0  0  0  0  0
  185.3440  179.0900  139.5680 C   0  0  2  0  0  3  0  0  0  0  0  0
  185.1920  178.0640  138.4340 C   0  0  1  0  0  3  0  0  0  0  0  0
  183.9240  178.1420  137.8520 O   0  0  0  0  0  1  0  0  0  0  0  0
  186.2260  177.3930  136.1640 C   0  0  0  0  0  1  0  0  0  0  0  0
  186.2480  178.2430  137.3860 C   0  0  0  0  0  0  0  0  0  0  0  0
  187.1170  179.0920  137.5160 O   0  0  0  0  0  0  0  0  0  0  0  0
  185.3750  179.5420  142.0970 C   0  0  0  0  0  2  0  0  0  0  0  0
  184.1640  179.7020  142.7770 O   0  0  0  0  0  0  0  0  0  0  0  0
  184.5250  179.7710  144.1210 C   0  0  0  0  0  2  0  0  0  0  0  0
  183.6340  178.8470  144.9290 C   0  0  0  0  0  1  0  0  0  0  0  0
  184.2370  177.5450  141.1740 O   0  0  0  0  0  0  0  0  0  0  0  0
  182.9950  178.1590  140.9490 C   0  0  0  0  0  2  0  0  0  0  0  0
  181.9450  177.0990  140.6700 C   0  0  0  0  0  2  0  0  0  0  0  0
  182.4790  176.1040  139.8530 O   0  0  0  0  0  1  0  0  0  0  0  0
  1 32  1  0  0  0  0
  1  3  1  1  0  0  0
  3  2  2  0  0  0  0
  3  4  1  0  0  0  0
  5  6  1  6  0  0  0
  5  1  1  0  0  0  0
  8  7  1  6  0  0  0
  8  5  1  0  0  0  0
 10  9  1  6  0  0  0
 10  8  1  0  0  0  0
 11 10  1  0  0  0  0
 12 22  1  1  0  0  0
 12 11  1  0  0  0  0
 14 13  1  1  0  0  0
 14 12  1  0  0  0  0
 14 15  1  0  0  0  0
 16 15  1  0  0  0  0
 17 16  1  0  0  0  0
 18 17  2  0  0  0  0
 19 17  1  0  0  0  0
 19 21  1  0  0  0  0
 20 19  2  0  0  0  0
 23 28  1  0  0  0  0
 23 22  1  0  0  0  0
 24 27  2  0  0  0  0
 24 28  1  0  0  0  0
 25 29  1  0  0  0  0
 26 25  1  0  0  0  0
 27 30  1  0  0  0  0
 28 26  2  0  0  0  0
 30 25  2  0  0  0  0
 32 33  1  0  0  0  0
 32 31  1  1  0  0  0
 33 39  1  6  0  0  0
 33 35  1  0  0  0  0
 35 34  1  6  0  0  0
 35 37  1  0  0  0  0
 37 36  2  0  0  0  0
 37 38  1  0  0  0  0
 40 39  1  1  0  0  0
 40 52  1  0  0  0  0
 40 48  1  0  0  0  0
 42 41  1  1  0  0  0
 42 40  1  0  0  0  0
 43 44  1  6  0  0  0
 43 42  1  0  0  0  0
 45 46  1  0  0  0  0
 46 47  2  0  0  0  0
 46 43  1  0  0  0  0
 48 49  1  0  0  0  0
 49 50  1  0  0  0  0
 50 51  1  0  0  0  0
 53 52  1  0  0  0  0
 54 53  1  0  0  0  0
 55 54  1  0  0  0  0
M  END
>  <MODEL>
2

>  <REMARK>
 VINA RESULT:      -4.0      2.354      3.705
  Name = 
  29 active torsions:
  status: ('A' for Active; 'I' for Inactive)
    1  A    between atoms: C_1  and  C_30
    2  A    between atoms: O_2  and  C_28
    3  A    between atoms: O_2  and  C_44
    4  A    between atoms: C_6  and  C_8
    5  A    between atoms: C_6  and  O_20
    6  A    between atoms: C_6  and  C_38
    7  A    between atoms: C_6  and  C_46
    8  A    between atoms: C_7  and  C_8
    9  A    between atoms: C_7  and  C_23
   10  A    between atoms: C_7  and  C_43
   11  A    between atoms: C_10  and  C_32
   12  A    between atoms: C_11  and  C_29
   13  A    between atoms: C_11  and  C_38
   14  A    between atoms: C_12  and  O_14
   15  A    between atoms: O_14  and  C_46
   16  A    between atoms: C_16  and  C_17
   17  A    between atoms: C_16  and  C_26
   18  A    between atoms: C_17  and  C_23
   19  A    between atoms: C_17  and  C_37
   20  A    between atoms: O_20  and  C_30
   21  A    between atoms: C_26  and  C_45
   22  A    between atoms: C_28  and  C_33
   23  A    between atoms: C_32  and  O_39
   24  A    between atoms: C_33  and  C_49
   25  A    between atoms: C_33  and  C_52
   26  A    between atoms: C_34  and  O_39
   27  A    between atoms: C_34  and  C_52
   28  A    between atoms: C_35  and  C_43
   29  A    between atoms: C_45  and  C_49
                            x       y       z     vdW  Elec       q    Type
                         _______ _______ _______ _____ _____    ______ ____

>  <TORSDO>
F 29

$$$$
=
 OpenBabel10272401443D

 55 55  0  0  1  0  0  0  0  0999 V2000
  186.2520  177.5730  136.5880 C   0  0  2  0  0  3  0  0  0  0  0  0
  186.2040  178.4420  134.3470 O   0  0  0  0  0  0  0  0  0  0  0  0
  186.6860  177.5980  135.1490 C   0  0  0  0  0  0  0  0  0  0  0  0
  187.6580  176.6680  134.6900 N   0  0  0  0  0  1  0  0  0  0  0  0
  187.2110  178.3730  137.4890 C   0  0  2  0  0  3  0  0  0  0  0  0
  188.4150  178.9020  136.7140 C   0  0  0  0  0  1  0  0  0  0  0  0
  187.5910  178.4920  139.8460 O   0  0  0  0  0  1  0  0  0  0  0  0
  187.6480  177.6200  138.7560 C   0  0  2  0  0  3  0  0  0  0  0  0
  189.5640  177.2160  137.3470 O   0  0  0  0  0  1  0  0  0  0  0  0
  189.0440  176.9990  138.6250 C   0  0  1  0  0  3  0  0  0  0  0  0
  189.9840  177.6070  139.6520 C   0  0  0  0  0  2  0  0  0  0  0  0
  190.8750  176.5470  140.2960 C   0  0  1  0  0  3  0  0  0  0  0  0
  192.7170  178.0740  140.4990 O   0  0  0  0  0  1  0  0  0  0  0  0
  192.3650  176.8050  140.0330 C   0  0  2  0  0  3  0  0  0  0  0  0
  192.7300  176.6680  138.5540 C   0  0  0  0  0  2  0  0  0  0  0  0
  193.8260  175.7770  138.3810 O   0  0  0  0  0  0  0  0  0  0  0  0
  194.1930  175.2700  137.1290 C   0  0  0  0  0  0  0  0  0  0  0  0
  193.3860  174.5740  136.4540 O   0  0  0  0  0  0  0  0  0  0  0  0
  195.5260  175.5660  136.5930 C   0  0  0  0  0  0  0  0  0  0  0  0
  195.6580  176.3880  135.6470 O   0  0  0  0  0  0  0  0  0  0  0  0
  196.6730  174.9130  137.1250 N   0  0  0  0  0  1  0  0  0  0  0  0
  190.5850  176.4540  141.7900 C   0  0  0  0  0  2  0  0  0  0  0  0
  189.2740  176.9190  142.0730 O   0  0  0  0  0  0  0  0  0  0  0  0
  189.7850  177.3970  144.3780 C   0  0  0  0  0  3  0  0  0  0  0  0
  187.0600  177.4730  145.0070 C   0  0  0  0  0  0  0  0  0  0  0  0
  187.4690  177.2110  143.6970 C   0  0  0  0  0  3  0  0  0  0  0  0
  189.3760  177.6600  145.6890 C   0  0  0  0  0  3  0  0  0  0  0  0
  188.8370  177.1730  143.3740 C   0  0  0  0  0  0  0  0  0  0  0  0
  185.7410  177.5090  145.3110 F   0  0  0  0  0  0  0  0  0  0  0  0
  188.0140  177.6990  146.0030 C   0  0  0  0  0  3  0  0  0  0  0  0
  187.0980  175.2790  136.6630 O   0  0  0  0  0  1  0  0  0  0  0  0
  186.0890  176.1340  137.1150 C   0  0  2  0  0  3  0  0  0  0  0  0
  184.6910  175.5080  136.9790 C   0  0  2  0  0  3  0  0  0  0  0  0
  185.6930  174.0120  135.3480 O   0  0  0  0  0  1  0  0  0  0  0  0
  184.6140  174.1710  136.2240 C   0  0  1  0  0  3  0  0  0  0  0  0
  183.9030  171.8790  136.9140 O   0  0  0  0  0  0  0  0  0  0  0  0
  184.6110  173.0370  137.1990 C   0  0  0  0  0  0  0  0  0  0  0  0
  185.2220  173.1390  138.2980 O   0  0  0  0  0  1  0  0  0  0  0  0
  183.7030  176.5170  136.3830 C   0  0  0  0  0  2  0  0  0  0  0  0
  182.3810  176.6000  137.1580 C   0  0  2  0  0  0  0  0  0  0  0  0
  182.7000  175.6290  139.3980 O   0  0  0  0  0  1  0  0  0  0  0  0
  182.7700  176.8110  138.6520 C   0  0  2  0  0  3  0  0  0  0  0  0
  181.9830  177.9370  139.3420 C   0  0  1  0  0  3  0  0  0  0  0  0
  180.7510  177.4740  139.8120 O   0  0  0  0  0  1  0  0  0  0  0  0
  184.1370  179.0650  140.2150 C   0  0  0  0  0  1  0  0  0  0  0  0
  182.7660  178.5430  140.4680 C   0  0  0  0  0  0  0  0  0  0  0  0
  182.2830  178.6290  141.5870 O   0  0  0  0  0  0  0  0  0  0  0  0
  181.6820  175.2360  136.9380 C   0  0  0  0  0  2  0  0  0  0  0  0
  180.4330  175.1530  137.5600 O   0  0  0  0  0  0  0  0  0  0  0  0
  180.2250  173.7870  137.7430 C   0  0  0  0  0  2  0  0  0  0  0  0
  180.4140  173.0680  136.4210 C   0  0  0  0  0  1  0  0  0  0  0  0
  181.6480  177.6920  136.6130 O   0  0  0  0  0  0  0  0  0  0  0  0
  180.6130  177.2490  135.7730 C   0  0  0  0  0  2  0  0  0  0  0  0
  180.8800  177.7050  134.3500 C   0  0  0  0  0  2  0  0  0  0  0  0
  181.6340  178.8780  134.3600 O   0  0  0  0  0  1  0  0  0  0  0  0
  1  3  1  6  0  0  0
  1 32  1  0  0  0  0
  1  5  1  0  0  0  0
  2  3  2  0  0  0  0
  4  3  1  0  0  0  0
  5  6  1  6  0  0  0
  5  8  1  0  0  0  0
  8  7  1  1  0  0  0
 10  9  1  6  0  0  0
 10  8  1  0  0  0  0
 10 11  1  0  0  0  0
 12 11  1  1  0  0  0
 12 22  1  0  0  0  0
 14 12  1  0  0  0  0
 14 13  1  6  0  0  0
 15 14  1  0  0  0  0
 16 15  1  0  0  0  0
 17 16  1  0  0  0  0
 18 17  2  0  0  0  0
 19 21  1  0  0  0  0
 19 17  1  0  0  0  0
 20 19  2  0  0  0  0
 22 23  1  0  0  0  0
 23 28  1  0  0  0  0
 24 27  1  0  0  0  0
 25 29  1  0  0  0  0
 25 30  1  0  0  0  0
 26 25  2  0  0  0  0
 27 30  2  0  0  0  0
 28 26  1  0  0  0  0
 28 24  2  0  0  0  0
 32 31  1  6  0  0  0
 33 39  1  6  0  0  0
 33 32  1  0  0  0  0
 35 34  1  6  0  0  0
 35 33  1  0  0  0  0
 35 37  1  0  0  0  0
 36 37  2  0  0  0  0
 37 38  1  0  0  0  0
 40 39  1  6  0  0  0
 40 42  1  0  0  0  0
 42 43  1  0  0  0  0
 42 41  1  1  0  0  0
 43 44  1  1  0  0  0
 43 46  1  0  0  0  0
 45 46  1  0  0  0  0
 46 47  2  0  0  0  0
 48 40  1  0  0  0  0
 48 49  1  0  0  0  0
 49 50  1  0  0  0  0
 51 50  1  0  0  0  0
 52 40  1  0  0  0  0
 53 52  1  0  0  0  0
 54 55  1  0  0  0  0
 54 53  1  0  0  0  0
M  END
>  <MODEL>
3

>  <REMARK>
 VINA RESULT:      -3.5      2.844      6.163
  Name = 
  29 active torsions:
  status: ('A' for Active; 'I' for Inactive)
    1  A    between atoms: C_1  and  C_30
    2  A    between atoms: O_2  and  C_28
    3  A    between atoms: O_2  and  C_44
    4  A    between atoms: C_6  and  C_8
    5  A    between atoms: C_6  and  O_20
    6  A    between atoms: C_6  and  C_38
    7  A    between atoms: C_6  and  C_46
    8  A    between atoms: C_7  and  C_8
    9  A    between atoms: C_7  and  C_23
   10  A    between atoms: C_7  and  C_43
   11  A    between atoms: C_10  and  C_32
   12  A    between atoms: C_11  and  C_29
   13  A    between atoms: C_11  and  C_38
   14  A    between atoms: C_12  and  O_14
   15  A    between atoms: O_14  and  C_46
   16  A    between atoms: C_16  and  C_17
   17  A    between atoms: C_16  and  C_26
   18  A    between atoms: C_17  and  C_23
   19  A    between atoms: C_17  and  C_37
   20  A    between atoms: O_20  and  C_30
   21  A    between atoms: C_26  and  C_45
   22  A    between atoms: C_28  and  C_33
   23  A    between atoms: C_32  and  O_39
   24  A    between atoms: C_33  and  C_49
   25  A    between atoms: C_33  and  C_52
   26  A    between atoms: C_34  and  O_39
   27  A    between atoms: C_34  and  C_52
   28  A    between atoms: C_35  and  C_43
   29  A    between atoms: C_45  and  C_49
                            x       y       z     vdW  Elec       q    Type
                         _______ _______ _______ _____ _____    ______ ____

>  <TORSDO>
F 29

$$$$
=
 OpenBabel10272401443D

 55 55  0  0  1  0  0  0  0  0999 V2000
  189.5720  177.2060  141.3690 C   0  0  2  0  0  3  0  0  0  0  0  0
  191.7280  177.2480  142.4300 O   0  0  0  0  0  0  0  0  0  0  0  0
  190.6690  176.6050  142.2020 C   0  0  0  0  0  0  0  0  0  0  0  0
  190.5060  175.3020  142.7470 N   0  0  0  0  0  1  0  0  0  0  0  0
  190.1060  177.7680  140.0380 C   0  0  2  0  0  3  0  0  0  0  0  0
  189.0730  178.6410  139.3300 C   0  0  0  0  0  1  0  0  0  0  0  0
  192.0670  176.8040  139.0680 O   0  0  0  0  0  1  0  0  0  0  0  0
  190.6740  176.6960  139.0940 C   0  0  2  0  0  3  0  0  0  0  0  0
  189.9690  178.1160  137.2760 O   0  0  0  0  0  1  0  0  0  0  0  0
  190.0920  176.7840  137.6770 C   0  0  1  0  0  3  0  0  0  0  0  0
  190.9930  176.0520  136.6970 C   0  0  0  0  0  2  0  0  0  0  0  0
  190.4450  174.6670  136.3580 C   0  0  1  0  0  3  0  0  0  0  0  0
  192.4920  174.0900  137.4730 O   0  0  0  0  0  1  0  0  0  0  0  0
  191.3960  173.5450  136.8000 C   0  0  2  0  0  3  0  0  0  0  0  0
  191.8710  172.6860  135.6280 C   0  0  0  0  0  2  0  0  0  0  0  0
  193.2890  172.5540  135.6360 O   0  0  0  0  0  0  0  0  0  0  0  0
  193.9410  171.4880  136.2630 C   0  0  0  0  0  0  0  0  0  0  0  0
  193.5200  170.3060  136.1300 O   0  0  0  0  0  0  0  0  0  0  0  0
  195.1370  171.7470  137.0730 C   0  0  0  0  0  0  0  0  0  0  0  0
  195.9140  172.6910  136.7660 O   0  0  0  0  0  0  0  0  0  0  0  0
  195.4340  170.9250  138.1960 N   0  0  0  0  0  1  0  0  0  0  0  0
  189.0580  174.4870  136.9650 C   0  0  0  0  0  2  0  0  0  0  0  0
  188.1320  174.0680  135.9740 O   0  0  0  0  0  0  0  0  0  0  0  0
  186.0870  174.0870  137.2470 C   0  0  0  0  0  3  0  0  0  0  0  0
  185.2630  171.7060  136.0340 C   0  0  0  0  0  0  0  0  0  0  0  0
  186.4920  172.2760  135.6930 C   0  0  0  0  0  3  0  0  0  0  0  0
  184.8560  173.5170  137.5880 C   0  0  0  0  0  3  0  0  0  0  0  0
  186.9110  173.4740  136.2990 C   0  0  0  0  0  0  0  0  0  0  0  0
  184.8640  170.5520  135.4460 F   0  0  0  0  0  0  0  0  0  0  0  0
  184.4440  172.3280  136.9800 C   0  0  0  0  0  3  0  0  0  0  0  0
  189.5470  178.8710  143.1610 O   0  0  0  0  0  1  0  0  0  0  0  0
  188.7920  178.2900  142.1390 C   0  0  2  0  0  3  0  0  0  0  0  0
  187.3750  177.9150  142.6020 C   0  0  2  0  0  3  0  0  0  0  0  0
  187.8830  175.6570  143.3380 O   0  0  0  0  0  1  0  0  0  0  0  0
  187.2790  176.8600  143.7160 C   0  0  1  0  0  3  0  0  0  0  0  0
  187.4090  178.4510  145.6370 O   0  0  0  0  0  1  0  0  0  0  0  0
  187.9450  177.3690  144.9550 C   0  0  0  0  0  0  0  0  0  0  0  0
  189.0120  176.8390  145.3680 O   0  0  0  0  0  0  0  0  0  0  0  0
  186.5040  177.5120  141.4070 C   0  0  0  0  0  2  0  0  0  0  0  0
  185.3100  178.4500  141.1840 C   0  0  2  0  0  0  0  0  0  0  0  0
  184.4140  179.8580  139.3740 O   0  0  0  0  0  1  0  0  0  0  0  0
  185.4150  178.9380  139.7090 C   0  0  2  0  0  3  0  0  0  0  0  0
  185.4680  177.7960  138.6810 C   0  0  1  0  0  3  0  0  0  0  0  0
  184.1990  177.2530  138.4670 O   0  0  0  0  0  1  0  0  0  0  0  0
  185.6820  177.5630  136.1170 C   0  0  0  0  0  1  0  0  0  0  0  0
  186.0560  178.2560  137.3800 C   0  0  0  0  0  0  0  0  0  0  0  0
  186.8250  179.2040  137.3440 O   0  0  0  0  0  0  0  0  0  0  0  0
  185.5010  179.6140  142.1860 C   0  0  0  0  0  2  0  0  0  0  0  0
  185.4130  179.2080  143.5210 O   0  0  0  0  0  0  0  0  0  0  0  0
  184.4130  180.0130  144.0650 C   0  0  0  0  0  2  0  0  0  0  0  0
  183.4460  179.1490  144.8520 C   0  0  0  0  0  1  0  0  0  0  0  0
  184.1320  177.6900  141.4370 O   0  0  0  0  0  0  0  0  0  0  0  0
  182.9850  178.4990  141.4310 C   0  0  0  0  0  2  0  0  0  0  0  0
  181.8530  177.7760  140.7240 C   0  0  0  0  0  2  0  0  0  0  0  0
  180.6610  178.4790  140.8930 O   0  0  0  0  0  1  0  0  0  0  0  0
  1 32  1  0  0  0  0
  1  3  1  1  0  0  0
  3  2  2  0  0  0  0
  3  4  1  0  0  0  0
  5  6  1  6  0  0  0
  5  1  1  0  0  0  0
  8  7  1  6  0  0  0
  8  5  1  0  0  0  0
 10  9  1  6  0  0  0
 10  8  1  0  0  0  0
 11 10  1  0  0  0  0
 12 11  1  1  0  0  0
 12 14  1  0  0  0  0
 12 22  1  0  0  0  0
 14 13  1  6  0  0  0
 15 16  1  0  0  0  0
 15 14  1  0  0  0  0
 16 17  1  0  0  0  0
 17 19  1  0  0  0  0
 18 17  2  0  0  0  0
 19 21  1  0  0  0  0
 20 19  2  0  0  0  0
 23 28  1  0  0  0  0
 23 22  1  0  0  0  0
 24 27  1  0  0  0  0
 25 30  1  0  0  0  0
 26 25  2  0  0  0  0
 26 28  1  0  0  0  0
 28 24  2  0  0  0  0
 29 25  1  0  0  0  0
 30 27  2  0  0  0  0
 32 33  1  0  0  0  0
 32 31  1  1  0  0  0
 33 39  1  6  0  0  0
 33 35  1  0  0  0  0
 35 34  1  6  0  0  0
 35 37  1  0  0  0  0
 37 38  2  0  0  0  0
 37 36  1  0  0  0  0
 40 39  1  1  0  0  0
 40 52  1  0  0  0  0
 40 48  1  0  0  0  0
 42 41  1  6  0  0  0
 42 40  1  0  0  0  0
 43 44  1  6  0  0  0
 43 42  1  0  0  0  0
 45 46  1  0  0  0  0
 46 43  1  0  0  0  0
 47 46  2  0  0  0  0
 48 49  1  0  0  0  0
 49 50  1  0  0  0  0
 50 51  1  0  0  0  0
 53 52  1  0  0  0  0
 54 55  1  0  0  0  0
 54 53  1  0  0  0  0
M  END
>  <MODEL>
4

>  <REMARK>
 VINA RESULT:      -3.4      2.324      3.611
  Name = 
  29 active torsions:
  status: ('A' for Active; 'I' for Inactive)
    1  A    between atoms: C_1  and  C_30
    2  A    between atoms: O_2  and  C_28
    3  A    between atoms: O_2  and  C_44
    4  A    between atoms: C_6  and  C_8
    5  A    between atoms: C_6  and  O_20
    6  A    between atoms: C_6  and  C_38
    7  A    between atoms: C_6  and  C_46
    8  A    between atoms: C_7  and  C_8
    9  A    between atoms: C_7  and  C_23
   10  A    between atoms: C_7  and  C_43
   11  A    between atoms: C_10  and  C_32
   12  A    between atoms: C_11  and  C_29
   13  A    between atoms: C_11  and  C_38
   14  A    between atoms: C_12  and  O_14
   15  A    between atoms: O_14  and  C_46
   16  A    between atoms: C_16  and  C_17
   17  A    between atoms: C_16  and  C_26
   18  A    between atoms: C_17  and  C_23
   19  A    between atoms: C_17  and  C_37
   20  A    between atoms: O_20  and  C_30
   21  A    between atoms: C_26  and  C_45
   22  A    between atoms: C_28  and  C_33
   23  A    between atoms: C_32  and  O_39
   24  A    between atoms: C_33  and  C_49
   25  A    between atoms: C_33  and  C_52
   26  A    between atoms: C_34  and  O_39
   27  A    between atoms: C_34  and  C_52
   28  A    between atoms: C_35  and  C_43
   29  A    between atoms: C_45  and  C_49
                            x       y       z     vdW  Elec       q    Type
                         _______ _______ _______ _____ _____    ______ ____

>  <TORSDO>
F 29

$$$$
=
 OpenBabel10272401443D

 55 55  0  0  1  0  0  0  0  0999 V2000
  190.2880  177.6360  140.4330 C   0  0  2  0  0  3  0  0  0  0  0  0
  191.4860  177.3110  142.4920 O   0  0  0  0  0  0  0  0  0  0  0  0
  191.5370  177.4040  141.2360 C   0  0  0  0  0  0  0  0  0  0  0  0
  192.7880  177.2790  140.5720 N   0  0  0  0  0  1  0  0  0  0  0  0
  189.0210  177.5320  141.3030 C   0  0  2  0  0  3  0  0  0  0  0  0
  188.4760  178.9060  141.6850 C   0  0  0  0  0  1  0  0  0  0  0  0
  189.4130  175.3190  142.1190 O   0  0  0  0  0  1  0  0  0  0  0  0
  189.1880  176.6330  142.5390 C   0  0  2  0  0  3  0  0  0  0  0  0
  187.5860  175.4250  143.8770 O   0  0  0  0  0  1  0  0  0  0  0  0
  187.9870  176.7050  143.4920 C   0  0  1  0  0  3  0  0  0  0  0  0
  188.3530  177.5040  144.7310 C   0  0  0  0  0  2  0  0  0  0  0  0
  187.1310  177.7700  145.6090 C   0  0  1  0  0  3  0  0  0  0  0  0
  186.5740  178.2840  147.8870 O   0  0  0  0  0  1  0  0  0  0  0  0
  187.4150  177.5000  147.0930 C   0  0  2  0  0  3  0  0  0  0  0  0
  188.8760  177.7550  147.4640 C   0  0  0  0  0  2  0  0  0  0  0  0
  189.7020  176.6710  147.0540 O   0  0  0  0  0  0  0  0  0  0  0  0
  191.0300  176.8470  146.6510 C   0  0  0  0  0  0  0  0  0  0  0  0
  191.3530  177.8050  145.8950 O   0  0  0  0  0  0  0  0  0  0  0  0
  192.0590  175.9150  147.1260 C   0  0  0  0  0  0  0  0  0  0  0  0
  192.4180  174.9490  146.4010 O   0  0  0  0  0  0  0  0  0  0  0  0
  192.6430  176.0880  148.4120 N   0  0  0  0  0  1  0  0  0  0  0  0
  186.6270  179.1920  145.3910 C   0  0  0  0  0  2  0  0  0  0  0  0
  185.2090  179.2340  145.4630 O   0  0  0  0  0  0  0  0  0  0  0  0
  184.9800  179.0200  143.0740 C   0  0  0  0  0  3  0  0  0  0  0  0
  182.2310  178.5770  143.3380 C   0  0  0  0  0  0  0  0  0  0  0  0
  183.0160  178.7960  144.4720 C   0  0  0  0  0  3  0  0  0  0  0  0
  184.1940  178.8010  141.9390 C   0  0  0  0  0  3  0  0  0  0  0  0
  184.3990  179.0170  144.3460 C   0  0  0  0  0  0  0  0  0  0  0  0
  180.9000  178.3630  143.4660 F   0  0  0  0  0  0  0  0  0  0  0  0
  182.8200  178.5780  142.0710 C   0  0  0  0  0  3  0  0  0  0  0  0
  191.3700  175.9550  139.0230 O   0  0  0  0  0  1  0  0  0  0  0  0
  190.1940  176.6820  139.2260 C   0  0  2  0  0  3  0  0  0  0  0  0
  189.6480  177.2820  137.9200 C   0  0  2  0  0  3  0  0  0  0  0  0
  189.3490  179.5280  137.0440 O   0  0  0  0  0  1  0  0  0  0  0  0
  188.9330  178.6380  138.0390 C   0  0  1  0  0  3  0  0  0  0  0  0
  186.7770  178.8960  136.8060 O   0  0  0  0  0  0  0  0  0  0  0  0
  187.4540  178.4430  137.9280 C   0  0  0  0  0  0  0  0  0  0  0  0
  186.8110  177.8970  138.8650 O   0  0  0  0  0  1  0  0  0  0  0  0
  188.7570  176.2700  137.1910 C   0  0  0  0  0  2  0  0  0  0  0  0
  189.2630  175.9200  135.7850 C   0  0  2  0  0  0  0  0  0  0  0  0
  187.8400  173.9160  135.6470 O   0  0  0  0  0  1  0  0  0  0  0  0
  189.1640  174.3700  135.6640 C   0  0  2  0  0  3  0  0  0  0  0  0
  189.9840  173.6140  136.7220 C   0  0  1  0  0  3  0  0  0  0  0  0
  189.1760  172.7390  137.4530 O   0  0  0  0  0  1  0  0  0  0  0  0
  190.8660  171.9670  134.9380 C   0  0  0  0  0  1  0  0  0  0  0  0
  191.1210  172.8620  136.1000 C   0  0  0  0  0  0  0  0  0  0  0  0
  192.2600  172.9900  136.5250 O   0  0  0  0  0  0  0  0  0  0  0  0
  190.7330  176.4040  135.7380 C   0  0  0  0  0  2  0  0  0  0  0  0
  191.4230  175.9530  134.6100 O   0  0  0  0  0  0  0  0  0  0  0  0
  192.7570  176.2610  134.8700 C   0  0  0  0  0  2  0  0  0  0  0  0
  193.0000  176.2170  136.3670 C   0  0  0  0  0  1  0  0  0  0  0  0
  188.4260  176.6070  134.8600 O   0  0  0  0  0  0  0  0  0  0  0  0
  187.0760  176.5450  135.2420 C   0  0  0  0  0  2  0  0  0  0  0  0
  186.3360  175.5680  134.3470 C   0  0  0  0  0  2  0  0  0  0  0  0
  184.9590  175.7270  134.5050 O   0  0  0  0  0  1  0  0  0  0  0  0
  1  3  1  1  0  0  0
  1  5  1  0  0  0  0
  3  2  2  0  0  0  0
  4  3  1  0  0  0  0
  5  6  1  1  0  0  0
  5  8  1  0  0  0  0
  8  7  1  6  0  0  0
  8 10  1  0  0  0  0
 10  9  1  1  0  0  0
 10 11  1  0  0  0  0
 12 11  1  6  0  0  0
 12 14  1  0  0  0  0
 14 15  1  0  0  0  0
 14 13  1  1  0  0  0
 16 15  1  0  0  0  0
 17 16  1  0  0  0  0
 17 19  1  0  0  0  0
 18 17  2  0  0  0  0
 19 21  1  0  0  0  0
 20 19  2  0  0  0  0
 22 23  1  0  0  0  0
 22 12  1  0  0  0  0
 24 28  1  0  0  0  0
 25 29  1  0  0  0  0
 25 26  1  0  0  0  0
 27 30  1  0  0  0  0
 27 24  2  0  0  0  0
 28 26  2  0  0  0  0
 28 23  1  0  0  0  0
 30 25  2  0  0  0  0
 32 31  1  6  0  0  0
 32  1  1  0  0  0  0
 33 39  1  1  0  0  0
 33 35  1  0  0  0  0
 33 32  1  0  0  0  0
 35 34  1  6  0  0  0
 36 37  2  0  0  0  0
 37 35  1  0  0  0  0
 37 38  1  0  0  0  0
 40 48  1  6  0  0  0
 40 39  1  0  0  0  0
 42 41  1  1  0  0  0
 42 40  1  0  0  0  0
 42 43  1  0  0  0  0
 43 44  1  6  0  0  0
 45 46  1  0  0  0  0
 46 47  2  0  0  0  0
 46 43  1  0  0  0  0
 49 50  1  0  0  0  0
 49 48  1  0  0  0  0
 50 51  1  0  0  0  0
 52 53  1  0  0  0  0
 52 40  1  0  0  0  0
 54 55  1  0  0  0  0
 54 53  1  0  0  0  0
M  END
>  <MODEL>
5

>  <REMARK>
 VINA RESULT:      -3.3      3.505      9.159
  Name = 
  29 active torsions:
  status: ('A' for Active; 'I' for Inactive)
    1  A    between atoms: C_1  and  C_30
    2  A    between atoms: O_2  and  C_28
    3  A    between atoms: O_2  and  C_44
    4  A    between atoms: C_6  and  C_8
    5  A    between atoms: C_6  and  O_20
    6  A    between atoms: C_6  and  C_38
    7  A    between atoms: C_6  and  C_46
    8  A    between atoms: C_7  and  C_8
    9  A    between atoms: C_7  and  C_23
   10  A    between atoms: C_7  and  C_43
   11  A    between atoms: C_10  and  C_32
   12  A    between atoms: C_11  and  C_29
   13  A    between atoms: C_11  and  C_38
   14  A    between atoms: C_12  and  O_14
   15  A    between atoms: O_14  and  C_46
   16  A    between atoms: C_16  and  C_17
   17  A    between atoms: C_16  and  C_26
   18  A    between atoms: C_17  and  C_23
   19  A    between atoms: C_17  and  C_37
   20  A    between atoms: O_20  and  C_30
   21  A    between atoms: C_26  and  C_45
   22  A    between atoms: C_28  and  C_33
   23  A    between atoms: C_32  and  O_39
   24  A    between atoms: C_33  and  C_49
   25  A    between atoms: C_33  and  C_52
   26  A    between atoms: C_34  and  O_39
   27  A    between atoms: C_34  and  C_52
   28  A    between atoms: C_35  and  C_43
   29  A    between atoms: C_45  and  C_49
                            x       y       z     vdW  Elec       q    Type
                         _______ _______ _______ _____ _____    ______ ____

>  <TORSDO>
F 29

$$$$
=
 OpenBabel10272401443D

 55 55  0  0  1  0  0  0  0  0999 V2000
  189.6930  177.4760  140.6660 C   0  0  2  0  0  3  0  0  0  0  0  0
  191.0360  175.9870  141.9920 O   0  0  0  0  0  0  0  0  0  0  0  0
  190.8060  177.1710  141.6300 C   0  0  0  0  0  0  0  0  0  0  0  0
  191.6130  178.2290  142.1310 N   0  0  0  0  0  1  0  0  0  0  0  0
  188.3150  177.4330  141.3520 C   0  0  2  0  0  3  0  0  0  0  0  0
  187.5640  178.7550  141.2070 C   0  0  0  0  0  1  0  0  0  0  0  0
  189.0630  175.7690  142.8960 O   0  0  0  0  0  1  0  0  0  0  0  0
  188.3630  176.9760  142.8190 C   0  0  2  0  0  3  0  0  0  0  0  0
  186.9780  175.8930  144.4700 O   0  0  0  0  0  1  0  0  0  0  0  0
  186.9700  176.8410  143.4450 C   0  0  1  0  0  3  0  0  0  0  0  0
  186.5220  178.1780  144.0120 C   0  0  0  0  0  2  0  0  0  0  0  0
  185.2340  178.0420  144.8220 C   0  0  1  0  0  3  0  0  0  0  0  0
  184.2800  178.4130  146.9940 O   0  0  0  0  0  1  0  0  0  0  0  0
  185.4840  178.1590  146.3320 C   0  0  2  0  0  3  0  0  0  0  0  0
  186.5100  179.2400  146.6720 C   0  0  0  0  0  2  0  0  0  0  0  0
  187.8370  178.7610  146.4810 O   0  0  0  0  0  0  0  0  0  0  0  0
  188.4310  177.8290  147.3400 C   0  0  0  0  0  0  0  0  0  0  0  0
  187.9710  177.6360  148.4990 O   0  0  0  0  0  0  0  0  0  0  0  0
  189.5910  177.0590  146.8800 C   0  0  0  0  0  0  0  0  0  0  0  0
  189.9900  176.0630  147.5410 O   0  0  0  0  0  0  0  0  0  0  0  0
  190.2810  177.4420  145.6950 N   0  0  0  0  0  1  0  0  0  0  0  0
  184.2060  179.0660  144.3500 C   0  0  0  0  0  2  0  0  0  0  0  0
  182.9960  178.4220  143.9790 O   0  0  0  0  0  0  0  0  0  0  0  0
  181.0130  179.5450  143.1980 C   0  0  0  0  0  3  0  0  0  0  0  0
  181.7790  179.1330  140.5390 C   0  0  0  0  0  0  0  0  0  0  0  0
  182.5860  178.6670  141.5810 C   0  0  0  0  0  3  0  0  0  0  0  0
  180.2060  180.0120  142.1560 C   0  0  0  0  0  3  0  0  0  0  0  0
  182.2070  178.8720  142.9190 C   0  0  0  0  0  0  0  0  0  0  0  0
  182.1500  178.9330  139.2530 F   0  0  0  0  0  0  0  0  0  0  0  0
  180.5900  179.8070  140.8280 C   0  0  0  0  0  3  0  0  0  0  0  0
  190.9260  175.8460  139.3210 O   0  0  0  0  0  1  0  0  0  0  0  0
  189.7180  176.5380  139.4440 C   0  0  2  0  0  3  0  0  0  0  0  0
  189.2550  177.1420  138.1070 C   0  0  2  0  0  3  0  0  0  0  0  0
  189.3350  179.4560  137.3750 O   0  0  0  0  0  1  0  0  0  0  0  0
  188.6350  178.5470  138.1730 C   0  0  1  0  0  3  0  0  0  0  0  0
  186.8370  179.1360  136.5430 O   0  0  0  0  0  0  0  0  0  0  0  0
  187.2120  178.4960  137.7150 C   0  0  0  0  0  0  0  0  0  0  0  0
  186.3410  177.9010  138.4050 O   0  0  0  0  0  1  0  0  0  0  0  0
  188.3160  176.1770  137.3740 C   0  0  0  0  0  2  0  0  0  0  0  0
  189.0100  175.3940  136.2520 C   0  0  2  0  0  0  0  0  0  0  0  0
  190.4560  173.7490  137.3750 O   0  0  0  0  0  1  0  0  0  0  0  0
  189.2000  173.9450  136.7910 C   0  0  2  0  0  3  0  0  0  0  0  0
  188.9100  172.8540  135.7470 C   0  0  1  0  0  3  0  0  0  0  0  0
  190.0420  172.0680  135.5140 O   0  0  0  0  0  1  0  0  0  0  0  0
  186.4910  172.6140  136.6220 C   0  0  0  0  0  1  0  0  0  0  0  0
  187.7610  171.9860  136.1650 C   0  0  0  0  0  0  0  0  0  0  0  0
  187.8510  170.7680  136.1180 O   0  0  0  0  0  0  0  0  0  0  0  0
  190.3680  176.1020  136.0260 C   0  0  0  0  0  2  0  0  0  0  0  0
  190.9740  175.7530  134.8160 O   0  0  0  0  0  0  0  0  0  0  0  0
  192.3110  176.1150  134.9780 C   0  0  0  0  0  2  0  0  0  0  0  0
  192.8040  175.6230  136.3260 C   0  0  0  0  0  1  0  0  0  0  0  0
  188.1570  175.4580  135.1120 O   0  0  0  0  0  0  0  0  0  0  0  0
  187.3050  176.5730  135.1690 C   0  0  0  0  0  2  0  0  0  0  0  0
  186.0570  176.3030  134.3480 C   0  0  0  0  0  2  0  0  0  0  0  0
  184.9320  176.7710  135.0270 O   0  0  0  0  0  1  0  0  0  0  0  0
  1  5  1  0  0  0  0
  1  3  1  1  0  0  0
  3  2  2  0  0  0  0
  3  4  1  0  0  0  0
  5  6  1  1  0  0  0
  5  8  1  0  0  0  0
  8  7  1  6  0  0  0
  8 10  1  0  0  0  0
 10 11  1  0  0  0  0
 10  9  1  1  0  0  0
 12 11  1  6  0  0  0
 12 14  1  0  0  0  0
 14 15  1  0  0  0  0
 14 13  1  1  0  0  0
 16 15  1  0  0  0  0
 16 17  1  0  0  0  0
 17 18  2  0  0  0  0
 19 17  1  0  0  0  0
 19 20  2  0  0  0  0
 21 19  1  0  0  0  0
 22 12  1  0  0  0  0
 23 22  1  0  0  0  0
 25 30  2  0  0  0  0
 25 26  1  0  0  0  0
 26 28  2  0  0  0  0
 27 24  2  0  0  0  0
 28 24  1  0  0  0  0
 28 23  1  0  0  0  0
 29 25  1  0  0  0  0
 30 27  1  0  0  0  0
 32 31  1  6  0  0  0
 32  1  1  0  0  0  0
 33 39  1  1  0  0  0
 33 35  1  0  0  0  0
 33 32  1  0  0  0  0
 35 34  1  6  0  0  0
 36 37  2  0  0  0  0
 37 35  1  0  0  0  0
 37 38  1  0  0  0  0
 40 48  1  6  0  0  0
 40 42  1  0  0  0  0
 40 39  1  0  0  0  0
 42 41  1  6  0  0  0
 43 44  1  1  0  0  0
 43 46  1  0  0  0  0
 43 42  1  0  0  0  0
 46 45  1  0  0  0  0
 47 46  2  0  0  0  0
 49 50  1  0  0  0  0
 49 48  1  0  0  0  0
 50 51  1  0  0  0  0
 52 53  1  0  0  0  0
 52 40  1  0  0  0  0
 54 55  1  0  0  0  0
 54 53  1  0  0  0  0
M  END
>  <MODEL>
6

>  <REMARK>
 VINA RESULT:      -3.2      2.967      9.141
  Name = 
  29 active torsions:
  status: ('A' for Active; 'I' for Inactive)
    1  A    between atoms: C_1  and  C_30
    2  A    between atoms: O_2  and  C_28
    3  A    between atoms: O_2  and  C_44
    4  A    between atoms: C_6  and  C_8
    5  A    between atoms: C_6  and  O_20
    6  A    between atoms: C_6  and  C_38
    7  A    between atoms: C_6  and  C_46
    8  A    between atoms: C_7  and  C_8
    9  A    between atoms: C_7  and  C_23
   10  A    between atoms: C_7  and  C_43
   11  A    between atoms: C_10  and  C_32
   12  A    between atoms: C_11  and  C_29
   13  A    between atoms: C_11  and  C_38
   14  A    between atoms: C_12  and  O_14
   15  A    between atoms: O_14  and  C_46
   16  A    between atoms: C_16  and  C_17
   17  A    between atoms: C_16  and  C_26
   18  A    between atoms: C_17  and  C_23
   19  A    between atoms: C_17  and  C_37
   20  A    between atoms: O_20  and  C_30
   21  A    between atoms: C_26  and  C_45
   22  A    between atoms: C_28  and  C_33
   23  A    between atoms: C_32  and  O_39
   24  A    between atoms: C_33  and  C_49
   25  A    between atoms: C_33  and  C_52
   26  A    between atoms: C_34  and  O_39
   27  A    between atoms: C_34  and  C_52
   28  A    between atoms: C_35  and  C_43
   29  A    between atoms: C_45  and  C_49
                            x       y       z     vdW  Elec       q    Type
                         _______ _______ _______ _____ _____    ______ ____

>  <TORSDO>
F 29

$$$$
=
 OpenBabel10272401443D

 55 55  0  0  1  0  0  0  0  0999 V2000
  189.4270  177.1300  139.7010 C   0  0  2  0  0  3  0  0  0  0  0  0
  191.5390  177.8970  140.5560 O   0  0  0  0  0  0  0  0  0  0  0  0
  190.5580  177.1180  140.6920 C   0  0  0  0  0  0  0  0  0  0  0  0
  190.5160  176.2260  141.7980 N   0  0  0  0  0  1  0  0  0  0  0  0
  188.0610  177.2870  140.3940 C   0  0  2  0  0  3  0  0  0  0  0  0
  187.1850  178.3260  139.6990 C   0  0  0  0  0  1  0  0  0  0  0  0
  187.7860  176.4010  142.5970 O   0  0  0  0  0  1  0  0  0  0  0  0
  188.1570  177.5570  141.9040 C   0  0  2  0  0  3  0  0  0  0  0  0
  186.8960  179.5040  141.2440 O   0  0  0  0  0  1  0  0  0  0  0  0
  187.3110  178.7570  142.3480 C   0  0  1  0  0  3  0  0  0  0  0  0
  186.0870  178.2770  143.1100 C   0  0  0  0  0  2  0  0  0  0  0  0
  185.5930  179.3320  144.1000 C   0  0  1  0  0  3  0  0  0  0  0  0
  183.8010  178.7510  145.5890 O   0  0  0  0  0  1  0  0  0  0  0  0
  184.0750  179.2570  144.3160 C   0  0  2  0  0  3  0  0  0  0  0  0
  183.3740  178.4130  143.2510 C   0  0  0  0  0  2  0  0  0  0  0  0
  182.0410  178.8650  143.0390 O   0  0  0  0  0  0  0  0  0  0  0  0
  181.4970  179.0280  141.7610 C   0  0  0  0  0  0  0  0  0  0  0  0
  180.3680  179.5700  141.6060 O   0  0  0  0  0  0  0  0  0  0  0  0
  182.2550  178.5770  140.5890 C   0  0  0  0  0  0  0  0  0  0  0  0
  182.1310  177.3940  140.1740 O   0  0  0  0  0  0  0  0  0  0  0  0
  183.1460  179.4680  139.9260 N   0  0  0  0  0  1  0  0  0  0  0  0
  186.3460  179.2060  145.4200 C   0  0  0  0  0  2  0  0  0  0  0  0
  186.7710  177.8670  145.6260 O   0  0  0  0  0  0  0  0  0  0  0  0
  188.3110  176.7810  147.1260 C   0  0  0  0  0  3  0  0  0  0  0  0
  190.4800  177.6350  145.5800 C   0  0  0  0  0  0  0  0  0  0  0  0
  189.1780  177.9740  145.2070 C   0  0  0  0  0  3  0  0  0  0  0  0
  189.6150  176.4410  147.5000 C   0  0  0  0  0  3  0  0  0  0  0  0
  188.0830  177.5460  145.9780 C   0  0  0  0  0  0  0  0  0  0  0  0
  191.5300  178.0490  144.8320 F   0  0  0  0  0  0  0  0  0  0  0  0
  190.6980  176.8660  146.7270 C   0  0  0  0  0  3  0  0  0  0  0  0
  190.6850  175.2510  138.7660 O   0  0  0  0  0  1  0  0  0  0  0  0
  189.4370  175.8780  138.8020 C   0  0  2  0  0  3  0  0  0  0  0  0
  188.8250  176.0370  137.4000 C   0  0  2  0  0  3  0  0  0  0  0  0
  189.6580  178.3160  137.2860 O   0  0  0  0  0  1  0  0  0  0  0  0
  189.3980  177.1680  136.5310 C   0  0  1  0  0  3  0  0  0  0  0  0
  190.6690  176.3250  134.5530 O   0  0  0  0  0  0  0  0  0  0  0  0
  190.6690  176.7160  135.8830 C   0  0  0  0  0  0  0  0  0  0  0  0
  191.7380  176.6580  136.5500 O   0  0  0  0  0  1  0  0  0  0  0  0
  187.2990  176.1490  137.4850 C   0  0  0  0  0  2  0  0  0  0  0  0
  186.5880  175.7340  136.1890 C   0  0  2  0  0  0  0  0  0  0  0  0
  186.1890  178.1620  136.1210 O   0  0  0  0  0  1  0  0  0  0  0  0
  185.6360  176.9120  135.8240 C   0  0  2  0  0  3  0  0  0  0  0  0
  184.2300  176.7810  136.4320 C   0  0  1  0  0  3  0  0  0  0  0  0
  184.1060  177.5620  137.5840 O   0  0  0  0  0  1  0  0  0  0  0  0
  181.7330  177.0000  135.8080 C   0  0  0  0  0  1  0  0  0  0  0  0
  183.1680  177.1550  135.4430 C   0  0  0  0  0  0  0  0  0  0  0  0
  183.4670  177.6010  134.3460 O   0  0  0  0  0  0  0  0  0  0  0  0
  185.7990  174.4490  136.5390 C   0  0  0  0  0  2  0  0  0  0  0  0
  186.2440  173.8350  137.7130 O   0  0  0  0  0  0  0  0  0  0  0  0
  185.4100  172.7280  137.8660 C   0  0  0  0  0  2  0  0  0  0  0  0
  184.9520  172.2520  136.5000 C   0  0  0  0  0  1  0  0  0  0  0  0
  187.6010  175.5130  135.2130 O   0  0  0  0  0  0  0  0  0  0  0  0
  187.4510  174.2640  134.5880 C   0  0  0  0  0  2  0  0  0  0  0  0
  188.7220  173.4520  134.7570 C   0  0  0  0  0  2  0  0  0  0  0  0
  188.4710  172.3370  135.5550 O   0  0  0  0  0  1  0  0  0  0  0  0
  1  5  1  0  0  0  0
  1  3  1  1  0  0  0
  2  3  2  0  0  0  0
  3  4  1  0  0  0  0
  5  6  1  6  0  0  0
  5  8  1  0  0  0  0
  8 10  1  0  0  0  0
  8  7  1  1  0  0  0
 10  9  1  6  0  0  0
 10 11  1  0  0  0  0
 12 11  1  6  0  0  0
 12 14  1  0  0  0  0
 12 22  1  0  0  0  0
 14 13  1  1  0  0  0
 15 14  1  0  0  0  0
 16 15  1  0  0  0  0
 17 16  1  0  0  0  0
 18 17  2  0  0  0  0
 19 17  1  0  0  0  0
 20 19  2  0  0  0  0
 21 19  1  0  0  0  0
 22 23  1  0  0  0  0
 23 28  1  0  0  0  0
 24 27  1  0  0  0  0
 25 30  1  0  0  0  0
 26 25  2  0  0  0  0
 26 28  1  0  0  0  0
 28 24  2  0  0  0  0
 29 25  1  0  0  0  0
 30 27  2  0  0  0  0
 32 31  1  6  0  0  0
 32  1  1  0  0  0  0
 33 39  1  1  0  0  0
 33 32  1  0  0  0  0
 35 34  1  1  0  0  0
 35 33  1  0  0  0  0
 36 37  2  0  0  0  0
 37 35  1  0  0  0  0
 37 38  1  0  0  0  0
 40 48  1  1  0  0  0
 40 39  1  0  0  0  0
 42 41  1  1  0  0  0
 42 40  1  0  0  0  0
 42 43  1  0  0  0  0
 43 44  1  1  0  0  0
 46 45  1  0  0  0  0
 46 43  1  0  0  0  0
 47 46  2  0  0  0  0
 48 49  1  0  0  0  0
 49 50  1  0  0  0  0
 51 50  1  0  0  0  0
 52 40  1  0  0  0  0
 53 54  1  0  0  0  0
 53 52  1  0  0  0  0
 54 55  1  0  0  0  0
M  END
>  <MODEL>
7

>  <REMARK>
 VINA RESULT:      -3.0      3.057      9.125
  Name = 
  29 active torsions:
  status: ('A' for Active; 'I' for Inactive)
    1  A    between atoms: C_1  and  C_30
    2  A    between atoms: O_2  and  C_28
    3  A    between atoms: O_2  and  C_44
    4  A    between atoms: C_6  and  C_8
    5  A    between atoms: C_6  and  O_20
    6  A    between atoms: C_6  and  C_38
    7  A    between atoms: C_6  and  C_46
    8  A    between atoms: C_7  and  C_8
    9  A    between atoms: C_7  and  C_23
   10  A    between atoms: C_7  and  C_43
   11  A    between atoms: C_10  and  C_32
   12  A    between atoms: C_11  and  C_29
   13  A    between atoms: C_11  and  C_38
   14  A    between atoms: C_12  and  O_14
   15  A    between atoms: O_14  and  C_46
   16  A    between atoms: C_16  and  C_17
   17  A    between atoms: C_16  and  C_26
   18  A    between atoms: C_17  and  C_23
   19  A    between atoms: C_17  and  C_37
   20  A    between atoms: O_20  and  C_30
   21  A    between atoms: C_26  and  C_45
   22  A    between atoms: C_28  and  C_33
   23  A    between atoms: C_32  and  O_39
   24  A    between atoms: C_33  and  C_49
   25  A    between atoms: C_33  and  C_52
   26  A    between atoms: C_34  and  O_39
   27  A    between atoms: C_34  and  C_52
   28  A    between atoms: C_35  and  C_43
   29  A    between atoms: C_45  and  C_49
                            x       y       z     vdW  Elec       q    Type
                         _______ _______ _______ _____ _____    ______ ____

>  <TORSDO>
F 29

$$$$
=
 OpenBabel10272401443D

 55 55  0  0  1  0  0  0  0  0999 V2000
  187.1650  178.0510  138.0200 C   0  0  2  0  0  3  0  0  0  0  0  0
  186.8330  179.7140  136.3160 O   0  0  0  0  0  0  0  0  0  0  0  0
  187.5820  178.8240  136.7990 C   0  0  0  0  0  0  0  0  0  0  0  0
  188.8370  178.5540  136.1900 N   0  0  0  0  0  1  0  0  0  0  0  0
  188.0040  178.4340  139.2530 C   0  0  2  0  0  3  0  0  0  0  0  0
  189.4950  178.1940  139.0260 C   0  0  0  0  0  1  0  0  0  0  0  0
  187.1100  178.7790  141.4430 O   0  0  0  0  0  1  0  0  0  0  0  0
  187.5260  177.7800  140.5590 C   0  0  2  0  0  3  0  0  0  0  0  0
  189.3920  176.2890  140.2280 O   0  0  0  0  0  1  0  0  0  0  0  0
  188.5950  176.8890  141.2050 C   0  0  1  0  0  3  0  0  0  0  0  0
  189.4780  177.7180  142.1240 C   0  0  0  0  0  2  0  0  0  0  0  0
  190.5880  176.8730  142.7470 C   0  0  1  0  0  3  0  0  0  0  0  0
  191.9760  178.7400  143.3430 O   0  0  0  0  0  1  0  0  0  0  0  0
  191.9640  177.5430  142.6220 C   0  0  2  0  0  3  0  0  0  0  0  0
  192.3580  177.8020  141.1680 C   0  0  0  0  0  2  0  0  0  0  0  0
  192.5600  176.5770  140.4700 O   0  0  0  0  0  0  0  0  0  0  0  0
  193.4900  176.4470  139.4330 C   0  0  0  0  0  0  0  0  0  0  0  0
  194.7230  176.3380  139.6820 O   0  0  0  0  0  0  0  0  0  0  0  0
  193.0240  176.4220  138.0430 C   0  0  0  0  0  0  0  0  0  0  0  0
  193.8470  176.5610  137.0980 O   0  0  0  0  0  0  0  0  0  0  0  0
  191.6400  176.2570  137.7540 N   0  0  0  0  0  1  0  0  0  0  0  0
  190.2560  176.5590  144.2010 C   0  0  0  0  0  2  0  0  0  0  0  0
  188.8970  176.8670  144.4790 O   0  0  0  0  0  0  0  0  0  0  0  0
  189.3520  177.3470  146.7960 C   0  0  0  0  0  3  0  0  0  0  0  0
  186.8660  178.6010  147.0640 C   0  0  0  0  0  0  0  0  0  0  0  0
  187.2430  178.0510  145.8360 C   0  0  0  0  0  3  0  0  0  0  0  0
  188.9740  177.8990  148.0240 C   0  0  0  0  0  3  0  0  0  0  0  0
  188.4920  177.4210  145.6950 C   0  0  0  0  0  0  0  0  0  0  0  0
  185.6620  179.2070  147.1930 F   0  0  0  0  0  0  0  0  0  0  0  0
  187.7320  178.5260  148.1570 C   0  0  0  0  0  3  0  0  0  0  0  0
  188.5120  176.0650  137.5470 O   0  0  0  0  0  1  0  0  0  0  0  0
  187.2160  176.5290  137.7830 C   0  0  2  0  0  3  0  0  0  0  0  0
  186.2010  175.9580  136.7790 C   0  0  2  0  0  3  0  0  0  0  0  0
  188.1580  175.5420  135.4010 O   0  0  0  0  0  1  0  0  0  0  0  0
  186.7860  175.2970  135.5210 C   0  0  1  0  0  3  0  0  0  0  0  0
  186.5300  173.1640  136.7930 O   0  0  0  0  0  1  0  0  0  0  0  0
  186.5600  173.8190  135.5720 C   0  0  0  0  0  0  0  0  0  0  0  0
  186.4300  173.1570  134.5070 O   0  0  0  0  0  0  0  0  0  0  0  0
  185.1650  177.0210  136.3930 C   0  0  0  0  0  2  0  0  0  0  0  0
  183.7170  176.5530  136.5870 C   0  0  2  0  0  0  0  0  0  0  0  0
  182.1120  176.4180  138.4480 O   0  0  0  0  0  1  0  0  0  0  0  0
  183.3030  177.0120  138.0160 C   0  0  2  0  0  3  0  0  0  0  0  0
  183.2390  178.5390  138.1810 C   0  0  1  0  0  3  0  0  0  0  0  0
  181.9160  178.9880  138.1910 O   0  0  0  0  0  1  0  0  0  0  0  0
  183.7710  178.2110  140.6880 C   0  0  0  0  0  1  0  0  0  0  0  0
  183.9410  178.9860  139.4280 C   0  0  0  0  0  0  0  0  0  0  0  0
  184.6650  179.9700  139.4170 O   0  0  0  0  0  0  0  0  0  0  0  0
  183.7580  175.0090  136.4720 C   0  0  0  0  0  2  0  0  0  0  0  0
  183.2900  174.3610  137.6180 O   0  0  0  0  0  0  0  0  0  0  0  0
  182.3770  173.4220  137.1400 C   0  0  0  0  0  2  0  0  0  0  0  0
  183.0220  172.6170  136.0280 C   0  0  0  0  0  1  0  0  0  0  0  0
  182.9430  177.1630  135.5590 O   0  0  0  0  0  0  0  0  0  0  0  0
  182.2910  176.2040  134.7670 C   0  0  0  0  0  2  0  0  0  0  0  0
  180.7940  176.4510  134.7940 C   0  0  0  0  0  2  0  0  0  0  0  0
  180.5180  177.6190  135.5050 O   0  0  0  0  0  1  0  0  0  0  0  0
  1  3  1  6  0  0  0
  1  5  1  0  0  0  0
  2  3  2  0  0  0  0
  4  3  1  0  0  0  0
  5  6  1  6  0  0  0
  5  8  1  0  0  0  0
  8 10  1  0  0  0  0
  8  7  1  1  0  0  0
 10  9  1  6  0  0  0
 10 11  1  0  0  0  0
 12 11  1  1  0  0  0
 12 22  1  0  0  0  0
 14 12  1  0  0  0  0
 14 13  1  1  0  0  0
 15 14  1  0  0  0  0
 16 15  1  0  0  0  0
 17 18  2  0  0  0  0
 17 16  1  0  0  0  0
 19 17  1  0  0  0  0
 20 19  2  0  0  0  0
 21 19  1  0  0  0  0
 22 23  1  0  0  0  0
 23 28  1  0  0  0  0
 24 27  1  0  0  0  0
 25 29  1  0  0  0  0
 25 30  1  0  0  0  0
 26 25  2  0  0  0  0
 27 30  2  0  0  0  0
 28 26  1  0  0  0  0
 28 24  2  0  0  0  0
 32 31  1  6  0  0  0
 32  1  1  0  0  0  0
 33 39  1  6  0  0  0
 33 32  1  0  0  0  0
 35 34  1  1  0  0  0
 35 37  1  0  0  0  0
 35 33  1  0  0  0  0
 37 36  1  0  0  0  0
 38 37  2  0  0  0  0
 40 39  1  6  0  0  0
 40 42  1  0  0  0  0
 42 43  1  0  0  0  0
 42 41  1  6  0  0  0
 43 44  1  1  0  0  0
 43 46  1  0  0  0  0
 46 45  1  0  0  0  0
 47 46  2  0  0  0  0
 48 40  1  0  0  0  0
 48 49  1  0  0  0  0
 50 49  1  0  0  0  0
 51 50  1  0  0  0  0
 52 40  1  0  0  0  0
 53 54  1  0  0  0  0
 53 52  1  0  0  0  0
 54 55  1  0  0  0  0
M  END
>  <MODEL>
8

>  <REMARK>
 VINA RESULT:      -2.7      3.278      7.053
  Name = 
  29 active torsions:
  status: ('A' for Active; 'I' for Inactive)
    1  A    between atoms: C_1  and  C_30
    2  A    between atoms: O_2  and  C_28
    3  A    between atoms: O_2  and  C_44
    4  A    between atoms: C_6  and  C_8
    5  A    between atoms: C_6  and  O_20
    6  A    between atoms: C_6  and  C_38
    7  A    between atoms: C_6  and  C_46
    8  A    between atoms: C_7  and  C_8
    9  A    between atoms: C_7  and  C_23
   10  A    between atoms: C_7  and  C_43
   11  A    between atoms: C_10  and  C_32
   12  A    between atoms: C_11  and  C_29
   13  A    between atoms: C_11  and  C_38
   14  A    between atoms: C_12  and  O_14
   15  A    between atoms: O_14  and  C_46
   16  A    between atoms: C_16  and  C_17
   17  A    between atoms: C_16  and  C_26
   18  A    between atoms: C_17  and  C_23
   19  A    between atoms: C_17  and  C_37
   20  A    between atoms: O_20  and  C_30
   21  A    between atoms: C_26  and  C_45
   22  A    between atoms: C_28  and  C_33
   23  A    between atoms: C_32  and  O_39
   24  A    between atoms: C_33  and  C_49
   25  A    between atoms: C_33  and  C_52
   26  A    between atoms: C_34  and  O_39
   27  A    between atoms: C_34  and  C_52
   28  A    between atoms: C_35  and  C_43
   29  A    between atoms: C_45  and  C_49
                            x       y       z     vdW  Elec       q    Type
                         _______ _______ _______ _____ _____    ______ ____

>  <TORSDO>
F 29

$$$$
=
 OpenBabel10272401443D

 55 55  0  0  1  0  0  0  0  0999 V2000
  186.6040  177.6220  136.4320 C   0  0  2  0  0  3  0  0  0  0  0  0
  186.6710  178.8200  134.3490 O   0  0  0  0  0  0  0  0  0  0  0  0
  187.0010  177.7880  134.9920 C   0  0  0  0  0  0  0  0  0  0  0  0
  187.7640  176.7750  134.3510 N   0  0  0  0  0  1  0  0  0  0  0  0
  187.6670  178.1950  137.3880 C   0  0  2  0  0  3  0  0  0  0  0  0
  189.0840  177.9800  136.8610 C   0  0  0  0  0  1  0  0  0  0  0  0
  187.4350  178.8090  139.6870 O   0  0  0  0  0  1  0  0  0  0  0  0
  187.5300  177.7030  138.8380 C   0  0  2  0  0  3  0  0  0  0  0  0
  188.9490  175.8360  138.2750 O   0  0  0  0  0  1  0  0  0  0  0  0
  188.6810  176.7830  139.2650 C   0  0  1  0  0  3  0  0  0  0  0  0
  189.9350  177.6020  139.5200 C   0  0  0  0  0  2  0  0  0  0  0  0
  191.1560  176.7090  139.7320 C   0  0  1  0  0  3  0  0  0  0  0  0
  191.8530  176.7510  137.4340 O   0  0  0  0  0  1  0  0  0  0  0  0
  192.2820  177.0210  138.7360 C   0  0  2  0  0  3  0  0  0  0  0  0
  193.5630  176.2430  139.0400 C   0  0  0  0  0  2  0  0  0  0  0  0
  194.2580  175.9190  137.8410 O   0  0  0  0  0  0  0  0  0  0  0  0
  195.3370  175.0300  137.8140 C   0  0  0  0  0  0  0  0  0  0  0  0
  195.9810  174.8290  136.7470 O   0  0  0  0  0  0  0  0  0  0  0  0
  195.7330  174.3350  139.0440 C   0  0  0  0  0  0  0  0  0  0  0  0
  195.6010  173.0850  139.1340 O   0  0  0  0  0  0  0  0  0  0  0  0
  196.2520  175.0710  140.1460 N   0  0  0  0  0  1  0  0  0  0  0  0
  191.6440  176.8200  141.1720 C   0  0  0  0  0  2  0  0  0  0  0  0
  190.8820  175.9760  142.0220 O   0  0  0  0  0  0  0  0  0  0  0  0
  188.9290  176.7010  143.2320 C   0  0  0  0  0  3  0  0  0  0  0  0
  190.4590  177.0990  145.5400 C   0  0  0  0  0  0  0  0  0  0  0  0
  191.0660  176.6400  144.3680 C   0  0  0  0  0  3  0  0  0  0  0  0
  188.3210  177.1590  144.4050 C   0  0  0  0  0  3  0  0  0  0  0  0
  190.3020  176.4370  143.2050 C   0  0  0  0  0  0  0  0  0  0  0  0
  191.2000  177.2910  146.6570 F   0  0  0  0  0  0  0  0  0  0  0  0
  189.0860  177.3560  145.5590 C   0  0  0  0  0  3  0  0  0  0  0  0
  187.0690  175.2530  136.0360 O   0  0  0  0  0  1  0  0  0  0  0  0
  186.3000  176.1520  136.7800 C   0  0  2  0  0  3  0  0  0  0  0  0
  184.8170  175.7500  136.8250 C   0  0  2  0  0  3  0  0  0  0  0  0
  184.9530  174.9290  134.5430 O   0  0  0  0  0  1  0  0  0  0  0  0
  184.3620  174.7080  135.7910 C   0  0  1  0  0  3  0  0  0  0  0  0
  184.6220  172.2560  135.3970 O   0  0  0  0  0  0  0  0  0  0  0  0
  184.7230  173.3350  136.2620 C   0  0  0  0  0  0  0  0  0  0  0  0
  185.0900  173.1450  137.4530 O   0  0  0  0  0  1  0  0  0  0  0  0
  183.9180  176.9910  136.7650 C   0  0  0  0  0  2  0  0  0  0  0  0
  182.6000  176.8220  137.5310 C   0  0  2  0  0  0  0  0  0  0  0  0
  180.8690  176.2750  135.8680 O   0  0  0  0  0  1  0  0  0  0  0  0
  181.7940  175.7300  136.7660 C   0  0  2  0  0  3  0  0  0  0  0  0
  181.1160  174.7030  137.6870 C   0  0  1  0  0  3  0  0  0  0  0  0
  180.0560  175.2810  138.3900 O   0  0  0  0  0  1  0  0  0  0  0  0
  180.1380  172.3120  137.6490 C   0  0  0  0  0  1  0  0  0  0  0  0
  180.6310  173.5110  136.9180 C   0  0  0  0  0  0  0  0  0  0  0  0
  180.6210  173.5210  135.6960 O   0  0  0  0  0  0  0  0  0  0  0  0
  181.8990  178.2010  137.4640 C   0  0  0  0  0  2  0  0  0  0  0  0
  180.5100  178.1170  137.5960 O   0  0  0  0  0  0  0  0  0  0  0  0
  180.0530  179.3990  137.2970 C   0  0  0  0  0  2  0  0  0  0  0  0
  180.6760  180.3920  138.2600 C   0  0  0  0  0  1  0  0  0  0  0  0
  182.9380  176.4370  138.8600 O   0  0  0  0  0  0  0  0  0  0  0  0
  183.2980  177.5470  139.6410 C   0  0  0  0  0  2  0  0  0  0  0  0
  182.6510  177.4400  141.0090 C   0  0  0  0  0  2  0  0  0  0  0  0
  181.2780  177.6610  140.9040 O   0  0  0  0  0  1  0  0  0  0  0  0
  1  3  1  6  0  0  0
  1 32  1  0  0  0  0
  1  5  1  0  0  0  0
  2  3  2  0  0  0  0
  4  3  1  0  0  0  0
  5  6  1  6  0  0  0
  5  8  1  0  0  0  0
  8 10  1  0  0  0  0
  8  7  1  1  0  0  0
 10  9  1  6  0  0  0
 10 11  1  0  0  0  0
 12 11  1  1  0  0  0
 12 22  1  0  0  0  0
 14 13  1  6  0  0  0
 14 15  1  0  0  0  0
 14 12  1  0  0  0  0
 16 15  1  0  0  0  0
 17 16  1  0  0  0  0
 17 19  1  0  0  0  0
 18 17  2  0  0  0  0
 19 20  2  0  0  0  0
 19 21  1  0  0  0  0
 22 23  1  0  0  0  0
 23 28  1  0  0  0  0
 24 27  1  0  0  0  0
 25 30  1  0  0  0  0
 25 29  1  0  0  0  0
 26 25  2  0  0  0  0
 27 30  2  0  0  0  0
 28 24  2  0  0  0  0
 28 26  1  0  0  0  0
 32 31  1  6  0  0  0
 32 33  1  0  0  0  0
 33 39  1  6  0  0  0
 35 34  1  6  0  0  0
 35 37  1  0  0  0  0
 35 33  1  0  0  0  0
 36 37  2  0  0  0  0
 37 38  1  0  0  0  0
 40 39  1  6  0  0  0
 40 52  1  0  0  0  0
 42 41  1  1  0  0  0
 42 40  1  0  0  0  0
 42 43  1  0  0  0  0
 43 44  1  6  0  0  0
 46 45  1  0  0  0  0
 46 43  1  0  0  0  0
 47 46  2  0  0  0  0
 48 40  1  0  0  0  0
 48 49  1  0  0  0  0
 50 49  1  0  0  0  0
 50 51  1  0  0  0  0
 52 53  1  0  0  0  0
 53 54  1  0  0  0  0
 55 54  1  0  0  0  0
M  END
>  <MODEL>
9

>  <REMARK>
 VINA RESULT:      -2.7      3.201      6.065
  Name = 
  29 active torsions:
  status: ('A' for Active; 'I' for Inactive)
    1  A    between atoms: C_1  and  C_30
    2  A    between atoms: O_2  and  C_28
    3  A    between atoms: O_2  and  C_44
    4  A    between atoms: C_6  and  C_8
    5  A    between atoms: C_6  and  O_20
    6  A    between atoms: C_6  and  C_38
    7  A    between atoms: C_6  and  C_46
    8  A    between atoms: C_7  and  C_8
    9  A    between atoms: C_7  and  C_23
   10  A    between atoms: C_7  and  C_43
   11  A    between atoms: C_10  and  C_32
   12  A    between atoms: C_11  and  C_29
   13  A    between atoms: C_11  and  C_38
   14  A    between atoms: C_12  and  O_14
   15  A    between atoms: O_14  and  C_46
   16  A    between atoms: C_16  and  C_17
   17  A    between atoms: C_16  and  C_26
   18  A    between atoms: C_17  and  C_23
   19  A    between atoms: C_17  and  C_37
   20  A    between atoms: O_20  and  C_30
   21  A    between atoms: C_26  and  C_45
   22  A    between atoms: C_28  and  C_33
   23  A    between atoms: C_32  and  O_39
   24  A    between atoms: C_33  and  C_49
   25  A    between atoms: C_33  and  C_52
   26  A    between atoms: C_34  and  O_39
   27  A    between atoms: C_34  and  C_52
   28  A    between atoms: C_35  and  C_43
   29  A    between atoms: C_45  and  C_49
                            x       y       z     vdW  Elec       q    Type
                         _______ _______ _______ _____ _____    ______ ____

>  <TORSDO>
F 29

$$$$
