=
 OpenBabel10272413563D

 30 35  0  0  1  0  0  0  0  0999 V2000
  186.8480  178.4650  138.7680 C   0  0  1  0  0  3  0  0  0  0  0  0
  186.6810  177.8770  136.1650 C   0  0  2  0  0  3  0  0  0  0  0  0
  183.3460  177.5690  138.2290 N   0  0  0  0  0  2  0  0  0  0  0  0
  185.9910  178.4170  140.0510 C   0  0  1  0  0  3  0  0  0  0  0  0
  188.1470  177.8190  138.9660 N   0  0  0  0  0  0  0  0  0  0  0  0
  189.1860  178.3030  142.7450 S   0  0  0  0  0  0  0  0  0  0  0  0
  184.6910  179.2930  142.6920 C   0  0  1  0  0  3  0  0  0  0  0  0
  188.1030  178.3890  141.3110 C   0  0  1  0  0  3  0  0  0  0  0  0
  190.0220  177.2970  140.3300 N   0  0  0  0  0  0  0  0  0  0  0  0
  183.6290  178.4710  141.9630 C   0  0  1  0  0  3  0  0  0  0  0  0
  183.2280  177.5210  139.6520 C   0  0  0  0  0  0  0  0  0  0  0  0
  188.7560  177.8890  140.1070 C   0  0  0  0  0  0  0  0  0  0  0  0
  186.7730  178.5830  141.3480 C   0  0  2  0  0  3  0  0  0  0  0  0
  186.5080  176.5390  135.4350 C   0  0  0  0  0  2  0  0  0  0  0  0
  182.3280  178.8100  142.6520 C   0  0  0  0  0  2  0  0  0  0  0  0
  184.1620  179.5270  144.0960 C   0  0  0  0  0  2  0  0  0  0  0  0
  191.3620  176.7270  142.2270 C   0  0  0  0  0  1  0  0  0  0  0  0
  188.1390  178.3030  136.1070 C   0  0  0  0  0  1  0  0  0  0  0  0
  184.1380  176.5930  137.4830 C   0  0  1  0  0  3  0  0  0  0  0  0
  185.0490  176.1650  135.1130 C   0  0  0  0  0  2  0  0  0  0  0  0
  190.3650  177.4240  141.7060 C   0  0  0  0  0  0  0  0  0  0  0  0
  186.0690  177.8450  137.5910 C   0  0  1  0  0  3  0  0  0  0  0  0
  184.8310  179.3990  139.9200 C   0  0  0  0  0  2  0  0  0  0  0  0
  182.9430  176.4320  140.2210 O   0  0  0  0  0  0  0  0  0  0  0  0
  183.5420  178.7620  140.4540 C   0  0  2  0  0  3  0  0  0  0  0  0
  182.7010  179.1070  144.0920 C   0  0  0  0  0  2  0  0  0  0  0  0
  186.0050  177.2050  143.2930 C   0  0  0  0  0  1  0  0  0  0  0  0
  183.9850  176.8550  135.9750 C   0  0  0  0  0  2  0  0  0  0  0  0
  185.4890  176.5980  137.9200 O   0  0  0  0  0  0  0  0  0  0  0  0
  186.0680  178.6090  142.6950 C   0  0  2  0  0  3  0  0  0  0  0  0
  1  5  1  1  0  0  0
  1  4  1  0  0  0  0
  2 18  1  1  0  0  0
  2 22  1  0  0  0  0
  3 11  1  0  0  0  0
  4 23  1  6  0  0  0
  4 13  1  0  0  0  0
  5 12  2  0  0  0  0
  7 30  1  0  0  0  0
  7 16  1  1  0  0  0
  8 12  1  1  0  0  0
  8 13  1  0  0  0  0
  8  6  1  0  0  0  0
  9 21  2  0  0  0  0
 10 15  1  1  0  0  0
 10  7  1  0  0  0  0
 11 24  2  0  0  0  0
 11 25  1  0  0  0  0
 12  9  1  0  0  0  0
 13 30  1  0  0  0  0
 14  2  1  0  0  0  0
 15 26  1  0  0  0  0
 19 29  1  0  0  0  0
 19  3  1  0  0  0  0
 20 14  1  0  0  0  0
 20 28  1  0  0  0  0
 21 17  1  0  0  0  0
 21  6  1  0  0  0  0
 22 29  1  0  0  0  0
 22  1  1  0  0  0  0
 23 25  1  0  0  0  0
 25 10  1  0  0  0  0
 26 16  1  0  0  0  0
 28 19  1  0  0  0  0
 30 27  1  0  0  0  0
M  END
>  <MODEL>
1

>  <REMARK>
 VINA RESULT:      -7.8      0.000      0.000
  Name = 
  0 active torsions:
  status: ('A' for Active; 'I' for Inactive)
                            x       y       z     vdW  Elec       q    Type
                         _______ _______ _______ _____ _____    ______ ____

>  <TORSDO>
F 0

$$$$
=
 OpenBabel10272413563D

 30 35  0  0  1  0  0  0  0  0999 V2000
  188.7380  176.6260  143.4770 C   0  0  1  0  0  3  0  0  0  0  0  0
  190.7730  175.9570  145.0780 C   0  0  2  0  0  3  0  0  0  0  0  0
  187.6810  177.6560  146.8210 N   0  0  0  0  0  2  0  0  0  0  0  0
  187.3950  177.3840  143.5230 C   0  0  1  0  0  3  0  0  0  0  0  0
  189.5850  177.0990  142.3800 N   0  0  0  0  0  0  0  0  0  0  0  0
  187.2250  178.2820  139.4430 S   0  0  0  0  0  0  0  0  0  0  0  0
  184.4230  178.0280  143.0870 C   0  0  1  0  0  3  0  0  0  0  0  0
  187.6310  177.6940  141.0940 C   0  0  1  0  0  3  0  0  0  0  0  0
  189.8490  177.9230  140.1660 N   0  0  0  0  0  2  0  0  0  0  0  0
  184.7590  178.5590  144.4790 C   0  0  1  0  0  3  0  0  0  0  0  0
  186.6300  178.3750  146.1740 C   0  0  0  0  0  0  0  0  0  0  0  0
  189.0630  177.4810  141.2570 C   0  0  0  0  0  0  0  0  0  0  0  0
  186.8100  177.7310  142.1580 C   0  0  2  0  0  3  0  0  0  0  0  0
  191.8190  176.8120  145.8030 C   0  0  0  0  0  2  0  0  0  0  0  0
  183.4240  178.7670  145.1530 C   0  0  0  0  0  2  0  0  0  0  0  0
  183.0370  178.5500  142.7520 C   0  0  0  0  0  2  0  0  0  0  0  0
  189.4750  179.1110  138.1250 C   0  0  0  0  0  2  0  0  0  0  0  0
  191.3880  175.3500  143.8280 C   0  0  0  0  0  1  0  0  0  0  0  0
  189.0830  178.0510  146.6950 C   0  0  1  0  0  3  0  0  0  0  0  0
  191.4480  177.1960  147.2470 C   0  0  0  0  0  2  0  0  0  0  0  0
  188.9940  178.4020  139.1330 C   0  0  0  0  0  0  0  0  0  0  0  0
  189.4490  176.7320  144.8410 C   0  0  1  0  0  3  0  0  0  0  0  0
  186.4190  176.6300  144.4200 C   0  0  0  0  0  2  0  0  0  0  0  0
  186.5780  179.6320  146.2700 O   0  0  0  0  0  0  0  0  0  0  0  0
  185.6510  177.6170  145.3070 C   0  0  2  0  0  3  0  0  0  0  0  0
  182.4600  179.1220  144.0380 C   0  0  0  0  0  2  0  0  0  0  0  0
  185.6590  179.9460  141.9720 C   0  0  0  0  0  1  0  0  0  0  0  0
  189.9520  177.1440  147.5820 C   0  0  0  0  0  2  0  0  0  0  0  0
  189.4850  178.0580  145.3330 O   0  0  0  0  0  0  0  0  0  0  0  0
  185.4670  178.4320  142.0320 C   0  0  2  0  0  3  0  0  0  0  0  0
  1  5  1  6  0  0  0
  1  4  1  0  0  0  0
  1 22  1  0  0  0  0
  2 18  1  6  0  0  0
  2 14  1  0  0  0  0
  4 23  1  6  0  0  0
  7 16  1  6  0  0  0
  7 10  1  0  0  0  0
  8  6  1  1  0  0  0
  8 12  1  0  0  0  0
  8 13  1  0  0  0  0
  9 12  1  0  0  0  0
 10 15  1  1  0  0  0
 10 25  1  0  0  0  0
 11 24  2  0  0  0  0
 11  3  1  0  0  0  0
 12  5  2  0  0  0  0
 13  4  1  0  0  0  0
 14 20  1  0  0  0  0
 16 26  1  0  0  0  0
 17 21  2  0  0  0  0
 19  3  1  0  0  0  0
 19 28  1  0  0  0  0
 20 28  1  0  0  0  0
 21  6  1  0  0  0  0
 21  9  1  0  0  0  0
 22  2  1  0  0  0  0
 22 29  1  0  0  0  0
 23 25  1  0  0  0  0
 25 11  1  0  0  0  0
 26 15  1  0  0  0  0
 27 30  1  0  0  0  0
 29 19  1  0  0  0  0
 30 13  1  0  0  0  0
 30  7  1  0  0  0  0
M  END
>  <MODEL>
2

>  <REMARK>
 VINA RESULT:      -7.6      3.652      6.671
  Name = 
  0 active torsions:
  status: ('A' for Active; 'I' for Inactive)
                            x       y       z     vdW  Elec       q    Type
                         _______ _______ _______ _____ _____    ______ ____

>  <TORSDO>
F 0

$$$$
=
 OpenBabel10272413563D

 30 35  0  0  1  0  0  0  0  0999 V2000
  185.9370  178.9570  141.7960 C   0  0  1  0  0  3  0  0  0  0  0  0
  185.4510  179.1690  144.4170 C   0  0  2  0  0  3  0  0  0  0  0  0
  188.8670  177.4900  143.4170 N   0  0  0  0  0  2  0  0  0  0  0  0
  186.9600  178.3250  140.8280 C   0  0  1  0  0  3  0  0  0  0  0  0
  184.5640  178.5970  141.4370 N   0  0  0  0  0  0  0  0  0  0  0  0
  184.4130  178.1300  137.5180 S   0  0  0  0  0  0  0  0  0  0  0  0
  188.9140  178.0310  138.4770 C   0  0  1  0  0  3  0  0  0  0  0  0
  185.1950  178.3990  139.1160 C   0  0  1  0  0  3  0  0  0  0  0  0
  182.8970  178.1290  139.8090 N   0  0  0  0  0  2  0  0  0  0  0  0
  189.5390  177.2500  139.6320 C   0  0  1  0  0  3  0  0  0  0  0  0
  189.2200  176.9850  142.1280 C   0  0  0  0  0  0  0  0  0  0  0  0
  184.2190  178.4530  140.1960 C   0  0  0  0  0  0  0  0  0  0  0  0
  186.5080  178.2620  139.3740 C   0  0  2  0  0  3  0  0  0  0  0  0
  185.0910  178.1160  145.4720 C   0  0  0  0  0  2  0  0  0  0  0  0
  190.9840  177.0550  139.2380 C   0  0  0  0  0  2  0  0  0  0  0  0
  189.7320  177.6980  137.2420 C   0  0  0  0  0  2  0  0  0  0  0  0
  181.8150  177.3300  137.8310 C   0  0  0  0  0  2  0  0  0  0  0  0
  184.1970  179.9150  143.9930 C   0  0  0  0  0  1  0  0  0  0  0  0
  187.7030  176.9970  144.1510 C   0  0  1  0  0  3  0  0  0  0  0  0
  186.2930  177.5340  146.2380 C   0  0  0  0  0  2  0  0  0  0  0  0
  182.8600  177.9050  138.4030 C   0  0  0  0  0  0  0  0  0  0  0  0
  186.2750  178.5650  143.2480 C   0  0  1  0  0  3  0  0  0  0  0  0
  188.3130  179.0060  141.0070 C   0  0  0  0  0  2  0  0  0  0  0  0
  189.2720  175.7390  141.9370 O   0  0  0  0  0  0  0  0  0  0  0  0
  189.4330  177.9590  140.9930 C   0  0  2  0  0  3  0  0  0  0  0  0
  190.9810  176.9760  137.7230 C   0  0  0  0  0  2  0  0  0  0  0  0
  187.1770  176.2190  138.0900 C   0  0  0  0  0  1  0  0  0  0  0  0
  187.6500  177.6640  145.5360 C   0  0  0  0  0  2  0  0  0  0  0  0
  186.5140  177.1790  143.3950 O   0  0  0  0  0  0  0  0  0  0  0  0
  187.4210  177.7130  138.2890 C   0  0  2  0  0  3  0  0  0  0  0  0
  1  5  1  6  0  0  0
  1 22  1  0  0  0  0
  2 18  1  6  0  0  0
  2 14  1  0  0  0  0
  3 19  1  0  0  0  0
  4 23  1  6  0  0  0
  4  1  1  0  0  0  0
  6 21  1  0  0  0  0
  7 16  1  6  0  0  0
  7 10  1  0  0  0  0
  8  6  1  6  0  0  0
  8 13  1  0  0  0  0
  8 12  1  0  0  0  0
  9 12  1  0  0  0  0
 10 15  1  6  0  0  0
 10 25  1  0  0  0  0
 11  3  1  0  0  0  0
 12  5  2  0  0  0  0
 13  4  1  0  0  0  0
 14 20  1  0  0  0  0
 16 26  1  0  0  0  0
 17 21  2  0  0  0  0
 19 28  1  0  0  0  0
 21  9  1  0  0  0  0
 22 29  1  0  0  0  0
 22  2  1  0  0  0  0
 24 11  2  0  0  0  0
 25 23  1  0  0  0  0
 25 11  1  0  0  0  0
 26 15  1  0  0  0  0
 27 30  1  0  0  0  0
 28 20  1  0  0  0  0
 29 19  1  0  0  0  0
 30  7  1  0  0  0  0
 30 13  1  0  0  0  0
M  END
>  <MODEL>
3

>  <REMARK>
 VINA RESULT:      -7.5      2.673      7.230
  Name = 
  0 active torsions:
  status: ('A' for Active; 'I' for Inactive)
                            x       y       z     vdW  Elec       q    Type
                         _______ _______ _______ _____ _____    ______ ____

>  <TORSDO>
F 0

$$$$
=
 OpenBabel10272413563D

 30 35  0  0  1  0  0  0  0  0999 V2000
  188.1030  177.0450  141.1470 C   0  0  1  0  0  3  0  0  0  0  0  0
  190.3770  176.5380  139.8350 C   0  0  2  0  0  3  0  0  0  0  0  0
  190.7350  177.3950  143.6590 N   0  0  0  0  0  2  0  0  0  0  0  0
  187.6140  177.5340  142.5260 C   0  0  1  0  0  3  0  0  0  0  0  0
  187.4910  177.8090  140.0580 N   0  0  0  0  0  0  0  0  0  0  0  0
  183.8950  178.9410  141.2360 S   0  0  0  0  0  0  0  0  0  0  0  0
  185.9970  177.6860  145.1330 C   0  0  1  0  0  3  0  0  0  0  0  0
  185.5320  178.2140  141.4080 C   0  0  1  0  0  3  0  0  0  0  0  0
  185.6400  178.9650  139.1150 N   0  0  0  0  0  2  0  0  0  0  0  0
  187.4260  178.0710  145.5130 C   0  0  1  0  0  3  0  0  0  0  0  0
  189.7410  177.9950  144.4920 C   0  0  0  0  0  0  0  0  0  0  0  0
  186.2730  178.2420  140.1550 C   0  0  0  0  0  0  0  0  0  0  0  0
  186.1500  177.9550  142.5740 C   0  0  2  0  0  3  0  0  0  0  0  0
  191.5180  177.4600  139.3870 C   0  0  0  0  0  2  0  0  0  0  0  0
  187.4830  177.9390  147.0160 C   0  0  0  0  0  2  0  0  0  0  0  0
  185.1350  177.9900  146.3460 C   0  0  0  0  0  2  0  0  0  0  0  0
  183.6940  180.3370  138.8900 C   0  0  0  0  0  2  0  0  0  0  0  0
  189.4750  176.2310  138.6510 C   0  0  0  0  0  1  0  0  0  0  0  0
  191.2320  178.0500  142.4510 C   0  0  1  0  0  3  0  0  0  0  0  0
  192.6880  177.5680  140.3820 C   0  0  0  0  0  2  0  0  0  0  0  0
  184.3680  179.4200  139.5650 C   0  0  0  0  0  0  0  0  0  0  0  0
  189.6420  177.0880  141.0870 C   0  0  1  0  0  3  0  0  0  0  0  0
  187.9760  176.5000  143.5870 C   0  0  0  0  0  2  0  0  0  0  0  0
  189.8690  179.1960  144.8550 O   0  0  0  0  0  0  0  0  0  0  0  0
  188.5050  177.2000  144.8450 C   0  0  2  0  0  3  0  0  0  0  0  0
  186.0840  178.2650  147.5020 C   0  0  0  0  0  2  0  0  0  0  0  0
  185.6070  179.9300  144.0120 C   0  0  0  0  0  1  0  0  0  0  0  0
  192.3560  177.2010  141.8340 C   0  0  0  0  0  2  0  0  0  0  0  0
  190.1690  178.3170  141.5460 O   0  0  0  0  0  0  0  0  0  0  0  0
  185.5040  178.4130  143.8710 C   0  0  2  0  0  3  0  0  0  0  0  0
  1  5  1  6  0  0  0
  1  4  1  0  0  0  0
  2 18  1  6  0  0  0
  2 22  1  0  0  0  0
  3 11  1  0  0  0  0
  4 13  1  0  0  0  0
  4 23  1  1  0  0  0
  5 12  2  0  0  0  0
  6  8  1  0  0  0  0
  7 10  1  0  0  0  0
  7 16  1  1  0  0  0
  8 12  1  6  0  0  0
  8 13  1  0  0  0  0
  9 21  1  0  0  0  0
  9 12  1  0  0  0  0
 10 15  1  1  0  0  0
 11 25  1  0  0  0  0
 11 24  2  0  0  0  0
 13 30  1  0  0  0  0
 14  2  1  0  0  0  0
 14 20  1  0  0  0  0
 15 26  1  0  0  0  0
 16 26  1  0  0  0  0
 17 21  2  0  0  0  0
 19  3  1  0  0  0  0
 20 28  1  0  0  0  0
 21  6  1  0  0  0  0
 22  1  1  0  0  0  0
 22 29  1  0  0  0  0
 23 25  1  0  0  0  0
 25 10  1  0  0  0  0
 28 19  1  0  0  0  0
 29 19  1  0  0  0  0
 30 27  1  0  0  0  0
 30  7  1  0  0  0  0
M  END
>  <MODEL>
4

>  <REMARK>
 VINA RESULT:      -7.2      3.208      5.958
  Name = 
  0 active torsions:
  status: ('A' for Active; 'I' for Inactive)
                            x       y       z     vdW  Elec       q    Type
                         _______ _______ _______ _____ _____    ______ ____

>  <TORSDO>
F 0

$$$$
=
 OpenBabel10272413563D

 30 35  0  0  1  0  0  0  0  0999 V2000
  182.3740  178.1200  140.1660 C   0  0  1  0  0  3  0  0  0  0  0  0
  181.9770  179.1130  142.6180 C   0  0  2  0  0  3  0  0  0  0  0  0
  185.6460  179.3620  141.2200 N   0  0  0  0  0  2  0  0  0  0  0  0
  183.5240  177.8190  139.1820 C   0  0  1  0  0  3  0  0  0  0  0  0
  181.5100  176.9530  140.3550 N   0  0  0  0  0  0  0  0  0  0  0  0
  181.5110  174.8790  136.9950 S   0  0  0  0  0  0  0  0  0  0  0  0
  185.1310  177.6910  136.5680 C   0  0  1  0  0  3  0  0  0  0  0  0
  182.0250  176.1780  138.1290 C   0  0  1  0  0  3  0  0  0  0  0  0
  180.4280  175.0110  139.5150 N   0  0  0  0  0  2  0  0  0  0  0  0
  186.1560  177.9600  137.6680 C   0  0  1  0  0  3  0  0  0  0  0  0
  186.1810  178.6480  140.1040 C   0  0  0  0  0  0  0  0  0  0  0  0
  181.2750  176.1360  139.3780 C   0  0  0  0  0  0  0  0  0  0  0  0
  183.1470  176.9110  138.0180 C   0  0  2  0  0  3  0  0  0  0  0  0
  182.3970  178.6010  144.0010 C   0  0  0  0  0  2  0  0  0  0  0  0
  187.3890  178.4480  136.9460 C   0  0  0  0  0  2  0  0  0  0  0  0
  185.9240  177.3790  135.3100 C   0  0  0  0  0  2  0  0  0  0  0  0
  179.9930  173.0050  138.2880 C   0  0  0  0  0  2  0  0  0  0  0  0
  180.5140  178.7810  142.3750 C   0  0  0  0  0  1  0  0  0  0  0  0
  185.0760  178.6750  142.3780 C   0  0  1  0  0  3  0  0  0  0  0  0
  183.7320  179.1680  144.5190 C   0  0  0  0  0  2  0  0  0  0  0  0
  180.4770  174.2360  138.3220 C   0  0  0  0  0  0  0  0  0  0  0  0
  182.9450  178.6370  141.5020 C   0  0  1  0  0  3  0  0  0  0  0  0
  184.1640  179.1300  138.7370 C   0  0  0  0  0  2  0  0  0  0  0  0
  186.9890  177.6980  140.2960 O   0  0  0  0  0  0  0  0  0  0  0  0
  185.6910  178.9880  138.7150 C   0  0  2  0  0  3  0  0  0  0  0  0
  187.3700  177.7510  135.6000 C   0  0  0  0  0  2  0  0  0  0  0  0
  184.8860  175.2660  137.2830 C   0  0  0  0  0  1  0  0  0  0  0  0
  184.6800  179.7120  143.4430 C   0  0  0  0  0  2  0  0  0  0  0  0
  184.0020  177.8330  141.9880 O   0  0  0  0  0  0  0  0  0  0  0  0
  184.1540  176.5610  136.9340 C   0  0  2  0  0  3  0  0  0  0  0  0
  1  5  1  1  0  0  0
  1 22  1  0  0  0  0
  2 18  1  6  0  0  0
  2 14  1  0  0  0  0
  3 19  1  0  0  0  0
  4 23  1  6  0  0  0
  4  1  1  0  0  0  0
  6 21  1  0  0  0  0
  7 16  1  6  0  0  0
  7 30  1  0  0  0  0
  7 10  1  0  0  0  0
  8  6  1  1  0  0  0
  8 12  1  0  0  0  0
 10 15  1  6  0  0  0
 10 25  1  0  0  0  0
 11 24  2  0  0  0  0
 11  3  1  0  0  0  0
 12  9  1  0  0  0  0
 12  5  2  0  0  0  0
 13  8  1  0  0  0  0
 13  4  1  0  0  0  0
 14 20  1  0  0  0  0
 16 26  1  0  0  0  0
 17 21  2  0  0  0  0
 19 28  1  0  0  0  0
 21  9  1  0  0  0  0
 22 29  1  0  0  0  0
 22  2  1  0  0  0  0
 25 23  1  0  0  0  0
 25 11  1  0  0  0  0
 26 15  1  0  0  0  0
 28 20  1  0  0  0  0
 29 19  1  0  0  0  0
 30 27  1  0  0  0  0
 30 13  1  0  0  0  0
M  END
>  <MODEL>
5

>  <REMARK>
 VINA RESULT:      -6.9      2.919      7.376
  Name = 
  0 active torsions:
  status: ('A' for Active; 'I' for Inactive)
                            x       y       z     vdW  Elec       q    Type
                         _______ _______ _______ _____ _____    ______ ____

>  <TORSDO>
F 0

$$$$
=
 OpenBabel10272413563D

 30 35  0  0  1  0  0  0  0  0999 V2000
  186.2800  178.0380  137.4770 C   0  0  1  0  0  3  0  0  0  0  0  0
  188.7990  177.9500  136.5840 C   0  0  2  0  0  3  0  0  0  0  0  0
  186.3930  175.1300  135.2660 N   0  0  0  0  0  2  0  0  0  0  0  0
  184.9800  177.2080  137.4400 C   0  0  1  0  0  3  0  0  0  0  0  0
  186.6390  178.4130  138.8460 N   0  0  0  0  0  0  0  0  0  0  0  0
  183.2990  178.8120  140.9150 S   0  0  0  0  0  0  0  0  0  0  0  0
  182.0040  176.5100  137.1450 C   0  0  1  0  0  3  0  0  0  0  0  0
  184.3130  178.3920  139.4900 C   0  0  1  0  0  3  0  0  0  0  0  0
  186.0310  179.0650  141.0490 N   0  0  0  0  0  0  0  0  0  0  0  0
  182.7640  175.3290  136.5440 C   0  0  1  0  0  3  0  0  0  0  0  0
  185.1220  174.7720  135.8130 C   0  0  0  0  0  0  0  0  0  0  0  0
  185.7230  178.6770  139.7230 C   0  0  0  0  0  0  0  0  0  0  0  0
  183.9230  177.6310  138.4530 C   0  0  2  0  0  3  0  0  0  0  0  0
  189.9570  176.9960  136.9030 C   0  0  0  0  0  2  0  0  0  0  0  0
  181.7420  174.5800  135.7230 C   0  0  0  0  0  2  0  0  0  0  0  0
  180.5490  176.0820  137.2350 C   0  0  0  0  0  2  0  0  0  0  0  0
  184.8570  179.2310  143.1260 C   0  0  0  0  0  1  0  0  0  0  0  0
  188.9820  179.2470  137.3540 C   0  0  0  0  0  1  0  0  0  0  0  0
  187.6190  175.0880  136.0600 C   0  0  1  0  0  3  0  0  0  0  0  0
  190.0910  175.8010  135.9420 C   0  0  0  0  0  2  0  0  0  0  0  0
  184.8270  179.1510  141.8060 C   0  0  0  0  0  0  0  0  0  0  0  0
  187.4160  177.2710  136.7730 C   0  0  1  0  0  3  0  0  0  0  0  0
  184.4540  177.1560  136.0090 C   0  0  0  0  0  2  0  0  0  0  0  0
  185.0010  173.6990  136.4650 O   0  0  0  0  0  0  0  0  0  0  0  0
  183.9690  175.7390  135.6790 C   0  0  2  0  0  3  0  0  0  0  0  0
  180.4190  174.7970  136.4310 C   0  0  0  0  0  2  0  0  0  0  0  0
  182.5950  175.7880  139.5070 C   0  0  0  0  0  1  0  0  0  0  0  0
  188.8210  175.4330  135.1640 C   0  0  0  0  0  2  0  0  0  0  0  0
  187.5110  175.9270  137.2020 O   0  0  0  0  0  0  0  0  0  0  0  0
  182.5680  176.9440  138.5090 C   0  0  2  0  0  3  0  0  0  0  0  0
  1  5  1  1  0  0  0
  2 22  1  0  0  0  0
  2 14  1  0  0  0  0
  2 18  1  1  0  0  0
  3 11  1  0  0  0  0
  3 19  1  0  0  0  0
  4 23  1  6  0  0  0
  4  1  1  0  0  0  0
  4 13  1  0  0  0  0
  5 12  2  0  0  0  0
  6 21  1  0  0  0  0
  7 16  1  1  0  0  0
  7 30  1  0  0  0  0
  8 12  1  1  0  0  0
  8  6  1  0  0  0  0
  9 21  2  0  0  0  0
 10 15  1  6  0  0  0
 10  7  1  0  0  0  0
 11 24  2  0  0  0  0
 12  9  1  0  0  0  0
 13 30  1  0  0  0  0
 13  8  1  0  0  0  0
 15 26  1  0  0  0  0
 19 29  1  0  0  0  0
 20 14  1  0  0  0  0
 21 17  1  0  0  0  0
 22 29  1  0  0  0  0
 22  1  1  0  0  0  0
 25 11  1  0  0  0  0
 25 23  1  0  0  0  0
 25 10  1  0  0  0  0
 26 16  1  0  0  0  0
 28 20  1  0  0  0  0
 28 19  1  0  0  0  0
 30 27  1  0  0  0  0
M  END
>  <MODEL>
6

>  <REMARK>
 VINA RESULT:      -6.8      2.666      5.144
  Name = 
  0 active torsions:
  status: ('A' for Active; 'I' for Inactive)
                            x       y       z     vdW  Elec       q    Type
                         _______ _______ _______ _____ _____    ______ ____

>  <TORSDO>
F 0

$$$$
=
 OpenBabel10272413563D

 30 35  0  0  1  0  0  0  0  0999 V2000
  191.2490  177.6510  140.3130 C   0  0  1  0  0  3  0  0  0  0  0  0
  193.0760  176.7750  138.5680 C   0  0  2  0  0  3  0  0  0  0  0  0
  189.3390  176.7240  137.3380 N   0  0  0  0  0  2  0  0  0  0  0  0
  189.7180  177.7530  140.4740 C   0  0  1  0  0  3  0  0  0  0  0  0
  191.8700  177.0220  141.4810 N   0  0  0  0  0  0  0  0  0  0  0  0
  189.6940  177.9210  144.6510 S   0  0  0  0  0  0  0  0  0  0  0  0
  186.9490  178.9290  141.0960 C   0  0  1  0  0  3  0  0  0  0  0  0
  190.1050  177.8530  142.9010 C   0  0  1  0  0  3  0  0  0  0  0  0
  191.9810  176.6450  143.8240 N   0  0  0  0  0  0  0  0  0  0  0  0
  186.7510  178.0380  139.8720 C   0  0  1  0  0  3  0  0  0  0  0  0
  188.1730  176.8360  138.1560 C   0  0  0  0  0  0  0  0  0  0  0  0
  191.3950  177.2160  142.6700 C   0  0  0  0  0  0  0  0  0  0  0  0
  189.2430  178.0590  141.8900 C   0  0  2  0  0  3  0  0  0  0  0  0
  193.4010  175.3650  138.0600 C   0  0  0  0  0  2  0  0  0  0  0  0
  185.4240  178.4610  139.2880 C   0  0  0  0  0  2  0  0  0  0  0  0
  185.5600  179.3230  141.5680 C   0  0  0  0  0  2  0  0  0  0  0  0
  191.3390  176.2830  146.1000 C   0  0  0  0  0  1  0  0  0  0  0  0
  194.0910  177.1830  139.6230 C   0  0  0  0  0  1  0  0  0  0  0  0
  190.3260  175.6640  137.5380 C   0  0  1  0  0  3  0  0  0  0  0  0
  192.6790  174.9670  136.7590 C   0  0  0  0  0  2  0  0  0  0  0  0
  191.1620  176.9230  144.9560 C   0  0  0  0  0  0  0  0  0  0  0  0
  191.5930  176.9080  139.0070 C   0  0  1  0  0  3  0  0  0  0  0  0
  189.1640  178.7220  139.4330 C   0  0  0  0  0  2  0  0  0  0  0  0
  187.4570  175.8200  138.3720 O   0  0  0  0  0  0  0  0  0  0  0  0
  187.8740  178.1580  138.8250 C   0  0  2  0  0  3  0  0  0  0  0  0
  184.5910  178.9150  140.4700 C   0  0  0  0  0  2  0  0  0  0  0  0
  187.1420  176.9130  142.6280 C   0  0  0  0  0  1  0  0  0  0  0  0
  191.4030  175.7560  136.4430 C   0  0  0  0  0  2  0  0  0  0  0  0
  190.8580  175.7100  138.8540 O   0  0  0  0  0  0  0  0  0  0  0  0
  187.7660  178.2410  142.2030 C   0  0  2  0  0  3  0  0  0  0  0  0
  1  4  1  0  0  0  0
  1  5  1  1  0  0  0
  2 22  1  0  0  0  0
  2 18  1  1  0  0  0
  3 19  1  0  0  0  0
  3 11  1  0  0  0  0
  4 23  1  6  0  0  0
  4 13  1  0  0  0  0
  5 12  2  0  0  0  0
  6 21  1  0  0  0  0
  7 16  1  1  0  0  0
  7 30  1  0  0  0  0
  8 12  1  6  0  0  0
  8  6  1  0  0  0  0
  9 21  2  0  0  0  0
 10 15  1  6  0  0  0
 10  7  1  0  0  0  0
 11 24  2  0  0  0  0
 11 25  1  0  0  0  0
 12  9  1  0  0  0  0
 13 30  1  0  0  0  0
 13  8  1  0  0  0  0
 14  2  1  0  0  0  0
 15 26  1  0  0  0  0
 19 29  1  0  0  0  0
 20 14  1  0  0  0  0
 21 17  1  0  0  0  0
 22  1  1  0  0  0  0
 25 23  1  0  0  0  0
 25 10  1  0  0  0  0
 26 16  1  0  0  0  0
 28 20  1  0  0  0  0
 28 19  1  0  0  0  0
 29 22  1  0  0  0  0
 30 27  1  0  0  0  0
M  END
>  <MODEL>
7

>  <REMARK>
 VINA RESULT:      -6.6      2.811      4.866
  Name = 
  0 active torsions:
  status: ('A' for Active; 'I' for Inactive)
                            x       y       z     vdW  Elec       q    Type
                         _______ _______ _______ _____ _____    ______ ____

>  <TORSDO>
F 0

$$$$
=
 OpenBabel10272413563D

 30 35  0  0  1  0  0  0  0  0999 V2000
  187.0160  178.6840  140.7990 C   0  0  1  0  0  3  0  0  0  0  0  0
  184.4580  179.3840  140.4500 C   0  0  2  0  0  3  0  0  0  0  0  0
  185.5390  178.5460  144.1400 N   0  0  0  0  0  2  0  0  0  0  0  0
  187.9590  178.1500  141.8980 C   0  0  1  0  0  3  0  0  0  0  0  0
  187.0980  177.8750  139.5810 N   0  0  0  0  0  0  0  0  0  0  0  0
  190.7680  176.4410  139.3160 S   0  0  0  0  0  0  0  0  0  0  0  0
  190.4400  177.8550  143.6840 C   0  0  1  0  0  3  0  0  0  0  0  0
  189.3870  177.3020  140.0840 C   0  0  1  0  0  3  0  0  0  0  0  0
  188.3430  176.5720  138.0320 N   0  0  0  0  0  2  0  0  0  0  0  0
  189.2430  177.5890  144.5960 C   0  0  1  0  0  3  0  0  0  0  0  0
  186.7270  177.8620  144.5430 C   0  0  0  0  0  0  0  0  0  0  0  0
  188.2200  177.3410  139.2140 C   0  0  0  0  0  0  0  0  0  0  0  0
  189.2900  177.6090  141.3900 C   0  0  2  0  0  3  0  0  0  0  0  0
  183.1650  178.5630  140.5020 C   0  0  0  0  0  2  0  0  0  0  0  0
  189.7810  177.7190  146.0000 C   0  0  0  0  0  2  0  0  0  0  0  0
  191.6760  177.4750  144.4790 C   0  0  0  0  0  2  0  0  0  0  0  0
  189.9370  175.0430  137.1150 C   0  0  0  0  0  2  0  0  0  0  0  0
  184.8540  179.6190  139.0020 C   0  0  0  0  0  1  0  0  0  0  0  0
  184.5640  177.9390  143.2360 C   0  0  1  0  0  3  0  0  0  0  0  0
  182.4650  178.5490  141.8740 C   0  0  0  0  0  2  0  0  0  0  0  0
  189.6510  176.0110  137.9710 C   0  0  0  0  0  0  0  0  0  0  0  0
  185.5740  178.7700  141.3380 C   0  0  1  0  0  3  0  0  0  0  0  0
  188.1170  179.2080  142.9860 C   0  0  0  0  0  2  0  0  0  0  0  0
  186.6550  176.6740  144.9620 O   0  0  0  0  0  0  0  0  0  0  0  0
  188.0620  178.5500  144.3690 C   0  0  2  0  0  3  0  0  0  0  0  0
  191.2290  177.2750  145.9190 C   0  0  0  0  0  2  0  0  0  0  0  0
  190.1890  175.5890  142.5650 C   0  0  0  0  0  1  0  0  0  0  0  0
  183.3590  178.8820  143.0750 C   0  0  0  0  0  2  0  0  0  0  0  0
  185.1710  177.5880  142.0000 O   0  0  0  0  0  0  0  0  0  0  0  0
  190.3480  177.0930  142.3510 C   0  0  2  0  0  3  0  0  0  0  0  0
  1  5  1  6  0  0  0
  1 22  1  0  0  0  0
  1  4  1  0  0  0  0
  2 18  1  6  0  0  0
  2 14  1  0  0  0  0
  2 22  1  0  0  0  0
  3 11  1  0  0  0  0
  4 23  1  1  0  0  0
  6  8  1  0  0  0  0
  7 16  1  1  0  0  0
  7 10  1  0  0  0  0
  8 12  1  1  0  0  0
  8 13  1  0  0  0  0
  9 12  1  0  0  0  0
 10 15  1  1  0  0  0
 11 24  2  0  0  0  0
 12  5  2  0  0  0  0
 13  4  1  0  0  0  0
 13 30  1  0  0  0  0
 14 20  1  0  0  0  0
 16 26  1  0  0  0  0
 17 21  2  0  0  0  0
 19  3  1  0  0  0  0
 20 28  1  0  0  0  0
 21  9  1  0  0  0  0
 21  6  1  0  0  0  0
 22 29  1  0  0  0  0
 23 25  1  0  0  0  0
 25 11  1  0  0  0  0
 25 10  1  0  0  0  0
 26 15  1  0  0  0  0
 28 19  1  0  0  0  0
 29 19  1  0  0  0  0
 30 27  1  0  0  0  0
 30  7  1  0  0  0  0
M  END
>  <MODEL>
8

>  <REMARK>
 VINA RESULT:      -6.6      2.607      5.362
  Name = 
  0 active torsions:
  status: ('A' for Active; 'I' for Inactive)
                            x       y       z     vdW  Elec       q    Type
                         _______ _______ _______ _____ _____    ______ ____

>  <TORSDO>
F 0

$$$$
=
 OpenBabel10272413563D

 30 35  0  0  1  0  0  0  0  0999 V2000
  187.9140  178.0090  139.1610 C   0  0  1  0  0  3  0  0  0  0  0  0
  190.2150  177.0010  138.2450 C   0  0  2  0  0  3  0  0  0  0  0  0
  187.0080  176.2300  136.1000 N   0  0  0  0  0  2  0  0  0  0  0  0
  186.3990  177.9580  138.8710 C   0  0  1  0  0  3  0  0  0  0  0  0
  188.2000  177.7300  140.5700 N   0  0  0  0  0  0  0  0  0  0  0  0
  185.1490  179.0280  142.7140 S   0  0  0  0  0  0  0  0  0  0  0  0
  183.5110  178.8970  138.4150 C   0  0  1  0  0  3  0  0  0  0  0  0
  186.0550  178.6300  141.2120 C   0  0  1  0  0  3  0  0  0  0  0  0
  187.6430  177.8890  142.8750 N   0  0  0  0  0  0  0  0  0  0  0  0
  183.7270  177.7420  137.4380 C   0  0  1  0  0  3  0  0  0  0  0  0
  185.6490  176.3770  136.5190 C   0  0  0  0  0  0  0  0  0  0  0  0
  187.3890  178.1200  141.5020 C   0  0  0  0  0  0  0  0  0  0  0  0
  185.5160  178.5050  139.9870 C   0  0  2  0  0  3  0  0  0  0  0  0
  190.7490  175.5650  138.2030 C   0  0  0  0  0  2  0  0  0  0  0  0
  182.6070  177.8630  136.4320 C   0  0  0  0  0  2  0  0  0  0  0  0
  182.0250  179.2130  138.3820 C   0  0  0  0  0  2  0  0  0  0  0  0
  186.3850  177.9570  144.9080 C   0  0  0  0  0  1  0  0  0  0  0  0
  190.8550  177.7490  139.4020 C   0  0  0  0  0  1  0  0  0  0  0  0
  187.9490  175.3680  136.8110 C   0  0  1  0  0  3  0  0  0  0  0  0
  190.4610  174.8070  136.8930 C   0  0  0  0  0  2  0  0  0  0  0  0
  186.5160  178.3070  143.6390 C   0  0  0  0  0  0  0  0  0  0  0  0
  188.6630  177.0460  138.2190 C   0  0  1  0  0  3  0  0  0  0  0  0
  186.1220  178.6010  137.5160 C   0  0  0  0  0  2  0  0  0  0  0  0
  184.9580  175.3530  136.7730 O   0  0  0  0  0  0  0  0  0  0  0  0
  185.0980  177.7660  136.7380 C   0  0  2  0  0  3  0  0  0  0  0  0
  181.4420  178.4610  137.1960 C   0  0  0  0  0  2  0  0  0  0  0  0
  183.3560  177.3020  140.3850 C   0  0  0  0  0  1  0  0  0  0  0  0
  189.2920  175.3480  136.0610 C   0  0  0  0  0  2  0  0  0  0  0  0
  188.0700  175.7630  138.1700 O   0  0  0  0  0  0  0  0  0  0  0  0
  184.0050  178.5700  139.8340 C   0  0  2  0  0  3  0  0  0  0  0  0
  1  5  1  1  0  0  0
  2 18  1  1  0  0  0
  3 11  1  0  0  0  0
  3 19  1  0  0  0  0
  4 23  1  6  0  0  0
  4  1  1  0  0  0  0
  4 13  1  0  0  0  0
  5 12  2  0  0  0  0
  6 21  1  0  0  0  0
  7 16  1  1  0  0  0
  7 30  1  0  0  0  0
  8 12  1  1  0  0  0
  8  6  1  0  0  0  0
  9 21  2  0  0  0  0
 10 15  1  6  0  0  0
 10  7  1  0  0  0  0
 11 25  1  0  0  0  0
 11 24  2  0  0  0  0
 12  9  1  0  0  0  0
 13  8  1  0  0  0  0
 14  2  1  0  0  0  0
 15 26  1  0  0  0  0
 19 29  1  0  0  0  0
 20 14  1  0  0  0  0
 21 17  1  0  0  0  0
 22  2  1  0  0  0  0
 22  1  1  0  0  0  0
 25 10  1  0  0  0  0
 25 23  1  0  0  0  0
 26 16  1  0  0  0  0
 28 19  1  0  0  0  0
 28 20  1  0  0  0  0
 29 22  1  0  0  0  0
 30 13  1  0  0  0  0
 30 27  1  0  0  0  0
M  END
>  <MODEL>
9

>  <REMARK>
 VINA RESULT:      -6.4      2.263      4.216
  Name = 
  0 active torsions:
  status: ('A' for Active; 'I' for Inactive)
                            x       y       z     vdW  Elec       q    Type
                         _______ _______ _______ _____ _____    ______ ____

>  <TORSDO>
F 0

$$$$
