=
 OpenBabel10272400313D

 31 35  0  0  1  0  0  0  0  0999 V2000
  186.0500  178.2310  145.0340 C   0  0  0  0  0  0  0  0  0  0  0  0
  188.7710  178.2950  142.4370 C   0  0  2  0  0  3  0  0  0  0  0  0
  189.9370  177.7760  143.2410 C   0  0  0  0  0  0  0  0  0  0  0  0
  185.3840  178.7190  138.3300 O   0  0  0  0  0  0  0  0  0  0  0  0
  186.5180  178.3780  137.8940 C   0  0  0  0  0  0  0  0  0  0  0  0
  191.6170  178.2590  145.0330 C   0  0  0  0  0  2  0  0  0  0  0  0
  187.4140  178.2190  143.0880 C   0  0  0  0  0  0  0  0  0  0  0  0
  184.8960  178.3390  144.2540 C   0  0  0  0  0  3  0  0  0  0  0  0
  190.3230  178.4810  144.3110 C   0  0  0  0  0  3  0  0  0  0  0  0
  187.5230  178.1100  140.2250 C   0  0  0  0  0  0  0  0  0  0  0  0
  185.9410  178.1830  146.5150 C   0  0  0  0  0  1  0  0  0  0  0  0
  190.6460  176.3650  141.4160 N   0  0  0  0  0  0  0  0  0  0  0  0
  191.6820  176.9120  145.7400 C   0  0  0  0  0  2  0  0  0  0  0  0
  186.3980  178.3620  140.8360 N   0  0  0  0  0  0  0  0  0  0  0  0
  188.7150  177.7670  141.0250 C   0  0  0  0  0  0  0  0  0  0  0  0
  187.5930  178.0830  138.7920 N   0  0  0  0  0  2  0  0  0  0  0  0
  187.2740  178.1880  144.4420 N   0  0  0  0  0  0  0  0  0  0  0  0
  191.4550  175.7120  144.8200 C   0  0  0  0  0  2  0  0  0  0  0  0
  186.2720  178.3360  142.2690 C   0  0  0  0  0  0  0  0  0  0  0  0
  185.0110  178.3930  142.8640 C   0  0  0  0  0  3  0  0  0  0  0  0
  189.6200  176.8980  140.5660 C   0  0  0  0  0  3  0  0  0  0  0  0
  190.7830  176.6980  142.6650 C   0  0  0  0  0  0  0  0  0  0  0  0
  191.7100  176.0040  143.4480 O   0  0  0  0  0  0  0  0  0  0  0  0
  187.4240  175.6160  135.2570 C   0  0  1  0  0  3  0  0  0  0  0  0
  185.7320  177.3710  135.7460 C   0  0  0  0  0  2  0  0  0  0  0  0
  189.1490  178.6780  136.3660 N   0  0  0  0  0  2  0  0  0  0  0  0
  187.8300  174.1780  135.4970 C   0  0  0  0  0  1  0  0  0  0  0  0
  186.0890  175.8990  135.9320 C   0  0  0  0  0  2  0  0  0  0  0  0
  188.1740  177.8670  136.1170 C   0  0  0  0  0  0  0  0  0  0  0  0
  186.7610  178.2870  136.4190 C   0  0  2  0  0  3  0  0  0  0  0  0
  188.4600  176.5110  135.7640 N   0  0  0  0  0  2  0  0  0  0  0  0
  1 11  1  0  0  0  0
  2 15  1  6  0  0  0
  2  7  1  0  0  0  0
  2  3  1  0  0  0  0
  3  9  2  0  0  0  0
  5  4  2  0  0  0  0
  5 16  1  0  0  0  0
  6 13  1  0  0  0  0
  7 17  2  0  0  0  0
  8  1  2  0  0  0  0
  9  6  1  0  0  0  0
 10 14  2  0  0  0  0
 10 15  1  0  0  0  0
 12 22  2  0  0  0  0
 14 19  1  0  0  0  0
 16 10  1  0  0  0  0
 17  1  1  0  0  0  0
 18 13  1  0  0  0  0
 19 20  2  0  0  0  0
 19  7  1  0  0  0  0
 20  8  1  0  0  0  0
 21 15  2  0  0  0  0
 21 12  1  0  0  0  0
 22  3  1  0  0  0  0
 22 23  1  0  0  0  0
 23 18  1  0  0  0  0
 24 27  1  1  0  0  0
 24 31  1  0  0  0  0
 24 28  1  0  0  0  0
 25 28  1  0  0  0  0
 25 30  1  0  0  0  0
 29 26  2  0  0  0  0
 29 30  1  0  0  0  0
 30  5  1  1  0  0  0
 31 29  1  0  0  0  0
M  END
>  <MODEL>
1

>  <REMARK>
 VINA RESULT:      -9.1      0.000      0.000
  Name = 
  1 active torsions:
  status: ('A' for Active; 'I' for Inactive)
    1  A    between atoms: C_9  and  C_22
                            x       y       z     vdW  Elec       q    Type
                         _______ _______ _______ _____ _____    ______ ____

>  <TORSDO>
F 1

$$$$
=
 OpenBabel10272400313D

 31 35  0  0  1  0  0  0  0  0999 V2000
  189.8610  178.0220  142.5900 C   0  0  0  0  0  0  0  0  0  0  0  0
  186.5670  177.6370  144.3660 C   0  0  2  0  0  3  0  0  0  0  0  0
  187.0110  177.7400  145.8030 C   0  0  0  0  0  0  0  0  0  0  0  0
  183.6490  178.6150  140.0010 O   0  0  0  0  0  0  0  0  0  0  0  0
  182.9130  178.7200  141.0200 C   0  0  0  0  0  0  0  0  0  0  0  0
  188.1870  176.6220  147.7110 C   0  0  0  0  0  2  0  0  0  0  0  0
  187.5980  177.9580  143.3150 C   0  0  0  0  0  0  0  0  0  0  0  0
  189.4580  178.3080  141.2820 C   0  0  0  0  0  3  0  0  0  0  0  0
  187.8750  176.8260  146.2600 C   0  0  0  0  0  3  0  0  0  0  0  0
  184.8460  178.4180  142.6590 C   0  0  0  0  0  0  0  0  0  0  0  0
  191.3070  177.8980  142.9090 C   0  0  0  0  0  1  0  0  0  0  0  0
  185.1390  179.1630  146.3450 N   0  0  0  0  0  0  0  0  0  0  0  0
  188.9150  177.8050  148.3360 C   0  0  0  0  0  2  0  0  0  0  0  0
  185.7520  178.3720  141.7210 N   0  0  0  0  0  0  0  0  0  0  0  0
  185.2690  178.3460  144.0720 C   0  0  0  0  0  0  0  0  0  0  0  0
  183.4610  178.6180  142.3380 N   0  0  0  0  0  2  0  0  0  0  0  0
  188.9320  177.8410  143.5670 N   0  0  0  0  0  0  0  0  0  0  0  0
  188.1740  179.1360  148.2040 C   0  0  0  0  0  2  0  0  0  0  0  0
  187.1550  178.2370  142.0060 C   0  0  0  0  0  0  0  0  0  0  0  0
  188.0970  178.4130  140.9920 C   0  0  0  0  0  3  0  0  0  0  0  0
  184.6080  179.0190  145.0190 C   0  0  0  0  0  3  0  0  0  0  0  0
  186.2690  178.6430  146.7210 C   0  0  0  0  0  0  0  0  0  0  0  0
  186.7740  178.9760  147.9820 O   0  0  0  0  0  0  0  0  0  0  0  0
  179.9820  177.3720  138.7850 C   0  0  1  0  0  3  0  0  0  0  0  0
  180.6530  177.6630  141.1610 C   0  0  0  0  0  2  0  0  0  0  0  0
  181.4610  180.7190  139.2180 N   0  0  0  0  0  2  0  0  0  0  0  0
  180.0560  176.4680  137.5730 C   0  0  0  0  0  1  0  0  0  0  0  0
  180.6700  176.7080  139.9710 C   0  0  0  0  0  2  0  0  0  0  0  0
  181.1070  179.5110  139.5100 C   0  0  0  0  0  0  0  0  0  0  0  0
  181.4400  178.9450  140.8640 C   0  0  2  0  0  3  0  0  0  0  0  0
  180.6020  178.6570  138.4790 N   0  0  0  0  0  2  0  0  0  0  0  0
  1 11  1  0  0  0  0
  1 17  1  0  0  0  0
  2  7  1  6  0  0  0
  2  3  1  0  0  0  0
  3  9  2  0  0  0  0
  3 22  1  0  0  0  0
  4  5  2  0  0  0  0
  5 16  1  0  0  0  0
  6 13  1  0  0  0  0
  7 17  2  0  0  0  0
  8  1  2  0  0  0  0
  9  6  1  0  0  0  0
 10 15  1  0  0  0  0
 12 22  2  0  0  0  0
 14 19  1  0  0  0  0
 14 10  2  0  0  0  0
 15  2  1  0  0  0  0
 15 21  2  0  0  0  0
 16 10  1  0  0  0  0
 18 13  1  0  0  0  0
 19  7  1  0  0  0  0
 20  8  1  0  0  0  0
 20 19  2  0  0  0  0
 21 12  1  0  0  0  0
 22 23  1  0  0  0  0
 23 18  1  0  0  0  0
 24 27  1  6  0  0  0
 24 28  1  0  0  0  0
 26 29  2  0  0  0  0
 28 25  1  0  0  0  0
 29 30  1  0  0  0  0
 30  5  1  6  0  0  0
 30 25  1  0  0  0  0
 31 24  1  0  0  0  0
 31 29  1  0  0  0  0
M  END
>  <MODEL>
2

>  <REMARK>
 VINA RESULT:      -9.1      3.713      5.731
  Name = 
  1 active torsions:
  status: ('A' for Active; 'I' for Inactive)
    1  A    between atoms: C_9  and  C_22
                            x       y       z     vdW  Elec       q    Type
                         _______ _______ _______ _____ _____    ______ ____

>  <TORSDO>
F 1

$$$$
=
 OpenBabel10272400313D

 31 35  0  0  1  0  0  0  0  0999 V2000
  190.6130  176.9560  145.7870 C   0  0  0  0  0  0  0  0  0  0  0  0
  187.8470  177.0720  143.2410 C   0  0  2  0  0  3  0  0  0  0  0  0
  186.7330  177.6660  144.0650 C   0  0  0  0  0  0  0  0  0  0  0  0
  191.1210  176.4240  139.0720 O   0  0  0  0  0  0  0  0  0  0  0  0
  190.0050  176.8390  138.6570 C   0  0  0  0  0  0  0  0  0  0  0  0
  185.0570  177.2960  145.8890 C   0  0  0  0  0  2  0  0  0  0  0  0
  189.2170  177.0580  143.8660 C   0  0  0  0  0  0  0  0  0  0  0  0
  191.7430  176.7720  144.9860 C   0  0  0  0  0  3  0  0  0  0  0  0
  186.3200  176.9890  145.1440 C   0  0  0  0  0  3  0  0  0  0  0  0
  189.0630  177.1730  141.0060 C   0  0  0  0  0  0  0  0  0  0  0  0
  190.7520  176.9970  147.2660 C   0  0  0  0  0  1  0  0  0  0  0  0
  186.0840  179.1210  142.2520 N   0  0  0  0  0  0  0  0  0  0  0  0
  185.0950  178.6450  146.5960 C   0  0  0  0  0  2  0  0  0  0  0  0
  190.1800  176.8470  141.5970 N   0  0  0  0  0  0  0  0  0  0  0  0
  187.9110  177.5940  141.8280 C   0  0  0  0  0  0  0  0  0  0  0  0
  188.9680  177.2050  139.5740 N   0  0  0  0  0  2  0  0  0  0  0  0
  189.3840  177.0790  145.2180 N   0  0  0  0  0  0  0  0  0  0  0  0
  185.3840  179.8270  145.6700 C   0  0  0  0  0  2  0  0  0  0  0  0
  190.3340  176.8650  143.0270 C   0  0  0  0  0  0  0  0  0  0  0  0
  191.5990  176.7250  143.5980 C   0  0  0  0  0  3  0  0  0  0  0  0
  187.0570  178.5210  141.3840 C   0  0  0  0  0  3  0  0  0  0  0  0
  185.9490  178.7980  143.5040 C   0  0  0  0  0  0  0  0  0  0  0  0
  185.0840  179.5520  144.3030 O   0  0  0  0  0  0  0  0  0  0  0  0
  186.9240  177.3610  136.2820 C   0  0  1  0  0  3  0  0  0  0  0  0
  189.1530  178.3160  136.8310 C   0  0  0  0  0  2  0  0  0  0  0  0
  189.3520  174.6150  136.6630 N   0  0  0  0  0  2  0  0  0  0  0  0
  185.4510  177.3590  136.6310 C   0  0  0  0  0  1  0  0  0  0  0  0
  187.6600  178.3810  137.1400 C   0  0  0  0  0  2  0  0  0  0  0  0
  188.8760  175.8160  136.6970 C   0  0  0  0  0  0  0  0  0  0  0  0
  189.7410  176.9460  137.1860 C   0  0  2  0  0  3  0  0  0  0  0  0
  187.4770  176.0250  136.4780 N   0  0  0  0  0  2  0  0  0  0  0  0
  1 11  1  0  0  0  0
  2 15  1  6  0  0  0
  2  7  1  0  0  0  0
  2  3  1  0  0  0  0
  3  9  2  0  0  0  0
  5  4  2  0  0  0  0
  5 16  1  0  0  0  0
  6 13  1  0  0  0  0
  7 17  2  0  0  0  0
  8  1  2  0  0  0  0
  9  6  1  0  0  0  0
 10 14  2  0  0  0  0
 10 15  1  0  0  0  0
 12 22  2  0  0  0  0
 14 19  1  0  0  0  0
 16 10  1  0  0  0  0
 17  1  1  0  0  0  0
 18 13  1  0  0  0  0
 19 20  2  0  0  0  0
 19  7  1  0  0  0  0
 20  8  1  0  0  0  0
 21 15  2  0  0  0  0
 21 12  1  0  0  0  0
 22  3  1  0  0  0  0
 22 23  1  0  0  0  0
 23 18  1  0  0  0  0
 24 31  1  0  0  0  0
 24 27  1  1  0  0  0
 24 28  1  0  0  0  0
 25 28  1  0  0  0  0
 25 30  1  0  0  0  0
 26 29  2  0  0  0  0
 29 30  1  0  0  0  0
 30  5  1  1  0  0  0
 31 29  1  0  0  0  0
M  END
>  <MODEL>
3

>  <REMARK>
 VINA RESULT:      -9.0      1.969      4.539
  Name = 
  1 active torsions:
  status: ('A' for Active; 'I' for Inactive)
    1  A    between atoms: C_9  and  C_22
                            x       y       z     vdW  Elec       q    Type
                         _______ _______ _______ _____ _____    ______ ____

>  <TORSDO>
F 1

$$$$
=
 OpenBabel10272400313D

 31 35  0  0  1  0  0  0  0  0999 V2000
  188.3160  176.1630  135.7660 C   0  0  0  0  0  0  0  0  0  0  0  0
  190.8560  175.8130  138.5180 C   0  0  2  0  0  3  0  0  0  0  0  0
  192.0890  175.4740  137.7190 C   0  0  0  0  0  0  0  0  0  0  0  0
  187.8400  178.2990  142.1570 O   0  0  0  0  0  0  0  0  0  0  0  0
  189.0280  178.2430  142.5770 C   0  0  0  0  0  0  0  0  0  0  0  0
  193.2930  173.7420  136.3690 C   0  0  0  0  0  2  0  0  0  0  0  0
  189.6410  176.2410  137.7380 C   0  0  0  0  0  0  0  0  0  0  0  0
  187.2730  176.8330  136.4120 C   0  0  0  0  0  3  0  0  0  0  0  0
  192.0720  174.3580  136.9820 C   0  0  0  0  0  3  0  0  0  0  0  0
  189.9300  177.2500  140.4060 C   0  0  0  0  0  0  0  0  0  0  0  0
  188.1660  175.7520  134.3460 C   0  0  0  0  0  1  0  0  0  0  0  0
  193.4390  176.9650  139.0540 N   0  0  0  0  0  0  0  0  0  0  0  0
  193.9100  174.6050  135.2750 C   0  0  0  0  0  2  0  0  0  0  0  0
  188.7800  177.3170  139.7930 N   0  0  0  0  0  0  0  0  0  0  0  0
  191.1090  176.7540  139.6690 C   0  0  0  0  0  0  0  0  0  0  0  0
  190.0770  177.7250  141.7520 N   0  0  0  0  0  2  0  0  0  0  0  0
  189.4610  175.8710  136.4390 N   0  0  0  0  0  0  0  0  0  0  0  0
  194.2810  176.0170  135.7280 C   0  0  0  0  0  2  0  0  0  0  0  0
  188.6070  176.9110  138.4230 C   0  0  0  0  0  0  0  0  0  0  0  0
  187.4220  177.2060  137.7480 C   0  0  0  0  0  3  0  0  0  0  0  0
  192.3270  177.2470  139.9160 C   0  0  0  0  0  3  0  0  0  0  0  0
  193.3520  176.2070  138.0020 C   0  0  0  0  0  0  0  0  0  0  0  0
  194.4500  176.1250  137.1400 O   0  0  0  0  0  0  0  0  0  0  0  0
  191.2420  177.0670  145.5960 C   0  0  1  0  0  3  0  0  0  0  0  0
  190.8570  179.0110  144.0960 C   0  0  0  0  0  2  0  0  0  0  0  0
  187.6150  177.5920  145.2100 N   0  0  0  0  0  2  0  0  0  0  0  0
  191.9820  175.7580  145.7720 C   0  0  0  0  0  1  0  0  0  0  0  0
  191.6670  177.7340  144.2950 C   0  0  0  0  0  2  0  0  0  0  0  0
  188.8820  177.7370  145.0040 C   0  0  0  0  0  0  0  0  0  0  0  0
  189.3600  178.7120  143.9610 C   0  0  2  0  0  3  0  0  0  0  0  0
  189.8030  176.8230  145.6070 N   0  0  0  0  0  2  0  0  0  0  0  0
  1  8  2  0  0  0  0
  1 17  1  0  0  0  0
  2  3  1  6  0  0  0
  2 15  1  0  0  0  0
  3 22  1  0  0  0  0
  4  5  2  0  0  0  0
  6  9  1  0  0  0  0
  7 19  1  0  0  0  0
  7  2  1  0  0  0  0
  8 20  1  0  0  0  0
  9  3  2  0  0  0  0
 10 16  1  0  0  0  0
 11  1  1  0  0  0  0
 12 21  1  0  0  0  0
 13 18  1  0  0  0  0
 13  6  1  0  0  0  0
 14 10  2  0  0  0  0
 15 21  2  0  0  0  0
 15 10  1  0  0  0  0
 16  5  1  0  0  0  0
 17  7  2  0  0  0  0
 18 23  1  0  0  0  0
 19 14  1  0  0  0  0
 20 19  2  0  0  0  0
 22 12  2  0  0  0  0
 23 22  1  0  0  0  0
 24 31  1  0  0  0  0
 24 27  1  6  0  0  0
 25 28  1  0  0  0  0
 28 24  1  0  0  0  0
 29 26  2  0  0  0  0
 29 31  1  0  0  0  0
 30  5  1  6  0  0  0
 30 25  1  0  0  0  0
 30 29  1  0  0  0  0
M  END
>  <MODEL>
4

>  <REMARK>
 VINA RESULT:      -9.0      3.168      7.830
  Name = 
  1 active torsions:
  status: ('A' for Active; 'I' for Inactive)
    1  A    between atoms: C_9  and  C_22
                            x       y       z     vdW  Elec       q    Type
                         _______ _______ _______ _____ _____    ______ ____

>  <TORSDO>
F 1

$$$$
=
 OpenBabel10272400313D

 31 35  0  0  1  0  0  0  0  0999 V2000
  187.1170  177.9830  147.4660 C   0  0  0  0  0  0  0  0  0  0  0  0
  187.7920  178.4620  143.7970 C   0  0  2  0  0  3  0  0  0  0  0  0
  189.2120  177.9640  143.7060 C   0  0  0  0  0  0  0  0  0  0  0  0
  182.6340  178.9810  142.5130 O   0  0  0  0  0  0  0  0  0  0  0  0
  183.2980  178.7620  141.4640 C   0  0  0  0  0  0  0  0  0  0  0  0
  191.6210  178.4160  144.2220 C   0  0  0  0  0  2  0  0  0  0  0  0
  187.0770  178.2340  145.1030 C   0  0  0  0  0  0  0  0  0  0  0  0
  185.7240  178.0720  147.5230 C   0  0  0  0  0  3  0  0  0  0  0  0
  190.1470  178.6020  144.4200 C   0  0  0  0  0  3  0  0  0  0  0  0
  185.4840  178.3730  142.7240 C   0  0  0  0  0  0  0  0  0  0  0  0
  187.9000  177.8030  148.7170 C   0  0  0  0  0  1  0  0  0  0  0  0
  188.7280  176.7660  141.6680 N   0  0  0  0  0  0  0  0  0  0  0  0
  192.1020  177.0220  144.6050 C   0  0  0  0  0  2  0  0  0  0  0  0
  184.9300  178.4900  143.9000 N   0  0  0  0  0  0  0  0  0  0  0  0
  186.9220  178.0520  142.6350 C   0  0  0  0  0  0  0  0  0  0  0  0
  184.6990  178.4710  141.5260 N   0  0  0  0  0  2  0  0  0  0  0  0
  187.7600  178.0790  146.2720 N   0  0  0  0  0  0  0  0  0  0  0  0
  191.3880  175.8900  143.8640 C   0  0  0  0  0  2  0  0  0  0  0  0
  185.6710  178.3350  145.1240 C   0  0  0  0  0  0  0  0  0  0  0  0
  184.9990  178.2500  146.3440 C   0  0  0  0  0  3  0  0  0  0  0  0
  187.3930  177.2920  141.6420 C   0  0  0  0  0  3  0  0  0  0  0  0
  189.5690  177.0020  142.6300 C   0  0  0  0  0  0  0  0  0  0  0  0
  190.7860  176.3140  142.6430 O   0  0  0  0  0  0  0  0  0  0  0  0
  183.4070  176.7810  138.0770 C   0  0  1  0  0  3  0  0  0  0  0  0
  181.8380  177.5280  139.8550 C   0  0  0  0  0  2  0  0  0  0  0  0
  184.1550  180.2810  138.9520 N   0  0  0  0  0  2  0  0  0  0  0  0
  184.3750  175.7000  137.6450 C   0  0  0  0  0  1  0  0  0  0  0  0
  182.7510  176.3940  139.3960 C   0  0  0  0  0  2  0  0  0  0  0  0
  183.6140  179.1100  139.0260 C   0  0  0  0  0  0  0  0  0  0  0  0
  182.6290  178.8120  140.1240 C   0  0  2  0  0  3  0  0  0  0  0  0
  184.1140  178.0510  138.2030 N   0  0  0  0  0  2  0  0  0  0  0  0
  1  8  1  0  0  0  0
  1 11  1  0  0  0  0
  2 15  1  6  0  0  0
  2  7  1  0  0  0  0
  3  2  1  0  0  0  0
  3  9  2  0  0  0  0
  5 16  1  0  0  0  0
  5  4  2  0  0  0  0
  6  9  1  0  0  0  0
  6 13  1  0  0  0  0
  7 19  2  0  0  0  0
  7 17  1  0  0  0  0
 10 14  2  0  0  0  0
 12 22  2  0  0  0  0
 14 19  1  0  0  0  0
 15 10  1  0  0  0  0
 16 10  1  0  0  0  0
 17  1  2  0  0  0  0
 18 13  1  0  0  0  0
 19 20  1  0  0  0  0
 20  8  2  0  0  0  0
 21 12  1  0  0  0  0
 21 15  2  0  0  0  0
 22 23  1  0  0  0  0
 22  3  1  0  0  0  0
 23 18  1  0  0  0  0
 24 27  1  1  0  0  0
 24 31  1  0  0  0  0
 24 28  1  0  0  0  0
 25 30  1  0  0  0  0
 26 29  2  0  0  0  0
 28 25  1  0  0  0  0
 29 30  1  0  0  0  0
 30  5  1  1  0  0  0
 31 29  1  0  0  0  0
M  END
>  <MODEL>
5

>  <REMARK>
 VINA RESULT:      -8.8      2.661      3.553
  Name = 
  1 active torsions:
  status: ('A' for Active; 'I' for Inactive)
    1  A    between atoms: C_9  and  C_22
                            x       y       z     vdW  Elec       q    Type
                         _______ _______ _______ _____ _____    ______ ____

>  <TORSDO>
F 1

$$$$
=
 OpenBabel10272400313D

 31 35  0  0  1  0  0  0  0  0999 V2000
  190.8880  177.4150  144.4400 C   0  0  0  0  0  0  0  0  0  0  0  0
  187.5190  177.5070  142.7680 C   0  0  2  0  0  3  0  0  0  0  0  0
  186.6400  177.8900  143.9320 C   0  0  0  0  0  0  0  0  0  0  0  0
  189.5370  177.6530  137.8260 O   0  0  0  0  0  0  0  0  0  0  0  0
  188.3220  177.9890  137.7830 C   0  0  0  0  0  0  0  0  0  0  0  0
  185.5720  177.1540  146.0740 C   0  0  0  0  0  2  0  0  0  0  0  0
  189.0080  177.5720  142.9950 C   0  0  0  0  0  0  0  0  0  0  0  0
  191.7590  177.4370  143.3470 C   0  0  0  0  0  3  0  0  0  0  0  0
  186.5960  177.0630  144.9830 C   0  0  0  0  0  3  0  0  0  0  0  0
  188.0520  177.9720  140.3220 C   0  0  0  0  0  0  0  0  0  0  0  0
  191.4320  177.3140  145.8190 C   0  0  0  0  0  1  0  0  0  0  0  0
  185.4080  179.4520  142.5660 N   0  0  0  0  0  0  0  0  0  0  0  0
  185.7080  178.4170  146.9150 C   0  0  0  0  0  2  0  0  0  0  0  0
  189.3100  177.7050  140.5430 N   0  0  0  0  0  0  0  0  0  0  0  0
  187.1490  178.1800  141.4700 C   0  0  0  0  0  0  0  0  0  0  0  0
  187.5590  178.1440  138.9850 N   0  0  0  0  0  2  0  0  0  0  0  0
  189.5430  177.4680  144.2430 N   0  0  0  0  0  0  0  0  0  0  0  0
  185.6410  179.7150  146.1080 C   0  0  0  0  0  2  0  0  0  0  0  0
  189.8560  177.5880  141.8690 C   0  0  0  0  0  0  0  0  0  0  0  0
  191.2370  177.5220  142.0560 C   0  0  0  0  0  3  0  0  0  0  0  0
  186.1400  179.0540  141.3980 C   0  0  0  0  0  3  0  0  0  0  0  0
  185.6510  178.9860  143.7540 C   0  0  0  0  0  0  0  0  0  0  0  0
  184.9920  179.5560  144.8480 O   0  0  0  0  0  0  0  0  0  0  0  0
  186.2440  175.9280  135.1690 C   0  0  1  0  0  3  0  0  0  0  0  0
  186.1400  177.9820  136.5660 C   0  0  0  0  0  2  0  0  0  0  0  0
  189.4750  177.6870  134.9670 N   0  0  0  0  0  2  0  0  0  0  0  0
  185.9890  174.4360  135.1280 C   0  0  0  0  0  1  0  0  0  0  0  0
  185.8060  176.4940  136.5140 C   0  0  0  0  0  2  0  0  0  0  0  0
  188.2810  177.4040  135.3710 C   0  0  0  0  0  0  0  0  0  0  0  0
  187.6500  178.2230  136.4650 C   0  0  2  0  0  3  0  0  0  0  0  0
  187.6590  176.1920  134.9320 N   0  0  0  0  0  2  0  0  0  0  0  0
  1 11  1  0  0  0  0
  2 15  1  6  0  0  0
  2  7  1  0  0  0  0
  2  3  1  0  0  0  0
  3  9  2  0  0  0  0
  5  4  2  0  0  0  0
  5 16  1  0  0  0  0
  6 13  1  0  0  0  0
  7 17  2  0  0  0  0
  8  1  2  0  0  0  0
  9  6  1  0  0  0  0
 10 14  2  0  0  0  0
 10 15  1  0  0  0  0
 12 22  2  0  0  0  0
 14 19  1  0  0  0  0
 16 10  1  0  0  0  0
 17  1  1  0  0  0  0
 18 13  1  0  0  0  0
 19 20  2  0  0  0  0
 19  7  1  0  0  0  0
 20  8  1  0  0  0  0
 21 15  2  0  0  0  0
 21 12  1  0  0  0  0
 22  3  1  0  0  0  0
 22 23  1  0  0  0  0
 23 18  1  0  0  0  0
 24 27  1  1  0  0  0
 24 28  1  0  0  0  0
 26 29  2  0  0  0  0
 28 25  1  0  0  0  0
 29 30  1  0  0  0  0
 30 25  1  0  0  0  0
 30  5  1  1  0  0  0
 31 24  1  0  0  0  0
 31 29  1  0  0  0  0
M  END
>  <MODEL>
6

>  <REMARK>
 VINA RESULT:      -8.7      1.888      4.104
  Name = 
  1 active torsions:
  status: ('A' for Active; 'I' for Inactive)
    1  A    between atoms: C_9  and  C_22
                            x       y       z     vdW  Elec       q    Type
                         _______ _______ _______ _____ _____    ______ ____

>  <TORSDO>
F 1

$$$$
=
 OpenBabel10272400313D

 31 35  0  0  1  0  0  0  0  0999 V2000
  189.1400  178.1000  142.1640 C   0  0  0  0  0  0  0  0  0  0  0  0
  185.7040  177.7920  143.6650 C   0  0  2  0  0  3  0  0  0  0  0  0
  186.0230  177.9530  145.1300 C   0  0  0  0  0  0  0  0  0  0  0  0
  183.1760  178.5930  139.0290 O   0  0  0  0  0  0  0  0  0  0  0  0
  182.3560  178.7410  139.9760 C   0  0  0  0  0  0  0  0  0  0  0  0
  187.0250  176.9140  147.1760 C   0  0  0  0  0  2  0  0  0  0  0  0
  186.8230  178.0680  142.6940 C   0  0  0  0  0  0  0  0  0  0  0  0
  188.8520  178.3320  140.8160 C   0  0  0  0  0  3  0  0  0  0  0  0
  186.8410  177.0570  145.6960 C   0  0  0  0  0  3  0  0  0  0  0  0
  184.1390  178.5040  141.7860 C   0  0  0  0  0  0  0  0  0  0  0  0
  190.5520  177.9870  142.6120 C   0  0  0  0  0  1  0  0  0  0  0  0
  184.1180  179.4000  145.4500 N   0  0  0  0  0  0  0  0  0  0  0  0
  187.7030  178.1200  147.8120 C   0  0  0  0  0  2  0  0  0  0  0  0
  185.1220  178.4190  140.9320 N   0  0  0  0  0  0  0  0  0  0  0  0
  184.4390  178.4900  143.2310 C   0  0  0  0  0  0  0  0  0  0  0  0
  182.7880  178.6930  141.3400 N   0  0  0  0  0  2  0  0  0  0  0  0
  188.1300  177.9600  143.0640 N   0  0  0  0  0  0  0  0  0  0  0  0
  186.9820  179.4460  147.5620 C   0  0  0  0  0  2  0  0  0  0  0  0
  186.4950  178.2930  141.3420 C   0  0  0  0  0  0  0  0  0  0  0  0
  187.5220  178.4270  140.4060 C   0  0  0  0  0  3  0  0  0  0  0  0
  183.7030  179.2020  144.0900 C   0  0  0  0  0  3  0  0  0  0  0  0
  185.2090  178.8940  145.9430 C   0  0  0  0  0  0  0  0  0  0  0  0
  185.6060  179.2780  147.2270 O   0  0  0  0  0  0  0  0  0  0  0  0
  180.1220  181.3960  138.1410 C   0  0  1  0  0  3  0  0  0  0  0  0
  180.6370  178.9640  138.1750 C   0  0  0  0  0  2  0  0  0  0  0  0
  180.2770  180.2460  141.6380 N   0  0  0  0  0  2  0  0  0  0  0  0
  180.5220  182.7460  137.5840 C   0  0  0  0  0  1  0  0  0  0  0  0
  181.0030  180.3060  137.5460 C   0  0  0  0  0  2  0  0  0  0  0  0
  180.3880  180.2080  140.3520 C   0  0  0  0  0  0  0  0  0  0  0  0
  180.9030  178.9610  139.6850 C   0  0  2  0  0  3  0  0  0  0  0  0
  180.2300  181.4130  139.5960 N   0  0  0  0  0  2  0  0  0  0  0  0
  1 11  1  0  0  0  0
  1 17  1  0  0  0  0
  2  7  1  6  0  0  0
  2  3  1  0  0  0  0
  3  9  2  0  0  0  0
  3 22  1  0  0  0  0
  4  5  2  0  0  0  0
  5 16  1  0  0  0  0
  6 13  1  0  0  0  0
  7 17  2  0  0  0  0
  8  1  2  0  0  0  0
  9  6  1  0  0  0  0
 10 15  1  0  0  0  0
 12 22  2  0  0  0  0
 14 19  1  0  0  0  0
 14 10  2  0  0  0  0
 15  2  1  0  0  0  0
 15 21  2  0  0  0  0
 16 10  1  0  0  0  0
 18 13  1  0  0  0  0
 19  7  1  0  0  0  0
 20  8  1  0  0  0  0
 20 19  2  0  0  0  0
 21 12  1  0  0  0  0
 22 23  1  0  0  0  0
 23 18  1  0  0  0  0
 24 27  1  6  0  0  0
 24 31  1  0  0  0  0
 25 30  1  0  0  0  0
 28 24  1  0  0  0  0
 28 25  1  0  0  0  0
 29 26  2  0  0  0  0
 30  5  1  6  0  0  0
 30 29  1  0  0  0  0
 31 29  1  0  0  0  0
M  END
>  <MODEL>
7

>  <REMARK>
 VINA RESULT:      -8.6      3.854      6.259
  Name = 
  1 active torsions:
  status: ('A' for Active; 'I' for Inactive)
    1  A    between atoms: C_9  and  C_22
                            x       y       z     vdW  Elec       q    Type
                         _______ _______ _______ _____ _____    ______ ____

>  <TORSDO>
F 1

$$$$
=
 OpenBabel10272400313D

 31 35  0  0  1  0  0  0  0  0999 V2000
  190.0880  177.4520  145.7720 C   0  0  0  0  0  0  0  0  0  0  0  0
  188.0840  177.2540  142.5950 C   0  0  2  0  0  3  0  0  0  0  0  0
  186.8060  177.9250  143.0280 C   0  0  0  0  0  0  0  0  0  0  0  0
  192.3200  176.1790  139.5250 O   0  0  0  0  0  0  0  0  0  0  0  0
  191.3590  176.5330  138.7890 C   0  0  0  0  0  0  0  0  0  0  0  0
  184.7050  177.7430  144.3800 C   0  0  0  0  0  2  0  0  0  0  0  0
  189.2440  177.3240  143.5540 C   0  0  0  0  0  0  0  0  0  0  0  0
  191.3840  177.1920  145.3190 C   0  0  0  0  0  3  0  0  0  0  0  0
  186.1130  177.3690  144.0290 C   0  0  0  0  0  3  0  0  0  0  0  0
  189.8430  177.1180  140.7580 C   0  0  0  0  0  0  0  0  0  0  0  0
  189.8370  177.6600  147.2220 C   0  0  0  0  0  1  0  0  0  0  0  0
  186.6810  179.1620  140.9590 N   0  0  0  0  0  0  0  0  0  0  0  0
  184.5830  179.1630  144.9180 C   0  0  0  0  0  2  0  0  0  0  0  0
  190.7610  176.8720  141.6530 N   0  0  0  0  0  0  0  0  0  0  0  0
  188.5260  177.6160  141.1980 C   0  0  0  0  0  0  0  0  0  0  0  0
  190.1260  176.9880  139.3570 N   0  0  0  0  0  2  0  0  0  0  0  0
  189.0520  177.4990  144.8910 N   0  0  0  0  0  0  0  0  0  0  0  0
  185.1270  180.2370  143.9750 C   0  0  0  0  0  2  0  0  0  0  0  0
  190.5370  177.0510  143.0620 C   0  0  0  0  0  0  0  0  0  0  0  0
  191.6060  176.9890  143.9570 C   0  0  0  0  0  3  0  0  0  0  0  0
  187.8350  178.4790  140.4480 C   0  0  0  0  0  3  0  0  0  0  0  0
  186.2170  178.9790  142.1600 C   0  0  0  0  0  0  0  0  0  0  0  0
  185.1890  179.8090  142.6160 O   0  0  0  0  0  0  0  0  0  0  0  0
  192.1150  173.8360  136.0400 C   0  0  1  0  0  3  0  0  0  0  0  0
  190.4310  175.5460  136.6900 C   0  0  0  0  0  2  0  0  0  0  0  0
  193.8580  176.9150  137.0690 N   0  0  0  0  0  2  0  0  0  0  0  0
  192.5670  172.4030  136.2210 C   0  0  0  0  0  1  0  0  0  0  0  0
  190.8300  174.0780  136.8210 C   0  0  0  0  0  2  0  0  0  0  0  0
  192.8840  176.0880  136.8810 C   0  0  0  0  0  0  0  0  0  0  0  0
  191.4900  176.4720  137.2980 C   0  0  2  0  0  3  0  0  0  0  0  0
  193.1690  174.7440  136.4820 N   0  0  0  0  0  2  0  0  0  0  0  0
  1 11  1  0  0  0  0
  2 15  1  6  0  0  0
  2  3  1  0  0  0  0
  2  7  1  0  0  0  0
  3  9  2  0  0  0  0
  5 16  1  0  0  0  0
  5  4  2  0  0  0  0
  6 13  1  0  0  0  0
  7 17  1  0  0  0  0
  8  1  1  0  0  0  0
  9  6  1  0  0  0  0
 10 15  1  0  0  0  0
 10 14  2  0  0  0  0
 12 22  2  0  0  0  0
 14 19  1  0  0  0  0
 16 10  1  0  0  0  0
 17  1  2  0  0  0  0
 18 13  1  0  0  0  0
 19  7  2  0  0  0  0
 19 20  1  0  0  0  0
 20  8  2  0  0  0  0
 21 12  1  0  0  0  0
 21 15  2  0  0  0  0
 22 23  1  0  0  0  0
 22  3  1  0  0  0  0
 23 18  1  0  0  0  0
 24 27  1  1  0  0  0
 24 31  1  0  0  0  0
 24 28  1  0  0  0  0
 25 28  1  0  0  0  0
 25 30  1  0  0  0  0
 29 26  2  0  0  0  0
 29 30  1  0  0  0  0
 30  5  1  1  0  0  0
 31 29  1  0  0  0  0
M  END
>  <MODEL>
8

>  <REMARK>
 VINA RESULT:      -8.4      2.730      5.055
  Name = 
  1 active torsions:
  status: ('A' for Active; 'I' for Inactive)
    1  A    between atoms: C_9  and  C_22
                            x       y       z     vdW  Elec       q    Type
                         _______ _______ _______ _____ _____    ______ ____

>  <TORSDO>
F 1

$$$$
=
 OpenBabel10272400313D

 31 35  0  0  1  0  0  0  0  0999 V2000
  186.3130  177.2550  136.3280 C   0  0  0  0  0  0  0  0  0  0  0  0
  186.2490  178.7610  139.7740 C   0  0  2  0  0  3  0  0  0  0  0  0
  184.7640  178.9200  139.9820 C   0  0  0  0  0  0  0  0  0  0  0  0
  191.2900  177.4000  140.8920 O   0  0  0  0  0  0  0  0  0  0  0  0
  190.7000  177.7070  141.9640 C   0  0  0  0  0  0  0  0  0  0  0  0
  182.6930  180.1890  139.3730 C   0  0  0  0  0  2  0  0  0  0  0  0
  186.6820  177.9800  138.5610 C   0  0  0  0  0  0  0  0  0  0  0  0
  187.6150  176.7520  136.2510 C   0  0  0  0  0  3  0  0  0  0  0  0
  184.0930  179.7100  139.1360 C   0  0  0  0  0  3  0  0  0  0  0  0
  188.4270  177.9770  140.8360 C   0  0  0  0  0  0  0  0  0  0  0  0
  185.4030  177.1390  135.1580 C   0  0  0  0  0  1  0  0  0  0  0  0
  184.9330  178.1090  142.2490 N   0  0  0  0  0  0  0  0  0  0  0  0
  181.6640  179.0660  139.3390 C   0  0  0  0  0  2  0  0  0  0  0  0
  188.8620  177.5970  139.6660 N   0  0  0  0  0  0  0  0  0  0  0  0
  186.9960  178.2990  141.0000 C   0  0  0  0  0  0  0  0  0  0  0  0
  189.3000  178.0080  141.9740 N   0  0  0  0  0  2  0  0  0  0  0  0
  185.8820  177.8650  137.4640 N   0  0  0  0  0  0  0  0  0  0  0  0
  181.9400  177.9350  140.3300 C   0  0  0  0  0  2  0  0  0  0  0  0
  188.0040  177.4920  138.5160 C   0  0  0  0  0  0  0  0  0  0  0  0
  188.4630  176.8740  137.3520 C   0  0  0  0  0  3  0  0  0  0  0  0
  186.3620  178.0370  142.1470 C   0  0  0  0  0  3  0  0  0  0  0  0
  184.1640  178.4500  141.2580 C   0  0  0  0  0  0  0  0  0  0  0  0
  182.7790  178.3340  141.4130 O   0  0  0  0  0  0  0  0  0  0  0  0
  189.9960  177.2280  145.7950 C   0  0  1  0  0  3  0  0  0  0  0  0
  191.4650  176.4160  143.9610 C   0  0  0  0  0  2  0  0  0  0  0  0
  191.1440  180.1080  143.8040 N   0  0  0  0  0  2  0  0  0  0  0  0
  188.6660  177.0490  146.4960 C   0  0  0  0  0  1  0  0  0  0  0  0
  190.1560  176.1730  144.7080 C   0  0  0  0  0  2  0  0  0  0  0  0
  190.9520  178.8750  144.1400 C   0  0  0  0  0  0  0  0  0  0  0  0
  191.4630  177.7740  143.2510 C   0  0  2  0  0  3  0  0  0  0  0  0
  190.0760  178.5710  145.2290 N   0  0  0  0  0  2  0  0  0  0  0  0
  1 17  1  0  0  0  0
  2  7  1  6  0  0  0
  2  3  1  0  0  0  0
  2 15  1  0  0  0  0
  3 22  1  0  0  0  0
  4  5  2  0  0  0  0
  5 16  1  0  0  0  0
  8  1  2  0  0  0  0
  8 20  1  0  0  0  0
  9  6  1  0  0  0  0
  9  3  2  0  0  0  0
 10 15  1  0  0  0  0
 10 16  1  0  0  0  0
 11  1  1  0  0  0  0
 13  6  1  0  0  0  0
 13 18  1  0  0  0  0
 14 10  2  0  0  0  0
 15 21  2  0  0  0  0
 17  7  2  0  0  0  0
 18 23  1  0  0  0  0
 19  7  1  0  0  0  0
 19 14  1  0  0  0  0
 20 19  2  0  0  0  0
 21 12  1  0  0  0  0
 22 23  1  0  0  0  0
 22 12  2  0  0  0  0
 24 27  1  6  0  0  0
 25 28  1  0  0  0  0
 26 29  2  0  0  0  0
 28 24  1  0  0  0  0
 29 31  1  0  0  0  0
 30  5  1  6  0  0  0
 30 25  1  0  0  0  0
 30 29  1  0  0  0  0
 31 24  1  0  0  0  0
M  END
>  <MODEL>
9

>  <REMARK>
 VINA RESULT:      -8.2      2.418      7.929
  Name = 
  1 active torsions:
  status: ('A' for Active; 'I' for Inactive)
    1  A    between atoms: C_9  and  C_22
                            x       y       z     vdW  Elec       q    Type
                         _______ _______ _______ _____ _____    ______ ____

>  <TORSDO>
F 1

$$$$
