=
 OpenBabel10272400303D

 31 35  0  0  1  0  0  0  0  0999 V2000
  190.8730  176.6070  136.4200 C   0  0  0  0  0  0  0  0  0  0  0  0
  188.3700  178.0480  138.7990 N   0  0  0  0  0  0  0  0  0  0  0  0
  187.0550  177.9810  138.2560 C   0  0  0  0  0  0  0  0  0  0  0  0
  185.2980  177.7130  136.6420 C   0  0  0  0  0  0  0  0  0  0  0  0
  189.5450  177.4190  138.2650 C   0  0  0  0  0  0  0  0  0  0  0  0
  191.8190  176.1760  137.2990 N   0  0  0  0  0  0  0  0  0  0  0  0
  186.6730  177.7270  136.9380 C   0  0  0  0  0  3  0  0  0  0  0  0
  188.9230  177.2870  141.0660 C   0  0  2  0  0  3  0  0  0  0  0  0
  191.0380  176.4380  135.1850 O   0  0  0  0  0  0  0  0  0  0  0  0
  186.1690  179.0410  141.6330 C   0  0  0  0  0  1  0  0  0  0  0  0
  184.8840  177.4740  135.3760 F   0  0  0  0  0  0  0  0  0  0  0  0
  190.3910  177.1640  140.6350 C   0  0  0  0  0  2  0  0  0  0  0  0
  188.2310  178.3680  140.2300 C   0  0  2  0  0  3  0  0  0  0  0  0
  189.7180  177.2370  136.8890 C   0  0  0  0  0  2  0  0  0  0  0  0
  184.3490  177.9470  137.6590 C   0  0  0  0  0  3  0  0  0  0  0  0
  190.5290  176.9520  139.1530 C   0  0  0  0  0  0  0  0  0  0  0  0
  191.6730  176.3380  138.6410 C   0  0  0  0  0  3  0  0  0  0  0  0
  186.7840  178.3990  140.4840 N   0  0  0  0  0  0  0  0  0  0  0  0
  186.1350  178.1980  139.2380 C   0  0  0  0  0  0  0  0  0  0  0  0
  184.7640  178.1930  138.9790 C   0  0  0  0  0  3  0  0  0  0  0  0
  188.1520  175.5190  143.1580 O   0  0  0  0  0  0  0  0  0  0  0  0
  188.4680  176.6940  143.4880 C   0  0  0  0  0  0  0  0  0  0  0  0
  188.8570  177.6320  142.4790 N   0  0  0  0  0  2  0  0  0  0  0  0
  188.2680  177.9310  147.5950 C   0  0  0  0  0  0  0  0  0  0  0  0
  187.2070  177.5160  145.4620 C   0  0  0  0  0  3  0  0  0  0  0  0
  190.8280  176.7420  145.2310 O   0  0  0  0  0  1  0  0  0  0  0  0
  188.1840  178.3420  148.9540 N   0  0  0  0  0  1  0  0  0  0  0  0
  187.1240  177.9220  146.7960 C   0  0  0  0  0  3  0  0  0  0  0  0
  189.5870  177.1280  145.7240 C   0  0  0  0  0  0  0  0  0  0  0  0
  188.4330  177.1160  144.9070 C   0  0  0  0  0  0  0  0  0  0  0  0
  189.4950  177.5350  147.0600 C   0  0  0  0  0  3  0  0  0  0  0  0
  1 14  1  0  0  0  0
  1  6  1  0  0  0  0
  3  2  1  0  0  0  0
  3 19  1  0  0  0  0
  4  7  1  0  0  0  0
  4 15  2  0  0  0  0
  5  2  1  0  0  0  0
  5 16  2  0  0  0  0
  6 17  2  0  0  0  0
  7  3  2  0  0  0  0
  8 23  1  1  0  0  0
  9  1  2  0  0  0  0
 11  4  1  0  0  0  0
 12  8  1  0  0  0  0
 13  2  1  6  0  0  0
 13 18  1  0  0  0  0
 13  8  1  0  0  0  0
 14  5  1  0  0  0  0
 15 20  1  0  0  0  0
 16 12  1  0  0  0  0
 17 16  1  0  0  0  0
 18 10  1  0  0  0  0
 19 18  1  0  0  0  0
 20 19  2  0  0  0  0
 21 22  2  0  0  0  0
 22 30  1  0  0  0  0
 23 22  1  0  0  0  0
 24 27  1  0  0  0  0
 25 28  1  0  0  0  0
 26 29  1  0  0  0  0
 28 24  2  0  0  0  0
 29 31  2  0  0  0  0
 30 25  2  0  0  0  0
 30 29  1  0  0  0  0
 31 24  1  0  0  0  0
M  END
>  <MODEL>
1

>  <REMARK>
 VINA RESULT:      -9.5      0.000      0.000
  Name = 
  2 active torsions:
  status: ('A' for Active; 'I' for Inactive)
    1  A    between atoms: C_9  and  C_22
    2  A    between atoms: C_15  and  N_23
                            x       y       z     vdW  Elec       q    Type
                         _______ _______ _______ _____ _____    ______ ____

>  <TORSDO>
F 2

$$$$
=
 OpenBabel10272400303D

 31 35  0  0  1  0  0  0  0  0999 V2000
  184.2010  178.8240  144.7330 C   0  0  0  0  0  0  0  0  0  0  0  0
  187.8930  178.2200  144.6380 N   0  0  0  0  0  0  0  0  0  0  0  0
  188.3880  177.8950  145.9330 C   0  0  0  0  0  0  0  0  0  0  0  0
  188.4570  177.6540  148.3210 C   0  0  0  0  0  0  0  0  0  0  0  0
  186.5130  178.3190  144.2540 C   0  0  0  0  0  0  0  0  0  0  0  0
  183.8660  178.4630  143.4640 N   0  0  0  0  0  0  0  0  0  0  0  0
  187.7560  178.0510  147.1670 C   0  0  0  0  0  3  0  0  0  0  0  0
  188.4130  176.8990  142.6350 C   0  0  2  0  0  3  0  0  0  0  0  0
  183.3120  179.2190  145.5300 O   0  0  0  0  0  0  0  0  0  0  0  0
  191.4110  177.1670  144.0230 C   0  0  0  0  0  1  0  0  0  0  0  0
  187.8820  177.7910  149.5380 F   0  0  0  0  0  0  0  0  0  0  0  0
  187.1720  177.4930  141.9560 C   0  0  0  0  0  2  0  0  0  0  0  0
  188.9540  177.8870  143.6730 C   0  0  2  0  0  3  0  0  0  0  0  0
  185.5330  178.7590  145.1500 C   0  0  0  0  0  2  0  0  0  0  0  0
  189.7560  177.1150  148.2130 C   0  0  0  0  0  3  0  0  0  0  0  0
  186.1390  177.9370  142.9550 C   0  0  0  0  0  0  0  0  0  0  0  0
  184.7990  178.0280  142.5750 C   0  0  0  0  0  3  0  0  0  0  0  0
  190.0340  177.2910  144.4710 N   0  0  0  0  0  0  0  0  0  0  0  0
  189.6410  177.3660  145.8320 C   0  0  0  0  0  0  0  0  0  0  0  0
  190.3650  176.9640  146.9550 C   0  0  0  0  0  3  0  0  0  0  0  0
  188.9940  178.5320  140.3780 O   0  0  0  0  0  0  0  0  0  0  0  0
  189.6830  177.4860  140.5210 C   0  0  0  0  0  0  0  0  0  0  0  0
  189.4320  176.6200  141.6330 N   0  0  0  0  0  2  0  0  0  0  0  0
  192.8290  176.5060  137.7680 C   0  0  0  0  0  0  0  0  0  0  0  0
  192.0860  177.2730  139.9380 C   0  0  0  0  0  3  0  0  0  0  0  0
  189.1480  176.5290  137.7990 O   0  0  0  0  0  1  0  0  0  0  0  0
  193.8840  176.1850  136.8700 N   0  0  0  0  0  1  0  0  0  0  0  0
  193.1220  176.9590  139.0550 C   0  0  0  0  0  3  0  0  0  0  0  0
  190.4560  176.6810  138.2410 C   0  0  0  0  0  0  0  0  0  0  0  0
  190.7440  177.1400  139.5470 C   0  0  0  0  0  0  0  0  0  0  0  0
  191.5000  176.3680  137.3640 C   0  0  0  0  0  3  0  0  0  0  0  0
  1 14  1  0  0  0  0
  1  9  2  0  0  0  0
  2  3  1  0  0  0  0
  3  7  1  0  0  0  0
  4 11  1  0  0  0  0
  5  2  1  0  0  0  0
  5 14  1  0  0  0  0
  6  1  1  0  0  0  0
  7  4  2  0  0  0  0
  8 23  1  6  0  0  0
  8 13  1  0  0  0  0
 10 18  1  0  0  0  0
 12  8  1  0  0  0  0
 12 16  1  0  0  0  0
 13 18  1  1  0  0  0
 13  2  1  0  0  0  0
 15  4  1  0  0  0  0
 16  5  2  0  0  0  0
 17 16  1  0  0  0  0
 17  6  2  0  0  0  0
 18 19  1  0  0  0  0
 19  3  2  0  0  0  0
 19 20  1  0  0  0  0
 20 15  2  0  0  0  0
 21 22  2  0  0  0  0
 22 23  1  0  0  0  0
 24 28  1  0  0  0  0
 26 29  1  0  0  0  0
 27 24  1  0  0  0  0
 28 25  2  0  0  0  0
 29 30  2  0  0  0  0
 30 25  1  0  0  0  0
 30 22  1  0  0  0  0
 31 24  2  0  0  0  0
 31 29  1  0  0  0  0
M  END
>  <MODEL>
2

>  <REMARK>
 VINA RESULT:      -9.1      3.779      8.632
  Name = 
  2 active torsions:
  status: ('A' for Active; 'I' for Inactive)
    1  A    between atoms: C_9  and  C_22
    2  A    between atoms: C_15  and  N_23
                            x       y       z     vdW  Elec       q    Type
                         _______ _______ _______ _____ _____    ______ ____

>  <TORSDO>
F 2

$$$$
=
 OpenBabel10272400303D

 31 35  0  0  1  0  0  0  0  0999 V2000
  190.8130  177.0550  146.6330 C   0  0  0  0  0  0  0  0  0  0  0  0
  187.8840  177.3850  144.3290 N   0  0  0  0  0  0  0  0  0  0  0  0
  186.7300  177.8310  145.0350 C   0  0  0  0  0  0  0  0  0  0  0  0
  185.2820  178.3590  146.8760 C   0  0  0  0  0  0  0  0  0  0  0  0
  189.2260  177.3360  144.8360 C   0  0  0  0  0  0  0  0  0  0  0  0
  191.8320  177.2800  145.7600 N   0  0  0  0  0  0  0  0  0  0  0  0
  186.5180  177.8730  146.4130 C   0  0  0  0  0  3  0  0  0  0  0  0
  188.6520  178.4110  142.2350 C   0  0  2  0  0  3  0  0  0  0  0  0
  191.0620  176.8240  147.8440 O   0  0  0  0  0  0  0  0  0  0  0  0
  185.4050  178.1070  141.6460 C   0  0  0  0  0  1  0  0  0  0  0  0
  185.0340  178.4130  148.2050 F   0  0  0  0  0  0  0  0  0  0  0  0
  190.0470  177.8250  142.4950 C   0  0  0  0  0  2  0  0  0  0  0  0
  187.5910  177.5230  142.8920 C   0  0  2  0  0  3  0  0  0  0  0  0
  189.4900  177.0780  146.1860 C   0  0  0  0  0  2  0  0  0  0  0  0
  184.2990  178.7880  145.9600 C   0  0  0  0  0  3  0  0  0  0  0  0
  190.2950  177.5800  143.9580 C   0  0  0  0  0  0  0  0  0  0  0  0
  191.6020  177.5360  144.4440 C   0  0  0  0  0  3  0  0  0  0  0  0
  186.2580  178.1360  142.8220 N   0  0  0  0  0  0  0  0  0  0  0  0
  185.7810  178.2560  144.1520 C   0  0  0  0  0  0  0  0  0  0  0  0
  184.5430  178.7410  144.5770 C   0  0  0  0  0  3  0  0  0  0  0  0
  189.3710  176.4220  140.3310 O   0  0  0  0  0  0  0  0  0  0  0  0
  188.7950  177.4540  139.8920 C   0  0  0  0  0  0  0  0  0  0  0  0
  188.4160  178.4920  140.8010 N   0  0  0  0  0  2  0  0  0  0  0  0
  187.8780  177.9110  135.7230 C   0  0  0  0  0  0  0  0  0  0  0  0
  187.1960  177.8800  138.0420 C   0  0  0  0  0  3  0  0  0  0  0  0
  190.8370  177.2140  137.7980 O   0  0  0  0  0  1  0  0  0  0  0  0
  187.5560  178.0670  134.3460 N   0  0  0  0  0  1  0  0  0  0  0  0
  186.8790  178.0310  136.6900 C   0  0  0  0  0  3  0  0  0  0  0  0
  189.5170  177.4850  137.4590 C   0  0  0  0  0  0  0  0  0  0  0  0
  188.5120  177.6050  138.4460 C   0  0  0  0  0  0  0  0  0  0  0  0
  189.1920  177.6390  136.1070 C   0  0  0  0  0  3  0  0  0  0  0  0
  1  9  2  0  0  0  0
  2  5  1  0  0  0  0
  2  3  1  0  0  0  0
  3  7  1  0  0  0  0
  4 11  1  0  0  0  0
  5 14  1  0  0  0  0
  6  1  1  0  0  0  0
  7  4  2  0  0  0  0
  8 23  1  6  0  0  0
  8 12  1  0  0  0  0
  8 13  1  0  0  0  0
 10 18  1  0  0  0  0
 12 16  1  0  0  0  0
 13 18  1  1  0  0  0
 13  2  1  0  0  0  0
 14  1  1  0  0  0  0
 15  4  1  0  0  0  0
 16 17  1  0  0  0  0
 16  5  2  0  0  0  0
 17  6  2  0  0  0  0
 18 19  1  0  0  0  0
 19 20  1  0  0  0  0
 19  3  2  0  0  0  0
 20 15  2  0  0  0  0
 22 21  2  0  0  0  0
 22 23  1  0  0  0  0
 24 31  2  0  0  0  0
 24 28  1  0  0  0  0
 25 30  1  0  0  0  0
 27 24  1  0  0  0  0
 28 25  2  0  0  0  0
 29 26  1  0  0  0  0
 29 30  2  0  0  0  0
 30 22  1  0  0  0  0
 31 29  1  0  0  0  0
M  END
>  <MODEL>
3

>  <REMARK>
 VINA RESULT:      -9.0      3.134      7.906
  Name = 
  2 active torsions:
  status: ('A' for Active; 'I' for Inactive)
    1  A    between atoms: C_9  and  C_22
    2  A    between atoms: C_15  and  N_23
                            x       y       z     vdW  Elec       q    Type
                         _______ _______ _______ _____ _____    ______ ____

>  <TORSDO>
F 2

$$$$
=
 OpenBabel10272400303D

 31 35  0  0  1  0  0  0  0  0999 V2000
  187.9330  178.0470  136.3600 C   0  0  0  0  0  0  0  0  0  0  0  0
  185.8620  178.6030  139.4260 N   0  0  0  0  0  0  0  0  0  0  0  0
  184.5110  178.2100  139.2040 C   0  0  0  0  0  0  0  0  0  0  0  0
  182.5170  177.5690  138.0300 C   0  0  0  0  0  0  0  0  0  0  0  0
  186.9750  178.3530  138.5540 C   0  0  0  0  0  0  0  0  0  0  0  0
  189.1530  177.8400  136.9270 N   0  0  0  0  0  0  0  0  0  0  0  0
  183.8730  177.9420  137.9930 C   0  0  0  0  0  3  0  0  0  0  0  0
  187.1610  177.8870  141.3820 C   0  0  2  0  0  3  0  0  0  0  0  0
  187.8070  178.0050  135.1090 O   0  0  0  0  0  0  0  0  0  0  0  0
  184.3030  178.7820  142.8020 C   0  0  0  0  0  1  0  0  0  0  0  0
  181.8600  177.3030  136.8780 F   0  0  0  0  0  0  0  0  0  0  0  0
  188.4470  178.1960  140.6050 C   0  0  0  0  0  2  0  0  0  0  0  0
  186.0270  178.7850  140.8780 C   0  0  2  0  0  3  0  0  0  0  0  0
  186.8220  178.3080  137.1640 C   0  0  0  0  0  2  0  0  0  0  0  0
  181.8400  177.4730  139.2640 C   0  0  0  0  0  3  0  0  0  0  0  0
  188.2410  178.1210  139.1170 C   0  0  0  0  0  0  0  0  0  0  0  0
  189.3270  177.8750  138.2760 C   0  0  0  0  0  3  0  0  0  0  0  0
  184.7360  178.4040  141.4680 N   0  0  0  0  0  0  0  0  0  0  0  0
  183.8550  178.1080  140.3960 C   0  0  0  0  0  0  0  0  0  0  0  0
  182.5110  177.7430  140.4690 C   0  0  0  0  0  3  0  0  0  0  0  0
  187.8810  175.8900  143.2760 O   0  0  0  0  0  0  0  0  0  0  0  0
  187.7510  177.0680  143.7070 C   0  0  0  0  0  0  0  0  0  0  0  0
  187.3820  178.1140  142.8030 N   0  0  0  0  0  2  0  0  0  0  0  0
  188.2840  177.9830  147.8680 C   0  0  0  0  0  0  0  0  0  0  0  0
  186.8640  177.7400  145.9260 C   0  0  0  0  0  3  0  0  0  0  0  0
  190.3760  176.9700  145.0140 O   0  0  0  0  0  1  0  0  0  0  0  0
  188.4420  178.2880  149.2480 N   0  0  0  0  0  1  0  0  0  0  0  0
  187.0190  178.0420  147.2810 C   0  0  0  0  0  3  0  0  0  0  0  0
  189.2470  177.3220  145.7420 C   0  0  0  0  0  0  0  0  0  0  0  0
  187.9690  177.3780  145.1380 C   0  0  0  0  0  0  0  0  0  0  0  0
  189.3930  177.6250  147.1000 C   0  0  0  0  0  3  0  0  0  0  0  0
  1  6  1  0  0  0  0
  1 14  1  0  0  0  0
  3  2  1  0  0  0  0
  3 19  1  0  0  0  0
  4 15  2  0  0  0  0
  5 16  2  0  0  0  0
  5  2  1  0  0  0  0
  6 17  2  0  0  0  0
  7  4  1  0  0  0  0
  7  3  2  0  0  0  0
  8 23  1  1  0  0  0
  9  1  2  0  0  0  0
 11  4  1  0  0  0  0
 12  8  1  0  0  0  0
 13  2  1  6  0  0  0
 13  8  1  0  0  0  0
 13 18  1  0  0  0  0
 14  5  1  0  0  0  0
 15 20  1  0  0  0  0
 16 12  1  0  0  0  0
 17 16  1  0  0  0  0
 18 10  1  0  0  0  0
 19 20  2  0  0  0  0
 19 18  1  0  0  0  0
 21 22  2  0  0  0  0
 22 30  1  0  0  0  0
 23 22  1  0  0  0  0
 24 27  1  0  0  0  0
 25 28  2  0  0  0  0
 26 29  1  0  0  0  0
 28 24  1  0  0  0  0
 29 31  1  0  0  0  0
 30 29  2  0  0  0  0
 30 25  1  0  0  0  0
 31 24  2  0  0  0  0
M  END
>  <MODEL>
4

>  <REMARK>
 VINA RESULT:      -9.0      1.598      2.287
  Name = 
  2 active torsions:
  status: ('A' for Active; 'I' for Inactive)
    1  A    between atoms: C_9  and  C_22
    2  A    between atoms: C_15  and  N_23
                            x       y       z     vdW  Elec       q    Type
                         _______ _______ _______ _____ _____    ______ ____

>  <TORSDO>
F 2

$$$$
=
 OpenBabel10272400303D

 31 35  0  0  1  0  0  0  0  0999 V2000
  188.1930  177.5340  148.0150 C   0  0  0  0  0  0  0  0  0  0  0  0
  187.5330  177.5450  144.3320 N   0  0  0  0  0  0  0  0  0  0  0  0
  186.2540  178.1020  144.0480 C   0  0  0  0  0  0  0  0  0  0  0  0
  184.0210  178.9100  144.4020 C   0  0  0  0  0  0  0  0  0  0  0  0
  188.2040  177.5590  145.6020 C   0  0  0  0  0  0  0  0  0  0  0  0
  189.5520  177.6180  148.0170 N   0  0  0  0  0  0  0  0  0  0  0  0
  185.2000  178.3500  144.9270 C   0  0  0  0  0  3  0  0  0  0  0  0
  189.5840  178.2410  143.1770 C   0  0  2  0  0  3  0  0  0  0  0  0
  187.5660  177.4840  149.1040 O   0  0  0  0  0  0  0  0  0  0  0  0
  187.5000  177.8830  140.6240 C   0  0  0  0  0  1  0  0  0  0  0  0
  182.9740  179.1640  145.2210 F   0  0  0  0  0  0  0  0  0  0  0  0
  190.4000  177.6880  144.3530 C   0  0  0  0  0  2  0  0  0  0  0  0
  188.2660  177.4700  143.0570 C   0  0  2  0  0  3  0  0  0  0  0  0
  187.4950  177.5030  146.8060 C   0  0  0  0  0  2  0  0  0  0  0  0
  183.9260  179.2080  143.0270 C   0  0  0  0  0  3  0  0  0  0  0  0
  189.6050  177.6610  145.6290 C   0  0  0  0  0  0  0  0  0  0  0  0
  190.2640  177.6770  146.8590 C   0  0  0  0  0  3  0  0  0  0  0  0
  187.3760  178.0780  142.0590 N   0  0  0  0  0  0  0  0  0  0  0  0
  186.1620  178.3990  142.7200 C   0  0  0  0  0  0  0  0  0  0  0  0
  185.0070  178.9530  142.1660 C   0  0  0  0  0  3  0  0  0  0  0  0
  190.4820  175.7880  142.0470 O   0  0  0  0  0  0  0  0  0  0  0  0
  190.7690  176.8460  141.4230 C   0  0  0  0  0  0  0  0  0  0  0  0
  190.3520  178.1110  141.9460 N   0  0  0  0  0  2  0  0  0  0  0  0
  193.0850  176.7210  137.8090 C   0  0  0  0  0  0  0  0  0  0  0  0
  192.8970  177.1510  140.1810 C   0  0  0  0  0  3  0  0  0  0  0  0
  189.6220  176.0280  138.8490 O   0  0  0  0  0  1  0  0  0  0  0  0
  193.8670  176.6840  136.6220 N   0  0  0  0  0  1  0  0  0  0  0  0
  193.6650  177.1170  139.0150 C   0  0  0  0  0  3  0  0  0  0  0  0
  190.9600  176.3940  138.9330 C   0  0  0  0  0  0  0  0  0  0  0  0
  191.5390  176.7930  140.1590 C   0  0  0  0  0  0  0  0  0  0  0  0
  191.7360  176.3610  137.7690 C   0  0  0  0  0  3  0  0  0  0  0  0
  1  6  1  0  0  0  0
  1  9  2  0  0  0  0
  2  5  1  0  0  0  0
  3  2  1  0  0  0  0
  3  7  1  0  0  0  0
  4  7  2  0  0  0  0
  4 11  1  0  0  0  0
  5 16  2  0  0  0  0
  5 14  1  0  0  0  0
  8 23  1  6  0  0  0
  8 12  1  0  0  0  0
 10 18  1  0  0  0  0
 12 16  1  0  0  0  0
 13 18  1  6  0  0  0
 13  8  1  0  0  0  0
 13  2  1  0  0  0  0
 14  1  1  0  0  0  0
 15  4  1  0  0  0  0
 16 17  1  0  0  0  0
 17  6  2  0  0  0  0
 18 19  1  0  0  0  0
 19  3  2  0  0  0  0
 20 19  1  0  0  0  0
 20 15  2  0  0  0  0
 22 23  1  0  0  0  0
 22 21  2  0  0  0  0
 24 28  1  0  0  0  0
 26 29  1  0  0  0  0
 27 24  1  0  0  0  0
 28 25  2  0  0  0  0
 29 30  2  0  0  0  0
 30 25  1  0  0  0  0
 30 22  1  0  0  0  0
 31 24  2  0  0  0  0
 31 29  1  0  0  0  0
M  END
>  <MODEL>
5

>  <REMARK>
 VINA RESULT:      -8.9      2.890      7.705
  Name = 
  2 active torsions:
  status: ('A' for Active; 'I' for Inactive)
    1  A    between atoms: C_9  and  C_22
    2  A    between atoms: C_15  and  N_23
                            x       y       z     vdW  Elec       q    Type
                         _______ _______ _______ _____ _____    ______ ____

>  <TORSDO>
F 2

$$$$
=
 OpenBabel10272400303D

 31 35  0  0  1  0  0  0  0  0999 V2000
  190.7010  176.8450  142.8120 C   0  0  0  0  0  0  0  0  0  0  0  0
  187.0910  177.5040  143.5410 N   0  0  0  0  0  0  0  0  0  0  0  0
  186.9020  177.8320  144.9140 C   0  0  0  0  0  0  0  0  0  0  0  0
  187.3700  178.0690  147.2570 C   0  0  0  0  0  0  0  0  0  0  0  0
  188.3490  177.3860  142.8600 C   0  0  0  0  0  0  0  0  0  0  0  0
  190.7510  177.2050  141.5000 N   0  0  0  0  0  0  0  0  0  0  0  0
  187.7900  177.6650  145.9770 C   0  0  0  0  0  3  0  0  0  0  0  0
  186.1570  178.8370  141.7040 C   0  0  2  0  0  3  0  0  0  0  0  0
  191.7400  176.4360  143.3910 O   0  0  0  0  0  0  0  0  0  0  0  0
  183.5400  178.6090  143.7250 C   0  0  0  0  0  1  0  0  0  0  0  0
  188.2000  177.9210  148.3160 F   0  0  0  0  0  0  0  0  0  0  0  0
  187.2070  178.2260  140.7660 C   0  0  0  0  0  2  0  0  0  0  0  0
  185.8460  177.8550  142.8370 C   0  0  2  0  0  3  0  0  0  0  0  0
  189.4980  176.9290  143.5160 C   0  0  0  0  0  2  0  0  0  0  0  0
  186.0880  178.6270  147.4410 C   0  0  0  0  0  3  0  0  0  0  0  0
  188.4300  177.7650  141.5090 C   0  0  0  0  0  0  0  0  0  0  0  0
  189.6500  177.6550  140.8410 C   0  0  0  0  0  3  0  0  0  0  0  0
  184.9800  178.4650  143.8550 N   0  0  0  0  0  0  0  0  0  0  0  0
  185.6660  178.3810  145.0950 C   0  0  0  0  0  0  0  0  0  0  0  0
  185.2170  178.7900  146.3500 C   0  0  0  0  0  3  0  0  0  0  0  0
  185.9130  178.7580  138.8700 O   0  0  0  0  0  0  0  0  0  0  0  0
  184.8820  179.0690  139.5250 C   0  0  0  0  0  0  0  0  0  0  0  0
  184.9450  179.1330  140.9540 N   0  0  0  0  0  2  0  0  0  0  0  0
  181.2000  180.0510  137.5480 C   0  0  0  0  0  0  0  0  0  0  0  0
  183.0970  180.6800  138.9070 C   0  0  0  0  0  3  0  0  0  0  0  0
  183.3490  177.0950  137.9880 O   0  0  0  0  0  1  0  0  0  0  0  0
  179.9820  180.3940  136.8970 N   0  0  0  0  0  1  0  0  0  0  0  0
  181.9010  181.0170  138.2710 C   0  0  0  0  0  3  0  0  0  0  0  0
  182.8920  178.4030  138.0980 C   0  0  0  0  0  0  0  0  0  0  0  0
  183.6090  179.3740  138.8330 C   0  0  0  0  0  0  0  0  0  0  0  0
  181.6950  178.7480  137.4620 C   0  0  0  0  0  3  0  0  0  0  0  0
  1  9  2  0  0  0  0
  1 14  1  0  0  0  0
  2  3  1  0  0  0  0
  3 19  2  0  0  0  0
  3  7  1  0  0  0  0
  4 15  1  0  0  0  0
  4 11  1  0  0  0  0
  5 14  1  0  0  0  0
  5  2  1  0  0  0  0
  6  1  1  0  0  0  0
  7  4  2  0  0  0  0
  8 23  1  6  0  0  0
  8 13  1  0  0  0  0
 10 18  1  0  0  0  0
 12 16  1  0  0  0  0
 12  8  1  0  0  0  0
 13  2  1  1  0  0  0
 13 18  1  0  0  0  0
 16  5  2  0  0  0  0
 17  6  2  0  0  0  0
 17 16  1  0  0  0  0
 18 19  1  0  0  0  0
 19 20  1  0  0  0  0
 20 15  2  0  0  0  0
 21 22  2  0  0  0  0
 22 23  1  0  0  0  0
 24 28  1  0  0  0  0
 26 29  1  0  0  0  0
 27 24  1  0  0  0  0
 28 25  2  0  0  0  0
 29 30  2  0  0  0  0
 30 25  1  0  0  0  0
 30 22  1  0  0  0  0
 31 24  2  0  0  0  0
 31 29  1  0  0  0  0
M  END
>  <MODEL>
6

>  <REMARK>
 VINA RESULT:      -8.8      3.804      8.003
  Name = 
  2 active torsions:
  status: ('A' for Active; 'I' for Inactive)
    1  A    between atoms: C_9  and  C_22
    2  A    between atoms: C_15  and  N_23
                            x       y       z     vdW  Elec       q    Type
                         _______ _______ _______ _____ _____    ______ ____

>  <TORSDO>
F 2

$$$$
=
 OpenBabel10272400303D

 31 35  0  0  1  0  0  0  0  0999 V2000
  187.4930  178.0220  136.2070 C   0  0  0  0  0  0  0  0  0  0  0  0
  186.5640  178.7280  139.7620 N   0  0  0  0  0  0  0  0  0  0  0  0
  185.1590  178.6000  139.9550 C   0  0  0  0  0  0  0  0  0  0  0  0
  182.8240  178.4090  139.4320 C   0  0  0  0  0  0  0  0  0  0  0  0
  187.3020  178.3430  138.5920 C   0  0  0  0  0  0  0  0  0  0  0  0
  188.7620  177.5610  136.3770 N   0  0  0  0  0  0  0  0  0  0  0  0
  184.1530  178.5340  138.9900 C   0  0  0  0  0  3  0  0  0  0  0  0
  188.2200  177.6580  141.2250 C   0  0  2  0  0  3  0  0  0  0  0  0
  186.9980  178.0900  135.0530 O   0  0  0  0  0  0  0  0  0  0  0  0
  186.1350  178.9510  143.4540 C   0  0  0  0  0  1  0  0  0  0  0  0
  181.8180  178.3450  138.5290 F   0  0  0  0  0  0  0  0  0  0  0  0
  189.2540  177.7840  140.0990 C   0  0  0  0  0  2  0  0  0  0  0  0
  187.1820  178.7770  141.0980 C   0  0  2  0  0  3  0  0  0  0  0  0
  186.7390  178.4220  137.3130 C   0  0  0  0  0  2  0  0  0  0  0  0
  182.5350  178.3510  140.8120 C   0  0  0  0  0  3  0  0  0  0  0  0
  188.6080  177.8490  138.7420 C   0  0  0  0  0  0  0  0  0  0  0  0
  189.3300  177.4710  137.6090 C   0  0  0  0  0  3  0  0  0  0  0  0
  186.0750  178.5940  142.0460 N   0  0  0  0  0  0  0  0  0  0  0  0
  184.8770  178.5350  141.2880 C   0  0  0  0  0  0  0  0  0  0  0  0
  183.5700  178.4140  141.7600 C   0  0  0  0  0  3  0  0  0  0  0  0
  188.0550  175.7170  143.2990 O   0  0  0  0  0  0  0  0  0  0  0  0
  188.7740  176.7290  143.5180 C   0  0  0  0  0  0  0  0  0  0  0  0
  188.8900  177.7440  142.5150 N   0  0  0  0  0  2  0  0  0  0  0  0
  190.9490  177.1510  147.1950 C   0  0  0  0  0  0  0  0  0  0  0  0
  190.8830  176.6790  144.8250 C   0  0  0  0  0  3  0  0  0  0  0  0
  187.4640  177.4380  146.0460 O   0  0  0  0  0  1  0  0  0  0  0  0
  191.6860  177.2890  148.4050 N   0  0  0  0  0  1  0  0  0  0  0  0
  191.6070  176.8120  146.0130 C   0  0  0  0  0  3  0  0  0  0  0  0
  188.8360  177.2250  146.0060 C   0  0  0  0  0  0  0  0  0  0  0  0
  189.4940  176.8820  144.8030 C   0  0  0  0  0  0  0  0  0  0  0  0
  189.5680  177.3570  147.1910 C   0  0  0  0  0  3  0  0  0  0  0  0
  1  6  1  0  0  0  0
  1 14  1  0  0  0  0
  2  3  1  0  0  0  0
  3 19  1  0  0  0  0
  4 15  2  0  0  0  0
  5 16  2  0  0  0  0
  5  2  1  0  0  0  0
  6 17  2  0  0  0  0
  7  4  1  0  0  0  0
  7  3  2  0  0  0  0
  8 23  1  1  0  0  0
  9  1  2  0  0  0  0
 11  4  1  0  0  0  0
 12  8  1  0  0  0  0
 13  2  1  6  0  0  0
 13  8  1  0  0  0  0
 13 18  1  0  0  0  0
 14  5  1  0  0  0  0
 15 20  1  0  0  0  0
 16 12  1  0  0  0  0
 17 16  1  0  0  0  0
 18 10  1  0  0  0  0
 19 20  2  0  0  0  0
 19 18  1  0  0  0  0
 21 22  2  0  0  0  0
 22 30  1  0  0  0  0
 23 22  1  0  0  0  0
 24 27  1  0  0  0  0
 25 28  1  0  0  0  0
 28 24  2  0  0  0  0
 29 26  1  0  0  0  0
 29 31  2  0  0  0  0
 30 25  2  0  0  0  0
 30 29  1  0  0  0  0
 31 24  1  0  0  0  0
M  END
>  <MODEL>
7

>  <REMARK>
 VINA RESULT:      -8.6      2.004      2.800
  Name = 
  2 active torsions:
  status: ('A' for Active; 'I' for Inactive)
    1  A    between atoms: C_9  and  C_22
    2  A    between atoms: C_15  and  N_23
                            x       y       z     vdW  Elec       q    Type
                         _______ _______ _______ _____ _____    ______ ____

>  <TORSDO>
F 2

$$$$
=
 OpenBabel10272400303D

 31 35  0  0  1  0  0  0  0  0999 V2000
  191.5090  176.7730  146.6830 C   0  0  0  0  0  0  0  0  0  0  0  0
  189.7190  177.8110  143.5660 N   0  0  0  0  0  0  0  0  0  0  0  0
  190.5320  177.5950  142.4170 C   0  0  0  0  0  0  0  0  0  0  0  0
  192.4860  177.1590  141.0930 C   0  0  0  0  0  0  0  0  0  0  0  0
  189.9900  177.3520  144.8990 C   0  0  0  0  0  0  0  0  0  0  0  0
  190.4500  176.4370  147.4680 N   0  0  0  0  0  0  0  0  0  0  0  0
  191.9020  177.3380  142.3600 C   0  0  0  0  0  3  0  0  0  0  0  0
  187.3880  177.0530  143.7190 C   0  0  2  0  0  3  0  0  0  0  0  0
  192.6810  176.6660  147.1280 O   0  0  0  0  0  0  0  0  0  0  0  0
  187.4200  178.4260  140.7020 C   0  0  0  0  0  1  0  0  0  0  0  0
  193.8130  176.9110  140.9920 F   0  0  0  0  0  0  0  0  0  0  0  0
  187.4950  177.1300  145.2480 C   0  0  0  0  0  2  0  0  0  0  0  0
  188.3500  178.0640  143.0850 C   0  0  2  0  0  3  0  0  0  0  0  0
  191.2980  177.2370  145.3830 C   0  0  0  0  0  2  0  0  0  0  0  0
  191.6960  177.2390  139.9270 C   0  0  0  0  0  3  0  0  0  0  0  0
  188.9130  176.9850  145.7240 C   0  0  0  0  0  0  0  0  0  0  0  0
  189.1700  176.5370  147.0210 C   0  0  0  0  0  3  0  0  0  0  0  0
  188.4130  177.9040  141.6260 N   0  0  0  0  0  0  0  0  0  0  0  0
  189.7690  177.6630  141.2880 C   0  0  0  0  0  0  0  0  0  0  0  0
  190.3170  177.4930  140.0160 C   0  0  0  0  0  3  0  0  0  0  0  0
  185.8080  179.2240  144.6620 O   0  0  0  0  0  0  0  0  0  0  0  0
  185.2780  178.4550  143.8150 C   0  0  0  0  0  0  0  0  0  0  0  0
  186.0210  177.3410  143.3090 N   0  0  0  0  0  2  0  0  0  0  0  0
  181.2960  179.1110  142.3510 C   0  0  0  0  0  0  0  0  0  0  0  0
  183.6200  178.5660  141.9710 C   0  0  0  0  0  3  0  0  0  0  0  0
  183.0500  179.1630  145.5870 O   0  0  0  0  0  1  0  0  0  0  0  0
  179.9820  179.3240  141.8490 N   0  0  0  0  0  1  0  0  0  0  0  0
  182.3310  178.7760  141.4770 C   0  0  0  0  0  3  0  0  0  0  0  0
  182.8390  179.0280  144.2200 C   0  0  0  0  0  0  0  0  0  0  0  0
  183.8940  178.6890  143.3430 C   0  0  0  0  0  0  0  0  0  0  0  0
  181.5500  179.2360  143.7180 C   0  0  0  0  0  3  0  0  0  0  0  0
  1  9  2  0  0  0  0
  1  6  1  0  0  0  0
  2  5  1  0  0  0  0
  3  2  1  0  0  0  0
  4  7  2  0  0  0  0
  5 14  1  0  0  0  0
  5 16  2  0  0  0  0
  7  3  1  0  0  0  0
  8 23  1  1  0  0  0
  8 12  1  0  0  0  0
 10 18  1  0  0  0  0
 11  4  1  0  0  0  0
 12 16  1  0  0  0  0
 13 18  1  6  0  0  0
 13  2  1  0  0  0  0
 13  8  1  0  0  0  0
 14  1  1  0  0  0  0
 15 20  2  0  0  0  0
 15  4  1  0  0  0  0
 16 17  1  0  0  0  0
 17  6  2  0  0  0  0
 19 18  1  0  0  0  0
 19  3  2  0  0  0  0
 20 19  1  0  0  0  0
 22 21  2  0  0  0  0
 23 22  1  0  0  0  0
 24 31  1  0  0  0  0
 25 30  2  0  0  0  0
 27 24  1  0  0  0  0
 28 25  1  0  0  0  0
 28 24  2  0  0  0  0
 29 26  1  0  0  0  0
 30 22  1  0  0  0  0
 30 29  1  0  0  0  0
 31 29  2  0  0  0  0
M  END
>  <MODEL>
8

>  <REMARK>
 VINA RESULT:      -8.5      3.787      7.173
  Name = 
  2 active torsions:
  status: ('A' for Active; 'I' for Inactive)
    1  A    between atoms: C_9  and  C_22
    2  A    between atoms: C_15  and  N_23
                            x       y       z     vdW  Elec       q    Type
                         _______ _______ _______ _____ _____    ______ ____

>  <TORSDO>
F 2

$$$$
=
 OpenBabel10272400303D

 31 35  0  0  1  0  0  0  0  0999 V2000
  184.5140  178.8600  139.8190 C   0  0  0  0  0  0  0  0  0  0  0  0
  188.0540  178.2830  140.8830 N   0  0  0  0  0  0  0  0  0  0  0  0
  188.1140  177.8610  142.2420 C   0  0  0  0  0  0  0  0  0  0  0  0
  187.4150  177.4360  144.4990 C   0  0  0  0  0  0  0  0  0  0  0  0
  186.8700  178.4050  140.0800 C   0  0  0  0  0  0  0  0  0  0  0  0
  184.6170  178.5960  138.4870 N   0  0  0  0  0  0  0  0  0  0  0  0
  187.1130  177.9180  143.2130 C   0  0  0  0  0  3  0  0  0  0  0  0
  189.2330  177.1240  139.0680 C   0  0  2  0  0  3  0  0  0  0  0  0
  183.4040  179.1870  140.3110 O   0  0  0  0  0  0  0  0  0  0  0  0
  191.6130  177.2990  141.3690 C   0  0  0  0  0  1  0  0  0  0  0  0
  186.4740  177.4750  145.4710 F   0  0  0  0  0  0  0  0  0  0  0  0
  188.2610  177.7630  138.0680 C   0  0  0  0  0  2  0  0  0  0  0  0
  189.3800  178.0310  140.2940 C   0  0  2  0  0  3  0  0  0  0  0  0
  185.6400  178.7690  140.6400 C   0  0  0  0  0  2  0  0  0  0  0  0
  188.6950  176.9140  144.7810 C   0  0  0  0  0  3  0  0  0  0  0  0
  186.9480  178.1230  138.7060 C   0  0  0  0  0  0  0  0  0  0  0  0
  185.8000  178.2370  137.9200 C   0  0  0  0  0  3  0  0  0  0  0  0
  190.1610  177.3800  141.3540 N   0  0  0  0  0  0  0  0  0  0  0  0
  189.3470  177.3470  142.5150 C   0  0  0  0  0  0  0  0  0  0  0  0
  189.6810  176.8640  143.7810 C   0  0  0  0  0  3  0  0  0  0  0  0
  190.2310  174.6460  138.0870 O   0  0  0  0  0  0  0  0  0  0  0  0
  190.9730  175.6570  137.9520 C   0  0  0  0  0  0  0  0  0  0  0  0
  190.5290  176.9290  138.4330 N   0  0  0  0  0  2  0  0  0  0  0  0
  194.8630  175.2860  136.1730 C   0  0  0  0  0  0  0  0  0  0  0  0
  193.4010  175.1620  138.0950 C   0  0  0  0  0  3  0  0  0  0  0  0
  191.4520  176.1630  135.1020 O   0  0  0  0  0  1  0  0  0  0  0  0
  196.1580  175.1560  135.6000 N   0  0  0  0  0  1  0  0  0  0  0  0
  194.6740  175.0370  137.5330 C   0  0  0  0  0  3  0  0  0  0  0  0
  192.5030  175.7880  135.9310 C   0  0  0  0  0  0  0  0  0  0  0  0
  192.3010  175.5390  137.3080 C   0  0  0  0  0  0  0  0  0  0  0  0
  193.7800  175.6600  135.3760 C   0  0  0  0  0  3  0  0  0  0  0  0
  1  9  2  0  0  0  0
  1 14  1  0  0  0  0
  2  3  1  0  0  0  0
  3 19  2  0  0  0  0
  3  7  1  0  0  0  0
  4 15  1  0  0  0  0
  4 11  1  0  0  0  0
  5 14  1  0  0  0  0
  5  2  1  0  0  0  0
  6  1  1  0  0  0  0
  7  4  2  0  0  0  0
  8 23  1  6  0  0  0
  8 13  1  0  0  0  0
 12 16  1  0  0  0  0
 12  8  1  0  0  0  0
 13  2  1  1  0  0  0
 13 18  1  0  0  0  0
 16  5  2  0  0  0  0
 17  6  2  0  0  0  0
 17 16  1  0  0  0  0
 18 10  1  0  0  0  0
 18 19  1  0  0  0  0
 19 20  1  0  0  0  0
 20 15  2  0  0  0  0
 22 21  2  0  0  0  0
 22 23  1  0  0  0  0
 24 28  1  0  0  0  0
 26 29  1  0  0  0  0
 27 24  1  0  0  0  0
 28 25  2  0  0  0  0
 29 30  2  0  0  0  0
 30 22  1  0  0  0  0
 30 25  1  0  0  0  0
 31 29  1  0  0  0  0
 31 24  2  0  0  0  0
M  END
>  <MODEL>
9

>  <REMARK>
 VINA RESULT:      -8.4      3.202      7.943
  Name = 
  2 active torsions:
  status: ('A' for Active; 'I' for Inactive)
    1  A    between atoms: C_9  and  C_22
    2  A    between atoms: C_15  and  N_23
                            x       y       z     vdW  Elec       q    Type
                         _______ _______ _______ _____ _____    ______ ____

>  <TORSDO>
F 2

$$$$
