=
 OpenBabel10272413123D

 32 37  0  0  1  0  0  0  0  0999 V2000
  186.7250  178.4080  145.0000 C   0  0  0  0  0  0  0  0  0  0  0  0
  188.8030  177.3300  144.2990 C   0  0  0  0  0  0  0  0  0  0  0  0
  185.7540  178.8760  146.0640 C   0  0  0  0  0  2  0  0  0  0  0  0
  187.9730  177.8040  145.3520 C   0  0  0  0  0  0  0  0  0  0  0  0
  190.0980  176.9430  144.2960 C   0  0  1  0  0  3  0  0  0  0  0  0
  190.4650  177.3360  140.1590 C   0  0  0  0  0  3  0  0  0  0  0  0
  188.3280  177.3110  142.9980 C   0  0  0  0  0  0  0  0  0  0  0  0
  191.6720  177.1250  142.3000 C   0  0  0  0  0  3  0  0  0  0  0  0
  190.4610  176.4650  142.9180 C   0  0  2  0  0  3  0  0  0  0  0  0
  191.1660  176.6180  146.5450 C   0  0  0  0  0  0  0  0  0  0  0  0
  188.2370  177.4290  146.8040 C   0  0  1  0  0  3  0  0  0  0  0  0
  191.1660  177.3670  145.2610 C   0  0  0  0  0  2  0  0  0  0  0  0
  189.4160  178.1320  147.4400 C   0  0  0  0  0  2  0  0  0  0  0  0
  187.0170  177.5490  147.7110 C   0  0  0  0  0  2  0  0  0  0  0  0
  187.1210  177.9010  142.6450 C   0  0  0  0  0  3  0  0  0  0  0  0
  191.8290  175.5550  146.6590 O   0  0  0  0  0  0  0  0  0  0  0  0
  186.3210  178.4680  143.6370 C   0  0  0  0  0  0  0  0  0  0  0  0
  189.2360  176.8390  142.1630 C   0  0  2  0  0  3  0  0  0  0  0  0
  190.4490  177.1370  147.6580 N   0  0  0  0  0  2  0  0  0  0  0  0
  186.3380  178.8810  147.4650 C   0  0  0  0  0  2  0  0  0  0  0  0
  191.6810  177.4710  141.0020 C   0  0  0  0  0  3  0  0  0  0  0  0
  189.2780  177.0580  140.7110 C   0  0  0  0  0  3  0  0  0  0  0  0
  183.5240  178.9030  141.0800 C   0  0  0  0  0  0  0  0  0  0  0  0
  183.3990  178.7820  139.7350 F   0  0  0  0  0  0  0  0  0  0  0  0
  185.0200  179.0800  143.1850 C   0  0  2  0  0  3  0  0  0  0  0  0
  182.4360  178.8130  141.8480 C   0  0  0  0  0  3  0  0  0  0  0  0
  183.8270  178.4320  143.8970 C   0  0  0  0  0  2  0  0  0  0  0  0
  184.8590  179.0840  141.6820 C   0  0  0  0  0  0  0  0  0  0  0  0
  185.8540  179.2890  140.9370 O   0  0  0  0  0  0  0  0  0  0  0  0
  182.5140  178.9820  143.3410 C   0  0  2  0  0  3  0  0  0  0  0  0
  180.1980  178.3490  143.1850 O   0  0  0  0  0  1  0  0  0  0  0  0
  181.3140  178.3430  144.0260 C   0  0  0  0  0  2  0  0  0  0  0  0
  1  4  1  0  0  0  0
  1  3  1  0  0  0  0
  2  4  2  0  0  0  0
  3 20  1  0  0  0  0
  4 11  1  0  0  0  0
  5  2  1  0  0  0  0
  5 12  1  6  0  0  0
  6 22  2  0  0  0  0
  6 21  1  0  0  0  0
  7  2  1  0  0  0  0
  9  8  1  6  0  0  0
  9  5  1  0  0  0  0
 10 16  2  0  0  0  0
 10 19  1  0  0  0  0
 11 13  1  1  0  0  0
 11 14  1  0  0  0  0
 12 10  1  0  0  0  0
 13 19  1  0  0  0  0
 15  7  2  0  0  0  0
 15 17  1  0  0  0  0
 17  1  2  0  0  0  0
 18 22  1  6  0  0  0
 18  9  1  0  0  0  0
 18  7  1  0  0  0  0
 20 14  1  0  0  0  0
 21  8  2  0  0  0  0
 23 28  1  0  0  0  0
 23 26  2  0  0  0  0
 24 23  1  0  0  0  0
 25 17  1  6  0  0  0
 25 27  1  0  0  0  0
 26 30  1  0  0  0  0
 28 25  1  0  0  0  0
 29 28  2  0  0  0  0
 30 27  1  0  0  0  0
 30 32  1  1  0  0  0
 31 32  1  0  0  0  0
M  END
>  <MODEL>
1

>  <REMARK>
 VINA RESULT:     -12.0      0.000      0.000
  Name = 
  2 active torsions:
  status: ('A' for Active; 'I' for Inactive)
    1  A    between atoms: C_15  and  C_26
    2  A    between atoms: C_16  and  C_27
                            x       y       z     vdW  Elec       q    Type
                         _______ _______ _______ _____ _____    ______ ____

>  <TORSDO>
F 2

$$$$
=
 OpenBabel10272413123D

 32 37  0  0  1  0  0  0  0  0999 V2000
  187.4370  178.2540  142.3560 C   0  0  0  0  0  0  0  0  0  0  0  0
  187.4190  177.7400  144.7450 C   0  0  0  0  0  0  0  0  0  0  0  0
  186.7470  178.6520  141.0680 C   0  0  0  0  0  2  0  0  0  0  0  0
  186.7180  178.1850  143.5910 C   0  0  0  0  0  0  0  0  0  0  0  0
  187.0930  177.7920  146.0550 C   0  0  1  0  0  3  0  0  0  0  0  0
  191.0260  177.1970  147.3130 C   0  0  0  0  0  3  0  0  0  0  0  0
  188.7040  177.2370  144.6230 C   0  0  0  0  0  0  0  0  0  0  0  0
  188.7670  177.9360  147.9720 C   0  0  0  0  0  3  0  0  0  0  0  0
  188.1700  177.1130  146.8540 C   0  0  2  0  0  3  0  0  0  0  0  0
  184.7190  178.4120  146.5870 C   0  0  0  0  0  0  0  0  0  0  0  0
  185.1990  178.3000  143.5760 C   0  0  1  0  0  3  0  0  0  0  0  0
  186.1570  178.7650  146.7120 C   0  0  0  0  0  2  0  0  0  0  0  0
  184.6430  179.4770  144.3470 C   0  0  0  0  0  2  0  0  0  0  0  0
  184.5840  178.2620  142.1820 C   0  0  0  0  0  2  0  0  0  0  0  0
  189.4130  177.3060  143.4320 C   0  0  0  0  0  3  0  0  0  0  0  0
  184.1680  177.6780  147.4480 O   0  0  0  0  0  0  0  0  0  0  0  0
  188.7940  177.8300  142.2960 C   0  0  0  0  0  0  0  0  0  0  0  0
  189.1890  176.8750  145.7970 C   0  0  2  0  0  3  0  0  0  0  0  0
  183.9580  178.9490  145.5110 N   0  0  0  0  0  2  0  0  0  0  0  0
  185.3460  179.2020  141.2710 C   0  0  0  0  0  2  0  0  0  0  0  0
  190.0880  177.9190  148.2110 C   0  0  0  0  0  3  0  0  0  0  0  0
  190.6100  176.7120  146.1370 C   0  0  0  0  0  3  0  0  0  0  0  0
  192.0150  177.1480  140.3700 C   0  0  0  0  0  0  0  0  0  0  0  0
  193.3310  177.0260  140.6740 F   0  0  0  0  0  0  0  0  0  0  0  0
  189.6170  177.8630  141.0350 C   0  0  2  0  0  3  0  0  0  0  0  0
  191.5490  176.5940  139.2480 C   0  0  0  0  0  3  0  0  0  0  0  0
  189.1860  176.7590  140.0620 C   0  0  0  0  0  2  0  0  0  0  0  0
  191.1060  177.8450  141.3000 C   0  0  0  0  0  0  0  0  0  0  0  0
  191.5830  178.4650  142.2880 O   0  0  0  0  0  0  0  0  0  0  0  0
  190.1080  176.7350  138.8440 C   0  0  2  0  0  3  0  0  0  0  0  0
  190.6020  174.5680  137.9220 O   0  0  0  0  0  1  0  0  0  0  0  0
  189.7040  175.6380  137.8690 C   0  0  0  0  0  2  0  0  0  0  0  0
  1  4  1  0  0  0  0
  2  5  1  0  0  0  0
  3 20  1  0  0  0  0
  3  1  1  0  0  0  0
  4  2  2  0  0  0  0
  5 12  1  1  0  0  0
  5  9  1  0  0  0  0
  6 21  1  0  0  0  0
  7  2  1  0  0  0  0
  7 18  1  0  0  0  0
  8 21  2  0  0  0  0
  9  8  1  1  0  0  0
 10 12  1  0  0  0  0
 10 16  2  0  0  0  0
 11 14  1  6  0  0  0
 11  4  1  0  0  0  0
 11 13  1  0  0  0  0
 13 19  1  0  0  0  0
 15  7  2  0  0  0  0
 17  1  2  0  0  0  0
 17 15  1  0  0  0  0
 18 22  1  1  0  0  0
 18  9  1  0  0  0  0
 19 10  1  0  0  0  0
 20 14  1  0  0  0  0
 22  6  2  0  0  0  0
 23 24  1  0  0  0  0
 23 28  1  0  0  0  0
 25 28  1  0  0  0  0
 25 17  1  1  0  0  0
 26 23  2  0  0  0  0
 27 25  1  0  0  0  0
 28 29  2  0  0  0  0
 30 32  1  6  0  0  0
 30 26  1  0  0  0  0
 30 27  1  0  0  0  0
 32 31  1  0  0  0  0
M  END
>  <MODEL>
2

>  <REMARK>
 VINA RESULT:     -11.5      3.083      6.553
  Name = 
  2 active torsions:
  status: ('A' for Active; 'I' for Inactive)
    1  A    between atoms: C_15  and  C_26
    2  A    between atoms: C_16  and  C_27
                            x       y       z     vdW  Elec       q    Type
                         _______ _______ _______ _____ _____    ______ ____

>  <TORSDO>
F 2

$$$$
=
 OpenBabel10272413123D

 32 37  0  0  1  0  0  0  0  0999 V2000
  185.5290  178.4550  143.7040 C   0  0  0  0  0  0  0  0  0  0  0  0
  187.7340  177.4920  144.1320 C   0  0  0  0  0  0  0  0  0  0  0  0
  184.1700  178.9400  144.1620 C   0  0  0  0  0  2  0  0  0  0  0  0
  186.5050  177.9950  144.6430 C   0  0  0  0  0  0  0  0  0  0  0  0
  188.9040  177.2170  144.7490 C   0  0  1  0  0  3  0  0  0  0  0  0
  191.0730  177.2350  141.1860 C   0  0  0  0  0  3  0  0  0  0  0  0
  187.8930  177.3070  142.7680 C   0  0  0  0  0  0  0  0  0  0  0  0
  191.1990  177.3350  143.6470 C   0  0  0  0  0  3  0  0  0  0  0  0
  189.8610  176.6380  143.7440 C   0  0  2  0  0  3  0  0  0  0  0  0
  188.8610  177.2030  147.2590 C   0  0  0  0  0  0  0  0  0  0  0  0
  186.1020  177.7860  146.0960 C   0  0  1  0  0  3  0  0  0  0  0  0
  189.4130  177.8210  146.0250 C   0  0  0  0  0  2  0  0  0  0  0  0
  186.8480  178.6430  147.0940 C   0  0  0  0  0  2  0  0  0  0  0  0
  184.6020  177.8910  146.3490 C   0  0  0  0  0  2  0  0  0  0  0  0
  186.9540  177.7560  141.8490 C   0  0  0  0  0  3  0  0  0  0  0  0
  189.4360  176.2150  147.7860 O   0  0  0  0  0  0  0  0  0  0  0  0
  185.7760  178.3480  142.3060 C   0  0  0  0  0  0  0  0  0  0  0  0
  189.0930  176.8340  142.4860 C   0  0  2  0  0  3  0  0  0  0  0  0
  187.7040  177.7650  147.8680 N   0  0  0  0  0  2  0  0  0  0  0  0
  184.0630  179.1300  145.6650 C   0  0  0  0  0  2  0  0  0  0  0  0
  191.7780  177.5530  142.4550 C   0  0  0  0  0  3  0  0  0  0  0  0
  189.7740  176.9130  141.1870 C   0  0  0  0  0  3  0  0  0  0  0  0
  184.4250  178.3130  138.7400 C   0  0  0  0  0  0  0  0  0  0  0  0
  184.9260  178.0670  137.5040 F   0  0  0  0  0  0  0  0  0  0  0  0
  184.7980  178.8010  141.2550 C   0  0  2  0  0  3  0  0  0  0  0  0
  183.1110  178.1940  138.9480 C   0  0  0  0  0  3  0  0  0  0  0  0
  183.4380  178.1130  141.4300 C   0  0  0  0  0  2  0  0  0  0  0  0
  185.3340  178.6620  139.8480 C   0  0  0  0  0  0  0  0  0  0  0  0
  186.5490  178.8900  139.6070 O   0  0  0  0  0  0  0  0  0  0  0  0
  182.4980  178.4960  140.2880 C   0  0  2  0  0  3  0  0  0  0  0  0
  180.5840  178.0860  141.6860 O   0  0  0  0  0  1  0  0  0  0  0  0
  181.1450  177.8140  140.4360 C   0  0  0  0  0  2  0  0  0  0  0  0
  1  3  1  0  0  0  0
  1  4  1  0  0  0  0
  2  4  2  0  0  0  0
  2  5  1  0  0  0  0
  3 20  1  0  0  0  0
  4 11  1  0  0  0  0
  5 12  1  6  0  0  0
  6 22  2  0  0  0  0
  6 21  1  0  0  0  0
  7  2  1  0  0  0  0
  9  8  1  6  0  0  0
  9  5  1  0  0  0  0
 10 16  2  0  0  0  0
 10 19  1  0  0  0  0
 11 14  1  6  0  0  0
 11 13  1  0  0  0  0
 12 10  1  0  0  0  0
 13 19  1  0  0  0  0
 15 17  1  0  0  0  0
 15  7  2  0  0  0  0
 17  1  2  0  0  0  0
 18 22  1  6  0  0  0
 18  7  1  0  0  0  0
 18  9  1  0  0  0  0
 20 14  1  0  0  0  0
 21  8  2  0  0  0  0
 23 26  2  0  0  0  0
 23 28  1  0  0  0  0
 24 23  1  0  0  0  0
 25 27  1  0  0  0  0
 25 17  1  1  0  0  0
 26 30  1  0  0  0  0
 28 25  1  0  0  0  0
 29 28  2  0  0  0  0
 30 32  1  1  0  0  0
 30 27  1  0  0  0  0
 32 31  1  0  0  0  0
M  END
>  <MODEL>
3

>  <REMARK>
 VINA RESULT:     -11.5      1.482      2.124
  Name = 
  2 active torsions:
  status: ('A' for Active; 'I' for Inactive)
    1  A    between atoms: C_15  and  C_26
    2  A    between atoms: C_16  and  C_27
                            x       y       z     vdW  Elec       q    Type
                         _______ _______ _______ _____ _____    ______ ____

>  <TORSDO>
F 2

$$$$
=
 OpenBabel10272413123D

 32 37  0  0  1  0  0  0  0  0999 V2000
  186.6010  177.8780  143.7560 C   0  0  0  0  0  0  0  0  0  0  0  0
  186.8490  178.3490  141.3710 C   0  0  0  0  0  0  0  0  0  0  0  0
  185.8300  177.9370  145.0580 C   0  0  0  0  0  2  0  0  0  0  0  0
  186.0390  178.3790  142.5400 C   0  0  0  0  0  0  0  0  0  0  0  0
  186.5330  178.5230  140.0690 C   0  0  1  0  0  3  0  0  0  0  0  0
  190.0450  176.7200  138.7200 C   0  0  0  0  0  3  0  0  0  0  0  0
  188.1860  177.9990  141.4650 C   0  0  0  0  0  0  0  0  0  0  0  0
  187.7720  177.4590  138.1120 C   0  0  0  0  0  3  0  0  0  0  0  0
  187.7910  178.4550  139.2490 C   0  0  2  0  0  3  0  0  0  0  0  0
  184.2390  179.4240  139.5920 C   0  0  0  0  0  0  0  0  0  0  0  0
  184.7430  179.1760  142.5900 C   0  0  1  0  0  3  0  0  0  0  0  0
  185.1940  178.2970  139.4290 C   0  0  0  0  0  2  0  0  0  0  0  0
  183.5890  178.5650  141.8270 C   0  0  0  0  0  2  0  0  0  0  0  0
  184.2900  179.5430  144.0000 C   0  0  0  0  0  2  0  0  0  0  0  0
  188.7390  177.5050  142.6390 C   0  0  0  0  0  3  0  0  0  0  0  0
  184.2100  180.3580  138.7490 O   0  0  0  0  0  0  0  0  0  0  0  0
  187.9490  177.4240  143.7860 C   0  0  0  0  0  0  0  0  0  0  0  0
  188.7720  178.0300  140.2810 C   0  0  2  0  0  3  0  0  0  0  0  0
  183.3250  179.4160  140.6820 N   0  0  0  0  0  2  0  0  0  0  0  0
  184.3700  178.3180  144.8870 C   0  0  0  0  0  2  0  0  0  0  0  0
  188.8470  176.7020  137.8400 C   0  0  0  0  0  3  0  0  0  0  0  0
  190.0120  177.3340  139.9080 C   0  0  0  0  0  3  0  0  0  0  0  0
  191.0540  176.6860  145.8750 C   0  0  0  0  0  0  0  0  0  0  0  0
  192.3670  176.4530  145.6300 F   0  0  0  0  0  0  0  0  0  0  0  0
  188.6170  176.8900  145.0260 C   0  0  2  0  0  3  0  0  0  0  0  0
  190.6810  177.1230  147.0800 C   0  0  0  0  0  3  0  0  0  0  0  0
  188.4520  177.8580  146.2040 C   0  0  0  0  0  2  0  0  0  0  0  0
  190.0610  176.5000  144.8010 C   0  0  0  0  0  0  0  0  0  0  0  0
  190.4120  175.9720  143.7120 O   0  0  0  0  0  0  0  0  0  0  0  0
  189.2340  177.3550  147.4170 C   0  0  2  0  0  3  0  0  0  0  0  0
  187.8910  178.0920  149.2720 O   0  0  0  0  0  1  0  0  0  0  0  0
  189.0940  178.3090  148.5960 C   0  0  0  0  0  2  0  0  0  0  0  0
  1 17  1  0  0  0  0
  1  3  1  0  0  0  0
  2  7  2  0  0  0  0
  2  4  1  0  0  0  0
  4 11  1  0  0  0  0
  4  1  2  0  0  0  0
  5 12  1  6  0  0  0
  5  2  1  0  0  0  0
  6 22  2  0  0  0  0
  7 15  1  0  0  0  0
  9  8  1  6  0  0  0
  9  5  1  0  0  0  0
  9 18  1  0  0  0  0
 10 19  1  0  0  0  0
 11 13  1  1  0  0  0
 11 14  1  0  0  0  0
 12 10  1  0  0  0  0
 14 20  1  0  0  0  0
 15 17  2  0  0  0  0
 16 10  2  0  0  0  0
 18 22  1  6  0  0  0
 18  7  1  0  0  0  0
 19 13  1  0  0  0  0
 20  3  1  0  0  0  0
 21  8  2  0  0  0  0
 21  6  1  0  0  0  0
 23 26  2  0  0  0  0
 24 23  1  0  0  0  0
 25 17  1  6  0  0  0
 25 27  1  0  0  0  0
 26 30  1  0  0  0  0
 27 30  1  0  0  0  0
 28 25  1  0  0  0  0
 28 23  1  0  0  0  0
 29 28  2  0  0  0  0
 30 32  1  1  0  0  0
 32 31  1  0  0  0  0
M  END
>  <MODEL>
4

>  <REMARK>
 VINA RESULT:     -11.1      3.273      6.593
  Name = 
  2 active torsions:
  status: ('A' for Active; 'I' for Inactive)
    1  A    between atoms: C_15  and  C_26
    2  A    between atoms: C_16  and  C_27
                            x       y       z     vdW  Elec       q    Type
                         _______ _______ _______ _____ _____    ______ ____

>  <TORSDO>
F 2

$$$$
=
 OpenBabel10272413123D

 32 37  0  0  1  0  0  0  0  0999 V2000
  187.0360  178.3210  141.8670 C   0  0  0  0  0  0  0  0  0  0  0  0
  187.3280  177.7200  144.2180 C   0  0  0  0  0  0  0  0  0  0  0  0
  186.1890  178.7880  140.7020 C   0  0  0  0  0  2  0  0  0  0  0  0
  186.4910  178.2310  143.1870 C   0  0  0  0  0  0  0  0  0  0  0  0
  187.1890  177.7340  145.5620 C   0  0  1  0  0  3  0  0  0  0  0  0
  191.2320  176.9610  146.2390 C   0  0  0  0  0  3  0  0  0  0  0  0
  188.5640  177.1790  143.9020 C   0  0  0  0  0  0  0  0  0  0  0  0
  189.1160  177.7510  147.2300 C   0  0  0  0  0  3  0  0  0  0  0  0
  188.3390  176.9900  146.1800 C   0  0  2  0  0  3  0  0  0  0  0  0
  184.9370  178.4130  146.4390 C   0  0  0  0  0  0  0  0  0  0  0  0
  184.9910  178.3970  143.3890 C   0  0  1  0  0  3  0  0  0  0  0  0
  186.3910  178.7120  146.3740 C   0  0  0  0  0  2  0  0  0  0  0  0
  184.5920  179.5620  144.2670 C   0  0  0  0  0  2  0  0  0  0  0  0
  184.1880  178.4310  142.0930 C   0  0  0  0  0  2  0  0  0  0  0  0
  189.1030  177.2680  142.6260 C   0  0  0  0  0  3  0  0  0  0  0  0
  184.4820  177.6670  147.3440 O   0  0  0  0  0  0  0  0  0  0  0  0
  188.3540  177.8530  141.6050 C   0  0  0  0  0  0  0  0  0  0  0  0
  189.1920  176.7570  144.9850 C   0  0  2  0  0  3  0  0  0  0  0  0
  184.0550  179.0150  145.4980 N   0  0  0  0  0  2  0  0  0  0  0  0
  184.8520  179.3780  141.1150 C   0  0  0  0  0  2  0  0  0  0  0  0
  190.4560  177.6810  147.2820 C   0  0  0  0  0  3  0  0  0  0  0  0
  190.6390  176.5340  145.1170 C   0  0  0  0  0  3  0  0  0  0  0  0
  190.9610  176.6910  139.0750 C   0  0  0  0  0  0  0  0  0  0  0  0
  192.2000  176.1440  139.1270 F   0  0  0  0  0  0  0  0  0  0  0  0
  188.9950  177.9060  140.2440 C   0  0  2  0  0  3  0  0  0  0  0  0
  190.2200  176.5290  137.9760 C   0  0  0  0  0  3  0  0  0  0  0  0
  188.1340  177.1880  139.1970 C   0  0  0  0  0  2  0  0  0  0  0  0
  190.4260  177.4150  140.2440 C   0  0  0  0  0  0  0  0  0  0  0  0
  191.1820  177.6630  141.2210 O   0  0  0  0  0  0  0  0  0  0  0  0
  188.8560  177.1510  137.8510 C   0  0  2  0  0  3  0  0  0  0  0  0
  187.3870  175.3130  137.3450 O   0  0  0  0  0  1  0  0  0  0  0  0
  188.0230  176.4310  136.7990 C   0  0  0  0  0  2  0  0  0  0  0  0
  1  4  1  0  0  0  0
  2  5  1  0  0  0  0
  3 20  1  0  0  0  0
  3  1  1  0  0  0  0
  4 11  1  0  0  0  0
  4  2  2  0  0  0  0
  5  9  1  0  0  0  0
  5 12  1  1  0  0  0
  6 21  1  0  0  0  0
  7  2  1  0  0  0  0
  7 18  1  0  0  0  0
  8 21  2  0  0  0  0
  9  8  1  1  0  0  0
 10 16  2  0  0  0  0
 11 14  1  6  0  0  0
 11 13  1  0  0  0  0
 12 10  1  0  0  0  0
 13 19  1  0  0  0  0
 15  7  2  0  0  0  0
 17  1  2  0  0  0  0
 17 15  1  0  0  0  0
 18 22  1  1  0  0  0
 18  9  1  0  0  0  0
 19 10  1  0  0  0  0
 20 14  1  0  0  0  0
 22  6  2  0  0  0  0
 23 24  1  0  0  0  0
 23 28  1  0  0  0  0
 25 17  1  1  0  0  0
 26 23  2  0  0  0  0
 27 25  1  0  0  0  0
 28 25  1  0  0  0  0
 28 29  2  0  0  0  0
 30 32  1  6  0  0  0
 30 26  1  0  0  0  0
 30 27  1  0  0  0  0
 32 31  1  0  0  0  0
M  END
>  <MODEL>
5

>  <REMARK>
 VINA RESULT:     -11.0      2.998      6.071
  Name = 
  2 active torsions:
  status: ('A' for Active; 'I' for Inactive)
    1  A    between atoms: C_15  and  C_26
    2  A    between atoms: C_16  and  C_27
                            x       y       z     vdW  Elec       q    Type
                         _______ _______ _______ _____ _____    ______ ____

>  <TORSDO>
F 2

$$$$
=
 OpenBabel10272413123D

 32 37  0  0  1  0  0  0  0  0999 V2000
  189.3560  177.0500  143.0490 C   0  0  0  0  0  0  0  0  0  0  0  0
  187.6900  178.0410  144.5370 C   0  0  0  0  0  0  0  0  0  0  0  0
  190.7160  176.4390  142.7820 C   0  0  0  0  0  2  0  0  0  0  0  0
  188.9550  177.4110  144.3740 C   0  0  0  0  0  0  0  0  0  0  0  0
  186.9530  178.2760  145.6450 C   0  0  1  0  0  3  0  0  0  0  0  0
  183.4390  178.8870  143.4820 C   0  0  0  0  0  3  0  0  0  0  0  0
  186.9630  178.4330  143.4250 C   0  0  0  0  0  0  0  0  0  0  0  0
  184.4100  178.4300  145.7030 C   0  0  0  0  0  3  0  0  0  0  0  0
  185.7190  179.0410  145.2570 C   0  0  2  0  0  3  0  0  0  0  0  0
  188.1080  177.9170  147.8460 C   0  0  0  0  0  0  0  0  0  0  0  0
  189.9820  177.3840  145.4980 C   0  0  1  0  0  3  0  0  0  0  0  0
  187.0020  177.5150  146.9380 C   0  0  0  0  0  2  0  0  0  0  0  0
  189.6680  176.4240  146.6240 C   0  0  0  0  0  2  0  0  0  0  0  0
  191.4170  177.1720  145.0270 C   0  0  0  0  0  2  0  0  0  0  0  0
  187.3410  178.0810  142.1360 C   0  0  0  0  0  3  0  0  0  0  0  0
  187.9380  178.8420  148.6820 O   0  0  0  0  0  0  0  0  0  0  0  0
  188.5270  177.3740  141.9390 C   0  0  0  0  0  0  0  0  0  0  0  0
  185.8220  178.9980  143.7750 C   0  0  2  0  0  3  0  0  0  0  0  0
  189.3460  177.2170  147.7950 N   0  0  0  0  0  2  0  0  0  0  0  0
  191.4570  176.0240  144.0410 C   0  0  0  0  0  2  0  0  0  0  0  0
  183.3420  178.4180  144.8890 C   0  0  0  0  0  3  0  0  0  0  0  0
  184.6300  179.1440  142.9270 C   0  0  0  0  0  3  0  0  0  0  0  0
  189.0370  178.3440  138.2860 C   0  0  0  0  0  0  0  0  0  0  0  0
  188.5650  179.3040  137.4520 F   0  0  0  0  0  0  0  0  0  0  0  0
  188.8810  177.0360  140.5150 C   0  0  2  0  0  3  0  0  0  0  0  0
  190.1970  177.7460  138.0050 C   0  0  0  0  0  3  0  0  0  0  0  0
  190.3960  176.8720  140.3440 C   0  0  0  0  0  2  0  0  0  0  0  0
  188.2920  178.0040  139.5130 C   0  0  0  0  0  0  0  0  0  0  0  0
  187.1430  178.4870  139.6970 O   0  0  0  0  0  0  0  0  0  0  0  0
  190.7430  176.6460  138.8730 C   0  0  2  0  0  3  0  0  0  0  0  0
  192.9490  177.1890  139.6650 O   0  0  0  0  0  1  0  0  0  0  0  0
  192.2460  176.4920  138.6790 C   0  0  0  0  0  2  0  0  0  0  0  0
  1  4  1  0  0  0  0
  2  5  1  0  0  0  0
  3  1  1  0  0  0  0
  3 20  1  0  0  0  0
  4  2  2  0  0  0  0
  4 11  1  0  0  0  0
  5 12  1  6  0  0  0
  6 21  1  0  0  0  0
  7 18  1  0  0  0  0
  7  2  1  0  0  0  0
  9  5  1  0  0  0  0
  9  8  1  6  0  0  0
 10 16  2  0  0  0  0
 11 14  1  6  0  0  0
 11 13  1  0  0  0  0
 12 10  1  0  0  0  0
 13 19  1  0  0  0  0
 15  7  2  0  0  0  0
 17 15  1  0  0  0  0
 17  1  2  0  0  0  0
 18 22  1  6  0  0  0
 18  9  1  0  0  0  0
 19 10  1  0  0  0  0
 20 14  1  0  0  0  0
 21  8  2  0  0  0  0
 22  6  2  0  0  0  0
 23 28  1  0  0  0  0
 24 23  1  0  0  0  0
 25 17  1  1  0  0  0
 26 23  2  0  0  0  0
 26 30  1  0  0  0  0
 27 25  1  0  0  0  0
 28 29  2  0  0  0  0
 28 25  1  0  0  0  0
 30 32  1  1  0  0  0
 30 27  1  0  0  0  0
 32 31  1  0  0  0  0
M  END
>  <MODEL>
6

>  <REMARK>
 VINA RESULT:     -10.7      2.264      6.128
  Name = 
  2 active torsions:
  status: ('A' for Active; 'I' for Inactive)
    1  A    between atoms: C_15  and  C_26
    2  A    between atoms: C_16  and  C_27
                            x       y       z     vdW  Elec       q    Type
                         _______ _______ _______ _____ _____    ______ ____

>  <TORSDO>
F 2

$$$$
=
 OpenBabel10272413123D

 32 37  0  0  1  0  0  0  0  0999 V2000
  186.6470  178.1520  138.2630 C   0  0  0  0  0  0  0  0  0  0  0  0
  187.9010  178.0890  140.3590 C   0  0  0  0  0  0  0  0  0  0  0  0
  186.5660  178.1210  136.7510 C   0  0  0  0  0  2  0  0  0  0  0  0
  187.8950  177.9820  138.9410 C   0  0  0  0  0  0  0  0  0  0  0  0
  188.8420  177.7540  141.2690 C   0  0  1  0  0  3  0  0  0  0  0  0
  186.1300  177.7430  144.4380 C   0  0  0  0  0  3  0  0  0  0  0  0
  186.7630  178.5100  141.0270 C   0  0  0  0  0  0  0  0  0  0  0  0
  188.3650  177.0400  143.6690 C   0  0  0  0  0  3  0  0  0  0  0  0
  188.3590  178.1450  142.6380 C   0  0  2  0  0  3  0  0  0  0  0  0
  191.1190  177.2050  140.3640 C   0  0  0  0  0  0  0  0  0  0  0  0
  189.1870  177.9860  138.1360 C   0  0  1  0  0  3  0  0  0  0  0  0
  189.9250  176.7270  141.1090 C   0  0  0  0  0  2  0  0  0  0  0  0
  189.9900  176.7060  138.2120 C   0  0  0  0  0  2  0  0  0  0  0  0
  189.0130  178.3970  136.6780 C   0  0  0  0  0  2  0  0  0  0  0  0
  185.5450  178.6710  140.3790 C   0  0  0  0  0  3  0  0  0  0  0  0
  192.0710  177.7540  140.9770 O   0  0  0  0  0  0  0  0  0  0  0  0
  185.4730  178.4770  139.0000 C   0  0  0  0  0  0  0  0  0  0  0  0
  186.9600  178.5480  142.3320 C   0  0  2  0  0  3  0  0  0  0  0  0
  191.1990  176.9940  138.9590 N   0  0  0  0  0  2  0  0  0  0  0  0
  187.8420  177.6440  136.0810 C   0  0  0  0  0  2  0  0  0  0  0  0
  187.3500  176.9010  144.5370 C   0  0  0  0  0  3  0  0  0  0  0  0
  185.9200  178.5210  143.3690 C   0  0  0  0  0  3  0  0  0  0  0  0
  181.7780  177.6150  138.6110 C   0  0  0  0  0  0  0  0  0  0  0  0
  180.9990  176.5250  138.8180 F   0  0  0  0  0  0  0  0  0  0  0  0
  184.1240  178.6800  138.3610 C   0  0  2  0  0  3  0  0  0  0  0  0
  181.2160  178.8260  138.5970 C   0  0  0  0  0  3  0  0  0  0  0  0
  183.4390  179.9400  138.9010 C   0  0  0  0  0  2  0  0  0  0  0  0
  183.2360  177.4600  138.4520 C   0  0  0  0  0  0  0  0  0  0  0  0
  183.7300  176.3060  138.3450 O   0  0  0  0  0  0  0  0  0  0  0  0
  182.0270  180.0650  138.3290 C   0  0  2  0  0  3  0  0  0  0  0  0
  181.0370  182.2000  137.8300 O   0  0  0  0  0  1  0  0  0  0  0  0
  181.3230  181.3050  138.8630 C   0  0  0  0  0  2  0  0  0  0  0  0
  1  4  2  0  0  0  0
  1 17  1  0  0  0  0
  2  7  2  0  0  0  0
  2  5  1  0  0  0  0
  3  1  1  0  0  0  0
  4  2  1  0  0  0  0
  5 12  1  1  0  0  0
  5  9  1  0  0  0  0
  6 21  1  0  0  0  0
  7 18  1  0  0  0  0
  8 21  2  0  0  0  0
  9  8  1  1  0  0  0
 10 16  2  0  0  0  0
 10 12  1  0  0  0  0
 11 14  1  6  0  0  0
 11 13  1  0  0  0  0
 11  4  1  0  0  0  0
 13 19  1  0  0  0  0
 15  7  1  0  0  0  0
 17 15  2  0  0  0  0
 18  9  1  0  0  0  0
 18 22  1  1  0  0  0
 19 10  1  0  0  0  0
 20 14  1  0  0  0  0
 20  3  1  0  0  0  0
 22  6  2  0  0  0  0
 23 24  1  0  0  0  0
 25 28  1  0  0  0  0
 25 27  1  0  0  0  0
 25 17  1  1  0  0  0
 26 23  2  0  0  0  0
 28 23  1  0  0  0  0
 29 28  2  0  0  0  0
 30 26  1  0  0  0  0
 30 32  1  1  0  0  0
 30 27  1  0  0  0  0
 31 32  1  0  0  0  0
M  END
>  <MODEL>
7

>  <REMARK>
 VINA RESULT:     -10.4      3.427      6.077
  Name = 
  2 active torsions:
  status: ('A' for Active; 'I' for Inactive)
    1  A    between atoms: C_15  and  C_26
    2  A    between atoms: C_16  and  C_27
                            x       y       z     vdW  Elec       q    Type
                         _______ _______ _______ _____ _____    ______ ____

>  <TORSDO>
F 2

$$$$
=
 OpenBabel10272413123D

 32 37  0  0  1  0  0  0  0  0999 V2000
  185.7620  178.1860  143.9140 C   0  0  0  0  0  0  0  0  0  0  0  0
  184.6970  178.7300  141.7830 C   0  0  0  0  0  0  0  0  0  0  0  0
  185.7560  178.0830  145.4240 C   0  0  0  0  0  2  0  0  0  0  0  0
  184.5940  178.5930  143.1950 C   0  0  0  0  0  0  0  0  0  0  0  0
  183.7440  178.8620  140.8340 C   0  0  1  0  0  3  0  0  0  0  0  0
  186.3190  177.7600  137.7430 C   0  0  0  0  0  3  0  0  0  0  0  0
  185.9330  178.6330  141.1660 C   0  0  0  0  0  0  0  0  0  0  0  0
  183.9690  178.0750  138.4200 C   0  0  0  0  0  3  0  0  0  0  0  0
  184.4080  179.0410  139.4970 C   0  0  2  0  0  3  0  0  0  0  0  0
  181.4170  179.3310  141.6510 C   0  0  0  0  0  0  0  0  0  0  0  0
  183.3970  179.1360  143.9630 C   0  0  1  0  0  3  0  0  0  0  0  0
  182.3170  178.4020  140.9200 C   0  0  0  0  0  2  0  0  0  0  0  0
  182.1240  178.3340  143.8100 C   0  0  0  0  0  2  0  0  0  0  0  0
  183.6690  179.3920  145.4420 C   0  0  0  0  0  2  0  0  0  0  0  0
  187.0710  178.2320  141.8530 C   0  0  0  0  0  3  0  0  0  0  0  0
  180.8240  180.2560  141.0370 O   0  0  0  0  0  0  0  0  0  0  0  0
  186.9920  177.9890  143.2240 C   0  0  0  0  0  0  0  0  0  0  0  0
  185.8280  178.7880  139.8580 C   0  0  2  0  0  3  0  0  0  0  0  0
  181.1930  179.1390  143.0430 N   0  0  0  0  0  2  0  0  0  0  0  0
  184.3710  178.1900  146.0380 C   0  0  0  0  0  2  0  0  0  0  0  0
  184.8600  177.5330  137.5750 C   0  0  0  0  0  3  0  0  0  0  0  0
  186.7990  178.3400  138.8500 C   0  0  0  0  0  3  0  0  0  0  0  0
  190.1460  175.8550  143.4300 C   0  0  0  0  0  0  0  0  0  0  0  0
  190.5400  174.6410  142.9710 F   0  0  0  0  0  0  0  0  0  0  0  0
  188.2660  177.5700  143.9090 C   0  0  2  0  0  3  0  0  0  0  0  0
  191.0700  176.7650  143.7470 C   0  0  0  0  0  3  0  0  0  0  0  0
  189.3750  178.6080  143.7010 C   0  0  0  0  0  2  0  0  0  0  0  0
  188.7100  176.1740  143.5300 C   0  0  0  0  0  0  0  0  0  0  0  0
  187.8560  175.2660  143.3460 O   0  0  0  0  0  0  0  0  0  0  0  0
  190.6890  178.1100  144.3010 C   0  0  2  0  0  3  0  0  0  0  0  0
  191.3060  180.4270  144.0950 O   0  0  0  0  0  1  0  0  0  0  0  0
  191.8080  179.1230  144.0950 C   0  0  0  0  0  2  0  0  0  0  0  0
  1  3  1  0  0  0  0
  2  4  1  0  0  0  0
  3 20  1  0  0  0  0
  4  1  2  0  0  0  0
  4 11  1  0  0  0  0
  5 12  1  6  0  0  0
  5  2  1  0  0  0  0
  6 22  2  0  0  0  0
  7  2  2  0  0  0  0
  7 15  1  0  0  0  0
  9  8  1  6  0  0  0
  9 18  1  0  0  0  0
  9  5  1  0  0  0  0
 10 19  1  0  0  0  0
 11 13  1  1  0  0  0
 11 14  1  0  0  0  0
 12 10  1  0  0  0  0
 14 20  1  0  0  0  0
 15 17  2  0  0  0  0
 16 10  2  0  0  0  0
 17  1  1  0  0  0  0
 18 22  1  6  0  0  0
 18  7  1  0  0  0  0
 19 13  1  0  0  0  0
 21  6  1  0  0  0  0
 21  8  2  0  0  0  0
 23 28  1  0  0  0  0
 23 26  2  0  0  0  0
 24 23  1  0  0  0  0
 25 17  1  6  0  0  0
 26 30  1  0  0  0  0
 27 25  1  0  0  0  0
 27 30  1  0  0  0  0
 28 25  1  0  0  0  0
 29 28  2  0  0  0  0
 30 32  1  6  0  0  0
 31 32  1  0  0  0  0
M  END
>  <MODEL>
8

>  <REMARK>
 VINA RESULT:     -10.1      3.274      7.113
  Name = 
  2 active torsions:
  status: ('A' for Active; 'I' for Inactive)
    1  A    between atoms: C_15  and  C_26
    2  A    between atoms: C_16  and  C_27
                            x       y       z     vdW  Elec       q    Type
                         _______ _______ _______ _____ _____    ______ ____

>  <TORSDO>
F 2

$$$$
=
 OpenBabel10272413123D

 32 37  0  0  1  0  0  0  0  0999 V2000
  185.7160  178.0740  143.8900 C   0  0  0  0  0  0  0  0  0  0  0  0
  184.5080  178.6910  141.8580 C   0  0  0  0  0  0  0  0  0  0  0  0
  185.8170  177.9290  145.3940 C   0  0  0  0  0  2  0  0  0  0  0  0
  184.5050  178.5160  143.2690 C   0  0  0  0  0  0  0  0  0  0  0  0
  183.4920  178.8620  140.9840 C   0  0  1  0  0  3  0  0  0  0  0  0
  185.8210  177.8110  137.6860 C   0  0  0  0  0  3  0  0  0  0  0  0
  185.6950  178.5940  141.1500 C   0  0  0  0  0  0  0  0  0  0  0  0
  183.5310  178.1390  138.5400 C   0  0  0  0  0  3  0  0  0  0  0  0
  184.0600  179.0680  139.6080 C   0  0  2  0  0  3  0  0  0  0  0  0
  181.2370  179.3390  141.9790 C   0  0  0  0  0  0  0  0  0  0  0  0
  183.3750  179.0540  144.1360 C   0  0  1  0  0  3  0  0  0  0  0  0
  182.0680  178.4190  141.1600 C   0  0  0  0  0  2  0  0  0  0  0  0
  182.0820  178.2730  144.0540 C   0  0  0  0  0  2  0  0  0  0  0  0
  183.7560  179.2640  145.5980 C   0  0  0  0  0  2  0  0  0  0  0  0
  186.8730  178.1590  141.7420 C   0  0  0  0  0  3  0  0  0  0  0  0
  180.6160  180.2880  141.4350 O   0  0  0  0  0  0  0  0  0  0  0  0
  186.8890  177.8790  143.1090 C   0  0  0  0  0  0  0  0  0  0  0  0
  185.4990  178.7870  139.8580 C   0  0  2  0  0  3  0  0  0  0  0  0
  181.1110  179.1110  143.3780 N   0  0  0  0  0  2  0  0  0  0  0  0
  184.4810  178.0370  146.1100 C   0  0  0  0  0  2  0  0  0  0  0  0
  184.3500  177.6090  137.6180 C   0  0  0  0  0  3  0  0  0  0  0  0
  186.3870  178.3530  138.7710 C   0  0  0  0  0  3  0  0  0  0  0  0
  190.5860  178.4200  143.8810 C   0  0  0  0  0  0  0  0  0  0  0  0
  191.6000  179.1470  143.3520 F   0  0  0  0  0  0  0  0  0  0  0  0
  188.2030  177.4240  143.6880 C   0  0  2  0  0  3  0  0  0  0  0  0
  190.6580  178.0230  145.1530 C   0  0  0  0  0  3  0  0  0  0  0  0
  188.2030  177.5320  145.2170 C   0  0  0  0  0  2  0  0  0  0  0  0
  189.3960  178.1140  143.0640 C   0  0  0  0  0  0  0  0  0  0  0  0
  189.3980  178.3880  141.8340 O   0  0  0  0  0  0  0  0  0  0  0  0
  189.5810  177.1780  145.7750 C   0  0  2  0  0  3  0  0  0  0  0  0
  188.3760  176.9190  147.8420 O   0  0  0  0  0  1  0  0  0  0  0  0
  189.6060  177.2910  147.2930 C   0  0  0  0  0  2  0  0  0  0  0  0
  1  3  1  0  0  0  0
  2  4  2  0  0  0  0
  3 20  1  0  0  0  0
  4  1  1  0  0  0  0
  4 11  1  0  0  0  0
  5 12  1  6  0  0  0
  5  2  1  0  0  0  0
  6 22  2  0  0  0  0
  7 15  2  0  0  0  0
  7  2  1  0  0  0  0
  9  8  1  6  0  0  0
  9 18  1  0  0  0  0
  9  5  1  0  0  0  0
 10 19  1  0  0  0  0
 11 13  1  1  0  0  0
 11 14  1  0  0  0  0
 12 10  1  0  0  0  0
 14 20  1  0  0  0  0
 15 17  1  0  0  0  0
 16 10  2  0  0  0  0
 17  1  2  0  0  0  0
 18 22  1  6  0  0  0
 18  7  1  0  0  0  0
 19 13  1  0  0  0  0
 21  6  1  0  0  0  0
 21  8  2  0  0  0  0
 23 26  2  0  0  0  0
 24 23  1  0  0  0  0
 25 17  1  6  0  0  0
 25 27  1  0  0  0  0
 26 30  1  0  0  0  0
 27 30  1  0  0  0  0
 28 25  1  0  0  0  0
 28 23  1  0  0  0  0
 29 28  2  0  0  0  0
 30 32  1  1  0  0  0
 32 31  1  0  0  0  0
M  END
>  <MODEL>
9

>  <REMARK>
 VINA RESULT:      -9.9      3.098      6.947
  Name = 
  2 active torsions:
  status: ('A' for Active; 'I' for Inactive)
    1  A    between atoms: C_15  and  C_26
    2  A    between atoms: C_16  and  C_27
                            x       y       z     vdW  Elec       q    Type
                         _______ _______ _______ _____ _____    ______ ____

>  <TORSDO>
F 2

$$$$
