=
 OpenBabel10262423423D

 34 39  0  0  1  0  0  0  0  0999 V2000
  189.4170  177.3670  147.0710 C   0  0  0  0  0  0  0  0  0  0  0  0
  191.0530  176.6750  145.3560 C   0  0  0  0  0  0  0  0  0  0  0  0
  188.7030  177.3750  144.7020 C   0  0  0  0  0  0  0  0  0  0  0  0
  187.7680  178.0400  142.5440 N   0  0  1  0  0  0  0  0  0  0  0  0
  191.7090  176.9450  147.6410 C   0  0  0  0  0  3  0  0  0  0  0  0
  191.9810  176.6180  146.3500 N   0  0  0  0  0  0  0  0  0  0  0  0
  190.0850  178.0370  142.5980 C   0  0  0  0  0  2  0  0  0  0  0  0
  189.7470  177.1450  145.6380 C   0  0  0  0  0  0  0  0  0  0  0  0
  188.1490  178.0280  141.1450 C   0  0  0  0  0  2  0  0  0  0  0  0
  190.4230  177.3060  148.0280 C   0  0  0  0  0  3  0  0  0  0  0  0
  187.3810  177.5150  145.1990 C   0  0  0  0  0  0  0  0  0  0  0  0
  188.1670  177.5900  147.4450 O   0  0  0  0  0  0  0  0  0  0  0  0
  191.3650  176.1920  144.2000 N   0  0  0  0  0  2  0  0  0  0  0  0
  186.5590  177.2810  142.7990 C   0  0  0  0  0  2  0  0  0  0  0  0
  186.1720  177.5080  144.2720 C   0  0  2  0  0  3  0  0  0  0  0  0
  189.6640  178.2320  141.1460 C   0  0  2  0  0  3  0  0  0  0  0  0
  188.8720  177.3560  143.1910 C   0  0  1  0  0  3  0  0  0  0  0  0
  187.1670  177.6300  146.5760 C   0  0  0  0  0  3  0  0  0  0  0  0
  182.9730  179.0560  144.2860 C   0  0  0  0  0  0  0  0  0  0  0  0
  185.2910  178.7530  144.4740 C   0  0  2  0  0  3  0  0  0  0  0  0
  183.4610  179.6030  143.2290 N   0  0  0  0  0  0  0  0  0  0  0  0
  183.9790  178.4110  145.1670 C   0  0  0  0  0  2  0  0  0  0  0  0
  184.9010  179.4440  143.1660 C   0  0  0  0  0  2  0  0  0  0  0  0
  181.6040  179.0900  144.5510 O   0  0  0  0  0  0  0  0  0  0  0  0
  180.6390  178.7790  143.5580 C   0  0  0  0  0  1  0  0  0  0  0  0
  190.3510  177.2190  140.2370 C   0  0  0  0  0  2  0  0  0  0  0  0
  190.3620  177.6760  138.8860 O   0  0  0  0  0  0  0  0  0  0  0  0
  189.0430  179.6640  137.6890 O   0  0  0  0  0  0  0  0  0  0  0  0
  189.3270  177.4250  138.0020 N   0  0  0  0  0  0  0  0  0  0  0  0
  188.6820  178.4850  137.4300 C   0  0  0  0  0  0  0  0  0  0  0  0
  187.2200  176.9680  136.2560 C   0  0  0  0  0  3  0  0  0  0  0  0
  187.8900  175.8930  136.8360 C   0  0  0  0  0  3  0  0  0  0  0  0
  188.9450  176.1430  137.7160 C   0  0  0  0  0  3  0  0  0  0  0  0
  187.6170  178.2730  136.5500 C   0  0  0  0  0  3  0  0  0  0  0  0
  1 12  1  0  0  0  0
  1 10  2  0  0  0  0
  2  8  1  0  0  0  0
  2  6  1  0  0  0  0
  3 11  1  0  0  0  0
  3  8  2  0  0  0  0
  4  9  1  6  0  0  0
  4 14  1  0  0  0  0
  4 17  1  0  0  0  0
  5 10  1  0  0  0  0
  6  5  2  0  0  0  0
  8  1  1  0  0  0  0
  9 16  1  0  0  0  0
 11 18  2  0  0  0  0
 13  2  2  0  0  0  0
 15 14  1  6  0  0  0
 15 20  1  0  0  0  0
 15 11  1  0  0  0  0
 16 26  1  6  0  0  0
 16  7  1  0  0  0  0
 17  7  1  1  0  0  0
 17  3  1  0  0  0  0
 18 12  1  0  0  0  0
 19 24  1  0  0  0  0
 19 22  1  0  0  0  0
 20 23  1  6  0  0  0
 20 22  1  0  0  0  0
 21 19  2  0  0  0  0
 23 21  1  0  0  0  0
 25 24  1  0  0  0  0
 27 26  1  0  0  0  0
 29 27  1  0  0  0  0
 30 28  2  0  0  0  0
 30 29  1  0  0  0  0
 31 34  2  0  0  0  0
 31 32  1  0  0  0  0
 32 33  2  0  0  0  0
 33 29  1  0  0  0  0
 34 30  1  0  0  0  0
M  END
>  <MODEL>
1

>  <REMARK>
 VINA RESULT:      -9.3      0.000      0.000
  Name = 
  5 active torsions:
  status: ('A' for Active; 'I' for Inactive)
    1  A    between atoms: O_3  and  N_13
    2  A    between atoms: O_3  and  C_17
    3  A    between atoms: O_7  and  C_8
    4  A    between atoms: C_12  and  C_28
    5  A    between atoms: C_17  and  C_29
                            x       y       z     vdW  Elec       q    Type
                         _______ _______ _______ _____ _____    ______ ____

>  <TORSDO>
F 5

$$$$
=
 OpenBabel10262423423D

 34 39  0  0  1  0  0  0  0  0999 V2000
  191.2740  176.5900  145.0920 C   0  0  2  0  0  3  0  0  0  0  0  0
  189.3830  177.5240  146.3780 C   0  0  0  0  0  0  0  0  0  0  0  0
  189.3330  177.4800  143.8410 C   0  0  0  0  0  0  0  0  0  0  0  0
  187.4800  177.7280  142.2670 N   0  0  1  0  0  0  0  0  0  0  0  0
  191.1910  176.4130  147.4840 C   0  0  0  0  0  3  0  0  0  0  0  0
  190.0150  177.0950  147.5040 N   0  0  0  0  0  0  0  0  0  0  0  0
  186.8070  177.3270  144.4480 C   0  0  0  0  0  2  0  0  0  0  0  0
  189.9230  177.2130  145.1060 C   0  0  0  0  0  0  0  0  0  0  0  0
  186.0890  178.1360  142.2830 C   0  0  0  0  0  2  0  0  0  0  0  0
  191.8480  176.1650  146.2830 C   0  0  0  0  0  3  0  0  0  0  0  0
  190.1620  177.4080  142.6910 C   0  0  0  0  0  0  0  0  0  0  0  0
  191.9450  176.4690  143.9580 O   0  0  0  0  0  0  0  0  0  0  0  0
  188.3600  178.3010  146.5080 N   0  0  0  0  0  1  0  0  0  0  0  0
  188.2920  178.5520  141.3920 C   0  0  0  0  0  2  0  0  0  0  0  0
  189.6960  177.9210  141.3340 C   0  0  2  0  0  3  0  0  0  0  0  0
  185.5630  177.6920  143.6480 C   0  0  2  0  0  3  0  0  0  0  0  0
  187.9080  177.9670  143.6330 C   0  0  1  0  0  3  0  0  0  0  0  0
  191.4540  176.8840  142.8000 C   0  0  0  0  0  3  0  0  0  0  0  0
  190.9190  176.8640  138.1690 C   0  0  0  0  0  0  0  0  0  0  0  0
  189.8230  176.8450  140.2420 C   0  0  2  0  0  3  0  0  0  0  0  0
  189.6710  176.9750  137.8800 N   0  0  0  0  0  0  0  0  0  0  0  0
  191.2140  176.8280  139.6240 C   0  0  0  0  0  2  0  0  0  0  0  0
  188.8530  177.0400  139.0750 C   0  0  0  0  0  2  0  0  0  0  0  0
  191.8880  176.7840  137.1690 O   0  0  0  0  0  0  0  0  0  0  0  0
  193.1040  176.0770  137.3550 C   0  0  0  0  0  1  0  0  0  0  0  0
  184.7900  178.8180  144.3260 C   0  0  0  0  0  2  0  0  0  0  0  0
  183.9200  179.4660  143.3990 O   0  0  0  0  0  0  0  0  0  0  0  0
  183.0690  178.9100  140.9310 O   0  0  0  0  0  0  0  0  0  0  0  0
  182.6250  179.0360  143.1610 N   0  0  0  0  0  0  0  0  0  0  0  0
  182.2450  178.7790  141.8750 C   0  0  0  0  0  0  0  0  0  0  0  0
  180.0280  178.2130  142.6370 C   0  0  0  0  0  3  0  0  0  0  0  0
  180.4280  178.4680  143.9470 C   0  0  0  0  0  3  0  0  0  0  0  0
  181.7380  178.8860  144.1910 C   0  0  0  0  0  3  0  0  0  0  0  0
  180.9410  178.3660  141.5920 C   0  0  0  0  0  3  0  0  0  0  0  0
  1  8  1  0  0  0  0
  1 10  1  1  0  0  0
  2 13  1  0  0  0  0
  2  6  2  0  0  0  0
  3  8  2  0  0  0  0
  4 14  1  6  0  0  0
  4  9  1  0  0  0  0
  4 17  1  0  0  0  0
  5  6  1  0  0  0  0
  8  2  1  0  0  0  0
  9 16  1  0  0  0  0
 10  5  2  0  0  0  0
 11 18  2  0  0  0  0
 11  3  1  0  0  0  0
 12  1  1  0  0  0  0
 15 14  1  1  0  0  0
 15 11  1  0  0  0  0
 16 26  1  1  0  0  0
 16  7  1  0  0  0  0
 17  3  1  0  0  0  0
 17  7  1  1  0  0  0
 18 12  1  0  0  0  0
 19 22  1  0  0  0  0
 20 23  1  6  0  0  0
 20 15  1  0  0  0  0
 21 19  2  0  0  0  0
 21 23  1  0  0  0  0
 22 20  1  0  0  0  0
 24 25  1  0  0  0  0
 24 19  1  0  0  0  0
 27 26  1  0  0  0  0
 28 30  2  0  0  0  0
 29 27  1  0  0  0  0
 29 33  1  0  0  0  0
 30 29  1  0  0  0  0
 31 32  1  0  0  0  0
 32 33  2  0  0  0  0
 34 30  1  0  0  0  0
 34 31  2  0  0  0  0
M  END
>  <MODEL>
2

>  <REMARK>
 VINA RESULT:      -9.2      1.968      6.819
  Name = 
  5 active torsions:
  status: ('A' for Active; 'I' for Inactive)
    1  A    between atoms: O_3  and  N_13
    2  A    between atoms: O_3  and  C_17
    3  A    between atoms: O_7  and  C_8
    4  A    between atoms: C_12  and  C_28
    5  A    between atoms: C_17  and  C_29
                            x       y       z     vdW  Elec       q    Type
                         _______ _______ _______ _____ _____    ______ ____

>  <TORSDO>
F 5

$$$$
=
 OpenBabel10262423423D

 34 39  0  0  1  0  0  0  0  0999 V2000
  185.0720  178.2950  144.1580 C   0  0  0  0  0  0  0  0  0  0  0  0
  185.1050  178.9750  141.7840 C   0  0  0  0  0  0  0  0  0  0  0  0
  187.2380  178.2660  142.9620 C   0  0  0  0  0  0  0  0  0  0  0  0
  189.4110  177.5820  142.0750 N   0  0  1  0  0  0  0  0  0  0  0  0
  183.0370  178.7250  142.9620 C   0  0  0  0  0  3  0  0  0  0  0  0
  183.7470  179.0420  141.8460 N   0  0  0  0  0  0  0  0  0  0  0  0
  187.7160  177.5890  140.4950 C   0  0  0  0  0  2  0  0  0  0  0  0
  185.8390  178.5060  142.9010 C   0  0  0  0  0  0  0  0  0  0  0  0
  190.1160  177.5830  140.8090 C   0  0  0  0  0  2  0  0  0  0  0  0
  183.6850  178.3650  144.1390 C   0  0  0  0  0  3  0  0  0  0  0  0
  187.8360  178.1280  144.2420 C   0  0  0  0  0  0  0  0  0  0  0  0
  185.7040  178.0720  145.3000 O   0  0  0  0  0  0  0  0  0  0  0  0
  185.6940  179.4490  140.7380 N   0  0  0  0  0  2  0  0  0  0  0  0
  190.1030  178.3420  143.0990 C   0  0  0  0  0  2  0  0  0  0  0  0
  189.3490  178.1260  144.4250 C   0  0  2  0  0  3  0  0  0  0  0  0
  189.0310  177.3810  139.7520 C   0  0  2  0  0  3  0  0  0  0  0  0
  188.1740  178.2730  141.7640 C   0  0  1  0  0  3  0  0  0  0  0  0
  187.0250  178.0240  145.3780 C   0  0  0  0  0  3  0  0  0  0  0  0
  191.4080  176.6330  146.9070 C   0  0  0  0  0  0  0  0  0  0  0  0
  189.8290  176.8810  145.1910 C   0  0  2  0  0  3  0  0  0  0  0  0
  191.9950  176.1830  145.8550 N   0  0  0  0  0  0  0  0  0  0  0  0
  190.0460  177.1760  146.6690 C   0  0  0  0  0  2  0  0  0  0  0  0
  191.1590  176.3250  144.6790 C   0  0  0  0  0  2  0  0  0  0  0  0
  192.0310  176.5970  148.1550 O   0  0  0  0  0  0  0  0  0  0  0  0
  193.0840  175.6900  148.4430 C   0  0  0  0  0  1  0  0  0  0  0  0
  189.1810  178.3880  138.6170 C   0  0  0  0  0  2  0  0  0  0  0  0
  187.9130  178.6870  138.0340 O   0  0  0  0  0  0  0  0  0  0  0  0
  185.4050  177.8020  137.8090 O   0  0  0  0  0  0  0  0  0  0  0  0
  187.4620  178.0830  136.8730 N   0  0  0  0  0  0  0  0  0  0  0  0
  186.1710  177.6410  136.8220 C   0  0  0  0  0  0  0  0  0  0  0  0
  186.5290  176.8320  134.5790 C   0  0  0  0  0  3  0  0  0  0  0  0
  187.8420  177.2960  134.6350 C   0  0  0  0  0  3  0  0  0  0  0  0
  188.2950  177.9200  135.8000 C   0  0  0  0  0  3  0  0  0  0  0  0
  185.6850  177.0060  135.6760 C   0  0  0  0  0  3  0  0  0  0  0  0
  1 12  1  0  0  0  0
  2  6  1  0  0  0  0
  2  8  1  0  0  0  0
  3 11  1  0  0  0  0
  4  9  1  6  0  0  0
  4 14  1  0  0  0  0
  5 10  1  0  0  0  0
  6  5  2  0  0  0  0
  8  3  2  0  0  0  0
  8  1  1  0  0  0  0
 10  1  2  0  0  0  0
 11 15  1  0  0  0  0
 11 18  2  0  0  0  0
 12 18  1  0  0  0  0
 13  2  2  0  0  0  0
 15 14  1  6  0  0  0
 15 20  1  0  0  0  0
 16 26  1  6  0  0  0
 16  7  1  0  0  0  0
 16  9  1  0  0  0  0
 17  7  1  6  0  0  0
 17  4  1  0  0  0  0
 17  3  1  0  0  0  0
 19 24  1  0  0  0  0
 20 23  1  6  0  0  0
 20 22  1  0  0  0  0
 21 19  2  0  0  0  0
 22 19  1  0  0  0  0
 23 21  1  0  0  0  0
 24 25  1  0  0  0  0
 27 26  1  0  0  0  0
 29 27  1  0  0  0  0
 30 29  1  0  0  0  0
 30 28  2  0  0  0  0
 31 32  1  0  0  0  0
 31 34  2  0  0  0  0
 32 33  2  0  0  0  0
 33 29  1  0  0  0  0
 34 30  1  0  0  0  0
M  END
>  <MODEL>
3

>  <REMARK>
 VINA RESULT:      -9.1      1.739      5.838
  Name = 
  5 active torsions:
  status: ('A' for Active; 'I' for Inactive)
    1  A    between atoms: O_3  and  N_13
    2  A    between atoms: O_3  and  C_17
    3  A    between atoms: O_7  and  C_8
    4  A    between atoms: C_12  and  C_28
    5  A    between atoms: C_17  and  C_29
                            x       y       z     vdW  Elec       q    Type
                         _______ _______ _______ _____ _____    ______ ____

>  <TORSDO>
F 5

$$$$
=
 OpenBabel10262423423D

 34 39  0  0  1  0  0  0  0  0999 V2000
  188.9830  177.9420  147.6050 C   0  0  0  0  0  0  0  0  0  0  0  0
  190.8410  177.0700  146.2310 C   0  0  0  0  0  0  0  0  0  0  0  0
  188.5880  177.5930  145.1880 C   0  0  0  0  0  0  0  0  0  0  0  0
  187.9360  177.9160  142.8540 N   0  0  1  0  0  0  0  0  0  0  0  0
  191.1870  177.6800  148.5190 C   0  0  0  0  0  3  0  0  0  0  0  0
  191.6310  177.1840  147.3340 N   0  0  0  0  0  0  0  0  0  0  0  0
  190.2250  177.9980  143.2050 C   0  0  0  0  0  2  0  0  0  0  0  0
  189.5030  177.5310  146.2730 C   0  0  0  0  0  0  0  0  0  0  0  0
  188.4980  177.7210  141.5320 C   0  0  0  0  0  2  0  0  0  0  0  0
  189.8550  178.0490  148.6820 C   0  0  0  0  0  3  0  0  0  0  0  0
  187.2110  177.7570  145.4850 C   0  0  0  0  0  0  0  0  0  0  0  0
  187.6920  178.1740  147.7790 O   0  0  0  0  0  0  0  0  0  0  0  0
  191.3090  176.4400  145.2060 N   0  0  0  0  0  2  0  0  0  0  0  0
  186.7150  177.1610  143.0580 C   0  0  0  0  0  2  0  0  0  0  0  0
  186.1340  177.5800  144.4220 C   0  0  2  0  0  3  0  0  0  0  0  0
  189.9960  177.9730  141.6980 C   0  0  2  0  0  3  0  0  0  0  0  0
  188.9550  177.3670  143.7290 C   0  0  1  0  0  3  0  0  0  0  0  0
  186.8150  178.0580  146.7930 C   0  0  0  0  0  3  0  0  0  0  0  0
  182.9220  179.0020  143.8760 C   0  0  0  0  0  0  0  0  0  0  0  0
  185.2160  178.8110  144.3280 C   0  0  2  0  0  3  0  0  0  0  0  0
  183.5020  179.3810  142.7930 N   0  0  0  0  0  0  0  0  0  0  0  0
  183.8490  178.5460  144.9430 C   0  0  0  0  0  2  0  0  0  0  0  0
  184.9430  179.2620  142.8920 C   0  0  0  0  0  2  0  0  0  0  0  0
  181.5340  179.0320  144.0030 O   0  0  0  0  0  0  0  0  0  0  0  0
  180.6980  179.5630  142.9860 C   0  0  0  0  0  1  0  0  0  0  0  0
  190.8120  176.8650  141.0410 C   0  0  0  0  0  2  0  0  0  0  0  0
  191.6540  177.3960  140.0190 O   0  0  0  0  0  0  0  0  0  0  0  0
  193.9210  176.5050  138.9260 O   0  0  0  0  0  0  0  0  0  0  0  0
  191.6830  176.8850  138.7320 N   0  0  0  0  0  0  0  0  0  0  0  0
  192.8760  176.4550  138.2240 C   0  0  0  0  0  0  0  0  0  0  0  0
  191.7940  175.8910  136.1440 C   0  0  0  0  0  3  0  0  0  0  0  0
  190.5790  176.3220  136.6750 C   0  0  0  0  0  3  0  0  0  0  0  0
  190.5450  176.8230  137.9780 C   0  0  0  0  0  3  0  0  0  0  0  0
  192.9510  175.9540  136.9220 C   0  0  0  0  0  3  0  0  0  0  0  0
  1 12  1  0  0  0  0
  1 10  2  0  0  0  0
  2  8  1  0  0  0  0
  2  6  1  0  0  0  0
  3 11  1  0  0  0  0
  3  8  2  0  0  0  0
  4  9  1  6  0  0  0
  4 14  1  0  0  0  0
  4 17  1  0  0  0  0
  5 10  1  0  0  0  0
  6  5  2  0  0  0  0
  8  1  1  0  0  0  0
  9 16  1  0  0  0  0
 11 18  2  0  0  0  0
 13  2  2  0  0  0  0
 15 14  1  6  0  0  0
 15 11  1  0  0  0  0
 16 26  1  6  0  0  0
 16  7  1  0  0  0  0
 17  7  1  6  0  0  0
 17  3  1  0  0  0  0
 18 12  1  0  0  0  0
 19 24  1  0  0  0  0
 19 22  1  0  0  0  0
 20 23  1  6  0  0  0
 20 15  1  0  0  0  0
 20 22  1  0  0  0  0
 21 23  1  0  0  0  0
 21 19  2  0  0  0  0
 25 24  1  0  0  0  0
 27 26  1  0  0  0  0
 29 27  1  0  0  0  0
 30 29  1  0  0  0  0
 30 28  2  0  0  0  0
 31 32  1  0  0  0  0
 31 34  2  0  0  0  0
 32 33  2  0  0  0  0
 33 29  1  0  0  0  0
 34 30  1  0  0  0  0
M  END
>  <MODEL>
4

>  <REMARK>
 VINA RESULT:      -9.1      1.553      2.084
  Name = 
  5 active torsions:
  status: ('A' for Active; 'I' for Inactive)
    1  A    between atoms: O_3  and  N_13
    2  A    between atoms: O_3  and  C_17
    3  A    between atoms: O_7  and  C_8
    4  A    between atoms: C_12  and  C_28
    5  A    between atoms: C_17  and  C_29
                            x       y       z     vdW  Elec       q    Type
                         _______ _______ _______ _____ _____    ______ ____

>  <TORSDO>
F 5

$$$$
=
 OpenBabel10262423423D

 34 39  0  0  1  0  0  0  0  0999 V2000
  189.2750  178.1240  139.0490 C   0  0  0  0  0  0  0  0  0  0  0  0
  186.8350  178.4130  138.7980 C   0  0  0  0  0  0  0  0  0  0  0  0
  187.8550  177.8960  141.0630 C   0  0  0  0  0  0  0  0  0  0  0  0
  186.9470  178.1190  143.3210 N   0  0  1  0  0  0  0  0  0  0  0  0
  188.3190  178.8580  136.9740 C   0  0  0  0  0  3  0  0  0  0  0  0
  187.0710  178.7710  137.5060 N   0  0  0  0  0  0  0  0  0  0  0  0
  185.7310  179.2550  141.7090 C   0  0  0  0  0  2  0  0  0  0  0  0
  187.9230  178.1640  139.6700 C   0  0  0  0  0  0  0  0  0  0  0  0
  185.6690  178.3650  143.9590 C   0  0  0  0  0  2  0  0  0  0  0  0
  189.4380  178.5190  137.7280 C   0  0  0  0  0  3  0  0  0  0  0  0
  189.0000  177.3420  141.6920 C   0  0  0  0  0  0  0  0  0  0  0  0
  190.3160  177.6840  139.7380 O   0  0  0  0  0  0  0  0  0  0  0  0
  185.6140  178.2040  139.1620 N   0  0  0  0  0  2  0  0  0  0  0  0
  187.5310  176.8510  143.7150 C   0  0  0  0  0  2  0  0  0  0  0  0
  188.9470  176.7860  143.1100 C   0  0  2  0  0  3  0  0  0  0  0  0
  184.9190  179.2880  142.9980 C   0  0  2  0  0  3  0  0  0  0  0  0
  186.6030  178.0370  141.9140 C   0  0  1  0  0  3  0  0  0  0  0  0
  190.2090  177.2690  140.9910 C   0  0  0  0  0  3  0  0  0  0  0  0
  191.3380  176.5160  145.7250 C   0  0  0  0  0  0  0  0  0  0  0  0
  190.0140  177.4240  144.0140 C   0  0  2  0  0  3  0  0  0  0  0  0
  190.4420  177.2060  146.3360 N   0  0  0  0  0  0  0  0  0  0  0  0
  191.1910  176.4860  144.2470 C   0  0  0  0  0  2  0  0  0  0  0  0
  189.4960  177.7910  145.4060 C   0  0  0  0  0  2  0  0  0  0  0  0
  192.3510  175.8630  146.4260 O   0  0  0  0  0  0  0  0  0  0  0  0
  192.3570  175.7880  147.8430 C   0  0  0  0  0  1  0  0  0  0  0  0
  183.4980  178.7910  142.7610 C   0  0  0  0  0  2  0  0  0  0  0  0
  183.1420  178.9120  141.3850 O   0  0  0  0  0  0  0  0  0  0  0  0
  180.5400  179.4930  141.2500 O   0  0  0  0  0  0  0  0  0  0  0  0
  182.2440  178.0600  140.7660 N   0  0  0  0  0  0  0  0  0  0  0  0
  180.9230  178.4060  140.7390 C   0  0  0  0  0  0  0  0  0  0  0  0
  180.4040  176.3610  139.5710 C   0  0  0  0  0  3  0  0  0  0  0  0
  181.7550  176.0210  139.5940 C   0  0  0  0  0  3  0  0  0  0  0  0
  182.6650  176.8870  140.2030 C   0  0  0  0  0  3  0  0  0  0  0  0
  179.9820  177.5620  140.1430 C   0  0  0  0  0  3  0  0  0  0  0  0
  1  8  1  0  0  0  0
  1 12  1  0  0  0  0
  2 13  2  0  0  0  0
  2  8  1  0  0  0  0
  3 11  1  0  0  0  0
  3 17  1  0  0  0  0
  4 14  1  1  0  0  0
  4  9  1  0  0  0  0
  5  6  2  0  0  0  0
  5 10  1  0  0  0  0
  6  2  1  0  0  0  0
  7 16  1  0  0  0  0
  8  3  2  0  0  0  0
 10  1  2  0  0  0  0
 11 15  1  0  0  0  0
 12 18  1  0  0  0  0
 15 14  1  1  0  0  0
 15 20  1  0  0  0  0
 16 26  1  6  0  0  0
 16  9  1  0  0  0  0
 17  7  1  6  0  0  0
 17  4  1  0  0  0  0
 18 11  2  0  0  0  0
 19 21  2  0  0  0  0
 19 24  1  0  0  0  0
 20 22  1  1  0  0  0
 20 23  1  0  0  0  0
 22 19  1  0  0  0  0
 23 21  1  0  0  0  0
 24 25  1  0  0  0  0
 27 26  1  0  0  0  0
 29 27  1  0  0  0  0
 30 29  1  0  0  0  0
 30 28  2  0  0  0  0
 31 32  1  0  0  0  0
 31 34  2  0  0  0  0
 32 33  2  0  0  0  0
 33 29  1  0  0  0  0
 34 30  1  0  0  0  0
M  END
>  <MODEL>
5

>  <REMARK>
 VINA RESULT:      -9.1      2.427      7.455
  Name = 
  5 active torsions:
  status: ('A' for Active; 'I' for Inactive)
    1  A    between atoms: O_3  and  N_13
    2  A    between atoms: O_3  and  C_17
    3  A    between atoms: O_7  and  C_8
    4  A    between atoms: C_12  and  C_28
    5  A    between atoms: C_17  and  C_29
                            x       y       z     vdW  Elec       q    Type
                         _______ _______ _______ _____ _____    ______ ____

>  <TORSDO>
F 5

$$$$
=
 OpenBabel10262423423D

 34 39  0  0  1  0  0  0  0  0999 V2000
  185.0880  178.3340  144.3330 C   0  0  0  0  0  0  0  0  0  0  0  0
  185.1310  178.9510  141.9410 C   0  0  0  0  0  0  0  0  0  0  0  0
  187.2580  178.2660  143.1440 C   0  0  0  0  0  0  0  0  0  0  0  0
  189.4300  177.5520  142.2830 N   0  0  1  0  0  0  0  0  0  0  0  0
  183.0580  178.7390  143.1180 C   0  0  0  0  0  3  0  0  0  0  0  0
  183.7730  179.0230  141.9970 N   0  0  0  0  0  0  0  0  0  0  0  0
  187.7410  177.5230  140.6970 C   0  0  0  0  0  2  0  0  0  0  0  0
  185.8590  178.5090  143.0730 C   0  0  0  0  0  0  0  0  0  0  0  0
  190.1400  177.5170  141.0190 C   0  0  0  0  0  2  0  0  0  0  0  0
  183.7010  178.4080  144.3070 C   0  0  0  0  0  3  0  0  0  0  0  0
  187.8510  178.1610  144.4290 C   0  0  0  0  0  0  0  0  0  0  0  0
  185.7150  178.1400  145.4820 O   0  0  0  0  0  0  0  0  0  0  0  0
  185.7240  179.3940  140.8840 N   0  0  0  0  0  2  0  0  0  0  0  0
  190.1220  178.3360  143.2880 C   0  0  0  0  0  2  0  0  0  0  0  0
  189.3630  178.1580  144.6170 C   0  0  2  0  0  3  0  0  0  0  0  0
  189.0570  177.2900  139.9640 C   0  0  2  0  0  3  0  0  0  0  0  0
  188.1970  178.2380  141.9490 C   0  0  1  0  0  3  0  0  0  0  0  0
  187.0360  178.0890  145.5650 C   0  0  0  0  0  3  0  0  0  0  0  0
  191.5050  176.7010  147.0500 C   0  0  0  0  0  0  0  0  0  0  0  0
  189.8370  176.9330  145.4170 C   0  0  2  0  0  3  0  0  0  0  0  0
  192.0080  176.1740  145.9900 N   0  0  0  0  0  0  0  0  0  0  0  0
  190.1540  177.2900  146.8630 C   0  0  0  0  0  2  0  0  0  0  0  0
  191.1100  176.2940  144.8590 C   0  0  0  0  0  2  0  0  0  0  0  0
  192.1990  176.6980  148.2590 O   0  0  0  0  0  0  0  0  0  0  0  0
  193.0650  175.6360  148.6260 C   0  0  0  0  0  1  0  0  0  0  0  0
  189.2130  178.2670  138.8030 C   0  0  0  0  0  2  0  0  0  0  0  0
  189.3530  177.5660  137.5680 O   0  0  0  0  0  0  0  0  0  0  0  0
  188.3570  175.1760  136.9200 O   0  0  0  0  0  0  0  0  0  0  0  0
  190.1710  176.4590  137.4240 N   0  0  0  0  0  0  0  0  0  0  0  0
  189.6010  175.2600  137.1020 C   0  0  0  0  0  0  0  0  0  0  0  0
  191.7690  174.2060  137.1640 C   0  0  0  0  0  3  0  0  0  0  0  0
  192.3430  175.4350  137.4820 C   0  0  0  0  0  3  0  0  0  0  0  0
  191.5220  176.5570  137.6130 C   0  0  0  0  0  3  0  0  0  0  0  0
  190.3910  174.1150  136.9700 C   0  0  0  0  0  3  0  0  0  0  0  0
  1 12  1  0  0  0  0
  2  6  1  0  0  0  0
  2  8  1  0  0  0  0
  3 11  1  0  0  0  0
  4  9  1  6  0  0  0
  4 14  1  0  0  0  0
  5 10  1  0  0  0  0
  6  5  2  0  0  0  0
  8  3  2  0  0  0  0
  8  1  1  0  0  0  0
 10  1  2  0  0  0  0
 11 15  1  0  0  0  0
 11 18  2  0  0  0  0
 12 18  1  0  0  0  0
 13  2  2  0  0  0  0
 15 14  1  6  0  0  0
 15 20  1  0  0  0  0
 16 26  1  6  0  0  0
 16  7  1  0  0  0  0
 16  9  1  0  0  0  0
 17  7  1  6  0  0  0
 17  4  1  0  0  0  0
 17  3  1  0  0  0  0
 19 24  1  0  0  0  0
 20 23  1  6  0  0  0
 20 22  1  0  0  0  0
 21 19  2  0  0  0  0
 22 19  1  0  0  0  0
 23 21  1  0  0  0  0
 24 25  1  0  0  0  0
 27 26  1  0  0  0  0
 28 30  2  0  0  0  0
 29 27  1  0  0  0  0
 29 33  1  0  0  0  0
 30 29  1  0  0  0  0
 31 32  1  0  0  0  0
 32 33  2  0  0  0  0
 34 30  1  0  0  0  0
 34 31  2  0  0  0  0
M  END
>  <MODEL>
6

>  <REMARK>
 VINA RESULT:      -8.9      1.905      5.974
  Name = 
  5 active torsions:
  status: ('A' for Active; 'I' for Inactive)
    1  A    between atoms: O_3  and  N_13
    2  A    between atoms: O_3  and  C_17
    3  A    between atoms: O_7  and  C_8
    4  A    between atoms: C_12  and  C_28
    5  A    between atoms: C_17  and  C_29
                            x       y       z     vdW  Elec       q    Type
                         _______ _______ _______ _____ _____    ______ ____

>  <TORSDO>
F 5

$$$$
=
 OpenBabel10262423423D

 34 39  0  0  1  0  0  0  0  0999 V2000
  186.1410  178.0190  145.4050 C   0  0  0  0  0  0  0  0  0  0  0  0
  186.2830  178.4940  142.9850 C   0  0  0  0  0  0  0  0  0  0  0  0
  188.3390  177.7830  144.2920 C   0  0  0  0  0  0  0  0  0  0  0  0
  190.4990  176.9210  143.5410 N   0  0  1  0  0  0  0  0  0  0  0  0
  184.1690  178.4460  144.1060 C   0  0  0  0  0  3  0  0  0  0  0  0
  184.9290  178.6320  142.9940 N   0  0  0  0  0  0  0  0  0  0  0  0
  188.8560  176.8770  141.9070 C   0  0  0  0  0  2  0  0  0  0  0  0
  186.9560  178.0850  144.1620 C   0  0  0  0  0  0  0  0  0  0  0  0
  191.2420  176.7800  142.3040 C   0  0  0  0  0  2  0  0  0  0  0  0
  184.7610  178.1560  145.3310 C   0  0  0  0  0  3  0  0  0  0  0  0
  188.8880  177.7250  145.5990 C   0  0  0  0  0  0  0  0  0  0  0  0
  186.7250  177.8630  146.5820 O   0  0  0  0  0  0  0  0  0  0  0  0
  186.9270  178.8480  141.9240 N   0  0  0  0  0  2  0  0  0  0  0  0
  191.1980  177.7290  144.5220 C   0  0  0  0  0  2  0  0  0  0  0  0
  190.3930  177.6630  145.8340 C   0  0  2  0  0  3  0  0  0  0  0  0
  190.1800  176.5430  141.2300 C   0  0  2  0  0  3  0  0  0  0  0  0
  189.3090  177.6420  143.1300 C   0  0  1  0  0  3  0  0  0  0  0  0
  188.0390  177.7570  146.7100 C   0  0  0  0  0  3  0  0  0  0  0  0
  192.6050  176.1350  148.1570 C   0  0  0  0  0  0  0  0  0  0  0  0
  190.7840  176.4660  146.7170 C   0  0  2  0  0  3  0  0  0  0  0  0
  192.8770  175.4270  147.1180 N   0  0  0  0  0  0  0  0  0  0  0  0
  191.3440  176.9130  148.0600 C   0  0  0  0  0  2  0  0  0  0  0  0
  191.8610  175.5750  146.0950 C   0  0  0  0  0  2  0  0  0  0  0  0
  193.4490  176.1430  149.2680 O   0  0  0  0  0  0  0  0  0  0  0  0
  193.6040  177.2920  150.0850 C   0  0  0  0  0  1  0  0  0  0  0  0
  190.4170  177.4420  140.0220 C   0  0  0  0  0  2  0  0  0  0  0  0
  189.1850  177.7540  139.3740 O   0  0  0  0  0  0  0  0  0  0  0  0
  188.7080  179.5480  137.4550 O   0  0  0  0  0  0  0  0  0  0  0  0
  188.9010  177.3640  138.0760 N   0  0  0  0  0  0  0  0  0  0  0  0
  188.6540  178.3290  137.1410 C   0  0  0  0  0  0  0  0  0  0  0  0
  188.2880  176.6260  135.4730 C   0  0  0  0  0  3  0  0  0  0  0  0
  188.5510  175.6490  136.4320 C   0  0  0  0  0  3  0  0  0  0  0  0
  188.8540  176.0400  137.7380 C   0  0  0  0  0  3  0  0  0  0  0  0
  188.3420  177.9750  135.8260 C   0  0  0  0  0  3  0  0  0  0  0  0
  1 12  1  0  0  0  0
  2  6  1  0  0  0  0
  2  8  1  0  0  0  0
  3 11  1  0  0  0  0
  4  9  1  6  0  0  0
  4 14  1  0  0  0  0
  5 10  1  0  0  0  0
  6  5  2  0  0  0  0
  8  3  2  0  0  0  0
  8  1  1  0  0  0  0
 10  1  2  0  0  0  0
 11 15  1  0  0  0  0
 11 18  2  0  0  0  0
 12 18  1  0  0  0  0
 13  2  2  0  0  0  0
 15 14  1  6  0  0  0
 15 20  1  0  0  0  0
 16 26  1  6  0  0  0
 16  7  1  0  0  0  0
 16  9  1  0  0  0  0
 17  7  1  6  0  0  0
 17  4  1  0  0  0  0
 17  3  1  0  0  0  0
 19 24  1  0  0  0  0
 20 23  1  6  0  0  0
 20 22  1  0  0  0  0
 21 19  2  0  0  0  0
 22 19  1  0  0  0  0
 23 21  1  0  0  0  0
 24 25  1  0  0  0  0
 27 26  1  0  0  0  0
 29 27  1  0  0  0  0
 30 28  2  0  0  0  0
 30 29  1  0  0  0  0
 31 34  2  0  0  0  0
 31 32  1  0  0  0  0
 32 33  2  0  0  0  0
 33 29  1  0  0  0  0
 34 30  1  0  0  0  0
M  END
>  <MODEL>
7

>  <REMARK>
 VINA RESULT:      -8.8      1.597      5.817
  Name = 
  5 active torsions:
  status: ('A' for Active; 'I' for Inactive)
    1  A    between atoms: O_3  and  N_13
    2  A    between atoms: O_3  and  C_17
    3  A    between atoms: O_7  and  C_8
    4  A    between atoms: C_12  and  C_28
    5  A    between atoms: C_17  and  C_29
                            x       y       z     vdW  Elec       q    Type
                         _______ _______ _______ _____ _____    ______ ____

>  <TORSDO>
F 5

$$$$
=
 OpenBabel10262423423D

 34 39  0  0  1  0  0  0  0  0999 V2000
  189.2680  177.2700  146.2490 C   0  0  2  0  0  3  0  0  0  0  0  0
  187.0220  178.2440  146.5740 C   0  0  0  0  0  0  0  0  0  0  0  0
  188.0000  177.9820  144.2470 C   0  0  0  0  0  0  0  0  0  0  0  0
  186.9400  178.0320  142.0450 N   0  0  1  0  0  0  0  0  0  0  0  0
  188.2260  177.2930  148.4100 C   0  0  0  0  0  3  0  0  0  0  0  0
  187.1440  177.9340  147.8940 N   0  0  0  0  0  0  0  0  0  0  0  0
  185.4440  177.7930  143.7980 C   0  0  0  0  0  2  0  0  0  0  0  0
  188.0280  177.8440  145.6610 C   0  0  0  0  0  0  0  0  0  0  0  0
  185.6630  178.3900  141.4620 C   0  0  0  0  0  2  0  0  0  0  0  0
  189.3120  176.9670  147.6040 C   0  0  0  0  0  3  0  0  0  0  0  0
  189.2220  177.8410  143.5390 C   0  0  0  0  0  0  0  0  0  0  0  0
  190.3390  177.0750  145.4970 O   0  0  0  0  0  0  0  0  0  0  0  0
  186.0350  178.9930  146.2100 N   0  0  0  0  0  1  0  0  0  0  0  0
  188.0390  178.8060  141.4990 C   0  0  0  0  0  2  0  0  0  0  0  0
  189.3450  178.2210  142.0680 C   0  0  2  0  0  3  0  0  0  0  0  0
  184.6290  178.0470  142.5340 C   0  0  2  0  0  3  0  0  0  0  0  0
  186.7810  178.4000  143.4390 C   0  0  1  0  0  3  0  0  0  0  0  0
  190.3590  177.3730  144.2060 C   0  0  0  0  0  3  0  0  0  0  0  0
  191.6090  176.9920  139.6200 C   0  0  0  0  0  0  0  0  0  0  0  0
  189.8990  177.0600  141.2240 C   0  0  2  0  0  3  0  0  0  0  0  0
  190.5190  176.9350  138.9400 N   0  0  0  0  0  0  0  0  0  0  0  0
  191.4140  177.1350  141.0850 C   0  0  0  0  0  2  0  0  0  0  0  0
  189.3530  177.0290  139.7950 C   0  0  0  0  0  2  0  0  0  0  0  0
  192.8550  176.9190  138.9970 O   0  0  0  0  0  0  0  0  0  0  0  0
  192.9970  176.5080  137.6470 C   0  0  0  0  0  1  0  0  0  0  0  0
  183.6510  179.1990  142.7380 C   0  0  0  0  0  2  0  0  0  0  0  0
  182.3060  178.7590  142.5590 O   0  0  0  0  0  0  0  0  0  0  0  0
  180.3240  180.4630  142.0170 O   0  0  0  0  0  0  0  0  0  0  0  0
  181.6750  178.7630  141.3270 N   0  0  0  0  0  0  0  0  0  0  0  0
  180.6590  179.6510  141.1130 C   0  0  0  0  0  0  0  0  0  0  0  0
  180.3550  178.7780  138.8860 C   0  0  0  0  0  3  0  0  0  0  0  0
  181.3990  177.8830  139.1090 C   0  0  0  0  0  3  0  0  0  0  0  0
  182.0490  177.8870  140.3450 C   0  0  0  0  0  3  0  0  0  0  0  0
  179.9820  179.6710  139.8910 C   0  0  0  0  0  3  0  0  0  0  0  0
  1 10  1  1  0  0  0
  2  6  2  0  0  0  0
  3  8  2  0  0  0  0
  4  9  1  6  0  0  0
  4 17  1  0  0  0  0
  6  5  1  0  0  0  0
  8  1  1  0  0  0  0
  8  2  1  0  0  0  0
  9 16  1  0  0  0  0
 10  5  2  0  0  0  0
 11 18  2  0  0  0  0
 11  3  1  0  0  0  0
 12  1  1  0  0  0  0
 13  2  1  0  0  0  0
 14  4  1  0  0  0  0
 15 14  1  6  0  0  0
 15 11  1  0  0  0  0
 16 26  1  1  0  0  0
 16  7  1  0  0  0  0
 17  7  1  1  0  0  0
 17  3  1  0  0  0  0
 18 12  1  0  0  0  0
 19 22  1  0  0  0  0
 20 23  1  6  0  0  0
 20 15  1  0  0  0  0
 21 19  2  0  0  0  0
 21 23  1  0  0  0  0
 22 20  1  0  0  0  0
 24 19  1  0  0  0  0
 25 24  1  0  0  0  0
 27 26  1  0  0  0  0
 29 27  1  0  0  0  0
 30 29  1  0  0  0  0
 30 28  2  0  0  0  0
 31 32  1  0  0  0  0
 31 34  2  0  0  0  0
 32 33  2  0  0  0  0
 33 29  1  0  0  0  0
 34 30  1  0  0  0  0
M  END
>  <MODEL>
8

>  <REMARK>
 VINA RESULT:      -8.3      2.454      6.681
  Name = 
  5 active torsions:
  status: ('A' for Active; 'I' for Inactive)
    1  A    between atoms: O_3  and  N_13
    2  A    between atoms: O_3  and  C_17
    3  A    between atoms: O_7  and  C_8
    4  A    between atoms: C_12  and  C_28
    5  A    between atoms: C_17  and  C_29
                            x       y       z     vdW  Elec       q    Type
                         _______ _______ _______ _____ _____    ______ ____

>  <TORSDO>
F 5

$$$$
=
 OpenBabel10262423423D

 34 39  0  0  1  0  0  0  0  0999 V2000
  184.6870  178.3740  143.1770 C   0  0  0  0  0  0  0  0  0  0  0  0
  184.7500  179.0590  140.8040 C   0  0  0  0  0  0  0  0  0  0  0  0
  186.8710  178.3650  142.0140 C   0  0  0  0  0  0  0  0  0  0  0  0
  189.0620  177.7010  141.1580 N   0  0  1  0  0  0  0  0  0  0  0  0
  182.6660  178.7900  141.9500 C   0  0  0  0  0  3  0  0  0  0  0  0
  183.3910  179.1140  140.8460 N   0  0  0  0  0  0  0  0  0  0  0  0
  187.3910  177.6960  139.5530 C   0  0  0  0  0  2  0  0  0  0  0  0
  185.4710  178.5940  141.9320 C   0  0  0  0  0  0  0  0  0  0  0  0
  189.7860  177.7100  139.9030 C   0  0  0  0  0  2  0  0  0  0  0  0
  183.2990  178.4330  143.1370 C   0  0  0  0  0  3  0  0  0  0  0  0
  187.4500  178.2310  143.3020 C   0  0  0  0  0  0  0  0  0  0  0  0
  185.3030  178.1560  144.3270 O   0  0  0  0  0  0  0  0  0  0  0  0
  185.3500  179.5380  139.7670 N   0  0  0  0  0  2  0  0  0  0  0  0
  189.7320  178.4650  142.1940 C   0  0  0  0  0  2  0  0  0  0  0  0
  188.9600  178.2410  143.5080 C   0  0  2  0  0  3  0  0  0  0  0  0
  188.7190  177.5000  138.8290 C   0  0  2  0  0  3  0  0  0  0  0  0
  187.8240  178.3820  140.8290 C   0  0  1  0  0  3  0  0  0  0  0  0
  186.6230  178.1180  144.4250 C   0  0  0  0  0  3  0  0  0  0  0  0
  191.2370  176.6910  145.7540 C   0  0  0  0  0  0  0  0  0  0  0  0
  189.4390  176.9990  144.2790 C   0  0  2  0  0  3  0  0  0  0  0  0
  191.6100  176.1260  144.6600 N   0  0  0  0  0  0  0  0  0  0  0  0
  189.9090  177.3530  145.6830 C   0  0  0  0  0  2  0  0  0  0  0  0
  190.6170  176.2840  143.6150 C   0  0  0  0  0  2  0  0  0  0  0  0
  192.0400  176.6620  146.8930 O   0  0  0  0  0  0  0  0  0  0  0  0
  192.3510  175.4500  147.5630 C   0  0  0  0  0  1  0  0  0  0  0  0
  188.8770  178.5100  137.6980 C   0  0  0  0  0  2  0  0  0  0  0  0
  188.6860  177.8840  136.4300 O   0  0  0  0  0  0  0  0  0  0  0  0
  189.3280  175.3030  136.2090 O   0  0  0  0  0  0  0  0  0  0  0  0
  187.7200  176.9170  136.2110 N   0  0  0  0  0  0  0  0  0  0  0  0
  188.1120  175.6130  136.0950 C   0  0  0  0  0  0  0  0  0  0  0  0
  185.8220  174.9510  135.7310 C   0  0  0  0  0  3  0  0  0  0  0  0
  185.4300  176.2810  135.8620 C   0  0  0  0  0  3  0  0  0  0  0  0
  186.4000  177.2570  136.0990 C   0  0  0  0  0  3  0  0  0  0  0  0
  187.1700  174.6110  135.8510 C   0  0  0  0  0  3  0  0  0  0  0  0
  1 12  1  0  0  0  0
  2  6  1  0  0  0  0
  2  8  1  0  0  0  0
  3 11  1  0  0  0  0
  4  9  1  6  0  0  0
  4 14  1  0  0  0  0
  5 10  1  0  0  0  0
  6  5  2  0  0  0  0
  8  3  2  0  0  0  0
  8  1  1  0  0  0  0
 10  1  2  0  0  0  0
 11 15  1  0  0  0  0
 11 18  2  0  0  0  0
 12 18  1  0  0  0  0
 13  2  2  0  0  0  0
 15 14  1  6  0  0  0
 15 20  1  0  0  0  0
 16 26  1  6  0  0  0
 16  7  1  0  0  0  0
 16  9  1  0  0  0  0
 17  7  1  6  0  0  0
 17  4  1  0  0  0  0
 17  3  1  0  0  0  0
 19 24  1  0  0  0  0
 20 23  1  6  0  0  0
 20 22  1  0  0  0  0
 21 19  2  0  0  0  0
 22 19  1  0  0  0  0
 23 21  1  0  0  0  0
 24 25  1  0  0  0  0
 27 26  1  0  0  0  0
 29 27  1  0  0  0  0
 30 28  2  0  0  0  0
 30 29  1  0  0  0  0
 31 34  2  0  0  0  0
 31 32  1  0  0  0  0
 32 33  2  0  0  0  0
 33 29  1  0  0  0  0
 34 30  1  0  0  0  0
M  END
>  <MODEL>
9

>  <REMARK>
 VINA RESULT:      -8.2      1.977      6.050
  Name = 
  5 active torsions:
  status: ('A' for Active; 'I' for Inactive)
    1  A    between atoms: O_3  and  N_13
    2  A    between atoms: O_3  and  C_17
    3  A    between atoms: O_7  and  C_8
    4  A    between atoms: C_12  and  C_28
    5  A    between atoms: C_17  and  C_29
                            x       y       z     vdW  Elec       q    Type
                         _______ _______ _______ _____ _____    ______ ____

>  <TORSDO>
F 5

$$$$
