=
 OpenBabel10272415293D

 34 38  0  0  1  0  0  0  0  0999 V2000
  190.0740  176.2660  144.0190 C   0  0  1  0  0  3  0  0  0  0  0  0
  187.2400  178.0900  145.9380 C   0  0  0  0  0  2  0  0  0  0  0  0
  184.9100  179.0650  143.5990 C   0  0  0  0  0  0  0  0  0  0  0  0
  189.4900  177.5060  146.5070 O   0  0  0  0  0  0  0  0  0  0  0  0
  190.9310  177.3410  141.9640 N   0  0  0  0  0  0  0  0  0  0  0  0
  190.4780  176.0770  142.5500 C   0  0  0  0  0  2  0  0  0  0  0  0
  191.8340  178.1260  144.1050 C   0  0  2  0  0  3  0  0  0  0  0  0
  190.9660  179.2210  144.1720 O   0  0  0  0  0  1  0  0  0  0  0  0
  184.0530  179.7100  144.6360 C   0  0  0  0  0  1  0  0  0  0  0  0
  192.1410  177.8030  142.6460 C   0  0  0  0  0  2  0  0  0  0  0  0
  190.8230  177.2120  146.2070 C   0  0  0  0  0  0  0  0  0  0  0  0
  191.2360  176.8920  144.8060 C   0  0  1  0  0  3  0  0  0  0  0  0
  191.6970  177.3050  147.1090 O   0  0  0  0  0  0  0  0  0  0  0  0
  185.9410  177.5810  145.3350 C   0  0  0  0  0  2  0  0  0  0  0  0
  184.8160  179.4620  142.4070 O   0  0  0  0  0  0  0  0  0  0  0  0
  185.8270  178.0120  143.9420 N   0  0  0  0  0  0  0  0  0  0  0  0
  186.6540  177.4250  142.8810 C   0  0  0  0  0  2  0  0  0  0  0  0
  188.3930  177.1300  145.6720 C   0  0  2  0  0  3  0  0  0  0  0  0
  187.6570  176.3950  143.3900 C   0  0  0  0  0  2  0  0  0  0  0  0
  188.7770  177.0720  144.1790 C   0  0  2  0  0  3  0  0  0  0  0  0
  191.1900  177.2310  140.5180 C   0  0  0  0  0  2  0  0  0  0  0  0
  187.7090  178.4480  139.3360 C   0  0  0  0  0  2  0  0  0  0  0  0
  189.8070  176.6070  138.4360 C   0  0  0  0  0  2  0  0  0  0  0  0
  186.3080  176.3040  135.4860 N   0  0  0  0  0  0  0  0  0  0  0  0
  185.6570  177.0750  136.5050 C   0  0  0  0  0  0  0  0  0  0  0  0
  186.4130  178.0990  137.2860 C   0  0  0  0  0  2  0  0  0  0  0  0
  185.5510  175.3750  134.6640 C   0  0  0  0  0  1  0  0  0  0  0  0
  187.4270  177.4470  138.2150 C   0  0  1  0  0  3  0  0  0  0  0  0
  184.4360  176.8950  136.7570 O   0  0  0  0  0  0  0  0  0  0  0  0
  188.5300  175.9770  136.4410 C   0  0  0  0  0  2  0  0  0  0  0  0
  188.7330  177.0910  137.4640 C   0  0  2  0  0  3  0  0  0  0  0  0
  187.7350  176.4440  135.2320 C   0  0  0  0  0  2  0  0  0  0  0  0
  190.0410  177.6130  139.5610 C   0  0  1  0  0  3  0  0  0  0  0  0
  188.7470  177.9090  140.3080 C   0  0  0  0  0  2  0  0  0  0  0  0
  1  6  1  6  0  0  0
  1 20  1  0  0  0  0
  1 12  1  0  0  0  0
  3 16  1  0  0  0  0
  3  9  1  0  0  0  0
  5  6  1  0  0  0  0
  5 10  1  0  0  0  0
  7  8  1  6  0  0  0
  7 12  1  0  0  0  0
 10  7  1  0  0  0  0
 11  4  1  0  0  0  0
 11 13  2  0  0  0  0
 12 11  1  1  0  0  0
 14  2  1  0  0  0  0
 15  3  2  0  0  0  0
 16 14  1  0  0  0  0
 17 19  1  0  0  0  0
 17 16  1  0  0  0  0
 18  2  1  6  0  0  0
 18  4  1  0  0  0  0
 20 19  1  6  0  0  0
 20 18  1  0  0  0  0
 21  5  1  0  0  0  0
 22 34  1  0  0  0  0
 23 33  1  0  0  0  0
 24 25  1  0  0  0  0
 25 29  2  0  0  0  0
 25 26  1  0  0  0  0
 27 24  1  0  0  0  0
 28 26  1  6  0  0  0
 28 22  1  0  0  0  0
 31 30  1  6  0  0  0
 31 28  1  0  0  0  0
 31 23  1  0  0  0  0
 32 24  1  0  0  0  0
 32 30  1  0  0  0  0
 33 34  1  0  0  0  0
 33 21  1  1  0  0  0
M  END
>  <MODEL>
1

>  <REMARK>
 VINA RESULT:     -10.1      0.000      0.000
  Name = 
  2 active torsions:
  status: ('A' for Active; 'I' for Inactive)
    1  A    between atoms: N_8  and  C_18
    2  A    between atoms: C_18  and  C_30
                            x       y       z     vdW  Elec       q    Type
                         _______ _______ _______ _____ _____    ______ ____

>  <TORSDO>
F 2

$$$$
=
 OpenBabel10272415293D

 34 38  0  0  1  0  0  0  0  0999 V2000
  188.4090  178.0820  137.2110 C   0  0  1  0  0  3  0  0  0  0  0  0
  185.0310  176.5180  136.1230 C   0  0  0  0  0  2  0  0  0  0  0  0
  182.9430  176.6390  138.8570 C   0  0  0  0  0  0  0  0  0  0  0  0
  187.2380  176.4540  135.1990 O   0  0  0  0  0  0  0  0  0  0  0  0
  189.3550  177.3540  139.3750 N   0  0  0  0  0  0  0  0  0  0  0  0
  189.0590  178.5140  138.5320 C   0  0  0  0  0  2  0  0  0  0  0  0
  189.7630  175.9180  137.4300 C   0  0  2  0  0  3  0  0  0  0  0  0
  188.7090  175.0510  137.7360 O   0  0  0  0  0  1  0  0  0  0  0  0
  181.8340  175.9720  138.1130 C   0  0  0  0  0  1  0  0  0  0  0  0
  190.3420  176.4960  138.7180 C   0  0  0  0  0  2  0  0  0  0  0  0
  188.6310  176.5150  135.2760 C   0  0  0  0  0  0  0  0  0  0  0  0
  189.3040  177.0540  136.4990 C   0  0  1  0  0  3  0  0  0  0  0  0
  189.3270  176.0290  134.3460 O   0  0  0  0  0  0  0  0  0  0  0  0
  183.9540  177.4220  136.7020 C   0  0  0  0  0  2  0  0  0  0  0  0
  182.9590  176.5580  140.1140 O   0  0  0  0  0  0  0  0  0  0  0  0
  183.9750  177.3590  138.1630 N   0  0  0  0  0  0  0  0  0  0  0  0
  185.0470  177.9850  138.9480 C   0  0  0  0  0  2  0  0  0  0  0  0
  186.3680  177.2420  136.0150 C   0  0  2  0  0  3  0  0  0  0  0  0
  186.1330  178.6270  138.0920 C   0  0  0  0  0  2  0  0  0  0  0  0
  186.9770  177.5600  137.3950 C   0  0  2  0  0  3  0  0  0  0  0  0
  189.8460  177.7370  140.7110 C   0  0  0  0  0  2  0  0  0  0  0  0
  186.6840  177.7220  142.9480 C   0  0  0  0  0  2  0  0  0  0  0  0
  189.5980  177.6440  143.2730 C   0  0  0  0  0  2  0  0  0  0  0  0
  187.7170  177.7600  147.4550 N   0  0  0  0  0  0  0  0  0  0  0  0
  186.5380  178.0450  146.6870 C   0  0  0  0  0  0  0  0  0  0  0  0
  186.3270  177.4110  145.3520 C   0  0  0  0  0  2  0  0  0  0  0  0
  187.8760  178.3040  148.7930 C   0  0  0  0  0  1  0  0  0  0  0  0
  187.3120  177.9490  144.3230 C   0  0  1  0  0  3  0  0  0  0  0  0
  185.6670  178.8400  147.1300 O   0  0  0  0  0  0  0  0  0  0  0  0
  189.4170  177.5570  145.7160 C   0  0  0  0  0  2  0  0  0  0  0  0
  188.6790  177.2300  144.4220 C   0  0  2  0  0  3  0  0  0  0  0  0
  188.7700  176.9040  146.9270 C   0  0  0  0  0  2  0  0  0  0  0  0
  188.9290  177.4370  141.9160 C   0  0  1  0  0  3  0  0  0  0  0  0
  187.6090  178.1910  141.8350 C   0  0  0  0  0  2  0  0  0  0  0  0
  1 20  1  0  0  0  0
  1  6  1  1  0  0  0
  2 14  1  0  0  0  0
  3 15  2  0  0  0  0
  4 11  1  0  0  0  0
  4 18  1  0  0  0  0
  5 21  1  0  0  0  0
  6  5  1  0  0  0  0
  7  8  1  1  0  0  0
  7 10  1  0  0  0  0
  9  3  1  0  0  0  0
 10  5  1  0  0  0  0
 12 11  1  6  0  0  0
 12  1  1  0  0  0  0
 12  7  1  0  0  0  0
 13 11  2  0  0  0  0
 14 16  1  0  0  0  0
 16  3  1  0  0  0  0
 16 17  1  0  0  0  0
 18  2  1  1  0  0  0
 18 20  1  0  0  0  0
 19 17  1  0  0  0  0
 20 19  1  6  0  0  0
 24 27  1  0  0  0  0
 25 29  2  0  0  0  0
 25 24  1  0  0  0  0
 26 25  1  0  0  0  0
 28 22  1  6  0  0  0
 28 31  1  0  0  0  0
 28 26  1  0  0  0  0
 30 32  1  0  0  0  0
 31 23  1  6  0  0  0
 31 30  1  0  0  0  0
 32 24  1  0  0  0  0
 33 21  1  6  0  0  0
 33 23  1  0  0  0  0
 34 33  1  0  0  0  0
 34 22  1  0  0  0  0
M  END
>  <MODEL>
2

>  <REMARK>
 VINA RESULT:      -9.5      2.568      8.164
  Name = 
  2 active torsions:
  status: ('A' for Active; 'I' for Inactive)
    1  A    between atoms: N_8  and  C_18
    2  A    between atoms: C_18  and  C_30
                            x       y       z     vdW  Elec       q    Type
                         _______ _______ _______ _____ _____    ______ ____

>  <TORSDO>
F 2

$$$$
=
 OpenBabel10272415293D

 34 38  0  0  1  0  0  0  0  0999 V2000
  189.4040  177.1510  136.4860 C   0  0  1  0  0  3  0  0  0  0  0  0
  187.7870  173.8110  135.3590 C   0  0  0  0  0  2  0  0  0  0  0  0
  184.7100  173.6190  136.8880 C   0  0  0  0  0  0  0  0  0  0  0  0
  190.0310  174.6430  135.3070 O   0  0  0  0  0  0  0  0  0  0  0  0
  189.3130  177.7030  138.8940 N   0  0  0  0  0  0  0  0  0  0  0  0
  189.1110  178.2270  137.5410 C   0  0  0  0  0  2  0  0  0  0  0  0
  191.1000  176.1960  138.1520 C   0  0  2  0  0  3  0  0  0  0  0  0
  190.3980  175.0400  138.5140 O   0  0  0  0  0  1  0  0  0  0  0  0
  184.4260  172.2850  136.2810 C   0  0  0  0  0  1  0  0  0  0  0  0
  190.7180  177.3410  139.0850 C   0  0  0  0  0  2  0  0  0  0  0  0
  191.0810  175.4450  135.7620 C   0  0  0  0  0  0  0  0  0  0  0  0
  190.8200  176.5890  136.6900 C   0  0  1  0  0  3  0  0  0  0  0  0
  192.2660  175.1470  135.4590 O   0  0  0  0  0  0  0  0  0  0  0  0
  186.3350  174.1390  135.0540 C   0  0  0  0  0  2  0  0  0  0  0  0
  184.1170  173.9330  137.9540 O   0  0  0  0  0  0  0  0  0  0  0  0
  185.6380  174.5310  136.2780 N   0  0  0  0  0  0  0  0  0  0  0  0
  185.8860  175.8230  136.9280 C   0  0  0  0  0  2  0  0  0  0  0  0
  188.6630  175.0570  135.3150 C   0  0  2  0  0  3  0  0  0  0  0  0
  186.9650  176.6530  136.2420 C   0  0  0  0  0  2  0  0  0  0  0  0
  188.3460  176.0380  136.4620 C   0  0  2  0  0  3  0  0  0  0  0  0
  188.9030  178.6600  139.9370 C   0  0  0  0  0  2  0  0  0  0  0  0
  186.3840  177.8440  142.7630 C   0  0  0  0  0  2  0  0  0  0  0  0
  189.2690  178.2700  142.4560 C   0  0  0  0  0  2  0  0  0  0  0  0
  188.4080  177.6240  146.9150 N   0  0  0  0  0  0  0  0  0  0  0  0
  187.0540  177.7630  146.4580 C   0  0  0  0  0  0  0  0  0  0  0  0
  186.6430  177.2360  145.1230 C   0  0  0  0  0  2  0  0  0  0  0  0
  188.7840  178.0530  148.2510 C   0  0  0  0  0  1  0  0  0  0  0  0
  187.2690  178.0450  143.9940 C   0  0  1  0  0  3  0  0  0  0  0  0
  186.1950  178.3360  147.1780 O   0  0  0  0  0  0  0  0  0  0  0  0
  189.6720  177.9100  144.8470 C   0  0  0  0  0  2  0  0  0  0  0  0
  188.7160  177.5820  143.7040 C   0  0  2  0  0  3  0  0  0  0  0  0
  189.4320  177.0320  146.0660 C   0  0  0  0  0  2  0  0  0  0  0  0
  188.3480  178.0780  141.2540 C   0  0  1  0  0  3  0  0  0  0  0  0
  186.9430  178.5830  141.5560 C   0  0  0  0  0  2  0  0  0  0  0  0
  1 12  1  0  0  0  0
  1  6  1  1  0  0  0
  3 15  2  0  0  0  0
  4 18  1  0  0  0  0
  4 11  1  0  0  0  0
  5 10  1  0  0  0  0
  5 21  1  0  0  0  0
  6  5  1  0  0  0  0
  7  8  1  1  0  0  0
  7 10  1  0  0  0  0
  9  3  1  0  0  0  0
 12 11  1  6  0  0  0
 12  7  1  0  0  0  0
 13 11  2  0  0  0  0
 14  2  1  0  0  0  0
 14 16  1  0  0  0  0
 16  3  1  0  0  0  0
 16 17  1  0  0  0  0
 18  2  1  1  0  0  0
 18 20  1  0  0  0  0
 19 17  1  0  0  0  0
 20 19  1  6  0  0  0
 20  1  1  0  0  0  0
 24 27  1  0  0  0  0
 25 24  1  0  0  0  0
 25 29  2  0  0  0  0
 26 25  1  0  0  0  0
 28 22  1  6  0  0  0
 28 26  1  0  0  0  0
 30 32  1  0  0  0  0
 31 23  1  6  0  0  0
 31 28  1  0  0  0  0
 31 30  1  0  0  0  0
 32 24  1  0  0  0  0
 33 21  1  6  0  0  0
 33 34  1  0  0  0  0
 33 23  1  0  0  0  0
 34 22  1  0  0  0  0
M  END
>  <MODEL>
3

>  <REMARK>
 VINA RESULT:      -9.3      2.863      8.453
  Name = 
  2 active torsions:
  status: ('A' for Active; 'I' for Inactive)
    1  A    between atoms: N_8  and  C_18
    2  A    between atoms: C_18  and  C_30
                            x       y       z     vdW  Elec       q    Type
                         _______ _______ _______ _____ _____    ______ ____

>  <TORSDO>
F 2

$$$$
=
 OpenBabel10272415293D

 34 38  0  0  1  0  0  0  0  0999 V2000
  189.0510  175.4990  137.6200 C   0  0  1  0  0  3  0  0  0  0  0  0
  191.5700  174.9660  134.7200 C   0  0  0  0  0  2  0  0  0  0  0  0
  194.5070  176.5020  135.6470 C   0  0  0  0  0  0  0  0  0  0  0  0
  189.1890  174.7730  134.8770 O   0  0  0  0  0  0  0  0  0  0  0  0
  188.8730  177.7740  138.5690 N   0  0  0  0  0  0  0  0  0  0  0  0
  188.9880  176.3510  138.8950 C   0  0  0  0  0  2  0  0  0  0  0  0
  187.6040  177.3070  136.5230 C   0  0  2  0  0  3  0  0  0  0  0  0
  188.5770  177.8630  135.6850 O   0  0  0  0  0  1  0  0  0  0  0  0
  195.1730  176.1340  134.3630 C   0  0  0  0  0  1  0  0  0  0  0  0
  187.6130  178.0270  137.8680 C   0  0  0  0  0  2  0  0  0  0  0  0
  187.9400  175.0830  135.4190 C   0  0  0  0  0  0  0  0  0  0  0  0
  187.8340  175.7990  136.7290 C   0  0  1  0  0  3  0  0  0  0  0  0
  186.8970  174.8370  134.7580 O   0  0  0  0  0  0  0  0  0  0  0  0
  192.8900  174.6070  135.3820 C   0  0  0  0  0  2  0  0  0  0  0  0
  194.9400  177.4970  136.2870 O   0  0  0  0  0  0  0  0  0  0  0  0
  193.3950  175.7440  136.1510 N   0  0  0  0  0  0  0  0  0  0  0  0
  192.7720  176.1610  137.4130 C   0  0  0  0  0  2  0  0  0  0  0  0
  190.3900  174.7080  135.6490 C   0  0  2  0  0  3  0  0  0  0  0  0
  191.5410  175.3420  137.7850 C   0  0  0  0  0  2  0  0  0  0  0  0
  190.3720  175.6670  136.8560 C   0  0  2  0  0  3  0  0  0  0  0  0
  188.9560  178.6350  139.7620 C   0  0  0  0  0  2  0  0  0  0  0  0
  186.4170  177.9070  142.5940 C   0  0  0  0  0  2  0  0  0  0  0  0
  189.3140  178.2360  142.2820 C   0  0  0  0  0  2  0  0  0  0  0  0
  188.4390  177.6260  146.7430 N   0  0  0  0  0  0  0  0  0  0  0  0
  187.0910  177.8090  146.2880 C   0  0  0  0  0  0  0  0  0  0  0  0
  186.6600  177.2940  144.9540 C   0  0  0  0  0  2  0  0  0  0  0  0
  188.8320  178.0450  148.0780 C   0  0  0  0  0  1  0  0  0  0  0  0
  187.3100  178.0800  143.8230 C   0  0  1  0  0  3  0  0  0  0  0  0
  186.2520  178.4120  147.0090 O   0  0  0  0  0  0  0  0  0  0  0  0
  189.7090  177.8670  144.6730 C   0  0  0  0  0  2  0  0  0  0  0  0
  188.7410  177.5690  143.5310 C   0  0  2  0  0  3  0  0  0  0  0  0
  189.4420  177.0000  145.8930 C   0  0  0  0  0  2  0  0  0  0  0  0
  188.3840  178.0740  141.0820 C   0  0  1  0  0  3  0  0  0  0  0  0
  186.9970  178.6250  141.3850 C   0  0  0  0  0  2  0  0  0  0  0  0
  1  6  1  1  0  0  0
  2 14  1  0  0  0  0
  3 16  1  0  0  0  0
  3 15  2  0  0  0  0
  4 11  1  0  0  0  0
  4 18  1  0  0  0  0
  5  6  1  0  0  0  0
  5 21  1  0  0  0  0
  7  8  1  6  0  0  0
  7 12  1  0  0  0  0
  7 10  1  0  0  0  0
  9  3  1  0  0  0  0
 10  5  1  0  0  0  0
 12 11  1  6  0  0  0
 12  1  1  0  0  0  0
 13 11  2  0  0  0  0
 14 16  1  0  0  0  0
 16 17  1  0  0  0  0
 17 19  1  0  0  0  0
 18  2  1  6  0  0  0
 18 20  1  0  0  0  0
 20  1  1  0  0  0  0
 20 19  1  1  0  0  0
 24 27  1  0  0  0  0
 25 24  1  0  0  0  0
 25 29  2  0  0  0  0
 26 25  1  0  0  0  0
 28 22  1  6  0  0  0
 28 26  1  0  0  0  0
 30 32  1  0  0  0  0
 31 23  1  6  0  0  0
 31 28  1  0  0  0  0
 31 30  1  0  0  0  0
 32 24  1  0  0  0  0
 33 21  1  6  0  0  0
 33 34  1  0  0  0  0
 33 23  1  0  0  0  0
 34 22  1  0  0  0  0
M  END
>  <MODEL>
4

>  <REMARK>
 VINA RESULT:      -8.8      3.414      9.357
  Name = 
  2 active torsions:
  status: ('A' for Active; 'I' for Inactive)
    1  A    between atoms: N_8  and  C_18
    2  A    between atoms: C_18  and  C_30
                            x       y       z     vdW  Elec       q    Type
                         _______ _______ _______ _____ _____    ______ ____

>  <TORSDO>
F 2

$$$$
=
 OpenBabel10272415293D

 34 38  0  0  1  0  0  0  0  0999 V2000
  183.8970  179.1910  139.7520 C   0  0  1  0  0  3  0  0  0  0  0  0
  183.7890  178.4300  143.5530 C   0  0  0  0  0  2  0  0  0  0  0  0
  186.9180  177.3050  144.4410 C   0  0  0  0  0  0  0  0  0  0  0  0
  182.0900  178.7460  141.8970 O   0  0  0  0  0  0  0  0  0  0  0  0
  184.9370  177.4970  138.2810 N   0  0  0  0  0  0  0  0  0  0  0  0
  184.8690  178.9270  138.5930 C   0  0  0  0  0  2  0  0  0  0  0  0
  182.5990  177.1410  138.9280 C   0  0  2  0  0  3  0  0  0  0  0  0
  182.9260  176.2650  139.9690 O   0  0  0  0  0  1  0  0  0  0  0  0
  186.5060  177.1030  145.8610 C   0  0  0  0  0  1  0  0  0  0  0  0
  183.6340  177.0240  137.8140 C   0  0  0  0  0  2  0  0  0  0  0  0
  181.5910  178.7200  140.5920 C   0  0  0  0  0  0  0  0  0  0  0  0
  182.5180  178.5970  139.4250 C   0  0  1  0  0  3  0  0  0  0  0  0
  180.3460  178.7120  140.4030 O   0  0  0  0  0  0  0  0  0  0  0  0
  185.0860  178.9830  144.1200 C   0  0  0  0  0  2  0  0  0  0  0  0
  187.8900  176.6380  143.9940 O   0  0  0  0  0  0  0  0  0  0  0  0
  186.2270  178.2360  143.5920 N   0  0  0  0  0  0  0  0  0  0  0  0
  186.6690  178.3840  142.2000 C   0  0  0  0  0  2  0  0  0  0  0  0
  183.4420  179.0780  142.2180 C   0  0  2  0  0  3  0  0  0  0  0  0
  185.7920  179.3210  141.3780 C   0  0  0  0  0  2  0  0  0  0  0  0
  184.4300  178.6870  141.1010 C   0  0  2  0  0  3  0  0  0  0  0  0
  185.9660  177.1880  137.2730 C   0  0  0  0  0  2  0  0  0  0  0  0
  189.5070  177.8170  138.7100 C   0  0  0  0  0  2  0  0  0  0  0  0
  188.1820  175.9280  136.9010 C   0  0  0  0  0  2  0  0  0  0  0  0
  192.6470  174.8860  137.0000 N   0  0  0  0  0  0  0  0  0  0  0  0
  192.7110  176.1430  137.6880 C   0  0  0  0  0  0  0  0  0  0  0  0
  191.6110  176.5650  138.6060 C   0  0  0  0  0  2  0  0  0  0  0  0
  193.7600  174.4350  136.1810 C   0  0  0  0  0  1  0  0  0  0  0  0
  190.3370  176.8790  137.8330 C   0  0  1  0  0  3  0  0  0  0  0  0
  193.6950  176.9100  137.5230 O   0  0  0  0  0  0  0  0  0  0  0  0
  190.2640  174.6950  136.5100 C   0  0  0  0  0  2  0  0  0  0  0  0
  189.5410  175.5910  137.5120 C   0  0  2  0  0  3  0  0  0  0  0  0
  191.4830  174.0190  137.1190 C   0  0  0  0  0  2  0  0  0  0  0  0
  187.3930  176.8920  137.7840 C   0  0  1  0  0  3  0  0  0  0  0  0
  188.1840  178.1660  138.0460 C   0  0  0  0  0  2  0  0  0  0  0  0
  1  6  1  6  0  0  0
  1 20  1  0  0  0  0
  2 14  1  0  0  0  0
  3  9  1  0  0  0  0
  4 18  1  0  0  0  0
  5  6  1  0  0  0  0
  7 12  1  0  0  0  0
  7  8  1  1  0  0  0
 10  5  1  0  0  0  0
 10  7  1  0  0  0  0
 11  4  1  0  0  0  0
 12  1  1  0  0  0  0
 12 11  1  1  0  0  0
 13 11  2  0  0  0  0
 15  3  2  0  0  0  0
 16 14  1  0  0  0  0
 16  3  1  0  0  0  0
 17 16  1  0  0  0  0
 18  2  1  1  0  0  0
 19 17  1  0  0  0  0
 20 19  1  1  0  0  0
 20 18  1  0  0  0  0
 21  5  1  0  0  0  0
 23 31  1  0  0  0  0
 23 33  1  0  0  0  0
 24 32  1  0  0  0  0
 24 25  1  0  0  0  0
 25 26  1  0  0  0  0
 27 24  1  0  0  0  0
 28 26  1  1  0  0  0
 28 22  1  0  0  0  0
 29 25  2  0  0  0  0
 30 32  1  0  0  0  0
 31 30  1  6  0  0  0
 31 28  1  0  0  0  0
 33 21  1  6  0  0  0
 33 34  1  0  0  0  0
 34 22  1  0  0  0  0
M  END
>  <MODEL>
5

>  <REMARK>
 VINA RESULT:      -8.5      3.066      6.623
  Name = 
  2 active torsions:
  status: ('A' for Active; 'I' for Inactive)
    1  A    between atoms: N_8  and  C_18
    2  A    between atoms: C_18  and  C_30
                            x       y       z     vdW  Elec       q    Type
                         _______ _______ _______ _____ _____    ______ ____

>  <TORSDO>
F 2

$$$$
=
 OpenBabel10272415293D

 34 38  0  0  1  0  0  0  0  0999 V2000
  190.1710  176.4280  143.7840 C   0  0  1  0  0  3  0  0  0  0  0  0
  187.3540  177.7660  146.0900 C   0  0  0  0  0  2  0  0  0  0  0  0
  184.8680  178.9760  144.0390 C   0  0  0  0  0  0  0  0  0  0  0  0
  189.6540  177.2210  146.4630 O   0  0  0  0  0  0  0  0  0  0  0  0
  190.8740  177.8620  141.8980 N   0  0  0  0  0  0  0  0  0  0  0  0
  190.5100  176.4980  142.2890 C   0  0  0  0  0  2  0  0  0  0  0  0
  191.8450  178.3430  144.0980 C   0  0  2  0  0  3  0  0  0  0  0  0
  190.9310  179.3650  144.3770 O   0  0  0  0  0  1  0  0  0  0  0  0
  184.0340  179.3990  145.2020 C   0  0  0  0  0  1  0  0  0  0  0  0
  192.0930  178.2740  142.5940 C   0  0  0  0  0  2  0  0  0  0  0  0
  190.9830  177.0520  146.0650 C   0  0  0  0  0  0  0  0  0  0  0  0
  191.3400  176.9820  144.6140 C   0  0  1  0  0  3  0  0  0  0  0  0
  191.8950  177.0460  146.9320 O   0  0  0  0  0  0  0  0  0  0  0  0
  186.0510  177.2910  145.4670 C   0  0  0  0  0  2  0  0  0  0  0  0
  184.6960  179.5530  142.9320 O   0  0  0  0  0  0  0  0  0  0  0  0
  185.8490  177.9330  144.1690 N   0  0  0  0  0  0  0  0  0  0  0  0
  186.6480  177.5680  142.9930 C   0  0  0  0  0  2  0  0  0  0  0  0
  188.5360  176.9250  145.6240 C   0  0  2  0  0  3  0  0  0  0  0  0
  187.7220  176.5260  143.2860 C   0  0  0  0  0  2  0  0  0  0  0  0
  188.8470  177.1270  144.1270 C   0  0  2  0  0  3  0  0  0  0  0  0
  191.0660  177.9990  140.4430 C   0  0  0  0  0  2  0  0  0  0  0  0
  193.0080  175.5250  138.1830 C   0  0  0  0  0  2  0  0  0  0  0  0
  190.2220  176.1970  138.8080 C   0  0  0  0  0  2  0  0  0  0  0  0
  190.1950  172.9660  135.5520 N   0  0  0  0  0  0  0  0  0  0  0  0
  191.5950  173.2810  135.5230 C   0  0  0  0  0  0  0  0  0  0  0  0
  192.3210  173.6390  136.7770 C   0  0  0  0  0  2  0  0  0  0  0  0
  189.5110  172.5280  134.3470 C   0  0  0  0  0  1  0  0  0  0  0  0
  191.8720  174.9930  137.3080 C   0  0  1  0  0  3  0  0  0  0  0  0
  192.2290  173.2630  134.4350 O   0  0  0  0  0  0  0  0  0  0  0  0
  189.3660  174.4980  137.2610 C   0  0  0  0  0  2  0  0  0  0  0  0
  190.5650  174.8720  138.1290 C   0  0  2  0  0  3  0  0  0  0  0  0
  189.4290  173.0550  136.7870 C   0  0  0  0  0  2  0  0  0  0  0  0
  191.3870  176.7170  139.6460 C   0  0  1  0  0  3  0  0  0  0  0  0
  192.6450  176.8660  138.8020 C   0  0  0  0  0  2  0  0  0  0  0  0
  1  6  1  6  0  0  0
  1 20  1  0  0  0  0
  1 12  1  0  0  0  0
  3 16  1  0  0  0  0
  3  9  1  0  0  0  0
  5  6  1  0  0  0  0
  5 10  1  0  0  0  0
  7  8  1  6  0  0  0
  7 12  1  0  0  0  0
 10  7  1  0  0  0  0
 11  4  1  0  0  0  0
 11 13  2  0  0  0  0
 12 11  1  1  0  0  0
 14  2  1  0  0  0  0
 15  3  2  0  0  0  0
 16 14  1  0  0  0  0
 17 19  1  0  0  0  0
 17 16  1  0  0  0  0
 18  2  1  1  0  0  0
 18  4  1  0  0  0  0
 20 19  1  6  0  0  0
 20 18  1  0  0  0  0
 21  5  1  0  0  0  0
 22 34  1  0  0  0  0
 23 33  1  0  0  0  0
 24 32  1  0  0  0  0
 25 24  1  0  0  0  0
 25 26  1  0  0  0  0
 27 24  1  0  0  0  0
 28 26  1  1  0  0  0
 28 31  1  0  0  0  0
 28 22  1  0  0  0  0
 29 25  2  0  0  0  0
 31 30  1  6  0  0  0
 31 23  1  0  0  0  0
 32 30  1  0  0  0  0
 33 21  1  6  0  0  0
 34 33  1  0  0  0  0
M  END
>  <MODEL>
6

>  <REMARK>
 VINA RESULT:      -8.3      2.453      3.225
  Name = 
  2 active torsions:
  status: ('A' for Active; 'I' for Inactive)
    1  A    between atoms: N_8  and  C_18
    2  A    between atoms: C_18  and  C_30
                            x       y       z     vdW  Elec       q    Type
                         _______ _______ _______ _____ _____    ______ ____

>  <TORSDO>
F 2

$$$$
=
 OpenBabel10272415293D

 34 38  0  0  1  0  0  0  0  0999 V2000
  190.1470  176.4150  144.0810 C   0  0  1  0  0  3  0  0  0  0  0  0
  187.1730  178.0200  145.9840 C   0  0  0  0  0  2  0  0  0  0  0  0
  184.9080  179.0630  143.6110 C   0  0  0  0  0  0  0  0  0  0  0  0
  189.4170  177.4760  146.6140 O   0  0  0  0  0  0  0  0  0  0  0  0
  191.0490  177.6450  142.1360 N   0  0  0  0  0  0  0  0  0  0  0  0
  190.6180  176.3330  142.6230 C   0  0  0  0  0  2  0  0  0  0  0  0
  191.8340  178.3230  144.3580 C   0  0  2  0  0  3  0  0  0  0  0  0
  190.9260  179.3830  144.4550 O   0  0  0  0  0  1  0  0  0  0  0  0
  183.9860  179.6130  144.6490 C   0  0  0  0  0  1  0  0  0  0  0  0
  192.2130  178.1030  142.8970 C   0  0  0  0  0  2  0  0  0  0  0  0
  190.7710  177.2460  146.3550 C   0  0  0  0  0  0  0  0  0  0  0  0
  191.2520  177.0290  144.9550 C   0  0  1  0  0  3  0  0  0  0  0  0
  191.6030  177.3100  147.2970 O   0  0  0  0  0  0  0  0  0  0  0  0
  185.9180  177.5070  145.2950 C   0  0  0  0  0  2  0  0  0  0  0  0
  184.8490  179.5320  142.4440 O   0  0  0  0  0  0  0  0  0  0  0  0
  185.8470  178.0220  143.9290 N   0  0  0  0  0  0  0  0  0  0  0  0
  186.7380  177.5300  142.8700 C   0  0  0  0  0  2  0  0  0  0  0  0
  188.3700  177.1170  145.7100 C   0  0  2  0  0  3  0  0  0  0  0  0
  187.7550  176.5040  143.3580 C   0  0  0  0  0  2  0  0  0  0  0  0
  188.8160  177.1660  144.2350 C   0  0  2  0  0  3  0  0  0  0  0  0
  191.3720  177.6360  140.6980 C   0  0  0  0  0  2  0  0  0  0  0  0
  190.1890  175.3640  137.7930 C   0  0  0  0  0  2  0  0  0  0  0  0
  189.2080  177.6800  139.3020 C   0  0  0  0  0  2  0  0  0  0  0  0
  186.1410  176.7330  136.0250 N   0  0  0  0  0  0  0  0  0  0  0  0
  187.1990  175.8730  135.5770 C   0  0  0  0  0  0  0  0  0  0  0  0
  188.0800  175.1740  136.5590 C   0  0  0  0  0  2  0  0  0  0  0  0
  185.2260  177.3380  135.0710 C   0  0  0  0  0  1  0  0  0  0  0  0
  188.9840  176.1600  137.2880 C   0  0  1  0  0  3  0  0  0  0  0  0
  187.4000  175.7000  134.3460 O   0  0  0  0  0  0  0  0  0  0  0  0
  187.1320  177.7680  138.0000 C   0  0  0  0  0  2  0  0  0  0  0  0
  188.2450  176.8350  138.4680 C   0  0  2  0  0  3  0  0  0  0  0  0
  185.9410  177.0060  137.4410 C   0  0  0  0  0  2  0  0  0  0  0  0
  190.4150  176.8670  139.7620 C   0  0  1  0  0  3  0  0  0  0  0  0
  191.1450  176.2510  138.5760 C   0  0  0  0  0  2  0  0  0  0  0  0
  1  6  1  6  0  0  0
  1 20  1  0  0  0  0
  1 12  1  0  0  0  0
  3 16  1  0  0  0  0
  3  9  1  0  0  0  0
  5  6  1  0  0  0  0
  5 10  1  0  0  0  0
  7  8  1  6  0  0  0
  7 12  1  0  0  0  0
 10  7  1  0  0  0  0
 11  4  1  0  0  0  0
 11 13  2  0  0  0  0
 12 11  1  1  0  0  0
 14  2  1  0  0  0  0
 15  3  2  0  0  0  0
 16 14  1  0  0  0  0
 17 19  1  0  0  0  0
 17 16  1  0  0  0  0
 18  2  1  6  0  0  0
 18  4  1  0  0  0  0
 20 19  1  6  0  0  0
 20 18  1  0  0  0  0
 21  5  1  0  0  0  0
 22 34  1  0  0  0  0
 23 33  1  0  0  0  0
 24 32  1  0  0  0  0
 25 24  1  0  0  0  0
 25 26  1  0  0  0  0
 27 24  1  0  0  0  0
 28 26  1  1  0  0  0
 28 22  1  0  0  0  0
 28 31  1  0  0  0  0
 29 25  2  0  0  0  0
 31 30  1  6  0  0  0
 31 23  1  0  0  0  0
 32 30  1  0  0  0  0
 33 21  1  6  0  0  0
 34 33  1  0  0  0  0
M  END
>  <MODEL>
7

>  <REMARK>
 VINA RESULT:      -8.3      0.983      1.655
  Name = 
  2 active torsions:
  status: ('A' for Active; 'I' for Inactive)
    1  A    between atoms: N_8  and  C_18
    2  A    between atoms: C_18  and  C_30
                            x       y       z     vdW  Elec       q    Type
                         _______ _______ _______ _____ _____    ______ ____

>  <TORSDO>
F 2

$$$$
=
 OpenBabel10272415293D

 34 38  0  0  1  0  0  0  0  0999 V2000
  184.7720  177.2760  136.5640 C   0  0  1  0  0  3  0  0  0  0  0  0
  182.5810  177.1750  139.7620 C   0  0  0  0  0  2  0  0  0  0  0  0
  184.4100  178.6480  142.2790 C   0  0  0  0  0  0  0  0  0  0  0  0
  182.4880  176.0050  137.6760 O   0  0  0  0  0  0  0  0  0  0  0  0
  187.1360  176.5850  136.7820 N   0  0  0  0  0  0  0  0  0  0  0  0
  186.2350  177.5990  136.2290 C   0  0  0  0  0  2  0  0  0  0  0  0
  185.4660  174.8100  136.5150 C   0  0  2  0  0  3  0  0  0  0  0  0
  185.3890  174.5520  137.8880 O   0  0  0  0  0  1  0  0  0  0  0  0
  183.3290  178.4130  143.2810 C   0  0  0  0  0  1  0  0  0  0  0  0
  186.8710  175.2870  136.1600 C   0  0  0  0  0  2  0  0  0  0  0  0
  183.0480  175.4660  136.5150 C   0  0  0  0  0  0  0  0  0  0  0  0
  184.4250  175.8580  136.0810 C   0  0  1  0  0  3  0  0  0  0  0  0
  182.4240  174.5780  135.8780 O   0  0  0  0  0  0  0  0  0  0  0  0
  182.7400  178.5390  140.4140 C   0  0  0  0  0  2  0  0  0  0  0  0
  185.5930  178.7820  142.6890 O   0  0  0  0  0  0  0  0  0  0  0  0
  184.1170  178.7210  140.8740 N   0  0  0  0  0  0  0  0  0  0  0  0
  185.2230  178.9410  139.9340 C   0  0  0  0  0  2  0  0  0  0  0  0
  182.9430  177.2160  138.2830 C   0  0  2  0  0  3  0  0  0  0  0  0
  184.7970  178.8940  138.4700 C   0  0  0  0  0  2  0  0  0  0  0  0
  184.4470  177.4670  138.0530 C   0  0  2  0  0  3  0  0  0  0  0  0
  188.5560  176.9370  136.6060 C   0  0  0  0  0  2  0  0  0  0  0  0
  191.4160  176.7420  139.2110 C   0  0  0  0  0  2  0  0  0  0  0  0
  188.5380  177.3060  139.1550 C   0  0  0  0  0  2  0  0  0  0  0  0
  189.9110  177.4180  143.5310 N   0  0  0  0  0  0  0  0  0  0  0  0
  191.1010  176.8640  142.9520 C   0  0  0  0  0  0  0  0  0  0  0  0
  191.5580  177.2890  141.5960 C   0  0  0  0  0  2  0  0  0  0  0  0
  189.5190  177.0740  144.8870 C   0  0  0  0  0  1  0  0  0  0  0  0
  190.6140  176.7860  140.5120 C   0  0  1  0  0  3  0  0  0  0  0  0
  191.7750  176.0060  143.5810 O   0  0  0  0  0  0  0  0  0  0  0  0
  188.4660  177.6640  141.5800 C   0  0  0  0  0  2  0  0  0  0  0  0
  189.3840  177.7130  140.3620 C   0  0  2  0  0  3  0  0  0  0  0  0
  189.0780  178.3540  142.7880 C   0  0  0  0  0  2  0  0  0  0  0  0
  189.3740  177.2400  137.8800 C   0  0  1  0  0  3  0  0  0  0  0  0
  190.5510  176.2870  138.0450 C   0  0  0  0  0  2  0  0  0  0  0  0
  1  6  1  1  0  0  0
  1 20  1  0  0  0  0
  2 14  1  0  0  0  0
  3 15  2  0  0  0  0
  3  9  1  0  0  0  0
  4 18  1  0  0  0  0
  6  5  1  0  0  0  0
  7  8  1  1  0  0  0
 10  7  1  0  0  0  0
 10  5  1  0  0  0  0
 11  4  1  0  0  0  0
 12  7  1  0  0  0  0
 12 11  1  1  0  0  0
 12  1  1  0  0  0  0
 13 11  2  0  0  0  0
 14 16  1  0  0  0  0
 16  3  1  0  0  0  0
 17 16  1  0  0  0  0
 18  2  1  1  0  0  0
 19 17  1  0  0  0  0
 20 18  1  0  0  0  0
 20 19  1  6  0  0  0
 21  5  1  0  0  0  0
 24 27  1  0  0  0  0
 25 24  1  0  0  0  0
 25 29  2  0  0  0  0
 26 25  1  0  0  0  0
 28 22  1  6  0  0  0
 28 26  1  0  0  0  0
 30 32  1  0  0  0  0
 31 23  1  6  0  0  0
 31 28  1  0  0  0  0
 31 30  1  0  0  0  0
 32 24  1  0  0  0  0
 33 21  1  6  0  0  0
 33 34  1  0  0  0  0
 33 23  1  0  0  0  0
 34 22  1  0  0  0  0
M  END
>  <MODEL>
8

>  <REMARK>
 VINA RESULT:      -8.1      2.153      7.662
  Name = 
  2 active torsions:
  status: ('A' for Active; 'I' for Inactive)
    1  A    between atoms: N_8  and  C_18
    2  A    between atoms: C_18  and  C_30
                            x       y       z     vdW  Elec       q    Type
                         _______ _______ _______ _____ _____    ______ ____

>  <TORSDO>
F 2

$$$$
=
 OpenBabel10272415293D

 34 38  0  0  1  0  0  0  0  0999 V2000
  190.0340  177.4160  137.3770 C   0  0  1  0  0  3  0  0  0  0  0  0
  187.6510  178.2690  140.3150 C   0  0  0  0  0  2  0  0  0  0  0  0
  188.8150  176.5750  143.0760 C   0  0  0  0  0  0  0  0  0  0  0  0
  187.4620  178.4820  137.9390 O   0  0  0  0  0  0  0  0  0  0  0  0
  190.6450  175.0420  137.0590 N   0  0  0  0  0  0  0  0  0  0  0  0
  191.1640  176.4100  137.1190 C   0  0  0  0  0  2  0  0  0  0  0  0
  188.5050  175.7880  136.1220 C   0  0  2  0  0  3  0  0  0  0  0  0
  187.7630  175.3270  137.2150 O   0  0  0  0  0  1  0  0  0  0  0  0
  187.7070  177.0910  143.9320 C   0  0  0  0  0  1  0  0  0  0  0  0
  189.7320  174.9030  135.9240 C   0  0  0  0  0  2  0  0  0  0  0  0
  187.7610  178.1280  136.6210 C   0  0  0  0  0  0  0  0  0  0  0  0
  188.9360  177.2540  136.3150 C   0  0  1  0  0  3  0  0  0  0  0  0
  186.9840  178.4750  135.6930 O   0  0  0  0  0  0  0  0  0  0  0  0
  188.5500  178.5170  141.5160 C   0  0  0  0  0  2  0  0  0  0  0  0
  189.3810  175.4990  143.4070 O   0  0  0  0  0  0  0  0  0  0  0  0
  189.2340  177.2820  141.8970 N   0  0  0  0  0  0  0  0  0  0  0  0
  190.3210  176.7200  141.0870 C   0  0  0  0  0  2  0  0  0  0  0  0
  188.4120  178.4280  139.0050 C   0  0  2  0  0  3  0  0  0  0  0  0
  190.6000  177.5060  139.8110 C   0  0  0  0  0  2  0  0  0  0  0  0
  189.4680  177.3230  138.8020 C   0  0  2  0  0  3  0  0  0  0  0  0
  191.7160  174.0360  136.9580 C   0  0  0  0  0  2  0  0  0  0  0  0
  194.9370  175.0810  135.0780 C   0  0  0  0  0  2  0  0  0  0  0  0
  194.1870  173.9540  137.6800 C   0  0  0  0  0  2  0  0  0  0  0  0
  198.7660  174.1660  137.5040 N   0  0  0  0  0  0  0  0  0  0  0  0
  198.4900  174.4570  136.1270 C   0  0  0  0  0  0  0  0  0  0  0  0
  197.2890  175.2570  135.7430 C   0  0  0  0  0  2  0  0  0  0  0  0
  199.9830  173.4670  137.8830 C   0  0  0  0  0  1  0  0  0  0  0  0
  196.0040  174.4800  135.9950 C   0  0  1  0  0  3  0  0  0  0  0  0
  199.2570  174.0350  135.2210 O   0  0  0  0  0  0  0  0  0  0  0  0
  196.5240  173.8510  138.4150 C   0  0  0  0  0  2  0  0  0  0  0  0
  195.5670  174.5790  137.4750 C   0  0  2  0  0  3  0  0  0  0  0  0
  197.8510  174.5790  138.5590 C   0  0  0  0  0  2  0  0  0  0  0  0
  193.1530  174.5510  136.7290 C   0  0  1  0  0  3  0  0  0  0  0  0
  193.5920  174.3990  135.2780 C   0  0  0  0  0  2  0  0  0  0  0  0
  1  6  1  6  0  0  0
  1 20  1  0  0  0  0
  2 14  1  0  0  0  0
  3 15  2  0  0  0  0
  3  9  1  0  0  0  0
  4 18  1  0  0  0  0
  5  6  1  0  0  0  0
  7 12  1  0  0  0  0
  7  8  1  1  0  0  0
 10  7  1  0  0  0  0
 10  5  1  0  0  0  0
 11  4  1  0  0  0  0
 12 11  1  1  0  0  0
 12  1  1  0  0  0  0
 13 11  2  0  0  0  0
 14 16  1  0  0  0  0
 16  3  1  0  0  0  0
 17 16  1  0  0  0  0
 18  2  1  1  0  0  0
 19 17  1  0  0  0  0
 20 18  1  0  0  0  0
 20 19  1  1  0  0  0
 21  5  1  0  0  0  0
 22 34  1  0  0  0  0
 24 27  1  0  0  0  0
 24 32  1  0  0  0  0
 25 24  1  0  0  0  0
 26 28  1  0  0  0  0
 26 25  1  0  0  0  0
 28 22  1  6  0  0  0
 28 31  1  0  0  0  0
 29 25  2  0  0  0  0
 30 32  1  0  0  0  0
 31 23  1  6  0  0  0
 31 30  1  0  0  0  0
 33 21  1  6  0  0  0
 33 23  1  0  0  0  0
 34 33  1  0  0  0  0
M  END
>  <MODEL>
9

>  <REMARK>
 VINA RESULT:      -8.0      5.193      8.510
  Name = 
  2 active torsions:
  status: ('A' for Active; 'I' for Inactive)
    1  A    between atoms: N_8  and  C_18
    2  A    between atoms: C_18  and  C_30
                            x       y       z     vdW  Elec       q    Type
                         _______ _______ _______ _____ _____    ______ ____

>  <TORSDO>
F 2

$$$$
