=
 OpenBabel10272400033D

 34 39  0  0  1  0  0  0  0  0999 V2000
  190.2050  177.0680  146.8540 C   0  0  0  0  0  0  0  0  0  0  0  0
  191.6160  175.7510  145.4180 C   0  0  0  0  0  0  0  0  0  0  0  0
  189.5520  176.9080  144.4930 C   0  0  0  0  0  0  0  0  0  0  0  0
  188.8860  177.0680  142.1580 C   0  0  0  0  0  0  0  0  0  0  0  0
  192.2480  176.1980  147.6550 C   0  0  0  0  0  3  0  0  0  0  0  0
  192.4830  175.6180  146.4550 N   0  0  0  0  0  2  0  0  0  0  0  0
  191.1740  176.7010  142.4490 C   0  0  0  0  0  2  0  0  0  0  0  0
  190.4750  176.5880  145.5470 C   0  0  0  0  0  0  0  0  0  0  0  0
  189.4010  177.0030  140.7740 C   0  0  0  0  0  2  0  0  0  0  0  0
  191.1040  176.8940  147.8560 N   0  0  0  0  0  0  0  0  0  0  0  0
  188.2690  177.4410  144.8440 C   0  0  0  0  0  0  0  0  0  0  0  0
  188.9950  177.6820  147.1490 C   0  0  0  0  0  3  0  0  0  0  0  0
  191.8100  175.0510  144.3930 O   0  0  0  0  0  0  0  0  0  0  0  0
  187.6070  177.4720  142.5010 C   0  0  0  0  0  3  0  0  0  0  0  0
  187.2720  177.6560  143.8480 C   0  0  0  0  0  0  0  0  0  0  0  0
  190.8730  176.6370  140.9510 C   0  0  1  0  0  3  0  0  0  0  0  0
  189.8440  176.8080  143.1080 C   0  0  0  0  0  0  0  0  0  0  0  0
  188.0300  177.8370  146.1650 C   0  0  0  0  0  3  0  0  0  0  0  0
  183.6570  178.7650  143.4470 C   0  0  0  0  0  0  0  0  0  0  0  0
  183.2960  179.0080  144.7740 C   0  0  0  0  0  3  0  0  0  0  0  0
  185.8870  178.1010  144.1630 C   0  0  0  0  0  0  0  0  0  0  0  0
  184.2250  178.8050  145.7970 C   0  0  0  0  0  3  0  0  0  0  0  0
  184.9470  178.3200  143.1430 C   0  0  0  0  0  3  0  0  0  0  0  0
  185.5140  178.3580  145.4930 C   0  0  0  0  0  3  0  0  0  0  0  0
  182.7590  178.9670  142.4530 F   0  0  0  0  0  0  0  0  0  0  0  0
  191.7120  177.5880  140.2430 N   0  0  0  0  0  2  0  0  0  0  0  0
  191.5680  177.3200  138.8750 N   0  0  0  0  0  2  0  0  0  0  0  0
  190.3390  175.0030  137.9550 O   0  0  0  0  0  0  0  0  0  0  0  0
  192.3700  176.1410  138.5870 C   0  0  1  0  0  3  0  0  0  0  0  0
  191.5740  175.1590  137.7630 C   0  0  0  0  0  0  0  0  0  0  0  0
  193.6260  174.5560  136.5500 C   0  0  0  0  0  2  0  0  0  0  0  0
  194.2960  175.3640  137.6640 C   0  0  0  0  0  2  0  0  0  0  0  0
  193.5420  176.5280  137.9020 O   0  0  0  0  0  0  0  0  0  0  0  0
  192.2510  174.3340  136.8620 O   0  0  0  0  0  0  0  0  0  0  0  0
  1 12  1  0  0  0  0
  1 10  1  0  0  0  0
  2  8  1  0  0  0  0
  2  6  1  0  0  0  0
  3 11  1  0  0  0  0
  3  8  1  0  0  0  0
  4 14  2  0  0  0  0
  4 17  1  0  0  0  0
  5 10  2  0  0  0  0
  6  5  1  0  0  0  0
  7 17  1  0  0  0  0
  8  1  2  0  0  0  0
  9 16  1  0  0  0  0
  9  4  1  0  0  0  0
 11 18  1  0  0  0  0
 13  2  2  0  0  0  0
 14 15  1  0  0  0  0
 15 21  1  0  0  0  0
 15 11  2  0  0  0  0
 16 26  1  6  0  0  0
 16  7  1  0  0  0  0
 17  3  2  0  0  0  0
 18 12  2  0  0  0  0
 19 20  1  0  0  0  0
 20 22  2  0  0  0  0
 21 24  2  0  0  0  0
 23 19  2  0  0  0  0
 23 21  1  0  0  0  0
 24 22  1  0  0  0  0
 25 19  1  0  0  0  0
 27 26  1  0  0  0  0
 29 27  1  6  0  0  0
 30 28  2  0  0  0  0
 30 29  1  0  0  0  0
 31 34  1  0  0  0  0
 31 32  1  0  0  0  0
 32 33  1  0  0  0  0
 33 29  1  0  0  0  0
 34 30  1  0  0  0  0
M  END
>  <MODEL>
1

>  <REMARK>
 VINA RESULT:     -11.1      0.000      0.000
  Name = 
  4 active torsions:
  status: ('A' for Active; 'I' for Inactive)
    1  A    between atoms: N_3  and  C_13
    2  A    between atoms: N_3  and  N_17
    3  A    between atoms: C_12  and  C_28
    4  A    between atoms: N_17  and  C_29
                            x       y       z     vdW  Elec       q    Type
                         _______ _______ _______ _____ _____    ______ ____

>  <TORSDO>
F 4

$$$$
=
 OpenBabel10272400033D

 34 39  0  0  1  0  0  0  0  0999 V2000
  185.5720  178.0050  143.2980 C   0  0  0  0  0  0  0  0  0  0  0  0
  185.9720  178.7570  141.0480 C   0  0  0  0  0  0  0  0  0  0  0  0
  187.8580  177.7700  142.4350 C   0  0  0  0  0  0  0  0  0  0  0  0
  190.1080  177.2330  141.6770 C   0  0  0  0  0  0  0  0  0  0  0  0
  183.7760  178.6910  141.9290 C   0  0  0  0  0  3  0  0  0  0  0  0
  184.6360  178.9650  140.9210 N   0  0  0  0  0  2  0  0  0  0  0  0
  188.5340  177.2910  139.9520 C   0  0  0  0  0  2  0  0  0  0  0  0
  186.4890  178.1530  142.2260 C   0  0  0  0  0  0  0  0  0  0  0  0
  190.9080  176.9270  140.4740 C   0  0  0  0  0  2  0  0  0  0  0  0
  184.2480  178.2400  143.1150 N   0  0  0  0  0  0  0  0  0  0  0  0
  188.3060  177.5280  143.7750 C   0  0  0  0  0  0  0  0  0  0  0  0
  186.0150  177.6620  144.5690 C   0  0  0  0  0  3  0  0  0  0  0  0
  186.7270  179.1890  140.1410 O   0  0  0  0  0  0  0  0  0  0  0  0
  190.5680  177.1140  142.9770 C   0  0  0  0  0  3  0  0  0  0  0  0
  189.6800  177.2690  144.0480 C   0  0  0  0  0  0  0  0  0  0  0  0
  189.9140  177.0880  139.3250 C   0  0  1  0  0  3  0  0  0  0  0  0
  188.7960  177.5320  141.3960 C   0  0  0  0  0  0  0  0  0  0  0  0
  187.3650  177.4580  144.8090 C   0  0  0  0  0  3  0  0  0  0  0  0
  190.1280  177.6070  147.8090 C   0  0  0  0  0  0  0  0  0  0  0  0
  191.3100  176.8900  148.0100 C   0  0  0  0  0  3  0  0  0  0  0  0
  190.2250  177.1220  145.4260 C   0  0  0  0  0  0  0  0  0  0  0  0
  191.9560  176.2940  146.9250 C   0  0  0  0  0  3  0  0  0  0  0  0
  189.5920  177.7280  146.5240 C   0  0  0  0  0  3  0  0  0  0  0  0
  191.4190  176.4120  145.6400 C   0  0  0  0  0  3  0  0  0  0  0  0
  189.5030  178.1930  148.8600 F   0  0  0  0  0  0  0  0  0  0  0  0
  189.9060  175.8910  138.5020 N   0  0  0  0  0  2  0  0  0  0  0  0
  191.2330  175.4540  138.4020 N   0  0  0  0  0  2  0  0  0  0  0  0
  193.6160  176.8700  138.6140 O   0  0  0  0  0  0  0  0  0  0  0  0
  191.8030  176.0930  137.2260 C   0  0  1  0  0  3  0  0  0  0  0  0
  193.2420  176.4660  137.4810 C   0  0  0  0  0  0  0  0  0  0  0  0
  193.7680  175.9230  135.1410 C   0  0  0  0  0  2  0  0  0  0  0  0
  192.2450  175.8810  135.0060 C   0  0  0  0  0  2  0  0  0  0  0  0
  191.7050  175.2160  136.1230 O   0  0  0  0  0  0  0  0  0  0  0  0
  194.1350  176.4710  136.4070 O   0  0  0  0  0  0  0  0  0  0  0  0
  1 12  1  0  0  0  0
  2  8  1  0  0  0  0
  3 11  1  0  0  0  0
  4 14  2  0  0  0  0
  5 10  2  0  0  0  0
  6  2  1  0  0  0  0
  6  5  1  0  0  0  0
  7 17  1  0  0  0  0
  8  3  1  0  0  0  0
  8  1  2  0  0  0  0
  9  4  1  0  0  0  0
 10  1  1  0  0  0  0
 11 15  2  0  0  0  0
 11 18  1  0  0  0  0
 12 18  2  0  0  0  0
 13  2  2  0  0  0  0
 14 15  1  0  0  0  0
 15 21  1  0  0  0  0
 16 26  1  6  0  0  0
 16  7  1  0  0  0  0
 16  9  1  0  0  0  0
 17  4  1  0  0  0  0
 17  3  2  0  0  0  0
 19 20  1  0  0  0  0
 19 25  1  0  0  0  0
 21 24  2  0  0  0  0
 21 23  1  0  0  0  0
 22 20  2  0  0  0  0
 23 19  2  0  0  0  0
 24 22  1  0  0  0  0
 27 26  1  0  0  0  0
 29 30  1  0  0  0  0
 29 27  1  1  0  0  0
 30 28  2  0  0  0  0
 31 34  1  0  0  0  0
 32 31  1  0  0  0  0
 32 33  1  0  0  0  0
 33 29  1  0  0  0  0
 34 30  1  0  0  0  0
M  END
>  <MODEL>
2

>  <REMARK>
 VINA RESULT:     -10.8      3.090      5.409
  Name = 
  4 active torsions:
  status: ('A' for Active; 'I' for Inactive)
    1  A    between atoms: N_3  and  C_13
    2  A    between atoms: N_3  and  N_17
    3  A    between atoms: C_12  and  C_28
    4  A    between atoms: N_17  and  C_29
                            x       y       z     vdW  Elec       q    Type
                         _______ _______ _______ _____ _____    ______ ____

>  <TORSDO>
F 4

$$$$
=
 OpenBabel10272400033D

 34 39  0  0  1  0  0  0  0  0999 V2000
  185.4500  177.9840  143.5440 C   0  0  0  0  0  0  0  0  0  0  0  0
  185.6810  178.9310  141.3450 C   0  0  0  0  0  0  0  0  0  0  0  0
  187.6820  177.9030  142.5250 C   0  0  0  0  0  0  0  0  0  0  0  0
  189.8930  177.5120  141.5880 C   0  0  0  0  0  0  0  0  0  0  0  0
  183.5490  178.7140  142.3510 C   0  0  0  0  0  3  0  0  0  0  0  0
  184.3340  179.1000  141.3180 N   0  0  0  0  0  2  0  0  0  0  0  0
  188.2110  177.6530  139.9740 C   0  0  0  0  0  2  0  0  0  0  0  0
  186.2910  178.2530  142.4340 C   0  0  0  0  0  0  0  0  0  0  0  0
  190.6240  177.3350  140.3160 C   0  0  0  0  0  2  0  0  0  0  0  0
  184.1100  178.1860  143.4640 N   0  0  0  0  0  0  0  0  0  0  0  0
  188.2220  177.5700  143.8100 C   0  0  0  0  0  0  0  0  0  0  0  0
  185.9840  177.5550  144.7520 C   0  0  0  0  0  3  0  0  0  0  0  0
  186.3610  179.4620  140.4320 O   0  0  0  0  0  0  0  0  0  0  0  0
  190.4410  177.3050  142.8420 C   0  0  0  0  0  3  0  0  0  0  0  0
  189.6190  177.3400  143.9760 C   0  0  0  0  0  0  0  0  0  0  0  0
  189.5530  177.5520  139.2480 C   0  0  1  0  0  3  0  0  0  0  0  0
  188.5580  177.7850  141.4150 C   0  0  0  0  0  0  0  0  0  0  0  0
  187.3530  177.3820  144.8910 C   0  0  0  0  0  3  0  0  0  0  0  0
  190.3560  177.4710  147.7040 C   0  0  0  0  0  0  0  0  0  0  0  0
  191.5150  176.6950  147.7820 C   0  0  0  0  0  3  0  0  0  0  0  0
  190.2560  177.1010  145.3000 C   0  0  0  0  0  0  0  0  0  0  0  0
  192.0510  176.1260  146.6240 C   0  0  0  0  0  3  0  0  0  0  0  0
  189.7340  177.6780  146.4700 C   0  0  0  0  0  3  0  0  0  0  0  0
  191.4280  176.3310  145.3900 C   0  0  0  0  0  3  0  0  0  0  0  0
  189.8380  178.0290  148.8250 F   0  0  0  0  0  0  0  0  0  0  0  0
  189.5290  176.4260  138.3300 N   0  0  0  0  0  2  0  0  0  0  0  0
  190.5750  175.5720  138.7030 N   0  0  0  0  0  2  0  0  0  0  0  0
  189.6970  173.2880  137.3830 O   0  0  0  0  0  0  0  0  0  0  0  0
  191.2330  175.1470  137.4770 C   0  0  1  0  0  3  0  0  0  0  0  0
  190.3780  174.1380  136.7500 C   0  0  0  0  0  0  0  0  0  0  0  0
  191.1220  175.0940  134.6100 C   0  0  0  0  0  2  0  0  0  0  0  0
  192.1310  175.8190  135.5010 C   0  0  0  0  0  2  0  0  0  0  0  0
  191.4760  176.2720  136.6610 O   0  0  0  0  0  0  0  0  0  0  0  0
  190.4430  174.0830  135.3560 O   0  0  0  0  0  0  0  0  0  0  0  0
  1 12  1  0  0  0  0
  2  8  1  0  0  0  0
  3 11  1  0  0  0  0
  4 14  2  0  0  0  0
  5 10  2  0  0  0  0
  6  2  1  0  0  0  0
  6  5  1  0  0  0  0
  7 17  1  0  0  0  0
  8  3  1  0  0  0  0
  8  1  2  0  0  0  0
  9  4  1  0  0  0  0
 10  1  1  0  0  0  0
 11 15  2  0  0  0  0
 11 18  1  0  0  0  0
 12 18  2  0  0  0  0
 13  2  2  0  0  0  0
 14 15  1  0  0  0  0
 15 21  1  0  0  0  0
 16 26  1  6  0  0  0
 16  7  1  0  0  0  0
 16  9  1  0  0  0  0
 17  4  1  0  0  0  0
 17  3  2  0  0  0  0
 19 20  1  0  0  0  0
 19 25  1  0  0  0  0
 21 24  2  0  0  0  0
 21 23  1  0  0  0  0
 22 20  2  0  0  0  0
 23 19  2  0  0  0  0
 24 22  1  0  0  0  0
 26 27  1  0  0  0  0
 29 27  1  1  0  0  0
 30 28  2  0  0  0  0
 30 29  1  0  0  0  0
 31 34  1  0  0  0  0
 31 32  1  0  0  0  0
 32 33  1  0  0  0  0
 33 29  1  0  0  0  0
 34 30  1  0  0  0  0
M  END
>  <MODEL>
3

>  <REMARK>
 VINA RESULT:     -10.6      3.228      5.436
  Name = 
  4 active torsions:
  status: ('A' for Active; 'I' for Inactive)
    1  A    between atoms: N_3  and  C_13
    2  A    between atoms: N_3  and  N_17
    3  A    between atoms: C_12  and  C_28
    4  A    between atoms: N_17  and  C_29
                            x       y       z     vdW  Elec       q    Type
                         _______ _______ _______ _____ _____    ______ ____

>  <TORSDO>
F 4

$$$$
=
 OpenBabel10272400033D

 34 39  0  0  1  0  0  0  0  0999 V2000
  182.7400  178.7880  141.7100 C   0  0  0  0  0  0  0  0  0  0  0  0
  183.5760  179.5710  139.5940 C   0  0  0  0  0  0  0  0  0  0  0  0
  185.1690  178.6940  141.3680 C   0  0  0  0  0  0  0  0  0  0  0  0
  187.5570  178.2950  141.1230 C   0  0  0  0  0  0  0  0  0  0  0  0
  181.2480  179.3710  139.9760 C   0  0  0  0  0  3  0  0  0  0  0  0
  182.2900  179.7000  139.1770 N   0  0  0  0  0  2  0  0  0  0  0  0
  186.3970  178.2650  139.0960 C   0  0  0  0  0  2  0  0  0  0  0  0
  183.8580  178.9950  140.8630 C   0  0  0  0  0  0  0  0  0  0  0  0
  188.6180  178.0430  140.1260 C   0  0  0  0  0  2  0  0  0  0  0  0
  181.4760  178.9450  141.2410 N   0  0  0  0  0  0  0  0  0  0  0  0
  185.3270  178.4750  142.7750 C   0  0  0  0  0  0  0  0  0  0  0  0
  182.9150  178.4680  143.0500 C   0  0  0  0  0  3  0  0  0  0  0  0
  184.4830  180.0510  138.8690 O   0  0  0  0  0  0  0  0  0  0  0  0
  187.7300  178.2000  142.4930 C   0  0  0  0  0  3  0  0  0  0  0  0
  186.6220  178.2970  143.3440 C   0  0  0  0  0  0  0  0  0  0  0  0
  187.8900  178.1470  138.7870 C   0  0  1  0  0  3  0  0  0  0  0  0
  186.3230  178.5160  140.5610 C   0  0  0  0  0  0  0  0  0  0  0  0
  184.1900  178.3440  143.5800 C   0  0  0  0  0  3  0  0  0  0  0  0
  188.1280  177.2880  146.6860 C   0  0  0  0  0  0  0  0  0  0  0  0
  187.2520  177.9090  147.5800 C   0  0  0  0  0  3  0  0  0  0  0  0
  186.8610  178.1780  144.8090 C   0  0  0  0  0  0  0  0  0  0  0  0
  186.1780  178.6580  147.0960 C   0  0  0  0  0  3  0  0  0  0  0  0
  187.9300  177.4170  145.3090 C   0  0  0  0  0  3  0  0  0  0  0  0
  185.9810  178.7880  145.7180 C   0  0  0  0  0  3  0  0  0  0  0  0
  189.1680  176.5560  147.1550 F   0  0  0  0  0  0  0  0  0  0  0  0
  188.1320  176.9550  137.9930 N   0  0  0  0  0  2  0  0  0  0  0  0
  189.3370  177.1590  137.3080 N   0  0  0  0  0  2  0  0  0  0  0  0
  191.0530  175.3060  138.4710 O   0  0  0  0  0  0  0  0  0  0  0  0
  189.6430  175.9190  136.6110 C   0  0  1  0  0  3  0  0  0  0  0  0
  190.2670  174.9270  137.5620 C   0  0  0  0  0  0  0  0  0  0  0  0
  189.0920  173.1110  136.3930 C   0  0  0  0  0  2  0  0  0  0  0  0
  188.8060  174.2100  135.3680 C   0  0  0  0  0  2  0  0  0  0  0  0
  188.4600  175.3920  136.0490 O   0  0  0  0  0  0  0  0  0  0  0  0
  190.0540  173.5640  137.3460 O   0  0  0  0  0  0  0  0  0  0  0  0
  1 12  1  0  0  0  0
  2  8  1  0  0  0  0
  3 11  1  0  0  0  0
  4 14  2  0  0  0  0
  5 10  2  0  0  0  0
  6  2  1  0  0  0  0
  6  5  1  0  0  0  0
  7 17  1  0  0  0  0
  8  3  1  0  0  0  0
  8  1  2  0  0  0  0
  9  4  1  0  0  0  0
 10  1  1  0  0  0  0
 11 15  2  0  0  0  0
 11 18  1  0  0  0  0
 12 18  2  0  0  0  0
 13  2  2  0  0  0  0
 14 15  1  0  0  0  0
 15 21  1  0  0  0  0
 16 26  1  6  0  0  0
 16  7  1  0  0  0  0
 16  9  1  0  0  0  0
 17  4  1  0  0  0  0
 17  3  2  0  0  0  0
 19 25  1  0  0  0  0
 19 20  1  0  0  0  0
 21 23  1  0  0  0  0
 21 24  2  0  0  0  0
 22 20  2  0  0  0  0
 23 19  2  0  0  0  0
 24 22  1  0  0  0  0
 27 26  1  0  0  0  0
 29 27  1  1  0  0  0
 29 30  1  0  0  0  0
 30 28  2  0  0  0  0
 31 34  1  0  0  0  0
 32 33  1  0  0  0  0
 32 31  1  0  0  0  0
 33 29  1  0  0  0  0
 34 30  1  0  0  0  0
M  END
>  <MODEL>
4

>  <REMARK>
 VINA RESULT:     -10.2      3.779      6.351
  Name = 
  4 active torsions:
  status: ('A' for Active; 'I' for Inactive)
    1  A    between atoms: N_3  and  C_13
    2  A    between atoms: N_3  and  N_17
    3  A    between atoms: C_12  and  C_28
    4  A    between atoms: N_17  and  C_29
                            x       y       z     vdW  Elec       q    Type
                         _______ _______ _______ _____ _____    ______ ____

>  <TORSDO>
F 4

$$$$
=
 OpenBabel10272400033D

 34 39  0  0  1  0  0  0  0  0999 V2000
  188.5200  177.3060  146.2920 C   0  0  0  0  0  0  0  0  0  0  0  0
  186.6620  178.6140  147.0810 C   0  0  0  0  0  0  0  0  0  0  0  0
  186.9670  178.1700  144.5980 C   0  0  0  0  0  0  0  0  0  0  0  0
  185.4140  178.7270  142.8090 C   0  0  0  0  0  0  0  0  0  0  0  0
  188.0990  177.5120  148.6050 C   0  0  0  0  0  3  0  0  0  0  0  0
  187.0340  178.3070  148.3500 N   0  0  0  0  0  0  0  0  0  0  0  0
  184.3920  178.5310  144.9000 C   0  0  0  0  0  2  0  0  0  0  0  0
  187.3380  178.0240  145.9780 C   0  0  0  0  0  0  0  0  0  0  0  0
  183.9940  179.0210  142.5250 C   0  0  0  0  0  2  0  0  0  0  0  0
  188.8490  177.0400  147.5810 N   0  0  0  0  0  2  0  0  0  0  0  0
  187.9320  177.8440  143.5910 C   0  0  0  0  0  0  0  0  0  0  0  0
  189.3910  176.9020  145.2880 C   0  0  0  0  0  3  0  0  0  0  0  0
  185.7730  179.4880  146.9210 O   0  0  0  0  0  0  0  0  0  0  0  0
  186.3820  178.5240  141.8410 C   0  0  0  0  0  3  0  0  0  0  0  0
  187.6600  178.0890  142.2130 C   0  0  0  0  0  0  0  0  0  0  0  0
  183.3390  179.0210  143.9050 C   0  0  1  0  0  3  0  0  0  0  0  0
  185.6740  178.5430  144.1460 C   0  0  0  0  0  0  0  0  0  0  0  0
  189.1160  177.1940  143.9610 C   0  0  0  0  0  3  0  0  0  0  0  0
  189.3480  178.0770  138.8060 C   0  0  0  0  0  0  0  0  0  0  0  0
  190.5380  177.4040  139.0920 C   0  0  0  0  0  3  0  0  0  0  0  0
  188.6620  177.8770  141.1330 C   0  0  0  0  0  0  0  0  0  0  0  0
  190.7920  176.9610  140.3920 C   0  0  0  0  0  3  0  0  0  0  0  0
  188.4130  178.3070  139.8190 C   0  0  0  0  0  3  0  0  0  0  0  0
  189.8580  177.1920  141.4050 C   0  0  0  0  0  3  0  0  0  0  0  0
  189.0960  178.5030  137.5440 F   0  0  0  0  0  0  0  0  0  0  0  0
  182.2000  178.1200  143.9160 N   0  0  0  0  0  2  0  0  0  0  0  0
  181.0530  178.9130  144.0520 N   0  0  0  0  0  2  0  0  0  0  0  0
  180.0000  181.1030  142.7010 O   0  0  0  0  0  0  0  0  0  0  0  0
  180.2510  178.7080  142.8550 C   0  0  1  0  0  3  0  0  0  0  0  0
  180.1100  180.0040  142.0950 C   0  0  0  0  0  0  0  0  0  0  0  0
  180.2040  178.7440  139.9860 C   0  0  0  0  0  2  0  0  0  0  0  0
  180.0410  177.5410  140.9160 C   0  0  0  0  0  2  0  0  0  0  0  0
  180.8580  177.7230  142.0470 O   0  0  0  0  0  0  0  0  0  0  0  0
  179.9820  179.9570  140.7050 O   0  0  0  0  0  0  0  0  0  0  0  0
  1 10  1  0  0  0  0
  2  6  1  0  0  0  0
  3  8  2  0  0  0  0
  4 17  2  0  0  0  0
  6  5  2  0  0  0  0
  8  1  1  0  0  0  0
  8  2  1  0  0  0  0
  9  4  1  0  0  0  0
  9 16  1  0  0  0  0
 10  5  1  0  0  0  0
 11 18  2  0  0  0  0
 11  3  1  0  0  0  0
 12  1  2  0  0  0  0
 13  2  2  0  0  0  0
 14 15  2  0  0  0  0
 14  4  1  0  0  0  0
 15 11  1  0  0  0  0
 16 26  1  6  0  0  0
 16  7  1  0  0  0  0
 17  3  1  0  0  0  0
 17  7  1  0  0  0  0
 18 12  1  0  0  0  0
 19 20  2  0  0  0  0
 19 23  1  0  0  0  0
 20 22  1  0  0  0  0
 21 24  1  0  0  0  0
 21 15  1  0  0  0  0
 22 24  2  0  0  0  0
 23 21  2  0  0  0  0
 25 19  1  0  0  0  0
 26 27  1  0  0  0  0
 29 27  1  1  0  0  0
 30 28  2  0  0  0  0
 30 29  1  0  0  0  0
 31 34  1  0  0  0  0
 31 32  1  0  0  0  0
 32 33  1  0  0  0  0
 33 29  1  0  0  0  0
 34 30  1  0  0  0  0
M  END
>  <MODEL>
5

>  <REMARK>
 VINA RESULT:     -10.1      5.121      8.269
  Name = 
  4 active torsions:
  status: ('A' for Active; 'I' for Inactive)
    1  A    between atoms: N_3  and  C_13
    2  A    between atoms: N_3  and  N_17
    3  A    between atoms: C_12  and  C_28
    4  A    between atoms: N_17  and  C_29
                            x       y       z     vdW  Elec       q    Type
                         _______ _______ _______ _____ _____    ______ ____

>  <TORSDO>
F 4

$$$$
=
 OpenBabel10272400033D

 34 39  0  0  1  0  0  0  0  0999 V2000
  185.3890  178.0610  143.7510 C   0  0  0  0  0  0  0  0  0  0  0  0
  185.5810  179.0070  141.5480 C   0  0  0  0  0  0  0  0  0  0  0  0
  187.6030  177.9830  142.6950 C   0  0  0  0  0  0  0  0  0  0  0  0
  189.7990  177.5940  141.7200 C   0  0  0  0  0  0  0  0  0  0  0  0
  183.4670  178.7880  142.5900 C   0  0  0  0  0  3  0  0  0  0  0  0
  184.2330  179.1740  141.5440 N   0  0  0  0  0  2  0  0  0  0  0  0
  188.0890  177.7310  140.1350 C   0  0  0  0  0  2  0  0  0  0  0  0
  186.2110  178.3300  142.6270 C   0  0  0  0  0  0  0  0  0  0  0  0
  190.5080  177.4160  140.4360 C   0  0  0  0  0  2  0  0  0  0  0  0
  184.0480  178.2610  143.6940 N   0  0  0  0  0  0  0  0  0  0  0  0
  188.1660  177.6510  143.9700 C   0  0  0  0  0  0  0  0  0  0  0  0
  185.9440  177.6340  144.9500 C   0  0  0  0  0  3  0  0  0  0  0  0
  186.2450  179.5380  140.6230 O   0  0  0  0  0  0  0  0  0  0  0  0
  190.3680  177.3880  142.9650 C   0  0  0  0  0  3  0  0  0  0  0  0
  189.5660  177.4220  144.1120 C   0  0  0  0  0  0  0  0  0  0  0  0
  189.4180  177.6310  139.3860 C   0  0  1  0  0  3  0  0  0  0  0  0
  188.4600  177.8650  141.5690 C   0  0  0  0  0  0  0  0  0  0  0  0
  187.3150  177.4620  145.0660 C   0  0  0  0  0  3  0  0  0  0  0  0
  191.9820  176.1630  146.7640 C   0  0  0  0  0  0  0  0  0  0  0  0
  191.4140  176.6920  147.9260 C   0  0  0  0  0  3  0  0  0  0  0  0
  190.2250  177.1850  145.4260 C   0  0  0  0  0  0  0  0  0  0  0  0
  190.2520  177.4620  147.8450 C   0  0  0  0  0  3  0  0  0  0  0  0
  191.3870  176.4030  145.5230 C   0  0  0  0  0  3  0  0  0  0  0  0
  189.6580  177.7040  146.6020 C   0  0  0  0  0  3  0  0  0  0  0  0
  193.1060  175.4110  146.8420 F   0  0  0  0  0  0  0  0  0  0  0  0
  189.3800  176.5050  138.4690 N   0  0  0  0  0  2  0  0  0  0  0  0
  188.1290  176.5330  137.8410 N   0  0  0  0  0  2  0  0  0  0  0  0
  186.6940  176.3960  135.4630 O   0  0  0  0  0  0  0  0  0  0  0  0
  187.9640  175.2540  137.1670 C   0  0  1  0  0  3  0  0  0  0  0  0
  187.4970  175.4690  135.7490 C   0  0  0  0  0  0  0  0  0  0  0  0
  188.8620  173.5500  135.0390 C   0  0  0  0  0  2  0  0  0  0  0  0
  188.9790  173.3170  136.5460 C   0  0  0  0  0  2  0  0  0  0  0  0
  189.1890  174.5530  137.1860 O   0  0  0  0  0  0  0  0  0  0  0  0
  187.8760  174.5470  134.7700 O   0  0  0  0  0  0  0  0  0  0  0  0
  1 12  1  0  0  0  0
  2  8  1  0  0  0  0
  3 11  1  0  0  0  0
  4 14  2  0  0  0  0
  5 10  2  0  0  0  0
  6  2  1  0  0  0  0
  6  5  1  0  0  0  0
  7 17  1  0  0  0  0
  8  3  1  0  0  0  0
  8  1  2  0  0  0  0
  9  4  1  0  0  0  0
 10  1  1  0  0  0  0
 11 15  2  0  0  0  0
 11 18  1  0  0  0  0
 12 18  2  0  0  0  0
 13  2  2  0  0  0  0
 14 15  1  0  0  0  0
 15 21  1  0  0  0  0
 16 26  1  6  0  0  0
 16  7  1  0  0  0  0
 16  9  1  0  0  0  0
 17  4  1  0  0  0  0
 17  3  2  0  0  0  0
 19 25  1  0  0  0  0
 19 20  1  0  0  0  0
 21 23  1  0  0  0  0
 21 24  2  0  0  0  0
 22 20  2  0  0  0  0
 23 19  2  0  0  0  0
 24 22  1  0  0  0  0
 27 26  1  0  0  0  0
 28 30  2  0  0  0  0
 29 33  1  0  0  0  0
 29 27  1  6  0  0  0
 30 29  1  0  0  0  0
 31 32  1  0  0  0  0
 32 33  1  0  0  0  0
 34 31  1  0  0  0  0
 34 30  1  0  0  0  0
M  END
>  <MODEL>
6

>  <REMARK>
 VINA RESULT:     -10.1      3.784      5.883
  Name = 
  4 active torsions:
  status: ('A' for Active; 'I' for Inactive)
    1  A    between atoms: N_3  and  C_13
    2  A    between atoms: N_3  and  N_17
    3  A    between atoms: C_12  and  C_28
    4  A    between atoms: N_17  and  C_29
                            x       y       z     vdW  Elec       q    Type
                         _______ _______ _______ _____ _____    ______ ____

>  <TORSDO>
F 4

$$$$
=
 OpenBabel10272400033D

 34 39  0  0  1  0  0  0  0  0999 V2000
  183.6200  178.5480  142.1700 C   0  0  0  0  0  0  0  0  0  0  0  0
  184.3610  179.3310  140.0190 C   0  0  0  0  0  0  0  0  0  0  0  0
  186.0300  178.4410  141.7140 C   0  0  0  0  0  0  0  0  0  0  0  0
  188.4020  178.0290  141.3580 C   0  0  0  0  0  0  0  0  0  0  0  0
  182.0520  179.1430  140.5090 C   0  0  0  0  0  3  0  0  0  0  0  0
  183.0580  179.4680  139.6630 N   0  0  0  0  0  2  0  0  0  0  0  0
  187.1480  178.0110  139.3870 C   0  0  0  0  0  2  0  0  0  0  0  0
  184.6990  178.7510  141.2710 C   0  0  0  0  0  0  0  0  0  0  0  0
  189.4130  177.7730  140.3120 C   0  0  0  0  0  2  0  0  0  0  0  0
  182.3370  178.7130  141.7600 N   0  0  0  0  0  0  0  0  0  0  0  0
  186.2520  178.2170  143.1120 C   0  0  0  0  0  0  0  0  0  0  0  0
  183.8550  178.2230  143.4990 C   0  0  0  0  0  3  0  0  0  0  0  0
  185.2360  179.8080  139.2530 O   0  0  0  0  0  0  0  0  0  0  0  0
  188.6380  177.9290  142.7180 C   0  0  0  0  0  3  0  0  0  0  0  0
  187.5710  178.0310  143.6200 C   0  0  0  0  0  0  0  0  0  0  0  0
  188.6240  177.8850  139.0080 C   0  0  1  0  0  3  0  0  0  0  0  0
  187.1440  178.2590  140.8540 C   0  0  0  0  0  0  0  0  0  0  0  0
  185.1530  178.0910  143.9690 C   0  0  0  0  0  3  0  0  0  0  0  0
  189.3900  177.2910  146.8760 C   0  0  0  0  0  0  0  0  0  0  0  0
  188.4100  177.6140  147.8170 C   0  0  0  0  0  3  0  0  0  0  0  0
  187.8780  177.9070  145.0720 C   0  0  0  0  0  0  0  0  0  0  0  0
  187.1630  178.0770  147.3930 C   0  0  0  0  0  3  0  0  0  0  0  0
  189.1230  177.4310  145.5110 C   0  0  0  0  0  3  0  0  0  0  0  0
  186.8960  178.2190  146.0280 C   0  0  0  0  0  3  0  0  0  0  0  0
  190.5990  176.8360  147.2860 F   0  0  0  0  0  0  0  0  0  0  0  0
  188.8230  176.6940  138.2010 N   0  0  0  0  0  2  0  0  0  0  0  0
  190.0720  176.1660  138.5520 N   0  0  0  0  0  2  0  0  0  0  0  0
  192.6950  176.9240  139.0740 O   0  0  0  0  0  0  0  0  0  0  0  0
  190.9770  176.4480  137.4490 C   0  0  1  0  0  3  0  0  0  0  0  0
  192.4040  176.4660  137.9370 C   0  0  0  0  0  0  0  0  0  0  0  0
  193.1150  175.4580  135.8100 C   0  0  0  0  0  2  0  0  0  0  0  0
  191.6840  175.7950  135.3900 C   0  0  0  0  0  2  0  0  0  0  0  0
  190.8090  175.4720  136.4430 O   0  0  0  0  0  0  0  0  0  0  0  0
  193.4190  176.0750  137.0610 O   0  0  0  0  0  0  0  0  0  0  0  0
  1 12  1  0  0  0  0
  2  8  1  0  0  0  0
  3 11  1  0  0  0  0
  4 14  2  0  0  0  0
  5 10  2  0  0  0  0
  6  2  1  0  0  0  0
  6  5  1  0  0  0  0
  7 17  1  0  0  0  0
  8  3  1  0  0  0  0
  8  1  2  0  0  0  0
  9  4  1  0  0  0  0
 10  1  1  0  0  0  0
 11 15  2  0  0  0  0
 11 18  1  0  0  0  0
 12 18  2  0  0  0  0
 13  2  2  0  0  0  0
 14 15  1  0  0  0  0
 15 21  1  0  0  0  0
 16 26  1  6  0  0  0
 16  7  1  0  0  0  0
 16  9  1  0  0  0  0
 17  4  1  0  0  0  0
 17  3  2  0  0  0  0
 19 25  1  0  0  0  0
 19 20  1  0  0  0  0
 21 23  1  0  0  0  0
 21 24  2  0  0  0  0
 22 20  2  0  0  0  0
 23 19  2  0  0  0  0
 24 22  1  0  0  0  0
 26 27  1  0  0  0  0
 29 30  1  0  0  0  0
 29 27  1  1  0  0  0
 30 28  2  0  0  0  0
 31 34  1  0  0  0  0
 32 31  1  0  0  0  0
 32 33  1  0  0  0  0
 33 29  1  0  0  0  0
 34 30  1  0  0  0  0
M  END
>  <MODEL>
7

>  <REMARK>
 VINA RESULT:      -9.9      3.419      5.840
  Name = 
  4 active torsions:
  status: ('A' for Active; 'I' for Inactive)
    1  A    between atoms: N_3  and  C_13
    2  A    between atoms: N_3  and  N_17
    3  A    between atoms: C_12  and  C_28
    4  A    between atoms: N_17  and  C_29
                            x       y       z     vdW  Elec       q    Type
                         _______ _______ _______ _____ _____    ______ ____

>  <TORSDO>
F 4

$$$$
=
 OpenBabel10272400033D

 34 39  0  0  1  0  0  0  0  0999 V2000
  191.0590  177.4660  141.2350 C   0  0  0  0  0  0  0  0  0  0  0  0
  189.5060  176.9810  139.4630 C   0  0  0  0  0  0  0  0  0  0  0  0
  188.6700  177.6370  141.7700 C   0  0  0  0  0  0  0  0  0  0  0  0
  186.3690  178.0960  142.4190 C   0  0  0  0  0  0  0  0  0  0  0  0
  191.8310  177.0980  139.0350 C   0  0  0  0  0  3  0  0  0  0  0  0
  190.5610  176.8920  138.6130 N   0  0  0  0  0  2  0  0  0  0  0  0
  186.7660  178.3790  140.1340 C   0  0  0  0  0  2  0  0  0  0  0  0
  189.7080  177.3880  140.8100 C   0  0  0  0  0  0  0  0  0  0  0  0
  185.0480  178.4930  141.8890 C   0  0  0  0  0  2  0  0  0  0  0  0
  192.0750  177.3560  140.3410 N   0  0  0  0  0  0  0  0  0  0  0  0
  189.0150  177.6700  143.1610 C   0  0  0  0  0  0  0  0  0  0  0  0
  191.3720  177.6080  142.5800 C   0  0  0  0  0  3  0  0  0  0  0  0
  188.3790  176.6140  139.0450 O   0  0  0  0  0  0  0  0  0  0  0  0
  186.6810  178.0110  143.7650 C   0  0  0  0  0  3  0  0  0  0  0  0
  188.0060  177.7870  144.1600 C   0  0  0  0  0  0  0  0  0  0  0  0
  185.2670  178.5570  140.3780 C   0  0  1  0  0  3  0  0  0  0  0  0
  187.3210  177.9350  141.4410 C   0  0  0  0  0  0  0  0  0  0  0  0
  190.3650  177.6770  143.5310 C   0  0  0  0  0  3  0  0  0  0  0  0
  189.7870  177.1960  147.4670 C   0  0  0  0  0  0  0  0  0  0  0  0
  188.7810  177.5160  148.3810 C   0  0  0  0  0  3  0  0  0  0  0  0
  188.2890  177.7140  145.6200 C   0  0  0  0  0  0  0  0  0  0  0  0
  187.5280  177.9290  147.9230 C   0  0  0  0  0  3  0  0  0  0  0  0
  189.5410  177.2880  146.0950 C   0  0  0  0  0  3  0  0  0  0  0  0
  187.2820  178.0230  146.5500 C   0  0  0  0  0  3  0  0  0  0  0  0
  191.0010  176.7890  147.9100 F   0  0  0  0  0  0  0  0  0  0  0  0
  184.8370  179.8470  139.8670 N   0  0  0  0  0  2  0  0  0  0  0  0
  184.0530  179.5970  138.7330 N   0  0  0  0  0  2  0  0  0  0  0  0
  182.1960  181.6460  138.4480 O   0  0  0  0  0  0  0  0  0  0  0  0
  182.6870  179.4050  139.1970 C   0  0  1  0  0  3  0  0  0  0  0  0
  181.7860  180.4660  138.6140 C   0  0  0  0  0  0  0  0  0  0  0  0
  179.9820  178.8040  138.4500 C   0  0  0  0  0  2  0  0  0  0  0  0
  180.9300  177.9680  139.3120 C   0  0  0  0  0  2  0  0  0  0  0  0
  182.2420  178.1180  138.8260 O   0  0  0  0  0  0  0  0  0  0  0  0
  180.4480  180.1510  138.3700 O   0  0  0  0  0  0  0  0  0  0  0  0
  1 12  1  0  0  0  0
  2  8  1  0  0  0  0
  3 11  1  0  0  0  0
  4 14  2  0  0  0  0
  5 10  2  0  0  0  0
  6  5  1  0  0  0  0
  6  2  1  0  0  0  0
  7 16  1  0  0  0  0
  7 17  1  0  0  0  0
  8  1  2  0  0  0  0
  8  3  1  0  0  0  0
  9  4  1  0  0  0  0
 10  1  1  0  0  0  0
 11 18  1  0  0  0  0
 11 15  2  0  0  0  0
 12 18  2  0  0  0  0
 13  2  2  0  0  0  0
 14 15  1  0  0  0  0
 15 21  1  0  0  0  0
 16 26  1  1  0  0  0
 16  9  1  0  0  0  0
 17  3  2  0  0  0  0
 17  4  1  0  0  0  0
 19 25  1  0  0  0  0
 19 20  1  0  0  0  0
 21 23  1  0  0  0  0
 21 24  2  0  0  0  0
 22 20  2  0  0  0  0
 23 19  2  0  0  0  0
 24 22  1  0  0  0  0
 27 26  1  0  0  0  0
 28 30  2  0  0  0  0
 29 27  1  6  0  0  0
 30 29  1  0  0  0  0
 31 32  1  0  0  0  0
 33 29  1  0  0  0  0
 33 32  1  0  0  0  0
 34 31  1  0  0  0  0
 34 30  1  0  0  0  0
M  END
>  <MODEL>
8

>  <REMARK>
 VINA RESULT:      -9.9      4.492      7.511
  Name = 
  4 active torsions:
  status: ('A' for Active; 'I' for Inactive)
    1  A    between atoms: N_3  and  C_13
    2  A    between atoms: N_3  and  N_17
    3  A    between atoms: C_12  and  C_28
    4  A    between atoms: N_17  and  C_29
                            x       y       z     vdW  Elec       q    Type
                         _______ _______ _______ _____ _____    ______ ____

>  <TORSDO>
F 4

$$$$
=
 OpenBabel10272400033D

 34 39  0  0  1  0  0  0  0  0999 V2000
  191.1650  177.5690  141.3980 C   0  0  0  0  0  0  0  0  0  0  0  0
  189.6670  177.0290  139.5940 C   0  0  0  0  0  0  0  0  0  0  0  0
  188.7590  177.6940  141.8720 C   0  0  0  0  0  0  0  0  0  0  0  0
  186.4340  178.1110  142.4560 C   0  0  0  0  0  0  0  0  0  0  0  0
  191.9990  177.1910  139.2230 C   0  0  0  0  0  3  0  0  0  0  0  0
  190.7460  176.9520  138.7730 N   0  0  0  0  0  2  0  0  0  0  0  0
  186.8820  178.3740  140.1790 C   0  0  0  0  0  2  0  0  0  0  0  0
  189.8270  177.4560  140.9400 C   0  0  0  0  0  0  0  0  0  0  0  0
  185.1180  178.4720  141.8890 C   0  0  0  0  0  2  0  0  0  0  0  0
  192.2050  177.4700  140.5320 N   0  0  0  0  0  0  0  0  0  0  0  0
  189.0690  177.7520  143.2700 C   0  0  0  0  0  0  0  0  0  0  0  0
  191.4410  177.7340  142.7490 C   0  0  0  0  0  3  0  0  0  0  0  0
  188.5600  176.6320  139.1540 O   0  0  0  0  0  0  0  0  0  0  0  0
  186.7140  178.0490  143.8110 C   0  0  0  0  0  3  0  0  0  0  0  0
  188.0320  177.8590  144.2420 C   0  0  0  0  0  0  0  0  0  0  0  0
  185.3730  178.5220  140.3840 C   0  0  1  0  0  3  0  0  0  0  0  0
  187.4130  177.9580  141.5050 C   0  0  0  0  0  0  0  0  0  0  0  0
  190.4090  177.7930  143.6730 C   0  0  0  0  0  3  0  0  0  0  0  0
  189.7450  177.3560  147.5990 C   0  0  0  0  0  0  0  0  0  0  0  0
  188.7080  177.6570  148.4840 C   0  0  0  0  0  3  0  0  0  0  0  0
  188.2810  177.8100  145.7090 C   0  0  0  0  0  0  0  0  0  0  0  0
  187.4550  178.0290  147.9890 C   0  0  0  0  0  3  0  0  0  0  0  0
  189.5310  177.4260  146.2200 C   0  0  0  0  0  3  0  0  0  0  0  0
  187.2420  178.1010  146.6100 C   0  0  0  0  0  3  0  0  0  0  0  0
  190.9590  176.9890  148.0780 F   0  0  0  0  0  0  0  0  0  0  0  0
  184.9290  179.7960  139.8450 N   0  0  0  0  0  2  0  0  0  0  0  0
  183.5420  179.7050  139.6730 N   0  0  0  0  0  2  0  0  0  0  0  0
  181.6780  178.0260  140.8710 O   0  0  0  0  0  0  0  0  0  0  0  0
  183.2710  178.3970  139.0960 C   0  0  1  0  0  3  0  0  0  0  0  0
  181.9930  177.8320  139.6660 C   0  0  0  0  0  0  0  0  0  0  0  0
  181.4930  176.8310  137.4760 C   0  0  0  0  0  2  0  0  0  0  0  0
  182.9400  177.2260  137.1770 C   0  0  0  0  0  2  0  0  0  0  0  0
  183.1790  178.5130  137.6920 O   0  0  0  0  0  0  0  0  0  0  0  0
  181.2180  176.9870  138.8690 O   0  0  0  0  0  0  0  0  0  0  0  0
  1 12  1  0  0  0  0
  2  8  1  0  0  0  0
  3 11  1  0  0  0  0
  4 14  2  0  0  0  0
  5 10  2  0  0  0  0
  6  5  1  0  0  0  0
  6  2  1  0  0  0  0
  7 16  1  0  0  0  0
  7 17  1  0  0  0  0
  8  1  2  0  0  0  0
  8  3  1  0  0  0  0
  9  4  1  0  0  0  0
 10  1  1  0  0  0  0
 11 18  1  0  0  0  0
 11 15  2  0  0  0  0
 12 18  2  0  0  0  0
 13  2  2  0  0  0  0
 14 15  1  0  0  0  0
 15 21  1  0  0  0  0
 16 26  1  1  0  0  0
 16  9  1  0  0  0  0
 17  3  2  0  0  0  0
 17  4  1  0  0  0  0
 19 25  1  0  0  0  0
 19 20  1  0  0  0  0
 21 23  1  0  0  0  0
 21 24  2  0  0  0  0
 22 20  2  0  0  0  0
 23 19  2  0  0  0  0
 24 22  1  0  0  0  0
 27 26  1  0  0  0  0
 29 30  1  0  0  0  0
 29 27  1  1  0  0  0
 30 28  2  0  0  0  0
 31 34  1  0  0  0  0
 32 31  1  0  0  0  0
 32 33  1  0  0  0  0
 33 29  1  0  0  0  0
 34 30  1  0  0  0  0
M  END
>  <MODEL>
9

>  <REMARK>
 VINA RESULT:      -9.8      4.329      7.018
  Name = 
  4 active torsions:
  status: ('A' for Active; 'I' for Inactive)
    1  A    between atoms: N_3  and  C_13
    2  A    between atoms: N_3  and  N_17
    3  A    between atoms: C_12  and  C_28
    4  A    between atoms: N_17  and  C_29
                            x       y       z     vdW  Elec       q    Type
                         _______ _______ _______ _____ _____    ______ ____

>  <TORSDO>
F 4

$$$$
