=
 OpenBabel10272400033D

 34 40  0  0  1  0  0  0  0  0999 V2000
  189.8950  176.8350  140.3760 C   0  0  0  0  0  0  0  0  0  0  0  0
  187.9750  178.2060  139.7690 C   0  0  0  0  0  0  0  0  0  0  0  0
  188.2190  177.3900  142.0440 C   0  0  0  0  0  0  0  0  0  0  0  0
  186.5680  178.0640  143.8460 C   0  0  1  0  0  3  0  0  0  0  0  0
  189.6090  177.5850  138.0900 C   0  0  0  0  0  3  0  0  0  0  0  0
  188.4270  178.2450  138.4460 C   0  0  0  0  0  3  0  0  0  0  0  0
  186.5000  179.1170  141.5190 C   0  0  0  0  0  2  0  0  0  0  0  0
  188.6950  177.4790  140.7290 C   0  0  0  0  0  0  0  0  0  0  0  0
  190.3460  176.8850  139.0540 C   0  0  0  0  0  3  0  0  0  0  0  0
  188.9880  176.7100  143.0090 C   0  0  0  0  0  0  0  0  0  0  0  0
  190.6020  176.1580  141.3200 N   0  0  0  0  0  0  0  0  0  0  0  0
  186.8130  178.8930  140.1420 O   0  0  0  0  0  0  0  0  0  0  0  0
  187.0630  176.8340  144.6020 C   0  0  0  0  0  2  0  0  0  0  0  0
  188.5820  176.6860  144.4640 C   0  0  2  0  0  3  0  0  0  0  0  0
  186.8110  177.8640  142.3450 C   0  0  1  0  0  3  0  0  0  0  0  0
  190.1820  176.0900  142.6130 C   0  0  0  0  0  3  0  0  0  0  0  0
  190.7650  177.5610  145.4260 C   0  0  0  0  0  0  0  0  0  0  0  0
  191.2580  176.8160  146.9580 S   0  0  0  0  0  0  0  0  0  0  0  0
  188.7240  177.9120  146.7200 C   0  0  1  0  0  3  0  0  0  0  0  0
  189.7760  177.5090  147.7560 C   0  0  1  0  0  3  0  0  0  0  0  0
  189.2990  177.7710  145.3010 C   0  0  2  0  0  3  0  0  0  0  0  0
  188.6100  176.5910  147.4660 C   0  0  0  0  0  2  0  0  0  0  0  0
  191.5920  178.4100  144.8230 C   0  0  0  0  0  2  0  0  0  0  0  0
  185.0850  178.2440  144.1530 C   0  0  0  0  0  2  0  0  0  0  0  0
  184.8370  179.5170  144.6740 O   0  0  0  0  0  0  0  0  0  0  0  0
  183.6500  179.8890  144.1360 N   0  0  0  0  0  2  0  0  0  0  0  0
  183.0210  178.6840  143.6260 C   0  0  0  0  0  2  0  0  0  0  0  0
  183.3320  179.1150  140.3760 O   0  0  0  0  0  1  0  0  0  0  0  0
  182.1170  179.0300  142.4570 C   0  0  1  0  0  3  0  0  0  0  0  0
  182.5800  178.2740  141.2000 C   0  0  1  0  0  3  0  0  0  0  0  0
  180.4820  178.6800  140.3300 C   0  0  0  0  0  2  0  0  0  0  0  0
  179.9870  179.1860  141.6980 C   0  0  0  0  0  2  0  0  0  0  0  0
  180.7820  178.6930  142.7530 O   0  0  0  0  0  0  0  0  0  0  0  0
  181.4970  177.7100  140.4830 O   0  0  0  0  0  0  0  0  0  0  0  0
  1  8  2  0  0  0  0
  1 11  1  0  0  0  0
  2 12  1  0  0  0  0
  2  8  1  0  0  0  0
  3 15  1  0  0  0  0
  3 10  2  0  0  0  0
  4 24  1  6  0  0  0
  4 13  1  0  0  0  0
  5  6  1  0  0  0  0
  5  9  2  0  0  0  0
  6  2  2  0  0  0  0
  8  3  1  0  0  0  0
  9  1  1  0  0  0  0
 10 14  1  0  0  0  0
 11 16  2  0  0  0  0
 12  7  1  0  0  0  0
 14 13  1  6  0  0  0
 14 21  1  0  0  0  0
 15  7  1  6  0  0  0
 15  4  1  0  0  0  0
 16 10  1  0  0  0  0
 17 18  1  0  0  0  0
 18 20  1  0  0  0  0
 19 22  1  6  0  0  0
 19 20  1  0  0  0  0
 20 22  1  1  0  0  0
 21 17  1  1  0  0  0
 21 19  1  0  0  0  0
 23 17  2  0  0  0  0
 24 25  1  0  0  0  0
 26 25  1  0  0  0  0
 27 26  1  0  0  0  0
 29 33  1  0  0  0  0
 29 27  1  1  0  0  0
 30 28  1  6  0  0  0
 30 29  1  0  0  0  0
 31 34  1  0  0  0  0
 31 32  1  0  0  0  0
 32 33  1  0  0  0  0
 34 30  1  0  0  0  0
M  END
>  <MODEL>
1

>  <REMARK>
 VINA RESULT:      -9.3      0.000      0.000
  Name = 
  6 active torsions:
  status: ('A' for Active; 'I' for Inactive)
    1  A    between atoms: C_3  and  C_13
    2  A    between atoms: C_3  and  N_17
    3  A    between atoms: C_5  and  C_18
    4  A    between atoms: N_17  and  O_29
    5  A    between atoms: C_18  and  O_29
    6  A    between atoms: C_23  and  C_28
                            x       y       z     vdW  Elec       q    Type
                         _______ _______ _______ _____ _____    ______ ____

>  <TORSDO>
F 6

$$$$
=
 OpenBabel10272400033D

 34 40  0  0  1  0  0  0  0  0999 V2000
  187.7320  177.9410  137.9850 C   0  0  0  0  0  0  0  0  0  0  0  0
  188.7790  177.9460  140.1860 C   0  0  0  0  0  0  0  0  0  0  0  0
  186.3980  178.3770  139.9670 C   0  0  0  0  0  0  0  0  0  0  0  0
  184.9460  178.6970  142.0210 C   0  0  1  0  0  3  0  0  0  0  0  0
  190.1200  177.5880  138.1990 C   0  0  0  0  0  3  0  0  0  0  0  0
  190.0220  177.7100  139.5900 C   0  0  0  0  0  3  0  0  0  0  0  0
  187.3880  177.9720  142.2190 C   0  0  0  0  0  2  0  0  0  0  0  0
  187.6380  178.0870  139.3820 C   0  0  0  0  0  0  0  0  0  0  0  0
  188.9770  177.6970  137.3970 C   0  0  0  0  0  3  0  0  0  0  0  0
  185.2520  178.4520  139.1500 C   0  0  0  0  0  0  0  0  0  0  0  0
  186.6170  178.0490  137.2170 N   0  0  0  0  0  0  0  0  0  0  0  0
  188.6650  178.0340  141.5790 O   0  0  0  0  0  0  0  0  0  0  0  0
  183.9630  179.3870  141.0800 C   0  0  0  0  0  2  0  0  0  0  0  0
  183.8750  178.6430  139.7430 C   0  0  2  0  0  3  0  0  0  0  0  0
  186.3570  178.7840  141.4270 C   0  0  1  0  0  3  0  0  0  0  0  0
  185.3940  178.2910  137.7650 C   0  0  0  0  0  3  0  0  0  0  0  0
  182.8450  176.5920  138.6530 C   0  0  0  0  0  0  0  0  0  0  0  0
  181.2010  176.8240  138.0320 S   0  0  0  0  0  0  0  0  0  0  0  0
  181.7760  177.4790  140.6610 C   0  0  1  0  0  3  0  0  0  0  0  0
  180.6150  177.1230  139.7290 C   0  0  1  0  0  3  0  0  0  0  0  0
  183.1150  177.3090  139.9270 C   0  0  2  0  0  3  0  0  0  0  0  0
  180.8910  178.5690  140.0760 C   0  0  0  0  0  2  0  0  0  0  0  0
  183.4720  175.4450  138.4130 C   0  0  0  0  0  2  0  0  0  0  0  0
  184.8670  179.3870  143.3780 C   0  0  0  0  0  2  0  0  0  0  0  0
  184.7230  178.4490  144.4040 O   0  0  0  0  0  0  0  0  0  0  0  0
  185.4020  178.9720  145.4540 N   0  0  0  0  0  2  0  0  0  0  0  0
  185.8960  177.8540  146.2380 C   0  0  0  0  0  2  0  0  0  0  0  0
  188.1040  178.5020  148.5940 O   0  0  0  0  0  1  0  0  0  0  0  0
  187.4070  177.9350  146.3570 C   0  0  1  0  0  3  0  0  0  0  0  0
  187.8480  177.4270  147.7390 C   0  0  1  0  0  3  0  0  0  0  0  0
  189.9550  177.1600  146.8370 C   0  0  0  0  0  2  0  0  0  0  0  0
  189.4060  177.4190  145.4210 C   0  0  0  0  0  2  0  0  0  0  0  0
  188.0200  177.1680  145.3470 O   0  0  0  0  0  0  0  0  0  0  0  0
  188.9740  176.5700  147.6630 O   0  0  0  0  0  0  0  0  0  0  0  0
  1  8  1  0  0  0  0
  2 12  1  0  0  0  0
  3 15  1  0  0  0  0
  4 24  1  1  0  0  0
  5  6  2  0  0  0  0
  6  2  1  0  0  0  0
  8  3  1  0  0  0  0
  8  2  2  0  0  0  0
  9  1  2  0  0  0  0
  9  5  1  0  0  0  0
 10 14  1  0  0  0  0
 10  3  2  0  0  0  0
 11 16  2  0  0  0  0
 11  1  1  0  0  0  0
 12  7  1  0  0  0  0
 13  4  1  0  0  0  0
 14 21  1  0  0  0  0
 14 13  1  1  0  0  0
 15  4  1  0  0  0  0
 15  7  1  1  0  0  0
 16 10  1  0  0  0  0
 18 17  1  0  0  0  0
 18 20  1  0  0  0  0
 19 22  1  6  0  0  0
 20 22  1  6  0  0  0
 20 19  1  0  0  0  0
 21 17  1  6  0  0  0
 21 19  1  0  0  0  0
 23 17  2  0  0  0  0
 24 25  1  0  0  0  0
 25 26  1  0  0  0  0
 26 27  1  0  0  0  0
 29 27  1  1  0  0  0
 29 30  1  0  0  0  0
 30 28  1  1  0  0  0
 31 34  1  0  0  0  0
 32 31  1  0  0  0  0
 33 32  1  0  0  0  0
 33 29  1  0  0  0  0
 34 30  1  0  0  0  0
M  END
>  <MODEL>
2

>  <REMARK>
 VINA RESULT:      -7.7      3.374      7.100
  Name = 
  6 active torsions:
  status: ('A' for Active; 'I' for Inactive)
    1  A    between atoms: C_3  and  C_13
    2  A    between atoms: C_3  and  N_17
    3  A    between atoms: C_5  and  C_18
    4  A    between atoms: N_17  and  O_29
    5  A    between atoms: C_18  and  O_29
    6  A    between atoms: C_23  and  C_28
                            x       y       z     vdW  Elec       q    Type
                         _______ _______ _______ _____ _____    ______ ____

>  <TORSDO>
F 6

$$$$
=
 OpenBabel10272400033D

 34 40  0  0  1  0  0  0  0  0999 V2000
  185.2150  178.8050  139.7150 C   0  0  0  0  0  0  0  0  0  0  0  0
  185.6840  177.4710  137.7310 C   0  0  0  0  0  0  0  0  0  0  0  0
  187.4150  177.8270  139.3970 C   0  0  0  0  0  0  0  0  0  0  0  0
  189.6790  176.7070  139.1720 C   0  0  1  0  0  3  0  0  0  0  0  0
  183.5140  178.5130  138.0140 C   0  0  0  0  0  3  0  0  0  0  0  0
  184.3920  177.7240  137.2610 C   0  0  0  0  0  3  0  0  0  0  0  0
  187.7520  176.1400  137.5930 C   0  0  0  0  0  2  0  0  0  0  0  0
  186.1050  178.0320  138.9460 C   0  0  0  0  0  0  0  0  0  0  0  0
  183.9220  179.0480  139.2430 C   0  0  0  0  0  3  0  0  0  0  0  0
  187.8010  178.3450  140.6500 C   0  0  0  0  0  0  0  0  0  0  0  0
  185.6220  179.3200  140.9050 N   0  0  0  0  0  0  0  0  0  0  0  0
  186.5560  176.6540  137.0010 O   0  0  0  0  0  0  0  0  0  0  0  0
  190.1830  177.7880  140.1250 C   0  0  0  0  0  2  0  0  0  0  0  0
  189.1620  178.0510  141.2370 C   0  0  2  0  0  3  0  0  0  0  0  0
  188.4280  177.2180  138.4470 C   0  0  1  0  0  3  0  0  0  0  0  0
  186.8770  179.1020  141.3840 C   0  0  0  0  0  3  0  0  0  0  0  0
  188.5620  177.2050  143.5560 C   0  0  0  0  0  0  0  0  0  0  0  0
  189.7740  177.5330  144.8070 S   0  0  0  0  0  0  0  0  0  0  0  0
  190.5320  176.2580  142.4670 C   0  0  1  0  0  3  0  0  0  0  0  0
  190.9560  176.4690  143.9230 C   0  0  1  0  0  3  0  0  0  0  0  0
  189.1400  176.8660  142.2290 C   0  0  2  0  0  3  0  0  0  0  0  0
  191.5960  177.2860  142.8220 C   0  0  0  0  0  2  0  0  0  0  0  0
  187.3970  176.6690  143.9080 C   0  0  0  0  0  2  0  0  0  0  0  0
  190.7990  176.3810  138.1910 C   0  0  0  0  0  2  0  0  0  0  0  0
  191.1150  175.0200  138.2330 O   0  0  0  0  0  0  0  0  0  0  0  0
  191.9880  174.8320  137.2140 N   0  0  0  0  0  2  0  0  0  0  0  0
  193.1260  175.6990  137.4660 C   0  0  0  0  0  2  0  0  0  0  0  0
  195.2810  173.9170  135.7270 O   0  0  0  0  0  1  0  0  0  0  0  0
  194.3610  174.8620  137.7450 C   0  0  1  0  0  3  0  0  0  0  0  0
  195.3630  175.0130  136.5900 C   0  0  1  0  0  3  0  0  0  0  0  0
  196.9720  174.2220  138.0430 C   0  0  0  0  0  2  0  0  0  0  0  0
  195.9950  174.3420  139.2270 C   0  0  0  0  0  2  0  0  0  0  0  0
  194.9600  175.2610  138.9560 O   0  0  0  0  0  0  0  0  0  0  0  0
  196.6920  175.1870  137.0510 O   0  0  0  0  0  0  0  0  0  0  0  0
  1 11  1  0  0  0  0
  2  8  1  0  0  0  0
  3 10  2  0  0  0  0
  4 24  1  6  0  0  0
  4 13  1  0  0  0  0
  5  9  2  0  0  0  0
  6  2  2  0  0  0  0
  6  5  1  0  0  0  0
  8  3  1  0  0  0  0
  8  1  2  0  0  0  0
  9  1  1  0  0  0  0
 10 14  1  0  0  0  0
 10 16  1  0  0  0  0
 11 16  2  0  0  0  0
 12  7  1  0  0  0  0
 12  2  1  0  0  0  0
 14 13  1  6  0  0  0
 14 21  1  0  0  0  0
 15  7  1  1  0  0  0
 15  4  1  0  0  0  0
 15  3  1  0  0  0  0
 17 23  2  0  0  0  0
 17 18  1  0  0  0  0
 19 22  1  6  0  0  0
 19 20  1  0  0  0  0
 20 22  1  6  0  0  0
 20 18  1  0  0  0  0
 21 19  1  0  0  0  0
 21 17  1  1  0  0  0
 24 25  1  0  0  0  0
 26 27  1  0  0  0  0
 26 25  1  0  0  0  0
 29 27  1  6  0  0  0
 29 33  1  0  0  0  0
 30 28  1  6  0  0  0
 30 34  1  0  0  0  0
 30 29  1  0  0  0  0
 31 32  1  0  0  0  0
 33 32  1  0  0  0  0
 34 31  1  0  0  0  0
M  END
>  <MODEL>
3

>  <REMARK>
 VINA RESULT:      -7.6      4.353      8.707
  Name = 
  6 active torsions:
  status: ('A' for Active; 'I' for Inactive)
    1  A    between atoms: C_3  and  C_13
    2  A    between atoms: C_3  and  N_17
    3  A    between atoms: C_5  and  C_18
    4  A    between atoms: N_17  and  O_29
    5  A    between atoms: C_18  and  O_29
    6  A    between atoms: C_23  and  C_28
                            x       y       z     vdW  Elec       q    Type
                         _______ _______ _______ _____ _____    ______ ____

>  <TORSDO>
F 6

$$$$
=
 OpenBabel10272400033D

 34 40  0  0  1  0  0  0  0  0999 V2000
  187.4810  177.5740  146.5160 C   0  0  0  0  0  0  0  0  0  0  0  0
  189.8700  177.9460  146.8220 C   0  0  0  0  0  0  0  0  0  0  0  0
  188.9920  177.4110  144.6210 C   0  0  0  0  0  0  0  0  0  0  0  0
  190.5140  177.3700  142.5940 C   0  0  1  0  0  3  0  0  0  0  0  0
  188.3700  178.0310  148.7240 C   0  0  0  0  0  3  0  0  0  0  0  0
  189.6620  178.1240  148.1930 C   0  0  0  0  0  3  0  0  0  0  0  0
  191.3460  178.1930  144.8650 C   0  0  0  0  0  2  0  0  0  0  0  0
  188.7840  177.6450  145.9870 C   0  0  0  0  0  0  0  0  0  0  0  0
  187.2800  177.7620  147.8870 C   0  0  0  0  0  3  0  0  0  0  0  0
  187.8810  177.1730  143.7870 C   0  0  0  0  0  0  0  0  0  0  0  0
  186.4310  177.3120  145.6940 N   0  0  0  0  0  0  0  0  0  0  0  0
  191.1530  178.0720  146.2770 O   0  0  0  0  0  0  0  0  0  0  0  0
  189.4350  176.5110  141.9410 C   0  0  0  0  0  2  0  0  0  0  0  0
  188.0380  177.0350  142.2900 C   0  0  2  0  0  3  0  0  0  0  0  0
  190.4110  177.2360  144.1180 C   0  0  1  0  0  3  0  0  0  0  0  0
  186.6020  177.1200  144.3580 C   0  0  0  0  0  3  0  0  0  0  0  0
  186.3440  178.5290  141.1270 C   0  0  0  0  0  0  0  0  0  0  0  0
  186.0290  178.1210  139.4310 S   0  0  0  0  0  0  0  0  0  0  0  0
  188.6340  178.5240  140.2820 C   0  0  1  0  0  3  0  0  0  0  0  0
  187.7570  178.5220  139.0270 C   0  0  1  0  0  3  0  0  0  0  0  0
  187.7630  178.3560  141.5360 C   0  0  2  0  0  3  0  0  0  0  0  0
  188.6110  177.3170  139.3550 C   0  0  0  0  0  2  0  0  0  0  0  0
  185.6150  179.4740  141.7130 C   0  0  0  0  0  2  0  0  0  0  0  0
  191.8700  176.8980  142.0820 C   0  0  0  0  0  2  0  0  0  0  0  0
  192.2790  177.6610  140.9840 O   0  0  0  0  0  0  0  0  0  0  0  0
  192.1210  176.8450  139.9140 N   0  0  0  0  0  2  0  0  0  0  0  0
  193.3480  176.9200  139.1410 C   0  0  0  0  0  2  0  0  0  0  0  0
  191.2340  174.7280  137.8860 O   0  0  0  0  0  1  0  0  0  0  0  0
  193.1970  176.1290  137.8540 C   0  0  1  0  0  3  0  0  0  0  0  0
  191.7060  175.9870  137.5040 C   0  0  1  0  0  3  0  0  0  0  0  0
  192.3830  175.4920  135.3530 C   0  0  0  0  0  2  0  0  0  0  0  0
  193.8290  175.9050  135.6900 C   0  0  0  0  0  2  0  0  0  0  0  0
  193.8770  176.7710  136.8010 O   0  0  0  0  0  0  0  0  0  0  0  0
  191.4530  176.2180  136.1290 O   0  0  0  0  0  0  0  0  0  0  0  0
  1  9  2  0  0  0  0
  2  6  1  0  0  0  0
  3  8  1  0  0  0  0
  4 24  1  6  0  0  0
  4 15  1  0  0  0  0
  6  5  2  0  0  0  0
  7 12  1  0  0  0  0
  8  1  1  0  0  0  0
  8  2  2  0  0  0  0
  9  5  1  0  0  0  0
 10 16  1  0  0  0  0
 10  3  2  0  0  0  0
 11  1  1  0  0  0  0
 12  2  1  0  0  0  0
 13  4  1  0  0  0  0
 14 13  1  1  0  0  0
 14 10  1  0  0  0  0
 15  3  1  0  0  0  0
 15  7  1  1  0  0  0
 16 11  2  0  0  0  0
 17 23  2  0  0  0  0
 18 17  1  0  0  0  0
 19 22  1  6  0  0  0
 19 21  1  0  0  0  0
 20 22  1  6  0  0  0
 20 18  1  0  0  0  0
 20 19  1  0  0  0  0
 21 17  1  6  0  0  0
 21 14  1  0  0  0  0
 25 24  1  0  0  0  0
 26 25  1  0  0  0  0
 27 26  1  0  0  0  0
 29 27  1  1  0  0  0
 30 29  1  0  0  0  0
 30 28  1  6  0  0  0
 31 32  1  0  0  0  0
 31 34  1  0  0  0  0
 32 33  1  0  0  0  0
 33 29  1  0  0  0  0
 34 30  1  0  0  0  0
M  END
>  <MODEL>
4

>  <REMARK>
 VINA RESULT:      -7.4      4.275      8.494
  Name = 
  6 active torsions:
  status: ('A' for Active; 'I' for Inactive)
    1  A    between atoms: C_3  and  C_13
    2  A    between atoms: C_3  and  N_17
    3  A    between atoms: C_5  and  C_18
    4  A    between atoms: N_17  and  O_29
    5  A    between atoms: C_18  and  O_29
    6  A    between atoms: C_23  and  C_28
                            x       y       z     vdW  Elec       q    Type
                         _______ _______ _______ _____ _____    ______ ____

>  <TORSDO>
F 6

$$$$
=
 OpenBabel10272400033D

 34 40  0  0  1  0  0  0  0  0999 V2000
  187.5430  177.5660  147.0990 C   0  0  0  0  0  0  0  0  0  0  0  0
  189.8660  178.0460  146.5400 C   0  0  0  0  0  0  0  0  0  0  0  0
  188.2340  177.6950  144.7740 C   0  0  0  0  0  0  0  0  0  0  0  0
  188.8860  177.9590  142.3380 C   0  0  1  0  0  3  0  0  0  0  0  0
  189.1870  177.8400  148.8580 C   0  0  0  0  0  3  0  0  0  0  0  0
  190.1840  178.0660  147.9010 C   0  0  0  0  0  3  0  0  0  0  0  0
  190.4960  178.5860  144.2210 C   0  0  0  0  0  2  0  0  0  0  0  0
  188.5500  177.7700  146.1370 C   0  0  0  0  0  0  0  0  0  0  0  0
  187.8670  177.5960  148.4590 C   0  0  0  0  0  3  0  0  0  0  0  0
  186.8960  177.4800  144.3890 C   0  0  0  0  0  0  0  0  0  0  0  0
  186.2650  177.3290  146.7000 N   0  0  0  0  0  0  0  0  0  0  0  0
  190.8490  178.3060  145.5780 O   0  0  0  0  0  0  0  0  0  0  0  0
  187.6550  177.1100  142.0330 C   0  0  0  0  0  2  0  0  0  0  0  0
  186.4820  177.5090  142.9360 C   0  0  2  0  0  3  0  0  0  0  0  0
  189.3640  177.6590  143.7640 C   0  0  1  0  0  3  0  0  0  0  0  0
  185.9260  177.2900  145.3830 C   0  0  0  0  0  3  0  0  0  0  0  0
  184.6160  179.2230  143.1260 C   0  0  0  0  0  0  0  0  0  0  0  0
  183.2190  178.9250  142.0760 S   0  0  0  0  0  0  0  0  0  0  0  0
  185.7620  179.0130  140.9800 C   0  0  1  0  0  3  0  0  0  0  0  0
  184.2820  179.1580  140.6170 C   0  0  1  0  0  3  0  0  0  0  0  0
  185.9230  178.8840  142.5030 C   0  0  2  0  0  3  0  0  0  0  0  0
  185.0030  177.8570  140.3450 C   0  0  0  0  0  2  0  0  0  0  0  0
  184.5620  180.2140  144.0110 C   0  0  0  0  0  2  0  0  0  0  0  0
  189.9580  177.6260  141.3070 C   0  0  0  0  0  2  0  0  0  0  0  0
  189.4020  176.9600  140.2110 O   0  0  0  0  0  0  0  0  0  0  0  0
  190.4430  176.3180  139.6280 N   0  0  0  0  0  2  0  0  0  0  0  0
  190.2420  176.4030  138.1920 C   0  0  0  0  0  2  0  0  0  0  0  0
  188.9660  179.4020  137.7180 O   0  0  0  0  0  1  0  0  0  0  0  0
  188.8780  176.9990  137.8970 C   0  0  1  0  0  3  0  0  0  0  0  0
  189.0320  178.2200  136.9760 C   0  0  1  0  0  3  0  0  0  0  0  0
  186.7930  177.9710  136.4730 C   0  0  0  0  0  2  0  0  0  0  0  0
  186.7600  176.6090  137.1920 C   0  0  0  0  0  2  0  0  0  0  0  0
  188.0460  176.0400  137.2870 O   0  0  0  0  0  0  0  0  0  0  0  0
  188.0720  178.2310  135.9330 O   0  0  0  0  0  0  0  0  0  0  0  0
  1  9  2  0  0  0  0
  2  6  1  0  0  0  0
  3  8  1  0  0  0  0
  4 24  1  6  0  0  0
  4 15  1  0  0  0  0
  6  5  2  0  0  0  0
  7 12  1  0  0  0  0
  8  2  2  0  0  0  0
  8  1  1  0  0  0  0
  9  5  1  0  0  0  0
 10  3  2  0  0  0  0
 10 16  1  0  0  0  0
 11  1  1  0  0  0  0
 12  2  1  0  0  0  0
 13  4  1  0  0  0  0
 14 13  1  6  0  0  0
 14 10  1  0  0  0  0
 15  7  1  1  0  0  0
 15  3  1  0  0  0  0
 16 11  2  0  0  0  0
 17 23  2  0  0  0  0
 18 17  1  0  0  0  0
 19 22  1  6  0  0  0
 19 21  1  0  0  0  0
 20 22  1  6  0  0  0
 20 19  1  0  0  0  0
 20 18  1  0  0  0  0
 21 14  1  0  0  0  0
 21 17  1  1  0  0  0
 25 24  1  0  0  0  0
 26 25  1  0  0  0  0
 27 26  1  0  0  0  0
 29 27  1  6  0  0  0
 30 28  1  1  0  0  0
 30 29  1  0  0  0  0
 31 32  1  0  0  0  0
 32 33  1  0  0  0  0
 33 29  1  0  0  0  0
 34 31  1  0  0  0  0
 34 30  1  0  0  0  0
M  END
>  <MODEL>
5

>  <REMARK>
 VINA RESULT:      -7.4      3.536      7.125
  Name = 
  6 active torsions:
  status: ('A' for Active; 'I' for Inactive)
    1  A    between atoms: C_3  and  C_13
    2  A    between atoms: C_3  and  N_17
    3  A    between atoms: C_5  and  C_18
    4  A    between atoms: N_17  and  O_29
    5  A    between atoms: C_18  and  O_29
    6  A    between atoms: C_23  and  C_28
                            x       y       z     vdW  Elec       q    Type
                         _______ _______ _______ _____ _____    ______ ____

>  <TORSDO>
F 6

$$$$
=
 OpenBabel10272400033D

 34 40  0  0  1  0  0  0  0  0999 V2000
  185.0730  178.7330  139.6810 C   0  0  0  0  0  0  0  0  0  0  0  0
  185.6350  177.4930  137.6600 C   0  0  0  0  0  0  0  0  0  0  0  0
  187.3320  177.9060  139.3500 C   0  0  0  0  0  0  0  0  0  0  0  0
  189.6630  176.9380  139.1080 C   0  0  1  0  0  3  0  0  0  0  0  0
  183.4030  178.3870  137.9590 C   0  0  0  0  0  3  0  0  0  0  0  0
  184.3330  177.6800  137.1880 C   0  0  0  0  0  3  0  0  0  0  0  0
  187.7850  176.3000  137.4970 C   0  0  0  0  0  2  0  0  0  0  0  0
  186.0140  178.0420  138.8950 C   0  0  0  0  0  0  0  0  0  0  0  0
  183.7690  178.9090  139.2060 C   0  0  0  0  0  3  0  0  0  0  0  0
  187.6770  178.4080  140.6210 C   0  0  0  0  0  0  0  0  0  0  0  0
  185.4400  179.2360  140.8890 N   0  0  0  0  0  0  0  0  0  0  0  0
  186.5620  176.7560  136.9130 O   0  0  0  0  0  0  0  0  0  0  0  0
  190.0920  178.0190  140.0970 C   0  0  0  0  0  2  0  0  0  0  0  0
  189.0500  178.1830  141.2090 C   0  0  2  0  0  3  0  0  0  0  0  0
  188.3860  177.3920  138.3890 C   0  0  1  0  0  3  0  0  0  0  0  0
  186.7030  179.0820  141.3710 C   0  0  0  0  0  3  0  0  0  0  0  0
  188.5140  177.2360  143.5050 C   0  0  0  0  0  0  0  0  0  0  0  0
  189.7190  177.5880  144.7570 S   0  0  0  0  0  0  0  0  0  0  0  0
  190.5210  176.4250  142.3740 C   0  0  1  0  0  3  0  0  0  0  0  0
  190.9460  176.6140  143.8320 C   0  0  1  0  0  3  0  0  0  0  0  0
  189.0980  176.9680  142.1640 C   0  0  2  0  0  3  0  0  0  0  0  0
  191.5340  177.4960  142.7530 C   0  0  0  0  0  2  0  0  0  0  0  0
  187.3810  176.6310  143.8480 C   0  0  0  0  0  2  0  0  0  0  0  0
  190.8070  176.7140  138.1260 C   0  0  0  0  0  2  0  0  0  0  0  0
  191.9880  176.3970  138.8040 O   0  0  0  0  0  0  0  0  0  0  0  0
  192.9690  176.5350  137.8790 N   0  0  0  0  0  2  0  0  0  0  0  0
  193.3130  175.1990  137.4250 C   0  0  0  0  0  2  0  0  0  0  0  0
  193.8070  176.3050  134.3630 O   0  0  0  0  0  1  0  0  0  0  0  0
  194.4640  175.2690  136.4390 C   0  0  1  0  0  3  0  0  0  0  0  0
  194.3660  176.5650  135.6160 C   0  0  1  0  0  3  0  0  0  0  0  0
  196.5940  176.2620  135.0990 C   0  0  0  0  0  2  0  0  0  0  0  0
  196.7060  175.1320  136.1400 C   0  0  0  0  0  2  0  0  0  0  0  0
  195.6960  175.2260  137.1190 O   0  0  0  0  0  0  0  0  0  0  0  0
  195.6190  177.2110  135.4790 O   0  0  0  0  0  0  0  0  0  0  0  0
  1 11  1  0  0  0  0
  2  8  1  0  0  0  0
  3 10  2  0  0  0  0
  4 24  1  6  0  0  0
  4 13  1  0  0  0  0
  5  9  2  0  0  0  0
  6  2  2  0  0  0  0
  6  5  1  0  0  0  0
  8  3  1  0  0  0  0
  8  1  2  0  0  0  0
  9  1  1  0  0  0  0
 10 14  1  0  0  0  0
 10 16  1  0  0  0  0
 11 16  2  0  0  0  0
 12  7  1  0  0  0  0
 12  2  1  0  0  0  0
 14 13  1  6  0  0  0
 14 21  1  0  0  0  0
 15  7  1  1  0  0  0
 15  4  1  0  0  0  0
 15  3  1  0  0  0  0
 17 23  2  0  0  0  0
 17 18  1  0  0  0  0
 19 22  1  6  0  0  0
 19 20  1  0  0  0  0
 20 22  1  6  0  0  0
 20 18  1  0  0  0  0
 21 19  1  0  0  0  0
 21 17  1  1  0  0  0
 24 25  1  0  0  0  0
 26 25  1  0  0  0  0
 27 26  1  0  0  0  0
 29 33  1  0  0  0  0
 29 27  1  1  0  0  0
 30 28  1  6  0  0  0
 30 29  1  0  0  0  0
 31 34  1  0  0  0  0
 31 32  1  0  0  0  0
 32 33  1  0  0  0  0
 34 30  1  0  0  0  0
M  END
>  <MODEL>
6

>  <REMARK>
 VINA RESULT:      -7.3      4.314      8.729
  Name = 
  6 active torsions:
  status: ('A' for Active; 'I' for Inactive)
    1  A    between atoms: C_3  and  C_13
    2  A    between atoms: C_3  and  N_17
    3  A    between atoms: C_5  and  C_18
    4  A    between atoms: N_17  and  O_29
    5  A    between atoms: C_18  and  O_29
    6  A    between atoms: C_23  and  C_28
                            x       y       z     vdW  Elec       q    Type
                         _______ _______ _______ _____ _____    ______ ____

>  <TORSDO>
F 6

$$$$
=
 OpenBabel10272400033D

 34 40  0  0  1  0  0  0  0  0999 V2000
  187.6250  177.6110  147.2290 C   0  0  0  0  0  0  0  0  0  0  0  0
  189.9020  178.0350  146.4690 C   0  0  0  0  0  0  0  0  0  0  0  0
  188.1280  177.6570  144.8530 C   0  0  0  0  0  0  0  0  0  0  0  0
  188.5830  177.8360  142.3650 C   0  0  1  0  0  3  0  0  0  0  0  0
  189.4110  177.9120  148.8390 C   0  0  0  0  0  3  0  0  0  0  0  0
  190.3300  178.0920  147.7990 C   0  0  0  0  0  3  0  0  0  0  0  0
  190.3480  178.4940  144.0900 C   0  0  0  0  0  2  0  0  0  0  0  0
  188.5540  177.7690  146.1830 C   0  0  0  0  0  0  0  0  0  0  0  0
  188.0600  177.6770  148.5560 C   0  0  0  0  0  3  0  0  0  0  0  0
  186.7600  177.4520  144.5840 C   0  0  0  0  0  0  0  0  0  0  0  0
  186.3170  177.3830  146.9420 N   0  0  0  0  0  0  0  0  0  0  0  0
  190.8070  178.2500  145.4230 O   0  0  0  0  0  0  0  0  0  0  0  0
  187.3190  176.9980  142.1880 C   0  0  0  0  0  2  0  0  0  0  0  0
  186.2290  177.4440  143.1690 C   0  0  2  0  0  3  0  0  0  0  0  0
  189.1710  177.5710  143.7560 C   0  0  1  0  0  3  0  0  0  0  0  0
  185.8710  177.3090  145.6580 C   0  0  0  0  0  3  0  0  0  0  0  0
  184.6000  179.3340  143.6470 C   0  0  0  0  0  0  0  0  0  0  0  0
  182.9490  179.0620  143.0610 S   0  0  0  0  0  0  0  0  0  0  0  0
  185.0820  178.8030  141.3130 C   0  0  1  0  0  3  0  0  0  0  0  0
  183.5720  179.0470  141.3510 C   0  0  1  0  0  3  0  0  0  0  0  0
  185.6560  178.8140  142.7380 C   0  0  2  0  0  3  0  0  0  0  0  0
  184.1070  177.6640  141.0550 C   0  0  0  0  0  2  0  0  0  0  0  0
  184.8570  180.4100  144.3840 C   0  0  0  0  0  2  0  0  0  0  0  0
  189.5630  177.4540  141.2620 C   0  0  0  0  0  2  0  0  0  0  0  0
  188.9210  177.4110  140.0210 O   0  0  0  0  0  0  0  0  0  0  0  0
  189.8770  177.7480  139.1210 N   0  0  0  0  0  2  0  0  0  0  0  0
  191.0430  176.9350  139.4180 C   0  0  0  0  0  2  0  0  0  0  0  0
  193.6040  176.9130  137.3480 O   0  0  0  0  0  1  0  0  0  0  0  0
  191.4670  176.1690  138.1790 C   0  0  1  0  0  3  0  0  0  0  0  0
  192.9920  175.9750  138.1830 C   0  0  1  0  0  3  0  0  0  0  0  0
  192.6600  174.2790  136.6540 C   0  0  0  0  0  2  0  0  0  0  0  0
  191.1380  174.3350  136.8880 C   0  0  0  0  0  2  0  0  0  0  0  0
  190.8250  174.9160  138.1340 O   0  0  0  0  0  0  0  0  0  0  0  0
  193.3680  174.6600  137.8150 O   0  0  0  0  0  0  0  0  0  0  0  0
  1  9  2  0  0  0  0
  2  6  1  0  0  0  0
  3  8  1  0  0  0  0
  4 24  1  6  0  0  0
  4 15  1  0  0  0  0
  6  5  2  0  0  0  0
  7 12  1  0  0  0  0
  8  2  2  0  0  0  0
  8  1  1  0  0  0  0
  9  5  1  0  0  0  0
 10  3  2  0  0  0  0
 10 16  1  0  0  0  0
 11  1  1  0  0  0  0
 12  2  1  0  0  0  0
 13  4  1  0  0  0  0
 14 13  1  6  0  0  0
 14 10  1  0  0  0  0
 15  7  1  1  0  0  0
 15  3  1  0  0  0  0
 16 11  2  0  0  0  0
 17 23  2  0  0  0  0
 18 17  1  0  0  0  0
 19 22  1  1  0  0  0
 19 20  1  0  0  0  0
 19 21  1  0  0  0  0
 20 22  1  6  0  0  0
 20 18  1  0  0  0  0
 21 14  1  0  0  0  0
 21 17  1  1  0  0  0
 25 24  1  0  0  0  0
 26 27  1  0  0  0  0
 26 25  1  0  0  0  0
 29 30  1  0  0  0  0
 29 27  1  1  0  0  0
 30 28  1  6  0  0  0
 31 32  1  0  0  0  0
 31 34  1  0  0  0  0
 32 33  1  0  0  0  0
 33 29  1  0  0  0  0
 34 30  1  0  0  0  0
M  END
>  <MODEL>
7

>  <REMARK>
 VINA RESULT:      -7.2      3.445      8.124
  Name = 
  6 active torsions:
  status: ('A' for Active; 'I' for Inactive)
    1  A    between atoms: C_3  and  C_13
    2  A    between atoms: C_3  and  N_17
    3  A    between atoms: C_5  and  C_18
    4  A    between atoms: N_17  and  O_29
    5  A    between atoms: C_18  and  O_29
    6  A    between atoms: C_23  and  C_28
                            x       y       z     vdW  Elec       q    Type
                         _______ _______ _______ _____ _____    ______ ____

>  <TORSDO>
F 6

$$$$
=
 OpenBabel10272400033D

 34 40  0  0  1  0  0  0  0  0999 V2000
  190.9980  177.3050  144.7540 C   0  0  0  0  0  0  0  0  0  0  0  0
  188.8080  177.1150  145.8060 C   0  0  0  0  0  0  0  0  0  0  0  0
  188.9910  177.8220  143.4880 C   0  0  0  0  0  0  0  0  0  0  0  0
  186.9140  178.2350  142.0920 C   0  0  1  0  0  3  0  0  0  0  0  0
  190.8170  176.6750  147.0870 C   0  0  0  0  0  3  0  0  0  0  0  0
  189.4220  176.7600  147.0100 C   0  0  0  0  0  3  0  0  0  0  0  0
  186.7630  177.2310  144.4370 C   0  0  0  0  0  2  0  0  0  0  0  0
  189.5960  177.4140  144.6840 C   0  0  0  0  0  0  0  0  0  0  0  0
  191.6050  176.9410  145.9600 C   0  0  0  0  0  3  0  0  0  0  0  0
  189.7940  178.0560  142.3550 C   0  0  0  0  0  0  0  0  0  0  0  0
  191.7520  177.5660  143.6540 N   0  0  0  0  0  0  0  0  0  0  0  0
  187.4120  177.1680  145.7090 O   0  0  0  0  0  0  0  0  0  0  0  0
  187.8230  179.0650  141.1900 C   0  0  0  0  0  2  0  0  0  0  0  0
  189.1840  178.3820  141.0120 C   0  0  2  0  0  3  0  0  0  0  0  0
  187.5180  178.1810  143.5020 C   0  0  1  0  0  3  0  0  0  0  0  0
  191.1850  177.9270  142.4710 C   0  0  0  0  0  3  0  0  0  0  0  0
  190.1780  176.9390  139.1710 C   0  0  0  0  0  0  0  0  0  0  0  0
  189.8660  177.5120  137.5230 S   0  0  0  0  0  0  0  0  0  0  0  0
  187.7470  177.1520  139.2700 C   0  0  1  0  0  3  0  0  0  0  0  0
  188.0840  177.2460  137.7810 C   0  0  1  0  0  3  0  0  0  0  0  0
  189.0380  177.1380  140.1050 C   0  0  2  0  0  3  0  0  0  0  0  0
  187.5270  178.4490  138.5070 C   0  0  0  0  0  2  0  0  0  0  0  0
  190.9870  175.9000  139.3540 C   0  0  0  0  0  2  0  0  0  0  0  0
  185.5350  178.8830  142.1000 C   0  0  0  0  0  2  0  0  0  0  0  0
  184.5580  177.9740  141.6830 O   0  0  0  0  0  0  0  0  0  0  0  0
  183.3840  178.5060  142.1040 N   0  0  0  0  0  2  0  0  0  0  0  0
  182.4040  178.2410  141.0660 C   0  0  0  0  0  2  0  0  0  0  0  0
  184.1090  180.2480  139.0890 O   0  0  0  0  0  1  0  0  0  0  0  0
  182.1420  179.5050  140.2680 C   0  0  1  0  0  3  0  0  0  0  0  0
  182.9530  179.4740  138.9630 C   0  0  1  0  0  3  0  0  0  0  0  0
  181.5090  181.0900  138.1690 C   0  0  0  0  0  2  0  0  0  0  0  0
  180.5820  180.8900  139.3830 C   0  0  0  0  0  2  0  0  0  0  0  0
  180.7690  179.6250  139.9770 O   0  0  0  0  0  0  0  0  0  0  0  0
  182.1900  179.8960  137.8460 O   0  0  0  0  0  0  0  0  0  0  0  0
  1  9  2  0  0  0  0
  2  6  1  0  0  0  0
  3 15  1  0  0  0  0
  3  8  1  0  0  0  0
  4 24  1  1  0  0  0
  4 15  1  0  0  0  0
  6  5  2  0  0  0  0
  7 12  1  0  0  0  0
  8  1  1  0  0  0  0
  8  2  2  0  0  0  0
  9  5  1  0  0  0  0
 10 16  1  0  0  0  0
 10  3  2  0  0  0  0
 11  1  1  0  0  0  0
 12  2  1  0  0  0  0
 13  4  1  0  0  0  0
 14 13  1  1  0  0  0
 14 10  1  0  0  0  0
 15  7  1  1  0  0  0
 16 11  2  0  0  0  0
 17 23  2  0  0  0  0
 18 20  1  0  0  0  0
 18 17  1  0  0  0  0
 19 22  1  1  0  0  0
 19 21  1  0  0  0  0
 20 22  1  1  0  0  0
 20 19  1  0  0  0  0
 21 17  1  6  0  0  0
 21 14  1  0  0  0  0
 25 24  1  0  0  0  0
 25 26  1  0  0  0  0
 27 26  1  0  0  0  0
 29 27  1  6  0  0  0
 30 28  1  1  0  0  0
 30 29  1  0  0  0  0
 31 32  1  0  0  0  0
 32 33  1  0  0  0  0
 33 29  1  0  0  0  0
 34 31  1  0  0  0  0
 34 30  1  0  0  0  0
M  END
>  <MODEL>
8

>  <REMARK>
 VINA RESULT:      -7.1      2.389      5.181
  Name = 
  6 active torsions:
  status: ('A' for Active; 'I' for Inactive)
    1  A    between atoms: C_3  and  C_13
    2  A    between atoms: C_3  and  N_17
    3  A    between atoms: C_5  and  C_18
    4  A    between atoms: N_17  and  O_29
    5  A    between atoms: C_18  and  O_29
    6  A    between atoms: C_23  and  C_28
                            x       y       z     vdW  Elec       q    Type
                         _______ _______ _______ _____ _____    ______ ____

>  <TORSDO>
F 6

$$$$
=
 OpenBabel10272400033D

 34 40  0  0  1  0  0  0  0  0999 V2000
  182.3910  179.0060  143.7780 C   0  0  0  0  0  0  0  0  0  0  0  0
  181.8920  178.3940  141.4720 C   0  0  0  0  0  0  0  0  0  0  0  0
  184.1970  178.6770  142.1880 C   0  0  0  0  0  0  0  0  0  0  0  0
  186.1140  178.2060  140.5960 C   0  0  1  0  0  3  0  0  0  0  0  0
  180.0910  178.7980  143.0430 C   0  0  0  0  0  3  0  0  0  0  0  0
  180.5250  178.4620  141.7550 C   0  0  0  0  0  3  0  0  0  0  0  0
  183.6990  177.6570  139.9680 C   0  0  0  0  0  2  0  0  0  0  0  0
  182.8260  178.6910  142.4770 C   0  0  0  0  0  0  0  0  0  0  0  0
  181.0220  179.0650  144.0550 C   0  0  0  0  0  3  0  0  0  0  0  0
  185.1210  178.9160  143.2240 C   0  0  0  0  0  0  0  0  0  0  0  0
  183.3030  179.2640  144.7520 N   0  0  0  0  0  0  0  0  0  0  0  0
  182.3360  178.0230  140.1970 O   0  0  0  0  0  0  0  0  0  0  0  0
  186.9520  179.0790  141.5270 C   0  0  0  0  0  2  0  0  0  0  0  0
  186.6100  178.7960  142.9930 C   0  0  2  0  0  3  0  0  0  0  0  0
  184.6370  178.5930  140.7390 C   0  0  1  0  0  3  0  0  0  0  0  0
  184.6410  179.2180  144.5060 C   0  0  0  0  0  3  0  0  0  0  0  0
  187.5490  177.3330  144.8470 C   0  0  0  0  0  0  0  0  0  0  0  0
  189.2860  177.5270  145.1430 S   0  0  0  0  0  0  0  0  0  0  0  0
  188.3860  176.9840  142.5790 C   0  0  1  0  0  3  0  0  0  0  0  0
  189.6280  176.8980  143.4690 C   0  0  1  0  0  3  0  0  0  0  0  0
  187.1680  177.4160  143.4120 C   0  0  2  0  0  3  0  0  0  0  0  0
  189.4740  178.0440  142.4940 C   0  0  0  0  0  2  0  0  0  0  0  0
  186.8350  176.5590  145.6590 C   0  0  0  0  0  2  0  0  0  0  0  0
  186.6120  178.4190  139.1710 C   0  0  0  0  0  2  0  0  0  0  0  0
  187.9660  178.7650  139.1660 O   0  0  0  0  0  0  0  0  0  0  0  0
  188.3390  178.6940  137.8650 N   0  0  0  0  0  2  0  0  0  0  0  0
  188.4190  177.2850  137.5240 C   0  0  0  0  0  2  0  0  0  0  0  0
  191.0830  177.1650  139.4570 O   0  0  0  0  0  1  0  0  0  0  0  0
  189.8730  176.8680  137.3930 C   0  0  1  0  0  3  0  0  0  0  0  0
  190.3530  176.2370  138.7100 C   0  0  1  0  0  3  0  0  0  0  0  0
  192.0770  175.3020  137.4930 C   0  0  0  0  0  2  0  0  0  0  0  0
  191.4090  175.7330  136.1730 C   0  0  0  0  0  2  0  0  0  0  0  0
  190.0250  175.9480  136.3370 O   0  0  0  0  0  0  0  0  0  0  0  0
  191.1130  175.0600  138.4960 O   0  0  0  0  0  0  0  0  0  0  0  0
  1  9  1  0  0  0  0
  1 11  1  0  0  0  0
  2  6  2  0  0  0  0
  2  8  1  0  0  0  0
  3  8  1  0  0  0  0
  3 10  2  0  0  0  0
  4 24  1  6  0  0  0
  4 15  1  0  0  0  0
  4 13  1  0  0  0  0
  5  9  2  0  0  0  0
  6  5  1  0  0  0  0
  7 12  1  0  0  0  0
  8  1  2  0  0  0  0
 10 16  1  0  0  0  0
 12  2  1  0  0  0  0
 14 13  1  6  0  0  0
 14 10  1  0  0  0  0
 14 21  1  0  0  0  0
 15  7  1  6  0  0  0
 15  3  1  0  0  0  0
 16 11  2  0  0  0  0
 17 18  1  0  0  0  0
 17 23  2  0  0  0  0
 19 22  1  6  0  0  0
 19 21  1  0  0  0  0
 19 20  1  0  0  0  0
 20 22  1  6  0  0  0
 20 18  1  0  0  0  0
 21 17  1  1  0  0  0
 25 24  1  0  0  0  0
 26 25  1  0  0  0  0
 27 26  1  0  0  0  0
 29 27  1  1  0  0  0
 29 30  1  0  0  0  0
 30 28  1  6  0  0  0
 31 34  1  0  0  0  0
 32 33  1  0  0  0  0
 32 31  1  0  0  0  0
 33 29  1  0  0  0  0
 34 30  1  0  0  0  0
M  END
>  <MODEL>
9

>  <REMARK>
 VINA RESULT:      -7.1      2.310      7.274
  Name = 
  6 active torsions:
  status: ('A' for Active; 'I' for Inactive)
    1  A    between atoms: C_3  and  C_13
    2  A    between atoms: C_3  and  N_17
    3  A    between atoms: C_5  and  C_18
    4  A    between atoms: N_17  and  O_29
    5  A    between atoms: C_18  and  O_29
    6  A    between atoms: C_23  and  C_28
                            x       y       z     vdW  Elec       q    Type
                         _______ _______ _______ _____ _____    ______ ____

>  <TORSDO>
F 6

$$$$
