=
 OpenBabel10262423463D

 34 37  0  0  1  0  0  0  0  0999 V2000
  182.4830  178.4120  141.1690 C   0  0  0  0  0  0  0  0  0  0  0  0
  182.8910  178.0770  138.6880 C   0  0  2  0  0  3  0  0  0  0  0  0
  185.1570  177.3910  136.8670 O   0  0  0  0  0  0  0  0  0  0  0  0
  181.6810  178.2100  142.1220 O   0  0  0  0  0  0  0  0  0  0  0  0
  184.7920  178.8670  140.3150 C   0  0  0  0  0  2  0  0  0  0  0  0
  181.9450  178.6140  139.7860 C   0  0  2  0  0  3  0  0  0  0  0  0
  185.3390  177.9370  138.1500 C   0  0  0  0  0  3  0  0  0  0  0  0
  182.6150  176.6020  138.3470 C   0  0  2  0  0  3  0  0  0  0  0  0
  183.9010  178.4840  141.4030 N   0  0  0  0  0  0  0  0  0  0  0  0
  183.9040  177.2750  136.2020 C   0  0  0  0  0  2  0  0  0  0  0  0
  182.9840  176.2640  136.8920 C   0  0  1  0  0  3  0  0  0  0  0  0
  184.3640  178.2650  139.0100 C   0  0  0  0  0  0  0  0  0  0  0  0
  181.2750  176.2680  138.5590 O   0  0  0  0  0  1  0  0  0  0  0  0
  183.5180  172.7430  135.5540 C   0  0  0  0  0  0  0  0  0  0  0  0
  184.3480  172.2020  136.5470 C   0  0  0  0  0  3  0  0  0  0  0  0
  183.4790  174.8590  136.7380 C   0  0  0  0  0  0  0  0  0  0  0  0
  184.7370  172.9850  137.6360 C   0  0  0  0  0  3  0  0  0  0  0  0
  183.0820  174.0670  135.6510 C   0  0  0  0  0  3  0  0  0  0  0  0
  184.3010  174.3110  137.7320 C   0  0  0  0  0  3  0  0  0  0  0  0
  183.0970  171.9050  134.4020 C   0  0  0  0  0  1  0  0  0  0  0  0
  185.8130  178.8640  142.7160 O   0  0  0  0  0  0  0  0  0  0  0  0
  186.5860  178.0630  143.5940 C   0  0  1  0  0  3  0  0  0  0  0  0
  184.4630  178.4590  142.7530 C   0  0  1  0  0  3  0  0  0  0  0  0
  183.8510  178.9870  145.1510 C   0  0  0  0  0  2  0  0  0  0  0  0
  185.3170  179.0160  145.5720 C   0  0  0  0  0  2  0  0  0  0  0  0
  186.0400  177.7980  145.0120 C   0  0  0  0  0  2  0  0  0  0  0  0
  183.6620  179.3690  143.6840 C   0  0  0  0  0  2  0  0  0  0  0  0
  187.1750  176.9480  142.9620 O   0  0  0  0  0  0  0  0  0  0  0  0
  188.3780  176.6480  143.6160 C   0  0  0  0  0  2  0  0  0  0  0  0
  188.9270  175.4930  143.0780 F   0  0  0  0  0  0  0  0  0  0  0  0
  181.4730  180.0550  139.5530 C   0  0  2  0  0  3  0  0  0  0  0  0
  180.0290  180.2140  140.0060 C   0  0  0  0  0  1  0  0  0  0  0  0
  181.2620  181.9880  137.9850 C   0  0  0  0  0  1  0  0  0  0  0  0
  181.6400  180.5230  138.1110 C   0  0  0  0  0  2  0  0  0  0  0  0
  1  9  1  0  0  0  0
  1  4  2  0  0  0  0
  2 12  1  1  0  0  0
  2  6  1  0  0  0  0
  3  7  1  0  0  0  0
  5  9  1  0  0  0  0
  6 31  1  6  0  0  0
  6  1  1  0  0  0  0
  7 12  2  0  0  0  0
  8 13  1  6  0  0  0
  8  2  1  0  0  0  0
 10  3  1  0  0  0  0
 10 11  1  0  0  0  0
 11 16  1  1  0  0  0
 11  8  1  0  0  0  0
 12  5  1  0  0  0  0
 14 18  2  0  0  0  0
 14 15  1  0  0  0  0
 15 17  2  0  0  0  0
 16 19  2  0  0  0  0
 17 19  1  0  0  0  0
 18 16  1  0  0  0  0
 20 14  1  0  0  0  0
 21 23  1  0  0  0  0
 21 22  1  0  0  0  0
 22 28  1  6  0  0  0
 22 26  1  0  0  0  0
 23  9  1  6  0  0  0
 23 27  1  0  0  0  0
 24 25  1  0  0  0  0
 26 25  1  0  0  0  0
 27 24  1  0  0  0  0
 28 29  1  0  0  0  0
 30 29  1  0  0  0  0
 31 32  1  6  0  0  0
 33 34  1  0  0  0  0
 34 31  1  0  0  0  0
M  END
>  <MODEL>
1

>  <REMARK>
 VINA RESULT:      -7.4      0.000      0.000
  Name = 
  6 active torsions:
  status: ('A' for Active; 'I' for Inactive)
    1  A    between atoms: C_1  and  C_15
    2  A    between atoms: C_1  and  C_19
    3  A    between atoms: O_3  and  C_13
    4  A    between atoms: O_3  and  C_17
    5  A    between atoms: C_12  and  C_28
    6  A    between atoms: C_14  and  N_25
                            x       y       z     vdW  Elec       q    Type
                         _______ _______ _______ _____ _____    ______ ____

>  <TORSDO>
F 6

$$$$
=
 OpenBabel10262423463D

 34 37  0  0  1  0  0  0  0  0999 V2000
  182.4220  178.4770  141.2340 C   0  0  0  0  0  0  0  0  0  0  0  0
  182.7410  178.1340  138.7410 C   0  0  2  0  0  3  0  0  0  0  0  0
  184.9320  177.4040  136.8450 O   0  0  0  0  0  0  0  0  0  0  0  0
  181.6490  178.2900  142.2120 O   0  0  0  0  0  0  0  0  0  0  0  0
  184.7110  178.8840  140.3030 C   0  0  0  0  0  2  0  0  0  0  0  0
  181.8440  178.6900  139.8680 C   0  0  2  0  0  3  0  0  0  0  0  0
  185.1670  177.9450  138.1210 C   0  0  0  0  0  3  0  0  0  0  0  0
  182.4240  176.6660  138.4080 C   0  0  2  0  0  3  0  0  0  0  0  0
  183.8490  178.5190  141.4200 N   0  0  0  0  0  0  0  0  0  0  0  0
  183.6550  177.3140  136.2220 C   0  0  0  0  0  2  0  0  0  0  0  0
  182.7380  176.3220  136.9420 C   0  0  1  0  0  3  0  0  0  0  0  0
  184.2280  178.2920  139.0130 C   0  0  0  0  0  0  0  0  0  0  0  0
  181.0850  176.3590  138.6640 O   0  0  0  0  0  1  0  0  0  0  0  0
  184.8710  173.1720  137.0470 C   0  0  0  0  0  0  0  0  0  0  0  0
  184.0580  172.2760  136.3380 C   0  0  0  0  0  3  0  0  0  0  0  0
  183.1980  174.9070  136.7720 C   0  0  0  0  0  0  0  0  0  0  0  0
  182.8220  172.6940  135.8420 C   0  0  0  0  0  3  0  0  0  0  0  0
  184.4430  174.4860  137.2600 C   0  0  0  0  0  3  0  0  0  0  0  0
  182.3940  174.0080  136.0570 C   0  0  0  0  0  3  0  0  0  0  0  0
  186.1900  172.7280  137.5650 C   0  0  0  0  0  1  0  0  0  0  0  0
  185.8000  178.8960  142.6750 O   0  0  0  0  0  0  0  0  0  0  0  0
  186.6060  178.0890  143.5170 C   0  0  1  0  0  3  0  0  0  0  0  0
  184.4540  178.4820  142.7500 C   0  0  1  0  0  3  0  0  0  0  0  0
  183.9180  178.9770  145.1730 C   0  0  0  0  0  2  0  0  0  0  0  0
  185.3960  179.0110  145.5470 C   0  0  0  0  0  2  0  0  0  0  0  0
  186.1080  177.8030  144.9500 C   0  0  0  0  0  2  0  0  0  0  0  0
  183.6790  179.3750  143.7180 C   0  0  0  0  0  2  0  0  0  0  0  0
  187.1810  176.9850  142.8540 O   0  0  0  0  0  0  0  0  0  0  0  0
  188.5120  177.2950  142.5410 C   0  0  0  0  0  2  0  0  0  0  0  0
  189.0000  178.2270  143.4450 F   0  0  0  0  0  0  0  0  0  0  0  0
  181.3930  180.1400  139.6520 C   0  0  2  0  0  3  0  0  0  0  0  0
  179.9830  180.3390  140.1860 C   0  0  0  0  0  1  0  0  0  0  0  0
  181.4220  182.1090  138.1140 C   0  0  0  0  0  1  0  0  0  0  0  0
  181.4880  180.5940  138.1990 C   0  0  0  0  0  2  0  0  0  0  0  0
  1  9  1  0  0  0  0
  1  4  2  0  0  0  0
  2 12  1  1  0  0  0
  2  6  1  0  0  0  0
  3  7  1  0  0  0  0
  5  9  1  0  0  0  0
  6 31  1  6  0  0  0
  6  1  1  0  0  0  0
  7 12  2  0  0  0  0
  8 13  1  6  0  0  0
  8  2  1  0  0  0  0
 10  3  1  0  0  0  0
 10 11  1  0  0  0  0
 11 16  1  1  0  0  0
 11  8  1  0  0  0  0
 12  5  1  0  0  0  0
 14 18  1  0  0  0  0
 14 20  1  0  0  0  0
 15 14  2  0  0  0  0
 16 18  2  0  0  0  0
 17 19  2  0  0  0  0
 17 15  1  0  0  0  0
 19 16  1  0  0  0  0
 21 23  1  0  0  0  0
 21 22  1  0  0  0  0
 22 28  1  6  0  0  0
 22 26  1  0  0  0  0
 23  9  1  6  0  0  0
 23 27  1  0  0  0  0
 24 25  1  0  0  0  0
 26 25  1  0  0  0  0
 27 24  1  0  0  0  0
 29 28  1  0  0  0  0
 29 30  1  0  0  0  0
 31 32  1  6  0  0  0
 33 34  1  0  0  0  0
 34 31  1  0  0  0  0
M  END
>  <MODEL>
2

>  <REMARK>
 VINA RESULT:      -7.0      0.658      1.245
  Name = 
  6 active torsions:
  status: ('A' for Active; 'I' for Inactive)
    1  A    between atoms: C_1  and  C_15
    2  A    between atoms: C_1  and  C_19
    3  A    between atoms: O_3  and  C_13
    4  A    between atoms: O_3  and  C_17
    5  A    between atoms: C_12  and  C_28
    6  A    between atoms: C_14  and  N_25
                            x       y       z     vdW  Elec       q    Type
                         _______ _______ _______ _____ _____    ______ ____

>  <TORSDO>
F 6

$$$$
=
 OpenBabel10262423463D

 34 37  0  0  1  0  0  0  0  0999 V2000
  183.1570  176.6650  139.2370 C   0  0  0  0  0  0  0  0  0  0  0  0
  184.5630  176.7500  137.1280 C   0  0  2  0  0  3  0  0  0  0  0  0
  187.1340  177.9570  136.2010 O   0  0  0  0  0  0  0  0  0  0  0  0
  182.4370  175.9340  139.9710 O   0  0  0  0  0  0  0  0  0  0  0  0
  184.6170  178.6730  138.9130 C   0  0  0  0  0  2  0  0  0  0  0  0
  183.1940  176.4150  137.7610 C   0  0  2  0  0  3  0  0  0  0  0  0
  186.3990  178.4540  137.2920 C   0  0  0  0  0  3  0  0  0  0  0  0
  185.5230  175.5470  137.1360 C   0  0  2  0  0  3  0  0  0  0  0  0
  183.9140  177.7530  139.7980 N   0  0  0  0  0  0  0  0  0  0  0  0
  186.6700  176.9630  135.2930 C   0  0  0  0  0  2  0  0  0  0  0  0
  186.5260  175.5970  135.9700 C   0  0  1  0  0  3  0  0  0  0  0  0
  185.2430  177.9570  137.7530 C   0  0  0  0  0  0  0  0  0  0  0  0
  184.8290  174.3360  137.0790 O   0  0  0  0  0  1  0  0  0  0  0  0
  189.9730  175.1090  137.5040 C   0  0  0  0  0  0  0  0  0  0  0  0
  190.3690  173.9100  136.8940 C   0  0  0  0  0  3  0  0  0  0  0  0
  187.8530  175.0060  136.3310 C   0  0  0  0  0  0  0  0  0  0  0  0
  189.5130  173.2630  136.0020 C   0  0  0  0  0  3  0  0  0  0  0  0
  188.7190  175.6580  137.2200 C   0  0  0  0  0  3  0  0  0  0  0  0
  188.2570  173.8110  135.7190 C   0  0  0  0  0  3  0  0  0  0  0  0
  190.8900  175.8020  138.4450 C   0  0  0  0  0  1  0  0  0  0  0  0
  184.8620  178.9710  141.5700 O   0  0  0  0  0  0  0  0  0  0  0  0
  185.3130  178.6360  142.8710 C   0  0  1  0  0  3  0  0  0  0  0  0
  183.7840  178.1400  141.2020 C   0  0  1  0  0  3  0  0  0  0  0  0
  182.0380  178.8070  142.9080 C   0  0  0  0  0  2  0  0  0  0  0  0
  183.0950  179.4040  143.8310 C   0  0  0  0  0  2  0  0  0  0  0  0
  184.2590  178.4330  143.9800 C   0  0  0  0  0  2  0  0  0  0  0  0
  182.4560  178.8580  141.4390 C   0  0  0  0  0  2  0  0  0  0  0  0
  186.3710  177.7030  142.8750 O   0  0  0  0  0  0  0  0  0  0  0  0
  186.9140  177.6480  144.1670 C   0  0  0  0  0  2  0  0  0  0  0  0
  187.7060  176.5170  144.2930 F   0  0  0  0  0  0  0  0  0  0  0  0
  181.9990  177.0490  137.0370 C   0  0  2  0  0  3  0  0  0  0  0  0
  182.4350  177.6100  135.6910 C   0  0  0  0  0  1  0  0  0  0  0  0
  181.4310  179.4760  137.1990 C   0  0  0  0  0  1  0  0  0  0  0  0
  181.2880  178.1180  137.8620 C   0  0  0  0  0  2  0  0  0  0  0  0
  1  9  1  0  0  0  0
  1  4  2  0  0  0  0
  2  8  1  0  0  0  0
  2 12  1  1  0  0  0
  2  6  1  0  0  0  0
  3  7  1  0  0  0  0
  5  9  1  0  0  0  0
  6 31  1  6  0  0  0
  6  1  1  0  0  0  0
  7 12  2  0  0  0  0
  8 13  1  6  0  0  0
 10 11  1  0  0  0  0
 10  3  1  0  0  0  0
 11 16  1  1  0  0  0
 11  8  1  0  0  0  0
 12  5  1  0  0  0  0
 14 20  1  0  0  0  0
 15 14  2  0  0  0  0
 16 18  2  0  0  0  0
 17 15  1  0  0  0  0
 18 14  1  0  0  0  0
 19 17  2  0  0  0  0
 19 16  1  0  0  0  0
 21 22  1  0  0  0  0
 22 28  1  6  0  0  0
 22 26  1  0  0  0  0
 23  9  1  6  0  0  0
 23 27  1  0  0  0  0
 23 21  1  0  0  0  0
 24 25  1  0  0  0  0
 25 26  1  0  0  0  0
 27 24  1  0  0  0  0
 28 29  1  0  0  0  0
 29 30  1  0  0  0  0
 31 32  1  6  0  0  0
 31 34  1  0  0  0  0
 33 34  1  0  0  0  0
M  END
>  <MODEL>
3

>  <REMARK>
 VINA RESULT:      -6.6      2.685      3.795
  Name = 
  6 active torsions:
  status: ('A' for Active; 'I' for Inactive)
    1  A    between atoms: C_1  and  C_15
    2  A    between atoms: C_1  and  C_19
    3  A    between atoms: O_3  and  C_13
    4  A    between atoms: O_3  and  C_17
    5  A    between atoms: C_12  and  C_28
    6  A    between atoms: C_14  and  N_25
                            x       y       z     vdW  Elec       q    Type
                         _______ _______ _______ _____ _____    ______ ____

>  <TORSDO>
F 6

$$$$
=
 OpenBabel10262423463D

 34 37  0  0  1  0  0  0  0  0999 V2000
  189.7260  174.5540  137.3380 C   0  0  0  0  0  0  0  0  0  0  0  0
  189.5250  176.8070  138.4850 C   0  0  2  0  0  3  0  0  0  0  0  0
  187.3790  178.7200  139.2960 O   0  0  0  0  0  0  0  0  0  0  0  0
  190.3270  173.4440  137.3360 O   0  0  0  0  0  0  0  0  0  0  0  0
  187.7460  175.9680  136.7490 C   0  0  0  0  0  2  0  0  0  0  0  0
  190.4510  175.7820  137.7940 C   0  0  2  0  0  3  0  0  0  0  0  0
  187.2120  177.7610  138.2820 C   0  0  0  0  0  3  0  0  0  0  0  0
  189.4180  176.5710  140.0020 C   0  0  2  0  0  3  0  0  0  0  0  0
  188.3660  174.6560  136.8770 N   0  0  0  0  0  0  0  0  0  0  0  0
  188.6190  179.0350  139.9230 C   0  0  0  0  0  2  0  0  0  0  0  0
  189.1370  177.8720  140.7730 C   0  0  1  0  0  3  0  0  0  0  0  0
  188.1350  176.8780  137.8750 C   0  0  0  0  0  0  0  0  0  0  0  0
  190.5800  175.9880  140.5140 O   0  0  0  0  0  1  0  0  0  0  0  0
  186.2450  177.9850  143.2430 C   0  0  0  0  0  0  0  0  0  0  0  0
  186.7930  177.2840  144.3280 C   0  0  0  0  0  3  0  0  0  0  0  0
  188.2940  177.6460  141.9900 C   0  0  0  0  0  0  0  0  0  0  0  0
  188.0880  176.7710  144.2470 C   0  0  0  0  0  3  0  0  0  0  0  0
  186.9950  178.1680  142.0780 C   0  0  0  0  0  3  0  0  0  0  0  0
  188.8380  176.9530  143.0800 C   0  0  0  0  0  3  0  0  0  0  0  0
  184.8700  178.5390  143.3350 C   0  0  0  0  0  1  0  0  0  0  0  0
  186.3260  173.8650  136.0190 O   0  0  0  0  0  0  0  0  0  0  0  0
  185.4770  172.7740  136.3310 C   0  0  1  0  0  3  0  0  0  0  0  0
  187.6700  173.5220  136.2700 C   0  0  1  0  0  3  0  0  0  0  0  0
  188.0280  171.6590  134.5960 C   0  0  0  0  0  2  0  0  0  0  0  0
  186.5260  171.4300  134.4530 C   0  0  0  0  0  2  0  0  0  0  0  0
  185.8790  171.3700  135.8310 C   0  0  0  0  0  2  0  0  0  0  0  0
  188.3600  173.1010  134.9740 C   0  0  0  0  0  2  0  0  0  0  0  0
  184.9700  172.8160  137.6470 O   0  0  0  0  0  0  0  0  0  0  0  0
  184.1470  173.9450  137.7720 C   0  0  0  0  0  2  0  0  0  0  0  0
  183.1390  173.8960  136.8210 F   0  0  0  0  0  0  0  0  0  0  0  0
  191.3280  176.3800  136.6860 C   0  0  2  0  0  3  0  0  0  0  0  0
  190.8560  175.8980  135.3220 C   0  0  0  0  0  1  0  0  0  0  0  0
  193.2380  176.4120  138.2950 C   0  0  0  0  0  1  0  0  0  0  0  0
  192.8160  176.0980  136.8710 C   0  0  0  0  0  2  0  0  0  0  0  0
  1  6  1  0  0  0  0
  2 12  1  6  0  0  0
  2  8  1  0  0  0  0
  3 10  1  0  0  0  0
  4  1  2  0  0  0  0
  5  9  1  0  0  0  0
  5 12  1  0  0  0  0
  6 31  1  6  0  0  0
  6  2  1  0  0  0  0
  7  3  1  0  0  0  0
  8 13  1  1  0  0  0
  8 11  1  0  0  0  0
  9  1  1  0  0  0  0
 10 11  1  0  0  0  0
 11 16  1  1  0  0  0
 12  7  2  0  0  0  0
 14 20  1  0  0  0  0
 14 15  1  0  0  0  0
 16 18  1  0  0  0  0
 16 19  2  0  0  0  0
 17 15  2  0  0  0  0
 18 14  2  0  0  0  0
 19 17  1  0  0  0  0
 21 23  1  0  0  0  0
 21 22  1  0  0  0  0
 22 28  1  1  0  0  0
 23 27  1  6  0  0  0
 23  9  1  0  0  0  0
 24 27  1  0  0  0  0
 25 24  1  0  0  0  0
 25 26  1  0  0  0  0
 26 22  1  0  0  0  0
 28 29  1  0  0  0  0
 30 29  1  0  0  0  0
 31 32  1  6  0  0  0
 31 34  1  0  0  0  0
 34 33  1  0  0  0  0
M  END
>  <MODEL>
4

>  <REMARK>
 VINA RESULT:      -6.5      4.367      9.227
  Name = 
  6 active torsions:
  status: ('A' for Active; 'I' for Inactive)
    1  A    between atoms: C_1  and  C_15
    2  A    between atoms: C_1  and  C_19
    3  A    between atoms: O_3  and  C_13
    4  A    between atoms: O_3  and  C_17
    5  A    between atoms: C_12  and  C_28
    6  A    between atoms: C_14  and  N_25
                            x       y       z     vdW  Elec       q    Type
                         _______ _______ _______ _____ _____    ______ ____

>  <TORSDO>
F 6

$$$$
=
 OpenBabel10262423463D

 34 37  0  0  1  0  0  0  0  0999 V2000
  189.8930  176.7070  139.5950 C   0  0  0  0  0  0  0  0  0  0  0  0
  191.5430  176.3640  137.6990 C   0  0  2  0  0  3  0  0  0  0  0  0
  194.4980  176.1560  137.3170 O   0  0  0  0  0  0  0  0  0  0  0  0
  188.7750  176.3630  140.0680 O   0  0  0  0  0  0  0  0  0  0  0  0
  192.1900  177.6590  139.8880 C   0  0  0  0  0  2  0  0  0  0  0  0
  190.0950  176.7100  138.1110 C   0  0  2  0  0  3  0  0  0  0  0  0
  193.9080  176.7880  138.4250 C   0  0  0  0  0  3  0  0  0  0  0  0
  191.7520  174.8520  137.5060 C   0  0  2  0  0  3  0  0  0  0  0  0
  190.9620  177.1260  140.4630 N   0  0  0  0  0  0  0  0  0  0  0  0
  193.7930  175.7140  136.1610 C   0  0  0  0  0  2  0  0  0  0  0  0
  192.8560  174.5460  136.4790 C   0  0  1  0  0  3  0  0  0  0  0  0
  192.5930  176.9130  138.6510 C   0  0  0  0  0  0  0  0  0  0  0  0
  190.5740  174.2190  137.1020 O   0  0  0  0  0  1  0  0  0  0  0  0
  193.9650  170.9070  136.5550 C   0  0  0  0  0  0  0  0  0  0  0  0
  194.9820  170.9590  137.5210 C   0  0  0  0  0  3  0  0  0  0  0  0
  193.6090  173.2940  136.8040 C   0  0  0  0  0  0  0  0  0  0  0  0
  195.3070  172.1710  138.1310 C   0  0  0  0  0  3  0  0  0  0  0  0
  193.2790  172.0720  136.2000 C   0  0  0  0  0  3  0  0  0  0  0  0
  194.6210  173.3370  137.7740 C   0  0  0  0  0  3  0  0  0  0  0  0
  193.6130  169.6140  135.9160 C   0  0  0  0  0  1  0  0  0  0  0  0
  190.5360  176.0440  142.5060 O   0  0  0  0  0  0  0  0  0  0  0  0
  189.5250  176.1560  143.4930 C   0  0  1  0  0  3  0  0  0  0  0  0
  190.7650  177.2970  141.9020 C   0  0  1  0  0  3  0  0  0  0  0  0
  191.6340  178.6410  143.8620 C   0  0  0  0  0  2  0  0  0  0  0  0
  191.0400  177.6560  144.8650 C   0  0  0  0  0  2  0  0  0  0  0  0
  189.6000  177.3360  144.4850 C   0  0  0  0  0  2  0  0  0  0  0  0
  191.9810  177.9740  142.5330 C   0  0  0  0  0  2  0  0  0  0  0  0
  188.2320  175.8670  143.0070 O   0  0  0  0  0  0  0  0  0  0  0  0
  187.3730  176.9130  143.3720 C   0  0  0  0  0  2  0  0  0  0  0  0
  187.2060  177.7760  142.2980 F   0  0  0  0  0  0  0  0  0  0  0  0
  189.5460  177.9850  137.4560 C   0  0  2  0  0  3  0  0  0  0  0  0
  188.9820  178.9200  138.5160 C   0  0  0  0  0  1  0  0  0  0  0  0
  187.2050  178.4140  136.7000 C   0  0  0  0  0  1  0  0  0  0  0  0
  188.5090  177.7110  136.3710 C   0  0  0  0  0  2  0  0  0  0  0  0
  1  4  2  0  0  0  0
  1  9  1  0  0  0  0
  2  6  1  0  0  0  0
  2 12  1  1  0  0  0
  3  7  1  0  0  0  0
  5  9  1  0  0  0  0
  6 31  1  1  0  0  0
  6  1  1  0  0  0  0
  7 12  2  0  0  0  0
  8 13  1  6  0  0  0
  8  2  1  0  0  0  0
 10 11  1  0  0  0  0
 10  3  1  0  0  0  0
 11 16  1  1  0  0  0
 11  8  1  0  0  0  0
 12  5  1  0  0  0  0
 14 15  1  0  0  0  0
 15 17  2  0  0  0  0
 16 19  2  0  0  0  0
 18 14  2  0  0  0  0
 18 16  1  0  0  0  0
 19 17  1  0  0  0  0
 20 14  1  0  0  0  0
 21 22  1  0  0  0  0
 22 28  1  6  0  0  0
 22 26  1  0  0  0  0
 23  9  1  6  0  0  0
 23 21  1  0  0  0  0
 23 27  1  0  0  0  0
 24 25  1  0  0  0  0
 26 25  1  0  0  0  0
 27 24  1  0  0  0  0
 28 29  1  0  0  0  0
 30 29  1  0  0  0  0
 31 32  1  1  0  0  0
 34 33  1  0  0  0  0
 34 31  1  0  0  0  0
M  END
>  <MODEL>
5

>  <REMARK>
 VINA RESULT:      -6.4      6.333      8.259
  Name = 
  6 active torsions:
  status: ('A' for Active; 'I' for Inactive)
    1  A    between atoms: C_1  and  C_15
    2  A    between atoms: C_1  and  C_19
    3  A    between atoms: O_3  and  C_13
    4  A    between atoms: O_3  and  C_17
    5  A    between atoms: C_12  and  C_28
    6  A    between atoms: C_14  and  N_25
                            x       y       z     vdW  Elec       q    Type
                         _______ _______ _______ _____ _____    ______ ____

>  <TORSDO>
F 6

$$$$
=
 OpenBabel10262423463D

 34 37  0  0  1  0  0  0  0  0999 V2000
  188.3190  174.3850  136.4930 C   0  0  0  0  0  0  0  0  0  0  0  0
  189.0430  176.5670  137.5650 C   0  0  2  0  0  3  0  0  0  0  0  0
  187.8960  178.6700  139.3500 O   0  0  0  0  0  0  0  0  0  0  0  0
  188.6760  173.2130  136.1900 O   0  0  0  0  0  0  0  0  0  0  0  0
  186.5320  176.0640  136.9950 C   0  0  0  0  0  2  0  0  0  0  0  0
  189.3370  175.4840  136.5030 C   0  0  2  0  0  3  0  0  0  0  0  0
  187.1060  177.8060  138.5720 C   0  0  0  0  0  3  0  0  0  0  0  0
  189.6930  176.2480  138.9230 C   0  0  2  0  0  3  0  0  0  0  0  0
  186.9440  174.6810  136.7960 N   0  0  0  0  0  0  0  0  0  0  0  0
  189.3120  178.7910  139.2480 C   0  0  0  0  0  2  0  0  0  0  0  0
  190.0260  177.5210  139.7200 C   0  0  1  0  0  3  0  0  0  0  0  0
  187.5610  176.8460  137.7550 C   0  0  0  0  0  0  0  0  0  0  0  0
  190.8600  175.4960  138.7690 O   0  0  0  0  0  1  0  0  0  0  0  0
  188.5500  177.1530  143.2080 C   0  0  0  0  0  0  0  0  0  0  0  0
  189.7160  177.0470  143.9810 C   0  0  0  0  0  3  0  0  0  0  0  0
  189.8980  177.3210  141.1980 C   0  0  0  0  0  0  0  0  0  0  0  0
  190.9690  177.0830  143.3660 C   0  0  0  0  0  3  0  0  0  0  0  0
  188.6420  177.2940  141.8200 C   0  0  0  0  0  3  0  0  0  0  0  0
  191.0600  177.2210  141.9770 C   0  0  0  0  0  3  0  0  0  0  0  0
  187.2190  177.1250  143.8650 C   0  0  0  0  0  1  0  0  0  0  0  0
  186.4180  172.3910  136.8360 O   0  0  0  0  0  0  0  0  0  0  0  0
  185.8610  171.4860  135.8980 C   0  0  1  0  0  3  0  0  0  0  0  0
  185.8870  173.6820  136.6400 C   0  0  1  0  0  3  0  0  0  0  0  0
  183.4430  173.2990  137.1730 C   0  0  0  0  0  2  0  0  0  0  0  0
  183.5810  171.7940  136.9650 C   0  0  0  0  0  2  0  0  0  0  0  0
  184.3350  171.5180  135.6700 C   0  0  0  0  0  2  0  0  0  0  0  0
  184.7520  173.9430  137.6290 C   0  0  0  0  0  2  0  0  0  0  0  0
  186.6360  171.3440  134.7270 O   0  0  0  0  0  0  0  0  0  0  0  0
  187.2110  170.0650  134.7250 C   0  0  0  0  0  2  0  0  0  0  0  0
  188.0180  169.9130  135.8430 F   0  0  0  0  0  0  0  0  0  0  0  0
  189.5990  176.0410  135.0980 C   0  0  2  0  0  3  0  0  0  0  0  0
  191.0130  175.7000  134.6510 C   0  0  0  0  0  1  0  0  0  0  0  0
  187.9890  177.7990  134.3510 C   0  0  0  0  0  1  0  0  0  0  0  0
  189.3450  177.5410  134.9830 C   0  0  0  0  0  2  0  0  0  0  0  0
  1  6  1  0  0  0  0
  1  9  1  0  0  0  0
  2 12  1  1  0  0  0
  2  8  1  0  0  0  0
  4  1  2  0  0  0  0
  5 12  1  0  0  0  0
  6 31  1  6  0  0  0
  6  2  1  0  0  0  0
  7  3  1  0  0  0  0
  8 13  1  6  0  0  0
  8 11  1  0  0  0  0
  9  5  1  0  0  0  0
 10  3  1  0  0  0  0
 10 11  1  0  0  0  0
 11 16  1  1  0  0  0
 12  7  2  0  0  0  0
 14 20  1  0  0  0  0
 14 15  1  0  0  0  0
 16 18  1  0  0  0  0
 16 19  2  0  0  0  0
 17 15  2  0  0  0  0
 18 14  2  0  0  0  0
 19 17  1  0  0  0  0
 22 28  1  6  0  0  0
 22 21  1  0  0  0  0
 23  9  1  1  0  0  0
 23 21  1  0  0  0  0
 23 27  1  0  0  0  0
 24 27  1  0  0  0  0
 25 24  1  0  0  0  0
 26 22  1  0  0  0  0
 26 25  1  0  0  0  0
 29 28  1  0  0  0  0
 29 30  1  0  0  0  0
 31 32  1  1  0  0  0
 33 34  1  0  0  0  0
 34 31  1  0  0  0  0
M  END
>  <MODEL>
6

>  <REMARK>
 VINA RESULT:      -6.2      4.380      8.894
  Name = 
  6 active torsions:
  status: ('A' for Active; 'I' for Inactive)
    1  A    between atoms: C_1  and  C_15
    2  A    between atoms: C_1  and  C_19
    3  A    between atoms: O_3  and  C_13
    4  A    between atoms: O_3  and  C_17
    5  A    between atoms: C_12  and  C_28
    6  A    between atoms: C_14  and  N_25
                            x       y       z     vdW  Elec       q    Type
                         _______ _______ _______ _____ _____    ______ ____

>  <TORSDO>
F 6

$$$$
=
 OpenBabel10262423463D

 34 37  0  0  1  0  0  0  0  0999 V2000
  191.5330  174.2060  137.0120 C   0  0  0  0  0  0  0  0  0  0  0  0
  193.8370  174.1450  135.9540 C   0  0  2  0  0  3  0  0  0  0  0  0
  196.1330  175.9980  135.4850 O   0  0  0  0  0  0  0  0  0  0  0  0
  190.7030  173.5710  137.7190 O   0  0  0  0  0  0  0  0  0  0  0  0
  192.4320  176.3560  136.0980 C   0  0  0  0  0  2  0  0  0  0  0  0
  192.4680  173.4500  136.1180 C   0  0  2  0  0  3  0  0  0  0  0  0
  194.8170  176.4430  135.7060 C   0  0  0  0  0  3  0  0  0  0  0  0
  194.8510  173.7040  137.0240 C   0  0  2  0  0  3  0  0  0  0  0  0
  191.5690  175.6450  137.0320 N   0  0  0  0  0  0  0  0  0  0  0  0
  196.5080  174.6420  135.2650 C   0  0  0  0  0  2  0  0  0  0  0  0
  196.3020  173.7850  136.5180 C   0  0  1  0  0  3  0  0  0  0  0  0
  193.7490  175.6620  135.9210 C   0  0  0  0  0  0  0  0  0  0  0  0
  194.6010  172.4010  137.4610 O   0  0  0  0  0  1  0  0  0  0  0  0
  197.7510  175.0350  139.8060 C   0  0  0  0  0  0  0  0  0  0  0  0
  199.1250  174.8780  139.5690 C   0  0  0  0  0  3  0  0  0  0  0  0
  197.2690  174.1380  137.6050 C   0  0  0  0  0  0  0  0  0  0  0  0
  199.5700  174.3580  138.3530 C   0  0  0  0  0  3  0  0  0  0  0  0
  196.8260  174.6690  138.8240 C   0  0  0  0  0  3  0  0  0  0  0  0
  198.6430  173.9900  137.3710 C   0  0  0  0  0  3  0  0  0  0  0  0
  197.2800  175.5980  141.0970 C   0  0  0  0  0  1  0  0  0  0  0  0
  191.2050  177.1880  138.7670 O   0  0  0  0  0  0  0  0  0  0  0  0
  190.4180  177.1850  139.9450 C   0  0  1  0  0  3  0  0  0  0  0  0
  190.5740  176.4310  137.7590 C   0  0  1  0  0  3  0  0  0  0  0  0
  188.4650  177.7760  137.3770 C   0  0  0  0  0  2  0  0  0  0  0  0
  188.6040  178.4730  138.7270 C   0  0  0  0  0  2  0  0  0  0  0  0
  188.9020  177.4440  139.8110 C   0  0  0  0  0  2  0  0  0  0  0  0
  189.8150  177.3510  136.8030 C   0  0  0  0  0  2  0  0  0  0  0  0
  190.7700  176.1650  140.8530 O   0  0  0  0  0  0  0  0  0  0  0  0
  190.3120  176.5240  142.1290 C   0  0  0  0  0  2  0  0  0  0  0  0
  190.2870  175.4050  142.9480 F   0  0  0  0  0  0  0  0  0  0  0  0
  191.8040  173.0530  134.7930 C   0  0  2  0  0  3  0  0  0  0  0  0
  190.5560  173.8910  134.5570 C   0  0  0  0  0  1  0  0  0  0  0  0
  192.7320  170.7380  134.9310 C   0  0  0  0  0  1  0  0  0  0  0  0
  191.4810  171.5650  134.6980 C   0  0  0  0  0  2  0  0  0  0  0  0
  1  9  1  0  0  0  0
  1  4  2  0  0  0  0
  2 12  1  1  0  0  0
  2  6  1  0  0  0  0
  2  8  1  0  0  0  0
  3  7  1  0  0  0  0
  5  9  1  0  0  0  0
  6 31  1  6  0  0  0
  6  1  1  0  0  0  0
  7 12  2  0  0  0  0
  8 13  1  6  0  0  0
  9 23  1  0  0  0  0
 10  3  1  0  0  0  0
 10 11  1  0  0  0  0
 11  8  1  0  0  0  0
 11 16  1  1  0  0  0
 12  5  1  0  0  0  0
 14 20  1  0  0  0  0
 15 14  1  0  0  0  0
 16 18  1  0  0  0  0
 17 15  2  0  0  0  0
 18 14  2  0  0  0  0
 19 16  2  0  0  0  0
 19 17  1  0  0  0  0
 21 22  1  0  0  0  0
 22 28  1  6  0  0  0
 23 27  1  6  0  0  0
 23 21  1  0  0  0  0
 24 25  1  0  0  0  0
 25 26  1  0  0  0  0
 26 22  1  0  0  0  0
 27 24  1  0  0  0  0
 28 29  1  0  0  0  0
 29 30  1  0  0  0  0
 31 32  1  1  0  0  0
 34 31  1  0  0  0  0
 34 33  1  0  0  0  0
M  END
>  <MODEL>
7

>  <REMARK>
 VINA RESULT:      -6.0      8.412     11.531
  Name = 
  6 active torsions:
  status: ('A' for Active; 'I' for Inactive)
    1  A    between atoms: C_1  and  C_15
    2  A    between atoms: C_1  and  C_19
    3  A    between atoms: O_3  and  C_13
    4  A    between atoms: O_3  and  C_17
    5  A    between atoms: C_12  and  C_28
    6  A    between atoms: C_14  and  N_25
                            x       y       z     vdW  Elec       q    Type
                         _______ _______ _______ _____ _____    ______ ____

>  <TORSDO>
F 6

$$$$
=
 OpenBabel10262423463D

 34 37  0  0  1  0  0  0  0  0999 V2000
  188.4850  174.2480  136.5490 C   0  0  0  0  0  0  0  0  0  0  0  0
  189.1600  176.4720  137.5660 C   0  0  2  0  0  3  0  0  0  0  0  0
  187.9370  178.6420  139.2140 O   0  0  0  0  0  0  0  0  0  0  0  0
  188.8540  173.0660  136.3090 O   0  0  0  0  0  0  0  0  0  0  0  0
  186.6770  175.9440  136.9050 C   0  0  0  0  0  2  0  0  0  0  0  0
  189.5010  175.3490  136.5620 C   0  0  2  0  0  3  0  0  0  0  0  0
  187.1810  177.7470  138.4370 C   0  0  0  0  0  3  0  0  0  0  0  0
  189.7490  176.2080  138.9630 C   0  0  2  0  0  3  0  0  0  0  0  0
  187.0970  174.5540  136.7790 N   0  0  0  0  0  0  0  0  0  0  0  0
  189.3550  178.7610  139.1710 C   0  0  0  0  0  2  0  0  0  0  0  0
  190.0470  177.5110  139.7230 C   0  0  1  0  0  3  0  0  0  0  0  0
  187.6720  176.7560  137.6790 C   0  0  0  0  0  0  0  0  0  0  0  0
  190.9230  175.4520  138.8910 O   0  0  0  0  0  1  0  0  0  0  0  0
  188.4150  177.1540  143.1420 C   0  0  0  0  0  0  0  0  0  0  0  0
  189.5370  177.2100  143.9810 C   0  0  0  0  0  3  0  0  0  0  0  0
  189.8540  177.3690  141.2010 C   0  0  0  0  0  0  0  0  0  0  0  0
  190.8140  177.3510  143.4340 C   0  0  0  0  0  3  0  0  0  0  0  0
  188.5730  177.2370  141.7550 C   0  0  0  0  0  3  0  0  0  0  0  0
  190.9720  177.4320  142.0460 C   0  0  0  0  0  3  0  0  0  0  0  0
  187.0570  177.0140  143.7260 C   0  0  0  0  0  1  0  0  0  0  0  0
  184.8370  174.1740  136.2580 O   0  0  0  0  0  0  0  0  0  0  0  0
  183.7530  173.5650  136.9380 C   0  0  1  0  0  3  0  0  0  0  0  0
  186.0490  173.5480  136.6160 C   0  0  1  0  0  3  0  0  0  0  0  0
  185.6840  171.2110  135.7180 C   0  0  0  0  0  2  0  0  0  0  0  0
  184.1730  171.4120  135.6650 C   0  0  0  0  0  2  0  0  0  0  0  0
  183.6860  172.0230  136.9730 C   0  0  0  0  0  2  0  0  0  0  0  0
  186.4490  172.5230  135.5560 C   0  0  0  0  0  2  0  0  0  0  0  0
  183.4230  174.2040  138.1520 O   0  0  0  0  0  0  0  0  0  0  0  0
  183.0600  175.5300  137.8740 C   0  0  0  0  0  2  0  0  0  0  0  0
  183.3060  176.3240  138.9840 F   0  0  0  0  0  0  0  0  0  0  0  0
  189.8250  175.8510  135.1480 C   0  0  2  0  0  3  0  0  0  0  0  0
  191.2200  175.4020  134.7380 C   0  0  0  0  0  1  0  0  0  0  0  0
  188.3440  177.6970  134.3510 C   0  0  0  0  0  1  0  0  0  0  0  0
  189.6780  177.3610  134.9930 C   0  0  0  0  0  2  0  0  0  0  0  0
  1  6  1  0  0  0  0
  1  9  1  0  0  0  0
  2 12  1  1  0  0  0
  2  8  1  0  0  0  0
  4  1  2  0  0  0  0
  5 12  1  0  0  0  0
  6 31  1  6  0  0  0
  6  2  1  0  0  0  0
  7  3  1  0  0  0  0
  8 13  1  6  0  0  0
  8 11  1  0  0  0  0
  9  5  1  0  0  0  0
 10  3  1  0  0  0  0
 10 11  1  0  0  0  0
 11 16  1  1  0  0  0
 12  7  2  0  0  0  0
 14 20  1  0  0  0  0
 14 15  1  0  0  0  0
 16 18  1  0  0  0  0
 16 19  2  0  0  0  0
 17 15  2  0  0  0  0
 18 14  2  0  0  0  0
 19 17  1  0  0  0  0
 21 23  1  0  0  0  0
 21 22  1  0  0  0  0
 22 26  1  0  0  0  0
 22 28  1  1  0  0  0
 23 27  1  6  0  0  0
 23  9  1  0  0  0  0
 25 24  1  0  0  0  0
 25 26  1  0  0  0  0
 27 24  1  0  0  0  0
 29 28  1  0  0  0  0
 29 30  1  0  0  0  0
 31 32  1  1  0  0  0
 33 34  1  0  0  0  0
 34 31  1  0  0  0  0
M  END
>  <MODEL>
8

>  <REMARK>
 VINA RESULT:      -6.0      3.919      8.815
  Name = 
  6 active torsions:
  status: ('A' for Active; 'I' for Inactive)
    1  A    between atoms: C_1  and  C_15
    2  A    between atoms: C_1  and  C_19
    3  A    between atoms: O_3  and  C_13
    4  A    between atoms: O_3  and  C_17
    5  A    between atoms: C_12  and  C_28
    6  A    between atoms: C_14  and  N_25
                            x       y       z     vdW  Elec       q    Type
                         _______ _______ _______ _____ _____    ______ ____

>  <TORSDO>
F 6

$$$$
=
 OpenBabel10262423463D

 34 37  0  0  1  0  0  0  0  0999 V2000
  184.6760  175.2780  137.2840 C   0  0  0  0  0  0  0  0  0  0  0  0
  186.7000  175.5390  135.7770 C   0  0  2  0  0  3  0  0  0  0  0  0
  188.6770  177.6510  135.0320 O   0  0  0  0  0  0  0  0  0  0  0  0
  184.0720  174.5080  138.0800 O   0  0  0  0  0  0  0  0  0  0  0  0
  185.1740  177.5750  136.4200 C   0  0  0  0  0  2  0  0  0  0  0  0
  185.4610  174.6950  136.1490 C   0  0  2  0  0  3  0  0  0  0  0  0
  187.4050  177.9380  135.5590 C   0  0  0  0  0  3  0  0  0  0  0  0
  187.9520  175.1240  136.5690 C   0  0  2  0  0  3  0  0  0  0  0  0
  184.5930  176.7070  137.4370 N   0  0  0  0  0  0  0  0  0  0  0  0
  189.1100  176.3620  134.6100 C   0  0  0  0  0  2  0  0  0  0  0  0
  189.2490  175.3940  135.7880 C   0  0  1  0  0  3  0  0  0  0  0  0
  186.4780  177.0370  135.9110 C   0  0  0  0  0  0  0  0  0  0  0  0
  187.9120  173.7720  136.9190 O   0  0  0  0  0  1  0  0  0  0  0  0
  191.2500  176.6420  138.7740 C   0  0  0  0  0  0  0  0  0  0  0  0
  192.5600  176.5260  138.2840 C   0  0  0  0  0  3  0  0  0  0  0  0
  190.3920  175.7600  136.6840 C   0  0  0  0  0  0  0  0  0  0  0  0
  192.7850  176.0350  136.9980 C   0  0  0  0  0  3  0  0  0  0  0  0
  190.1690  176.2630  137.9730 C   0  0  0  0  0  3  0  0  0  0  0  0
  191.7020  175.6540  136.1980 C   0  0  0  0  0  3  0  0  0  0  0  0
  191.0120  177.1750  140.1390 C   0  0  0  0  0  1  0  0  0  0  0  0
  183.8730  178.7280  138.3960 O   0  0  0  0  0  0  0  0  0  0  0  0
  183.8570  179.2470  139.7150 C   0  0  1  0  0  3  0  0  0  0  0  0
  183.7120  177.3270  138.4240 C   0  0  1  0  0  3  0  0  0  0  0  0
  181.3850  177.1150  139.3970 C   0  0  0  0  0  2  0  0  0  0  0  0
  181.4370  178.5310  139.9610 C   0  0  0  0  0  2  0  0  0  0  0  0
  182.7610  178.7530  140.6820 C   0  0  0  0  0  2  0  0  0  0  0  0
  182.2550  176.9560  138.1510 C   0  0  0  0  0  2  0  0  0  0  0  0
  185.1420  179.3730  140.2830 O   0  0  0  0  0  0  0  0  0  0  0  0
  185.1050  178.8620  141.5890 C   0  0  0  0  0  2  0  0  0  0  0  0
  185.3770  179.8770  142.4950 F   0  0  0  0  0  0  0  0  0  0  0  0
  184.5670  174.3360  134.9540 C   0  0  2  0  0  3  0  0  0  0  0  0
  183.1060  174.5910  135.2940 C   0  0  0  0  0  1  0  0  0  0  0  0
  184.8800  171.9530  135.6340 C   0  0  0  0  0  1  0  0  0  0  0  0
  184.7640  172.9060  134.4590 C   0  0  0  0  0  2  0  0  0  0  0  0
  1  9  1  0  0  0  0
  1  4  2  0  0  0  0
  2 12  1  1  0  0  0
  2  6  1  0  0  0  0
  2  8  1  0  0  0  0
  3  7  1  0  0  0  0
  5  9  1  0  0  0  0
  6 31  1  6  0  0  0
  6  1  1  0  0  0  0
  7 12  2  0  0  0  0
  8 13  1  6  0  0  0
 10  3  1  0  0  0  0
 10 11  1  0  0  0  0
 11  8  1  0  0  0  0
 11 16  1  1  0  0  0
 12  5  1  0  0  0  0
 14 20  1  0  0  0  0
 15 14  1  0  0  0  0
 16 18  1  0  0  0  0
 17 15  2  0  0  0  0
 18 14  2  0  0  0  0
 19 16  2  0  0  0  0
 19 17  1  0  0  0  0
 21 23  1  0  0  0  0
 21 22  1  0  0  0  0
 22 28  1  1  0  0  0
 22 26  1  0  0  0  0
 23  9  1  6  0  0  0
 24 25  1  0  0  0  0
 25 26  1  0  0  0  0
 27 23  1  0  0  0  0
 27 24  1  0  0  0  0
 28 29  1  0  0  0  0
 29 30  1  0  0  0  0
 31 32  1  1  0  0  0
 34 31  1  0  0  0  0
 34 33  1  0  0  0  0
M  END
>  <MODEL>
9

>  <REMARK>
 VINA RESULT:      -5.9      3.834      6.719
  Name = 
  6 active torsions:
  status: ('A' for Active; 'I' for Inactive)
    1  A    between atoms: C_1  and  C_15
    2  A    between atoms: C_1  and  C_19
    3  A    between atoms: O_3  and  C_13
    4  A    between atoms: O_3  and  C_17
    5  A    between atoms: C_12  and  C_28
    6  A    between atoms: C_14  and  N_25
                            x       y       z     vdW  Elec       q    Type
                         _______ _______ _______ _____ _____    ______ ____

>  <TORSDO>
F 6

$$$$
