=
 OpenBabel10272401073D

 27 29  0  0  1  0  0  0  0  0999 V2000
  188.4020  175.6820  143.3410 C   0  0  0  0  0  1  0  0  0  0  0  0
  189.1970  176.9710  143.5990 C   0  0  2  0  0  0  0  0  0  0  0  0
  192.1530  178.1630  141.4480 C   0  0  0  0  0  3  0  0  0  0  0  0
  192.0010  177.3440  140.3320 C   0  0  0  0  0  3  0  0  0  0  0  0
  190.2110  177.1200  142.4670 C   0  0  0  0  0  0  0  0  0  0  0  0
  191.4710  178.9830  143.6810 C   0  0  0  0  0  1  0  0  0  0  0  0
  190.9490  176.4320  140.3000 C   0  0  0  0  0  3  0  0  0  0  0  0
  190.0910  176.3440  141.3490 N   0  0  0  0  0  0  0  0  0  0  0  0
  191.2670  178.0660  142.5210 C   0  0  0  0  0  0  0  0  0  0  0  0
  191.1910  176.6370  147.4410 C   0  0  0  0  0  3  0  0  0  0  0  0
  189.9110  176.9020  144.9490 C   0  0  0  0  0  0  0  0  0  0  0  0
  191.1650  176.2740  145.0480 C   0  0  0  0  0  3  0  0  0  0  0  0
  191.8050  176.1480  146.2850 C   0  0  0  0  0  3  0  0  0  0  0  0
  189.9350  177.2430  147.3630 C   0  0  0  0  0  3  0  0  0  0  0  0
  189.2960  177.3670  146.1250 C   0  0  0  0  0  3  0  0  0  0  0  0
  188.2900  178.1320  143.5670 N   0  0  0  0  0  2  0  0  0  0  0  0
  187.1820  177.9320  142.6330 C   0  0  0  0  0  2  0  0  0  0  0  0
  184.7840  178.7560  145.4110 C   0  0  0  0  0  3  0  0  0  0  0  0
  182.4590  179.2310  145.4450 F   0  0  0  0  0  0  0  0  0  0  0  0
  183.5050  178.7340  143.3550 C   0  0  0  0  0  0  0  0  0  0  0  0
  182.2820  178.8950  142.7110 O   0  0  0  0  0  1  0  0  0  0  0  0
  184.6610  178.3970  142.6190 C   0  0  0  0  0  0  0  0  0  0  0  0
  183.5720  178.9090  144.7420 C   0  0  0  0  0  0  0  0  0  0  0  0
  185.8910  178.2410  143.3140 C   0  0  0  0  0  0  0  0  0  0  0  0
  185.9360  178.4270  144.6990 C   0  0  0  0  0  3  0  0  0  0  0  0
  184.7280  179.1570  140.2390 C   0  0  0  0  0  2  0  0  0  0  0  0
  184.5010  178.2240  141.1540 C   0  0  0  0  0  3  0  0  0  0  0  0
  2  1  1  6  0  0  0
  2 11  1  0  0  0  0
  3  9  1  0  0  0  0
  4  3  2  0  0  0  0
  5  9  2  0  0  0  0
  5  2  1  0  0  0  0
  7  4  1  0  0  0  0
  7  8  2  0  0  0  0
  8  5  1  0  0  0  0
  9  6  1  0  0  0  0
 11 12  2  0  0  0  0
 11 15  1  0  0  0  0
 12 13  1  0  0  0  0
 13 10  2  0  0  0  0
 14 10  1  0  0  0  0
 15 14  2  0  0  0  0
 16  2  1  0  0  0  0
 17 24  1  0  0  0  0
 17 16  1  0  0  0  0
 20 23  2  0  0  0  0
 21 20  1  0  0  0  0
 22 24  2  0  0  0  0
 22 20  1  0  0  0  0
 23 18  1  0  0  0  0
 23 19  1  0  0  0  0
 24 25  1  0  0  0  0
 25 18  2  0  0  0  0
 26 27  2  0  0  0  0
 27 22  1  0  0  0  0
M  END
>  <MODEL>
1

>  <REMARK>
 VINA RESULT:      -7.8      0.000      0.000
  Name = 
  6 active torsions:
  status: ('A' for Active; 'I' for Inactive)
    1  A    between atoms: N_2  and  C_6
    2  A    between atoms: N_2  and  C_15
    3  A    between atoms: C_6  and  C_17
    4  A    between atoms: C_9  and  C_15
    5  A    between atoms: C_14  and  C_19
    6  A    between atoms: C_15  and  C_18
                            x       y       z     vdW  Elec       q    Type
                         _______ _______ _______ _____ _____    ______ ____

>  <TORSDO>
F 6

$$$$
=
 OpenBabel10272401073D

 27 29  0  0  1  0  0  0  0  0999 V2000
  189.8360  178.8740  142.5400 C   0  0  0  0  0  1  0  0  0  0  0  0
  189.9500  177.3610  142.3000 C   0  0  2  0  0  0  0  0  0  0  0  0
  191.6190  176.8990  145.7340 C   0  0  0  0  0  3  0  0  0  0  0  0
  192.0790  175.5890  145.6170 C   0  0  0  0  0  3  0  0  0  0  0  0
  190.6880  176.7610  143.4940 C   0  0  0  0  0  0  0  0  0  0  0  0
  190.4730  178.9100  144.8610 C   0  0  0  0  0  1  0  0  0  0  0  0
  191.8420  174.8910  144.4360 C   0  0  0  0  0  3  0  0  0  0  0  0
  191.1660  175.4830  143.4180 N   0  0  0  0  0  0  0  0  0  0  0  0
  190.9250  177.5000  144.6820 C   0  0  0  0  0  0  0  0  0  0  0  0
  192.1040  176.6940  138.5900 C   0  0  0  0  0  3  0  0  0  0  0  0
  190.7120  177.0770  141.0050 C   0  0  0  0  0  0  0  0  0  0  0  0
  192.0600  177.4580  140.8860 C   0  0  0  0  0  3  0  0  0  0  0  0
  192.7540  177.2610  139.6890 C   0  0  0  0  0  3  0  0  0  0  0  0
  190.7580  176.3310  138.6850 C   0  0  0  0  0  3  0  0  0  0  0  0
  190.0640  176.5290  139.8830 C   0  0  0  0  0  3  0  0  0  0  0  0
  188.6050  176.7620  142.2360 N   0  0  0  0  0  2  0  0  0  0  0  0
  188.0450  176.5370  143.5690 C   0  0  0  0  0  2  0  0  0  0  0  0
  185.2020  178.8730  142.7910 C   0  0  0  0  0  3  0  0  0  0  0  0
  183.6480  180.0320  144.1600 F   0  0  0  0  0  0  0  0  0  0  0  0
  185.3090  178.6670  145.2010 C   0  0  0  0  0  0  0  0  0  0  0  0
  184.7980  179.0060  146.4500 O   0  0  0  0  0  1  0  0  0  0  0  0
  186.4170  177.8000  145.0950 C   0  0  0  0  0  0  0  0  0  0  0  0
  184.7110  179.1990  144.0530 C   0  0  0  0  0  0  0  0  0  0  0  0
  186.9110  177.4780  143.8020 C   0  0  0  0  0  0  0  0  0  0  0  0
  186.2930  178.0150  142.6670 C   0  0  0  0  0  3  0  0  0  0  0  0
  187.9830  177.8520  147.0430 C   0  0  0  0  0  2  0  0  0  0  0  0
  186.9960  177.2860  146.3610 C   0  0  0  0  0  3  0  0  0  0  0  0
  2  1  1  1  0  0  0
  2  5  1  0  0  0  0
  4  3  1  0  0  0  0
  5  9  1  0  0  0  0
  7  4  2  0  0  0  0
  8  5  2  0  0  0  0
  8  7  1  0  0  0  0
  9  6  1  0  0  0  0
  9  3  2  0  0  0  0
 10 14  2  0  0  0  0
 10 13  1  0  0  0  0
 11  2  1  0  0  0  0
 12 11  1  0  0  0  0
 13 12  2  0  0  0  0
 14 15  1  0  0  0  0
 15 11  2  0  0  0  0
 16  2  1  0  0  0  0
 16 17  1  0  0  0  0
 17 24  1  0  0  0  0
 18 23  1  0  0  0  0
 20 21  1  0  0  0  0
 22 20  1  0  0  0  0
 22 27  1  0  0  0  0
 23 19  1  0  0  0  0
 23 20  2  0  0  0  0
 24 22  2  0  0  0  0
 25 18  2  0  0  0  0
 25 24  1  0  0  0  0
 27 26  2  0  0  0  0
M  END
>  <MODEL>
2

>  <REMARK>
 VINA RESULT:      -7.6      1.626      4.452
  Name = 
  6 active torsions:
  status: ('A' for Active; 'I' for Inactive)
    1  A    between atoms: N_2  and  C_6
    2  A    between atoms: N_2  and  C_15
    3  A    between atoms: C_6  and  C_17
    4  A    between atoms: C_9  and  C_15
    5  A    between atoms: C_14  and  C_19
    6  A    between atoms: C_15  and  C_18
                            x       y       z     vdW  Elec       q    Type
                         _______ _______ _______ _____ _____    ______ ____

>  <TORSDO>
F 6

$$$$
=
 OpenBabel10272401073D

 27 29  0  0  1  0  0  0  0  0999 V2000
  187.6320  176.1980  143.6660 C   0  0  0  0  0  1  0  0  0  0  0  0
  188.0210  177.5860  144.1970 C   0  0  2  0  0  0  0  0  0  0  0  0
  191.2680  177.6470  142.1370 C   0  0  0  0  0  3  0  0  0  0  0  0
  192.0700  178.4410  142.9530 C   0  0  0  0  0  3  0  0  0  0  0  0
  189.4420  177.8790  143.7230 C   0  0  0  0  0  0  0  0  0  0  0  0
  189.1510  176.4830  141.6020 C   0  0  0  0  0  1  0  0  0  0  0  0
  191.5460  178.9340  144.1450 C   0  0  0  0  0  3  0  0  0  0  0  0
  190.2670  178.6440  144.4980 N   0  0  0  0  0  0  0  0  0  0  0  0
  189.9550  177.3540  142.5080 C   0  0  0  0  0  0  0  0  0  0  0  0
  187.8750  177.8050  148.5310 C   0  0  0  0  0  3  0  0  0  0  0  0
  187.9510  177.6160  145.7250 C   0  0  0  0  0  0  0  0  0  0  0  0
  186.9380  178.3490  146.3670 C   0  0  0  0  0  3  0  0  0  0  0  0
  186.8950  178.4370  147.7610 C   0  0  0  0  0  3  0  0  0  0  0  0
  188.9020  177.0920  147.9070 C   0  0  0  0  0  3  0  0  0  0  0  0
  188.9440  177.0060  146.5120 C   0  0  0  0  0  3  0  0  0  0  0  0
  187.1220  178.6080  143.6310 N   0  0  0  0  0  2  0  0  0  0  0  0
  186.2850  178.0640  142.5620 C   0  0  0  0  0  2  0  0  0  0  0  0
  183.2020  178.8760  144.5580 C   0  0  0  0  0  3  0  0  0  0  0  0
  180.9430  179.2710  143.9450 F   0  0  0  0  0  0  0  0  0  0  0  0
  182.5300  178.7570  142.2350 C   0  0  0  0  0  0  0  0  0  0  0  0
  181.5240  178.8590  141.2790 O   0  0  0  0  0  1  0  0  0  0  0  0
  183.8510  178.4410  141.8510 C   0  0  0  0  0  0  0  0  0  0  0  0
  182.2140  178.9700  143.5810 C   0  0  0  0  0  0  0  0  0  0  0  0
  184.8490  178.3450  142.8570 C   0  0  0  0  0  0  0  0  0  0  0  0
  184.5120  178.5690  144.1960 C   0  0  0  0  0  3  0  0  0  0  0  0
  184.5040  179.1510  139.5450 C   0  0  0  0  0  2  0  0  0  0  0  0
  184.0990  178.2250  140.4040 C   0  0  0  0  0  3  0  0  0  0  0  0
  2  1  1  6  0  0  0
  2 11  1  0  0  0  0
  3  9  2  0  0  0  0
  3  4  1  0  0  0  0
  4  7  2  0  0  0  0
  5  2  1  0  0  0  0
  5  8  2  0  0  0  0
  6  9  1  0  0  0  0
  7  8  1  0  0  0  0
  9  5  1  0  0  0  0
 11 12  2  0  0  0  0
 11 15  1  0  0  0  0
 12 13  1  0  0  0  0
 13 10  2  0  0  0  0
 14 10  1  0  0  0  0
 15 14  2  0  0  0  0
 16  2  1  0  0  0  0
 17 24  1  0  0  0  0
 17 16  1  0  0  0  0
 20 23  1  0  0  0  0
 21 20  1  0  0  0  0
 22 20  2  0  0  0  0
 22 24  1  0  0  0  0
 23 19  1  0  0  0  0
 23 18  2  0  0  0  0
 24 25  2  0  0  0  0
 25 18  1  0  0  0  0
 26 27  2  0  0  0  0
 27 22  1  0  0  0  0
M  END
>  <MODEL>
3

>  <REMARK>
 VINA RESULT:      -7.6      1.631      2.512
  Name = 
  6 active torsions:
  status: ('A' for Active; 'I' for Inactive)
    1  A    between atoms: N_2  and  C_6
    2  A    between atoms: N_2  and  C_15
    3  A    between atoms: C_6  and  C_17
    4  A    between atoms: C_9  and  C_15
    5  A    between atoms: C_14  and  C_19
    6  A    between atoms: C_15  and  C_18
                            x       y       z     vdW  Elec       q    Type
                         _______ _______ _______ _____ _____    ______ ____

>  <TORSDO>
F 6

$$$$
=
 OpenBabel10272401073D

 27 29  0  0  1  0  0  0  0  0999 V2000
  188.1500  179.2750  141.7120 C   0  0  0  0  0  1  0  0  0  0  0  0
  188.7920  177.8850  141.8240 C   0  0  2  0  0  0  0  0  0  0  0  0
  191.6690  177.0160  144.2230 C   0  0  0  0  0  3  0  0  0  0  0  0
  192.0730  178.2920  144.6070 C   0  0  0  0  0  3  0  0  0  0  0  0
  189.9610  177.9940  142.7990 C   0  0  0  0  0  0  0  0  0  0  0  0
  190.2170  175.4560  142.9650 C   0  0  0  0  0  1  0  0  0  0  0  0
  191.4070  179.3980  144.0850 C   0  0  0  0  0  3  0  0  0  0  0  0
  190.3820  179.2270  143.2110 N   0  0  0  0  0  0  0  0  0  0  0  0
  190.6150  176.8490  143.3240 C   0  0  0  0  0  0  0  0  0  0  0  0
  190.2270  176.6610  137.9130 C   0  0  0  0  0  3  0  0  0  0  0  0
  189.2820  177.4070  140.4560 C   0  0  0  0  0  0  0  0  0  0  0  0
  190.6590  177.2410  140.2220 C   0  0  0  0  0  3  0  0  0  0  0  0
  191.1280  176.8640  138.9610 C   0  0  0  0  0  3  0  0  0  0  0  0
  188.8580  176.8440  138.1220 C   0  0  0  0  0  3  0  0  0  0  0  0
  188.3900  177.2220  139.3840 C   0  0  0  0  0  3  0  0  0  0  0  0
  187.8170  176.9260  142.3730 N   0  0  0  0  0  2  0  0  0  0  0  0
  186.6420  177.6020  142.9230 C   0  0  0  0  0  2  0  0  0  0  0  0
  188.0550  177.0940  146.3710 C   0  0  0  0  0  3  0  0  0  0  0  0
  187.4650  177.9640  148.5000 F   0  0  0  0  0  0  0  0  0  0  0  0
  186.1820  178.6120  146.5910 C   0  0  0  0  0  0  0  0  0  0  0  0
  185.3780  179.4030  147.4070 O   0  0  0  0  0  1  0  0  0  0  0  0
  185.9370  178.5380  145.2040 C   0  0  0  0  0  0  0  0  0  0  0  0
  187.2350  177.8910  147.1660 C   0  0  0  0  0  0  0  0  0  0  0  0
  186.7790  177.7180  144.4050 C   0  0  0  0  0  0  0  0  0  0  0  0
  187.8300  177.0120  144.9990 C   0  0  0  0  0  3  0  0  0  0  0  0
  183.5610  178.8790  144.5050 C   0  0  0  0  0  2  0  0  0  0  0  0
  184.7970  179.3290  144.6770 C   0  0  0  0  0  3  0  0  0  0  0  0
  2  1  1  6  0  0  0
  2 16  1  0  0  0  0
  2  5  1  0  0  0  0
  3  4  1  0  0  0  0
  5  8  2  0  0  0  0
  5  9  1  0  0  0  0
  6  9  1  0  0  0  0
  7  4  2  0  0  0  0
  8  7  1  0  0  0  0
  9  3  2  0  0  0  0
 10 14  2  0  0  0  0
 10 13  1  0  0  0  0
 11  2  1  0  0  0  0
 12 11  1  0  0  0  0
 13 12  2  0  0  0  0
 14 15  1  0  0  0  0
 15 11  2  0  0  0  0
 16 17  1  0  0  0  0
 17 24  1  0  0  0  0
 18 23  1  0  0  0  0
 20 23  2  0  0  0  0
 20 21  1  0  0  0  0
 22 20  1  0  0  0  0
 23 19  1  0  0  0  0
 24 25  1  0  0  0  0
 24 22  2  0  0  0  0
 25 18  2  0  0  0  0
 26 27  2  0  0  0  0
 27 22  1  0  0  0  0
M  END
>  <MODEL>
4

>  <REMARK>
 VINA RESULT:      -7.5      2.358      4.712
  Name = 
  6 active torsions:
  status: ('A' for Active; 'I' for Inactive)
    1  A    between atoms: N_2  and  C_6
    2  A    between atoms: N_2  and  C_15
    3  A    between atoms: C_6  and  C_17
    4  A    between atoms: C_9  and  C_15
    5  A    between atoms: C_14  and  C_19
    6  A    between atoms: C_15  and  C_18
                            x       y       z     vdW  Elec       q    Type
                         _______ _______ _______ _____ _____    ______ ____

>  <TORSDO>
F 6

$$$$
=
 OpenBabel10272401073D

 27 29  0  0  1  0  0  0  0  0999 V2000
  188.6130  175.6290  142.7430 C   0  0  0  0  0  1  0  0  0  0  0  0
  188.6880  177.1530  142.5660 C   0  0  2  0  0  0  0  0  0  0  0  0
  188.0760  178.4150  138.9860 C   0  0  0  0  0  3  0  0  0  0  0  0
  189.1830  177.8750  138.3350 C   0  0  0  0  0  3  0  0  0  0  0  0
  188.8390  177.4360  141.0740 C   0  0  0  0  0  0  0  0  0  0  0  0
  186.6750  178.7930  140.9890 C   0  0  0  0  0  1  0  0  0  0  0  0
  190.0950  177.1160  139.0640 C   0  0  0  0  0  3  0  0  0  0  0  0
  189.9040  176.9150  140.3940 N   0  0  0  0  0  0  0  0  0  0  0  0
  187.8880  178.2030  140.3520 C   0  0  0  0  0  0  0  0  0  0  0  0
  191.9830  178.7740  144.8840 C   0  0  0  0  0  3  0  0  0  0  0  0
  189.8760  177.7270  143.3410 C   0  0  0  0  0  0  0  0  0  0  0  0
  190.6490  176.8880  144.1620 C   0  0  0  0  0  3  0  0  0  0  0  0
  191.7000  177.4060  144.9240 C   0  0  0  0  0  3  0  0  0  0  0  0
  191.2090  179.6240  144.0910 C   0  0  0  0  0  3  0  0  0  0  0  0
  190.1570  179.1050  143.3300 C   0  0  0  0  0  3  0  0  0  0  0  0
  187.4350  177.7730  143.0330 N   0  0  0  0  0  2  0  0  0  0  0  0
  186.7320  176.9230  143.9930 C   0  0  0  0  0  2  0  0  0  0  0  0
  188.2860  177.3040  147.3960 C   0  0  0  0  0  3  0  0  0  0  0  0
  187.8560  178.7760  149.2090 F   0  0  0  0  0  0  0  0  0  0  0  0
  186.5180  178.9510  147.2370 C   0  0  0  0  0  0  0  0  0  0  0  0
  185.8040  179.9930  147.8210 O   0  0  0  0  0  1  0  0  0  0  0  0
  186.1990  178.5080  145.9360 C   0  0  0  0  0  0  0  0  0  0  0  0
  187.5550  178.3480  147.9590 C   0  0  0  0  0  0  0  0  0  0  0  0
  186.9510  177.4400  145.3750 C   0  0  0  0  0  0  0  0  0  0  0  0
  187.9870  176.8570  146.1110 C   0  0  0  0  0  3  0  0  0  0  0  0
  183.8240  178.7790  145.2050 C   0  0  0  0  0  2  0  0  0  0  0  0
  185.0820  179.1980  145.2440 C   0  0  0  0  0  3  0  0  0  0  0  0
  2  1  1  1  0  0  0
  2 16  1  0  0  0  0
  2 11  1  0  0  0  0
  3  9  1  0  0  0  0
  4  3  2  0  0  0  0
  4  7  1  0  0  0  0
  5  2  1  0  0  0  0
  7  8  2  0  0  0  0
  8  5  1  0  0  0  0
  9  6  1  0  0  0  0
  9  5  2  0  0  0  0
 10 13  1  0  0  0  0
 11 12  1  0  0  0  0
 12 13  2  0  0  0  0
 14 10  2  0  0  0  0
 15 11  2  0  0  0  0
 15 14  1  0  0  0  0
 16 17  1  0  0  0  0
 17 24  1  0  0  0  0
 18 23  1  0  0  0  0
 20 21  1  0  0  0  0
 20 23  2  0  0  0  0
 22 20  1  0  0  0  0
 23 19  1  0  0  0  0
 24 22  2  0  0  0  0
 24 25  1  0  0  0  0
 25 18  2  0  0  0  0
 26 27  2  0  0  0  0
 27 22  1  0  0  0  0
M  END
>  <MODEL>
5

>  <REMARK>
 VINA RESULT:      -7.4      2.433      3.695
  Name = 
  6 active torsions:
  status: ('A' for Active; 'I' for Inactive)
    1  A    between atoms: N_2  and  C_6
    2  A    between atoms: N_2  and  C_15
    3  A    between atoms: C_6  and  C_17
    4  A    between atoms: C_9  and  C_15
    5  A    between atoms: C_14  and  C_19
    6  A    between atoms: C_15  and  C_18
                            x       y       z     vdW  Elec       q    Type
                         _______ _______ _______ _____ _____    ______ ____

>  <TORSDO>
F 6

$$$$
=
 OpenBabel10272401073D

 27 29  0  0  1  0  0  0  0  0999 V2000
  189.0090  178.8060  137.8340 C   0  0  0  0  0  1  0  0  0  0  0  0
  188.7510  177.3260  138.1550 C   0  0  2  0  0  0  0  0  0  0  0  0
  191.2130  175.8070  135.6210 C   0  0  0  0  0  3  0  0  0  0  0  0
  191.9490  174.9680  136.4540 C   0  0  0  0  0  3  0  0  0  0  0  0
  189.8820  176.5150  137.5250 C   0  0  0  0  0  0  0  0  0  0  0  0
  189.4120  177.4480  135.1920 C   0  0  0  0  0  1  0  0  0  0  0  0
  191.6320  174.9120  137.8090 C   0  0  0  0  0  3  0  0  0  0  0  0
  190.6210  175.6720  138.3050 N   0  0  0  0  0  0  0  0  0  0  0  0
  190.1750  176.5840  136.1380 C   0  0  0  0  0  0  0  0  0  0  0  0
  184.8590  176.0740  136.6910 C   0  0  0  0  0  3  0  0  0  0  0  0
  187.4000  176.8810  137.5930 C   0  0  0  0  0  0  0  0  0  0  0  0
  186.3690  177.8210  137.4180 C   0  0  0  0  0  3  0  0  0  0  0  0
  185.1090  177.4210  136.9630 C   0  0  0  0  0  3  0  0  0  0  0  0
  185.8660  175.1250  136.8820 C   0  0  0  0  0  3  0  0  0  0  0  0
  187.1260  175.5250  137.3380 C   0  0  0  0  0  3  0  0  0  0  0  0
  188.7850  177.1160  139.6130 N   0  0  0  0  0  2  0  0  0  0  0  0
  188.7040  178.3800  140.3460 C   0  0  0  0  0  2  0  0  0  0  0  0
  185.2300  178.7190  141.7460 C   0  0  0  0  0  3  0  0  0  0  0  0
  184.2730  178.1400  143.8400 F   0  0  0  0  0  0  0  0  0  0  0  0
  186.5960  177.7190  143.4770 C   0  0  0  0  0  0  0  0  0  0  0  0
  186.6960  177.1960  144.7630 O   0  0  0  0  0  1  0  0  0  0  0  0
  187.7290  177.7740  142.6380 C   0  0  0  0  0  0  0  0  0  0  0  0
  185.3580  178.1920  143.0290 C   0  0  0  0  0  0  0  0  0  0  0  0
  187.5870  178.3160  141.3330 C   0  0  0  0  0  0  0  0  0  0  0  0
  186.3380  178.7760  140.9030 C   0  0  0  0  0  3  0  0  0  0  0  0
  189.4570  176.0170  143.0600 C   0  0  0  0  0  2  0  0  0  0  0  0
  189.0050  177.2570  143.1940 C   0  0  0  0  0  3  0  0  0  0  0  0
  2  1  1  6  0  0  0
  2 16  1  0  0  0  0
  3  9  2  0  0  0  0
  3  4  1  0  0  0  0
  4  7  2  0  0  0  0
  5  2  1  0  0  0  0
  5  8  2  0  0  0  0
  6  9  1  0  0  0  0
  7  8  1  0  0  0  0
  9  5  1  0  0  0  0
 10 14  2  0  0  0  0
 10 13  1  0  0  0  0
 11  2  1  0  0  0  0
 12 11  1  0  0  0  0
 13 12  2  0  0  0  0
 14 15  1  0  0  0  0
 15 11  2  0  0  0  0
 16 17  1  0  0  0  0
 17 24  1  0  0  0  0
 18 23  1  0  0  0  0
 20 21  1  0  0  0  0
 22 27  1  0  0  0  0
 22 20  1  0  0  0  0
 23 20  2  0  0  0  0
 23 19  1  0  0  0  0
 24 22  2  0  0  0  0
 25 24  1  0  0  0  0
 25 18  2  0  0  0  0
 26 27  2  0  0  0  0
M  END
>  <MODEL>
6

>  <REMARK>
 VINA RESULT:      -7.3      3.432      6.480
  Name = 
  6 active torsions:
  status: ('A' for Active; 'I' for Inactive)
    1  A    between atoms: N_2  and  C_6
    2  A    between atoms: N_2  and  C_15
    3  A    between atoms: C_6  and  C_17
    4  A    between atoms: C_9  and  C_15
    5  A    between atoms: C_14  and  C_19
    6  A    between atoms: C_15  and  C_18
                            x       y       z     vdW  Elec       q    Type
                         _______ _______ _______ _____ _____    ______ ____

>  <TORSDO>
F 6

$$$$
=
 OpenBabel10272401073D

 27 29  0  0  1  0  0  0  0  0999 V2000
  188.9820  178.9140  137.9410 C   0  0  0  0  0  1  0  0  0  0  0  0
  188.7030  177.4310  138.2270 C   0  0  2  0  0  0  0  0  0  0  0  0
  191.1740  175.8940  135.7130 C   0  0  0  0  0  3  0  0  0  0  0  0
  191.9200  175.0770  136.5580 C   0  0  0  0  0  3  0  0  0  0  0  0
  189.8400  176.6210  137.6080 C   0  0  0  0  0  0  0  0  0  0  0  0
  189.3570  177.5110  135.2610 C   0  0  0  0  0  1  0  0  0  0  0  0
  191.6060  175.0390  137.9150 C   0  0  0  0  0  3  0  0  0  0  0  0
  190.5890  175.7970  138.4000 N   0  0  0  0  0  0  0  0  0  0  0  0
  190.1300  176.6700  136.2200 C   0  0  0  0  0  0  0  0  0  0  0  0
  184.8340  176.2490  136.6510 C   0  0  0  0  0  3  0  0  0  0  0  0
  187.3600  177.0100  137.6260 C   0  0  0  0  0  0  0  0  0  0  0  0
  186.3500  177.9670  137.4270 C   0  0  0  0  0  3  0  0  0  0  0  0
  185.0970  177.5900  136.9360 C   0  0  0  0  0  3  0  0  0  0  0  0
  185.8200  175.2820  136.8650 C   0  0  0  0  0  3  0  0  0  0  0  0
  187.0730  175.6600  137.3570 C   0  0  0  0  0  3  0  0  0  0  0  0
  188.7010  177.1940  139.6810 N   0  0  0  0  0  2  0  0  0  0  0  0
  188.3580  178.4040  140.4290 C   0  0  0  0  0  2  0  0  0  0  0  0
  188.2980  176.9560  143.9000 C   0  0  0  0  0  3  0  0  0  0  0  0
  186.6630  176.9640  145.6210 F   0  0  0  0  0  0  0  0  0  0  0  0
  186.1600  178.0380  143.5470 C   0  0  0  0  0  0  0  0  0  0  0  0
  184.9060  178.3870  144.0380 O   0  0  0  0  0  1  0  0  0  0  0  0
  186.5420  178.4050  142.2390 C   0  0  0  0  0  0  0  0  0  0  0  0
  187.0350  177.3160  144.3660 C   0  0  0  0  0  0  0  0  0  0  0  0
  187.8320  178.0290  141.7740 C   0  0  0  0  0  0  0  0  0  0  0  0
  188.6930  177.3150  142.6130 C   0  0  0  0  0  3  0  0  0  0  0  0
  184.6990  178.6360  140.5670 C   0  0  0  0  0  2  0  0  0  0  0  0
  185.5520  179.1640  141.4350 C   0  0  0  0  0  3  0  0  0  0  0  0
  2  1  1  6  0  0  0
  2 16  1  0  0  0  0
  3  9  2  0  0  0  0
  3  4  1  0  0  0  0
  4  7  2  0  0  0  0
  5  2  1  0  0  0  0
  5  8  2  0  0  0  0
  6  9  1  0  0  0  0
  7  8  1  0  0  0  0
  9  5  1  0  0  0  0
 10 14  2  0  0  0  0
 10 13  1  0  0  0  0
 11  2  1  0  0  0  0
 12 11  1  0  0  0  0
 13 12  2  0  0  0  0
 14 15  1  0  0  0  0
 15 11  2  0  0  0  0
 16 17  1  0  0  0  0
 17 24  1  0  0  0  0
 18 23  1  0  0  0  0
 20 21  1  0  0  0  0
 20 23  2  0  0  0  0
 22 20  1  0  0  0  0
 23 19  1  0  0  0  0
 24 22  2  0  0  0  0
 24 25  1  0  0  0  0
 25 18  2  0  0  0  0
 26 27  2  0  0  0  0
 27 22  1  0  0  0  0
M  END
>  <MODEL>
7

>  <REMARK>
 VINA RESULT:      -7.2      3.369      6.268
  Name = 
  6 active torsions:
  status: ('A' for Active; 'I' for Inactive)
    1  A    between atoms: N_2  and  C_6
    2  A    between atoms: N_2  and  C_15
    3  A    between atoms: C_6  and  C_17
    4  A    between atoms: C_9  and  C_15
    5  A    between atoms: C_14  and  C_19
    6  A    between atoms: C_15  and  C_18
                            x       y       z     vdW  Elec       q    Type
                         _______ _______ _______ _____ _____    ______ ____

>  <TORSDO>
F 6

$$$$
=
 OpenBabel10272401073D

 27 29  0  0  1  0  0  0  0  0999 V2000
  188.4190  175.7880  143.3460 C   0  0  0  0  0  1  0  0  0  0  0  0
  188.5930  177.2050  143.9120 C   0  0  2  0  0  0  0  0  0  0  0  0
  191.5810  176.5260  146.2360 C   0  0  0  0  0  3  0  0  0  0  0  0
  191.0430  176.9130  147.4610 C   0  0  0  0  0  3  0  0  0  0  0  0
  189.4880  177.1000  145.1450 C   0  0  0  0  0  0  0  0  0  0  0  0
  191.4450  176.1630  143.7930 C   0  0  0  0  0  1  0  0  0  0  0  0
  189.7320  177.3810  147.5070 C   0  0  0  0  0  3  0  0  0  0  0  0
  188.9960  177.4590  146.3680 N   0  0  0  0  0  0  0  0  0  0  0  0
  190.8180  176.6100  145.0710 C   0  0  0  0  0  0  0  0  0  0  0  0
  184.7030  178.7790  145.0240 C   0  0  0  0  0  3  0  0  0  0  0  0
  187.2370  177.8050  144.2880 C   0  0  0  0  0  0  0  0  0  0  0  0
  186.9230  178.0380  145.6380 C   0  0  0  0  0  3  0  0  0  0  0  0
  185.6660  178.5290  146.0040 C   0  0  0  0  0  3  0  0  0  0  0  0
  184.9910  178.5300  143.6800 C   0  0  0  0  0  3  0  0  0  0  0  0
  186.2480  178.0380  143.3150 C   0  0  0  0  0  3  0  0  0  0  0  0
  189.2660  178.0610  142.9200 N   0  0  0  0  0  2  0  0  0  0  0  0
  188.7250  177.8630  141.5750 C   0  0  0  0  0  2  0  0  0  0  0  0
  192.2320  177.3060  140.3360 C   0  0  0  0  0  3  0  0  0  0  0  0
  193.1110  176.6100  138.2430 F   0  0  0  0  0  0  0  0  0  0  0  0
  190.7440  176.8310  138.4860 C   0  0  0  0  0  0  0  0  0  0  0  0
  190.5770  176.4350  137.1620 O   0  0  0  0  0  1  0  0  0  0  0  0
  189.6240  177.1480  139.2830 C   0  0  0  0  0  0  0  0  0  0  0  0
  192.0380  176.9140  139.0130 C   0  0  0  0  0  0  0  0  0  0  0  0
  189.8360  177.5500  140.6290 C   0  0  0  0  0  0  0  0  0  0  0  0
  191.1370  177.6180  141.1380 C   0  0  0  0  0  3  0  0  0  0  0  0
  187.6260  178.0380  138.0730 C   0  0  0  0  0  2  0  0  0  0  0  0
  188.2890  177.0410  138.6430 C   0  0  0  0  0  3  0  0  0  0  0  0
  2  1  1  6  0  0  0
  2 11  1  0  0  0  0
  2  5  1  0  0  0  0
  3  4  1  0  0  0  0
  4  7  2  0  0  0  0
  5  8  2  0  0  0  0
  6  9  1  0  0  0  0
  8  7  1  0  0  0  0
  9  5  1  0  0  0  0
  9  3  2  0  0  0  0
 10 13  1  0  0  0  0
 11 12  1  0  0  0  0
 12 13  2  0  0  0  0
 14 10  2  0  0  0  0
 15 14  1  0  0  0  0
 15 11  2  0  0  0  0
 16  2  1  0  0  0  0
 17 16  1  0  0  0  0
 18 25  1  0  0  0  0
 19 23  1  0  0  0  0
 20 23  1  0  0  0  0
 20 22  2  0  0  0  0
 21 20  1  0  0  0  0
 22 24  1  0  0  0  0
 23 18  2  0  0  0  0
 24 25  2  0  0  0  0
 24 17  1  0  0  0  0
 26 27  2  0  0  0  0
 27 22  1  0  0  0  0
M  END
>  <MODEL>
8

>  <REMARK>
 VINA RESULT:      -7.2      3.542      6.264
  Name = 
  6 active torsions:
  status: ('A' for Active; 'I' for Inactive)
    1  A    between atoms: N_2  and  C_6
    2  A    between atoms: N_2  and  C_15
    3  A    between atoms: C_6  and  C_17
    4  A    between atoms: C_9  and  C_15
    5  A    between atoms: C_14  and  C_19
    6  A    between atoms: C_15  and  C_18
                            x       y       z     vdW  Elec       q    Type
                         _______ _______ _______ _____ _____    ______ ____

>  <TORSDO>
F 6

$$$$
=
 OpenBabel10272401073D

 27 29  0  0  1  0  0  0  0  0999 V2000
  189.7140  175.4130  142.6030 C   0  0  0  0  0  1  0  0  0  0  0  0
  189.3650  176.8690  142.2610 C   0  0  2  0  0  0  0  0  0  0  0  0
  188.8290  177.9730  138.6160 C   0  0  0  0  0  3  0  0  0  0  0  0
  189.8380  177.2510  137.9830 C   0  0  0  0  0  3  0  0  0  0  0  0
  189.5130  177.0350  140.7500 C   0  0  0  0  0  0  0  0  0  0  0  0
  187.5420  178.6580  140.6150 C   0  0  0  0  0  1  0  0  0  0  0  0
  190.6620  176.4270  138.7440 C   0  0  0  0  0  3  0  0  0  0  0  0
  190.4820  176.3370  140.0870 N   0  0  0  0  0  0  0  0  0  0  0  0
  188.6510  177.8740  139.9970 C   0  0  0  0  0  0  0  0  0  0  0  0
  191.9810  179.5380  144.4710 C   0  0  0  0  0  3  0  0  0  0  0  0
  190.2970  177.8340  142.9970 C   0  0  0  0  0  0  0  0  0  0  0  0
  191.5620  177.3960  143.4270 C   0  0  0  0  0  3  0  0  0  0  0  0
  192.4020  178.2450  144.1530 C   0  0  0  0  0  3  0  0  0  0  0  0
  190.7180  179.9800  144.0710 C   0  0  0  0  0  3  0  0  0  0  0  0
  189.8780  179.1300  143.3450 C   0  0  0  0  0  3  0  0  0  0  0  0
  187.9640  177.1470  142.6240 N   0  0  0  0  0  2  0  0  0  0  0  0
  187.5450  176.3800  143.7980 C   0  0  0  0  0  2  0  0  0  0  0  0
  185.4400  178.9110  145.6170 C   0  0  0  0  0  3  0  0  0  0  0  0
  185.6070  179.8980  147.7700 F   0  0  0  0  0  0  0  0  0  0  0  0
  187.2730  178.3260  147.0880 C   0  0  0  0  0  0  0  0  0  0  0  0
  187.9150  178.4850  148.3120 O   0  0  0  0  0  1  0  0  0  0  0  0
  187.7950  177.4470  146.1160 C   0  0  0  0  0  0  0  0  0  0  0  0
  186.1040  179.0530  146.8330 C   0  0  0  0  0  0  0  0  0  0  0  0
  187.1100  177.3140  144.8780 C   0  0  0  0  0  0  0  0  0  0  0  0
  185.9400  178.0440  144.6480 C   0  0  0  0  0  3  0  0  0  0  0  0
  190.1820  177.2840  146.8410 C   0  0  0  0  0  2  0  0  0  0  0  0
  189.0410  176.7200  146.4640 C   0  0  0  0  0  3  0  0  0  0  0  0
  2  1  1  1  0  0  0
  2 16  1  0  0  0  0
  2 11  1  0  0  0  0
  3  9  1  0  0  0  0
  4  3  2  0  0  0  0
  4  7  1  0  0  0  0
  5  2  1  0  0  0  0
  7  8  2  0  0  0  0
  8  5  1  0  0  0  0
  9  6  1  0  0  0  0
  9  5  2  0  0  0  0
 11 15  2  0  0  0  0
 11 12  1  0  0  0  0
 12 13  2  0  0  0  0
 13 10  1  0  0  0  0
 14 10  2  0  0  0  0
 15 14  1  0  0  0  0
 16 17  1  0  0  0  0
 17 24  1  0  0  0  0
 18 23  1  0  0  0  0
 20 21  1  0  0  0  0
 22 27  1  0  0  0  0
 22 20  1  0  0  0  0
 23 20  2  0  0  0  0
 23 19  1  0  0  0  0
 24 22  2  0  0  0  0
 25 24  1  0  0  0  0
 25 18  2  0  0  0  0
 27 26  2  0  0  0  0
M  END
>  <MODEL>
9

>  <REMARK>
 VINA RESULT:      -7.2      2.422      3.971
  Name = 
  6 active torsions:
  status: ('A' for Active; 'I' for Inactive)
    1  A    between atoms: N_2  and  C_6
    2  A    between atoms: N_2  and  C_15
    3  A    between atoms: C_6  and  C_17
    4  A    between atoms: C_9  and  C_15
    5  A    between atoms: C_14  and  C_19
    6  A    between atoms: C_15  and  C_18
                            x       y       z     vdW  Elec       q    Type
                         _______ _______ _______ _____ _____    ______ ____

>  <TORSDO>
F 6

$$$$
