=
 OpenBabel10272401103D

 27 31  0  0  0  0  0  0  0  0999 V2000
  186.4500  178.7450  141.0770 C   0  0  0  0  0  3  0  0  0  0  0  0
  185.9130  178.4440  143.4900 C   0  0  0  0  0  0  0  0  0  0  0  0
  188.0390  177.1880  143.0730 N   0  0  0  0  0  0  0  0  0  0  0  0
  186.7240  178.4550  147.5950 C   0  0  0  0  0  3  0  0  0  0  0  0
  188.1210  177.8350  149.4240 F   0  0  0  0  0  0  0  0  0  0  0  0
  185.0800  179.0460  144.3890 N   0  0  0  0  0  0  0  0  0  0  0  0
  188.7600  177.2000  147.2170 C   0  0  0  0  0  3  0  0  0  0  0  0
  191.1980  176.3830  139.7390 F   0  0  0  0  0  0  0  0  0  0  0  0
  188.5040  177.1930  145.8430 C   0  0  0  0  0  3  0  0  0  0  0  0
  190.0640  177.0100  140.1330 C   0  0  0  0  0  0  0  0  0  0  0  0
  187.3550  177.8150  145.3290 C   0  0  0  0  0  0  0  0  0  0  0  0
  185.5250  178.4060  142.1120 N   0  0  0  0  0  0  0  0  0  0  0  0
  187.8700  177.8300  148.0920 C   0  0  0  0  0  0  0  0  0  0  0  0
  186.4660  178.4490  146.2220 C   0  0  0  0  0  0  0  0  0  0  0  0
  187.6910  178.2790  140.9410 C   0  0  0  0  0  0  0  0  0  0  0  0
  187.0930  177.8270  143.9440 C   0  0  0  0  0  0  0  0  0  0  0  0
  189.5030  176.7220  141.3770 C   0  0  0  0  0  3  0  0  0  0  0  0
  185.3290  179.0680  145.7220 C   0  0  0  0  0  3  0  0  0  0  0  0
  189.4830  177.9760  139.3190 C   0  0  0  0  0  3  0  0  0  0  0  0
  188.3000  178.5960  139.7200 C   0  0  0  0  0  3  0  0  0  0  0  0
  188.3420  177.3700  141.8210 C   0  0  0  0  0  0  0  0  0  0  0  0
  181.4510  178.0800  141.0440 N   0  0  0  0  0  0  0  0  0  0  0  0
  184.1290  178.2800  141.7580 C   0  0  0  0  0  0  0  0  0  0  0  0
  183.7470  177.6280  140.5740 C   0  0  0  0  0  3  0  0  0  0  0  0
  182.3970  177.5340  140.2340 C   0  0  0  0  0  3  0  0  0  0  0  0
  181.7850  178.7270  142.1920 C   0  0  0  0  0  3  0  0  0  0  0  0
  183.1260  178.8410  142.5660 C   0  0  0  0  0  3  0  0  0  0  0  0
  1 12  1  0  0  0  0
  2 16  2  0  0  0  0
  2  6  1  0  0  0  0
  3 16  1  0  0  0  0
  4 13  1  0  0  0  0
  6 18  2  0  0  0  0
  7 13  2  0  0  0  0
  8 10  1  0  0  0  0
  9  7  1  0  0  0  0
 10 17  2  0  0  0  0
 11  9  2  0  0  0  0
 11 14  1  0  0  0  0
 12  2  1  0  0  0  0
 13  5  1  0  0  0  0
 14  4  2  0  0  0  0
 15  1  2  0  0  0  0
 15 21  1  0  0  0  0
 16 11  1  0  0  0  0
 17 21  1  0  0  0  0
 18 14  1  0  0  0  0
 19 20  2  0  0  0  0
 19 10  1  0  0  0  0
 20 15  1  0  0  0  0
 21  3  2  0  0  0  0
 22 26  1  0  0  0  0
 23 12  1  0  0  0  0
 23 27  1  0  0  0  0
 24 23  2  0  0  0  0
 25 24  1  0  0  0  0
 25 22  2  0  0  0  0
 26 27  2  0  0  0  0
M  END
>  <MODEL>
1

>  <REMARK>
 VINA RESULT:     -10.2      0.000      0.000
  Name = 
  1 active torsions:
  status: ('A' for Active; 'I' for Inactive)
    1  A    between atoms: C_9  and  N_15
                            x       y       z     vdW  Elec       q    Type
                         _______ _______ _______ _____ _____    ______ ____

>  <TORSDO>
F 1

$$$$
=
 OpenBabel10272401103D

 27 31  0  0  0  0  0  0  0  0999 V2000
  189.9960  178.0440  142.3800 C   0  0  0  0  0  3  0  0  0  0  0  0
  187.5780  178.1610  141.7930 C   0  0  0  0  0  0  0  0  0  0  0  0
  187.6960  177.3770  144.1690 N   0  0  0  0  0  0  0  0  0  0  0  0
  183.5790  179.2590  142.3540 C   0  0  0  0  0  3  0  0  0  0  0  0
  181.6550  179.3980  143.7520 F   0  0  0  0  0  0  0  0  0  0  0  0
  186.8400  178.7330  140.7970 N   0  0  0  0  0  0  0  0  0  0  0  0
  183.6600  178.4630  144.6390 C   0  0  0  0  0  3  0  0  0  0  0  0
  190.7550  176.6240  147.6070 F   0  0  0  0  0  0  0  0  0  0  0  0
  184.9980  178.0960  144.4680 C   0  0  0  0  0  3  0  0  0  0  0  0
  190.5160  177.0390  146.3400 C   0  0  0  0  0  0  0  0  0  0  0  0
  185.6420  178.3040  143.2370 C   0  0  0  0  0  0  0  0  0  0  0  0
  188.9130  177.7320  141.5010 N   0  0  0  0  0  0  0  0  0  0  0  0
  182.9520  179.0430  143.5830 C   0  0  0  0  0  0  0  0  0  0  0  0
  184.9170  178.8920  142.1790 C   0  0  0  0  0  0  0  0  0  0  0  0
  190.0200  177.8630  143.6990 C   0  0  0  0  0  0  0  0  0  0  0  0
  186.9940  177.9510  143.0560 C   0  0  0  0  0  0  0  0  0  0  0  0
  189.2400  176.9070  145.7920 C   0  0  0  0  0  3  0  0  0  0  0  0
  185.5460  179.1030  140.9610 C   0  0  0  0  0  3  0  0  0  0  0  0
  191.5270  177.6400  145.6000 C   0  0  0  0  0  3  0  0  0  0  0  0
  191.2800  178.0390  144.2870 C   0  0  0  0  0  3  0  0  0  0  0  0
  188.9570  177.3460  144.4910 C   0  0  0  0  0  0  0  0  0  0  0  0
  189.8750  176.2490  137.6640 N   0  0  0  0  0  0  0  0  0  0  0  0
  189.2330  177.2090  140.1910 C   0  0  0  0  0  0  0  0  0  0  0  0
  190.4920  176.6400  139.9370 C   0  0  0  0  0  3  0  0  0  0  0  0
  190.7940  176.1600  138.6610 C   0  0  0  0  0  3  0  0  0  0  0  0
  188.6510  176.8030  137.8730 C   0  0  0  0  0  3  0  0  0  0  0  0
  188.3110  177.2940  139.1350 C   0  0  0  0  0  3  0  0  0  0  0  0
  1 15  2  0  0  0  0
  2 16  1  0  0  0  0
  3 21  2  0  0  0  0
  4 13  2  0  0  0  0
  6 18  1  0  0  0  0
  6  2  2  0  0  0  0
  9  7  2  0  0  0  0
 10  8  1  0  0  0  0
 11  9  1  0  0  0  0
 12  2  1  0  0  0  0
 12  1  1  0  0  0  0
 13  5  1  0  0  0  0
 13  7  1  0  0  0  0
 14  4  1  0  0  0  0
 14 11  1  0  0  0  0
 15 20  1  0  0  0  0
 15 21  1  0  0  0  0
 16 11  2  0  0  0  0
 16  3  1  0  0  0  0
 17 10  2  0  0  0  0
 18 14  2  0  0  0  0
 19 10  1  0  0  0  0
 20 19  2  0  0  0  0
 21 17  1  0  0  0  0
 22 26  2  0  0  0  0
 22 25  1  0  0  0  0
 23 12  1  0  0  0  0
 24 23  1  0  0  0  0
 25 24  2  0  0  0  0
 26 27  1  0  0  0  0
 27 23  2  0  0  0  0
M  END
>  <MODEL>
2

>  <REMARK>
 VINA RESULT:      -9.7      2.643      5.685
  Name = 
  1 active torsions:
  status: ('A' for Active; 'I' for Inactive)
    1  A    between atoms: C_9  and  N_15
                            x       y       z     vdW  Elec       q    Type
                         _______ _______ _______ _____ _____    ______ ____

>  <TORSDO>
F 1

$$$$
=
 OpenBabel10272401103D

 27 31  0  0  0  0  0  0  0  0999 V2000
  186.9060  178.8450  140.2800 C   0  0  0  0  0  3  0  0  0  0  0  0
  186.0590  178.5390  142.6020 C   0  0  0  0  0  0  0  0  0  0  0  0
  188.1430  177.1620  142.4180 N   0  0  0  0  0  0  0  0  0  0  0  0
  186.3600  178.4350  146.7750 C   0  0  0  0  0  3  0  0  0  0  0  0
  187.4820  177.7020  148.7450 F   0  0  0  0  0  0  0  0  0  0  0  0
  185.1590  179.1760  143.4070 N   0  0  0  0  0  0  0  0  0  0  0  0
  188.3490  177.0640  146.6180 C   0  0  0  0  0  3  0  0  0  0  0  0
  191.6350  176.2190  139.4760 F   0  0  0  0  0  0  0  0  0  0  0  0
  188.2640  177.0950  145.2230 C   0  0  0  0  0  3  0  0  0  0  0  0
  190.5000  176.9070  139.7430 C   0  0  0  0  0  0  0  0  0  0  0  0
  187.2250  177.7940  144.5870 C   0  0  0  0  0  0  0  0  0  0  0  0
  185.8420  178.5460  141.1870 N   0  0  0  0  0  0  0  0  0  0  0  0
  187.3970  177.7330  147.3930 C   0  0  0  0  0  0  0  0  0  0  0  0
  186.2720  178.4670  145.3800 C   0  0  0  0  0  0  0  0  0  0  0  0
  188.1240  178.3060  140.2850 C   0  0  0  0  0  0  0  0  0  0  0  0
  187.1360  177.8430  143.1820 C   0  0  0  0  0  0  0  0  0  0  0  0
  189.7750  176.6340  140.9020 C   0  0  0  0  0  3  0  0  0  0  0  0
  185.2430  179.1610  144.7600 C   0  0  0  0  0  3  0  0  0  0  0  0
  190.0810  177.9200  138.8870 C   0  0  0  0  0  3  0  0  0  0  0  0
  188.8960  178.6050  139.1550 C   0  0  0  0  0  3  0  0  0  0  0  0
  188.6080  177.3450  141.2160 C   0  0  0  0  0  0  0  0  0  0  0  0
  181.8940  178.4880  139.6840 N   0  0  0  0  0  0  0  0  0  0  0  0
  184.4950  178.5110  140.6630 C   0  0  0  0  0  0  0  0  0  0  0  0
  184.1170  179.3570  139.6070 C   0  0  0  0  0  3  0  0  0  0  0  0
  182.8060  179.3280  139.1260 C   0  0  0  0  0  3  0  0  0  0  0  0
  182.2240  177.6640  140.7140 C   0  0  0  0  0  3  0  0  0  0  0  0
  183.5250  177.6630  141.2220 C   0  0  0  0  0  3  0  0  0  0  0  0
  1 15  2  0  0  0  0
  1 12  1  0  0  0  0
  2 16  2  0  0  0  0
  2  6  1  0  0  0  0
  3 16  1  0  0  0  0
  4 13  1  0  0  0  0
  6 18  2  0  0  0  0
  7 13  2  0  0  0  0
  8 10  1  0  0  0  0
  9  7  1  0  0  0  0
 10 17  2  0  0  0  0
 11  9  2  0  0  0  0
 11 14  1  0  0  0  0
 12  2  1  0  0  0  0
 13  5  1  0  0  0  0
 14  4  2  0  0  0  0
 15 21  1  0  0  0  0
 16 11  1  0  0  0  0
 17 21  1  0  0  0  0
 18 14  1  0  0  0  0
 19 20  2  0  0  0  0
 19 10  1  0  0  0  0
 20 15  1  0  0  0  0
 21  3  2  0  0  0  0
 22 26  1  0  0  0  0
 23 12  1  0  0  0  0
 23 27  1  0  0  0  0
 24 23  2  0  0  0  0
 25 24  1  0  0  0  0
 25 22  2  0  0  0  0
 26 27  2  0  0  0  0
M  END
>  <MODEL>
3

>  <REMARK>
 VINA RESULT:      -9.5      0.976      1.100
  Name = 
  1 active torsions:
  status: ('A' for Active; 'I' for Inactive)
    1  A    between atoms: C_9  and  N_15
                            x       y       z     vdW  Elec       q    Type
                         _______ _______ _______ _____ _____    ______ ____

>  <TORSDO>
F 1

$$$$
=
 OpenBabel10272401103D

 27 31  0  0  0  0  0  0  0  0999 V2000
  187.7650  178.7520  141.2030 C   0  0  0  0  0  3  0  0  0  0  0  0
  188.1550  177.9460  143.5280 C   0  0  0  0  0  0  0  0  0  0  0  0
  189.7340  176.6730  142.0590 N   0  0  0  0  0  0  0  0  0  0  0  0
  190.4700  176.9620  146.8720 C   0  0  0  0  0  3  0  0  0  0  0  0
  192.3460  175.8450  147.8260 F   0  0  0  0  0  0  0  0  0  0  0  0
  187.8350  178.3830  144.7810 N   0  0  0  0  0  0  0  0  0  0  0  0
  191.9820  175.6880  145.4750 C   0  0  0  0  0  3  0  0  0  0  0  0
  191.2060  176.4320  137.6410 F   0  0  0  0  0  0  0  0  0  0  0  0
  191.2210  176.0130  144.3490 C   0  0  0  0  0  3  0  0  0  0  0  0
  190.4220  177.0300  138.5700 C   0  0  0  0  0  0  0  0  0  0  0  0
  190.0740  176.8140  144.4700 C   0  0  0  0  0  0  0  0  0  0  0  0
  187.2670  178.2500  142.4460 N   0  0  0  0  0  0  0  0  0  0  0  0
  191.6060  176.1620  146.7350 C   0  0  0  0  0  0  0  0  0  0  0  0
  189.7060  177.2880  145.7470 C   0  0  0  0  0  0  0  0  0  0  0  0
  188.7690  178.2440  140.4920 C   0  0  0  0  0  0  0  0  0  0  0  0
  189.3070  177.1600  143.3400 C   0  0  0  0  0  0  0  0  0  0  0  0
  190.3440  176.5060  139.8600 C   0  0  0  0  0  3  0  0  0  0  0  0
  188.5760  178.0830  145.8760 C   0  0  0  0  0  3  0  0  0  0  0  0
  189.7310  178.1950  138.2540 C   0  0  0  0  0  3  0  0  0  0  0  0
  188.9050  178.7880  139.2070 C   0  0  0  0  0  3  0  0  0  0  0  0
  189.5580  177.1150  140.8480 C   0  0  0  0  0  0  0  0  0  0  0  0
  183.1000  178.4680  143.1090 N   0  0  0  0  0  0  0  0  0  0  0  0
  185.8400  178.3070  142.6760 C   0  0  0  0  0  0  0  0  0  0  0  0
  184.9430  178.3370  141.5960 C   0  0  0  0  0  3  0  0  0  0  0  0
  183.5690  178.4140  141.8340 C   0  0  0  0  0  3  0  0  0  0  0  0
  183.9420  178.4510  144.1770 C   0  0  0  0  0  3  0  0  0  0  0  0
  185.3220  178.3740  143.9790 C   0  0  0  0  0  3  0  0  0  0  0  0
  1 12  1  0  0  0  0
  2  6  1  0  0  0  0
  3 16  1  0  0  0  0
  6 18  2  0  0  0  0
  7 13  2  0  0  0  0
  8 10  1  0  0  0  0
  9 11  2  0  0  0  0
  9  7  1  0  0  0  0
 10 17  2  0  0  0  0
 11 14  1  0  0  0  0
 12 23  1  0  0  0  0
 12  2  1  0  0  0  0
 13  4  1  0  0  0  0
 13  5  1  0  0  0  0
 14 18  1  0  0  0  0
 14  4  2  0  0  0  0
 15 21  1  0  0  0  0
 15  1  2  0  0  0  0
 16  2  2  0  0  0  0
 16 11  1  0  0  0  0
 17 21  1  0  0  0  0
 19 10  1  0  0  0  0
 19 20  2  0  0  0  0
 20 15  1  0  0  0  0
 21  3  2  0  0  0  0
 22 26  1  0  0  0  0
 23 27  1  0  0  0  0
 24 25  1  0  0  0  0
 24 23  2  0  0  0  0
 25 22  2  0  0  0  0
 27 26  2  0  0  0  0
M  END
>  <MODEL>
4

>  <REMARK>
 VINA RESULT:      -9.1      1.988      2.705
  Name = 
  1 active torsions:
  status: ('A' for Active; 'I' for Inactive)
    1  A    between atoms: C_9  and  N_15
                            x       y       z     vdW  Elec       q    Type
                         _______ _______ _______ _____ _____    ______ ____

>  <TORSDO>
F 1

$$$$
=
 OpenBabel10272401103D

 27 31  0  0  0  0  0  0  0  0999 V2000
  189.8290  176.7970  140.8550 C   0  0  0  0  0  3  0  0  0  0  0  0
  187.9300  177.6680  142.2120 C   0  0  0  0  0  0  0  0  0  0  0  0
  187.5950  178.5290  139.8840 N   0  0  0  0  0  0  0  0  0  0  0  0
  183.9060  178.4250  143.0720 C   0  0  0  0  0  3  0  0  0  0  0  0
  181.7700  179.2370  142.3980 F   0  0  0  0  0  0  0  0  0  0  0  0
  187.3860  177.3800  143.4300 N   0  0  0  0  0  0  0  0  0  0  0  0
  183.5730  179.3050  140.8410 C   0  0  0  0  0  3  0  0  0  0  0  0
  189.3820  178.2060  135.5890 F   0  0  0  0  0  0  0  0  0  0  0  0
  184.9140  179.0520  140.5380 C   0  0  0  0  0  3  0  0  0  0  0  0
  189.4130  177.8240  136.8890 C   0  0  0  0  0  0  0  0  0  0  0  0
  185.7680  178.4860  141.4990 C   0  0  0  0  0  0  0  0  0  0  0  0
  189.3350  177.4620  142.0200 N   0  0  0  0  0  0  0  0  0  0  0  0
  183.0700  178.9910  142.1070 C   0  0  0  0  0  0  0  0  0  0  0  0
  185.2470  178.1720  142.7720 C   0  0  0  0  0  0  0  0  0  0  0  0
  189.4990  177.0640  139.5930 C   0  0  0  0  0  0  0  0  0  0  0  0
  187.1180  178.2140  141.2010 C   0  0  0  0  0  0  0  0  0  0  0  0
  188.5720  178.4370  137.8170 C   0  0  0  0  0  3  0  0  0  0  0  0
  186.0830  177.6100  143.7260 C   0  0  0  0  0  3  0  0  0  0  0  0
  190.2490  176.7880  137.2920 C   0  0  0  0  0  3  0  0  0  0  0  0
  190.2960  176.4210  138.6360 C   0  0  0  0  0  3  0  0  0  0  0  0
  188.5670  178.0490  139.1640 C   0  0  0  0  0  0  0  0  0  0  0  0
  191.9780  178.1130  145.2500 N   0  0  0  0  0  0  0  0  0  0  0  0
  190.2530  177.6850  143.1140 C   0  0  0  0  0  0  0  0  0  0  0  0
  190.6450  176.6230  143.9460 C   0  0  0  0  0  3  0  0  0  0  0  0
  191.5150  176.8580  145.0120 C   0  0  0  0  0  3  0  0  0  0  0  0
  191.6110  179.1660  144.4710 C   0  0  0  0  0  3  0  0  0  0  0  0
  190.7430  178.9710  143.3940 C   0  0  0  0  0  3  0  0  0  0  0  0
  1 12  1  0  0  0  0
  2  6  1  0  0  0  0
  3 16  1  0  0  0  0
  6 18  2  0  0  0  0
  7 13  1  0  0  0  0
  8 10  1  0  0  0  0
  9  7  2  0  0  0  0
  9 11  1  0  0  0  0
 10 19  1  0  0  0  0
 10 17  2  0  0  0  0
 11 14  2  0  0  0  0
 12  2  1  0  0  0  0
 12 23  1  0  0  0  0
 13  5  1  0  0  0  0
 13  4  2  0  0  0  0
 14  4  1  0  0  0  0
 14 18  1  0  0  0  0
 15  1  2  0  0  0  0
 16 11  1  0  0  0  0
 16  2  2  0  0  0  0
 17 21  1  0  0  0  0
 19 20  2  0  0  0  0
 20 15  1  0  0  0  0
 21 15  1  0  0  0  0
 21  3  2  0  0  0  0
 23 27  2  0  0  0  0
 23 24  1  0  0  0  0
 24 25  2  0  0  0  0
 25 22  1  0  0  0  0
 26 22  2  0  0  0  0
 27 26  1  0  0  0  0
M  END
>  <MODEL>
5

>  <REMARK>
 VINA RESULT:      -8.9      3.136      6.018
  Name = 
  1 active torsions:
  status: ('A' for Active; 'I' for Inactive)
    1  A    between atoms: C_9  and  N_15
                            x       y       z     vdW  Elec       q    Type
                         _______ _______ _______ _____ _____    ______ ____

>  <TORSDO>
F 1

$$$$
=
 OpenBabel10272401103D

 27 31  0  0  0  0  0  0  0  0999 V2000
  187.1530  177.2290  142.2250 C   0  0  0  0  0  3  0  0  0  0  0  0
  189.4180  176.8780  143.2020 C   0  0  0  0  0  0  0  0  0  0  0  0
  188.0820  178.1060  144.9270 N   0  0  0  0  0  0  0  0  0  0  0  0
  192.1470  175.7040  146.1490 C   0  0  0  0  0  3  0  0  0  0  0  0
  192.8730  175.7360  148.4180 F   0  0  0  0  0  0  0  0  0  0  0  0
  190.4950  176.0890  142.9150 N   0  0  0  0  0  0  0  0  0  0  0  0
  190.8950  176.9250  147.8230 C   0  0  0  0  0  3  0  0  0  0  0  0
  183.7660  179.6580  145.7660 F   0  0  0  0  0  0  0  0  0  0  0  0
  189.9720  177.3200  146.8500 C   0  0  0  0  0  3  0  0  0  0  0  0
  184.6210  178.9970  144.9490 C   0  0  0  0  0  0  0  0  0  0  0  0
  190.1270  176.9140  145.5140 C   0  0  0  0  0  0  0  0  0  0  0  0
  188.5770  177.3100  142.1260 N   0  0  0  0  0  0  0  0  0  0  0  0
  191.9810  176.1180  147.4720 C   0  0  0  0  0  0  0  0  0  0  0  0
  191.2260  176.0980  145.1730 C   0  0  0  0  0  0  0  0  0  0  0  0
  186.4060  177.6590  143.2400 C   0  0  0  0  0  0  0  0  0  0  0  0
  189.1970  177.2950  144.5270 C   0  0  0  0  0  0  0  0  0  0  0  0
  185.9820  178.9570  145.2500 C   0  0  0  0  0  3  0  0  0  0  0  0
  191.3860  175.6910  143.8570 C   0  0  0  0  0  3  0  0  0  0  0  0
  184.1380  178.3180  143.8360 C   0  0  0  0  0  3  0  0  0  0  0  0
  185.0280  177.6640  142.9850 C   0  0  0  0  0  3  0  0  0  0  0  0
  186.8880  178.2620  144.4350 C   0  0  0  0  0  0  0  0  0  0  0  0
  190.2190  178.0880  138.3120 N   0  0  0  0  0  0  0  0  0  0  0  0
  189.1500  177.5890  140.8280 C   0  0  0  0  0  0  0  0  0  0  0  0
  188.4780  178.4140  139.9120 C   0  0  0  0  0  3  0  0  0  0  0  0
  189.0330  178.6560  138.6540 C   0  0  0  0  0  3  0  0  0  0  0  0
  190.8930  177.2760  139.1710 C   0  0  0  0  0  3  0  0  0  0  0  0
  190.3690  177.0110  140.4390 C   0  0  0  0  0  3  0  0  0  0  0  0
  1 15  2  0  0  0  0
  2 16  1  0  0  0  0
  4 13  2  0  0  0  0
  6  2  2  0  0  0  0
  6 18  1  0  0  0  0
  9  7  2  0  0  0  0
 10 17  2  0  0  0  0
 10  8  1  0  0  0  0
 11  9  1  0  0  0  0
 12  1  1  0  0  0  0
 12  2  1  0  0  0  0
 13  7  1  0  0  0  0
 13  5  1  0  0  0  0
 14 11  1  0  0  0  0
 14  4  1  0  0  0  0
 15 21  1  0  0  0  0
 16  3  1  0  0  0  0
 16 11  2  0  0  0  0
 18 14  2  0  0  0  0
 19 10  1  0  0  0  0
 20 15  1  0  0  0  0
 20 19  2  0  0  0  0
 21  3  2  0  0  0  0
 21 17  1  0  0  0  0
 22 25  2  0  0  0  0
 22 26  1  0  0  0  0
 23 12  1  0  0  0  0
 24 23  2  0  0  0  0
 25 24  1  0  0  0  0
 26 27  2  0  0  0  0
 27 23  1  0  0  0  0
M  END
>  <MODEL>
6

>  <REMARK>
 VINA RESULT:      -8.8      3.031      5.710
  Name = 
  1 active torsions:
  status: ('A' for Active; 'I' for Inactive)
    1  A    between atoms: C_9  and  N_15
                            x       y       z     vdW  Elec       q    Type
                         _______ _______ _______ _____ _____    ______ ____

>  <TORSDO>
F 1

$$$$
=
 OpenBabel10272401103D

 27 31  0  0  0  0  0  0  0  0999 V2000
  189.6570  176.4180  143.0490 C   0  0  0  0  0  3  0  0  0  0  0  0
  187.7140  177.3510  144.2990 C   0  0  0  0  0  0  0  0  0  0  0  0
  187.6880  178.4280  142.0380 N   0  0  0  0  0  0  0  0  0  0  0  0
  183.7050  178.4130  144.8510 C   0  0  0  0  0  3  0  0  0  0  0  0
  181.7250  179.4770  144.0600 F   0  0  0  0  0  0  0  0  0  0  0  0
  187.0280  177.0170  145.4310 N   0  0  0  0  0  0  0  0  0  0  0  0
  183.6740  179.5010  142.6890 C   0  0  0  0  0  3  0  0  0  0  0  0
  189.8600  178.2890  137.9140 F   0  0  0  0  0  0  0  0  0  0  0  0
  185.0120  179.1480  142.4880 C   0  0  0  0  0  3  0  0  0  0  0  0
  189.7290  177.8010  139.1710 C   0  0  0  0  0  0  0  0  0  0  0  0
  185.7120  178.4260  143.4680 C   0  0  0  0  0  0  0  0  0  0  0  0
  189.1080  177.0290  144.2190 N   0  0  0  0  0  0  0  0  0  0  0  0
  183.0220  179.1340  143.8690 C   0  0  0  0  0  0  0  0  0  0  0  0
  185.0430  178.0600  144.6540 C   0  0  0  0  0  0  0  0  0  0  0  0
  189.4780  176.8170  141.7910 C   0  0  0  0  0  0  0  0  0  0  0  0
  187.0570  178.0530  143.2720 C   0  0  0  0  0  0  0  0  0  0  0  0
  188.8550  178.4140  140.0690 C   0  0  0  0  0  3  0  0  0  0  0  0
  185.7270  177.3440  145.6260 C   0  0  0  0  0  3  0  0  0  0  0  0
  190.4270  176.6620  139.5530 C   0  0  0  0  0  3  0  0  0  0  0  0
  190.3080  176.1830  140.8570 C   0  0  0  0  0  3  0  0  0  0  0  0
  188.6820  177.9190  141.3700 C   0  0  0  0  0  0  0  0  0  0  0  0
  191.4920  177.1070  147.7060 N   0  0  0  0  0  0  0  0  0  0  0  0
  189.9290  177.0730  145.4090 C   0  0  0  0  0  0  0  0  0  0  0  0
  191.2100  176.4980  145.4150 C   0  0  0  0  0  3  0  0  0  0  0  0
  191.9820  176.5280  146.5770 C   0  0  0  0  0  3  0  0  0  0  0  0
  190.2520  177.6650  147.7380 C   0  0  0  0  0  3  0  0  0  0  0  0
  189.4500  177.6550  146.5940 C   0  0  0  0  0  3  0  0  0  0  0  0
  1 12  1  0  0  0  0
  2  6  1  0  0  0  0
  3 16  1  0  0  0  0
  6 18  2  0  0  0  0
  7 13  1  0  0  0  0
  8 10  1  0  0  0  0
  9  7  2  0  0  0  0
  9 11  1  0  0  0  0
 10 19  1  0  0  0  0
 10 17  2  0  0  0  0
 11 14  2  0  0  0  0
 12  2  1  0  0  0  0
 12 23  1  0  0  0  0
 13  5  1  0  0  0  0
 13  4  2  0  0  0  0
 14  4  1  0  0  0  0
 14 18  1  0  0  0  0
 15  1  2  0  0  0  0
 16 11  1  0  0  0  0
 16  2  2  0  0  0  0
 17 21  1  0  0  0  0
 19 20  2  0  0  0  0
 20 15  1  0  0  0  0
 21 15  1  0  0  0  0
 21  3  2  0  0  0  0
 22 26  1  0  0  0  0
 23 24  2  0  0  0  0
 23 27  1  0  0  0  0
 24 25  1  0  0  0  0
 25 22  2  0  0  0  0
 27 26  2  0  0  0  0
M  END
>  <MODEL>
7

>  <REMARK>
 VINA RESULT:      -8.7      2.660      5.730
  Name = 
  1 active torsions:
  status: ('A' for Active; 'I' for Inactive)
    1  A    between atoms: C_9  and  N_15
                            x       y       z     vdW  Elec       q    Type
                         _______ _______ _______ _____ _____    ______ ____

>  <TORSDO>
F 1

$$$$
=
 OpenBabel10272401103D

 27 31  0  0  0  0  0  0  0  0999 V2000
  189.5980  177.9440  140.2390 C   0  0  0  0  0  3  0  0  0  0  0  0
  187.1660  178.2170  140.7050 C   0  0  0  0  0  0  0  0  0  0  0  0
  188.1380  177.0210  142.6790 N   0  0  0  0  0  0  0  0  0  0  0  0
  183.8310  179.2850  142.9960 C   0  0  0  0  0  3  0  0  0  0  0  0
  182.6350  179.2160  145.0550 F   0  0  0  0  0  0  0  0  0  0  0  0
  186.1510  178.9730  140.1930 N   0  0  0  0  0  0  0  0  0  0  0  0
  184.7320  178.0940  144.9010 C   0  0  0  0  0  3  0  0  0  0  0  0
  192.2210  175.6010  144.4260 F   0  0  0  0  0  0  0  0  0  0  0  0
  185.8550  177.7340  144.1490 C   0  0  0  0  0  3  0  0  0  0  0  0
  191.5410  176.2390  143.4450 C   0  0  0  0  0  0  0  0  0  0  0  0
  185.9770  178.1430  142.8110 C   0  0  0  0  0  0  0  0  0  0  0  0
  188.2320  177.8180  139.8360 N   0  0  0  0  0  0  0  0  0  0  0  0
  183.7220  178.8690  144.3240 C   0  0  0  0  0  0  0  0  0  0  0  0
  184.9520  178.9260  142.2410 C   0  0  0  0  0  0  0  0  0  0  0  0
  190.1230  177.5310  141.3910 C   0  0  0  0  0  0  0  0  0  0  0  0
  187.1100  177.7990  142.0470 C   0  0  0  0  0  0  0  0  0  0  0  0
  190.1470  176.2350  143.4450 C   0  0  0  0  0  3  0  0  0  0  0  0
  185.0660  179.3370  140.9210 C   0  0  0  0  0  3  0  0  0  0  0  0
  192.2300  176.9410  142.4610 C   0  0  0  0  0  3  0  0  0  0  0  0
  191.5230  177.5710  141.4390 C   0  0  0  0  0  3  0  0  0  0  0  0
  189.4150  176.9050  142.4550 C   0  0  0  0  0  0  0  0  0  0  0  0
  187.3960  177.0070  135.7750 N   0  0  0  0  0  0  0  0  0  0  0  0
  187.9600  177.5290  138.4450 C   0  0  0  0  0  0  0  0  0  0  0  0
  188.3540  178.4260  137.4390 C   0  0  0  0  0  3  0  0  0  0  0  0
  188.0650  178.1440  136.1020 C   0  0  0  0  0  3  0  0  0  0  0  0
  186.9920  176.1210  136.7250 C   0  0  0  0  0  3  0  0  0  0  0  0
  187.2630  176.3680  138.0720 C   0  0  0  0  0  3  0  0  0  0  0  0
  1 15  2  0  0  0  0
  2 16  1  0  0  0  0
  4 13  2  0  0  0  0
  6  2  2  0  0  0  0
  6 18  1  0  0  0  0
  9  7  2  0  0  0  0
 10  8  1  0  0  0  0
 11  9  1  0  0  0  0
 12  1  1  0  0  0  0
 12  2  1  0  0  0  0
 13  7  1  0  0  0  0
 13  5  1  0  0  0  0
 14 11  1  0  0  0  0
 14  4  1  0  0  0  0
 15 20  1  0  0  0  0
 15 21  1  0  0  0  0
 16  3  1  0  0  0  0
 16 11  2  0  0  0  0
 17 10  2  0  0  0  0
 18 14  2  0  0  0  0
 19 10  1  0  0  0  0
 20 19  2  0  0  0  0
 21  3  2  0  0  0  0
 21 17  1  0  0  0  0
 22 25  2  0  0  0  0
 22 26  1  0  0  0  0
 23 12  1  0  0  0  0
 24 23  2  0  0  0  0
 25 24  1  0  0  0  0
 26 27  2  0  0  0  0
 27 23  1  0  0  0  0
M  END
>  <MODEL>
8

>  <REMARK>
 VINA RESULT:      -8.7      2.882      4.772
  Name = 
  1 active torsions:
  status: ('A' for Active; 'I' for Inactive)
    1  A    between atoms: C_9  and  N_15
                            x       y       z     vdW  Elec       q    Type
                         _______ _______ _______ _____ _____    ______ ____

>  <TORSDO>
F 1

$$$$
=
 OpenBabel10272401103D

 27 31  0  0  0  0  0  0  0  0999 V2000
  187.7200  177.0950  143.2150 C   0  0  0  0  0  3  0  0  0  0  0  0
  185.4950  178.1690  142.9020 C   0  0  0  0  0  0  0  0  0  0  0  0
  186.8610  178.7660  140.8900 N   0  0  0  0  0  0  0  0  0  0  0  0
  181.9990  179.1320  140.8130 C   0  0  0  0  0  3  0  0  0  0  0  0
  180.9280  179.9210  138.8360 F   0  0  0  0  0  0  0  0  0  0  0  0
  184.2580  178.0380  143.4650 N   0  0  0  0  0  0  0  0  0  0  0  0
  183.3060  179.7590  138.8740 C   0  0  0  0  0  3  0  0  0  0  0  0
  190.9920  177.9010  138.9080 F   0  0  0  0  0  0  0  0  0  0  0  0
  184.4820  179.4360  139.5580 C   0  0  0  0  0  3  0  0  0  0  0  0
  190.1230  177.6700  139.9200 C   0  0  0  0  0  0  0  0  0  0  0  0
  184.4300  178.9600  140.8780 C   0  0  0  0  0  0  0  0  0  0  0  0
  186.6480  177.9030  143.7080 N   0  0  0  0  0  0  0  0  0  0  0  0
  182.0660  179.6080  139.5020 C   0  0  0  0  0  0  0  0  0  0  0  0
  183.1730  178.8090  141.5000 C   0  0  0  0  0  0  0  0  0  0  0  0
  188.3310  177.2240  142.0390 C   0  0  0  0  0  0  0  0  0  0  0  0
  185.6070  178.6180  141.5730 C   0  0  0  0  0  0  0  0  0  0  0  0
  188.9430  178.4100  140.0090 C   0  0  0  0  0  3  0  0  0  0  0  0
  183.1130  178.3370  142.8030 C   0  0  0  0  0  3  0  0  0  0  0  0
  190.3800  176.6650  140.8460 C   0  0  0  0  0  3  0  0  0  0  0  0
  189.4930  176.4530  141.9010 C   0  0  0  0  0  3  0  0  0  0  0  0
  188.0140  178.1790  141.0340 C   0  0  0  0  0  0  0  0  0  0  0  0
  186.5860  178.7930  147.8370 N   0  0  0  0  0  0  0  0  0  0  0  0
  186.6350  178.2240  145.1170 C   0  0  0  0  0  0  0  0  0  0  0  0
  187.6250  177.7180  145.9750 C   0  0  0  0  0  3  0  0  0  0  0  0
  187.5850  178.0180  147.3380 C   0  0  0  0  0  3  0  0  0  0  0  0
  185.6070  179.2920  147.0360 C   0  0  0  0  0  3  0  0  0  0  0  0
  185.6120  179.0140  145.6670 C   0  0  0  0  0  3  0  0  0  0  0  0
  1 12  1  0  0  0  0
  2  6  1  0  0  0  0
  2 12  1  0  0  0  0
  3 21  2  0  0  0  0
  3 16  1  0  0  0  0
  4 14  1  0  0  0  0
  5 13  1  0  0  0  0
  7 13  1  0  0  0  0
  7  9  2  0  0  0  0
  8 10  1  0  0  0  0
  9 11  1  0  0  0  0
 10 17  2  0  0  0  0
 10 19  1  0  0  0  0
 11 14  2  0  0  0  0
 11 16  1  0  0  0  0
 12 23  1  0  0  0  0
 13  4  2  0  0  0  0
 14 18  1  0  0  0  0
 15  1  2  0  0  0  0
 16  2  2  0  0  0  0
 17 21  1  0  0  0  0
 18  6  2  0  0  0  0
 19 20  2  0  0  0  0
 20 15  1  0  0  0  0
 21 15  1  0  0  0  0
 23 27  2  0  0  0  0
 23 24  1  0  0  0  0
 24 25  2  0  0  0  0
 25 22  1  0  0  0  0
 26 22  2  0  0  0  0
 27 26  1  0  0  0  0
M  END
>  <MODEL>
9

>  <REMARK>
 VINA RESULT:      -8.5      2.556      5.835
  Name = 
  1 active torsions:
  status: ('A' for Active; 'I' for Inactive)
    1  A    between atoms: C_9  and  N_15
                            x       y       z     vdW  Elec       q    Type
                         _______ _______ _______ _____ _____    ______ ____

>  <TORSDO>
F 1

$$$$
