=
 OpenBabel10272400153D

 31 35  0  0  1  0  0  0  0  0999 V2000
  191.2680  176.7440  138.9310 C   0  0  0  0  0  0  0  0  0  0  0  0
  188.9360  177.1690  141.8640 N   0  0  0  0  0  0  0  0  0  0  0  0
  189.5840  176.4980  142.9660 C   0  0  0  0  0  0  0  0  0  0  0  0
  189.5000  177.2160  140.5330 C   0  0  0  0  0  0  0  0  0  0  0  0
  190.5330  177.3770  137.9260 C   0  0  0  0  0  3  0  0  0  0  0  0
  190.4600  175.6130  142.7670 O   0  0  0  0  0  0  0  0  0  0  0  0
  186.9820  178.3960  141.1030 C   0  0  0  0  0  0  0  0  0  0  0  0
  192.4790  176.2060  138.6480 F   0  0  0  0  0  0  0  0  0  0  0  0
  187.7980  177.2890  144.5030 C   0  0  0  0  0  3  0  0  0  0  0  0
  187.5380  178.4310  139.8140 O   0  0  0  0  0  0  0  0  0  0  0  0
  187.6600  177.8060  142.1130 C   0  0  0  0  0  0  0  0  0  0  0  0
  190.7560  176.6670  140.2300 C   0  0  0  0  0  3  0  0  0  0  0  0
  188.7750  177.8590  139.5180 C   0  0  0  0  0  0  0  0  0  0  0  0
  189.2860  177.9350  138.2210 C   0  0  0  0  0  3  0  0  0  0  0  0
  187.0910  177.7530  143.4720 C   0  0  0  0  0  3  0  0  0  0  0  0
  189.2340  176.8610  144.3790 C   0  0  2  0  0  3  0  0  0  0  0  0
  184.9710  179.2730  139.9720 C   0  0  0  0  0  2  0  0  0  0  0  0
  184.5140  178.1490  140.8700 C   0  0  1  0  0  3  0  0  0  0  0  0
  185.6470  179.0610  141.3140 C   0  0  1  0  0  3  0  0  0  0  0  0
  183.1990  178.5690  141.5130 C   0  0  0  0  0  2  0  0  0  0  0  0
  180.7180  176.6390  139.1830 C   0  0  0  0  0  0  0  0  0  0  0  0
  180.0060  179.3500  141.4460 C   0  0  0  0  0  1  0  0  0  0  0  0
  179.9820  175.6720  139.5880 N   0  0  0  0  0  2  0  0  0  0  0  0
  182.4310  176.6800  139.6300 S   0  0  0  0  0  0  0  0  0  0  0  0
  180.9540  178.9230  140.3430 C   0  0  1  0  0  3  0  0  0  0  0  0
  181.9690  177.9090  140.8880 C   0  0  2  0  0  3  0  0  0  0  0  0
  179.9990  178.2460  138.9380 S   0  0  0  0  0  0  0  0  0  0  0  0
  190.1580  177.9760  144.8550 C   0  0  0  0  0  2  0  0  0  0  0  0
  191.5520  177.4490  145.1680 C   0  0  0  0  0  2  0  0  0  0  0  0
  191.5020  175.9400  147.3130 N   0  0  0  0  0  0  0  0  0  0  0  0
  191.5240  176.6060  146.3660 C   0  0  0  0  0  0  0  0  0  0  0  0
  1 12  1  0  0  0  0
  2 11  1  0  0  0  0
  2  3  1  0  0  0  0
  3 16  1  0  0  0  0
  4  2  1  0  0  0  0
  5 14  1  0  0  0  0
  5  1  2  0  0  0  0
  6  3  2  0  0  0  0
  7 11  2  0  0  0  0
  8  1  1  0  0  0  0
 10  7  1  0  0  0  0
 11 15  1  0  0  0  0
 12  4  2  0  0  0  0
 13 10  1  0  0  0  0
 13  4  1  0  0  0  0
 14 13  2  0  0  0  0
 15  9  2  0  0  0  0
 16  9  1  0  0  0  0
 16 28  1  6  0  0  0
 17 18  1  0  0  0  0
 17 19  1  0  0  0  0
 18 19  1  0  0  0  0
 18 20  1  1  0  0  0
 19  7  1  6  0  0  0
 21 23  2  0  0  0  0
 21 24  1  0  0  0  0
 24 26  1  0  0  0  0
 25 26  1  0  0  0  0
 25 22  1  1  0  0  0
 26 20  1  6  0  0  0
 27 21  1  0  0  0  0
 27 25  1  0  0  0  0
 28 29  1  0  0  0  0
 29 31  1  0  0  0  0
 31 30  3  0  0  0  0
M  END
>  <MODEL>
1

>  <REMARK>
 VINA RESULT:      -8.3      0.000      0.000
  Name = 
  6 active torsions:
  status: ('A' for Active; 'I' for Inactive)
    1  A    between atoms: C_3  and  C_9
    2  A    between atoms: C_3  and  C_22
    3  A    between atoms: C_15  and  C_23
    4  A    between atoms: C_18  and  C_26
    5  A    between atoms: C_26  and  C_31
    6  A    between atoms: C_30  and  C_31
                            x       y       z     vdW  Elec       q    Type
                         _______ _______ _______ _____ _____    ______ ____

>  <TORSDO>
F 6

$$$$
=
 OpenBabel10272400153D

 31 35  0  0  1  0  0  0  0  0999 V2000
  190.2500  177.1420  146.4570 C   0  0  0  0  0  0  0  0  0  0  0  0
  187.7960  177.6370  143.6370 N   0  0  0  0  0  0  0  0  0  0  0  0
  186.4910  177.4790  144.2360 C   0  0  0  0  0  0  0  0  0  0  0  0
  189.0250  177.4960  144.3860 C   0  0  0  0  0  0  0  0  0  0  0  0
  191.4590  177.2650  145.7690 C   0  0  0  0  0  3  0  0  0  0  0  0
  186.3430  176.8540  145.3200 O   0  0  0  0  0  0  0  0  0  0  0  0
  189.0580  178.0320  141.5990 C   0  0  0  0  0  0  0  0  0  0  0  0
  190.2510  176.9100  147.7920 F   0  0  0  0  0  0  0  0  0  0  0  0
  185.4230  178.1070  142.0800 C   0  0  0  0  0  3  0  0  0  0  0  0
  190.2440  177.8880  142.3360 O   0  0  0  0  0  0  0  0  0  0  0  0
  187.8620  177.9340  142.2210 C   0  0  0  0  0  0  0  0  0  0  0  0
  189.0380  177.2600  145.7700 C   0  0  0  0  0  3  0  0  0  0  0  0
  190.2460  177.6290  143.7060 C   0  0  0  0  0  0  0  0  0  0  0  0
  191.4560  177.5080  144.3930 C   0  0  0  0  0  3  0  0  0  0  0  0
  186.6050  178.0750  141.4650 C   0  0  0  0  0  3  0  0  0  0  0  0
  185.2850  178.0800  143.5780 C   0  0  2  0  0  3  0  0  0  0  0  0
  190.4040  177.6360  139.5670 C   0  0  0  0  0  2  0  0  0  0  0  0
  189.0350  177.0540  139.3080 C   0  0  1  0  0  3  0  0  0  0  0  0
  189.1740  178.3280  140.1260 C   0  0  1  0  0  3  0  0  0  0  0  0
  188.6550  177.3770  137.8680 C   0  0  0  0  0  2  0  0  0  0  0  0
  186.0390  175.2620  135.8690 C   0  0  0  0  0  0  0  0  0  0  0  0
  185.4490  178.0830  138.0300 C   0  0  0  0  0  1  0  0  0  0  0  0
  185.3660  174.3040  136.3890 N   0  0  0  0  0  2  0  0  0  0  0  0
  187.7820  175.3660  136.1660 S   0  0  0  0  0  0  0  0  0  0  0  0
  186.3110  177.6130  136.8760 C   0  0  1  0  0  3  0  0  0  0  0  0
  187.3950  176.6550  137.3870 C   0  0  2  0  0  3  0  0  0  0  0  0
  185.2590  176.8360  135.5980 S   0  0  0  0  0  0  0  0  0  0  0  0
  185.0710  179.4920  144.1120 C   0  0  0  0  0  2  0  0  0  0  0  0
  183.7480  179.6120  144.8550 C   0  0  0  0  0  2  0  0  0  0  0  0
  181.7510  178.9580  143.2860 N   0  0  0  0  0  0  0  0  0  0  0  0
  182.6330  179.2470  143.9780 C   0  0  0  0  0  0  0  0  0  0  0  0
  1  8  1  0  0  0  0
  2  3  1  0  0  0  0
  2  4  1  0  0  0  0
  3  6  2  0  0  0  0
  4 12  2  0  0  0  0
  5  1  2  0  0  0  0
  7 11  2  0  0  0  0
  7 10  1  0  0  0  0
  9 16  1  0  0  0  0
 10 13  1  0  0  0  0
 11  2  1  0  0  0  0
 12  1  1  0  0  0  0
 13  4  1  0  0  0  0
 13 14  2  0  0  0  0
 14  5  1  0  0  0  0
 15  9  2  0  0  0  0
 15 11  1  0  0  0  0
 16 28  1  1  0  0  0
 16  3  1  0  0  0  0
 17 19  1  0  0  0  0
 18 20  1  6  0  0  0
 18 17  1  0  0  0  0
 18 19  1  0  0  0  0
 19  7  1  1  0  0  0
 21 24  1  0  0  0  0
 21 23  2  0  0  0  0
 24 26  1  0  0  0  0
 25 26  1  0  0  0  0
 25 22  1  1  0  0  0
 26 20  1  6  0  0  0
 27 21  1  0  0  0  0
 27 25  1  0  0  0  0
 28 29  1  0  0  0  0
 30 31  3  0  0  0  0
 31 29  1  0  0  0  0
M  END
>  <MODEL>
2

>  <REMARK>
 VINA RESULT:      -7.8      3.364      6.043
  Name = 
  6 active torsions:
  status: ('A' for Active; 'I' for Inactive)
    1  A    between atoms: C_3  and  C_9
    2  A    between atoms: C_3  and  C_22
    3  A    between atoms: C_15  and  C_23
    4  A    between atoms: C_18  and  C_26
    5  A    between atoms: C_26  and  C_31
    6  A    between atoms: C_30  and  C_31
                            x       y       z     vdW  Elec       q    Type
                         _______ _______ _______ _____ _____    ______ ____

>  <TORSDO>
F 6

$$$$
=
 OpenBabel10272400153D

 31 35  0  0  1  0  0  0  0  0999 V2000
  185.0900  178.1370  146.0120 C   0  0  0  0  0  0  0  0  0  0  0  0
  188.7600  177.9240  145.1710 N   0  0  0  0  0  0  0  0  0  0  0  0
  189.4390  177.8680  146.4440 C   0  0  0  0  0  0  0  0  0  0  0  0
  187.3230  178.0390  145.0530 C   0  0  0  0  0  0  0  0  0  0  0  0
  184.5390  178.2350  144.7320 C   0  0  0  0  0  3  0  0  0  0  0  0
  188.8870  178.2850  147.4970 O   0  0  0  0  0  0  0  0  0  0  0  0
  188.9850  177.9880  142.7530 C   0  0  0  0  0  0  0  0  0  0  0  0
  184.2810  178.1400  147.0990 F   0  0  0  0  0  0  0  0  0  0  0  0
  191.6070  177.5270  145.2760 C   0  0  0  0  0  3  0  0  0  0  0  0
  187.5890  178.1030  142.6510 O   0  0  0  0  0  0  0  0  0  0  0  0
  189.5650  177.8780  143.9680 C   0  0  0  0  0  0  0  0  0  0  0  0
  186.4750  178.0360  146.1720 C   0  0  0  0  0  3  0  0  0  0  0  0
  186.7580  178.1260  143.7710 C   0  0  0  0  0  0  0  0  0  0  0  0
  185.3750  178.2290  143.6110 C   0  0  0  0  0  3  0  0  0  0  0  0
  191.0290  177.7620  144.0970 C   0  0  0  0  0  3  0  0  0  0  0  0
  190.8200  177.2880  146.5340 C   0  0  2  0  0  3  0  0  0  0  0  0
  189.7890  176.5440  140.9190 C   0  0  0  0  0  2  0  0  0  0  0  0
  188.9000  177.5920  140.2950 C   0  0  1  0  0  3  0  0  0  0  0  0
  189.7850  177.9560  141.4770 C   0  0  1  0  0  3  0  0  0  0  0  0
  189.5430  178.0300  138.9840 C   0  0  0  0  0  2  0  0  0  0  0  0
  186.7140  177.0490  136.4650 C   0  0  0  0  0  0  0  0  0  0  0  0
  190.1960  176.1280  136.3840 C   0  0  0  0  0  1  0  0  0  0  0  0
  186.5130  177.6660  135.3610 N   0  0  0  0  0  2  0  0  0  0  0  0
  186.9680  177.9790  137.9510 S   0  0  0  0  0  0  0  0  0  0  0  0
  188.9900  176.1890  137.3000 C   0  0  1  0  0  3  0  0  0  0  0  0
  188.7410  177.6370  137.7440 C   0  0  2  0  0  3  0  0  0  0  0  0
  187.5360  175.4730  136.4520 S   0  0  0  0  0  0  0  0  0  0  0  0
  190.7200  175.7930  146.8170 C   0  0  0  0  0  2  0  0  0  0  0  0
  192.0890  175.1850  147.0860 C   0  0  0  0  0  2  0  0  0  0  0  0
  193.2400  176.3800  149.1170 N   0  0  0  0  0  0  0  0  0  0  0  0
  192.7330  175.8520  148.2210 C   0  0  0  0  0  0  0  0  0  0  0  0
  1 12  1  0  0  0  0
  1  8  1  0  0  0  0
  2  3  1  0  0  0  0
  3 16  1  0  0  0  0
  3  6  2  0  0  0  0
  4  2  1  0  0  0  0
  4 12  2  0  0  0  0
  5  1  2  0  0  0  0
  7 11  2  0  0  0  0
  9 16  1  0  0  0  0
 10  7  1  0  0  0  0
 10 13  1  0  0  0  0
 11 15  1  0  0  0  0
 11  2  1  0  0  0  0
 13  4  1  0  0  0  0
 14 13  2  0  0  0  0
 14  5  1  0  0  0  0
 15  9  2  0  0  0  0
 16 28  1  6  0  0  0
 17 19  1  0  0  0  0
 18 20  1  6  0  0  0
 18 17  1  0  0  0  0
 18 19  1  0  0  0  0
 19  7  1  1  0  0  0
 21 24  1  0  0  0  0
 23 21  2  0  0  0  0
 25 22  1  6  0  0  0
 25 26  1  0  0  0  0
 26 24  1  0  0  0  0
 26 20  1  1  0  0  0
 27 21  1  0  0  0  0
 27 25  1  0  0  0  0
 28 29  1  0  0  0  0
 29 31  1  0  0  0  0
 31 30  3  0  0  0  0
M  END
>  <MODEL>
3

>  <REMARK>
 VINA RESULT:      -7.8      4.061      6.245
  Name = 
  6 active torsions:
  status: ('A' for Active; 'I' for Inactive)
    1  A    between atoms: C_3  and  C_9
    2  A    between atoms: C_3  and  C_22
    3  A    between atoms: C_15  and  C_23
    4  A    between atoms: C_18  and  C_26
    5  A    between atoms: C_26  and  C_31
    6  A    between atoms: C_30  and  C_31
                            x       y       z     vdW  Elec       q    Type
                         _______ _______ _______ _____ _____    ______ ____

>  <TORSDO>
F 6

$$$$
=
 OpenBabel10272400153D

 31 35  0  0  1  0  0  0  0  0999 V2000
  185.5790  178.0680  145.1110 C   0  0  0  0  0  0  0  0  0  0  0  0
  189.0310  177.8820  143.6050 N   0  0  0  0  0  0  0  0  0  0  0  0
  189.9290  177.7430  144.7280 C   0  0  0  0  0  0  0  0  0  0  0  0
  187.5990  178.0130  143.7580 C   0  0  0  0  0  0  0  0  0  0  0  0
  184.8070  178.2480  143.9610 C   0  0  0  0  0  3  0  0  0  0  0  0
  189.5840  178.0990  145.8870 O   0  0  0  0  0  0  0  0  0  0  0  0
  188.8150  178.0910  141.1950 C   0  0  0  0  0  0  0  0  0  0  0  0
  184.9810  178.0090  146.3260 F   0  0  0  0  0  0  0  0  0  0  0  0
  191.8430  177.4600  143.1670 C   0  0  0  0  0  3  0  0  0  0  0  0
  187.4270  178.2230  141.3560 O   0  0  0  0  0  0  0  0  0  0  0  0
  189.6040  177.9030  142.2760 C   0  0  0  0  0  0  0  0  0  0  0  0
  186.9680  177.9480  145.0100 C   0  0  0  0  0  3  0  0  0  0  0  0
  186.8130  178.1820  142.6080 C   0  0  0  0  0  0  0  0  0  0  0  0
  185.4250  178.3040  142.7090 C   0  0  0  0  0  3  0  0  0  0  0  0
  191.0650  177.7700  142.1290 C   0  0  0  0  0  3  0  0  0  0  0  0
  191.2920  177.1500  144.5310 C   0  0  2  0  0  3  0  0  0  0  0  0
  189.1690  176.7810  139.1330 C   0  0  0  0  0  2  0  0  0  0  0  0
  188.2640  177.9340  138.7700 C   0  0  1  0  0  3  0  0  0  0  0  0
  189.3700  178.1320  139.7950 C   0  0  1  0  0  3  0  0  0  0  0  0
  188.6940  178.4540  137.4040 C   0  0  0  0  0  2  0  0  0  0  0  0
  185.8930  176.8080  135.2230 C   0  0  0  0  0  0  0  0  0  0  0  0
  189.3350  177.4160  134.3520 C   0  0  0  0  0  1  0  0  0  0  0  0
  185.2150  177.4520  134.3480 N   0  0  0  0  0  2  0  0  0  0  0  0
  186.1460  177.5160  136.8270 S   0  0  0  0  0  0  0  0  0  0  0  0
  188.4560  176.8350  135.4410 C   0  0  1  0  0  3  0  0  0  0  0  0
  187.8120  177.9660  136.2540 C   0  0  2  0  0  3  0  0  0  0  0  0
  187.2040  175.7290  134.6970 S   0  0  0  0  0  0  0  0  0  0  0  0
  191.2190  175.6410  144.7390 C   0  0  0  0  0  2  0  0  0  0  0  0
  192.2460  175.1680  145.7580 C   0  0  0  0  0  2  0  0  0  0  0  0
  192.0650  176.5760  147.9630 N   0  0  0  0  0  0  0  0  0  0  0  0
  192.1450  175.9550  146.9900 C   0  0  0  0  0  0  0  0  0  0  0  0
  1  8  1  0  0  0  0
  2  4  1  0  0  0  0
  2  3  1  0  0  0  0
  3  6  2  0  0  0  0
  4 12  2  0  0  0  0
  5  1  2  0  0  0  0
  7 10  1  0  0  0  0
  7 11  2  0  0  0  0
  9 16  1  0  0  0  0
 10 13  1  0  0  0  0
 11  2  1  0  0  0  0
 12  1  1  0  0  0  0
 13 14  2  0  0  0  0
 13  4  1  0  0  0  0
 14  5  1  0  0  0  0
 15 11  1  0  0  0  0
 15  9  2  0  0  0  0
 16  3  1  0  0  0  0
 16 28  1  6  0  0  0
 17 19  1  0  0  0  0
 18 20  1  6  0  0  0
 18 17  1  0  0  0  0
 18 19  1  0  0  0  0
 19  7  1  1  0  0  0
 21 24  1  0  0  0  0
 23 21  2  0  0  0  0
 25 22  1  6  0  0  0
 25 26  1  0  0  0  0
 26 24  1  0  0  0  0
 26 20  1  1  0  0  0
 27 21  1  0  0  0  0
 27 25  1  0  0  0  0
 28 29  1  0  0  0  0
 29 31  1  0  0  0  0
 31 30  3  0  0  0  0
M  END
>  <MODEL>
4

>  <REMARK>
 VINA RESULT:      -7.6      3.691      5.793
  Name = 
  6 active torsions:
  status: ('A' for Active; 'I' for Inactive)
    1  A    between atoms: C_3  and  C_9
    2  A    between atoms: C_3  and  C_22
    3  A    between atoms: C_15  and  C_23
    4  A    between atoms: C_18  and  C_26
    5  A    between atoms: C_26  and  C_31
    6  A    between atoms: C_30  and  C_31
                            x       y       z     vdW  Elec       q    Type
                         _______ _______ _______ _____ _____    ______ ____

>  <TORSDO>
F 6

$$$$
=
 OpenBabel10272400153D

 31 35  0  0  1  0  0  0  0  0999 V2000
  190.2360  177.1020  145.8870 C   0  0  0  0  0  0  0  0  0  0  0  0
  187.7880  177.7280  143.0890 N   0  0  0  0  0  0  0  0  0  0  0  0
  186.4830  177.6670  143.7040 C   0  0  0  0  0  0  0  0  0  0  0  0
  189.0130  177.5130  143.8260 C   0  0  0  0  0  0  0  0  0  0  0  0
  191.4420  177.1340  145.1840 C   0  0  0  0  0  3  0  0  0  0  0  0
  186.3050  177.0660  144.7980 O   0  0  0  0  0  0  0  0  0  0  0  0
  189.0490  178.0130  141.0320 C   0  0  0  0  0  0  0  0  0  0  0  0
  190.2380  176.8850  147.2250 F   0  0  0  0  0  0  0  0  0  0  0  0
  185.4330  178.3400  141.5530 C   0  0  0  0  0  3  0  0  0  0  0  0
  190.2310  177.7980  141.7570 O   0  0  0  0  0  0  0  0  0  0  0  0
  187.8570  178.0040  141.6690 C   0  0  0  0  0  0  0  0  0  0  0  0
  189.0270  177.2940  145.2120 C   0  0  0  0  0  3  0  0  0  0  0  0
  190.2320  177.5550  143.1310 C   0  0  0  0  0  0  0  0  0  0  0  0
  191.4390  177.3610  143.8050 C   0  0  0  0  0  3  0  0  0  0  0  0
  186.6020  178.2210  140.9250 C   0  0  0  0  0  3  0  0  0  0  0  0
  185.3110  178.3400  143.0520 C   0  0  2  0  0  3  0  0  0  0  0  0
  190.4460  177.6600  139.0280 C   0  0  0  0  0  2  0  0  0  0  0  0
  189.1210  176.9850  138.7640 C   0  0  1  0  0  3  0  0  0  0  0  0
  189.1660  178.2840  139.5550 C   0  0  1  0  0  3  0  0  0  0  0  0
  188.7420  177.2510  137.3120 C   0  0  0  0  0  2  0  0  0  0  0  0
  187.2350  173.9610  135.8230 C   0  0  0  0  0  0  0  0  0  0  0  0
  190.6990  174.9220  136.0640 C   0  0  0  0  0  1  0  0  0  0  0  0
  187.0300  173.7870  134.5710 N   0  0  0  0  0  2  0  0  0  0  0  0
  186.7340  175.4780  136.5880 S   0  0  0  0  0  0  0  0  0  0  0  0
  189.4200  174.8260  136.8710 C   0  0  1  0  0  3  0  0  0  0  0  0
  188.4780  175.9810  136.5030 C   0  0  2  0  0  3  0  0  0  0  0  0
  188.6400  173.1940  136.5970 S   0  0  0  0  0  0  0  0  0  0  0  0
  185.2000  179.7700  143.5710 C   0  0  0  0  0  2  0  0  0  0  0  0
  184.2130  179.8690  144.7250 C   0  0  0  0  0  2  0  0  0  0  0  0
  181.9280  178.7560  144.0770 N   0  0  0  0  0  0  0  0  0  0  0  0
  182.9370  179.2470  144.3630 C   0  0  0  0  0  0  0  0  0  0  0  0
  1  8  1  0  0  0  0
  2  3  1  0  0  0  0
  2  4  1  0  0  0  0
  3  6  2  0  0  0  0
  4 12  2  0  0  0  0
  5  1  2  0  0  0  0
  7 11  2  0  0  0  0
  7 10  1  0  0  0  0
  9 16  1  0  0  0  0
 10 13  1  0  0  0  0
 11  2  1  0  0  0  0
 12  1  1  0  0  0  0
 13 14  2  0  0  0  0
 13  4  1  0  0  0  0
 14  5  1  0  0  0  0
 15  9  2  0  0  0  0
 15 11  1  0  0  0  0
 16 28  1  1  0  0  0
 16  3  1  0  0  0  0
 17 19  1  0  0  0  0
 18 20  1  6  0  0  0
 18 17  1  0  0  0  0
 18 19  1  0  0  0  0
 19  7  1  1  0  0  0
 21 24  1  0  0  0  0
 21 27  1  0  0  0  0
 23 21  2  0  0  0  0
 25 22  1  6  0  0  0
 26 24  1  0  0  0  0
 26 25  1  0  0  0  0
 26 20  1  1  0  0  0
 27 25  1  0  0  0  0
 28 29  1  0  0  0  0
 30 31  3  0  0  0  0
 31 29  1  0  0  0  0
M  END
>  <MODEL>
5

>  <REMARK>
 VINA RESULT:      -7.5      3.588      6.679
  Name = 
  6 active torsions:
  status: ('A' for Active; 'I' for Inactive)
    1  A    between atoms: C_3  and  C_9
    2  A    between atoms: C_3  and  C_22
    3  A    between atoms: C_15  and  C_23
    4  A    between atoms: C_18  and  C_26
    5  A    between atoms: C_26  and  C_31
    6  A    between atoms: C_30  and  C_31
                            x       y       z     vdW  Elec       q    Type
                         _______ _______ _______ _____ _____    ______ ____

>  <TORSDO>
F 6

$$$$
=
 OpenBabel10272400153D

 31 35  0  0  1  0  0  0  0  0999 V2000
  190.2820  177.1910  141.9830 C   0  0  0  0  0  0  0  0  0  0  0  0
  186.6640  177.8940  142.7780 N   0  0  0  0  0  0  0  0  0  0  0  0
  186.4890  177.4830  144.1520 C   0  0  0  0  0  0  0  0  0  0  0  0
  187.9200  177.7640  142.0750 C   0  0  0  0  0  0  0  0  0  0  0  0
  190.3280  177.5730  140.6400 C   0  0  0  0  0  3  0  0  0  0  0  0
  187.2790  176.6620  144.6920 O   0  0  0  0  0  0  0  0  0  0  0  0
  185.6110  178.7880  140.7800 C   0  0  0  0  0  0  0  0  0  0  0  0
  191.3990  176.7260  142.5930 F   0  0  0  0  0  0  0  0  0  0  0  0
  184.1620  178.3570  144.1220 C   0  0  0  0  0  3  0  0  0  0  0  0
  186.8350  178.6530  140.1060 O   0  0  0  0  0  0  0  0  0  0  0  0
  185.5190  178.4440  142.0840 C   0  0  0  0  0  0  0  0  0  0  0  0
  189.0850  177.2890  142.6980 C   0  0  0  0  0  3  0  0  0  0  0  0
  187.9800  178.1560  140.7280 C   0  0  0  0  0  0  0  0  0  0  0  0
  189.1760  178.0550  140.0130 C   0  0  0  0  0  3  0  0  0  0  0  0
  184.2410  178.5720  142.8080 C   0  0  0  0  0  3  0  0  0  0  0  0
  185.3660  178.0480  144.9690 C   0  0  2  0  0  3  0  0  0  0  0  0
  184.6930  179.2000  138.5260 C   0  0  0  0  0  2  0  0  0  0  0  0
  183.7380  178.2630  139.2240 C   0  0  1  0  0  3  0  0  0  0  0  0
  184.4430  179.3530  140.0150 C   0  0  1  0  0  3  0  0  0  0  0  0
  182.3190  178.6870  138.8650 C   0  0  0  0  0  2  0  0  0  0  0  0
  181.1750  175.5140  136.8820 C   0  0  0  0  0  0  0  0  0  0  0  0
  180.7830  178.9780  135.9740 C   0  0  0  0  0  1  0  0  0  0  0  0
  179.9820  175.0500  136.9280 N   0  0  0  0  0  2  0  0  0  0  0  0
  181.9920  175.9730  138.3860 S   0  0  0  0  0  0  0  0  0  0  0  0
  181.8050  177.9730  136.4650 C   0  0  1  0  0  3  0  0  0  0  0  0
  181.5900  177.6940  137.9590 C   0  0  2  0  0  3  0  0  0  0  0  0
  181.7000  176.4470  135.4630 S   0  0  0  0  0  0  0  0  0  0  0  0
  185.8450  179.3080  145.6810 C   0  0  0  0  0  2  0  0  0  0  0  0
  185.8270  179.1350  147.1930 C   0  0  0  0  0  2  0  0  0  0  0  0
  187.9420  177.8040  147.9890 N   0  0  0  0  0  0  0  0  0  0  0  0
  187.0090  178.3910  147.6380 C   0  0  0  0  0  0  0  0  0  0  0  0
  1  8  1  0  0  0  0
  1 12  1  0  0  0  0
  2  3  1  0  0  0  0
  3  6  2  0  0  0  0
  3 16  1  0  0  0  0
  4 12  2  0  0  0  0
  4  2  1  0  0  0  0
  5  1  2  0  0  0  0
  7 11  2  0  0  0  0
  9 16  1  0  0  0  0
 10 13  1  0  0  0  0
 10  7  1  0  0  0  0
 11  2  1  0  0  0  0
 11 15  1  0  0  0  0
 13  4  1  0  0  0  0
 14  5  1  0  0  0  0
 14 13  2  0  0  0  0
 15  9  2  0  0  0  0
 16 28  1  6  0  0  0
 17 18  1  0  0  0  0
 17 19  1  0  0  0  0
 18 20  1  6  0  0  0
 18 19  1  0  0  0  0
 19  7  1  1  0  0  0
 21 23  2  0  0  0  0
 21 24  1  0  0  0  0
 25 22  1  6  0  0  0
 25 26  1  0  0  0  0
 26 24  1  0  0  0  0
 26 20  1  1  0  0  0
 27 25  1  0  0  0  0
 27 21  1  0  0  0  0
 28 29  1  0  0  0  0
 29 31  1  0  0  0  0
 31 30  3  0  0  0  0
M  END
>  <MODEL>
6

>  <REMARK>
 VINA RESULT:      -7.4      2.461      3.342
  Name = 
  6 active torsions:
  status: ('A' for Active; 'I' for Inactive)
    1  A    between atoms: C_3  and  C_9
    2  A    between atoms: C_3  and  C_22
    3  A    between atoms: C_15  and  C_23
    4  A    between atoms: C_18  and  C_26
    5  A    between atoms: C_26  and  C_31
    6  A    between atoms: C_30  and  C_31
                            x       y       z     vdW  Elec       q    Type
                         _______ _______ _______ _____ _____    ______ ____

>  <TORSDO>
F 6

$$$$
=
 OpenBabel10272400153D

 31 35  0  0  1  0  0  0  0  0999 V2000
  190.1140  177.3490  146.9180 C   0  0  0  0  0  0  0  0  0  0  0  0
  188.7850  177.9350  143.4390 N   0  0  0  0  0  0  0  0  0  0  0  0
  189.9500  178.1880  142.6240 C   0  0  0  0  0  0  0  0  0  0  0  0
  188.8620  177.6850  144.8610 C   0  0  0  0  0  0  0  0  0  0  0  0
  188.9210  177.1660  147.6210 C   0  0  0  0  0  3  0  0  0  0  0  0
  191.0340  178.5750  143.1380 O   0  0  0  0  0  0  0  0  0  0  0  0
  186.3620  177.7780  143.5200 C   0  0  0  0  0  0  0  0  0  0  0  0
  191.3010  177.2780  147.5690 F   0  0  0  0  0  0  0  0  0  0  0  0
  188.5190  178.2520  140.5920 C   0  0  0  0  0  3  0  0  0  0  0  0
  186.4490  177.5420  144.9010 O   0  0  0  0  0  0  0  0  0  0  0  0
  187.4890  177.9490  142.7930 C   0  0  0  0  0  0  0  0  0  0  0  0
  190.0860  177.6040  145.5440 C   0  0  0  0  0  3  0  0  0  0  0  0
  187.6690  177.4890  145.5740 C   0  0  0  0  0  0  0  0  0  0  0  0
  187.6980  177.2360  146.9480 C   0  0  0  0  0  3  0  0  0  0  0  0
  187.4190  178.2060  141.3430 C   0  0  0  0  0  3  0  0  0  0  0  0
  189.8910  177.9730  141.1400 C   0  0  2  0  0  3  0  0  0  0  0  0
  184.1110  178.7860  143.6340 C   0  0  0  0  0  2  0  0  0  0  0  0
  184.6940  179.1620  142.2930 C   0  0  1  0  0  3  0  0  0  0  0  0
  184.9930  177.7970  142.8920 C   0  0  1  0  0  3  0  0  0  0  0  0
  183.5810  179.0650  141.2560 C   0  0  0  0  0  2  0  0  0  0  0  0
  184.7330  177.8410  137.7220 C   0  0  0  0  0  0  0  0  0  0  0  0
  182.3840  176.2870  139.9680 C   0  0  0  0  0  1  0  0  0  0  0  0
  185.6490  176.9630  137.5480 N   0  0  0  0  0  2  0  0  0  0  0  0
  184.9980  179.1620  138.8710 S   0  0  0  0  0  0  0  0  0  0  0  0
  182.7360  177.6140  139.3280 C   0  0  1  0  0  3  0  0  0  0  0  0
  183.9540  178.2290  140.0310 C   0  0  2  0  0  3  0  0  0  0  0  0
  183.0270  177.3770  137.5380 S   0  0  0  0  0  0  0  0  0  0  0  0
  190.3030  176.5400  140.8230 C   0  0  0  0  0  2  0  0  0  0  0  0
  190.9890  176.4440  139.4670 C   0  0  0  0  0  2  0  0  0  0  0  0
  193.4670  177.2870  139.6300 N   0  0  0  0  0  0  0  0  0  0  0  0
  192.3730  176.9150  139.5590 C   0  0  0  0  0  0  0  0  0  0  0  0
  1  8  1  0  0  0  0
  1  5  1  0  0  0  0
  2  4  1  0  0  0  0
  3  6  2  0  0  0  0
  3  2  1  0  0  0  0
  4 12  1  0  0  0  0
  4 13  2  0  0  0  0
  7 10  1  0  0  0  0
  9 16  1  0  0  0  0
  9 15  2  0  0  0  0
 10 13  1  0  0  0  0
 11  2  1  0  0  0  0
 11  7  2  0  0  0  0
 12  1  2  0  0  0  0
 13 14  1  0  0  0  0
 14  5  2  0  0  0  0
 15 11  1  0  0  0  0
 16 28  1  1  0  0  0
 16  3  1  0  0  0  0
 18 20  1  6  0  0  0
 18 19  1  0  0  0  0
 18 17  1  0  0  0  0
 19  7  1  1  0  0  0
 19 17  1  0  0  0  0
 21 24  1  0  0  0  0
 23 21  2  0  0  0  0
 24 26  1  0  0  0  0
 25 22  1  1  0  0  0
 25 26  1  0  0  0  0
 26 20  1  1  0  0  0
 27 21  1  0  0  0  0
 27 25  1  0  0  0  0
 29 31  1  0  0  0  0
 29 28  1  0  0  0  0
 31 30  3  0  0  0  0
M  END
>  <MODEL>
7

>  <REMARK>
 VINA RESULT:      -7.1      2.873      5.054
  Name = 
  6 active torsions:
  status: ('A' for Active; 'I' for Inactive)
    1  A    between atoms: C_3  and  C_9
    2  A    between atoms: C_3  and  C_22
    3  A    between atoms: C_15  and  C_23
    4  A    between atoms: C_18  and  C_26
    5  A    between atoms: C_26  and  C_31
    6  A    between atoms: C_30  and  C_31
                            x       y       z     vdW  Elec       q    Type
                         _______ _______ _______ _____ _____    ______ ____

>  <TORSDO>
F 6

$$$$
=
 OpenBabel10272400153D

 31 35  0  0  1  0  0  0  0  0999 V2000
  191.0420  176.7720  146.5250 C   0  0  0  0  0  0  0  0  0  0  0  0
  189.0420  177.8290  143.5080 N   0  0  0  0  0  0  0  0  0  0  0  0
  190.0140  178.0430  142.4630 C   0  0  0  0  0  0  0  0  0  0  0  0
  189.4070  177.4330  144.8510 C   0  0  0  0  0  0  0  0  0  0  0  0
  190.0260  176.6410  147.4730 C   0  0  0  0  0  3  0  0  0  0  0  0
  191.2250  178.2670  142.7340 O   0  0  0  0  0  0  0  0  0  0  0  0
  186.6990  177.9080  144.1470 C   0  0  0  0  0  0  0  0  0  0  0  0
  192.3280  176.5190  146.8710 F   0  0  0  0  0  0  0  0  0  0  0  0
  188.1800  178.4500  140.8350 C   0  0  0  0  0  3  0  0  0  0  0  0
  187.0670  177.5280  145.4470 O   0  0  0  0  0  0  0  0  0  0  0  0
  187.6440  178.0360  143.1890 C   0  0  0  0  0  0  0  0  0  0  0  0
  190.7350  177.1630  145.2190 C   0  0  0  0  0  3  0  0  0  0  0  0
  188.3920  177.2870  145.8080 C   0  0  0  0  0  0  0  0  0  0  0  0
  188.7000  176.8990  147.1140 C   0  0  0  0  0  3  0  0  0  0  0  0
  187.2810  178.4400  141.8190 C   0  0  0  0  0  3  0  0  0  0  0  0
  189.5970  177.9820  141.0230 C   0  0  2  0  0  3  0  0  0  0  0  0
  184.4720  178.2010  145.1720 C   0  0  0  0  0  2  0  0  0  0  0  0
  184.7740  179.4680  144.4080 C   0  0  1  0  0  3  0  0  0  0  0  0
  185.2360  178.1260  143.8620 C   0  0  1  0  0  3  0  0  0  0  0  0
  183.4900  179.9170  143.7220 C   0  0  0  0  0  2  0  0  0  0  0  0
  182.4630  177.9150  140.5210 C   0  0  0  0  0  0  0  0  0  0  0  0
  180.7650  178.0790  143.6940 C   0  0  0  0  0  1  0  0  0  0  0  0
  182.7270  176.6730  140.3540 N   0  0  0  0  0  2  0  0  0  0  0  0
  183.7270  179.0060  141.1110 S   0  0  0  0  0  0  0  0  0  0  0  0
  181.3970  178.9450  142.6230 C   0  0  1  0  0  3  0  0  0  0  0  0
  182.9260  178.8910  142.7390 C   0  0  2  0  0  3  0  0  0  0  0  0
  180.8160  178.4080  140.9740 S   0  0  0  0  0  0  0  0  0  0  0  0
  189.7510  176.5540  140.5140 C   0  0  0  0  0  2  0  0  0  0  0  0
  190.3970  176.5190  139.1370 C   0  0  0  0  0  2  0  0  0  0  0  0
  192.9520  177.0890  139.3080 N   0  0  0  0  0  0  0  0  0  0  0  0
  191.8250  176.8380  139.2320 C   0  0  0  0  0  0  0  0  0  0  0  0
  1  8  1  0  0  0  0
  1  5  1  0  0  0  0
  2  4  1  0  0  0  0
  3  6  2  0  0  0  0
  3  2  1  0  0  0  0
  4 12  1  0  0  0  0
  4 13  2  0  0  0  0
  7 10  1  0  0  0  0
  9 16  1  0  0  0  0
  9 15  2  0  0  0  0
 10 13  1  0  0  0  0
 11  2  1  0  0  0  0
 11  7  2  0  0  0  0
 12  1  2  0  0  0  0
 13 14  1  0  0  0  0
 14  5  2  0  0  0  0
 15 11  1  0  0  0  0
 16 28  1  1  0  0  0
 16  3  1  0  0  0  0
 18 20  1  6  0  0  0
 18 17  1  0  0  0  0
 19  7  1  1  0  0  0
 19 18  1  0  0  0  0
 19 17  1  0  0  0  0
 21 27  1  0  0  0  0
 21 24  1  0  0  0  0
 23 21  2  0  0  0  0
 24 26  1  0  0  0  0
 25 26  1  0  0  0  0
 25 22  1  1  0  0  0
 26 20  1  1  0  0  0
 27 25  1  0  0  0  0
 29 31  1  0  0  0  0
 29 28  1  0  0  0  0
 31 30  3  0  0  0  0
M  END
>  <MODEL>
8

>  <REMARK>
 VINA RESULT:      -7.0      2.620      4.927
  Name = 
  6 active torsions:
  status: ('A' for Active; 'I' for Inactive)
    1  A    between atoms: C_3  and  C_9
    2  A    between atoms: C_3  and  C_22
    3  A    between atoms: C_15  and  C_23
    4  A    between atoms: C_18  and  C_26
    5  A    between atoms: C_26  and  C_31
    6  A    between atoms: C_30  and  C_31
                            x       y       z     vdW  Elec       q    Type
                         _______ _______ _______ _____ _____    ______ ____

>  <TORSDO>
F 6

$$$$
=
 OpenBabel10272400153D

 31 35  0  0  1  0  0  0  0  0999 V2000
  187.4390  178.0470  137.3750 C   0  0  0  0  0  0  0  0  0  0  0  0
  184.8350  178.5880  140.0490 N   0  0  0  0  0  0  0  0  0  0  0  0
  183.5740  178.6430  139.3470 C   0  0  0  0  0  0  0  0  0  0  0  0
  186.1020  178.4150  139.3730 C   0  0  0  0  0  0  0  0  0  0  0  0
  188.6030  178.0580  138.1460 C   0  0  0  0  0  3  0  0  0  0  0  0
  183.5240  178.9210  138.1180 O   0  0  0  0  0  0  0  0  0  0  0  0
  185.9730  178.7420  142.1900 C   0  0  0  0  0  0  0  0  0  0  0  0
  187.5160  177.8670  136.0340 F   0  0  0  0  0  0  0  0  0  0  0  0
  182.3670  178.7660  141.5170 C   0  0  0  0  0  3  0  0  0  0  0  0
  187.1970  178.5790  141.5220 O   0  0  0  0  0  0  0  0  0  0  0  0
  184.8170  178.7270  141.4900 C   0  0  0  0  0  0  0  0  0  0  0  0
  186.1930  178.2210  137.9860 C   0  0  0  0  0  3  0  0  0  0  0  0
  187.2780  178.4130  140.1400 C   0  0  0  0  0  0  0  0  0  0  0  0
  188.5220  178.2410  139.5290 C   0  0  0  0  0  3  0  0  0  0  0  0
  183.5210  178.9030  142.1710 C   0  0  0  0  0  3  0  0  0  0  0  0
  182.2950  178.3500  140.0730 C   0  0  2  0  0  3  0  0  0  0  0  0
  184.9440  177.9990  144.3070 C   0  0  0  0  0  2  0  0  0  0  0  0
  186.3960  177.5880  144.3570 C   0  0  1  0  0  3  0  0  0  0  0  0
  186.0010  178.8960  143.6880 C   0  0  1  0  0  3  0  0  0  0  0  0
  186.9050  177.8380  145.7710 C   0  0  0  0  0  2  0  0  0  0  0  0
  190.7190  177.0450  145.4090 C   0  0  0  0  0  0  0  0  0  0  0  0
  188.9830  178.4130  148.2530 C   0  0  0  0  0  1  0  0  0  0  0  0
  191.5940  177.9290  145.1020 N   0  0  0  0  0  2  0  0  0  0  0  0
  189.2060  176.9590  144.4920 S   0  0  0  0  0  0  0  0  0  0  0  0
  188.9260  177.2910  147.2370 C   0  0  1  0  0  3  0  0  0  0  0  0
  188.4290  177.8280  145.8880 C   0  0  2  0  0  3  0  0  0  0  0  0
  190.5720  176.5050  147.0950 S   0  0  0  0  0  0  0  0  0  0  0  0
  181.9890  176.8600  139.9700 C   0  0  0  0  0  2  0  0  0  0  0  0
  180.4970  176.5870  140.1000 C   0  0  0  0  0  2  0  0  0  0  0  0
  179.9820  174.0590  139.6310 N   0  0  0  0  0  0  0  0  0  0  0  0
  180.2090  175.1750  139.8380 C   0  0  0  0  0  0  0  0  0  0  0  0
  1 12  2  0  0  0  0
  1  5  1  0  0  0  0
  2 11  1  0  0  0  0
  3  2  1  0  0  0  0
  3 16  1  0  0  0  0
  4  2  1  0  0  0  0
  4 13  2  0  0  0  0
  5 14  2  0  0  0  0
  6  3  2  0  0  0  0
  8  1  1  0  0  0  0
  9 15  2  0  0  0  0
 10  7  1  0  0  0  0
 11 15  1  0  0  0  0
 11  7  2  0  0  0  0
 12  4  1  0  0  0  0
 13 10  1  0  0  0  0
 14 13  1  0  0  0  0
 16 28  1  1  0  0  0
 16  9  1  0  0  0  0
 17 18  1  0  0  0  0
 18 20  1  1  0  0  0
 19  7  1  6  0  0  0
 19 17  1  0  0  0  0
 19 18  1  0  0  0  0
 21 27  1  0  0  0  0
 23 21  2  0  0  0  0
 24 21  1  0  0  0  0
 24 26  1  0  0  0  0
 25 22  1  1  0  0  0
 26 20  1  1  0  0  0
 26 25  1  0  0  0  0
 27 25  1  0  0  0  0
 28 29  1  0  0  0  0
 30 31  3  0  0  0  0
 31 29  1  0  0  0  0
M  END
>  <MODEL>
9

>  <REMARK>
 VINA RESULT:      -6.8      3.337      7.938
  Name = 
  6 active torsions:
  status: ('A' for Active; 'I' for Inactive)
    1  A    between atoms: C_3  and  C_9
    2  A    between atoms: C_3  and  C_22
    3  A    between atoms: C_15  and  C_23
    4  A    between atoms: C_18  and  C_26
    5  A    between atoms: C_26  and  C_31
    6  A    between atoms: C_30  and  C_31
                            x       y       z     vdW  Elec       q    Type
                         _______ _______ _______ _____ _____    ______ ____

>  <TORSDO>
F 6

$$$$
