=
 OpenBabel10272415173D

 34 37  0  0  1  0  0  0  0  0999 V2000
  189.2100  178.5970  136.8240 C   0  0  0  0  0  2  0  0  0  0  0  0
  187.1420  177.1850  136.5650 C   0  0  0  0  0  1  0  0  0  0  0  0
  188.8760  179.2270  138.1750 C   0  0  0  0  0  2  0  0  0  0  0  0
  189.0400  178.2530  139.3450 C   0  0  2  0  0  3  0  0  0  0  0  0
  188.6530  177.1710  136.7160 C   0  0  2  0  0  3  0  0  0  0  0  0
  189.7640  176.9620  138.9120 C   0  0  2  0  0  3  0  0  0  0  0  0
  189.0450  176.2730  137.8220 N   0  0  0  0  0  0  0  0  0  0  0  0
  190.0920  175.0600  137.1410 S   0  0  0  0  0  0  0  0  0  0  0  0
  190.8710  175.6470  135.9940 O   0  0  0  0  0  0  0  0  0  0  0  0
  191.0570  174.5660  138.1820 O   0  0  0  0  0  0  0  0  0  0  0  0
  189.6730  172.8060  135.6310 C   0  0  0  0  0  3  0  0  0  0  0  0
  187.6050  171.5470  135.6510 C   0  0  0  0  0  3  0  0  0  0  0  0
  188.9060  171.7310  135.1730 C   0  0  0  0  0  3  0  0  0  0  0  0
  187.8400  173.5110  137.0480 C   0  0  0  0  0  3  0  0  0  0  0  0
  189.1420  173.6970  136.5710 C   0  0  0  0  0  0  0  0  0  0  0  0
  187.0720  172.4360  136.5890 C   0  0  0  0  0  3  0  0  0  0  0  0
  189.9290  176.1060  140.0060 O   0  0  0  0  0  0  0  0  0  0  0  0
  190.5680  176.8820  140.9790 C   0  0  0  0  0  2  0  0  0  0  0  0
  190.6470  176.1190  142.2920 C   0  0  0  0  0  2  0  0  0  0  0  0
  191.7860  178.3000  144.0620 C   0  0  0  0  0  2  0  0  0  0  0  0
  187.7550  177.4110  145.6390 C   0  0  0  0  0  0  0  0  0  0  0  0
  189.0360  177.2740  146.3690 C   0  0  0  0  0  0  0  0  0  0  0  0
  190.2870  177.3000  145.7490 O   0  0  0  0  0  0  0  0  0  0  0  0
  186.6720  177.8070  146.3520 F   0  0  0  0  0  0  0  0  0  0  0  0
  190.4660  177.6360  144.3860 C   0  0  0  0  0  0  0  0  0  0  0  0
  188.9980  177.1580  147.6220 O   0  0  0  0  0  0  0  0  0  0  0  0
  188.5050  176.5540  143.3670 C   0  0  0  0  0  3  0  0  0  0  0  0
  189.8190  176.7750  143.3520 C   0  0  0  0  0  0  0  0  0  0  0  0
  187.5410  177.0550  144.3650 C   0  0  0  0  0  3  0  0  0  0  0  0
  190.4980  179.1200  144.1010 C   0  0  0  0  0  2  0  0  0  0  0  0
  187.6690  177.9740  139.9560 C   0  0  0  0  0  2  0  0  0  0  0  0
  187.3910  178.8820  141.1430 C   0  0  0  0  0  2  0  0  0  0  0  0
  185.6120  178.9120  141.5130 S   0  0  0  0  0  0  0  0  0  0  0  0
  185.1740  178.7750  139.7590 C   0  0  0  0  0  1  0  0  0  0  0  0
  1  3  1  0  0  0  0
  3  4  1  0  0  0  0
  4 31  1  6  0  0  0
  5  2  1  1  0  0  0
  5  1  1  0  0  0  0
  5  7  1  0  0  0  0
  6  4  1  0  0  0  0
  6 17  1  1  0  0  0
  7  6  1  0  0  0  0
  8  7  1  0  0  0  0
  8 10  2  0  0  0  0
  9  8  2  0  0  0  0
 11 15  1  0  0  0  0
 12 16  2  0  0  0  0
 13 11  2  0  0  0  0
 13 12  1  0  0  0  0
 15 14  2  0  0  0  0
 15  8  1  0  0  0  0
 16 14  1  0  0  0  0
 17 18  1  0  0  0  0
 18 19  1  0  0  0  0
 19 28  1  0  0  0  0
 20 30  1  0  0  0  0
 20 25  1  0  0  0  0
 21 24  1  0  0  0  0
 21 22  1  0  0  0  0
 22 26  2  0  0  0  0
 23 22  1  0  0  0  0
 25 23  1  0  0  0  0
 27 29  1  0  0  0  0
 28 27  2  0  0  0  0
 28 25  1  0  0  0  0
 29 21  2  0  0  0  0
 30 25  1  0  0  0  0
 31 32  1  0  0  0  0
 32 33  1  0  0  0  0
 34 33  1  0  0  0  0
M  END
>  <MODEL>
1

>  <REMARK>
 VINA RESULT:      -7.5      0.000      0.000
  Name = 
  9 active torsions:
  status: ('A' for Active; 'I' for Inactive)
    1  A    between atoms: S_1  and  C_20
    2  A    between atoms: S_1  and  N_34
    3  A    between atoms: S_3  and  C_13
    4  A    between atoms: C_6  and  O_18
    5  A    between atoms: C_6  and  C_30
    6  A    between atoms: C_13  and  C_27
    7  A    between atoms: O_18  and  C_33
    8  A    between atoms: C_25  and  C_27
    9  A    between atoms: C_28  and  C_30
                            x       y       z     vdW  Elec       q    Type
                         _______ _______ _______ _____ _____    ______ ____

>  <TORSDO>
F 9

$$$$
=
 OpenBabel10272415173D

 34 37  0  0  1  0  0  0  0  0999 V2000
  188.7110  175.0530  136.2350 C   0  0  0  0  0  2  0  0  0  0  0  0
  190.1240  176.5530  134.7880 C   0  0  0  0  0  1  0  0  0  0  0  0
  189.6940  174.8770  137.3910 C   0  0  0  0  0  2  0  0  0  0  0  0
  189.8010  176.1200  138.2780 C   0  0  2  0  0  3  0  0  0  0  0  0
  188.8420  176.4410  135.5930 C   0  0  2  0  0  3  0  0  0  0  0  0
  188.6940  177.1440  137.9560 C   0  0  2  0  0  3  0  0  0  0  0  0
  188.7370  177.5690  136.5430 N   0  0  0  0  0  0  0  0  0  0  0  0
  187.2600  178.4110  136.1670 S   0  0  0  0  0  0  0  0  0  0  0  0
  187.3410  179.8280  136.6670 O   0  0  0  0  0  0  0  0  0  0  0  0
  187.0400  178.4320  134.6800 O   0  0  0  0  0  0  0  0  0  0  0  0
  185.4700  176.3500  136.4520 C   0  0  0  0  0  3  0  0  0  0  0  0
  183.7060  176.3280  138.1110 C   0  0  0  0  0  3  0  0  0  0  0  0
  184.3760  175.7150  137.0480 C   0  0  0  0  0  3  0  0  0  0  0  0
  185.2240  178.2100  137.9830 C   0  0  0  0  0  3  0  0  0  0  0  0
  185.8970  177.5980  136.9200 C   0  0  0  0  0  0  0  0  0  0  0  0
  184.1300  177.5760  138.5790 C   0  0  0  0  0  3  0  0  0  0  0  0
  188.7950  178.2540  138.8030 O   0  0  0  0  0  0  0  0  0  0  0  0
  188.0850  177.8970  139.9530 C   0  0  0  0  0  2  0  0  0  0  0  0
  188.6120  178.6640  141.1560 C   0  0  0  0  0  2  0  0  0  0  0  0
  187.1580  177.7430  143.6510 C   0  0  0  0  0  2  0  0  0  0  0  0
  191.2950  176.2290  144.0040 C   0  0  0  0  0  0  0  0  0  0  0  0
  190.6150  177.1600  144.9340 C   0  0  0  0  0  0  0  0  0  0  0  0
  189.4210  177.8180  144.6350 O   0  0  0  0  0  0  0  0  0  0  0  0
  192.1650  175.3380  144.5400 F   0  0  0  0  0  0  0  0  0  0  0  0
  188.6460  177.5300  143.4860 C   0  0  0  0  0  0  0  0  0  0  0  0
  191.1250  177.3440  146.0700 O   0  0  0  0  0  0  0  0  0  0  0  0
  190.4060  177.1510  141.8080 C   0  0  0  0  0  3  0  0  0  0  0  0
  189.2620  177.7460  142.1440 C   0  0  0  0  0  0  0  0  0  0  0  0
  191.2240  176.2730  142.6670 C   0  0  0  0  0  3  0  0  0  0  0  0
  187.7370  176.3300  143.6240 C   0  0  0  0  0  2  0  0  0  0  0  0
  191.2000  176.7140  138.1360 C   0  0  0  0  0  2  0  0  0  0  0  0
  192.2530  175.6290  137.9750 C   0  0  0  0  0  2  0  0  0  0  0  0
  193.4100  176.0630  136.6430 S   0  0  0  0  0  0  0  0  0  0  0  0
  193.2230  174.4400  135.8560 C   0  0  0  0  0  1  0  0  0  0  0  0
  1  3  1  0  0  0  0
  3  4  1  0  0  0  0
  4 31  1  6  0  0  0
  5  2  1  1  0  0  0
  5  1  1  0  0  0  0
  5  7  1  0  0  0  0
  6  4  1  0  0  0  0
  6 17  1  1  0  0  0
  7  6  1  0  0  0  0
  8  7  1  0  0  0  0
  8  9  2  0  0  0  0
  8 15  1  0  0  0  0
 10  8  2  0  0  0  0
 11 15  2  0  0  0  0
 11 13  1  0  0  0  0
 12 16  1  0  0  0  0
 13 12  2  0  0  0  0
 14 16  2  0  0  0  0
 15 14  1  0  0  0  0
 17 18  1  0  0  0  0
 18 19  1  0  0  0  0
 19 28  1  0  0  0  0
 21 24  1  0  0  0  0
 21 22  1  0  0  0  0
 22 26  2  0  0  0  0
 23 22  1  0  0  0  0
 25 30  1  0  0  0  0
 25 20  1  0  0  0  0
 25 23  1  0  0  0  0
 27 28  2  0  0  0  0
 27 29  1  0  0  0  0
 28 25  1  0  0  0  0
 29 21  2  0  0  0  0
 30 20  1  0  0  0  0
 32 31  1  0  0  0  0
 33 32  1  0  0  0  0
 34 33  1  0  0  0  0
M  END
>  <MODEL>
2

>  <REMARK>
 VINA RESULT:      -7.1      2.600      4.794
  Name = 
  9 active torsions:
  status: ('A' for Active; 'I' for Inactive)
    1  A    between atoms: S_1  and  C_20
    2  A    between atoms: S_1  and  N_34
    3  A    between atoms: S_3  and  C_13
    4  A    between atoms: C_6  and  O_18
    5  A    between atoms: C_6  and  C_30
    6  A    between atoms: C_13  and  C_27
    7  A    between atoms: O_18  and  C_33
    8  A    between atoms: C_25  and  C_27
    9  A    between atoms: C_28  and  C_30
                            x       y       z     vdW  Elec       q    Type
                         _______ _______ _______ _____ _____    ______ ____

>  <TORSDO>
F 9

$$$$
=
 OpenBabel10272415173D

 34 37  0  0  1  0  0  0  0  0999 V2000
  189.8780  174.7900  136.8740 C   0  0  0  0  0  2  0  0  0  0  0  0
  190.5830  176.5130  135.1800 C   0  0  0  0  0  1  0  0  0  0  0  0
  191.2430  174.5420  137.5130 C   0  0  0  0  0  2  0  0  0  0  0  0
  191.6900  175.6850  138.4290 C   0  0  2  0  0  3  0  0  0  0  0  0
  189.7320  176.2450  136.4080 C   0  0  2  0  0  3  0  0  0  0  0  0
  190.5400  176.6770  138.7010 C   0  0  2  0  0  3  0  0  0  0  0  0
  190.0100  177.2550  137.4500 N   0  0  0  0  0  0  0  0  0  0  0  0
  188.5020  178.0520  137.7980 S   0  0  0  0  0  0  0  0  0  0  0  0
  188.0350  177.6760  139.1790 O   0  0  0  0  0  0  0  0  0  0  0  0
  188.6780  179.5430  137.7340 O   0  0  0  0  0  0  0  0  0  0  0  0
  187.2470  178.1970  135.3610 C   0  0  0  0  0  3  0  0  0  0  0  0
  185.3320  176.8430  134.7590 C   0  0  0  0  0  3  0  0  0  0  0  0
  186.2700  177.8270  134.4320 C   0  0  0  0  0  3  0  0  0  0  0  0
  186.3470  176.5990  136.9430 C   0  0  0  0  0  3  0  0  0  0  0  0
  187.2890  177.5820  136.6180 C   0  0  0  0  0  0  0  0  0  0  0  0
  185.3700  176.2290  136.0140 C   0  0  0  0  0  3  0  0  0  0  0  0
  190.9670  177.6910  139.5660 O   0  0  0  0  0  0  0  0  0  0  0  0
  190.9560  177.1100  140.8380 C   0  0  0  0  0  2  0  0  0  0  0  0
  190.7010  178.1690  141.8990 C   0  0  0  0  0  2  0  0  0  0  0  0
  187.9060  177.4990  142.8600 C   0  0  0  0  0  2  0  0  0  0  0  0
  190.6060  176.7090  146.2680 C   0  0  0  0  0  0  0  0  0  0  0  0
  189.4860  177.6770  146.2380 C   0  0  0  0  0  0  0  0  0  0  0  0
  188.8480  178.0860  145.0660 O   0  0  0  0  0  0  0  0  0  0  0  0
  190.8430  176.0670  147.4390 F   0  0  0  0  0  0  0  0  0  0  0  0
  189.0860  177.4850  143.8060 C   0  0  0  0  0  0  0  0  0  0  0  0
  189.0650  178.1350  147.3330 O   0  0  0  0  0  0  0  0  0  0  0  0
  191.5110  177.0830  143.9220 C   0  0  0  0  0  3  0  0  0  0  0  0
  190.4650  177.5500  143.2400 C   0  0  0  0  0  0  0  0  0  0  0  0
  191.4860  176.5030  145.2790 C   0  0  0  0  0  3  0  0  0  0  0  0
  188.3170  176.2070  143.5620 C   0  0  0  0  0  2  0  0  0  0  0  0
  192.9110  176.3650  137.8160 C   0  0  0  0  0  2  0  0  0  0  0  0
  193.8890  175.3500  137.2460 C   0  0  0  0  0  2  0  0  0  0  0  0
  194.4800  175.8870  135.6140 S   0  0  0  0  0  0  0  0  0  0  0  0
  196.0200  174.9460  135.7850 C   0  0  0  0  0  1  0  0  0  0  0  0
  1  3  1  0  0  0  0
  3  4  1  0  0  0  0
  4 31  1  6  0  0  0
  4  6  1  0  0  0  0
  5  2  1  6  0  0  0
  5  1  1  0  0  0  0
  5  7  1  0  0  0  0
  6 17  1  1  0  0  0
  7  8  1  0  0  0  0
  7  6  1  0  0  0  0
  8  9  2  0  0  0  0
 10  8  2  0  0  0  0
 11 15  1  0  0  0  0
 12 16  2  0  0  0  0
 13 12  1  0  0  0  0
 13 11  2  0  0  0  0
 15 14  2  0  0  0  0
 15  8  1  0  0  0  0
 16 14  1  0  0  0  0
 17 18  1  0  0  0  0
 18 19  1  0  0  0  0
 19 28  1  0  0  0  0
 20 30  1  0  0  0  0
 20 25  1  0  0  0  0
 21 24  1  0  0  0  0
 22 21  1  0  0  0  0
 22 26  2  0  0  0  0
 23 22  1  0  0  0  0
 25 23  1  0  0  0  0
 27 29  1  0  0  0  0
 28 25  1  0  0  0  0
 28 27  2  0  0  0  0
 29 21  2  0  0  0  0
 30 25  1  0  0  0  0
 32 31  1  0  0  0  0
 33 34  1  0  0  0  0
 33 32  1  0  0  0  0
M  END
>  <MODEL>
3

>  <REMARK>
 VINA RESULT:      -7.1      2.588      4.796
  Name = 
  9 active torsions:
  status: ('A' for Active; 'I' for Inactive)
    1  A    between atoms: S_1  and  C_20
    2  A    between atoms: S_1  and  N_34
    3  A    between atoms: S_3  and  C_13
    4  A    between atoms: C_6  and  O_18
    5  A    between atoms: C_6  and  C_30
    6  A    between atoms: C_13  and  C_27
    7  A    between atoms: O_18  and  C_33
    8  A    between atoms: C_25  and  C_27
    9  A    between atoms: C_28  and  C_30
                            x       y       z     vdW  Elec       q    Type
                         _______ _______ _______ _____ _____    ______ ____

>  <TORSDO>
F 9

$$$$
=
 OpenBabel10272415173D

 34 37  0  0  1  0  0  0  0  0999 V2000
  189.2380  178.4960  136.6880 C   0  0  0  0  0  2  0  0  0  0  0  0
  187.0410  177.2880  136.4590 C   0  0  0  0  0  1  0  0  0  0  0  0
  188.9800  179.1600  138.0400 C   0  0  0  0  0  2  0  0  0  0  0  0
  189.0640  178.1800  139.2120 C   0  0  2  0  0  3  0  0  0  0  0  0
  188.5450  177.1300  136.5930 C   0  0  2  0  0  3  0  0  0  0  0  0
  189.6550  176.8230  138.7780 C   0  0  2  0  0  3  0  0  0  0  0  0
  188.8620  176.2020  137.6990 N   0  0  0  0  0  0  0  0  0  0  0  0
  189.7810  174.8920  137.0130 S   0  0  0  0  0  0  0  0  0  0  0  0
  189.3380  173.5870  137.6180 O   0  0  0  0  0  0  0  0  0  0  0  0
  189.5690  174.8350  135.5260 O   0  0  0  0  0  0  0  0  0  0  0  0
  192.0160  176.4260  137.4470 C   0  0  0  0  0  3  0  0  0  0  0  0
  194.2280  175.5030  137.7860 C   0  0  0  0  0  3  0  0  0  0  0  0
  193.3810  176.6100  137.6800 C   0  0  0  0  0  3  0  0  0  0  0  0
  192.3430  174.0270  137.4270 C   0  0  0  0  0  3  0  0  0  0  0  0
  191.4930  175.1340  137.3220 C   0  0  0  0  0  0  0  0  0  0  0  0
  193.7090  174.2110  137.6590 C   0  0  0  0  0  3  0  0  0  0  0  0
  189.7510  175.9590  139.8740 O   0  0  0  0  0  0  0  0  0  0  0  0
  190.4510  176.6820  140.8440 C   0  0  0  0  0  2  0  0  0  0  0  0
  190.4910  175.9070  142.1520 C   0  0  0  0  0  2  0  0  0  0  0  0
  191.7560  178.1680  143.7260 C   0  0  0  0  0  2  0  0  0  0  0  0
  187.8380  177.3900  145.6170 C   0  0  0  0  0  0  0  0  0  0  0  0
  189.1660  177.2810  146.2640 C   0  0  0  0  0  0  0  0  0  0  0  0
  190.3710  177.2660  145.5600 O   0  0  0  0  0  0  0  0  0  0  0  0
  186.8080  177.8300  146.3800 F   0  0  0  0  0  0  0  0  0  0  0  0
  190.4590  177.5300  144.1720 C   0  0  0  0  0  0  0  0  0  0  0  0
  189.2130  177.2300  147.5220 O   0  0  0  0  0  0  0  0  0  0  0  0
  188.4290  176.4130  143.3460 C   0  0  0  0  0  3  0  0  0  0  0  0
  189.7400  176.6230  143.2310 C   0  0  0  0  0  0  0  0  0  0  0  0
  187.5370  176.9710  144.3800 C   0  0  0  0  0  3  0  0  0  0  0  0
  190.4770  178.9980  143.8110 C   0  0  0  0  0  2  0  0  0  0  0  0
  187.6790  178.0350  139.8390 C   0  0  0  0  0  2  0  0  0  0  0  0
  187.5430  178.8830  141.0940 C   0  0  0  0  0  2  0  0  0  0  0  0
  185.8360  178.8250  141.7140 S   0  0  0  0  0  0  0  0  0  0  0  0
  185.1530  178.7910  140.0350 C   0  0  0  0  0  1  0  0  0  0  0  0
  1  3  1  0  0  0  0
  3  4  1  0  0  0  0
  4 31  1  6  0  0  0
  5  2  1  1  0  0  0
  5  1  1  0  0  0  0
  5  7  1  0  0  0  0
  6  4  1  0  0  0  0
  6 17  1  1  0  0  0
  7  6  1  0  0  0  0
  8 15  1  0  0  0  0
  8  9  2  0  0  0  0
  8  7  1  0  0  0  0
 10  8  2  0  0  0  0
 11 13  1  0  0  0  0
 13 12  2  0  0  0  0
 14 16  2  0  0  0  0
 15 14  1  0  0  0  0
 15 11  2  0  0  0  0
 16 12  1  0  0  0  0
 17 18  1  0  0  0  0
 18 19  1  0  0  0  0
 19 28  1  0  0  0  0
 20 30  1  0  0  0  0
 20 25  1  0  0  0  0
 21 22  1  0  0  0  0
 21 24  1  0  0  0  0
 22 26  2  0  0  0  0
 23 22  1  0  0  0  0
 25 23  1  0  0  0  0
 27 29  1  0  0  0  0
 28 27  2  0  0  0  0
 28 25  1  0  0  0  0
 29 21  2  0  0  0  0
 30 25  1  0  0  0  0
 31 32  1  0  0  0  0
 32 33  1  0  0  0  0
 34 33  1  0  0  0  0
M  END
>  <MODEL>
4

>  <REMARK>
 VINA RESULT:      -7.0      1.865      2.619
  Name = 
  9 active torsions:
  status: ('A' for Active; 'I' for Inactive)
    1  A    between atoms: S_1  and  C_20
    2  A    between atoms: S_1  and  N_34
    3  A    between atoms: S_3  and  C_13
    4  A    between atoms: C_6  and  O_18
    5  A    between atoms: C_6  and  C_30
    6  A    between atoms: C_13  and  C_27
    7  A    between atoms: O_18  and  C_33
    8  A    between atoms: C_25  and  C_27
    9  A    between atoms: C_28  and  C_30
                            x       y       z     vdW  Elec       q    Type
                         _______ _______ _______ _____ _____    ______ ____

>  <TORSDO>
F 9

$$$$
=
 OpenBabel10272415173D

 34 37  0  0  1  0  0  0  0  0999 V2000
  185.8700  175.8020  137.3170 C   0  0  0  0  0  2  0  0  0  0  0  0
  185.4690  177.6540  135.6600 C   0  0  0  0  0  1  0  0  0  0  0  0
  187.3880  175.7080  137.1750 C   0  0  0  0  0  2  0  0  0  0  0  0
  188.1240  176.8680  137.8510 C   0  0  2  0  0  3  0  0  0  0  0  0
  185.3750  177.2410  137.1180 C   0  0  2  0  0  3  0  0  0  0  0  0
  187.1780  177.6970  138.7430 C   0  0  2  0  0  3  0  0  0  0  0  0
  186.0420  178.2440  137.9750 N   0  0  0  0  0  0  0  0  0  0  0  0
  184.8430  178.8320  139.0920 S   0  0  0  0  0  0  0  0  0  0  0  0
  185.3290  178.6480  140.5040 O   0  0  0  0  0  0  0  0  0  0  0  0
  184.5860  180.2930  138.8530 O   0  0  0  0  0  0  0  0  0  0  0  0
  182.4020  178.3850  137.9190 C   0  0  0  0  0  3  0  0  0  0  0  0
  180.9260  176.5710  138.5470 C   0  0  0  0  0  3  0  0  0  0  0  0
  181.1990  177.6920  137.7570 C   0  0  0  0  0  3  0  0  0  0  0  0
  183.0600  176.8370  139.6600 C   0  0  0  0  0  3  0  0  0  0  0  0
  183.3360  177.9580  138.8690 C   0  0  0  0  0  0  0  0  0  0  0  0
  181.8560  176.1430  139.4990 C   0  0  0  0  0  3  0  0  0  0  0  0
  187.8830  178.7280  139.3740 O   0  0  0  0  0  0  0  0  0  0  0  0
  188.7440  178.0840  140.2670 C   0  0  0  0  0  2  0  0  0  0  0  0
  188.8540  178.8790  141.5590 C   0  0  0  0  0  2  0  0  0  0  0  0
  187.0710  177.2170  143.3610 C   0  0  0  0  0  2  0  0  0  0  0  0
  191.1510  176.9020  145.0310 C   0  0  0  0  0  0  0  0  0  0  0  0
  189.9580  177.4500  145.7170 C   0  0  0  0  0  0  0  0  0  0  0  0
  188.7710  177.7800  145.0600 O   0  0  0  0  0  0  0  0  0  0  0  0
  192.0480  176.2240  145.7890 F   0  0  0  0  0  0  0  0  0  0  0  0
  188.5240  177.4620  143.7030 C   0  0  0  0  0  0  0  0  0  0  0  0
  190.0050  177.5970  146.9670 O   0  0  0  0  0  0  0  0  0  0  0  0
  190.7410  177.8560  142.7110 C   0  0  0  0  0  3  0  0  0  0  0  0
  189.4220  178.0450  142.6640 C   0  0  0  0  0  0  0  0  0  0  0  0
  191.4870  177.1260  143.7530 C   0  0  0  0  0  3  0  0  0  0  0  0
  188.0470  176.0470  143.4650 C   0  0  0  0  0  2  0  0  0  0  0  0
  188.8050  177.7160  136.7810 C   0  0  0  0  0  2  0  0  0  0  0  0
  190.0800  177.0600  136.2760 C   0  0  0  0  0  2  0  0  0  0  0  0
  191.1270  176.5530  137.6730 S   0  0  0  0  0  0  0  0  0  0  0  0
  191.1740  174.8330  137.1040 C   0  0  0  0  0  1  0  0  0  0  0  0
  3  1  1  0  0  0  0
  3  4  1  0  0  0  0
  4 31  1  6  0  0  0
  4  6  1  0  0  0  0
  5  2  1  6  0  0  0
  5  1  1  0  0  0  0
  5  7  1  0  0  0  0
  6 17  1  6  0  0  0
  7  6  1  0  0  0  0
  7  8  1  0  0  0  0
  8  9  2  0  0  0  0
 10  8  2  0  0  0  0
 11 15  1  0  0  0  0
 12 16  2  0  0  0  0
 13 11  2  0  0  0  0
 13 12  1  0  0  0  0
 15  8  1  0  0  0  0
 15 14  2  0  0  0  0
 16 14  1  0  0  0  0
 17 18  1  0  0  0  0
 18 19  1  0  0  0  0
 19 28  1  0  0  0  0
 20 30  1  0  0  0  0
 20 25  1  0  0  0  0
 21 22  1  0  0  0  0
 21 24  1  0  0  0  0
 22 26  2  0  0  0  0
 23 22  1  0  0  0  0
 25 23  1  0  0  0  0
 27 29  1  0  0  0  0
 28 27  2  0  0  0  0
 28 25  1  0  0  0  0
 29 21  2  0  0  0  0
 30 25  1  0  0  0  0
 32 31  1  0  0  0  0
 32 33  1  0  0  0  0
 34 33  1  0  0  0  0
M  END
>  <MODEL>
5

>  <REMARK>
 VINA RESULT:      -6.9      2.841      5.353
  Name = 
  9 active torsions:
  status: ('A' for Active; 'I' for Inactive)
    1  A    between atoms: S_1  and  C_20
    2  A    between atoms: S_1  and  N_34
    3  A    between atoms: S_3  and  C_13
    4  A    between atoms: C_6  and  O_18
    5  A    between atoms: C_6  and  C_30
    6  A    between atoms: C_13  and  C_27
    7  A    between atoms: O_18  and  C_33
    8  A    between atoms: C_25  and  C_27
    9  A    between atoms: C_28  and  C_30
                            x       y       z     vdW  Elec       q    Type
                         _______ _______ _______ _____ _____    ______ ____

>  <TORSDO>
F 9

$$$$
=
 OpenBabel10272415173D

 34 37  0  0  1  0  0  0  0  0999 V2000
  188.7980  174.9950  136.2350 C   0  0  0  0  0  2  0  0  0  0  0  0
  190.2460  176.5390  134.8720 C   0  0  0  0  0  1  0  0  0  0  0  0
  189.7430  174.8030  137.4200 C   0  0  0  0  0  2  0  0  0  0  0  0
  189.8060  176.0260  138.3380 C   0  0  2  0  0  3  0  0  0  0  0  0
  188.9370  176.3980  135.6290 C   0  0  2  0  0  3  0  0  0  0  0  0
  188.7010  177.0480  138.0000 C   0  0  2  0  0  3  0  0  0  0  0  0
  188.7890  177.5040  136.5980 N   0  0  0  0  0  0  0  0  0  0  0  0
  187.3180  178.3400  136.1900 S   0  0  0  0  0  0  0  0  0  0  0  0
  187.3620  179.7430  136.7340 O   0  0  0  0  0  0  0  0  0  0  0  0
  187.1560  178.4040  134.6970 O   0  0  0  0  0  0  0  0  0  0  0  0
  185.2200  178.0390  137.9340 C   0  0  0  0  0  3  0  0  0  0  0  0
  183.7550  176.1110  137.9470 C   0  0  0  0  0  3  0  0  0  0  0  0
  184.1300  177.3500  138.4740 C   0  0  0  0  0  3  0  0  0  0  0  0
  185.5600  176.2490  136.3390 C   0  0  0  0  0  3  0  0  0  0  0  0
  185.9360  177.4900  136.8640 C   0  0  0  0  0  0  0  0  0  0  0  0
  184.4700  175.5600  136.8790 C   0  0  0  0  0  3  0  0  0  0  0  0
  188.7620  178.1390  138.8730 O   0  0  0  0  0  0  0  0  0  0  0  0
  188.2140  177.6730  140.0720 C   0  0  0  0  0  2  0  0  0  0  0  0
  187.5400  178.8120  140.8210 C   0  0  0  0  0  2  0  0  0  0  0  0
  184.5940  179.1630  141.4410 C   0  0  0  0  0  2  0  0  0  0  0  0
  186.4490  177.5700  145.1220 C   0  0  0  0  0  0  0  0  0  0  0  0
  185.7410  178.8640  144.9810 C   0  0  0  0  0  0  0  0  0  0  0  0
  185.4200  179.4400  143.7510 O   0  0  0  0  0  0  0  0  0  0  0  0
  186.3160  176.9130  146.3010 F   0  0  0  0  0  0  0  0  0  0  0  0
  185.5810  178.7660  142.5170 C   0  0  0  0  0  0  0  0  0  0  0  0
  185.3800  179.4620  146.0290 O   0  0  0  0  0  0  0  0  0  0  0  0
  187.6900  177.5590  142.9040 C   0  0  0  0  0  3  0  0  0  0  0  0
  186.9540  178.3410  142.1150 C   0  0  0  0  0  0  0  0  0  0  0  0
  187.3120  177.0540  144.2380 C   0  0  0  0  0  3  0  0  0  0  0  0
  184.4530  177.8240  142.1620 C   0  0  0  0  0  2  0  0  0  0  0  0
  191.2040  176.6360  138.2580 C   0  0  0  0  0  2  0  0  0  0  0  0
  192.2680  175.5670  138.0670 C   0  0  0  0  0  2  0  0  0  0  0  0
  193.4970  176.1100  136.8420 S   0  0  0  0  0  0  0  0  0  0  0  0
  194.5440  174.6620  137.1480 C   0  0  0  0  0  1  0  0  0  0  0  0
  1  3  1  0  0  0  0
  3  4  1  0  0  0  0
  4 31  1  6  0  0  0
  5  2  1  1  0  0  0
  5  1  1  0  0  0  0
  5  7  1  0  0  0  0
  6  4  1  0  0  0  0
  6 17  1  1  0  0  0
  7  6  1  0  0  0  0
  8  7  1  0  0  0  0
  8  9  2  0  0  0  0
  8 15  1  0  0  0  0
 10  8  2  0  0  0  0
 11 13  1  0  0  0  0
 12 13  2  0  0  0  0
 14 15  1  0  0  0  0
 14 16  2  0  0  0  0
 15 11  2  0  0  0  0
 16 12  1  0  0  0  0
 17 18  1  0  0  0  0
 18 19  1  0  0  0  0
 19 28  1  0  0  0  0
 20 30  1  0  0  0  0
 20 25  1  0  0  0  0
 21 24  1  0  0  0  0
 22 21  1  0  0  0  0
 22 26  2  0  0  0  0
 23 22  1  0  0  0  0
 25 23  1  0  0  0  0
 27 29  1  0  0  0  0
 28 25  1  0  0  0  0
 28 27  2  0  0  0  0
 29 21  2  0  0  0  0
 30 25  1  0  0  0  0
 32 31  1  0  0  0  0
 33 34  1  0  0  0  0
 33 32  1  0  0  0  0
M  END
>  <MODEL>
6

>  <REMARK>
 VINA RESULT:      -6.7      2.886      5.083
  Name = 
  9 active torsions:
  status: ('A' for Active; 'I' for Inactive)
    1  A    between atoms: S_1  and  C_20
    2  A    between atoms: S_1  and  N_34
    3  A    between atoms: S_3  and  C_13
    4  A    between atoms: C_6  and  O_18
    5  A    between atoms: C_6  and  C_30
    6  A    between atoms: C_13  and  C_27
    7  A    between atoms: O_18  and  C_33
    8  A    between atoms: C_25  and  C_27
    9  A    between atoms: C_28  and  C_30
                            x       y       z     vdW  Elec       q    Type
                         _______ _______ _______ _____ _____    ______ ____

>  <TORSDO>
F 9

$$$$
=
 OpenBabel10272415173D

 34 37  0  0  1  0  0  0  0  0999 V2000
  189.1210  176.6940  135.7530 C   0  0  0  0  0  2  0  0  0  0  0  0
  189.5740  174.6860  137.2030 C   0  0  0  0  0  1  0  0  0  0  0  0
  187.6730  176.3730  135.3850 C   0  0  0  0  0  2  0  0  0  0  0  0
  186.6950  176.6190  136.5360 C   0  0  2  0  0  3  0  0  0  0  0  0
  189.4630  176.2000  137.1650 C   0  0  2  0  0  3  0  0  0  0  0  0
  187.3630  177.3880  137.6940 C   0  0  2  0  0  3  0  0  0  0  0  0
  188.5400  176.6680  138.2210 N   0  0  0  0  0  0  0  0  0  0  0  0
  189.4450  177.7490  139.2420 S   0  0  0  0  0  0  0  0  0  0  0  0
  190.9090  177.6620  138.9030 O   0  0  0  0  0  0  0  0  0  0  0  0
  188.9820  179.1640  139.0370 O   0  0  0  0  0  0  0  0  0  0  0  0
  190.1330  176.5150  141.5950 C   0  0  0  0  0  3  0  0  0  0  0  0
  188.7940  176.6300  143.6090 C   0  0  0  0  0  3  0  0  0  0  0  0
  189.9290  176.1700  142.9340 C   0  0  0  0  0  3  0  0  0  0  0  0
  188.0700  177.7820  141.6060 C   0  0  0  0  0  3  0  0  0  0  0  0
  189.2050  177.3240  140.9290 C   0  0  0  0  0  0  0  0  0  0  0  0
  187.8640  177.4370  142.9450 C   0  0  0  0  0  3  0  0  0  0  0  0
  186.4390  177.6270  138.7180 O   0  0  0  0  0  0  0  0  0  0  0  0
  185.2750  178.0440  138.0630 C   0  0  0  0  0  2  0  0  0  0  0  0
  184.6710  179.2430  138.7770 C   0  0  0  0  0  2  0  0  0  0  0  0
  182.0150  177.7860  138.8380 C   0  0  0  0  0  2  0  0  0  0  0  0
  183.0230  178.6910  143.0450 C   0  0  0  0  0  0  0  0  0  0  0  0
  181.8270  179.1570  142.3060 C   0  0  0  0  0  0  0  0  0  0  0  0
  181.6950  179.0760  140.9180 O   0  0  0  0  0  0  0  0  0  0  0  0
  182.8710  178.4120  144.3630 F   0  0  0  0  0  0  0  0  0  0  0  0
  182.6120  178.3820  140.0930 C   0  0  0  0  0  0  0  0  0  0  0  0
  180.8630  179.6230  142.9680 O   0  0  0  0  0  0  0  0  0  0  0  0
  184.7460  178.9270  141.1910 C   0  0  0  0  0  3  0  0  0  0  0  0
  184.0320  178.8420  140.0690 C   0  0  0  0  0  0  0  0  0  0  0  0
  184.2710  178.6430  142.5580 C   0  0  0  0  0  3  0  0  0  0  0  0
  182.3860  176.8890  140.0180 C   0  0  0  0  0  2  0  0  0  0  0  0
  186.1120  175.2820  136.9870 C   0  0  0  0  0  2  0  0  0  0  0  0
  186.2260  174.2270  135.8980 C   0  0  0  0  0  2  0  0  0  0  0  0
  186.3380  172.5690  136.6330 S   0  0  0  0  0  0  0  0  0  0  0  0
  184.9040  172.8690  137.7010 C   0  0  0  0  0  1  0  0  0  0  0  0
  1  5  1  0  0  0  0
  3  1  1  0  0  0  0
  3  4  1  0  0  0  0
  4 31  1  1  0  0  0
  4  6  1  0  0  0  0
  5  2  1  6  0  0  0
  5  7  1  0  0  0  0
  6  7  1  0  0  0  0
  6 17  1  1  0  0  0
  7  8  1  0  0  0  0
  8 15  1  0  0  0  0
  9  8  2  0  0  0  0
 10  8  2  0  0  0  0
 11 13  1  0  0  0  0
 13 12  2  0  0  0  0
 14 16  2  0  0  0  0
 15 11  2  0  0  0  0
 15 14  1  0  0  0  0
 16 12  1  0  0  0  0
 18 17  1  0  0  0  0
 18 19  1  0  0  0  0
 19 28  1  0  0  0  0
 20 30  1  0  0  0  0
 20 25  1  0  0  0  0
 21 24  1  0  0  0  0
 22 26  2  0  0  0  0
 22 21  1  0  0  0  0
 23 22  1  0  0  0  0
 25 23  1  0  0  0  0
 27 29  1  0  0  0  0
 28 25  1  0  0  0  0
 28 27  2  0  0  0  0
 29 21  2  0  0  0  0
 30 25  1  0  0  0  0
 32 33  1  0  0  0  0
 32 31  1  0  0  0  0
 33 34  1  0  0  0  0
M  END
>  <MODEL>
7

>  <REMARK>
 VINA RESULT:      -6.7      3.285      6.532
  Name = 
  9 active torsions:
  status: ('A' for Active; 'I' for Inactive)
    1  A    between atoms: S_1  and  C_20
    2  A    between atoms: S_1  and  N_34
    3  A    between atoms: S_3  and  C_13
    4  A    between atoms: C_6  and  O_18
    5  A    between atoms: C_6  and  C_30
    6  A    between atoms: C_13  and  C_27
    7  A    between atoms: O_18  and  C_33
    8  A    between atoms: C_25  and  C_27
    9  A    between atoms: C_28  and  C_30
                            x       y       z     vdW  Elec       q    Type
                         _______ _______ _______ _____ _____    ______ ____

>  <TORSDO>
F 9

$$$$
=
 OpenBabel10272415173D

 34 37  0  0  1  0  0  0  0  0999 V2000
  189.6720  174.7770  136.3060 C   0  0  0  0  0  2  0  0  0  0  0  0
  190.6820  176.5650  134.8480 C   0  0  0  0  0  1  0  0  0  0  0  0
  190.9580  174.2840  136.9670 C   0  0  0  0  0  2  0  0  0  0  0  0
  191.4950  175.2520  138.0240 C   0  0  2  0  0  3  0  0  0  0  0  0
  189.7370  176.2800  136.0030 C   0  0  2  0  0  3  0  0  0  0  0  0
  190.4680  176.3530  138.3610 C   0  0  2  0  0  3  0  0  0  0  0  0
  190.0850  177.1270  137.1630 N   0  0  0  0  0  0  0  0  0  0  0  0
  188.6730  178.0740  137.5390 S   0  0  0  0  0  0  0  0  0  0  0  0
  188.2910  177.8690  138.9800 O   0  0  0  0  0  0  0  0  0  0  0  0
  188.9540  179.5330  137.3130 O   0  0  0  0  0  0  0  0  0  0  0  0
  187.2250  178.1140  135.2070 C   0  0  0  0  0  3  0  0  0  0  0  0
  185.1870  176.8500  134.8740 C   0  0  0  0  0  3  0  0  0  0  0  0
  186.1530  177.7400  134.3930 C   0  0  0  0  0  3  0  0  0  0  0  0
  186.3690  176.7080  136.9820 C   0  0  0  0  0  3  0  0  0  0  0  0
  187.3370  177.5970  136.5030 C   0  0  0  0  0  0  0  0  0  0  0  0
  185.2950  176.3340  136.1690 C   0  0  0  0  0  3  0  0  0  0  0  0
  190.9720  177.2030  139.3520 O   0  0  0  0  0  0  0  0  0  0  0  0
  190.7360  176.5330  140.5560 C   0  0  0  0  0  2  0  0  0  0  0  0
  191.3480  177.3040  141.7160 C   0  0  0  0  0  2  0  0  0  0  0  0
  192.0140  179.0470  144.1040 C   0  0  0  0  0  2  0  0  0  0  0  0
  187.8970  177.5800  144.7570 C   0  0  0  0  0  0  0  0  0  0  0  0
  189.0670  177.3400  145.6330 C   0  0  0  0  0  0  0  0  0  0  0  0
  190.3860  177.5850  145.2470 O   0  0  0  0  0  0  0  0  0  0  0  0
  186.6900  177.7310  145.3580 F   0  0  0  0  0  0  0  0  0  0  0  0
  190.7280  178.2530  144.0460 C   0  0  0  0  0  0  0  0  0  0  0  0
  188.8590  176.9210  146.8020 O   0  0  0  0  0  0  0  0  0  0  0  0
  189.0420  177.3460  142.5000 C   0  0  0  0  0  3  0  0  0  0  0  0
  190.3190  177.6350  142.7510 C   0  0  0  0  0  0  0  0  0  0  0  0
  187.9030  177.5340  143.4180 C   0  0  0  0  0  3  0  0  0  0  0  0
  190.6640  179.7610  144.1230 C   0  0  0  0  0  2  0  0  0  0  0  0
  192.8250  175.8270  137.5420 C   0  0  0  0  0  2  0  0  0  0  0  0
  193.5060  174.9000  136.5480 C   0  0  0  0  0  2  0  0  0  0  0  0
  195.2620  174.6990  136.9720 S   0  0  0  0  0  0  0  0  0  0  0  0
  194.9040  173.3220  138.0960 C   0  0  0  0  0  1  0  0  0  0  0  0
  1  3  1  0  0  0  0
  3  4  1  0  0  0  0
  4 31  1  6  0  0  0
  4  6  1  0  0  0  0
  5  2  1  6  0  0  0
  5  1  1  0  0  0  0
  5  7  1  0  0  0  0
  6 17  1  1  0  0  0
  7  8  1  0  0  0  0
  7  6  1  0  0  0  0
  8  9  2  0  0  0  0
 10  8  2  0  0  0  0
 11 15  1  0  0  0  0
 12 16  2  0  0  0  0
 13 12  1  0  0  0  0
 13 11  2  0  0  0  0
 15 14  2  0  0  0  0
 15  8  1  0  0  0  0
 16 14  1  0  0  0  0
 17 18  1  0  0  0  0
 18 19  1  0  0  0  0
 19 28  1  0  0  0  0
 20 30  1  0  0  0  0
 21 24  1  0  0  0  0
 21 22  1  0  0  0  0
 22 26  2  0  0  0  0
 23 22  1  0  0  0  0
 25 20  1  0  0  0  0
 25 30  1  0  0  0  0
 25 23  1  0  0  0  0
 27 28  2  0  0  0  0
 27 29  1  0  0  0  0
 28 25  1  0  0  0  0
 29 21  2  0  0  0  0
 32 33  1  0  0  0  0
 32 31  1  0  0  0  0
 33 34  1  0  0  0  0
M  END
>  <MODEL>
8

>  <REMARK>
 VINA RESULT:      -6.6      2.373      4.514
  Name = 
  9 active torsions:
  status: ('A' for Active; 'I' for Inactive)
    1  A    between atoms: S_1  and  C_20
    2  A    between atoms: S_1  and  N_34
    3  A    between atoms: S_3  and  C_13
    4  A    between atoms: C_6  and  O_18
    5  A    between atoms: C_6  and  C_30
    6  A    between atoms: C_13  and  C_27
    7  A    between atoms: O_18  and  C_33
    8  A    between atoms: C_25  and  C_27
    9  A    between atoms: C_28  and  C_30
                            x       y       z     vdW  Elec       q    Type
                         _______ _______ _______ _____ _____    ______ ____

>  <TORSDO>
F 9

$$$$
=
 OpenBabel10272415173D

 34 37  0  0  1  0  0  0  0  0999 V2000
  190.5140  175.9190  140.1730 C   0  0  0  0  0  2  0  0  0  0  0  0
  192.0630  177.8900  139.9440 C   0  0  0  0  0  1  0  0  0  0  0  0
  190.0530  176.1710  141.6080 C   0  0  0  0  0  2  0  0  0  0  0  0
  189.0630  177.3330  141.7210 C   0  0  2  0  0  3  0  0  0  0  0  0
  190.7920  177.2340  139.4340 C   0  0  2  0  0  3  0  0  0  0  0  0
  188.5610  177.7890  140.3360 C   0  0  2  0  0  3  0  0  0  0  0  0
  189.6750  178.2020  139.4600 N   0  0  0  0  0  0  0  0  0  0  0  0
  189.0830  178.3350  137.8280 S   0  0  0  0  0  0  0  0  0  0  0  0
  188.7070  179.7640  137.5380 O   0  0  0  0  0  0  0  0  0  0  0  0
  190.1450  177.9050  136.8560 O   0  0  0  0  0  0  0  0  0  0  0  0
  187.8280  175.9140  137.5150 C   0  0  0  0  0  3  0  0  0  0  0  0
  185.4350  175.6710  137.2410 C   0  0  0  0  0  3  0  0  0  0  0  0
  186.7070  175.0990  137.3300 C   0  0  0  0  0  3  0  0  0  0  0  0
  186.4040  177.8720  137.5220 C   0  0  0  0  0  3  0  0  0  0  0  0
  187.6790  177.3020  137.6130 C   0  0  0  0  0  0  0  0  0  0  0  0
  185.2830  177.0580  137.3370 C   0  0  0  0  0  3  0  0  0  0  0  0
  187.6340  178.8280  140.4720 O   0  0  0  0  0  0  0  0  0  0  0  0
  186.4780  178.2190  140.9690 C   0  0  0  0  0  2  0  0  0  0  0  0
  185.7160  179.1860  141.8620 C   0  0  0  0  0  2  0  0  0  0  0  0
  183.3490  179.7770  143.6600 C   0  0  0  0  0  2  0  0  0  0  0  0
  186.3770  177.8130  146.2110 C   0  0  0  0  0  0  0  0  0  0  0  0
  185.8190  179.1730  146.3940 C   0  0  0  0  0  0  0  0  0  0  0  0
  185.0820  179.8450  145.4170 O   0  0  0  0  0  0  0  0  0  0  0  0
  186.6730  177.1060  147.3290 F   0  0  0  0  0  0  0  0  0  0  0  0
  184.6430  179.2290  144.2200 C   0  0  0  0  0  0  0  0  0  0  0  0
  185.9920  179.7430  147.5030 O   0  0  0  0  0  0  0  0  0  0  0  0
  186.5780  177.8100  143.6770 C   0  0  0  0  0  3  0  0  0  0  0  0
  185.6710  178.7000  143.2760 C   0  0  0  0  0  0  0  0  0  0  0  0
  186.7340  177.2680  145.0400 C   0  0  0  0  0  3  0  0  0  0  0  0
  183.3740  178.4180  144.3580 C   0  0  0  0  0  2  0  0  0  0  0  0
  189.7170  178.4690  142.5040 C   0  0  0  0  0  2  0  0  0  0  0  0
  190.9330  177.9850  143.2790 C   0  0  0  0  0  2  0  0  0  0  0  0
  190.5540  177.8880  145.0540 S   0  0  0  0  0  0  0  0  0  0  0  0
  191.6000  176.4220  145.2680 C   0  0  0  0  0  1  0  0  0  0  0  0
  1  3  1  0  0  0  0
  3  4  1  0  0  0  0
  4 31  1  6  0  0  0
  5  7  1  0  0  0  0
  5  2  1  1  0  0  0
  5  1  1  0  0  0  0
  6 17  1  1  0  0  0
  6  4  1  0  0  0  0
  7  6  1  0  0  0  0
  8  7  1  0  0  0  0
  9  8  2  0  0  0  0
 10  8  2  0  0  0  0
 11 15  1  0  0  0  0
 12 13  1  0  0  0  0
 12 16  2  0  0  0  0
 13 11  2  0  0  0  0
 14 15  2  0  0  0  0
 15  8  1  0  0  0  0
 16 14  1  0  0  0  0
 17 18  1  0  0  0  0
 18 19  1  0  0  0  0
 19 28  1  0  0  0  0
 20 25  1  0  0  0  0
 20 30  1  0  0  0  0
 21 22  1  0  0  0  0
 21 24  1  0  0  0  0
 22 26  2  0  0  0  0
 23 22  1  0  0  0  0
 25 30  1  0  0  0  0
 25 23  1  0  0  0  0
 27 29  1  0  0  0  0
 28 27  2  0  0  0  0
 28 25  1  0  0  0  0
 29 21  2  0  0  0  0
 31 32  1  0  0  0  0
 32 33  1  0  0  0  0
 33 34  1  0  0  0  0
M  END
>  <MODEL>
9

>  <REMARK>
 VINA RESULT:      -6.6      2.762      4.690
  Name = 
  9 active torsions:
  status: ('A' for Active; 'I' for Inactive)
    1  A    between atoms: S_1  and  C_20
    2  A    between atoms: S_1  and  N_34
    3  A    between atoms: S_3  and  C_13
    4  A    between atoms: C_6  and  O_18
    5  A    between atoms: C_6  and  C_30
    6  A    between atoms: C_13  and  C_27
    7  A    between atoms: O_18  and  C_33
    8  A    between atoms: C_25  and  C_27
    9  A    between atoms: C_28  and  C_30
                            x       y       z     vdW  Elec       q    Type
                         _______ _______ _______ _____ _____    ______ ____

>  <TORSDO>
F 9

$$$$
