=
 OpenBabel10272401273D

 55 60  0  0  1  0  0  0  0  0999 V2000
  191.0890  176.9350  138.5010 C   0  0  1  0  0  3  0  0  0  0  0  0
  192.1360  175.9240  138.0490 C   0  0  0  0  0  2  0  0  0  0  0  0
  193.4580  176.5210  137.9780 N   0  0  0  0  0  2  0  0  0  0  0  0
  193.0360  175.8830  135.4470 O   0  0  0  0  0  0  0  0  0  0  0  0
  194.1450  176.2050  136.4140 S   0  0  0  0  0  0  0  0  0  0  0  0
  194.8530  177.4460  135.9430 O   0  0  0  0  0  0  0  0  0  0  0  0
  196.2780  171.7950  137.9190 O   0  0  0  0  0  1  0  0  0  0  0  0
  195.3220  174.8480  136.4580 C   0  0  1  0  0  0  0  0  0  0  0  0
  195.0110  173.9390  135.4210 O   0  0  0  0  0  0  0  0  0  0  0  0
  195.3640  172.6490  135.8760 C   0  0  2  0  0  3  0  0  0  0  0  0
  194.1940  171.9620  136.5650 C   0  0  1  0  0  0  0  0  0  0  0  0
  195.2810  172.6280  137.3970 C   0  0  1  0  0  0  0  0  0  0  0  0
  196.6170  175.3440  136.2520 O   0  0  0  0  0  1  0  0  0  0  0  0
  192.9570  172.6290  136.4850 O   0  0  0  0  0  1  0  0  0  0  0  0
  195.2100  174.0920  137.7840 C   0  0  1  0  0  3  0  0  0  0  0  0
  196.2010  174.5280  138.8410 C   0  0  0  0  0  0  0  0  0  0  0  0
  195.8070  175.0570  139.9160 O   0  0  0  0  0  1  0  0  0  0  0  0
  197.5450  174.2220  138.6710 O   0  0  0  0  0  0  0  0  0  0  0  0
  194.2420  170.5500  136.4810 O   0  0  0  0  0  0  0  0  0  0  0  0
  193.4050  170.1220  135.4440 C   0  0  0  0  0  1  0  0  0  0  0  0
  189.6730  176.3660  138.2820 C   0  0  0  0  0  2  0  0  0  0  0  0
  188.7650  177.3530  137.7030 N   0  0  0  0  0  2  0  0  0  0  0  0
  186.5040  178.9490  137.2660 O   0  0  0  0  0  0  0  0  0  0  0  0
  185.3080  177.9860  139.0250 N   0  0  0  0  0  2  0  0  0  0  0  0
  187.6130  177.2980  138.4930 N   0  0  0  0  0  2  0  0  0  0  0  0
  186.4790  178.1300  138.2210 C   0  0  0  0  0  0  0  0  0  0  0  0
  184.4960  179.1170  139.4520 C   0  0  2  0  0  3  0  0  0  0  0  0
  182.7280  178.7660  142.7890 N   0  0  0  0  0  0  0  0  0  0  0  0
  185.9470  179.0670  144.2470 O   0  0  0  0  0  0  0  0  0  0  0  0
  182.9490  178.8710  141.4460 C   0  0  0  0  0  3  0  0  0  0  0  0
  185.3370  179.1450  141.8400 C   0  0  0  0  0  0  0  0  0  0  0  0
  183.7810  178.8330  143.6440 C   0  0  0  0  0  0  0  0  0  0  0  0
  186.6130  179.3240  141.4080 F   0  0  0  0  0  0  0  0  0  0  0  0
  183.7530  178.7850  145.1230 C   0  0  0  0  0  2  0  0  0  0  0  0
  185.2510  178.9180  145.4860 C   0  0  1  0  0  3  0  0  0  0  0  0
  184.2600  179.0570  140.9360 C   0  0  0  0  0  0  0  0  0  0  0  0
  185.0540  179.0210  143.1990 C   0  0  0  0  0  0  0  0  0  0  0  0
  185.7470  177.6760  146.2190 C   0  0  0  0  0  2  0  0  0  0  0  0
  187.1030  177.9100  146.7920 C   0  0  0  0  0  0  0  0  0  0  0  0
  187.2270  178.5340  147.8780 O   0  0  0  0  0  0  0  0  0  0  0  0
  188.2620  177.4470  146.1050 N   0  0  0  0  0  1  0  0  0  0  0  0
  182.8100  178.1430  137.8980 C   0  0  0  0  0  3  0  0  0  0  0  0
  181.6730  178.2500  137.0920 C   0  0  0  0  0  3  0  0  0  0  0  0
  182.4770  180.4250  138.6580 C   0  0  0  0  0  3  0  0  0  0  0  0
  181.3390  180.5270  137.8460 C   0  0  0  0  0  3  0  0  0  0  0  0
  180.9440  179.4430  137.0550 C   0  0  0  0  0  3  0  0  0  0  0  0
  183.2190  179.2290  138.6810 C   0  0  0  0  0  0  0  0  0  0  0  0
  191.3600  177.3160  139.9580 C   0  0  0  0  0  2  0  0  0  0  0  0
  190.2770  176.8230  140.9200 C   0  0  0  0  0  2  0  0  0  0  0  0
  191.5990  177.4500  144.9320 C   0  0  0  0  0  3  0  0  0  0  0  0
  190.6960  177.0420  142.3380 C   0  0  0  0  0  0  0  0  0  0  0  0
  190.8320  178.3070  142.8350 N   0  0  0  0  0  0  0  0  0  0  0  0
  191.4420  176.1510  144.4480 C   0  0  0  0  0  3  0  0  0  0  0  0
  191.2710  178.5310  144.1000 C   0  0  0  0  0  3  0  0  0  0  0  0
  190.9840  175.9420  143.1490 C   0  0  0  0  0  3  0  0  0  0  0  0
  1  2  1  1  0  0  0
  1 48  1  0  0  0  0
  3  2  1  0  0  0  0
  4  5  2  0  0  0  0
  5  8  1  0  0  0  0
  5  3  1  0  0  0  0
  6  5  2  0  0  0  0
  8 13  1  6  0  0  0
  8 15  1  0  0  0  0
  9  8  1  0  0  0  0
 10  9  1  6  0  0  0
 10 11  1  0  0  0  0
 10 12  1  0  0  0  0
 11 14  1  6  0  0  0
 11 12  1  0  0  0  0
 12 15  1  0  0  0  0
 12  7  1  1  0  0  0
 15 16  1  1  0  0  0
 16 17  1  0  0  0  0
 18 16  2  0  0  0  0
 19 11  1  0  0  0  0
 20 19  1  0  0  0  0
 21  1  1  0  0  0  0
 22 21  1  0  0  0  0
 22 25  1  0  0  0  0
 23 26  2  0  0  0  0
 26 25  1  0  0  0  0
 26 24  1  0  0  0  0
 27 24  1  6  0  0  0
 27 36  1  0  0  0  0
 28 32  1  0  0  0  0
 29 35  1  0  0  0  0
 30 28  2  0  0  0  0
 31 37  1  0  0  0  0
 32 34  1  0  0  0  0
 33 31  1  0  0  0  0
 34 35  1  0  0  0  0
 35 38  1  6  0  0  0
 36 30  1  0  0  0  0
 36 31  2  0  0  0  0
 37 32  2  0  0  0  0
 37 29  1  0  0  0  0
 38 39  1  0  0  0  0
 39 40  2  0  0  0  0
 41 39  1  0  0  0  0
 42 47  1  0  0  0  0
 43 42  2  0  0  0  0
 44 47  2  0  0  0  0
 45 44  1  0  0  0  0
 46 43  1  0  0  0  0
 46 45  2  0  0  0  0
 47 27  1  0  0  0  0
 48 49  1  0  0  0  0
 49 51  1  0  0  0  0
 51 52  2  0  0  0  0
 51 55  1  0  0  0  0
 52 54  1  0  0  0  0
 53 50  1  0  0  0  0
 54 50  2  0  0  0  0
 55 53  2  0  0  0  0
M  END
>  <MODEL>
1

>  <REMARK>
 VINA RESULT:      -8.4      0.000      0.000
  Name = 
  17 active torsions:
  status: ('A' for Active; 'I' for Inactive)
    1  A    between atoms: C_1  and  C_53
    2  A    between atoms: N_4  and  C_35
    3  A    between atoms: N_4  and  N_37
    4  A    between atoms: C_6  and  S_20
    5  A    between atoms: C_8  and  N_22
    6  A    between atoms: C_8  and  C_43
    7  A    between atoms: C_10  and  C_32
    8  A    between atoms: O_11  and  C_29
    9  A    between atoms: N_19  and  C_45
   10  A    between atoms: S_20  and  N_22
   11  A    between atoms: C_26  and  C_45
   12  A    between atoms: C_27  and  C_51
   13  A    between atoms: C_32  and  C_48
   14  A    between atoms: C_35  and  C_43
   15  A    between atoms: C_43  and  C_54
   16  A    between atoms: C_45  and  C_49
   17  A    between atoms: C_51  and  C_54
                            x       y       z     vdW  Elec       q    Type
                         _______ _______ _______ _____ _____    ______ ____

>  <TORSDO>
F 17

$$$$
=
 OpenBabel10272401273D

 55 60  0  0  1  0  0  0  0  0999 V2000
  184.0740  178.3310  144.3610 C   0  0  1  0  0  3  0  0  0  0  0  0
  182.6970  178.8400  143.9520 C   0  0  0  0  0  2  0  0  0  0  0  0
  182.6680  179.2310  142.5530 N   0  0  0  0  0  2  0  0  0  0  0  0
  180.3580  177.9440  142.5310 O   0  0  0  0  0  0  0  0  0  0  0  0
  181.0290  179.1740  141.9790 S   0  0  0  0  0  0  0  0  0  0  0  0
  180.3020  180.3900  142.4860 O   0  0  0  0  0  0  0  0  0  0  0  0
  182.3350  178.0180  137.1610 O   0  0  0  0  0  1  0  0  0  0  0  0
  180.9440  179.1550  140.1850 C   0  0  1  0  0  0  0  0  0  0  0  0
  179.9820  178.2010  139.7820 O   0  0  0  0  0  0  0  0  0  0  0  0
  180.4160  177.6640  138.5490 C   0  0  2  0  0  3  0  0  0  0  0  0
  181.2740  176.4240  138.7530 C   0  0  1  0  0  0  0  0  0  0  0  0
  181.9340  177.7680  138.4780 C   0  0  1  0  0  0  0  0  0  0  0  0
  180.5530  180.4180  139.7200 O   0  0  0  0  0  1  0  0  0  0  0  0
  181.3470  175.9390  140.0730 O   0  0  0  0  0  1  0  0  0  0  0  0
  182.2920  178.7290  139.5960 C   0  0  1  0  0  3  0  0  0  0  0  0
  183.1930  179.8760  139.1950 C   0  0  0  0  0  0  0  0  0  0  0  0
  182.7270  180.8840  138.5970 O   0  0  0  0  0  0  0  0  0  0  0  0
  184.5200  179.8660  139.6070 O   0  0  0  0  0  1  0  0  0  0  0  0
  181.2180  175.5170  137.6690 O   0  0  0  0  0  0  0  0  0  0  0  0
  180.5240  174.3690  138.0640 C   0  0  0  0  0  1  0  0  0  0  0  0
  185.1470  178.8640  143.3920 C   0  0  0  0  0  2  0  0  0  0  0  0
  185.9000  177.7880  142.7550 N   0  0  0  0  0  2  0  0  0  0  0  0
  188.1980  176.4570  141.8590 O   0  0  0  0  0  0  0  0  0  0  0  0
  189.1200  178.3840  140.9160 N   0  0  0  0  0  2  0  0  0  0  0  0
  186.9540  178.4220  142.0900 N   0  0  0  0  0  2  0  0  0  0  0  0
  188.1040  177.6930  141.6440 C   0  0  0  0  0  0  0  0  0  0  0  0
  190.5400  178.1190  141.0960 C   0  0  2  0  0  3  0  0  0  0  0  0
  190.5710  175.4370  138.4140 N   0  0  0  0  0  0  0  0  0  0  0  0
  193.9860  176.2780  137.9580 O   0  0  0  0  0  0  0  0  0  0  0  0
  190.1470  176.2570  139.4190 C   0  0  0  0  0  3  0  0  0  0  0  0
  192.3700  177.2390  139.5830 C   0  0  0  0  0  0  0  0  0  0  0  0
  191.8570  175.5180  137.9860 C   0  0  0  0  0  0  0  0  0  0  0  0
  193.2640  178.1060  140.1290 F   0  0  0  0  0  0  0  0  0  0  0  0
  192.5220  174.6980  136.9480 C   0  0  0  0  0  2  0  0  0  0  0  0
  193.9590  175.2710  136.9450 C   0  0  1  0  0  3  0  0  0  0  0  0
  191.0340  177.1840  140.0270 C   0  0  0  0  0  0  0  0  0  0  0  0
  192.7450  176.3860  138.5470 C   0  0  0  0  0  0  0  0  0  0  0  0
  194.2980  175.8830  135.5900 C   0  0  0  0  0  2  0  0  0  0  0  0
  195.5270  176.7230  135.6850 C   0  0  0  0  0  0  0  0  0  0  0  0
  196.6270  176.1940  135.9900 O   0  0  0  0  0  0  0  0  0  0  0  0
  195.4560  178.1260  135.4520 N   0  0  0  0  0  1  0  0  0  0  0  0
  190.8860  178.5440  143.5260 C   0  0  0  0  0  3  0  0  0  0  0  0
  191.2760  178.1320  144.8040 C   0  0  0  0  0  3  0  0  0  0  0  0
  191.2290  176.2860  142.7030 C   0  0  0  0  0  3  0  0  0  0  0  0
  191.6220  175.8790  143.9840 C   0  0  0  0  0  3  0  0  0  0  0  0
  191.6560  176.8050  145.0330 C   0  0  0  0  0  3  0  0  0  0  0  0
  190.8630  177.6240  142.4700 C   0  0  0  0  0  0  0  0  0  0  0  0
  184.3380  178.7220  145.8170 C   0  0  0  0  0  2  0  0  0  0  0  0
  185.6510  179.4840  146.0060 C   0  0  0  0  0  2  0  0  0  0  0  0
  188.6680  177.0830  147.8430 C   0  0  0  0  0  3  0  0  0  0  0  0
  186.6750  178.6110  146.6590 C   0  0  0  0  0  0  0  0  0  0  0  0
  186.9470  178.7380  147.9910 N   0  0  0  0  0  0  0  0  0  0  0  0
  188.3850  176.9250  146.4860 C   0  0  0  0  0  3  0  0  0  0  0  0
  187.9170  178.0000  148.5930 C   0  0  0  0  0  3  0  0  0  0  0  0
  187.3820  177.6850  145.8900 C   0  0  0  0  0  3  0  0  0  0  0  0
  1 21  1  6  0  0  0
  1 48  1  0  0  0  0
  2  1  1  0  0  0  0
  3  2  1  0  0  0  0
  5  6  2  0  0  0  0
  5  4  2  0  0  0  0
  5  3  1  0  0  0  0
  8 13  1  6  0  0  0
  8  5  1  0  0  0  0
  9  8  1  0  0  0  0
 10 11  1  0  0  0  0
 10  9  1  1  0  0  0
 11 14  1  1  0  0  0
 12  7  1  6  0  0  0
 12 10  1  0  0  0  0
 12 11  1  0  0  0  0
 12 15  1  0  0  0  0
 15 16  1  6  0  0  0
 15  8  1  0  0  0  0
 16 18  1  0  0  0  0
 17 16  2  0  0  0  0
 19 20  1  0  0  0  0
 19 11  1  0  0  0  0
 22 21  1  0  0  0  0
 24 26  1  0  0  0  0
 25 22  1  0  0  0  0
 26 23  2  0  0  0  0
 26 25  1  0  0  0  0
 27 24  1  1  0  0  0
 27 47  1  0  0  0  0
 28 30  1  0  0  0  0
 29 37  1  0  0  0  0
 30 36  2  0  0  0  0
 31 36  1  0  0  0  0
 31 33  1  0  0  0  0
 32 28  2  0  0  0  0
 32 37  1  0  0  0  0
 34 32  1  0  0  0  0
 35 38  1  6  0  0  0
 35 34  1  0  0  0  0
 35 29  1  0  0  0  0
 36 27  1  0  0  0  0
 37 31  2  0  0  0  0
 38 39  1  0  0  0  0
 39 40  2  0  0  0  0
 41 39  1  0  0  0  0
 42 43  1  0  0  0  0
 43 46  2  0  0  0  0
 44 45  2  0  0  0  0
 45 46  1  0  0  0  0
 47 44  1  0  0  0  0
 47 42  2  0  0  0  0
 48 49  1  0  0  0  0
 49 51  1  0  0  0  0
 50 54  1  0  0  0  0
 51 52  1  0  0  0  0
 52 54  2  0  0  0  0
 53 50  2  0  0  0  0
 55 53  1  0  0  0  0
 55 51  2  0  0  0  0
M  END
>  <MODEL>
2

>  <REMARK>
 VINA RESULT:      -8.2      3.613     11.364
  Name = 
  17 active torsions:
  status: ('A' for Active; 'I' for Inactive)
    1  A    between atoms: C_1  and  C_53
    2  A    between atoms: N_4  and  C_35
    3  A    between atoms: N_4  and  N_37
    4  A    between atoms: C_6  and  S_20
    5  A    between atoms: C_8  and  N_22
    6  A    between atoms: C_8  and  C_43
    7  A    between atoms: C_10  and  C_32
    8  A    between atoms: O_11  and  C_29
    9  A    between atoms: N_19  and  C_45
   10  A    between atoms: S_20  and  N_22
   11  A    between atoms: C_26  and  C_45
   12  A    between atoms: C_27  and  C_51
   13  A    between atoms: C_32  and  C_48
   14  A    between atoms: C_35  and  C_43
   15  A    between atoms: C_43  and  C_54
   16  A    between atoms: C_45  and  C_49
   17  A    between atoms: C_51  and  C_54
                            x       y       z     vdW  Elec       q    Type
                         _______ _______ _______ _____ _____    ______ ____

>  <TORSDO>
F 17

$$$$
=
 OpenBabel10272401273D

 55 60  0  0  1  0  0  0  0  0999 V2000
  189.6860  176.5450  138.5700 C   0  0  1  0  0  3  0  0  0  0  0  0
  190.1770  177.5400  139.6150 C   0  0  0  0  0  2  0  0  0  0  0  0
  189.4730  177.3800  140.8760 N   0  0  0  0  0  2  0  0  0  0  0  0
  190.5150  175.4720  142.3800 O   0  0  0  0  0  0  0  0  0  0  0  0
  190.6130  176.9510  142.1150 S   0  0  0  0  0  0  0  0  0  0  0  0
  191.9980  177.2640  141.6190 O   0  0  0  0  0  0  0  0  0  0  0  0
  189.3550  177.7480  147.0180 O   0  0  0  0  0  1  0  0  0  0  0  0
  190.3240  177.8570  143.6390 C   0  0  1  0  0  0  0  0  0  0  0  0
  191.5620  178.0730  144.2860 O   0  0  0  0  0  0  0  0  0  0  0  0
  191.3140  178.0670  145.6760 C   0  0  2  0  0  3  0  0  0  0  0  0
  191.4710  176.6720  146.2640 C   0  0  1  0  0  0  0  0  0  0  0  0
  190.0830  177.2120  145.9490 C   0  0  1  0  0  0  0  0  0  0  0  0
  189.7450  179.0990  143.3430 O   0  0  0  0  0  1  0  0  0  0  0  0
  191.9850  175.6940  145.3920 O   0  0  0  0  0  1  0  0  0  0  0  0
  189.4450  177.0350  144.5860 C   0  0  1  0  0  3  0  0  0  0  0  0
  187.9700  177.3640  144.5170 C   0  0  0  0  0  0  0  0  0  0  0  0
  187.4500  178.1730  145.3340 O   0  0  0  0  0  1  0  0  0  0  0  0
  187.2160  176.8630  143.4630 O   0  0  0  0  0  0  0  0  0  0  0  0
  191.8540  176.6760  147.6260 O   0  0  0  0  0  0  0  0  0  0  0  0
  192.6880  175.5810  147.8730 C   0  0  0  0  0  1  0  0  0  0  0  0
  188.3880  177.0580  137.9170 C   0  0  0  0  0  2  0  0  0  0  0  0
  188.2480  178.5070  138.0300 N   0  0  0  0  0  2  0  0  0  0  0  0
  186.1840  178.4850  139.9250 O   0  0  0  0  0  0  0  0  0  0  0  0
  184.5540  179.0940  138.3660 N   0  0  0  0  0  2  0  0  0  0  0  0
  186.9100  178.7710  137.7220 N   0  0  0  0  0  2  0  0  0  0  0  0
  185.8930  178.7560  138.7310 C   0  0  0  0  0  0  0  0  0  0  0  0
  183.3900  178.4120  138.9130 C   0  0  2  0  0  3  0  0  0  0  0  0
  182.9760  176.2320  135.8370 N   0  0  0  0  0  0  0  0  0  0  0  0
  181.5290  173.8450  138.0250 O   0  0  0  0  0  0  0  0  0  0  0  0
  183.2810  177.2930  136.6390 C   0  0  0  0  0  3  0  0  0  0  0  0
  182.3900  176.1110  138.5730 C   0  0  0  0  0  0  0  0  0  0  0  0
  182.4060  175.1260  136.3820 C   0  0  0  0  0  0  0  0  0  0  0  0
  182.0970  176.0220  139.8980 F   0  0  0  0  0  0  0  0  0  0  0  0
  181.9640  173.8970  135.6860 C   0  0  0  0  0  2  0  0  0  0  0  0
  181.4020  173.0440  136.8490 C   0  0  1  0  0  3  0  0  0  0  0  0
  183.0000  177.2580  138.0300 C   0  0  0  0  0  0  0  0  0  0  0  0
  182.1120  175.0540  137.7090 C   0  0  0  0  0  0  0  0  0  0  0  0
  182.1930  171.7500  137.0080 C   0  0  0  0  0  2  0  0  0  0  0  0
  183.6270  171.9650  136.6590 C   0  0  0  0  0  0  0  0  0  0  0  0
  184.4110  172.4650  137.5070 O   0  0  0  0  0  0  0  0  0  0  0  0
  184.1090  171.6240  135.3630 N   0  0  0  0  0  1  0  0  0  0  0  0
  182.1310  180.4930  138.3720 C   0  0  0  0  0  3  0  0  0  0  0  0
  181.1290  181.4300  138.6420 C   0  0  0  0  0  3  0  0  0  0  0  0
  181.3440  179.1320  140.2230 C   0  0  0  0  0  3  0  0  0  0  0  0
  180.3440  180.0760  140.4900 C   0  0  0  0  0  3  0  0  0  0  0  0
  180.2430  181.2300  139.7060 C   0  0  0  0  0  3  0  0  0  0  0  0
  182.2450  179.3420  139.1620 C   0  0  0  0  0  0  0  0  0  0  0  0
  190.8050  176.2920  137.5570 C   0  0  0  0  0  2  0  0  0  0  0  0
  192.2030  176.4860  138.1450 C   0  0  0  0  0  2  0  0  0  0  0  0
  194.8350  173.4700  136.6570 C   0  0  0  0  0  3  0  0  0  0  0  0
  193.1280  175.4130  137.6670 C   0  0  0  0  0  0  0  0  0  0  0  0
  194.4790  175.6130  137.6600 N   0  0  0  0  0  0  0  0  0  0  0  0
  193.4600  173.2410  136.6810 C   0  0  0  0  0  3  0  0  0  0  0  0
  195.3340  174.6770  137.1720 C   0  0  0  0  0  3  0  0  0  0  0  0
  192.6000  174.2100  137.1920 C   0  0  0  0  0  3  0  0  0  0  0  0
  1 48  1  6  0  0  0
  1  2  1  0  0  0  0
  2  3  1  0  0  0  0
  3  5  1  0  0  0  0
  5  4  2  0  0  0  0
  5  8  1  0  0  0  0
  6  5  2  0  0  0  0
  8 13  1  6  0  0  0
  8  9  1  0  0  0  0
  8 15  1  0  0  0  0
 10  9  1  6  0  0  0
 10 12  1  0  0  0  0
 10 11  1  0  0  0  0
 11 14  1  6  0  0  0
 11 19  1  0  0  0  0
 12 11  1  0  0  0  0
 12  7  1  1  0  0  0
 15 16  1  1  0  0  0
 15 12  1  0  0  0  0
 16 17  1  0  0  0  0
 18 16  2  0  0  0  0
 19 20  1  0  0  0  0
 21 22  1  0  0  0  0
 21  1  1  0  0  0  0
 24 26  1  0  0  0  0
 25 22  1  0  0  0  0
 25 26  1  0  0  0  0
 26 23  2  0  0  0  0
 27 24  1  6  0  0  0
 27 47  1  0  0  0  0
 28 32  2  0  0  0  0
 28 30  1  0  0  0  0
 30 36  2  0  0  0  0
 31 33  1  0  0  0  0
 32 37  1  0  0  0  0
 34 32  1  0  0  0  0
 34 35  1  0  0  0  0
 35 38  1  1  0  0  0
 35 29  1  0  0  0  0
 36 31  1  0  0  0  0
 36 27  1  0  0  0  0
 37 29  1  0  0  0  0
 37 31  2  0  0  0  0
 39 38  1  0  0  0  0
 39 40  2  0  0  0  0
 41 39  1  0  0  0  0
 42 43  2  0  0  0  0
 42 47  1  0  0  0  0
 43 46  1  0  0  0  0
 44 45  1  0  0  0  0
 46 45  2  0  0  0  0
 47 44  2  0  0  0  0
 48 49  1  0  0  0  0
 50 53  2  0  0  0  0
 50 54  1  0  0  0  0
 51 49  1  0  0  0  0
 52 51  1  0  0  0  0
 53 55  1  0  0  0  0
 54 52  2  0  0  0  0
 55 51  2  0  0  0  0
M  END
>  <MODEL>
3

>  <REMARK>
 VINA RESULT:      -7.7      3.718      8.060
  Name = 
  17 active torsions:
  status: ('A' for Active; 'I' for Inactive)
    1  A    between atoms: C_1  and  C_53
    2  A    between atoms: N_4  and  C_35
    3  A    between atoms: N_4  and  N_37
    4  A    between atoms: C_6  and  S_20
    5  A    between atoms: C_8  and  N_22
    6  A    between atoms: C_8  and  C_43
    7  A    between atoms: C_10  and  C_32
    8  A    between atoms: O_11  and  C_29
    9  A    between atoms: N_19  and  C_45
   10  A    between atoms: S_20  and  N_22
   11  A    between atoms: C_26  and  C_45
   12  A    between atoms: C_27  and  C_51
   13  A    between atoms: C_32  and  C_48
   14  A    between atoms: C_35  and  C_43
   15  A    between atoms: C_43  and  C_54
   16  A    between atoms: C_45  and  C_49
   17  A    between atoms: C_51  and  C_54
                            x       y       z     vdW  Elec       q    Type
                         _______ _______ _______ _____ _____    ______ ____

>  <TORSDO>
F 17

$$$$
=
 OpenBabel10272401273D

 55 60  0  0  1  0  0  0  0  0999 V2000
  189.7120  177.2980  137.4460 C   0  0  1  0  0  3  0  0  0  0  0  0
  188.9380  177.6870  136.1930 C   0  0  0  0  0  2  0  0  0  0  0  0
  188.1670  176.5690  135.6740 N   0  0  0  0  0  2  0  0  0  0  0  0
  186.1470  177.8580  136.7920 O   0  0  0  0  0  0  0  0  0  0  0  0
  186.4920  177.0220  135.5880 S   0  0  0  0  0  0  0  0  0  0  0  0
  186.2840  177.8500  134.3490 O   0  0  0  0  0  0  0  0  0  0  0  0
  183.7160  173.0610  137.2770 O   0  0  0  0  0  1  0  0  0  0  0  0
  185.4100  175.5900  135.5170 C   0  0  1  0  0  0  0  0  0  0  0  0
  184.0720  176.0320  135.4100 O   0  0  0  0  0  0  0  0  0  0  0  0
  183.2640  175.0830  136.0760 C   0  0  2  0  0  3  0  0  0  0  0  0
  183.0640  175.4510  137.5390 C   0  0  1  0  0  0  0  0  0  0  0  0
  184.0980  174.4020  137.1530 C   0  0  1  0  0  0  0  0  0  0  0  0
  185.7240  174.8210  134.3870 O   0  0  0  0  0  1  0  0  0  0  0  0
  183.5540  176.7120  137.9270 O   0  0  0  0  0  1  0  0  0  0  0  0
  185.5260  174.7740  136.8070 C   0  0  1  0  0  3  0  0  0  0  0  0
  186.4940  173.6140  136.7310 C   0  0  0  0  0  0  0  0  0  0  0  0
  187.6520  173.7060  137.2210 O   0  0  0  0  0  1  0  0  0  0  0  0
  186.0500  172.3970  136.2270 O   0  0  0  0  0  0  0  0  0  0  0  0
  181.8490  174.9670  138.0790 O   0  0  0  0  0  0  0  0  0  0  0  0
  181.6290  175.5650  139.3240 C   0  0  0  0  0  1  0  0  0  0  0  0
  188.7860  177.3460  138.6780 C   0  0  0  0  0  2  0  0  0  0  0  0
  189.2850  178.2500  139.7100 N   0  0  0  0  0  2  0  0  0  0  0  0
  188.6030  177.4650  142.3120 O   0  0  0  0  0  0  0  0  0  0  0  0
  186.7020  178.8200  142.3750 N   0  0  0  0  0  2  0  0  0  0  0  0
  188.1460  178.7020  140.3830 N   0  0  0  0  0  2  0  0  0  0  0  0
  187.8470  178.2770  141.7180 C   0  0  0  0  0  0  0  0  0  0  0  0
  185.8350  178.0290  143.2370 C   0  0  2  0  0  3  0  0  0  0  0  0
  182.2090  179.0090  143.7620 N   0  0  0  0  0  0  0  0  0  0  0  0
  181.8970  178.7980  140.2360 O   0  0  0  0  0  0  0  0  0  0  0  0
  183.5080  178.6750  144.0130 C   0  0  0  0  0  3  0  0  0  0  0  0
  183.9050  178.3550  141.6320 C   0  0  0  0  0  0  0  0  0  0  0  0
  181.7620  179.0340  142.4800 C   0  0  0  0  0  0  0  0  0  0  0  0
  184.7060  178.0450  140.5770 F   0  0  0  0  0  0  0  0  0  0  0  0
  180.3920  179.3260  142.0020 C   0  0  0  0  0  2  0  0  0  0  0  0
  180.5410  179.1820  140.4680 C   0  0  1  0  0  3  0  0  0  0  0  0
  184.3920  178.3440  142.9530 C   0  0  0  0  0  0  0  0  0  0  0  0
  182.5740  178.7140  141.4340 C   0  0  0  0  0  0  0  0  0  0  0  0
  180.2440  180.5030  139.7660 C   0  0  0  0  0  2  0  0  0  0  0  0
  180.9220  180.5570  138.4390 C   0  0  0  0  0  0  0  0  0  0  0  0
  181.8810  181.3500  138.2560 O   0  0  0  0  0  0  0  0  0  0  0  0
  180.4740  179.7290  137.3700 N   0  0  0  0  0  1  0  0  0  0  0  0
  187.1270  177.3300  145.2500 C   0  0  0  0  0  3  0  0  0  0  0  0
  187.3940  177.3850  146.6210 C   0  0  0  0  0  3  0  0  0  0  0  0
  185.4860  179.1020  145.5060 C   0  0  0  0  0  3  0  0  0  0  0  0
  185.7560  179.1510  146.8800 C   0  0  0  0  0  3  0  0  0  0  0  0
  186.7020  178.2850  147.4390 C   0  0  0  0  0  3  0  0  0  0  0  0
  186.1710  178.1850  144.6870 C   0  0  0  0  0  0  0  0  0  0  0  0
  190.3520  175.9240  137.2320 C   0  0  0  0  0  2  0  0  0  0  0  0
  191.5430  175.6660  138.1550 C   0  0  0  0  0  2  0  0  0  0  0  0
  194.8870  174.2880  135.8830 C   0  0  0  0  0  3  0  0  0  0  0  0
  192.7060  175.1410  137.3760 C   0  0  0  0  0  0  0  0  0  0  0  0
  193.9590  175.1310  137.9200 N   0  0  0  0  0  0  0  0  0  0  0  0
  193.6100  174.2690  135.3210 C   0  0  0  0  0  3  0  0  0  0  0  0
  195.0400  174.7170  137.2100 C   0  0  0  0  0  3  0  0  0  0  0  0
  192.5130  174.6900  136.0690 C   0  0  0  0  0  3  0  0  0  0  0  0
  1  2  1  6  0  0  0
  1 21  1  0  0  0  0
  3  2  1  0  0  0  0
  5  3  1  0  0  0  0
  5  4  2  0  0  0  0
  6  5  2  0  0  0  0
  8 13  1  6  0  0  0
  8  5  1  0  0  0  0
  8 15  1  0  0  0  0
  9  8  1  0  0  0  0
 10  9  1  6  0  0  0
 10 12  1  0  0  0  0
 10 11  1  0  0  0  0
 11 14  1  1  0  0  0
 11 19  1  0  0  0  0
 12  7  1  1  0  0  0
 12 11  1  0  0  0  0
 15 16  1  6  0  0  0
 15 12  1  0  0  0  0
 16 17  1  0  0  0  0
 18 16  2  0  0  0  0
 19 20  1  0  0  0  0
 21 22  1  0  0  0  0
 22 25  1  0  0  0  0
 25 26  1  0  0  0  0
 26 23  2  0  0  0  0
 26 24  1  0  0  0  0
 27 24  1  6  0  0  0
 27 47  1  0  0  0  0
 28 30  1  0  0  0  0
 29 35  1  0  0  0  0
 29 37  1  0  0  0  0
 31 36  1  0  0  0  0
 32 28  2  0  0  0  0
 33 31  1  0  0  0  0
 34 32  1  0  0  0  0
 35 38  1  6  0  0  0
 35 34  1  0  0  0  0
 36 27  1  0  0  0  0
 36 30  2  0  0  0  0
 37 31  2  0  0  0  0
 37 32  1  0  0  0  0
 39 38  1  0  0  0  0
 40 39  2  0  0  0  0
 41 39  1  0  0  0  0
 42 43  1  0  0  0  0
 43 46  2  0  0  0  0
 44 45  2  0  0  0  0
 45 46  1  0  0  0  0
 47 42  2  0  0  0  0
 47 44  1  0  0  0  0
 48  1  1  0  0  0  0
 48 49  1  0  0  0  0
 50 54  1  0  0  0  0
 51 52  1  0  0  0  0
 51 49  1  0  0  0  0
 53 50  2  0  0  0  0
 53 55  1  0  0  0  0
 54 52  2  0  0  0  0
 55 51  2  0  0  0  0
M  END
>  <MODEL>
4

>  <REMARK>
 VINA RESULT:      -7.1      4.113      8.209
  Name = 
  17 active torsions:
  status: ('A' for Active; 'I' for Inactive)
    1  A    between atoms: C_1  and  C_53
    2  A    between atoms: N_4  and  C_35
    3  A    between atoms: N_4  and  N_37
    4  A    between atoms: C_6  and  S_20
    5  A    between atoms: C_8  and  N_22
    6  A    between atoms: C_8  and  C_43
    7  A    between atoms: C_10  and  C_32
    8  A    between atoms: O_11  and  C_29
    9  A    between atoms: N_19  and  C_45
   10  A    between atoms: S_20  and  N_22
   11  A    between atoms: C_26  and  C_45
   12  A    between atoms: C_27  and  C_51
   13  A    between atoms: C_32  and  C_48
   14  A    between atoms: C_35  and  C_43
   15  A    between atoms: C_43  and  C_54
   16  A    between atoms: C_45  and  C_49
   17  A    between atoms: C_51  and  C_54
                            x       y       z     vdW  Elec       q    Type
                         _______ _______ _______ _____ _____    ______ ____

>  <TORSDO>
F 17

$$$$
=
 OpenBabel10272401273D

 55 60  0  0  1  0  0  0  0  0999 V2000
  185.4600  178.3880  143.3670 C   0  0  1  0  0  3  0  0  0  0  0  0
  184.3170  179.0650  142.6200 C   0  0  0  0  0  2  0  0  0  0  0  0
  183.3490  178.0970  142.1340 N   0  0  0  0  0  2  0  0  0  0  0  0
  180.8310  177.8360  142.8960 O   0  0  0  0  0  0  0  0  0  0  0  0
  181.7600  178.7950  142.2010 S   0  0  0  0  0  0  0  0  0  0  0  0
  181.8300  180.0670  143.0010 O   0  0  0  0  0  0  0  0  0  0  0  0
  181.4090  178.7180  137.0890 O   0  0  0  0  0  1  0  0  0  0  0  0
  181.1220  179.1750  140.5650 C   0  0  1  0  0  0  0  0  0  0  0  0
  180.0070  178.3460  140.3040 O   0  0  0  0  0  0  0  0  0  0  0  0
  179.9920  178.0900  138.9150 C   0  0  2  0  0  3  0  0  0  0  0  0
  180.7650  176.8250  138.5740 C   0  0  1  0  0  0  0  0  0  0  0  0
  181.4160  178.1880  138.3850 C   0  0  1  0  0  0  0  0  0  0  0  0
  180.7120  180.5140  140.5200 O   0  0  0  0  0  1  0  0  0  0  0  0
  181.2030  176.0590  139.6710 O   0  0  0  0  0  1  0  0  0  0  0  0
  182.1810  178.8720  139.5010 C   0  0  1  0  0  3  0  0  0  0  0  0
  183.0050  180.0680  139.0770 C   0  0  0  0  0  0  0  0  0  0  0  0
  184.2620  180.0540  139.1800 O   0  0  0  0  0  1  0  0  0  0  0  0
  182.3730  181.1360  138.4530 O   0  0  0  0  0  0  0  0  0  0  0  0
  180.3010  176.1810  137.4020 O   0  0  0  0  0  0  0  0  0  0  0  0
  180.5650  174.8110  137.4950 C   0  0  0  0  0  1  0  0  0  0  0  0
  186.8030  178.6990  142.6760 C   0  0  0  0  0  2  0  0  0  0  0  0
  186.7280  178.5440  141.2260 N   0  0  0  0  0  2  0  0  0  0  0  0
  187.4030  177.9010  138.5840 O   0  0  0  0  0  0  0  0  0  0  0  0
  189.5190  177.1040  139.1690 N   0  0  0  0  0  2  0  0  0  0  0  0
  187.9400  177.9520  140.8580 N   0  0  0  0  0  2  0  0  0  0  0  0
  188.2410  177.6510  139.4900 C   0  0  0  0  0  0  0  0  0  0  0  0
  189.7060  176.0700  138.1610 C   0  0  2  0  0  3  0  0  0  0  0  0
  193.4800  176.4230  138.2990 N   0  0  0  0  0  0  0  0  0  0  0  0
  193.5910  173.1540  136.9290 O   0  0  0  0  0  0  0  0  0  0  0  0
  192.1500  176.7080  138.4010 C   0  0  0  0  0  3  0  0  0  0  0  0
  191.5920  174.5290  137.4680 C   0  0  0  0  0  0  0  0  0  0  0  0
  193.8680  175.2180  137.8090 C   0  0  0  0  0  0  0  0  0  0  0  0
  190.6980  173.5890  137.0610 F   0  0  0  0  0  0  0  0  0  0  0  0
  195.2480  174.7330  137.5800 C   0  0  0  0  0  2  0  0  0  0  0  0
  195.0080  173.3150  137.0090 C   0  0  1  0  0  3  0  0  0  0  0  0
  191.1700  175.7660  137.9930 C   0  0  0  0  0  0  0  0  0  0  0  0
  192.9630  174.2880  137.3980 C   0  0  0  0  0  0  0  0  0  0  0  0
  195.6050  172.2510  137.9240 C   0  0  0  0  0  2  0  0  0  0  0  0
  195.3890  170.8890  137.3580 C   0  0  0  0  0  0  0  0  0  0  0  0
  195.6630  170.6590  136.1510 O   0  0  0  0  0  0  0  0  0  0  0  0
  194.8550  169.8500  138.1730 N   0  0  0  0  0  1  0  0  0  0  0  0
  187.9260  175.6760  136.4640 C   0  0  0  0  0  3  0  0  0  0  0  0
  187.3460  175.9040  135.2120 C   0  0  0  0  0  3  0  0  0  0  0  0
  189.5880  177.3830  135.9970 C   0  0  0  0  0  3  0  0  0  0  0  0
  189.0050  177.6060  134.7430 C   0  0  0  0  0  3  0  0  0  0  0  0
  187.8900  176.8580  134.3460 C   0  0  0  0  0  3  0  0  0  0  0  0
  189.0490  176.4110  136.8610 C   0  0  0  0  0  0  0  0  0  0  0  0
  185.4270  178.8240  144.8330 C   0  0  0  0  0  2  0  0  0  0  0  0
  185.6130  177.6620  145.8100 C   0  0  0  0  0  2  0  0  0  0  0  0
  189.3560  177.8470  147.8590 C   0  0  0  0  0  3  0  0  0  0  0  0
  186.9310  177.7680  146.5070 C   0  0  0  0  0  0  0  0  0  0  0  0
  188.0650  177.2750  145.9280 N   0  0  0  0  0  0  0  0  0  0  0  0
  188.2120  178.3780  148.4540 C   0  0  0  0  0  3  0  0  0  0  0  0
  189.2630  177.3040  146.5680 C   0  0  0  0  0  3  0  0  0  0  0  0
  186.9950  178.3450  147.7780 C   0  0  0  0  0  3  0  0  0  0  0  0
  1  2  1  6  0  0  0
  1 48  1  0  0  0  0
  3  5  1  0  0  0  0
  3  2  1  0  0  0  0
  5  4  2  0  0  0  0
  5  6  2  0  0  0  0
  8 13  1  6  0  0  0
  8  5  1  0  0  0  0
  9  8  1  0  0  0  0
 10  9  1  1  0  0  0
 11 10  1  0  0  0  0
 11 14  1  1  0  0  0
 12  7  1  6  0  0  0
 12 11  1  0  0  0  0
 12 10  1  0  0  0  0
 12 15  1  0  0  0  0
 15 16  1  6  0  0  0
 15  8  1  0  0  0  0
 16 17  1  0  0  0  0
 18 16  2  0  0  0  0
 19 20  1  0  0  0  0
 19 11  1  0  0  0  0
 21  1  1  0  0  0  0
 22 21  1  0  0  0  0
 23 26  2  0  0  0  0
 24 26  1  0  0  0  0
 25 22  1  0  0  0  0
 26 25  1  0  0  0  0
 27 24  1  1  0  0  0
 28 30  1  0  0  0  0
 29 35  1  0  0  0  0
 29 37  1  0  0  0  0
 31 36  1  0  0  0  0
 32 28  2  0  0  0  0
 33 31  1  0  0  0  0
 34 32  1  0  0  0  0
 35 34  1  0  0  0  0
 35 38  1  1  0  0  0
 36 27  1  0  0  0  0
 36 30  2  0  0  0  0
 37 31  2  0  0  0  0
 37 32  1  0  0  0  0
 39 38  1  0  0  0  0
 39 41  1  0  0  0  0
 40 39  2  0  0  0  0
 42 47  1  0  0  0  0
 43 42  2  0  0  0  0
 44 47  2  0  0  0  0
 45 44  1  0  0  0  0
 46 45  2  0  0  0  0
 46 43  1  0  0  0  0
 47 27  1  0  0  0  0
 48 49  1  0  0  0  0
 49 51  1  0  0  0  0
 50 53  1  0  0  0  0
 51 55  1  0  0  0  0
 52 51  2  0  0  0  0
 52 54  1  0  0  0  0
 54 50  2  0  0  0  0
 55 53  2  0  0  0  0
M  END
>  <MODEL>
5

>  <REMARK>
 VINA RESULT:      -7.1      3.725     11.211
  Name = 
  17 active torsions:
  status: ('A' for Active; 'I' for Inactive)
    1  A    between atoms: C_1  and  C_53
    2  A    between atoms: N_4  and  C_35
    3  A    between atoms: N_4  and  N_37
    4  A    between atoms: C_6  and  S_20
    5  A    between atoms: C_8  and  N_22
    6  A    between atoms: C_8  and  C_43
    7  A    between atoms: C_10  and  C_32
    8  A    between atoms: O_11  and  C_29
    9  A    between atoms: N_19  and  C_45
   10  A    between atoms: S_20  and  N_22
   11  A    between atoms: C_26  and  C_45
   12  A    between atoms: C_27  and  C_51
   13  A    between atoms: C_32  and  C_48
   14  A    between atoms: C_35  and  C_43
   15  A    between atoms: C_43  and  C_54
   16  A    between atoms: C_45  and  C_49
   17  A    between atoms: C_51  and  C_54
                            x       y       z     vdW  Elec       q    Type
                         _______ _______ _______ _____ _____    ______ ____

>  <TORSDO>
F 17

$$$$
=
 OpenBabel10272401273D

 55 60  0  0  1  0  0  0  0  0999 V2000
  185.4910  179.1390  141.9230 C   0  0  1  0  0  3  0  0  0  0  0  0
  185.3880  178.7910  143.4030 C   0  0  0  0  0  2  0  0  0  0  0  0
  186.2220  177.6510  143.7420 N   0  0  0  0  0  2  0  0  0  0  0  0
  186.0440  178.9600  146.0320 O   0  0  0  0  0  0  0  0  0  0  0  0
  186.7750  177.8150  145.3810 S   0  0  0  0  0  0  0  0  0  0  0  0
  186.4480  176.5480  146.1240 O   0  0  0  0  0  0  0  0  0  0  0  0
  191.7750  176.7080  145.5280 O   0  0  0  0  0  1  0  0  0  0  0  0
  188.5460  178.0990  145.4700 C   0  0  1  0  0  0  0  0  0  0  0  0
  189.0180  178.4500  144.1840 O   0  0  0  0  0  0  0  0  0  0  0  0
  190.3370  177.9550  144.0740 C   0  0  2  0  0  3  0  0  0  0  0  0
  190.3580  176.5520  143.4860 C   0  0  1  0  0  0  0  0  0  0  0  0
  190.4830  176.7470  144.9910 C   0  0  1  0  0  0  0  0  0  0  0  0
  188.8070  179.1570  146.3520 O   0  0  0  0  0  1  0  0  0  0  0  0
  189.1250  176.0680  143.0090 O   0  0  0  0  0  1  0  0  0  0  0  0
  189.2680  176.8180  145.8940 C   0  0  1  0  0  3  0  0  0  0  0  0
  189.5590  176.7220  147.3750 C   0  0  0  0  0  0  0  0  0  0  0  0
  190.6730  177.0880  147.8390 O   0  0  0  0  0  0  0  0  0  0  0  0
  188.5390  176.3450  148.2400 O   0  0  0  0  0  1  0  0  0  0  0  0
  191.5520  176.2520  142.7890 O   0  0  0  0  0  0  0  0  0  0  0  0
  191.8330  177.2880  141.8920 C   0  0  0  0  0  1  0  0  0  0  0  0
  186.5290  178.2310  141.2350 C   0  0  0  0  0  2  0  0  0  0  0  0
  187.7580  178.9460  140.9060 N   0  0  0  0  0  2  0  0  0  0  0  0
  188.9780  179.1590  138.3930 O   0  0  0  0  0  0  0  0  0  0  0  0
  190.1350  177.1440  138.6250 N   0  0  0  0  0  2  0  0  0  0  0  0
  188.6150  177.9770  140.3760 N   0  0  0  0  0  2  0  0  0  0  0  0
  189.2210  178.1390  139.0870 C   0  0  0  0  0  0  0  0  0  0  0  0
  190.1880  176.7020  137.2380 C   0  0  2  0  0  3  0  0  0  0  0  0
  188.7880  173.1860  136.9920 N   0  0  0  0  0  0  0  0  0  0  0  0
  185.6720  174.7380  136.3150 O   0  0  0  0  0  0  0  0  0  0  0  0
  189.6620  174.2220  137.1420 C   0  0  0  0  0  3  0  0  0  0  0  0
  187.8720  175.8190  136.7230 C   0  0  0  0  0  0  0  0  0  0  0  0
  187.4820  173.4480  136.7290 C   0  0  0  0  0  0  0  0  0  0  0  0
  187.3980  177.0870  136.5910 F   0  0  0  0  0  0  0  0  0  0  0  0
  186.3910  172.4770  136.4910 C   0  0  0  0  0  2  0  0  0  0  0  0
  185.1740  173.4010  136.2430 C   0  0  1  0  0  3  0  0  0  0  0  0
  189.2260  175.5670  137.0170 C   0  0  0  0  0  0  0  0  0  0  0  0
  187.0220  174.7230  136.5910 C   0  0  0  0  0  0  0  0  0  0  0  0
  184.1010  173.1850  137.3040 C   0  0  0  0  0  2  0  0  0  0  0  0
  182.8450  172.6720  136.6850 C   0  0  0  0  0  0  0  0  0  0  0  0
  182.0760  173.4610  136.0770 O   0  0  0  0  0  0  0  0  0  0  0  0
  182.5010  171.2940  136.7960 N   0  0  0  0  0  1  0  0  0  0  0  0
  191.8170  176.1540  135.4350 C   0  0  0  0  0  3  0  0  0  0  0  0
  193.0790  175.7380  135.0010 C   0  0  0  0  0  3  0  0  0  0  0  0
  192.6120  176.1470  137.7290 C   0  0  0  0  0  3  0  0  0  0  0  0
  193.8740  175.7280  137.2890 C   0  0  0  0  0  3  0  0  0  0  0  0
  194.1040  175.5130  135.9260 C   0  0  0  0  0  3  0  0  0  0  0  0
  191.5760  176.3580  136.7990 C   0  0  0  0  0  0  0  0  0  0  0  0
  184.1010  179.0440  141.2890 C   0  0  0  0  0  2  0  0  0  0  0  0
  184.1320  179.0900  139.7610 C   0  0  0  0  0  2  0  0  0  0  0  0
  181.3470  176.2610  138.1880 C   0  0  0  0  0  3  0  0  0  0  0  0
  183.1920  178.0800  139.1860 C   0  0  0  0  0  0  0  0  0  0  0  0
  182.5230  178.3370  138.0230 N   0  0  0  0  0  0  0  0  0  0  0  0
  182.0390  175.9730  139.3640 C   0  0  0  0  0  3  0  0  0  0  0  0
  181.6170  177.4620  137.5150 C   0  0  0  0  0  3  0  0  0  0  0  0
  182.9700  176.8800  139.8650 C   0  0  0  0  0  3  0  0  0  0  0  0
  1 21  1  6  0  0  0
  1  2  1  0  0  0  0
  2  3  1  0  0  0  0
  3  5  1  0  0  0  0
  5  8  1  0  0  0  0
  5  4  2  0  0  0  0
  5  6  2  0  0  0  0
  8 15  1  0  0  0  0
  8 13  1  1  0  0  0
  9  8  1  0  0  0  0
 10  9  1  1  0  0  0
 10 12  1  0  0  0  0
 11 14  1  6  0  0  0
 11 10  1  0  0  0  0
 11 12  1  0  0  0  0
 12  7  1  1  0  0  0
 12 15  1  0  0  0  0
 15 16  1  1  0  0  0
 16 17  2  0  0  0  0
 16 18  1  0  0  0  0
 19 11  1  0  0  0  0
 20 19  1  0  0  0  0
 22 21  1  0  0  0  0
 23 26  2  0  0  0  0
 24 26  1  0  0  0  0
 25 22  1  0  0  0  0
 26 25  1  0  0  0  0
 27 24  1  1  0  0  0
 28 30  1  0  0  0  0
 29 37  1  0  0  0  0
 31 36  1  0  0  0  0
 32 28  2  0  0  0  0
 33 31  1  0  0  0  0
 34 32  1  0  0  0  0
 35 29  1  0  0  0  0
 35 34  1  0  0  0  0
 35 38  1  1  0  0  0
 36 30  2  0  0  0  0
 36 27  1  0  0  0  0
 37 31  2  0  0  0  0
 37 32  1  0  0  0  0
 39 41  1  0  0  0  0
 39 38  1  0  0  0  0
 40 39  2  0  0  0  0
 42 47  1  0  0  0  0
 43 42  2  0  0  0  0
 43 46  1  0  0  0  0
 45 44  1  0  0  0  0
 46 45  2  0  0  0  0
 47 27  1  0  0  0  0
 47 44  2  0  0  0  0
 48  1  1  0  0  0  0
 49 48  1  0  0  0  0
 50 53  1  0  0  0  0
 51 49  1  0  0  0  0
 51 55  1  0  0  0  0
 52 51  2  0  0  0  0
 53 55  2  0  0  0  0
 54 52  1  0  0  0  0
 54 50  2  0  0  0  0
M  END
>  <MODEL>
6

>  <REMARK>
 VINA RESULT:      -7.1      4.066      9.867
  Name = 
  17 active torsions:
  status: ('A' for Active; 'I' for Inactive)
    1  A    between atoms: C_1  and  C_53
    2  A    between atoms: N_4  and  C_35
    3  A    between atoms: N_4  and  N_37
    4  A    between atoms: C_6  and  S_20
    5  A    between atoms: C_8  and  N_22
    6  A    between atoms: C_8  and  C_43
    7  A    between atoms: C_10  and  C_32
    8  A    between atoms: O_11  and  C_29
    9  A    between atoms: N_19  and  C_45
   10  A    between atoms: S_20  and  N_22
   11  A    between atoms: C_26  and  C_45
   12  A    between atoms: C_27  and  C_51
   13  A    between atoms: C_32  and  C_48
   14  A    between atoms: C_35  and  C_43
   15  A    between atoms: C_43  and  C_54
   16  A    between atoms: C_45  and  C_49
   17  A    between atoms: C_51  and  C_54
                            x       y       z     vdW  Elec       q    Type
                         _______ _______ _______ _____ _____    ______ ____

>  <TORSDO>
F 17

$$$$
=
 OpenBabel10272401273D

 55 60  0  0  1  0  0  0  0  0999 V2000
  190.4510  176.1960  137.8700 C   0  0  1  0  0  3  0  0  0  0  0  0
  191.7900  175.5740  138.2510 C   0  0  0  0  0  2  0  0  0  0  0  0
  192.4270  174.9400  137.1100 N   0  0  0  0  0  2  0  0  0  0  0  0
  194.2540  176.7420  136.4690 O   0  0  0  0  0  0  0  0  0  0  0  0
  194.1100  175.3730  137.0810 S   0  0  0  0  0  0  0  0  0  0  0  0
  194.6140  175.4210  138.4980 O   0  0  0  0  0  0  0  0  0  0  0  0
  197.9480  172.1380  136.0550 O   0  0  0  0  0  1  0  0  0  0  0  0
  195.0940  174.1910  136.1550 C   0  0  1  0  0  0  0  0  0  0  0  0
  194.5140  172.9080  136.2870 O   0  0  0  0  0  0  0  0  0  0  0  0
  195.5670  171.9670  136.2490 C   0  0  2  0  0  3  0  0  0  0  0  0
  196.0900  171.6600  137.6440 C   0  0  1  0  0  0  0  0  0  0  0  0
  196.8390  172.6380  136.7490 C   0  0  1  0  0  0  0  0  0  0  0  0
  195.1010  174.5470  134.7990 O   0  0  0  0  0  1  0  0  0  0  0  0
  195.3550  172.2120  138.7100 O   0  0  0  0  0  1  0  0  0  0  0  0
  196.5120  174.1180  136.7270 C   0  0  1  0  0  3  0  0  0  0  0  0
  197.5220  174.9910  136.0160 C   0  0  0  0  0  0  0  0  0  0  0  0
  197.6140  176.2200  136.2840 O   0  0  0  0  0  1  0  0  0  0  0  0
  198.4370  174.3980  135.1550 O   0  0  0  0  0  0  0  0  0  0  0  0
  196.6450  170.3650  137.7640 O   0  0  0  0  0  0  0  0  0  0  0  0
  195.6120  169.4330  137.9110 C   0  0  0  0  0  1  0  0  0  0  0  0
  189.5790  175.1640  137.1290 C   0  0  0  0  0  2  0  0  0  0  0  0
  188.7250  175.7850  136.1200 N   0  0  0  0  0  2  0  0  0  0  0  0
  186.5400  177.2200  135.1120 O   0  0  0  0  0  0  0  0  0  0  0  0
  185.0220  176.2120  136.5740 N   0  0  0  0  0  2  0  0  0  0  0  0
  187.4250  175.6690  136.6200 N   0  0  0  0  0  2  0  0  0  0  0  0
  186.3390  176.4190  136.0620 C   0  0  0  0  0  0  0  0  0  0  0  0
  184.0670  177.2950  136.7590 C   0  0  2  0  0  3  0  0  0  0  0  0
  182.5970  177.3280  140.2560 N   0  0  0  0  0  0  0  0  0  0  0  0
  185.5020  179.1350  141.1940 O   0  0  0  0  0  0  0  0  0  0  0  0
  182.7450  177.1120  138.9170 C   0  0  0  0  0  3  0  0  0  0  0  0
  184.8720  178.2990  138.9400 C   0  0  0  0  0  0  0  0  0  0  0  0
  183.5640  177.9990  140.9330 C   0  0  0  0  0  0  0  0  0  0  0  0
  185.9870  178.7790  138.3280 F   0  0  0  0  0  0  0  0  0  0  0  0
  183.5760  178.3720  142.3660 C   0  0  0  0  0  2  0  0  0  0  0  0
  184.9260  179.1160  142.5010 C   0  0  1  0  0  3  0  0  0  0  0  0
  183.8890  177.5870  138.2240 C   0  0  0  0  0  0  0  0  0  0  0  0
  184.6730  178.4810  140.3070 C   0  0  0  0  0  0  0  0  0  0  0  0
  185.8530  178.3910  143.4710 C   0  0  0  0  0  2  0  0  0  0  0  0
  185.3710  178.5430  144.8730 C   0  0  0  0  0  0  0  0  0  0  0  0
  185.8520  177.8210  145.7850 O   0  0  0  0  0  0  0  0  0  0  0  0
  184.3500  179.4870  145.1820 N   0  0  0  0  0  1  0  0  0  0  0  0
  181.9620  178.1240  135.7150 C   0  0  0  0  0  3  0  0  0  0  0  0
  180.6960  177.9120  135.1610 C   0  0  0  0  0  3  0  0  0  0  0  0
  182.2890  175.7240  135.8720 C   0  0  0  0  0  3  0  0  0  0  0  0
  181.0180  175.5160  135.3190 C   0  0  0  0  0  3  0  0  0  0  0  0
  180.2180  176.6100  134.9740 C   0  0  0  0  0  3  0  0  0  0  0  0
  182.7620  177.0330  136.0750 C   0  0  0  0  0  0  0  0  0  0  0  0
  189.7810  176.7490  139.1300 C   0  0  0  0  0  2  0  0  0  0  0  0
  190.7180  177.6090  139.9800 C   0  0  0  0  0  2  0  0  0  0  0  0
  190.2730  176.5420  144.0920 C   0  0  0  0  0  3  0  0  0  0  0  0
  190.5600  177.2810  141.4310 C   0  0  0  0  0  0  0  0  0  0  0  0
  191.6570  177.1300  142.2310 N   0  0  0  0  0  0  0  0  0  0  0  0
  189.1420  176.7170  143.2940 C   0  0  0  0  0  3  0  0  0  0  0  0
  191.5410  176.7700  143.5360 C   0  0  0  0  0  3  0  0  0  0  0  0
  189.2820  177.0930  141.9600 C   0  0  0  0  0  3  0  0  0  0  0  0
  1 21  1  1  0  0  0
  1  2  1  0  0  0  0
  1 48  1  0  0  0  0
  3  2  1  0  0  0  0
  4  5  2  0  0  0  0
  5  3  1  0  0  0  0
  5  6  2  0  0  0  0
  8 13  1  6  0  0  0
  8  9  1  0  0  0  0
  8 15  1  0  0  0  0
  8  5  1  0  0  0  0
 10  9  1  1  0  0  0
 10 12  1  0  0  0  0
 10 11  1  0  0  0  0
 11 19  1  0  0  0  0
 11 14  1  1  0  0  0
 12  7  1  6  0  0  0
 12 11  1  0  0  0  0
 15 16  1  6  0  0  0
 15 12  1  0  0  0  0
 16 17  1  0  0  0  0
 18 16  2  0  0  0  0
 19 20  1  0  0  0  0
 22 25  1  0  0  0  0
 22 21  1  0  0  0  0
 23 26  2  0  0  0  0
 26 24  1  0  0  0  0
 26 25  1  0  0  0  0
 27 24  1  1  0  0  0
 27 36  1  0  0  0  0
 28 32  1  0  0  0  0
 29 35  1  0  0  0  0
 30 28  2  0  0  0  0
 31 37  1  0  0  0  0
 32 34  1  0  0  0  0
 33 31  1  0  0  0  0
 34 35  1  0  0  0  0
 35 38  1  1  0  0  0
 36 30  1  0  0  0  0
 36 31  2  0  0  0  0
 37 32  2  0  0  0  0
 37 29  1  0  0  0  0
 38 39  1  0  0  0  0
 39 41  1  0  0  0  0
 39 40  2  0  0  0  0
 42 47  1  0  0  0  0
 43 42  2  0  0  0  0
 44 47  2  0  0  0  0
 45 44  1  0  0  0  0
 46 43  1  0  0  0  0
 46 45  2  0  0  0  0
 47 27  1  0  0  0  0
 48 49  1  0  0  0  0
 49 51  1  0  0  0  0
 51 55  2  0  0  0  0
 51 52  1  0  0  0  0
 52 54  2  0  0  0  0
 53 50  2  0  0  0  0
 54 50  1  0  0  0  0
 55 53  1  0  0  0  0
M  END
>  <MODEL>
7

>  <REMARK>
 VINA RESULT:      -7.0      1.923      2.774
  Name = 
  17 active torsions:
  status: ('A' for Active; 'I' for Inactive)
    1  A    between atoms: C_1  and  C_53
    2  A    between atoms: N_4  and  C_35
    3  A    between atoms: N_4  and  N_37
    4  A    between atoms: C_6  and  S_20
    5  A    between atoms: C_8  and  N_22
    6  A    between atoms: C_8  and  C_43
    7  A    between atoms: C_10  and  C_32
    8  A    between atoms: O_11  and  C_29
    9  A    between atoms: N_19  and  C_45
   10  A    between atoms: S_20  and  N_22
   11  A    between atoms: C_26  and  C_45
   12  A    between atoms: C_27  and  C_51
   13  A    between atoms: C_32  and  C_48
   14  A    between atoms: C_35  and  C_43
   15  A    between atoms: C_43  and  C_54
   16  A    between atoms: C_45  and  C_49
   17  A    between atoms: C_51  and  C_54
                            x       y       z     vdW  Elec       q    Type
                         _______ _______ _______ _____ _____    ______ ____

>  <TORSDO>
F 17

$$$$
=
 OpenBabel10272401273D

 55 60  0  0  1  0  0  0  0  0999 V2000
  191.0720  176.1100  138.5310 C   0  0  1  0  0  3  0  0  0  0  0  0
  190.6900  177.4110  139.2250 C   0  0  0  0  0  2  0  0  0  0  0  0
  191.1830  177.4520  140.5910 N   0  0  0  0  0  2  0  0  0  0  0  0
  188.5900  177.1430  141.0050 O   0  0  0  0  0  0  0  0  0  0  0  0
  189.9250  176.9280  141.6680 S   0  0  0  0  0  0  0  0  0  0  0  0
  190.1030  175.4570  141.9310 O   0  0  0  0  0  0  0  0  0  0  0  0
  189.7520  177.6350  146.7400 O   0  0  0  0  0  1  0  0  0  0  0  0
  189.9700  177.8070  143.2340 C   0  0  1  0  0  0  0  0  0  0  0  0
  191.3190  178.0150  143.6030 O   0  0  0  0  0  0  0  0  0  0  0  0
  191.3760  177.9850  145.0150 C   0  0  2  0  0  3  0  0  0  0  0  0
  191.6560  176.5800  145.5300 C   0  0  1  0  0  0  0  0  0  0  0  0
  190.2330  177.1210  145.5300 C   0  0  1  0  0  0  0  0  0  0  0  0
  189.3410  179.0510  143.0920 O   0  0  0  0  0  1  0  0  0  0  0  0
  191.9700  175.6190  144.5500 O   0  0  0  0  0  1  0  0  0  0  0  0
  189.3160  176.9650  144.3330 C   0  0  1  0  0  3  0  0  0  0  0  0
  187.8610  177.2890  144.5890 C   0  0  0  0  0  0  0  0  0  0  0  0
  186.9480  176.5040  144.2130 O   0  0  0  0  0  0  0  0  0  0  0  0
  187.5440  178.4010  145.3590 O   0  0  0  0  0  1  0  0  0  0  0  0
  192.3230  176.5620  146.7770 O   0  0  0  0  0  0  0  0  0  0  0  0
  191.9910  175.3870  147.4590 C   0  0  0  0  0  1  0  0  0  0  0  0
  189.8670  175.5510  137.7490 C   0  0  0  0  0  2  0  0  0  0  0  0
  188.9420  176.6020  137.3350 N   0  0  0  0  0  2  0  0  0  0  0  0
  186.9620  175.4090  135.7510 O   0  0  0  0  0  0  0  0  0  0  0  0
  185.4850  175.1510  137.5420 N   0  0  0  0  0  2  0  0  0  0  0  0
  187.6940  176.2050  137.8230 N   0  0  0  0  0  2  0  0  0  0  0  0
  186.7180  175.5900  136.9720 C   0  0  0  0  0  0  0  0  0  0  0  0
  184.2060  175.2840  136.8590 C   0  0  2  0  0  3  0  0  0  0  0  0
  182.2640  177.0880  139.5720 N   0  0  0  0  0  0  0  0  0  0  0  0
  181.6660  179.5940  137.1350 O   0  0  0  0  0  0  0  0  0  0  0  0
  182.9990  176.1430  138.9180 C   0  0  0  0  0  3  0  0  0  0  0  0
  182.9180  177.4630  136.8740 C   0  0  0  0  0  0  0  0  0  0  0  0
  181.8730  178.2050  138.9060 C   0  0  0  0  0  0  0  0  0  0  0  0
  183.2230  177.6740  135.5660 F   0  0  0  0  0  0  0  0  0  0  0  0
  181.0430  179.3210  139.4150 C   0  0  0  0  0  2  0  0  0  0  0  0
  180.9540  180.2540  138.1830 C   0  0  1  0  0  3  0  0  0  0  0  0
  183.3500  176.3080  137.5530 C   0  0  0  0  0  0  0  0  0  0  0  0
  182.1790  178.4000  137.5940 C   0  0  0  0  0  0  0  0  0  0  0  0
  181.5920  181.6070  138.4780 C   0  0  0  0  0  2  0  0  0  0  0  0
  181.0730  182.6480  137.5460 C   0  0  0  0  0  0  0  0  0  0  0  0
  180.2310  182.3370  136.6630 O   0  0  0  0  0  0  0  0  0  0  0  0
  181.5410  183.9900  137.6360 N   0  0  0  0  0  1  0  0  0  0  0  0
  184.1080  172.8190  137.2090 C   0  0  0  0  0  3  0  0  0  0  0  0
  183.5230  171.5680  136.9930 C   0  0  0  0  0  3  0  0  0  0  0  0
  182.2990  173.8690  135.9760 C   0  0  0  0  0  3  0  0  0  0  0  0
  181.7180  172.6130  135.7610 C   0  0  0  0  0  3  0  0  0  0  0  0
  182.3360  171.4610  136.2600 C   0  0  0  0  0  3  0  0  0  0  0  0
  183.5010  173.9740  136.7000 C   0  0  0  0  0  0  0  0  0  0  0  0
  192.2960  176.3570  137.6450 C   0  0  0  0  0  2  0  0  0  0  0  0
  193.5840  175.7660  138.2210 C   0  0  0  0  0  2  0  0  0  0  0  0
  196.2720  174.7620  135.0570 C   0  0  0  0  0  3  0  0  0  0  0  0
  194.5170  175.3690  137.1220 C   0  0  0  0  0  0  0  0  0  0  0  0
  195.8440  175.1720  137.3750 N   0  0  0  0  0  0  0  0  0  0  0  0
  194.9150  174.9370  134.7860 C   0  0  0  0  0  3  0  0  0  0  0  0
  196.7210  174.8730  136.3820 C   0  0  0  0  0  3  0  0  0  0  0  0
  194.0300  175.2360  135.8190 C   0  0  0  0  0  3  0  0  0  0  0  0
  1 48  1  6  0  0  0
  1  2  1  0  0  0  0
  2  3  1  0  0  0  0
  3  5  1  0  0  0  0
  4  5  2  0  0  0  0
  5  6  2  0  0  0  0
  5  8  1  0  0  0  0
  8 13  1  6  0  0  0
  8  9  1  0  0  0  0
  8 15  1  0  0  0  0
 10  9  1  6  0  0  0
 10 11  1  0  0  0  0
 10 12  1  0  0  0  0
 11 14  1  6  0  0  0
 11 12  1  0  0  0  0
 11 19  1  0  0  0  0
 12  7  1  1  0  0  0
 15 16  1  1  0  0  0
 15 12  1  0  0  0  0
 16 18  1  0  0  0  0
 17 16  2  0  0  0  0
 19 20  1  0  0  0  0
 21  1  1  0  0  0  0
 22 21  1  0  0  0  0
 22 25  1  0  0  0  0
 23 26  2  0  0  0  0
 26 24  1  0  0  0  0
 26 25  1  0  0  0  0
 27 24  1  1  0  0  0
 27 36  1  0  0  0  0
 29 37  1  0  0  0  0
 29 35  1  0  0  0  0
 30 28  1  0  0  0  0
 31 36  1  0  0  0  0
 31 37  2  0  0  0  0
 32 34  1  0  0  0  0
 32 28  2  0  0  0  0
 33 31  1  0  0  0  0
 35 38  1  1  0  0  0
 35 34  1  0  0  0  0
 36 30  2  0  0  0  0
 37 32  1  0  0  0  0
 39 41  1  0  0  0  0
 39 38  1  0  0  0  0
 40 39  2  0  0  0  0
 43 42  1  0  0  0  0
 44 47  1  0  0  0  0
 45 44  2  0  0  0  0
 45 46  1  0  0  0  0
 46 43  2  0  0  0  0
 47 27  1  0  0  0  0
 47 42  2  0  0  0  0
 48 49  1  0  0  0  0
 50 54  1  0  0  0  0
 51 52  1  0  0  0  0
 51 49  1  0  0  0  0
 53 50  2  0  0  0  0
 53 55  1  0  0  0  0
 54 52  2  0  0  0  0
 55 51  2  0  0  0  0
M  END
>  <MODEL>
8

>  <REMARK>
 VINA RESULT:      -6.9      4.135      8.180
  Name = 
  17 active torsions:
  status: ('A' for Active; 'I' for Inactive)
    1  A    between atoms: C_1  and  C_53
    2  A    between atoms: N_4  and  C_35
    3  A    between atoms: N_4  and  N_37
    4  A    between atoms: C_6  and  S_20
    5  A    between atoms: C_8  and  N_22
    6  A    between atoms: C_8  and  C_43
    7  A    between atoms: C_10  and  C_32
    8  A    between atoms: O_11  and  C_29
    9  A    between atoms: N_19  and  C_45
   10  A    between atoms: S_20  and  N_22
   11  A    between atoms: C_26  and  C_45
   12  A    between atoms: C_27  and  C_51
   13  A    between atoms: C_32  and  C_48
   14  A    between atoms: C_35  and  C_43
   15  A    between atoms: C_43  and  C_54
   16  A    between atoms: C_45  and  C_49
   17  A    between atoms: C_51  and  C_54
                            x       y       z     vdW  Elec       q    Type
                         _______ _______ _______ _____ _____    ______ ____

>  <TORSDO>
F 17

$$$$
=
 OpenBabel10272401273D

 55 60  0  0  1  0  0  0  0  0999 V2000
  190.0180  176.7800  137.2630 C   0  0  1  0  0  3  0  0  0  0  0  0
  188.6060  177.1990  136.8670 C   0  0  0  0  0  2  0  0  0  0  0  0
  187.6570  176.1150  137.0560 N   0  0  0  0  0  2  0  0  0  0  0  0
  187.0130  177.0400  134.6640 O   0  0  0  0  0  0  0  0  0  0  0  0
  186.7680  175.8720  135.5830 S   0  0  0  0  0  0  0  0  0  0  0  0
  187.2750  174.6200  134.9200 O   0  0  0  0  0  0  0  0  0  0  0  0
  182.4100  175.3930  138.2350 O   0  0  0  0  0  1  0  0  0  0  0  0
  185.0060  175.6970  135.8810 C   0  0  1  0  0  0  0  0  0  0  0  0
  184.3960  176.9680  135.7820 O   0  0  0  0  0  0  0  0  0  0  0  0
  183.3070  176.9810  136.6820 C   0  0  2  0  0  3  0  0  0  0  0  0
  183.7220  177.5020  138.0500 C   0  0  1  0  0  0  0  0  0  0  0  0
  183.5970  176.0040  137.8130 C   0  0  1  0  0  0  0  0  0  0  0  0
  184.4480  174.8500  134.9130 O   0  0  0  0  0  1  0  0  0  0  0  0
  185.0260  178.0250  138.1380 O   0  0  0  0  0  1  0  0  0  0  0  0
  184.7580  175.1740  137.2990 C   0  0  1  0  0  3  0  0  0  0  0  0
  184.5700  173.6760  137.3920 C   0  0  0  0  0  0  0  0  0  0  0  0
  183.6180  173.1060  136.7930 O   0  0  0  0  0  0  0  0  0  0  0  0
  185.5350  172.9160  138.0410 O   0  0  0  0  0  1  0  0  0  0  0  0
  182.6650  178.1170  138.7610 O   0  0  0  0  0  0  0  0  0  0  0  0
  182.5930  179.4680  138.4040 C   0  0  0  0  0  1  0  0  0  0  0  0
  190.0580  176.3920  138.7540 C   0  0  0  0  0  2  0  0  0  0  0  0
  189.9690  177.5560  139.6310 N   0  0  0  0  0  2  0  0  0  0  0  0
  187.9880  179.2800  140.6100 O   0  0  0  0  0  0  0  0  0  0  0  0
  187.1030  177.6720  142.0550 N   0  0  0  0  0  2  0  0  0  0  0  0
  189.0510  177.1980  140.6230 N   0  0  0  0  0  2  0  0  0  0  0  0
  188.0510  178.1150  141.0830 C   0  0  0  0  0  0  0  0  0  0  0  0
  186.6320  178.5170  143.1430 C   0  0  2  0  0  3  0  0  0  0  0  0
  187.0040  177.2550  146.7000 N   0  0  0  0  0  0  0  0  0  0  0  0
  190.5010  177.4430  146.1400 O   0  0  0  0  0  0  0  0  0  0  0  0
  186.4460  177.6900  145.5340 C   0  0  0  0  0  3  0  0  0  0  0  0
  188.6600  178.0420  144.5820 C   0  0  0  0  0  0  0  0  0  0  0  0
  188.3560  177.1960  146.8100 C   0  0  0  0  0  0  0  0  0  0  0  0
  189.4880  178.4140  143.5700 F   0  0  0  0  0  0  0  0  0  0  0  0
  189.1540  176.7970  147.9920 C   0  0  0  0  0  2  0  0  0  0  0  0
  190.6050  176.9530  147.4780 C   0  0  1  0  0  3  0  0  0  0  0  0
  187.2590  178.0900  144.4420 C   0  0  0  0  0  0  0  0  0  0  0  0
  189.1750  177.5790  145.7910 C   0  0  0  0  0  0  0  0  0  0  0  0
  191.3350  175.6140  147.4890 C   0  0  0  0  0  2  0  0  0  0  0  0
  192.7530  175.7910  147.9110 C   0  0  0  0  0  0  0  0  0  0  0  0
  193.6860  175.4240  147.1500 O   0  0  0  0  0  0  0  0  0  0  0  0
  193.0580  176.3560  149.1830 N   0  0  0  0  0  1  0  0  0  0  0  0
  184.3930  178.2960  142.0730 C   0  0  0  0  0  3  0  0  0  0  0  0
  183.0010  178.4260  142.0940 C   0  0  0  0  0  3  0  0  0  0  0  0
  184.4810  178.9610  144.4070 C   0  0  0  0  0  3  0  0  0  0  0  0
  183.0870  179.0920  144.4210 C   0  0  0  0  0  3  0  0  0  0  0  0
  182.3480  178.8350  143.2610 C   0  0  0  0  0  3  0  0  0  0  0  0
  185.1390  178.5650  143.2270 C   0  0  0  0  0  0  0  0  0  0  0  0
  190.4810  175.6520  136.3390 C   0  0  0  0  0  2  0  0  0  0  0  0
  191.6920  176.0330  135.4850 C   0  0  0  0  0  2  0  0  0  0  0  0
  195.2950  174.7080  137.3550 C   0  0  0  0  0  3  0  0  0  0  0  0
  192.9540  175.5330  136.1110 C   0  0  0  0  0  0  0  0  0  0  0  0
  192.9100  174.6810  137.1770 N   0  0  0  0  0  0  0  0  0  0  0  0
  195.3580  175.5580  136.2510 C   0  0  0  0  0  3  0  0  0  0  0  0
  194.0420  174.2620  137.8010 C   0  0  0  0  0  3  0  0  0  0  0  0
  194.1870  175.9700  135.6210 C   0  0  0  0  0  3  0  0  0  0  0  0
  1 48  1  6  0  0  0
  1 21  1  0  0  0  0
  2  3  1  0  0  0  0
  2  1  1  0  0  0  0
  4  5  2  0  0  0  0
  5  8  1  0  0  0  0
  5  3  1  0  0  0  0
  6  5  2  0  0  0  0
  8 13  1  6  0  0  0
  8 15  1  0  0  0  0
  9  8  1  0  0  0  0
 10  9  1  6  0  0  0
 10 12  1  0  0  0  0
 10 11  1  0  0  0  0
 11 14  1  1  0  0  0
 11 19  1  0  0  0  0
 12 11  1  0  0  0  0
 12  7  1  1  0  0  0
 15 16  1  6  0  0  0
 15 12  1  0  0  0  0
 16 18  1  0  0  0  0
 17 16  2  0  0  0  0
 20 19  1  0  0  0  0
 21 22  1  0  0  0  0
 22 25  1  0  0  0  0
 23 26  2  0  0  0  0
 25 26  1  0  0  0  0
 26 24  1  0  0  0  0
 27 24  1  6  0  0  0
 27 47  1  0  0  0  0
 27 36  1  0  0  0  0
 28 32  1  0  0  0  0
 29 35  1  0  0  0  0
 30 28  2  0  0  0  0
 31 37  1  0  0  0  0
 32 34  1  0  0  0  0
 33 31  1  0  0  0  0
 35 38  1  6  0  0  0
 35 34  1  0  0  0  0
 36 31  2  0  0  0  0
 36 30  1  0  0  0  0
 37 29  1  0  0  0  0
 37 32  2  0  0  0  0
 38 39  1  0  0  0  0
 39 41  1  0  0  0  0
 40 39  2  0  0  0  0
 42 43  2  0  0  0  0
 42 47  1  0  0  0  0
 43 46  1  0  0  0  0
 44 45  1  0  0  0  0
 46 45  2  0  0  0  0
 47 44  2  0  0  0  0
 49 51  1  0  0  0  0
 49 48  1  0  0  0  0
 50 54  1  0  0  0  0
 51 52  1  0  0  0  0
 52 54  2  0  0  0  0
 53 50  2  0  0  0  0
 55 51  2  0  0  0  0
 55 53  1  0  0  0  0
M  END
>  <MODEL>
9

>  <REMARK>
 VINA RESULT:      -6.9      4.048      7.939
  Name = 
  17 active torsions:
  status: ('A' for Active; 'I' for Inactive)
    1  A    between atoms: C_1  and  C_53
    2  A    between atoms: N_4  and  C_35
    3  A    between atoms: N_4  and  N_37
    4  A    between atoms: C_6  and  S_20
    5  A    between atoms: C_8  and  N_22
    6  A    between atoms: C_8  and  C_43
    7  A    between atoms: C_10  and  C_32
    8  A    between atoms: O_11  and  C_29
    9  A    between atoms: N_19  and  C_45
   10  A    between atoms: S_20  and  N_22
   11  A    between atoms: C_26  and  C_45
   12  A    between atoms: C_27  and  C_51
   13  A    between atoms: C_32  and  C_48
   14  A    between atoms: C_35  and  C_43
   15  A    between atoms: C_43  and  C_54
   16  A    between atoms: C_45  and  C_49
   17  A    between atoms: C_51  and  C_54
                            x       y       z     vdW  Elec       q    Type
                         _______ _______ _______ _____ _____    ______ ____

>  <TORSDO>
F 17

$$$$
