=
 OpenBabel10272413203D

 32 35  0  0  1  0  0  0  0  0999 V2000
  191.9190  177.2740  140.2380 C   0  0  0  0  0  0  0  0  0  0  0  0
  193.2120  177.1180  139.8670 F   0  0  0  0  0  0  0  0  0  0  0  0
  189.2500  177.5990  141.0040 C   0  0  0  0  0  3  0  0  0  0  0  0
  191.6090  177.6640  141.5450 C   0  0  0  0  0  3  0  0  0  0  0  0
  189.5590  177.2090  139.6960 C   0  0  0  0  0  0  0  0  0  0  0  0
  190.8940  177.0520  139.3130 C   0  0  0  0  0  3  0  0  0  0  0  0
  190.2730  177.8290  141.9290 C   0  0  0  0  0  0  0  0  0  0  0  0
  189.9360  178.2800  143.3150 C   0  0  0  0  0  2  0  0  0  0  0  0
  189.3210  177.1700  144.1710 C   0  0  2  0  0  3  0  0  0  0  0  0
  188.0020  177.6110  144.7910 C   0  0  0  0  0  2  0  0  0  0  0  0
  186.6120  177.0880  143.7420 S   0  0  0  0  0  0  0  0  0  0  0  0
  185.6040  178.5240  144.2070 C   0  0  0  0  0  2  0  0  0  0  0  0
  185.8230  178.8480  145.6710 C   0  0  0  0  0  2  0  0  0  0  0  0
  183.5940  179.1330  145.7860 O   0  0  0  0  0  1  0  0  0  0  0  0
  184.6230  178.5240  146.4200 N   0  0  0  0  0  2  0  0  0  0  0  0
  190.2160  176.7580  145.1640 O   0  0  0  0  0  0  0  0  0  0  0  0
  189.8600  177.4650  146.2620 N   0  0  0  0  0  2  0  0  0  0  0  0
  190.5840  176.8880  147.3820 C   0  0  0  0  0  2  0  0  0  0  0  0
  192.7000  175.7470  148.0280 C   0  0  0  0  0  1  0  0  0  0  0  0
  191.7740  176.0920  146.8780 C   0  0  0  0  0  2  0  0  0  0  0  0
  188.4690  176.9950  138.7030 C   0  0  0  0  0  2  0  0  0  0  0  0
  189.0600  179.5590  138.1930 O   0  0  0  0  0  0  0  0  0  0  0  0
  189.0260  178.0050  136.2970 O   0  0  0  0  0  0  0  0  0  0  0  0
  188.3490  178.3810  137.5870 S   0  0  0  0  0  0  0  0  0  0  0  0
  186.6510  178.7770  137.3660 N   0  0  0  0  0  0  0  0  0  0  0  0
  185.6990  177.6810  136.9530 C   0  0  2  0  0  0  0  0  0  0  0  0
  186.2380  176.3640  136.9330 O   0  0  0  0  0  0  0  0  0  0  0  0
  186.3810  177.0690  135.7590 C   0  0  0  0  0  2  0  0  0  0  0  0
  185.9410  178.0230  138.3710 C   0  0  2  0  0  3  0  0  0  0  0  0
  184.7920  178.8560  138.8990 C   0  0  0  0  0  3  0  0  0  0  0  0
  183.8340  177.9560  139.6510 C   0  0  0  0  0  2  0  0  0  0  0  0
  184.8110  178.8230  140.4140 C   0  0  0  0  0  2  0  0  0  0  0  0
  1  4  1  0  0  0  0
  2  1  1  0  0  0  0
  3  7  1  0  0  0  0
  4  7  2  0  0  0  0
  5  3  2  0  0  0  0
  6  5  1  0  0  0  0
  6  1  2  0  0  0  0
  7  8  1  0  0  0  0
  9  8  1  1  0  0  0
  9 10  1  0  0  0  0
  9 16  1  0  0  0  0
 11 12  1  0  0  0  0
 11 10  1  0  0  0  0
 12 13  1  0  0  0  0
 13 15  1  0  0  0  0
 14 15  1  0  0  0  0
 16 17  1  0  0  0  0
 17 18  1  0  0  0  0
 20 18  1  0  0  0  0
 20 19  1  0  0  0  0
 21  5  1  0  0  0  0
 23 24  2  0  0  0  0
 24 22  2  0  0  0  0
 24 21  1  0  0  0  0
 25 24  1  0  0  0  0
 25 29  1  0  0  0  0
 26 28  1  6  0  0  0
 26 25  1  0  0  0  0
 26 29  1  0  0  0  0
 27 26  1  0  0  0  0
 28 27  1  0  0  0  0
 29 30  1  6  0  0  0
 30 31  1  0  0  0  0
 30 32  1  0  0  0  0
 31 32  1  0  0  0  0
M  END
>  <MODEL>
1

>  <REMARK>
 VINA RESULT:      -6.6      0.000      0.000
  Name = 
  15 active torsions:
  status: ('A' for Active; 'I' for Inactive)
    1  A    between atoms: C_1  and  C_30
    2  A    between atoms: N_2  and  S_27
    3  A    between atoms: C_6  and  S_17
    4  A    between atoms: C_6  and  C_31
    5  A    between atoms: C_7  and  C_26
    6  A    between atoms: C_7  and  C_31
    7  A    between atoms: O_9  and  C_31
    8  A    between atoms: O_9  and  N_32
    9  A    between atoms: C_12  and  C_28
   10  A    between atoms: C_12  and  N_32
   11  A    between atoms: C_16  and  C_20
   12  A    between atoms: C_16  and  S_27
   13  A    between atoms: S_17  and  C_29
   14  A    between atoms: C_18  and  N_25
   15  A    between atoms: C_18  and  C_29
                            x       y       z     vdW  Elec       q    Type
                         _______ _______ _______ _____ _____    ______ ____

>  <TORSDO>
F 15

$$$$
=
 OpenBabel10272413203D

 32 35  0  0  1  0  0  0  0  0999 V2000
  190.2820  178.7440  143.6630 C   0  0  0  0  0  0  0  0  0  0  0  0
  191.2250  179.6140  144.0970 F   0  0  0  0  0  0  0  0  0  0  0  0
  188.3320  176.9520  142.7680 C   0  0  0  0  0  3  0  0  0  0  0  0
  189.2740  178.3150  144.5330 C   0  0  0  0  0  3  0  0  0  0  0  0
  189.3390  177.3810  141.8960 C   0  0  0  0  0  0  0  0  0  0  0  0
  190.3110  178.2810  142.3440 C   0  0  0  0  0  3  0  0  0  0  0  0
  188.2960  177.4180  144.0860 C   0  0  0  0  0  0  0  0  0  0  0  0
  187.1960  176.9830  145.0000 C   0  0  0  0  0  2  0  0  0  0  0  0
  186.9520  177.9640  146.1490 C   0  0  2  0  0  3  0  0  0  0  0  0
  187.3350  177.3560  147.4920 C   0  0  0  0  0  2  0  0  0  0  0  0
  188.9220  178.0380  148.0570 S   0  0  0  0  0  0  0  0  0  0  0  0
  189.8440  176.5660  147.5320 C   0  0  0  0  0  2  0  0  0  0  0  0
  191.3070  176.9170  147.3550 C   0  0  0  0  0  2  0  0  0  0  0  0
  193.1020  175.9050  148.2590 O   0  0  0  0  0  1  0  0  0  0  0  0
  192.1000  175.7020  147.3720 N   0  0  0  0  0  2  0  0  0  0  0  0
  185.6180  178.3850  146.1650 O   0  0  0  0  0  0  0  0  0  0  0  0
  185.5630  179.3860  145.2550 N   0  0  0  0  0  2  0  0  0  0  0  0
  184.4420  179.0900  144.3780 C   0  0  0  0  0  2  0  0  0  0  0  0
  184.2440  178.2130  142.0570 C   0  0  0  0  0  1  0  0  0  0  0  0
  184.8460  179.2980  142.9300 C   0  0  0  0  0  2  0  0  0  0  0  0
  189.3580  176.9060  140.4850 C   0  0  0  0  0  2  0  0  0  0  0  0
  187.1950  178.4740  140.2680 O   0  0  0  0  0  0  0  0  0  0  0  0
  189.1860  179.1080  138.9860 O   0  0  0  0  0  0  0  0  0  0  0  0
  188.3440  177.9510  139.4530 S   0  0  0  0  0  0  0  0  0  0  0  0
  187.7220  176.9880  138.1210 N   0  0  0  0  0  0  0  0  0  0  0  0
  186.8680  177.6620  137.0760 C   0  0  2  0  0  0  0  0  0  0  0  0
  186.7690  179.0790  137.1720 O   0  0  0  0  0  0  0  0  0  0  0  0
  185.8290  178.3790  137.8950 C   0  0  0  0  0  2  0  0  0  0  0  0
  188.3340  177.5280  136.9310 C   0  0  2  0  0  3  0  0  0  0  0  0
  188.6520  176.3970  135.9770 C   0  0  0  0  0  3  0  0  0  0  0  0
  189.0030  176.9760  134.6230 C   0  0  0  0  0  2  0  0  0  0  0  0
  190.1010  176.5010  135.5490 C   0  0  0  0  0  2  0  0  0  0  0  0
  1  2  1  0  0  0  0
  1  4  1  0  0  0  0
  3  7  1  0  0  0  0
  5  6  1  0  0  0  0
  5  3  2  0  0  0  0
  6  1  2  0  0  0  0
  7  4  2  0  0  0  0
  7  8  1  0  0  0  0
  9  8  1  6  0  0  0
  9 16  1  0  0  0  0
  9 10  1  0  0  0  0
 10 11  1  0  0  0  0
 12 11  1  0  0  0  0
 13 15  1  0  0  0  0
 13 12  1  0  0  0  0
 15 14  1  0  0  0  0
 17 16  1  0  0  0  0
 18 17  1  0  0  0  0
 19 20  1  0  0  0  0
 20 18  1  0  0  0  0
 21  5  1  0  0  0  0
 23 24  2  0  0  0  0
 24 22  2  0  0  0  0
 24 21  1  0  0  0  0
 25 24  1  0  0  0  0
 26 27  1  0  0  0  0
 26 28  1  6  0  0  0
 26 25  1  0  0  0  0
 27 28  1  0  0  0  0
 29 30  1  6  0  0  0
 29 26  1  0  0  0  0
 29 25  1  0  0  0  0
 31 32  1  0  0  0  0
 31 30  1  0  0  0  0
 32 30  1  0  0  0  0
M  END
>  <MODEL>
2

>  <REMARK>
 VINA RESULT:      -6.6      2.327      5.197
  Name = 
  15 active torsions:
  status: ('A' for Active; 'I' for Inactive)
    1  A    between atoms: C_1  and  C_30
    2  A    between atoms: N_2  and  S_27
    3  A    between atoms: C_6  and  S_17
    4  A    between atoms: C_6  and  C_31
    5  A    between atoms: C_7  and  C_26
    6  A    between atoms: C_7  and  C_31
    7  A    between atoms: O_9  and  C_31
    8  A    between atoms: O_9  and  N_32
    9  A    between atoms: C_12  and  C_28
   10  A    between atoms: C_12  and  N_32
   11  A    between atoms: C_16  and  C_20
   12  A    between atoms: C_16  and  S_27
   13  A    between atoms: S_17  and  C_29
   14  A    between atoms: C_18  and  N_25
   15  A    between atoms: C_18  and  C_29
                            x       y       z     vdW  Elec       q    Type
                         _______ _______ _______ _____ _____    ______ ____

>  <TORSDO>
F 15

$$$$
=
 OpenBabel10272413203D

 32 35  0  0  1  0  0  0  0  0999 V2000
  184.9820  178.4690  144.6140 C   0  0  0  0  0  0  0  0  0  0  0  0
  184.1860  178.6700  145.6900 F   0  0  0  0  0  0  0  0  0  0  0  0
  186.6250  178.0510  142.3910 C   0  0  0  0  0  3  0  0  0  0  0  0
  186.1440  177.7010  144.7370 C   0  0  0  0  0  3  0  0  0  0  0  0
  185.4630  178.8200  142.2650 C   0  0  0  0  0  0  0  0  0  0  0  0
  184.6390  179.0240  143.3760 C   0  0  0  0  0  3  0  0  0  0  0  0
  186.9670  177.4890  143.6250 C   0  0  0  0  0  0  0  0  0  0  0  0
  188.1930  176.6400  143.7430 C   0  0  0  0  0  2  0  0  0  0  0  0
  189.4900  177.4470  143.6470 C   0  0  2  0  0  3  0  0  0  0  0  0
  190.6390  176.5930  143.1270 C   0  0  0  0  0  2  0  0  0  0  0  0
  191.4870  177.4490  141.7650 S   0  0  0  0  0  0  0  0  0  0  0  0
  190.4630  176.6430  140.5020 C   0  0  0  0  0  2  0  0  0  0  0  0
  190.2880  177.5720  139.3190 C   0  0  0  0  0  2  0  0  0  0  0  0
  189.0100  179.2030  138.4420 O   0  0  0  0  0  1  0  0  0  0  0  0
  189.1500  178.4420  139.5530 N   0  0  0  0  0  2  0  0  0  0  0  0
  189.8170  178.0060  144.8860 O   0  0  0  0  0  0  0  0  0  0  0  0
  190.8440  177.2530  145.3430 N   0  0  0  0  0  2  0  0  0  0  0  0
  190.3950  176.6430  146.5830 C   0  0  0  0  0  2  0  0  0  0  0  0
  188.2780  176.8870  147.8710 C   0  0  0  0  0  1  0  0  0  0  0  0
  189.5040  177.6080  147.3450 C   0  0  0  0  0  2  0  0  0  0  0  0
  185.0850  179.3920  140.9430 C   0  0  0  0  0  2  0  0  0  0  0  0
  183.8600  178.4830  138.7400 O   0  0  0  0  0  0  0  0  0  0  0  0
  183.7620  177.0820  140.7500 O   0  0  0  0  0  0  0  0  0  0  0  0
  183.7140  178.4960  140.2350 S   0  0  0  0  0  0  0  0  0  0  0  0
  182.2230  179.3200  140.6680 N   0  0  0  0  0  0  0  0  0  0  0  0
  180.9070  178.6770  140.3060 C   0  0  2  0  0  0  0  0  0  0  0  0
  180.9850  177.3570  139.7790 O   0  0  0  0  0  0  0  0  0  0  0  0
  181.0720  178.3640  138.8430 C   0  0  0  0  0  2  0  0  0  0  0  0
  181.5610  178.4560  141.6140 C   0  0  2  0  0  3  0  0  0  0  0  0
  180.8840  179.3020  142.6720 C   0  0  0  0  0  3  0  0  0  0  0  0
  179.9830  178.4190  143.5090 C   0  0  0  0  0  2  0  0  0  0  0  0
  181.3360  178.8380  144.0420 C   0  0  0  0  0  2  0  0  0  0  0  0
  1  4  1  0  0  0  0
  1  2  1  0  0  0  0
  3  7  1  0  0  0  0
  5  3  2  0  0  0  0
  5  6  1  0  0  0  0
  6  1  2  0  0  0  0
  7  8  1  0  0  0  0
  7  4  2  0  0  0  0
  9 10  1  1  0  0  0
  9  8  1  0  0  0  0
  9 16  1  0  0  0  0
 11 10  1  0  0  0  0
 12 11  1  0  0  0  0
 13 15  1  0  0  0  0
 13 12  1  0  0  0  0
 14 15  1  0  0  0  0
 16 17  1  0  0  0  0
 17 18  1  0  0  0  0
 18 20  1  0  0  0  0
 20 19  1  0  0  0  0
 21  5  1  0  0  0  0
 22 24  2  0  0  0  0
 24 25  1  0  0  0  0
 24 23  2  0  0  0  0
 24 21  1  0  0  0  0
 25 29  1  0  0  0  0
 26 28  1  6  0  0  0
 26 25  1  0  0  0  0
 26 29  1  0  0  0  0
 27 26  1  0  0  0  0
 28 27  1  0  0  0  0
 29 30  1  1  0  0  0
 30 31  1  0  0  0  0
 30 32  1  0  0  0  0
 31 32  1  0  0  0  0
M  END
>  <MODEL>
3

>  <REMARK>
 VINA RESULT:      -6.6      3.585      5.731
  Name = 
  15 active torsions:
  status: ('A' for Active; 'I' for Inactive)
    1  A    between atoms: C_1  and  C_30
    2  A    between atoms: N_2  and  S_27
    3  A    between atoms: C_6  and  S_17
    4  A    between atoms: C_6  and  C_31
    5  A    between atoms: C_7  and  C_26
    6  A    between atoms: C_7  and  C_31
    7  A    between atoms: O_9  and  C_31
    8  A    between atoms: O_9  and  N_32
    9  A    between atoms: C_12  and  C_28
   10  A    between atoms: C_12  and  N_32
   11  A    between atoms: C_16  and  C_20
   12  A    between atoms: C_16  and  S_27
   13  A    between atoms: S_17  and  C_29
   14  A    between atoms: C_18  and  N_25
   15  A    between atoms: C_18  and  C_29
                            x       y       z     vdW  Elec       q    Type
                         _______ _______ _______ _____ _____    ______ ____

>  <TORSDO>
F 15

$$$$
=
 OpenBabel10272413203D

 32 35  0  0  1  0  0  0  0  0999 V2000
  185.4400  178.2390  145.2540 C   0  0  0  0  0  0  0  0  0  0  0  0
  185.0120  178.4700  146.5180 F   0  0  0  0  0  0  0  0  0  0  0  0
  186.3250  177.7660  142.6450 C   0  0  0  0  0  3  0  0  0  0  0  0
  184.7950  178.8520  144.1750 C   0  0  0  0  0  3  0  0  0  0  0  0
  186.9710  177.1520  143.7240 C   0  0  0  0  0  0  0  0  0  0  0  0
  186.5310  177.3940  145.0280 C   0  0  0  0  0  3  0  0  0  0  0  0
  185.2380  178.6170  142.8680 C   0  0  0  0  0  0  0  0  0  0  0  0
  184.5750  179.2980  141.7120 C   0  0  0  0  0  2  0  0  0  0  0  0
  184.3280  178.3590  140.5290 C   0  0  2  0  0  3  0  0  0  0  0  0
  184.3480  179.1120  139.2060 C   0  0  0  0  0  2  0  0  0  0  0  0
  184.9790  178.0370  137.8830 S   0  0  0  0  0  0  0  0  0  0  0  0
  186.6730  178.0780  138.5340 C   0  0  0  0  0  2  0  0  0  0  0  0
  187.6580  177.8500  137.4060 C   0  0  0  0  0  2  0  0  0  0  0  0
  188.9310  179.7000  137.5460 O   0  0  0  0  0  1  0  0  0  0  0  0
  187.9770  179.1200  136.7800 N   0  0  0  0  0  2  0  0  0  0  0  0
  183.1180  177.6750  140.6840 O   0  0  0  0  0  0  0  0  0  0  0  0
  182.1710  178.6420  140.6590 N   0  0  0  0  0  2  0  0  0  0  0  0
  180.9250  177.9950  140.2820 C   0  0  0  0  0  2  0  0  0  0  0  0
  180.6480  180.3690  139.5830 C   0  0  0  0  0  1  0  0  0  0  0  0
  179.9880  179.0040  139.6430 C   0  0  0  0  0  2  0  0  0  0  0  0
  188.1470  176.2700  143.4860 C   0  0  0  0  0  2  0  0  0  0  0  0
  190.8220  176.3930  143.6040 O   0  0  0  0  0  0  0  0  0  0  0  0
  189.5690  178.4180  144.1850 O   0  0  0  0  0  0  0  0  0  0  0  0
  189.5970  176.9170  144.2990 S   0  0  0  0  0  0  0  0  0  0  0  0
  189.5950  176.3680  145.9690 N   0  0  0  0  0  0  0  0  0  0  0  0
  190.7700  176.7190  146.8490 C   0  0  2  0  0  0  0  0  0  0  0  0
  191.7210  177.6170  146.2880 O   0  0  0  0  0  0  0  0  0  0  0  0
  191.9530  176.2850  146.0270 C   0  0  0  0  0  2  0  0  0  0  0  0
  189.5590  177.5650  146.7730 C   0  0  2  0  0  3  0  0  0  0  0  0
  188.6890  177.3230  147.9870 C   0  0  0  0  0  3  0  0  0  0  0  0
  189.0320  178.3440  149.0520 C   0  0  0  0  0  2  0  0  0  0  0  0
  187.7930  178.5260  148.2030 C   0  0  0  0  0  2  0  0  0  0  0  0
  1  2  1  0  0  0  0
  3  7  2  0  0  0  0
  3  5  1  0  0  0  0
  4  1  2  0  0  0  0
  5  6  2  0  0  0  0
  6  1  1  0  0  0  0
  7  4  1  0  0  0  0
  8  7  1  0  0  0  0
  9 10  1  6  0  0  0
  9 16  1  0  0  0  0
  9  8  1  0  0  0  0
 11 12  1  0  0  0  0
 11 10  1  0  0  0  0
 13 12  1  0  0  0  0
 15 13  1  0  0  0  0
 15 14  1  0  0  0  0
 17 16  1  0  0  0  0
 18 17  1  0  0  0  0
 19 20  1  0  0  0  0
 20 18  1  0  0  0  0
 21  5  1  0  0  0  0
 21 24  1  0  0  0  0
 22 24  2  0  0  0  0
 23 24  2  0  0  0  0
 24 25  1  0  0  0  0
 25 29  1  0  0  0  0
 25 26  1  0  0  0  0
 26 28  1  1  0  0  0
 27 26  1  0  0  0  0
 28 27  1  0  0  0  0
 29 26  1  0  0  0  0
 29 30  1  1  0  0  0
 30 32  1  0  0  0  0
 30 31  1  0  0  0  0
 32 31  1  0  0  0  0
M  END
>  <MODEL>
4

>  <REMARK>
 VINA RESULT:      -6.5      3.270      8.970
  Name = 
  15 active torsions:
  status: ('A' for Active; 'I' for Inactive)
    1  A    between atoms: C_1  and  C_30
    2  A    between atoms: N_2  and  S_27
    3  A    between atoms: C_6  and  S_17
    4  A    between atoms: C_6  and  C_31
    5  A    between atoms: C_7  and  C_26
    6  A    between atoms: C_7  and  C_31
    7  A    between atoms: O_9  and  C_31
    8  A    between atoms: O_9  and  N_32
    9  A    between atoms: C_12  and  C_28
   10  A    between atoms: C_12  and  N_32
   11  A    between atoms: C_16  and  C_20
   12  A    between atoms: C_16  and  S_27
   13  A    between atoms: S_17  and  C_29
   14  A    between atoms: C_18  and  N_25
   15  A    between atoms: C_18  and  C_29
                            x       y       z     vdW  Elec       q    Type
                         _______ _______ _______ _____ _____    ______ ____

>  <TORSDO>
F 15

$$$$
=
 OpenBabel10272413203D

 32 35  0  0  1  0  0  0  0  0999 V2000
  189.8360  176.3000  142.4440 C   0  0  0  0  0  0  0  0  0  0  0  0
  190.8310  175.4770  142.8510 F   0  0  0  0  0  0  0  0  0  0  0  0
  187.7830  178.0030  141.6070 C   0  0  0  0  0  3  0  0  0  0  0  0
  188.6580  176.3960  143.1910 C   0  0  0  0  0  3  0  0  0  0  0  0
  188.9620  177.9090  140.8580 C   0  0  0  0  0  0  0  0  0  0  0  0
  189.9900  177.0610  141.2800 C   0  0  0  0  0  3  0  0  0  0  0  0
  187.6300  177.2490  142.7740 C   0  0  0  0  0  0  0  0  0  0  0  0
  186.3810  177.3810  143.5880 C   0  0  0  0  0  2  0  0  0  0  0  0
  186.6020  178.1410  144.8980 C   0  0  2  0  0  3  0  0  0  0  0  0
  186.7130  177.1900  146.0820 C   0  0  0  0  0  2  0  0  0  0  0  0
  187.6920  177.9540  147.4090 S   0  0  0  0  0  0  0  0  0  0  0  0
  189.2580  177.6760  146.5360 C   0  0  0  0  0  2  0  0  0  0  0  0
  190.2090  176.9050  147.4280 C   0  0  0  0  0  2  0  0  0  0  0  0
  192.3850  176.4440  147.7680 O   0  0  0  0  0  1  0  0  0  0  0  0
  191.5230  176.8640  146.8130 N   0  0  0  0  0  2  0  0  0  0  0  0
  185.5760  179.0690  145.1100 O   0  0  0  0  0  0  0  0  0  0  0  0
  185.1230  179.3690  143.8700 N   0  0  0  0  0  2  0  0  0  0  0  0
  183.7760  179.8900  144.0340 C   0  0  0  0  0  2  0  0  0  0  0  0
  181.5560  178.8270  143.6570 C   0  0  0  0  0  1  0  0  0  0  0  0
  182.8380  178.7780  144.4670 C   0  0  0  0  0  2  0  0  0  0  0  0
  189.1350  178.7360  139.6310 C   0  0  0  0  0  2  0  0  0  0  0  0
  189.2100  178.1320  137.0210 O   0  0  0  0  0  0  0  0  0  0  0  0
  188.1760  176.5010  138.5320 O   0  0  0  0  0  0  0  0  0  0  0  0
  188.3370  177.9680  138.2330 S   0  0  0  0  0  0  0  0  0  0  0  0
  186.7990  178.7720  137.9550 N   0  0  0  0  0  0  0  0  0  0  0  0
  185.7060  178.0180  137.2380 C   0  0  2  0  0  0  0  0  0  0  0  0
  185.9620  176.6410  136.9850 O   0  0  0  0  0  0  0  0  0  0  0  0
  186.3990  177.5040  136.0050 C   0  0  0  0  0  2  0  0  0  0  0  0
  185.8250  178.0230  138.7120 C   0  0  2  0  0  3  0  0  0  0  0  0
  184.8120  178.9790  139.3040 C   0  0  0  0  0  3  0  0  0  0  0  0
  183.4260  178.3870  139.1500 C   0  0  0  0  0  2  0  0  0  0  0  0
  184.1340  178.3140  140.4850 C   0  0  0  0  0  2  0  0  0  0  0  0
  1  2  1  0  0  0  0
  1  4  1  0  0  0  0
  3  7  1  0  0  0  0
  5  6  1  0  0  0  0
  5  3  2  0  0  0  0
  6  1  2  0  0  0  0
  7  4  2  0  0  0  0
  7  8  1  0  0  0  0
  9  8  1  6  0  0  0
  9 16  1  0  0  0  0
  9 10  1  0  0  0  0
 10 11  1  0  0  0  0
 12 11  1  0  0  0  0
 12 13  1  0  0  0  0
 15 13  1  0  0  0  0
 15 14  1  0  0  0  0
 17 18  1  0  0  0  0
 17 16  1  0  0  0  0
 18 20  1  0  0  0  0
 19 20  1  0  0  0  0
 21  5  1  0  0  0  0
 22 24  2  0  0  0  0
 24 23  2  0  0  0  0
 24 21  1  0  0  0  0
 25 24  1  0  0  0  0
 25 29  1  0  0  0  0
 26 28  1  6  0  0  0
 26 25  1  0  0  0  0
 26 29  1  0  0  0  0
 27 26  1  0  0  0  0
 28 27  1  0  0  0  0
 29 30  1  1  0  0  0
 30 32  1  0  0  0  0
 31 30  1  0  0  0  0
 31 32  1  0  0  0  0
M  END
>  <MODEL>
5

>  <REMARK>
 VINA RESULT:      -6.5      1.980      4.588
  Name = 
  15 active torsions:
  status: ('A' for Active; 'I' for Inactive)
    1  A    between atoms: C_1  and  C_30
    2  A    between atoms: N_2  and  S_27
    3  A    between atoms: C_6  and  S_17
    4  A    between atoms: C_6  and  C_31
    5  A    between atoms: C_7  and  C_26
    6  A    between atoms: C_7  and  C_31
    7  A    between atoms: O_9  and  C_31
    8  A    between atoms: O_9  and  N_32
    9  A    between atoms: C_12  and  C_28
   10  A    between atoms: C_12  and  N_32
   11  A    between atoms: C_16  and  C_20
   12  A    between atoms: C_16  and  S_27
   13  A    between atoms: S_17  and  C_29
   14  A    between atoms: C_18  and  N_25
   15  A    between atoms: C_18  and  C_29
                            x       y       z     vdW  Elec       q    Type
                         _______ _______ _______ _____ _____    ______ ____

>  <TORSDO>
F 15

$$$$
=
 OpenBabel10272413203D

 32 35  0  0  1  0  0  0  0  0999 V2000
  191.8280  177.2630  140.5110 C   0  0  0  0  0  0  0  0  0  0  0  0
  193.1790  177.2400  140.4230 F   0  0  0  0  0  0  0  0  0  0  0  0
  189.0380  177.3070  140.6910 C   0  0  0  0  0  3  0  0  0  0  0  0
  191.0700  177.8340  139.4840 C   0  0  0  0  0  3  0  0  0  0  0  0
  189.7960  176.7340  141.7200 C   0  0  0  0  0  0  0  0  0  0  0  0
  191.1900  176.7080  141.6260 C   0  0  0  0  0  3  0  0  0  0  0  0
  189.6730  177.8560  139.5730 C   0  0  0  0  0  0  0  0  0  0  0  0
  188.8550  178.4340  138.4620 C   0  0  0  0  0  2  0  0  0  0  0  0
  187.4100  177.9290  138.4590 C   0  0  2  0  0  3  0  0  0  0  0  0
  186.8620  177.8160  137.0430 C   0  0  0  0  0  2  0  0  0  0  0  0
  187.9250  176.7290  136.0460 S   0  0  0  0  0  0  0  0  0  0  0  0
  187.5570  175.2790  137.0730 C   0  0  0  0  0  2  0  0  0  0  0  0
  188.6150  174.2170  136.8530 C   0  0  0  0  0  2  0  0  0  0  0  0
  190.4570  174.7520  138.0300 O   0  0  0  0  0  1  0  0  0  0  0  0
  189.9220  174.8440  136.7890 N   0  0  0  0  0  2  0  0  0  0  0  0
  186.5940  178.7600  139.2350 O   0  0  0  0  0  0  0  0  0  0  0  0
  185.3970  178.7520  138.6040 N   0  0  0  0  0  2  0  0  0  0  0  0
  184.3830  178.6160  139.6360 C   0  0  0  0  0  2  0  0  0  0  0  0
  184.3670  178.1760  142.0870 C   0  0  0  0  0  1  0  0  0  0  0  0
  184.9500  179.0350  140.9810 C   0  0  0  0  0  2  0  0  0  0  0  0
  189.1170  176.1230  142.8960 C   0  0  0  0  0  2  0  0  0  0  0  0
  190.7960  176.5330  144.9440 O   0  0  0  0  0  0  0  0  0  0  0  0
  189.6340  178.4860  144.0250 O   0  0  0  0  0  0  0  0  0  0  0  0
  189.4930  177.0310  144.3850 S   0  0  0  0  0  0  0  0  0  0  0  0
  188.2110  176.7470  145.5530 N   0  0  0  0  0  0  0  0  0  0  0  0
  188.3020  177.4110  146.9050 C   0  0  2  0  0  0  0  0  0  0  0  0
  189.3540  178.3570  147.0640 O   0  0  0  0  0  0  0  0  0  0  0  0
  189.6890  177.0560  147.3680 C   0  0  0  0  0  2  0  0  0  0  0  0
  187.5870  178.0290  145.7670 C   0  0  2  0  0  3  0  0  0  0  0  0
  186.0960  177.8360  145.9350 C   0  0  0  0  0  3  0  0  0  0  0  0
  185.5860  178.8050  146.9810 C   0  0  0  0  0  2  0  0  0  0  0  0
  185.3800  179.1030  145.5120 C   0  0  0  0  0  2  0  0  0  0  0  0
  1  6  1  0  0  0  0
  2  1  1  0  0  0  0
  3  5  1  0  0  0  0
  4  7  1  0  0  0  0
  4  1  2  0  0  0  0
  5 21  1  0  0  0  0
  6  5  2  0  0  0  0
  7  3  2  0  0  0  0
  8  7  1  0  0  0  0
  9 10  1  6  0  0  0
  9  8  1  0  0  0  0
  9 16  1  0  0  0  0
 11 10  1  0  0  0  0
 11 12  1  0  0  0  0
 13 12  1  0  0  0  0
 15 13  1  0  0  0  0
 15 14  1  0  0  0  0
 17 16  1  0  0  0  0
 17 18  1  0  0  0  0
 18 20  1  0  0  0  0
 20 19  1  0  0  0  0
 21 24  1  0  0  0  0
 23 24  2  0  0  0  0
 24 22  2  0  0  0  0
 24 25  1  0  0  0  0
 25 29  1  0  0  0  0
 25 26  1  0  0  0  0
 26 27  1  0  0  0  0
 26 28  1  1  0  0  0
 27 28  1  0  0  0  0
 29 30  1  1  0  0  0
 29 26  1  0  0  0  0
 30 31  1  0  0  0  0
 32 30  1  0  0  0  0
 32 31  1  0  0  0  0
M  END
>  <MODEL>
6

>  <REMARK>
 VINA RESULT:      -6.4      2.171      7.693
  Name = 
  15 active torsions:
  status: ('A' for Active; 'I' for Inactive)
    1  A    between atoms: C_1  and  C_30
    2  A    between atoms: N_2  and  S_27
    3  A    between atoms: C_6  and  S_17
    4  A    between atoms: C_6  and  C_31
    5  A    between atoms: C_7  and  C_26
    6  A    between atoms: C_7  and  C_31
    7  A    between atoms: O_9  and  C_31
    8  A    between atoms: O_9  and  N_32
    9  A    between atoms: C_12  and  C_28
   10  A    between atoms: C_12  and  N_32
   11  A    between atoms: C_16  and  C_20
   12  A    between atoms: C_16  and  S_27
   13  A    between atoms: S_17  and  C_29
   14  A    between atoms: C_18  and  N_25
   15  A    between atoms: C_18  and  C_29
                            x       y       z     vdW  Elec       q    Type
                         _______ _______ _______ _____ _____    ______ ____

>  <TORSDO>
F 15

$$$$
=
 OpenBabel10272413203D

 32 35  0  0  1  0  0  0  0  0999 V2000
  184.7390  178.4440  144.6380 C   0  0  0  0  0  0  0  0  0  0  0  0
  184.1000  178.5380  145.8280 F   0  0  0  0  0  0  0  0  0  0  0  0
  186.0580  178.2530  142.1800 C   0  0  0  0  0  3  0  0  0  0  0  0
  184.0010  178.3690  143.4520 C   0  0  0  0  0  3  0  0  0  0  0  0
  186.7980  178.3290  143.3660 C   0  0  0  0  0  0  0  0  0  0  0  0
  186.1370  178.4300  144.5940 C   0  0  0  0  0  3  0  0  0  0  0  0
  184.6610  178.2740  142.2210 C   0  0  0  0  0  0  0  0  0  0  0  0
  183.8780  178.2290  140.9470 C   0  0  0  0  0  2  0  0  0  0  0  0
  184.5510  178.9950  139.8050 C   0  0  2  0  0  3  0  0  0  0  0  0
  183.5770  179.9450  139.1220 C   0  0  0  0  0  2  0  0  0  0  0  0
  181.8690  179.3750  139.3710 S   0  0  0  0  0  0  0  0  0  0  0  0
  181.2480  180.3360  137.9620 C   0  0  0  0  0  2  0  0  0  0  0  0
  181.4080  181.8160  138.2440 C   0  0  0  0  0  2  0  0  0  0  0  0
  180.4450  183.7770  137.7060 O   0  0  0  0  0  1  0  0  0  0  0  0
  180.1460  182.4920  138.0090 N   0  0  0  0  0  2  0  0  0  0  0  0
  185.1050  178.1090  138.8750 O   0  0  0  0  0  0  0  0  0  0  0  0
  186.1400  178.7900  138.3270 N   0  0  0  0  0  2  0  0  0  0  0  0
  187.2330  177.8420  138.1840 C   0  0  0  0  0  2  0  0  0  0  0  0
  189.6660  177.8670  138.7100 C   0  0  0  0  0  1  0  0  0  0  0  0
  188.2710  178.0790  139.2660 C   0  0  0  0  0  2  0  0  0  0  0  0
  188.2860  178.3370  143.3180 C   0  0  0  0  0  2  0  0  0  0  0  0
  187.7770  175.7060  143.2960 O   0  0  0  0  0  0  0  0  0  0  0  0
  189.7480  176.4880  142.0650 O   0  0  0  0  0  0  0  0  0  0  0  0
  188.9270  176.6720  143.3140 S   0  0  0  0  0  0  0  0  0  0  0  0
  189.8680  176.4300  144.7790 N   0  0  0  0  0  0  0  0  0  0  0  0
  190.9100  177.4570  145.1500 C   0  0  2  0  0  0  0  0  0  0  0  0
  190.9320  178.6360  144.3530 O   0  0  0  0  0  0  0  0  0  0  0  0
  191.7110  177.6020  143.8840 C   0  0  0  0  0  2  0  0  0  0  0  0
  189.5200  177.5260  145.6510 C   0  0  2  0  0  3  0  0  0  0  0  0
  189.4670  177.0280  147.0790 C   0  0  0  0  0  3  0  0  0  0  0  0
  189.1500  178.1910  147.9960 C   0  0  0  0  0  2  0  0  0  0  0  0
  188.0620  177.2110  147.6170 C   0  0  0  0  0  2  0  0  0  0  0  0
  1  2  1  0  0  0  0
  3  7  2  0  0  0  0
  3  5  1  0  0  0  0
  4  1  2  0  0  0  0
  5  6  2  0  0  0  0
  6  1  1  0  0  0  0
  7  4  1  0  0  0  0
  8  7  1  0  0  0  0
  9 10  1  6  0  0  0
  9  8  1  0  0  0  0
 10 11  1  0  0  0  0
 12 13  1  0  0  0  0
 12 11  1  0  0  0  0
 14 15  1  0  0  0  0
 15 13  1  0  0  0  0
 16  9  1  0  0  0  0
 17 16  1  0  0  0  0
 18 17  1  0  0  0  0
 18 20  1  0  0  0  0
 19 20  1  0  0  0  0
 21  5  1  0  0  0  0
 22 24  2  0  0  0  0
 23 24  2  0  0  0  0
 24 21  1  0  0  0  0
 24 25  1  0  0  0  0
 25 26  1  0  0  0  0
 25 29  1  0  0  0  0
 26 28  1  1  0  0  0
 26 29  1  0  0  0  0
 27 26  1  0  0  0  0
 28 27  1  0  0  0  0
 29 30  1  1  0  0  0
 30 32  1  0  0  0  0
 30 31  1  0  0  0  0
 32 31  1  0  0  0  0
M  END
>  <MODEL>
7

>  <REMARK>
 VINA RESULT:      -6.4      3.709      8.162
  Name = 
  15 active torsions:
  status: ('A' for Active; 'I' for Inactive)
    1  A    between atoms: C_1  and  C_30
    2  A    between atoms: N_2  and  S_27
    3  A    between atoms: C_6  and  S_17
    4  A    between atoms: C_6  and  C_31
    5  A    between atoms: C_7  and  C_26
    6  A    between atoms: C_7  and  C_31
    7  A    between atoms: O_9  and  C_31
    8  A    between atoms: O_9  and  N_32
    9  A    between atoms: C_12  and  C_28
   10  A    between atoms: C_12  and  N_32
   11  A    between atoms: C_16  and  C_20
   12  A    between atoms: C_16  and  S_27
   13  A    between atoms: S_17  and  C_29
   14  A    between atoms: C_18  and  N_25
   15  A    between atoms: C_18  and  C_29
                            x       y       z     vdW  Elec       q    Type
                         _______ _______ _______ _____ _____    ______ ____

>  <TORSDO>
F 15

$$$$
=
 OpenBabel10272413203D

 32 35  0  0  1  0  0  0  0  0999 V2000
  184.4260  178.6830  145.0650 C   0  0  0  0  0  0  0  0  0  0  0  0
  183.8860  179.0550  146.2500 F   0  0  0  0  0  0  0  0  0  0  0  0
  185.5390  177.9120  142.6200 C   0  0  0  0  0  3  0  0  0  0  0  0
  185.6740  178.0550  145.0320 C   0  0  0  0  0  3  0  0  0  0  0  0
  184.2880  178.5390  142.6510 C   0  0  0  0  0  0  0  0  0  0  0  0
  183.7300  178.9200  143.8750 C   0  0  0  0  0  3  0  0  0  0  0  0
  186.2330  177.6670  143.8090 C   0  0  0  0  0  0  0  0  0  0  0  0
  187.5530  176.9640  143.7690 C   0  0  0  0  0  2  0  0  0  0  0  0
  188.7010  177.8750  143.3280 C   0  0  2  0  0  3  0  0  0  0  0  0
  189.0890  177.6180  141.8780 C   0  0  0  0  0  2  0  0  0  0  0  0
  190.8400  177.1390  141.7750 S   0  0  0  0  0  0  0  0  0  0  0  0
  190.8880  177.3630  139.9750 C   0  0  0  0  0  2  0  0  0  0  0  0
  189.4820  177.5580  139.4470 C   0  0  0  0  0  2  0  0  0  0  0  0
  188.9420  179.3620  138.2150 O   0  0  0  0  0  1  0  0  0  0  0  0
  189.5410  178.1510  138.1240 N   0  0  0  0  0  2  0  0  0  0  0  0
  189.8080  177.7170  144.1670 O   0  0  0  0  0  0  0  0  0  0  0  0
  189.3880  176.8680  145.1340 N   0  0  0  0  0  2  0  0  0  0  0  0
  189.6520  177.5210  146.4050 C   0  0  0  0  0  2  0  0  0  0  0  0
  188.6020  178.1450  148.5750 C   0  0  0  0  0  1  0  0  0  0  0  0
  188.5520  177.1900  147.3980 C   0  0  0  0  0  2  0  0  0  0  0  0
  183.5370  178.7710  141.3860 C   0  0  0  0  0  2  0  0  0  0  0  0
  184.1340  180.1740  139.1820 O   0  0  0  0  0  0  0  0  0  0  0  0
  185.9970  179.4360  140.5940 O   0  0  0  0  0  0  0  0  0  0  0  0
  184.6580  179.0470  140.0260 S   0  0  0  0  0  0  0  0  0  0  0  0
  184.7360  177.5820  139.0590 N   0  0  0  0  0  0  0  0  0  0  0  0
  183.6610  177.3340  138.0290 C   0  0  2  0  0  0  0  0  0  0  0  0
  182.7480  178.4050  137.8140 O   0  0  0  0  0  0  0  0  0  0  0  0
  182.3900  177.5260  138.8110 C   0  0  0  0  0  2  0  0  0  0  0  0
  184.9280  178.0230  137.6990 C   0  0  2  0  0  3  0  0  0  0  0  0
  185.8610  177.0640  136.9910 C   0  0  0  0  0  3  0  0  0  0  0  0
  185.4770  176.9900  135.5280 C   0  0  0  0  0  2  0  0  0  0  0  0
  186.6630  177.8260  135.9550 C   0  0  0  0  0  2  0  0  0  0  0  0
  1  2  1  0  0  0  0
  3  5  2  0  0  0  0
  3  7  1  0  0  0  0
  4  1  1  0  0  0  0
  5  6  1  0  0  0  0
  6  1  2  0  0  0  0
  7  4  2  0  0  0  0
  8  7  1  0  0  0  0
  9 10  1  6  0  0  0
  9  8  1  0  0  0  0
  9 16  1  0  0  0  0
 11 10  1  0  0  0  0
 12 11  1  0  0  0  0
 13 12  1  0  0  0  0
 15 14  1  0  0  0  0
 15 13  1  0  0  0  0
 16 17  1  0  0  0  0
 17 18  1  0  0  0  0
 18 20  1  0  0  0  0
 20 19  1  0  0  0  0
 21  5  1  0  0  0  0
 22 24  2  0  0  0  0
 24 23  2  0  0  0  0
 24 21  1  0  0  0  0
 25 24  1  0  0  0  0
 26 28  1  6  0  0  0
 26 25  1  0  0  0  0
 27 26  1  0  0  0  0
 27 28  1  0  0  0  0
 29 30  1  6  0  0  0
 29 26  1  0  0  0  0
 29 25  1  0  0  0  0
 31 32  1  0  0  0  0
 31 30  1  0  0  0  0
 32 30  1  0  0  0  0
M  END
>  <MODEL>
8

>  <REMARK>
 VINA RESULT:      -6.3      3.151      5.570
  Name = 
  15 active torsions:
  status: ('A' for Active; 'I' for Inactive)
    1  A    between atoms: C_1  and  C_30
    2  A    between atoms: N_2  and  S_27
    3  A    between atoms: C_6  and  S_17
    4  A    between atoms: C_6  and  C_31
    5  A    between atoms: C_7  and  C_26
    6  A    between atoms: C_7  and  C_31
    7  A    between atoms: O_9  and  C_31
    8  A    between atoms: O_9  and  N_32
    9  A    between atoms: C_12  and  C_28
   10  A    between atoms: C_12  and  N_32
   11  A    between atoms: C_16  and  C_20
   12  A    between atoms: C_16  and  S_27
   13  A    between atoms: S_17  and  C_29
   14  A    between atoms: C_18  and  N_25
   15  A    between atoms: C_18  and  C_29
                            x       y       z     vdW  Elec       q    Type
                         _______ _______ _______ _____ _____    ______ ____

>  <TORSDO>
F 15

$$$$
=
 OpenBabel10272413203D

 32 35  0  0  1  0  0  0  0  0999 V2000
  189.1830  177.9030  139.9030 C   0  0  0  0  0  0  0  0  0  0  0  0
  189.8120  178.0050  138.7080 F   0  0  0  0  0  0  0  0  0  0  0  0
  187.8820  177.6890  142.3680 C   0  0  0  0  0  3  0  0  0  0  0  0
  187.9800  178.5820  140.1200 C   0  0  0  0  0  3  0  0  0  0  0  0
  189.0860  177.0080  142.1520 C   0  0  0  0  0  0  0  0  0  0  0  0
  189.7320  177.1120  140.9170 C   0  0  0  0  0  3  0  0  0  0  0  0
  187.3260  178.4740  141.3540 C   0  0  0  0  0  0  0  0  0  0  0  0
  186.0210  179.1700  141.5800 C   0  0  0  0  0  2  0  0  0  0  0  0
  184.8170  178.2330  141.4590 C   0  0  2  0  0  3  0  0  0  0  0  0
  183.8470  178.7090  140.3860 C   0  0  0  0  0  2  0  0  0  0  0  0
  184.4180  178.1730  138.7450 S   0  0  0  0  0  0  0  0  0  0  0  0
  182.9000  177.2320  138.4250 C   0  0  0  0  0  2  0  0  0  0  0  0
  182.1940  176.9430  139.7330 C   0  0  0  0  0  2  0  0  0  0  0  0
  180.1830  176.0240  140.1550 O   0  0  0  0  0  1  0  0  0  0  0  0
  181.3820  175.7490  139.5890 N   0  0  0  0  0  2  0  0  0  0  0  0
  184.1630  178.1070  142.6890 O   0  0  0  0  0  0  0  0  0  0  0  0
  183.0380  178.8490  142.5580 N   0  0  0  0  0  2  0  0  0  0  0  0
  182.4460  178.9440  143.8810 C   0  0  0  0  0  2  0  0  0  0  0  0
  180.3900  179.0750  142.4830 C   0  0  0  0  0  1  0  0  0  0  0  0
  180.9640  178.6230  143.8120 C   0  0  0  0  0  2  0  0  0  0  0  0
  189.6600  176.1480  143.2240 C   0  0  0  0  0  2  0  0  0  0  0  0
  191.0500  176.5790  145.4740 O   0  0  0  0  0  0  0  0  0  0  0  0
  189.9990  178.5180  144.4030 O   0  0  0  0  0  0  0  0  0  0  0  0
  189.8270  177.0620  144.7470 S   0  0  0  0  0  0  0  0  0  0  0  0
  188.4050  176.7660  145.7360 N   0  0  0  0  0  0  0  0  0  0  0  0
  188.3130  177.4280  147.0890 C   0  0  2  0  0  0  0  0  0  0  0  0
  189.3280  178.3800  147.3860 O   0  0  0  0  0  0  0  0  0  0  0  0
  189.6290  177.0810  147.7290 C   0  0  0  0  0  2  0  0  0  0  0  0
  187.7490  178.0440  145.8680 C   0  0  2  0  0  3  0  0  0  0  0  0
  186.2500  177.8400  145.8380 C   0  0  0  0  0  3  0  0  0  0  0  0
  185.6310  178.5460  147.0260 C   0  0  0  0  0  2  0  0  0  0  0  0
  185.5700  179.1820  145.6550 C   0  0  0  0  0  2  0  0  0  0  0  0
  1  4  2  0  0  0  0
  1  6  1  0  0  0  0
  2  1  1  0  0  0  0
  4  7  1  0  0  0  0
  5  3  1  0  0  0  0
  5 21  1  0  0  0  0
  6  5  2  0  0  0  0
  7  8  1  0  0  0  0
  7  3  2  0  0  0  0
  9 10  1  6  0  0  0
  9  8  1  0  0  0  0
  9 16  1  0  0  0  0
 11 10  1  0  0  0  0
 12 11  1  0  0  0  0
 12 13  1  0  0  0  0
 15 13  1  0  0  0  0
 15 14  1  0  0  0  0
 17 16  1  0  0  0  0
 17 18  1  0  0  0  0
 19 20  1  0  0  0  0
 20 18  1  0  0  0  0
 21 24  1  0  0  0  0
 23 24  2  0  0  0  0
 24 22  2  0  0  0  0
 24 25  1  0  0  0  0
 25 29  1  0  0  0  0
 25 26  1  0  0  0  0
 26 27  1  0  0  0  0
 26 28  1  1  0  0  0
 27 28  1  0  0  0  0
 29 30  1  1  0  0  0
 29 26  1  0  0  0  0
 30 31  1  0  0  0  0
 32 30  1  0  0  0  0
 32 31  1  0  0  0  0
M  END
>  <MODEL>
9

>  <REMARK>
 VINA RESULT:      -6.3      3.305      7.451
  Name = 
  15 active torsions:
  status: ('A' for Active; 'I' for Inactive)
    1  A    between atoms: C_1  and  C_30
    2  A    between atoms: N_2  and  S_27
    3  A    between atoms: C_6  and  S_17
    4  A    between atoms: C_6  and  C_31
    5  A    between atoms: C_7  and  C_26
    6  A    between atoms: C_7  and  C_31
    7  A    between atoms: O_9  and  C_31
    8  A    between atoms: O_9  and  N_32
    9  A    between atoms: C_12  and  C_28
   10  A    between atoms: C_12  and  N_32
   11  A    between atoms: C_16  and  C_20
   12  A    between atoms: C_16  and  S_27
   13  A    between atoms: S_17  and  C_29
   14  A    between atoms: C_18  and  N_25
   15  A    between atoms: C_18  and  C_29
                            x       y       z     vdW  Elec       q    Type
                         _______ _______ _______ _____ _____    ______ ____

>  <TORSDO>
F 15

$$$$
