=
 OpenBabel10272400013D

 34 38  0  0  1  0  0  0  0  0999 V2000
  188.8460  177.7330  138.0340 C   0  0  0  0  0  0  0  0  0  0  0  0
  186.9530  178.3030  139.1660 C   0  0  2  0  0  3  0  0  0  0  0  0
  188.9810  177.8910  140.4340 C   0  0  0  0  0  0  0  0  0  0  0  0
  188.5220  177.3360  142.8790 C   0  0  1  0  0  3  0  0  0  0  0  0
  186.6910  178.0100  137.8900 C   0  0  2  0  0  3  0  0  0  0  0  0
  185.3230  177.8300  137.3300 C   0  0  0  0  0  1  0  0  0  0  0  0
  186.8640  178.6140  141.6410 C   0  0  1  0  0  3  0  0  0  0  0  0
  188.3590  178.1300  139.3020 C   0  0  0  0  0  0  0  0  0  0  0  0
  187.3010  177.5180  143.7680 C   0  0  0  0  0  2  0  0  0  0  0  0
  187.8860  177.6290  137.1710 N   0  0  0  0  0  0  0  0  0  0  0  0
  190.8790  176.9860  138.9730 C   0  0  0  0  0  3  0  0  0  0  0  0
  190.1460  177.1600  137.9020 N   0  0  0  0  0  0  0  0  0  0  0  0
  186.0530  178.2650  140.3650 C   0  0  0  0  0  2  0  0  0  0  0  0
  186.1830  178.0600  142.8760 C   0  0  1  0  0  3  0  0  0  0  0  0
  188.2120  178.0290  141.6450 N   0  0  0  0  0  0  0  0  0  0  0  0
  190.4000  177.3490  140.3860 C   0  0  0  0  0  2  0  0  0  0  0  0
  185.4100  179.1610  143.5860 C   0  0  0  0  0  2  0  0  0  0  0  0
  185.0400  178.7510  145.0040 C   0  0  0  0  0  2  0  0  0  0  0  0
  183.5410  178.8420  145.2100 C   0  0  0  0  0  2  0  0  0  0  0  0
  182.8810  179.2900  143.9210 C   0  0  0  0  0  2  0  0  0  0  0  0
  181.4580  178.7620  143.8400 C   0  0  0  0  0  2  0  0  0  0  0  0
  180.7690  179.2690  142.6110 C   0  0  0  0  0  0  0  0  0  0  0  0
  180.2490  180.4150  142.6280 O   0  0  0  0  0  0  0  0  0  0  0  0
  181.5860  178.6010  140.3810 C   0  0  0  0  0  1  0  0  0  0  0  0
  180.6660  178.4910  141.4550 O   0  0  0  0  0  0  0  0  0  0  0  0
  189.7430  177.9640  143.5420 C   0  0  0  0  0  2  0  0  0  0  0  0
  190.7460  176.9010  143.9600 C   0  0  0  0  0  2  0  0  0  0  0  0
  190.4220  176.3790  145.3490 C   0  0  2  0  0  3  0  0  0  0  0  0
  190.0140  177.5390  146.2340 C   0  0  2  0  0  3  0  0  0  0  0  0
  191.4200  176.9350  146.3440 C   0  0  1  0  0  3  0  0  0  0  0  0
  189.0380  177.0610  147.2660 C   0  0  0  0  0  3  0  0  0  0  0  0
  187.9150  177.7410  147.4860 C   0  0  0  0  0  2  0  0  0  0  0  0
  191.6140  175.9340  147.4770 C   0  0  0  0  0  2  0  0  0  0  0  0
  192.9440  175.9530  147.8910 O   0  0  0  0  0  1  0  0  0  0  0  0
  1  8  1  0  0  0  0
  2  8  1  0  0  0  0
  2 13  1  1  0  0  0
  3 15  1  0  0  0  0
  4 26  1  1  0  0  0
  4  9  1  0  0  0  0
  5  6  1  1  0  0  0
  5  2  1  0  0  0  0
  7 13  1  6  0  0  0
  7 15  1  0  0  0  0
  7 14  1  0  0  0  0
  8  3  2  0  0  0  0
 10  5  1  0  0  0  0
 10  1  2  0  0  0  0
 11 16  1  0  0  0  0
 12  1  1  0  0  0  0
 12 11  2  0  0  0  0
 14 17  1  1  0  0  0
 14  9  1  0  0  0  0
 15  4  1  0  0  0  0
 16  3  1  0  0  0  0
 17 18  1  0  0  0  0
 18 19  1  0  0  0  0
 20 19  1  0  0  0  0
 21 20  1  0  0  0  0
 22 23  2  0  0  0  0
 22 21  1  0  0  0  0
 24 25  1  0  0  0  0
 25 22  1  0  0  0  0
 26 27  1  0  0  0  0
 28 27  1  6  0  0  0
 28 29  1  0  0  0  0
 28 30  1  0  0  0  0
 29 30  1  0  0  0  0
 29 31  1  1  0  0  0
 30 33  1  1  0  0  0
 31 32  2  0  0  0  0
 33 34  1  0  0  0  0
M  END
>  <MODEL>
1

>  <REMARK>
 VINA RESULT:      -8.1      0.000      0.000
  Name = 
  12 active torsions:
  status: ('A' for Active; 'I' for Inactive)
    1  A    between atoms: C_3  and  C_13
    2  A    between atoms: C_3  and  C_17
    3  A    between atoms: C_5  and  C_26
    4  A    between atoms: C_7  and  C_16
    5  A    between atoms: C_12  and  C_28
    6  A    between atoms: C_13  and  C_33
    7  A    between atoms: O_14  and  C_20
    8  A    between atoms: C_17  and  C_29
    9  A    between atoms: C_20  and  C_34
   10  A    between atoms: C_23  and  C_27
   11  A    between atoms: C_26  and  C_28
   12  A    between atoms: C_33  and  C_34
                            x       y       z     vdW  Elec       q    Type
                         _______ _______ _______ _____ _____    ______ ____

>  <TORSDO>
F 12

$$$$
=
 OpenBabel10272400013D

 34 38  0  0  1  0  0  0  0  0999 V2000
  182.5820  179.0160  140.8710 C   0  0  0  0  0  0  0  0  0  0  0  0
  182.9590  178.9660  143.1180 C   0  0  2  0  0  3  0  0  0  0  0  0
  184.8550  178.7380  141.6200 C   0  0  0  0  0  0  0  0  0  0  0  0
  186.8710  177.6470  142.7350 C   0  0  1  0  0  3  0  0  0  0  0  0
  181.6570  178.8740  142.8380 C   0  0  2  0  0  3  0  0  0  0  0  0
  180.6040  178.5320  143.8330 C   0  0  0  0  0  1  0  0  0  0  0  0
  185.2320  178.7750  144.1330 C   0  0  1  0  0  3  0  0  0  0  0  0
  183.6030  179.0570  141.8510 C   0  0  0  0  0  0  0  0  0  0  0  0
  187.2410  177.4060  144.1900 C   0  0  0  0  0  2  0  0  0  0  0  0
  181.4130  178.8870  141.4140 N   0  0  0  0  0  0  0  0  0  0  0  0
  184.1430  178.5300  139.1690 C   0  0  0  0  0  3  0  0  0  0  0  0
  182.8970  178.7530  139.5060 N   0  0  0  0  0  0  0  0  0  0  0  0
  183.7150  178.5190  144.3340 C   0  0  0  0  0  2  0  0  0  0  0  0
  186.0510  177.8710  145.0310 C   0  0  1  0  0  3  0  0  0  0  0  0
  185.6890  178.4850  142.7680 N   0  0  0  0  0  0  0  0  0  0  0  0
  185.2960  178.5120  140.1830 C   0  0  0  0  0  2  0  0  0  0  0  0
  186.5220  178.6370  146.2580 C   0  0  0  0  0  2  0  0  0  0  0  0
  187.0930  177.6990  147.3110 C   0  0  0  0  0  2  0  0  0  0  0  0
  187.9590  178.4640  148.2920 C   0  0  0  0  0  2  0  0  0  0  0  0
  189.4040  178.0300  148.1330 C   0  0  0  0  0  2  0  0  0  0  0  0
  189.4990  176.8180  147.2200 C   0  0  0  0  0  2  0  0  0  0  0  0
  190.7850  176.8280  146.4530 C   0  0  0  0  0  0  0  0  0  0  0  0
  190.7480  176.8270  145.1950 O   0  0  0  0  0  0  0  0  0  0  0  0
  192.5270  175.6490  147.7410 C   0  0  0  0  0  1  0  0  0  0  0  0
  192.0230  176.8100  147.0980 O   0  0  0  0  0  0  0  0  0  0  0  0
  188.0090  178.3700  142.0240 C   0  0  0  0  0  2  0  0  0  0  0  0
  189.1660  177.4260  141.7420 C   0  0  0  0  0  2  0  0  0  0  0  0
  189.2250  177.0820  140.2640 C   0  0  2  0  0  3  0  0  0  0  0  0
  190.5590  177.5280  139.7000 C   0  0  2  0  0  3  0  0  0  0  0  0
  189.2920  178.3580  139.4490 C   0  0  1  0  0  3  0  0  0  0  0  0
  190.9540  176.6210  138.5750 C   0  0  0  0  0  3  0  0  0  0  0  0
  192.2390  176.4590  138.2710 C   0  0  0  0  0  2  0  0  0  0  0  0
  188.6200  178.1320  138.1000 C   0  0  0  0  0  2  0  0  0  0  0  0
  187.6340  177.1560  138.2300 O   0  0  0  0  0  1  0  0  0  0  0  0
  1 10  2  0  0  0  0
  1  8  1  0  0  0  0
  2 13  1  6  0  0  0
  3  8  2  0  0  0  0
  3 15  1  0  0  0  0
  4 26  1  6  0  0  0
  4 15  1  0  0  0  0
  4  9  1  0  0  0  0
  5  2  1  0  0  0  0
  5  6  1  6  0  0  0
  7 13  1  6  0  0  0
  7 14  1  0  0  0  0
  8  2  1  0  0  0  0
  9 14  1  0  0  0  0
 10  5  1  0  0  0  0
 11 12  2  0  0  0  0
 11 16  1  0  0  0  0
 12  1  1  0  0  0  0
 14 17  1  1  0  0  0
 15  7  1  0  0  0  0
 16  3  1  0  0  0  0
 17 18  1  0  0  0  0
 18 19  1  0  0  0  0
 20 19  1  0  0  0  0
 21 20  1  0  0  0  0
 22 25  1  0  0  0  0
 22 21  1  0  0  0  0
 23 22  2  0  0  0  0
 25 24  1  0  0  0  0
 27 26  1  0  0  0  0
 28 27  1  1  0  0  0
 29 31  1  6  0  0  0
 29 28  1  0  0  0  0
 30 33  1  6  0  0  0
 30 29  1  0  0  0  0
 30 28  1  0  0  0  0
 32 31  2  0  0  0  0
 33 34  1  0  0  0  0
M  END
>  <MODEL>
2

>  <REMARK>
 VINA RESULT:      -8.1      2.838      7.317
  Name = 
  12 active torsions:
  status: ('A' for Active; 'I' for Inactive)
    1  A    between atoms: C_3  and  C_13
    2  A    between atoms: C_3  and  C_17
    3  A    between atoms: C_5  and  C_26
    4  A    between atoms: C_7  and  C_16
    5  A    between atoms: C_12  and  C_28
    6  A    between atoms: C_13  and  C_33
    7  A    between atoms: O_14  and  C_20
    8  A    between atoms: C_17  and  C_29
    9  A    between atoms: C_20  and  C_34
   10  A    between atoms: C_23  and  C_27
   11  A    between atoms: C_26  and  C_28
   12  A    between atoms: C_33  and  C_34
                            x       y       z     vdW  Elec       q    Type
                         _______ _______ _______ _____ _____    ______ ____

>  <TORSDO>
F 12

$$$$
=
 OpenBabel10272400013D

 34 38  0  0  1  0  0  0  0  0999 V2000
  190.2340  177.1720  145.5780 C   0  0  0  0  0  0  0  0  0  0  0  0
  187.9740  177.4540  145.5050 C   0  0  2  0  0  3  0  0  0  0  0  0
  189.2060  177.4270  143.4130 C   0  0  0  0  0  0  0  0  0  0  0  0
  187.9380  178.5430  141.5040 C   0  0  1  0  0  3  0  0  0  0  0  0
  188.4430  177.5740  146.7490 C   0  0  2  0  0  3  0  0  0  0  0  0
  187.6470  178.0730  147.9050 C   0  0  0  0  0  1  0  0  0  0  0  0
  186.6750  177.6530  143.3830 C   0  0  1  0  0  3  0  0  0  0  0  0
  189.1210  177.1930  144.7030 C   0  0  0  0  0  0  0  0  0  0  0  0
  186.4770  178.9270  141.3210 C   0  0  0  0  0  2  0  0  0  0  0  0
  189.8780  177.4140  146.7990 N   0  0  0  0  0  0  0  0  0  0  0  0
  191.7410  177.3940  143.7740 C   0  0  0  0  0  3  0  0  0  0  0  0
  191.5620  177.2660  145.0650 N   0  0  0  0  0  0  0  0  0  0  0  0
  186.7170  177.9990  144.8940 C   0  0  0  0  0  2  0  0  0  0  0  0
  185.7690  178.6130  142.6390 C   0  0  1  0  0  3  0  0  0  0  0  0
  187.9850  177.7680  142.7290 N   0  0  0  0  0  0  0  0  0  0  0  0
  190.5820  177.4720  142.7700 C   0  0  0  0  0  2  0  0  0  0  0  0
  184.4150  177.9680  142.3860 C   0  0  0  0  0  2  0  0  0  0  0  0
  183.2840  178.8200  142.9410 C   0  0  0  0  0  2  0  0  0  0  0  0
  182.0970  178.8080  141.9970 C   0  0  0  0  0  2  0  0  0  0  0  0
  182.4760  178.0860  140.7190 C   0  0  0  0  0  2  0  0  0  0  0  0
  182.3390  179.0140  139.5230 C   0  0  0  0  0  2  0  0  0  0  0  0
  183.6690  179.2580  138.8800 C   0  0  0  0  0  0  0  0  0  0  0  0
  184.2680  180.3420  139.1000 O   0  0  0  0  0  0  0  0  0  0  0  0
  183.4830  177.3420  137.3360 C   0  0  0  0  0  1  0  0  0  0  0  0
  184.2490  178.3220  138.0200 O   0  0  0  0  0  0  0  0  0  0  0  0
  188.4020  177.6940  140.3270 C   0  0  0  0  0  2  0  0  0  0  0  0
  189.0190  178.5580  139.2380 C   0  0  0  0  0  2  0  0  0  0  0  0
  189.3190  177.7250  138.0040 C   0  0  2  0  0  3  0  0  0  0  0  0
  188.2890  176.6200  137.8850 C   0  0  2  0  0  3  0  0  0  0  0  0
  189.6950  176.3180  138.4230 C   0  0  1  0  0  3  0  0  0  0  0  0
  188.0800  176.2870  136.4390 C   0  0  0  0  0  3  0  0  0  0  0  0
  187.2140  176.9880  135.7130 C   0  0  0  0  0  2  0  0  0  0  0  0
  190.6700  175.7320  137.4080 C   0  0  0  0  0  2  0  0  0  0  0  0
  191.2360  174.5700  137.9250 O   0  0  0  0  0  1  0  0  0  0  0  0
  1 10  2  0  0  0  0
  2 13  1  6  0  0  0
  2  5  1  0  0  0  0
  3  8  2  0  0  0  0
  4 26  1  6  0  0  0
  4 15  1  0  0  0  0
  5 10  1  0  0  0  0
  5  6  1  6  0  0  0
  7 13  1  1  0  0  0
  8  2  1  0  0  0  0
  8  1  1  0  0  0  0
  9  4  1  0  0  0  0
  9 14  1  0  0  0  0
 11 12  2  0  0  0  0
 12  1  1  0  0  0  0
 14 17  1  6  0  0  0
 14  7  1  0  0  0  0
 15  7  1  0  0  0  0
 15  3  1  0  0  0  0
 16  3  1  0  0  0  0
 16 11  1  0  0  0  0
 17 18  1  0  0  0  0
 19 18  1  0  0  0  0
 20 19  1  0  0  0  0
 21 20  1  0  0  0  0
 22 23  2  0  0  0  0
 22 21  1  0  0  0  0
 24 25  1  0  0  0  0
 25 22  1  0  0  0  0
 27 26  1  0  0  0  0
 28 30  1  0  0  0  0
 28 27  1  1  0  0  0
 29 31  1  6  0  0  0
 29 28  1  0  0  0  0
 29 30  1  0  0  0  0
 30 33  1  6  0  0  0
 32 31  2  0  0  0  0
 33 34  1  0  0  0  0
M  END
>  <MODEL>
3

>  <REMARK>
 VINA RESULT:      -8.0      2.821      6.429
  Name = 
  12 active torsions:
  status: ('A' for Active; 'I' for Inactive)
    1  A    between atoms: C_3  and  C_13
    2  A    between atoms: C_3  and  C_17
    3  A    between atoms: C_5  and  C_26
    4  A    between atoms: C_7  and  C_16
    5  A    between atoms: C_12  and  C_28
    6  A    between atoms: C_13  and  C_33
    7  A    between atoms: O_14  and  C_20
    8  A    between atoms: C_17  and  C_29
    9  A    between atoms: C_20  and  C_34
   10  A    between atoms: C_23  and  C_27
   11  A    between atoms: C_26  and  C_28
   12  A    between atoms: C_33  and  C_34
                            x       y       z     vdW  Elec       q    Type
                         _______ _______ _______ _____ _____    ______ ____

>  <TORSDO>
F 12

$$$$
=
 OpenBabel10272400013D

 34 38  0  0  1  0  0  0  0  0999 V2000
  189.3490  177.4100  147.2580 C   0  0  0  0  0  0  0  0  0  0  0  0
  190.8560  176.9760  145.6040 C   0  0  2  0  0  3  0  0  0  0  0  0
  188.6890  177.8820  144.9880 C   0  0  0  0  0  0  0  0  0  0  0  0
  188.0900  177.4420  142.5500 C   0  0  1  0  0  3  0  0  0  0  0  0
  191.2400  176.4480  146.7680 C   0  0  2  0  0  3  0  0  0  0  0  0
  192.3690  175.4900  146.9260 C   0  0  0  0  0  1  0  0  0  0  0  0
  190.4370  177.4610  143.1910 C   0  0  1  0  0  3  0  0  0  0  0  0
  189.6140  177.6150  145.8820 C   0  0  0  0  0  0  0  0  0  0  0  0
  188.9170  177.0260  141.3430 C   0  0  0  0  0  2  0  0  0  0  0  0
  190.2800  176.7040  147.8160 N   0  0  0  0  0  0  0  0  0  0  0  0
  187.0810  178.0030  146.9780 C   0  0  0  0  0  3  0  0  0  0  0  0
  188.0420  177.6290  147.7850 N   0  0  0  0  0  0  0  0  0  0  0  0
  191.2230  176.5870  144.2030 C   0  0  0  0  0  2  0  0  0  0  0  0
  190.3370  176.7680  141.8480 C   0  0  1  0  0  3  0  0  0  0  0  0
  189.0490  177.7120  143.6040 N   0  0  0  0  0  0  0  0  0  0  0  0
  187.2820  178.2000  145.4680 C   0  0  0  0  0  2  0  0  0  0  0  0
  191.3660  177.3390  140.8850 C   0  0  0  0  0  2  0  0  0  0  0  0
  190.7350  177.6940  139.5470 C   0  0  0  0  0  2  0  0  0  0  0  0
  191.1390  176.6900  138.4860 C   0  0  0  0  0  2  0  0  0  0  0  0
  189.8960  176.1340  137.8190 C   0  0  0  0  0  2  0  0  0  0  0  0
  189.3700  177.1060  136.7760 C   0  0  0  0  0  2  0  0  0  0  0  0
  188.2540  177.9350  137.3330 C   0  0  0  0  0  0  0  0  0  0  0  0
  188.3690  179.1880  137.3500 O   0  0  0  0  0  0  0  0  0  0  0  0
  185.7970  177.7610  137.4760 C   0  0  0  0  0  1  0  0  0  0  0  0
  187.1000  177.3490  137.8590 O   0  0  0  0  0  0  0  0  0  0  0  0
  187.2980  178.7030  142.2260 C   0  0  0  0  0  2  0  0  0  0  0  0
  186.2580  178.4350  141.1500 C   0  0  0  0  0  2  0  0  0  0  0  0
  184.9100  179.0020  141.5600 C   0  0  2  0  0  3  0  0  0  0  0  0
  184.3550  178.1870  142.7110 C   0  0  2  0  0  3  0  0  0  0  0  0
  183.8260  177.9800  141.2850 C   0  0  1  0  0  3  0  0  0  0  0  0
  183.5050  179.0640  143.5790 C   0  0  0  0  0  3  0  0  0  0  0  0
  183.6050  178.9870  144.9030 C   0  0  0  0  0  2  0  0  0  0  0  0
  182.5220  178.7010  140.9610 C   0  0  0  0  0  2  0  0  0  0  0  0
  181.5290  177.7640  140.6880 O   0  0  0  0  0  1  0  0  0  0  0  0
  1 12  1  0  0  0  0
  1 10  2  0  0  0  0
  2 13  1  6  0  0  0
  2  8  1  0  0  0  0
  2  5  1  0  0  0  0
  3 16  1  0  0  0  0
  3  8  2  0  0  0  0
  4 26  1  6  0  0  0
  4 15  1  0  0  0  0
  5  6  1  6  0  0  0
  5 10  1  0  0  0  0
  7 15  1  0  0  0  0
  7 13  1  1  0  0  0
  8  1  1  0  0  0  0
  9 14  1  0  0  0  0
  9  4  1  0  0  0  0
 11 12  2  0  0  0  0
 14 17  1  6  0  0  0
 14  7  1  0  0  0  0
 15  3  1  0  0  0  0
 16 11  1  0  0  0  0
 18 17  1  0  0  0  0
 19 18  1  0  0  0  0
 20 19  1  0  0  0  0
 21 22  1  0  0  0  0
 21 20  1  0  0  0  0
 22 23  2  0  0  0  0
 22 25  1  0  0  0  0
 24 25  1  0  0  0  0
 27 26  1  0  0  0  0
 28 27  1  6  0  0  0
 28 29  1  0  0  0  0
 29 31  1  1  0  0  0
 30 33  1  1  0  0  0
 30 28  1  0  0  0  0
 30 29  1  0  0  0  0
 31 32  2  0  0  0  0
 34 33  1  0  0  0  0
M  END
>  <MODEL>
4

>  <REMARK>
 VINA RESULT:      -8.0      2.837      8.037
  Name = 
  12 active torsions:
  status: ('A' for Active; 'I' for Inactive)
    1  A    between atoms: C_3  and  C_13
    2  A    between atoms: C_3  and  C_17
    3  A    between atoms: C_5  and  C_26
    4  A    between atoms: C_7  and  C_16
    5  A    between atoms: C_12  and  C_28
    6  A    between atoms: C_13  and  C_33
    7  A    between atoms: O_14  and  C_20
    8  A    between atoms: C_17  and  C_29
    9  A    between atoms: C_20  and  C_34
   10  A    between atoms: C_23  and  C_27
   11  A    between atoms: C_26  and  C_28
   12  A    between atoms: C_33  and  C_34
                            x       y       z     vdW  Elec       q    Type
                         _______ _______ _______ _____ _____    ______ ____

>  <TORSDO>
F 12

$$$$
=
 OpenBabel10272400013D

 34 38  0  0  1  0  0  0  0  0999 V2000
  189.3330  177.4040  147.2290 C   0  0  0  0  0  0  0  0  0  0  0  0
  190.8400  177.0110  145.5660 C   0  0  2  0  0  3  0  0  0  0  0  0
  188.6590  177.8940  144.9680 C   0  0  0  0  0  0  0  0  0  0  0  0
  188.0580  177.4760  142.5260 C   0  0  1  0  0  3  0  0  0  0  0  0
  191.2350  176.4740  146.7220 C   0  0  2  0  0  3  0  0  0  0  0  0
  192.3780  175.5300  146.8650 C   0  0  0  0  0  1  0  0  0  0  0  0
  190.4060  177.5190  143.1600 C   0  0  1  0  0  3  0  0  0  0  0  0
  189.5900  177.6290  145.8550 C   0  0  0  0  0  0  0  0  0  0  0  0
  188.8870  177.0860  141.3120 C   0  0  0  0  0  2  0  0  0  0  0  0
  190.2750  176.7040  147.7760 N   0  0  0  0  0  0  0  0  0  0  0  0
  187.0560  177.9700  146.9630 C   0  0  0  0  0  3  0  0  0  0  0  0
  188.0250  177.5990  147.7630 N   0  0  0  0  0  0  0  0  0  0  0  0
  191.2080  176.6440  144.1590 C   0  0  0  0  0  2  0  0  0  0  0  0
  190.3110  176.8410  141.8090 C   0  0  1  0  0  3  0  0  0  0  0  0
  189.0170  177.7460  143.5800 N   0  0  0  0  0  0  0  0  0  0  0  0
  187.2500  178.1870  145.4560 C   0  0  0  0  0  2  0  0  0  0  0  0
  191.3300  177.4370  140.8500 C   0  0  0  0  0  2  0  0  0  0  0  0
  190.7930  177.4780  139.4270 C   0  0  0  0  0  2  0  0  0  0  0  0
  191.3970  176.3610  138.5990 C   0  0  0  0  0  2  0  0  0  0  0  0
  192.8940  176.5710  138.4840 C   0  0  0  0  0  2  0  0  0  0  0  0
  193.3810  176.1860  137.0960 C   0  0  0  0  0  2  0  0  0  0  0  0
  194.3680  175.0620  137.1700 C   0  0  0  0  0  0  0  0  0  0  0  0
  194.2080  174.0560  136.4310 O   0  0  0  0  0  0  0  0  0  0  0  0
  195.6980  174.0440  138.9810 C   0  0  0  0  0  1  0  0  0  0  0  0
  195.4460  175.0910  138.0570 O   0  0  0  0  0  0  0  0  0  0  0  0
  187.2480  178.7300  142.2200 C   0  0  0  0  0  2  0  0  0  0  0  0
  186.2200  178.4650  141.1310 C   0  0  0  0  0  2  0  0  0  0  0  0
  184.8580  178.9960  141.5450 C   0  0  2  0  0  3  0  0  0  0  0  0
  184.3000  178.1270  142.6540 C   0  0  2  0  0  3  0  0  0  0  0  0
  183.7930  177.9700  141.2130 C   0  0  1  0  0  3  0  0  0  0  0  0
  183.4260  178.9550  143.5450 C   0  0  0  0  0  3  0  0  0  0  0  0
  183.7580  179.1380  144.8200 C   0  0  0  0  0  2  0  0  0  0  0  0
  182.4840  178.6840  140.9010 C   0  0  0  0  0  2  0  0  0  0  0  0
  181.5760  177.7740  140.3630 O   0  0  0  0  0  1  0  0  0  0  0  0
  1 12  1  0  0  0  0
  1 10  2  0  0  0  0
  2 13  1  6  0  0  0
  2  8  1  0  0  0  0
  2  5  1  0  0  0  0
  3 16  1  0  0  0  0
  3  8  2  0  0  0  0
  4 26  1  6  0  0  0
  4 15  1  0  0  0  0
  5  6  1  6  0  0  0
  5 10  1  0  0  0  0
  7 15  1  0  0  0  0
  7 13  1  1  0  0  0
  8  1  1  0  0  0  0
  9 14  1  0  0  0  0
  9  4  1  0  0  0  0
 11 12  2  0  0  0  0
 14 17  1  6  0  0  0
 14  7  1  0  0  0  0
 15  3  1  0  0  0  0
 16 11  1  0  0  0  0
 18 17  1  0  0  0  0
 19 18  1  0  0  0  0
 20 19  1  0  0  0  0
 21 22  1  0  0  0  0
 21 20  1  0  0  0  0
 22 25  1  0  0  0  0
 23 22  2  0  0  0  0
 25 24  1  0  0  0  0
 27 26  1  0  0  0  0
 28 27  1  6  0  0  0
 28 29  1  0  0  0  0
 29 31  1  1  0  0  0
 30 33  1  1  0  0  0
 30 28  1  0  0  0  0
 30 29  1  0  0  0  0
 31 32  2  0  0  0  0
 34 33  1  0  0  0  0
M  END
>  <MODEL>
5

>  <REMARK>
 VINA RESULT:      -7.9      3.547      9.440
  Name = 
  12 active torsions:
  status: ('A' for Active; 'I' for Inactive)
    1  A    between atoms: C_3  and  C_13
    2  A    between atoms: C_3  and  C_17
    3  A    between atoms: C_5  and  C_26
    4  A    between atoms: C_7  and  C_16
    5  A    between atoms: C_12  and  C_28
    6  A    between atoms: C_13  and  C_33
    7  A    between atoms: O_14  and  C_20
    8  A    between atoms: C_17  and  C_29
    9  A    between atoms: C_20  and  C_34
   10  A    between atoms: C_23  and  C_27
   11  A    between atoms: C_26  and  C_28
   12  A    between atoms: C_33  and  C_34
                            x       y       z     vdW  Elec       q    Type
                         _______ _______ _______ _____ _____    ______ ____

>  <TORSDO>
F 12

$$$$
=
 OpenBabel10272400013D

 34 38  0  0  1  0  0  0  0  0999 V2000
  189.8010  177.6030  138.0110 C   0  0  0  0  0  0  0  0  0  0  0  0
  187.8300  178.3090  138.9110 C   0  0  2  0  0  3  0  0  0  0  0  0
  189.5620  177.4980  140.4060 C   0  0  0  0  0  0  0  0  0  0  0  0
  188.6500  176.7660  142.6710 C   0  0  1  0  0  3  0  0  0  0  0  0
  187.7460  178.1850  137.5850 C   0  0  2  0  0  3  0  0  0  0  0  0
  186.4750  178.2510  136.8120 C   0  0  0  0  0  1  0  0  0  0  0  0
  187.3790  178.3780  141.3650 C   0  0  1  0  0  3  0  0  0  0  0  0
  189.1650  177.9320  139.2320 C   0  0  0  0  0  0  0  0  0  0  0  0
  187.3320  177.0230  143.3850 C   0  0  0  0  0  2  0  0  0  0  0  0
  188.9870  177.7200  137.0100 N   0  0  0  0  0  0  0  0  0  0  0  0
  191.5500  176.4940  139.1430 C   0  0  0  0  0  3  0  0  0  0  0  0
  191.0270  176.8740  138.0040 N   0  0  0  0  0  0  0  0  0  0  0  0
  186.7500  178.2740  139.9510 C   0  0  0  0  0  2  0  0  0  0  0  0
  186.4460  177.8010  142.4100 C   0  0  1  0  0  3  0  0  0  0  0  0
  188.6290  177.6170  141.4980 N   0  0  0  0  0  0  0  0  0  0  0  0
  190.8950  176.7740  140.5030 C   0  0  0  0  0  2  0  0  0  0  0  0
  185.7050  178.9190  143.1260 C   0  0  0  0  0  2  0  0  0  0  0  0
  185.5790  178.6350  144.6160 C   0  0  0  0  0  2  0  0  0  0  0  0
  184.1320  178.7310  145.0550 C   0  0  0  0  0  2  0  0  0  0  0  0
  183.2910  179.2620  143.9100 C   0  0  0  0  0  2  0  0  0  0  0  0
  181.8280  178.9000  144.1110 C   0  0  0  0  0  2  0  0  0  0  0  0
  181.1340  178.7310  142.7950 C   0  0  0  0  0  0  0  0  0  0  0  0
  180.0400  178.1100  142.7540 O   0  0  0  0  0  0  0  0  0  0  0  0
  181.5760  178.5240  140.3770 C   0  0  0  0  0  1  0  0  0  0  0  0
  181.6850  179.2210  141.6090 O   0  0  0  0  0  0  0  0  0  0  0  0
  189.8130  177.1510  143.5770 C   0  0  0  0  0  2  0  0  0  0  0  0
  189.4290  178.2920  144.5060 C   0  0  0  0  0  2  0  0  0  0  0  0
  189.9340  178.0270  145.9140 C   0  0  2  0  0  3  0  0  0  0  0  0
  189.9300  176.5330  146.1710 C   0  0  2  0  0  3  0  0  0  0  0  0
  188.8190  177.4240  146.7450 C   0  0  1  0  0  3  0  0  0  0  0  0
  191.0260  176.1890  147.1330 C   0  0  0  0  0  3  0  0  0  0  0  0
  192.2390  175.8860  146.6790 C   0  0  0  0  0  2  0  0  0  0  0  0
  188.9990  177.8340  148.2030 C   0  0  0  0  0  2  0  0  0  0  0  0
  187.8400  177.5370  148.9150 O   0  0  0  0  0  1  0  0  0  0  0  0
  1  8  1  0  0  0  0
  2  8  1  0  0  0  0
  2 13  1  1  0  0  0
  3 16  1  0  0  0  0
  3 15  1  0  0  0  0
  4  9  1  0  0  0  0
  4 26  1  1  0  0  0
  5  6  1  1  0  0  0
  5  2  1  0  0  0  0
  7 13  1  6  0  0  0
  7 15  1  0  0  0  0
  7 14  1  0  0  0  0
  8  3  2  0  0  0  0
 10  5  1  0  0  0  0
 10  1  2  0  0  0  0
 11 16  1  0  0  0  0
 12  1  1  0  0  0  0
 12 11  2  0  0  0  0
 14 17  1  1  0  0  0
 14  9  1  0  0  0  0
 15  4  1  0  0  0  0
 17 18  1  0  0  0  0
 18 19  1  0  0  0  0
 20 21  1  0  0  0  0
 20 19  1  0  0  0  0
 22 21  1  0  0  0  0
 23 22  2  0  0  0  0
 24 25  1  0  0  0  0
 25 22  1  0  0  0  0
 26 27  1  0  0  0  0
 28 27  1  6  0  0  0
 28 29  1  0  0  0  0
 28 30  1  0  0  0  0
 29 30  1  0  0  0  0
 29 31  1  1  0  0  0
 30 33  1  1  0  0  0
 32 31  2  0  0  0  0
 33 34  1  0  0  0  0
M  END
>  <MODEL>
6

>  <REMARK>
 VINA RESULT:      -7.8      1.285      1.759
  Name = 
  12 active torsions:
  status: ('A' for Active; 'I' for Inactive)
    1  A    between atoms: C_3  and  C_13
    2  A    between atoms: C_3  and  C_17
    3  A    between atoms: C_5  and  C_26
    4  A    between atoms: C_7  and  C_16
    5  A    between atoms: C_12  and  C_28
    6  A    between atoms: C_13  and  C_33
    7  A    between atoms: O_14  and  C_20
    8  A    between atoms: C_17  and  C_29
    9  A    between atoms: C_20  and  C_34
   10  A    between atoms: C_23  and  C_27
   11  A    between atoms: C_26  and  C_28
   12  A    between atoms: C_33  and  C_34
                            x       y       z     vdW  Elec       q    Type
                         _______ _______ _______ _____ _____    ______ ____

>  <TORSDO>
F 12

$$$$
=
 OpenBabel10272400013D

 34 38  0  0  1  0  0  0  0  0999 V2000
  189.6030  177.0140  136.8490 C   0  0  0  0  0  0  0  0  0  0  0  0
  190.6630  176.3850  138.7660 C   0  0  2  0  0  3  0  0  0  0  0  0
  188.5830  177.6220  138.9460 C   0  0  0  0  0  0  0  0  0  0  0  0
  188.3050  178.7660  141.2070 C   0  0  1  0  0  3  0  0  0  0  0  0
  191.4420  176.2100  137.6960 C   0  0  2  0  0  3  0  0  0  0  0  0
  192.8940  175.8870  137.7540 C   0  0  0  0  0  1  0  0  0  0  0  0
  189.7610  176.8230  141.0520 C   0  0  1  0  0  3  0  0  0  0  0  0
  189.4460  176.9150  138.2530 C   0  0  0  0  0  0  0  0  0  0  0  0
  188.9950  178.5790  142.5500 C   0  0  0  0  0  2  0  0  0  0  0  0
  190.7820  176.6240  136.4790 N   0  0  0  0  0  0  0  0  0  0  0  0
  187.7480  178.4630  136.6750 C   0  0  0  0  0  3  0  0  0  0  0  0
  188.7080  177.8070  136.0730 N   0  0  0  0  0  0  0  0  0  0  0  0
  191.0370  176.5710  140.2070 C   0  0  0  0  0  2  0  0  0  0  0  0
  190.1030  177.5480  142.3370 C   0  0  1  0  0  3  0  0  0  0  0  0
  188.7790  177.6800  140.3720 N   0  0  0  0  0  0  0  0  0  0  0  0
  187.5440  178.4420  138.1970 C   0  0  0  0  0  2  0  0  0  0  0  0
  190.1570  176.5640  143.4960 C   0  0  0  0  0  2  0  0  0  0  0  0
  191.5920  176.2560  143.8950 C   0  0  0  0  0  2  0  0  0  0  0  0
  191.6910  176.0250  145.3890 C   0  0  0  0  0  2  0  0  0  0  0  0
  191.2350  177.2720  146.1230 C   0  0  0  0  0  2  0  0  0  0  0  0
  190.5030  176.8990  147.4020 C   0  0  0  0  0  2  0  0  0  0  0  0
  189.1260  177.4890  147.4200 C   0  0  0  0  0  0  0  0  0  0  0  0
  188.7740  178.1950  148.4000 O   0  0  0  0  0  0  0  0  0  0  0  0
  186.9250  177.8440  146.3630 C   0  0  0  0  0  1  0  0  0  0  0  0
  188.2140  177.2510  146.3890 O   0  0  0  0  0  0  0  0  0  0  0  0
  186.7940  178.6710  141.3830 C   0  0  0  0  0  2  0  0  0  0  0  0
  186.4380  177.9650  142.6820 C   0  0  0  0  0  2  0  0  0  0  0  0
  184.9420  178.0380  142.9350 C   0  0  2  0  0  3  0  0  0  0  0  0
  184.3140  178.9910  141.9390 C   0  0  2  0  0  3  0  0  0  0  0  0
  184.5730  179.4370  143.3850 C   0  0  1  0  0  3  0  0  0  0  0  0
  182.9080  178.5590  141.6530 C   0  0  0  0  0  3  0  0  0  0  0  0
  182.6720  177.6350  140.7270 C   0  0  0  0  0  2  0  0  0  0  0  0
  183.3680  179.3670  144.3160 C   0  0  0  0  0  2  0  0  0  0  0  0
  183.7930  179.0490  145.6030 O   0  0  0  0  0  1  0  0  0  0  0  0
  1  8  1  0  0  0  0
  2 13  1  1  0  0  0
  3 15  1  0  0  0  0
  4 26  1  1  0  0  0
  4  9  1  0  0  0  0
  5  6  1  1  0  0  0
  5  2  1  0  0  0  0
  7 13  1  6  0  0  0
  7 14  1  0  0  0  0
  8  2  1  0  0  0  0
  8  3  2  0  0  0  0
 10  1  2  0  0  0  0
 10  5  1  0  0  0  0
 11 16  1  0  0  0  0
 12 11  2  0  0  0  0
 12  1  1  0  0  0  0
 14  9  1  0  0  0  0
 14 17  1  1  0  0  0
 15  7  1  0  0  0  0
 15  4  1  0  0  0  0
 16  3  1  0  0  0  0
 17 18  1  0  0  0  0
 18 19  1  0  0  0  0
 19 20  1  0  0  0  0
 20 21  1  0  0  0  0
 21 22  1  0  0  0  0
 22 23  2  0  0  0  0
 24 25  1  0  0  0  0
 25 22  1  0  0  0  0
 26 27  1  0  0  0  0
 28 27  1  6  0  0  0
 28 30  1  0  0  0  0
 29 31  1  1  0  0  0
 29 28  1  0  0  0  0
 29 30  1  0  0  0  0
 30 33  1  1  0  0  0
 32 31  2  0  0  0  0
 33 34  1  0  0  0  0
M  END
>  <MODEL>
7

>  <REMARK>
 VINA RESULT:      -7.7      1.932      6.498
  Name = 
  12 active torsions:
  status: ('A' for Active; 'I' for Inactive)
    1  A    between atoms: C_3  and  C_13
    2  A    between atoms: C_3  and  C_17
    3  A    between atoms: C_5  and  C_26
    4  A    between atoms: C_7  and  C_16
    5  A    between atoms: C_12  and  C_28
    6  A    between atoms: C_13  and  C_33
    7  A    between atoms: O_14  and  C_20
    8  A    between atoms: C_17  and  C_29
    9  A    between atoms: C_20  and  C_34
   10  A    between atoms: C_23  and  C_27
   11  A    between atoms: C_26  and  C_28
   12  A    between atoms: C_33  and  C_34
                            x       y       z     vdW  Elec       q    Type
                         _______ _______ _______ _____ _____    ______ ____

>  <TORSDO>
F 12

$$$$
=
 OpenBabel10272400013D

 34 38  0  0  1  0  0  0  0  0999 V2000
  190.1630  177.0620  145.5080 C   0  0  0  0  0  0  0  0  0  0  0  0
  187.9160  177.4140  145.3650 C   0  0  2  0  0  3  0  0  0  0  0  0
  189.2110  177.3490  143.3130 C   0  0  0  0  0  0  0  0  0  0  0  0
  188.0390  178.5030  141.3660 C   0  0  1  0  0  3  0  0  0  0  0  0
  188.3500  177.5190  146.6230 C   0  0  2  0  0  3  0  0  0  0  0  0
  187.5340  178.0420  147.7540 C   0  0  0  0  0  1  0  0  0  0  0  0
  186.6900  177.6530  143.2040 C   0  0  1  0  0  3  0  0  0  0  0  0
  189.0790  177.1170  144.5990 C   0  0  0  0  0  0  0  0  0  0  0  0
  186.5970  178.9320  141.1370 C   0  0  0  0  0  2  0  0  0  0  0  0
  189.7770  177.3140  146.7180 N   0  0  0  0  0  0  0  0  0  0  0  0
  191.7320  177.2360  143.7520 C   0  0  0  0  0  3  0  0  0  0  0  0
  191.5090  177.1150  145.0370 N   0  0  0  0  0  0  0  0  0  0  0  0
  186.6960  177.9970  144.7160 C   0  0  0  0  0  2  0  0  0  0  0  0
  185.8390  178.6400  142.4330 C   0  0  1  0  0  3  0  0  0  0  0  0
  188.0230  177.7270  142.5900 N   0  0  0  0  0  0  0  0  0  0  0  0
  190.6080  177.3500  142.7120 C   0  0  0  0  0  2  0  0  0  0  0  0
  184.4740  178.0370  142.1370 C   0  0  0  0  0  2  0  0  0  0  0  0
  184.0610  178.2850  140.6940 C   0  0  0  0  0  2  0  0  0  0  0  0
  182.6550  177.7750  140.4480 C   0  0  0  0  0  2  0  0  0  0  0  0
  181.6850  178.9400  140.4690 C   0  0  0  0  0  2  0  0  0  0  0  0
  180.5250  178.6520  141.4080 C   0  0  0  0  0  2  0  0  0  0  0  0
  180.7610  179.2690  142.7530 C   0  0  0  0  0  0  0  0  0  0  0  0
  180.3550  180.4400  142.9690 O   0  0  0  0  0  0  0  0  0  0  0  0
  182.5260  179.1660  144.4730 C   0  0  0  0  0  1  0  0  0  0  0  0
  181.4430  178.5860  143.7620 O   0  0  0  0  0  0  0  0  0  0  0  0
  188.5130  177.6400  140.2030 C   0  0  0  0  0  2  0  0  0  0  0  0
  189.2840  178.4660  139.1870 C   0  0  0  0  0  2  0  0  0  0  0  0
  188.6120  178.4010  137.8270 C   0  0  2  0  0  3  0  0  0  0  0  0
  187.5270  177.3430  137.8570 C   0  0  2  0  0  3  0  0  0  0  0  0
  188.8800  177.0500  137.1940 C   0  0  1  0  0  3  0  0  0  0  0  0
  186.4290  177.7270  136.9120 C   0  0  0  0  0  3  0  0  0  0  0  0
  185.1580  177.5490  137.2610 C   0  0  0  0  0  2  0  0  0  0  0  0
  188.9090  177.1990  135.6780 C   0  0  0  0  0  2  0  0  0  0  0  0
  190.1190  176.7140  135.1870 O   0  0  0  0  0  1  0  0  0  0  0  0
  1 10  2  0  0  0  0
  2 13  1  6  0  0  0
  2  5  1  0  0  0  0
  3  8  2  0  0  0  0
  4 26  1  6  0  0  0
  4 15  1  0  0  0  0
  5 10  1  0  0  0  0
  5  6  1  6  0  0  0
  7 13  1  1  0  0  0
  8  2  1  0  0  0  0
  8  1  1  0  0  0  0
  9  4  1  0  0  0  0
  9 14  1  0  0  0  0
 11 12  2  0  0  0  0
 12  1  1  0  0  0  0
 14 17  1  6  0  0  0
 14  7  1  0  0  0  0
 15  7  1  0  0  0  0
 15  3  1  0  0  0  0
 16  3  1  0  0  0  0
 16 11  1  0  0  0  0
 18 17  1  0  0  0  0
 19 20  1  0  0  0  0
 19 18  1  0  0  0  0
 20 21  1  0  0  0  0
 21 22  1  0  0  0  0
 22 23  2  0  0  0  0
 22 25  1  0  0  0  0
 25 24  1  0  0  0  0
 27 26  1  0  0  0  0
 28 29  1  0  0  0  0
 28 27  1  1  0  0  0
 29 31  1  6  0  0  0
 30 33  1  6  0  0  0
 30 28  1  0  0  0  0
 30 29  1  0  0  0  0
 31 32  2  0  0  0  0
 34 33  1  0  0  0  0
M  END
>  <MODEL>
8

>  <REMARK>
 VINA RESULT:      -7.6      2.771      6.535
  Name = 
  12 active torsions:
  status: ('A' for Active; 'I' for Inactive)
    1  A    between atoms: C_3  and  C_13
    2  A    between atoms: C_3  and  C_17
    3  A    between atoms: C_5  and  C_26
    4  A    between atoms: C_7  and  C_16
    5  A    between atoms: C_12  and  C_28
    6  A    between atoms: C_13  and  C_33
    7  A    between atoms: O_14  and  C_20
    8  A    between atoms: C_17  and  C_29
    9  A    between atoms: C_20  and  C_34
   10  A    between atoms: C_23  and  C_27
   11  A    between atoms: C_26  and  C_28
   12  A    between atoms: C_33  and  C_34
                            x       y       z     vdW  Elec       q    Type
                         _______ _______ _______ _____ _____    ______ ____

>  <TORSDO>
F 12

$$$$
=
 OpenBabel10272400013D

 34 38  0  0  1  0  0  0  0  0999 V2000
  189.9730  177.4630  140.6300 C   0  0  0  0  0  0  0  0  0  0  0  0
  189.3660  177.2760  142.8190 C   0  0  2  0  0  3  0  0  0  0  0  0
  187.6820  177.9440  141.2030 C   0  0  0  0  0  0  0  0  0  0  0  0
  185.7040  179.1430  142.2740 C   0  0  1  0  0  3  0  0  0  0  0  0
  190.6920  177.2280  142.6720 C   0  0  2  0  0  3  0  0  0  0  0  0
  191.6660  177.2970  143.7970 C   0  0  0  0  0  1  0  0  0  0  0  0
  187.0370  177.6370  143.6420 C   0  0  1  0  0  3  0  0  0  0  0  0
  188.8550  177.4330  141.4990 C   0  0  0  0  0  0  0  0  0  0  0  0
  185.2120  179.2430  143.7100 C   0  0  0  0  0  2  0  0  0  0  0  0
  191.0840  177.3650  141.2890 N   0  0  0  0  0  0  0  0  0  0  0  0
  188.6730  178.3660  138.8790 C   0  0  0  0  0  3  0  0  0  0  0  0
  189.8400  177.9380  139.2920 N   0  0  0  0  0  0  0  0  0  0  0  0
  188.5430  177.6600  144.0120 C   0  0  0  0  0  2  0  0  0  0  0  0
  186.2410  178.5200  144.5800 C   0  0  1  0  0  3  0  0  0  0  0  0
  186.7670  178.1570  142.2950 N   0  0  0  0  0  0  0  0  0  0  0  0
  187.4280  178.4080  139.7780 C   0  0  0  0  0  2  0  0  0  0  0  0
  185.5530  177.6740  145.6400 C   0  0  0  0  0  2  0  0  0  0  0  0
  185.6460  178.3220  147.0130 C   0  0  0  0  0  2  0  0  0  0  0  0
  187.0680  178.7680  147.2950 C   0  0  0  0  0  2  0  0  0  0  0  0
  187.7490  177.7470  148.1860 C   0  0  0  0  0  2  0  0  0  0  0  0
  189.2360  178.0430  148.2950 C   0  0  0  0  0  2  0  0  0  0  0  0
  190.0310  177.1020  147.4430 C   0  0  0  0  0  0  0  0  0  0  0  0
  189.4270  176.3370  146.6460 O   0  0  0  0  0  0  0  0  0  0  0  0
  192.1280  175.8030  147.4710 C   0  0  0  0  0  1  0  0  0  0  0  0
  191.4230  177.0340  147.5310 O   0  0  0  0  0  0  0  0  0  0  0  0
  184.5710  178.6750  141.3690 C   0  0  0  0  0  2  0  0  0  0  0  0
  183.2360  178.7190  142.0960 C   0  0  0  0  0  2  0  0  0  0  0  0
  182.0900  178.7830  141.1020 C   0  0  2  0  0  3  0  0  0  0  0  0
  182.2590  177.6820  140.0740 C   0  0  2  0  0  3  0  0  0  0  0  0
  182.6300  179.1310  139.7290 C   0  0  1  0  0  3  0  0  0  0  0  0
  180.9110  177.2420  139.5890 C   0  0  0  0  0  3  0  0  0  0  0  0
  179.9820  176.8600  140.4600 C   0  0  0  0  0  2  0  0  0  0  0  0
  181.5740  179.9090  138.9530 C   0  0  0  0  0  2  0  0  0  0  0  0
  181.9800  181.2330  138.8140 O   0  0  0  0  0  1  0  0  0  0  0  0
  1 10  2  0  0  0  0
  1  8  1  0  0  0  0
  2 13  1  1  0  0  0
  3  8  2  0  0  0  0
  3 15  1  0  0  0  0
  4 26  1  6  0  0  0
  4 15  1  0  0  0  0
  4  9  1  0  0  0  0
  5  2  1  0  0  0  0
  5  6  1  1  0  0  0
  7 13  1  1  0  0  0
  7 14  1  0  0  0  0
  8  2  1  0  0  0  0
  9 14  1  0  0  0  0
 10  5  1  0  0  0  0
 11 12  2  0  0  0  0
 11 16  1  0  0  0  0
 12  1  1  0  0  0  0
 14 17  1  1  0  0  0
 15  7  1  0  0  0  0
 16  3  1  0  0  0  0
 17 18  1  0  0  0  0
 18 19  1  0  0  0  0
 19 20  1  0  0  0  0
 20 21  1  0  0  0  0
 22 25  1  0  0  0  0
 22 21  1  0  0  0  0
 23 22  2  0  0  0  0
 24 25  1  0  0  0  0
 26 27  1  0  0  0  0
 28 27  1  1  0  0  0
 29 31  1  6  0  0  0
 29 28  1  0  0  0  0
 30 33  1  6  0  0  0
 30 29  1  0  0  0  0
 30 28  1  0  0  0  0
 31 32  2  0  0  0  0
 34 33  1  0  0  0  0
M  END
>  <MODEL>
9

>  <REMARK>
 VINA RESULT:      -7.6      1.842      7.731
  Name = 
  12 active torsions:
  status: ('A' for Active; 'I' for Inactive)
    1  A    between atoms: C_3  and  C_13
    2  A    between atoms: C_3  and  C_17
    3  A    between atoms: C_5  and  C_26
    4  A    between atoms: C_7  and  C_16
    5  A    between atoms: C_12  and  C_28
    6  A    between atoms: C_13  and  C_33
    7  A    between atoms: O_14  and  C_20
    8  A    between atoms: C_17  and  C_29
    9  A    between atoms: C_20  and  C_34
   10  A    between atoms: C_23  and  C_27
   11  A    between atoms: C_26  and  C_28
   12  A    between atoms: C_33  and  C_34
                            x       y       z     vdW  Elec       q    Type
                         _______ _______ _______ _____ _____    ______ ____

>  <TORSDO>
F 12

$$$$
