=
 OpenBabel10262423463D

 34 38  0  0  1  0  0  0  0  0999 V2000
  189.2450  176.2860  136.8850 C   0  0  0  0  0  0  0  0  0  0  0  0
  191.6640  176.2760  137.6540 C   0  0  1  0  0  3  0  0  0  0  0  0
  189.8020  177.2470  139.0500 C   0  0  0  0  0  0  0  0  0  0  0  0
  191.2870  178.0950  142.5180 C   0  0  0  0  0  1  0  0  0  0  0  0
  191.9260  174.7820  137.8040 C   0  0  0  0  0  1  0  0  0  0  0  0
  192.1580  176.9140  139.8180 C   0  0  0  0  0  2  0  0  0  0  0  0
  190.2040  176.6210  137.8560 C   0  0  0  0  0  0  0  0  0  0  0  0
  190.2760  177.5600  141.5040 C   0  0  1  0  0  0  0  0  0  0  0  0
  188.4470  177.5490  139.2860 C   0  0  0  0  0  0  0  0  0  0  0  0
  187.8930  176.5750  137.1260 C   0  0  0  0  0  3  0  0  0  0  0  0
  192.5370  177.0470  138.4650 O   0  0  0  0  0  0  0  0  0  0  0  0
  189.0770  178.5070  141.5430 C   0  0  0  0  0  2  0  0  0  0  0  0
  188.0530  178.1420  140.5510 N   0  0  0  0  0  0  0  0  0  0  0  0
  190.8350  177.6480  140.0640 C   0  0  2  0  0  3  0  0  0  0  0  0
  187.5010  177.1930  138.3140 C   0  0  0  0  0  3  0  0  0  0  0  0
  184.8850  178.7000  142.4880 C   0  0  0  0  0  0  0  0  0  0  0  0
  184.0010  179.0400  141.4630 C   0  0  0  0  0  3  0  0  0  0  0  0
  186.6840  178.4560  140.8700 C   0  0  0  0  0  0  0  0  0  0  0  0
  184.4490  179.0810  140.1400 C   0  0  0  0  0  3  0  0  0  0  0  0
  186.2190  178.4060  142.1940 C   0  0  0  0  0  3  0  0  0  0  0  0
  185.7840  178.7880  139.8460 C   0  0  0  0  0  3  0  0  0  0  0  0
  184.3240  178.6480  144.1460 Cl  0  0  0  0  0  0  0  0  0  0  0  0
  189.7930  176.3560  134.4700 C   0  0  0  0  0  1  0  0  0  0  0  0
  189.6490  175.6580  135.7000 O   0  0  0  0  0  0  0  0  0  0  0  0
  189.7990  176.2680  141.8540 O   0  0  0  0  0  0  0  0  0  0  0  0
  188.8980  176.3370  142.9290 C   0  0  0  0  0  2  0  0  0  0  0  0
  189.6700  176.5390  144.2170 C   0  0  0  0  0  2  0  0  0  0  0  0
  189.8960  176.2880  147.0960 C   0  0  0  0  0  1  0  0  0  0  0  0
  188.9430  177.5380  145.1100 C   0  0  2  0  0  3  0  0  0  0  0  0
  189.4970  177.6560  146.5270 C   0  0  1  0  0  3  0  0  0  0  0  0
  188.3500  178.0560  148.7840 C   0  0  0  0  0  1  0  0  0  0  0  0
  187.0670  177.6510  146.6530 C   0  0  0  0  0  2  0  0  0  0  0  0
  187.4720  177.1890  145.2600 C   0  0  0  0  0  2  0  0  0  0  0  0
  188.3130  178.2540  147.2760 C   0  0  2  0  0  3  0  0  0  0  0  0
  1 10  2  0  0  0  0
  1  7  1  0  0  0  0
  2  5  1  1  0  0  0
  2  7  1  0  0  0  0
  2 11  1  0  0  0  0
  3  9  1  0  0  0  0
  3 14  1  0  0  0  0
  7  3  2  0  0  0  0
  8 12  1  0  0  0  0
  8 25  1  0  0  0  0
  8  4  1  1  0  0  0
  9 13  1  0  0  0  0
 10 15  1  0  0  0  0
 11  6  1  0  0  0  0
 13 18  1  0  0  0  0
 13 12  1  0  0  0  0
 14  6  1  1  0  0  0
 14  8  1  0  0  0  0
 15  9  2  0  0  0  0
 16 22  1  0  0  0  0
 17 16  2  0  0  0  0
 18 20  2  0  0  0  0
 19 17  1  0  0  0  0
 20 16  1  0  0  0  0
 21 19  2  0  0  0  0
 21 18  1  0  0  0  0
 23 24  1  0  0  0  0
 24  1  1  0  0  0  0
 25 26  1  0  0  0  0
 26 27  1  0  0  0  0
 29 27  1  6  0  0  0
 29 33  1  0  0  0  0
 29 30  1  0  0  0  0
 30 28  1  1  0  0  0
 30 34  1  0  0  0  0
 32 34  1  0  0  0  0
 33 32  1  0  0  0  0
 34 31  1  1  0  0  0
M  END
>  <MODEL>
1

>  <REMARK>
 VINA RESULT:      -8.7      0.000      0.000
  Name = 
  6 active torsions:
  status: ('A' for Active; 'I' for Inactive)
    1  A    between atoms: C_1  and  O_19
    2  A    between atoms: C_3  and  C_13
    3  A    between atoms: C_3  and  C_17
    4  A    between atoms: C_12  and  N_28
    5  A    between atoms: C_17  and  O_29
    6  A    between atoms: C_18  and  O_29
                            x       y       z     vdW  Elec       q    Type
                         _______ _______ _______ _____ _____    ______ ____

>  <TORSDO>
F 6

$$$$
=
 OpenBabel10262423463D

 34 38  0  0  1  0  0  0  0  0999 V2000
  185.9030  177.6150  137.2870 C   0  0  0  0  0  0  0  0  0  0  0  0
  188.4380  177.7360  137.2340 C   0  0  1  0  0  3  0  0  0  0  0  0
  187.0970  178.2900  139.2970 C   0  0  0  0  0  0  0  0  0  0  0  0
  189.6010  178.7510  142.2070 C   0  0  0  0  0  1  0  0  0  0  0  0
  188.8050  176.2710  137.0280 C   0  0  0  0  0  1  0  0  0  0  0  0
  189.5870  178.0860  139.2070 C   0  0  0  0  0  2  0  0  0  0  0  0
  187.1110  177.8960  137.9460 C   0  0  0  0  0  0  0  0  0  0  0  0
  188.3390  178.2760  141.4890 C   0  0  1  0  0  0  0  0  0  0  0  0
  185.8840  178.4130  139.9990 C   0  0  0  0  0  0  0  0  0  0  0  0
  184.6950  177.7260  137.9920 C   0  0  0  0  0  3  0  0  0  0  0  0
  189.4920  178.4600  137.8490 O   0  0  0  0  0  0  0  0  0  0  0  0
  187.1770  179.0790  142.0720 C   0  0  0  0  0  2  0  0  0  0  0  0
  185.9020  178.7650  141.4080 N   0  0  0  0  0  0  0  0  0  0  0  0
  188.3870  178.6360  139.9840 C   0  0  2  0  0  3  0  0  0  0  0  0
  184.6870  178.1130  139.3320 C   0  0  0  0  0  3  0  0  0  0  0  0
  182.2800  178.7850  142.4030 C   0  0  0  0  0  0  0  0  0  0  0  0
  182.3730  179.1640  143.7430 C   0  0  0  0  0  3  0  0  0  0  0  0
  184.7020  178.8860  142.1950 C   0  0  0  0  0  0  0  0  0  0  0  0
  183.6250  179.4140  144.3130 C   0  0  0  0  0  3  0  0  0  0  0  0
  183.4380  178.6500  141.6310 C   0  0  0  0  0  3  0  0  0  0  0  0
  184.7830  179.2770  143.5410 C   0  0  0  0  0  3  0  0  0  0  0  0
  180.7130  178.4720  141.6890 Cl  0  0  0  0  0  0  0  0  0  0  0  0
  185.2350  176.0660  135.4720 C   0  0  0  0  0  1  0  0  0  0  0  0
  185.9230  177.2180  135.9440 O   0  0  0  0  0  0  0  0  0  0  0  0
  188.0660  176.9040  141.7380 O   0  0  0  0  0  0  0  0  0  0  0  0
  188.6110  176.4960  142.9660 C   0  0  0  0  0  2  0  0  0  0  0  0
  187.6480  176.8460  144.0820 C   0  0  0  0  0  2  0  0  0  0  0  0
  186.7900  178.4130  146.3650 C   0  0  0  0  0  1  0  0  0  0  0  0
  188.3090  176.6130  145.4360 C   0  0  2  0  0  3  0  0  0  0  0  0
  187.4940  177.0780  146.6390 C   0  0  1  0  0  3  0  0  0  0  0  0
  188.1890  178.1130  148.8780 C   0  0  0  0  0  1  0  0  0  0  0  0
  189.8160  177.7100  146.9980 C   0  0  0  0  0  2  0  0  0  0  0  0
  189.6490  177.3220  145.5350 C   0  0  0  0  0  2  0  0  0  0  0  0
  188.5690  177.2180  147.7090 C   0  0  2  0  0  3  0  0  0  0  0  0
  1  7  2  0  0  0  0
  1 10  1  0  0  0  0
  2  5  1  1  0  0  0
  2 11  1  0  0  0  0
  2  7  1  0  0  0  0
  3 14  1  0  0  0  0
  3  9  2  0  0  0  0
  7  3  1  0  0  0  0
  8 25  1  0  0  0  0
  8 12  1  0  0  0  0
  8  4  1  1  0  0  0
  9 13  1  0  0  0  0
 10 15  2  0  0  0  0
 11  6  1  0  0  0  0
 13 12  1  0  0  0  0
 13 18  1  0  0  0  0
 14  6  1  6  0  0  0
 14  8  1  0  0  0  0
 15  9  1  0  0  0  0
 16 17  1  0  0  0  0
 17 19  2  0  0  0  0
 18 21  2  0  0  0  0
 20 18  1  0  0  0  0
 20 16  2  0  0  0  0
 21 19  1  0  0  0  0
 22 16  1  0  0  0  0
 23 24  1  0  0  0  0
 24  1  1  0  0  0  0
 25 26  1  0  0  0  0
 26 27  1  0  0  0  0
 29 27  1  6  0  0  0
 29 33  1  0  0  0  0
 29 30  1  0  0  0  0
 30 28  1  6  0  0  0
 30 34  1  0  0  0  0
 32 34  1  0  0  0  0
 33 32  1  0  0  0  0
 34 31  1  1  0  0  0
M  END
>  <MODEL>
2

>  <REMARK>
 VINA RESULT:      -8.5      1.871      2.939
  Name = 
  6 active torsions:
  status: ('A' for Active; 'I' for Inactive)
    1  A    between atoms: C_1  and  O_19
    2  A    between atoms: C_3  and  C_13
    3  A    between atoms: C_3  and  C_17
    4  A    between atoms: C_12  and  N_28
    5  A    between atoms: C_17  and  O_29
    6  A    between atoms: C_18  and  O_29
                            x       y       z     vdW  Elec       q    Type
                         _______ _______ _______ _____ _____    ______ ____

>  <TORSDO>
F 6

$$$$
=
 OpenBabel10262423463D

 34 38  0  0  1  0  0  0  0  0999 V2000
  185.4530  173.4720  136.5390 C   0  0  0  0  0  0  0  0  0  0  0  0
  187.7920  173.8830  135.6410 C   0  0  1  0  0  3  0  0  0  0  0  0
  186.4280  175.6910  136.7510 C   0  0  0  0  0  0  0  0  0  0  0  0
  188.7440  178.7520  137.2230 C   0  0  0  0  0  1  0  0  0  0  0  0
  188.6260  172.9950  136.5560 C   0  0  0  0  0  1  0  0  0  0  0  0
  188.8340  175.8930  136.0990 C   0  0  0  0  0  2  0  0  0  0  0  0
  186.5200  174.3570  136.3130 C   0  0  0  0  0  0  0  0  0  0  0  0
  187.6910  177.7060  137.5850 C   0  0  1  0  0  0  0  0  0  0  0  0
  185.2760  176.1560  137.4120 C   0  0  0  0  0  0  0  0  0  0  0  0
  184.3090  173.9320  137.2080 C   0  0  0  0  0  3  0  0  0  0  0  0
  188.5620  174.9410  135.0930 O   0  0  0  0  0  0  0  0  0  0  0  0
  186.3490  178.4380  137.6360 C   0  0  0  0  0  2  0  0  0  0  0  0
  185.2310  177.5200  137.9050 N   0  0  0  0  0  0  0  0  0  0  0  0
  187.5510  176.6470  136.4650 C   0  0  2  0  0  3  0  0  0  0  0  0
  184.2260  175.2550  137.6440 C   0  0  0  0  0  3  0  0  0  0  0  0
  182.9590  178.6300  140.6820 C   0  0  0  0  0  0  0  0  0  0  0  0
  181.8510  179.0750  139.9600 C   0  0  0  0  0  3  0  0  0  0  0  0
  184.0940  178.0560  138.6090 C   0  0  0  0  0  0  0  0  0  0  0  0
  181.8540  179.0050  138.5640 C   0  0  0  0  0  3  0  0  0  0  0  0
  184.0740  178.1200  140.0110 C   0  0  0  0  0  3  0  0  0  0  0  0
  182.9700  178.4970  137.8930 C   0  0  0  0  0  3  0  0  0  0  0  0
  182.9570  178.7160  142.4310 Cl  0  0  0  0  0  0  0  0  0  0  0  0
  184.4130  171.3240  135.8750 C   0  0  0  0  0  1  0  0  0  0  0  0
  185.5510  172.1440  136.1060 O   0  0  0  0  0  0  0  0  0  0  0  0
  187.9100  177.1480  138.8730 O   0  0  0  0  0  0  0  0  0  0  0  0
  188.3480  178.1270  139.7790 C   0  0  0  0  0  2  0  0  0  0  0  0
  189.1430  177.4640  140.8860 C   0  0  0  0  0  2  0  0  0  0  0  0
  190.1880  176.2530  143.3040 C   0  0  0  0  0  1  0  0  0  0  0  0
  188.7100  178.0140  142.2410 C   0  0  2  0  0  3  0  0  0  0  0  0
  189.6500  177.6870  143.3980 C   0  0  1  0  0  3  0  0  0  0  0  0
  189.2050  177.1640  145.8670 C   0  0  0  0  0  1  0  0  0  0  0  0
  187.3600  177.3990  144.1670 C   0  0  0  0  0  2  0  0  0  0  0  0
  187.3430  177.4920  142.6480 C   0  0  0  0  0  2  0  0  0  0  0  0
  188.7360  177.8680  144.6030 C   0  0  2  0  0  3  0  0  0  0  0  0
  1 10  1  0  0  0  0
  2  7  1  0  0  0  0
  2  5  1  1  0  0  0
  3  9  2  0  0  0  0
  7  1  2  0  0  0  0
  7  3  1  0  0  0  0
  8  4  1  6  0  0  0
  8 12  1  0  0  0  0
  8 25  1  0  0  0  0
  9 15  1  0  0  0  0
  9 13  1  0  0  0  0
 10 15  2  0  0  0  0
 11  2  1  0  0  0  0
 11  6  1  0  0  0  0
 12 13  1  0  0  0  0
 13 18  1  0  0  0  0
 14  6  1  1  0  0  0
 14  3  1  0  0  0  0
 14  8  1  0  0  0  0
 16 22  1  0  0  0  0
 17 16  2  0  0  0  0
 18 20  2  0  0  0  0
 19 17  1  0  0  0  0
 20 16  1  0  0  0  0
 21 19  2  0  0  0  0
 21 18  1  0  0  0  0
 23 24  1  0  0  0  0
 24  1  1  0  0  0  0
 25 26  1  0  0  0  0
 26 27  1  0  0  0  0
 29 27  1  6  0  0  0
 29 33  1  0  0  0  0
 29 30  1  0  0  0  0
 30 28  1  6  0  0  0
 30 34  1  0  0  0  0
 32 34  1  0  0  0  0
 33 32  1  0  0  0  0
 34 31  1  1  0  0  0
M  END
>  <MODEL>
3

>  <REMARK>
 VINA RESULT:      -8.4      2.693      4.129
  Name = 
  6 active torsions:
  status: ('A' for Active; 'I' for Inactive)
    1  A    between atoms: C_1  and  O_19
    2  A    between atoms: C_3  and  C_13
    3  A    between atoms: C_3  and  C_17
    4  A    between atoms: C_12  and  N_28
    5  A    between atoms: C_17  and  O_29
    6  A    between atoms: C_18  and  O_29
                            x       y       z     vdW  Elec       q    Type
                         _______ _______ _______ _____ _____    ______ ____

>  <TORSDO>
F 6

$$$$
=
 OpenBabel10262423463D

 34 38  0  0  1  0  0  0  0  0999 V2000
  187.0070  173.3230  136.2930 C   0  0  0  0  0  0  0  0  0  0  0  0
  189.3540  174.2010  135.8830 C   0  0  1  0  0  3  0  0  0  0  0  0
  187.4490  175.6980  136.5850 C   0  0  0  0  0  0  0  0  0  0  0  0
  188.9480  179.1760  137.3650 C   0  0  0  0  0  1  0  0  0  0  0  0
  190.1310  173.5130  136.9990 C   0  0  0  0  0  1  0  0  0  0  0  0
  189.8480  176.3870  136.4410 C   0  0  0  0  0  2  0  0  0  0  0  0
  187.8980  174.4080  136.2480 C   0  0  0  0  0  0  0  0  0  0  0  0
  188.0720  177.9380  137.5550 C   0  0  1  0  0  0  0  0  0  0  0  0
  186.1120  175.9200  136.9640 C   0  0  0  0  0  0  0  0  0  0  0  0
  185.6770  173.5430  136.6830 C   0  0  0  0  0  3  0  0  0  0  0  0
  189.9960  175.3900  135.4520 O   0  0  0  0  0  0  0  0  0  0  0  0
  186.6330  178.3770  137.2840 C   0  0  0  0  0  2  0  0  0  0  0  0
  185.6890  177.2510  137.3620 N   0  0  0  0  0  0  0  0  0  0  0  0
  188.3930  176.8630  136.4890 C   0  0  2  0  0  3  0  0  0  0  0  0
  185.2390  174.8240  137.0200 C   0  0  0  0  0  3  0  0  0  0  0  0
  182.7350  178.0830  139.5270 C   0  0  0  0  0  0  0  0  0  0  0  0
  181.7060  178.0870  138.5840 C   0  0  0  0  0  3  0  0  0  0  0  0
  184.3440  177.5470  137.7830 C   0  0  0  0  0  0  0  0  0  0  0  0
  181.9870  177.8140  137.2420 C   0  0  0  0  0  3  0  0  0  0  0  0
  184.0470  177.8100  139.1300 C   0  0  0  0  0  3  0  0  0  0  0  0
  183.2990  177.5430  136.8450 C   0  0  0  0  0  3  0  0  0  0  0  0
  182.3850  178.4250  141.2080 Cl  0  0  0  0  0  0  0  0  0  0  0  0
  187.1890  171.4290  134.7070 C   0  0  0  0  0  1  0  0  0  0  0  0
  187.4600  172.0410  135.9620 O   0  0  0  0  0  0  0  0  0  0  0  0
  188.1160  177.4500  138.8880 O   0  0  0  0  0  0  0  0  0  0  0  0
  188.8850  178.2910  139.7090 C   0  0  0  0  0  2  0  0  0  0  0  0
  189.5060  177.4730  140.8220 C   0  0  0  0  0  2  0  0  0  0  0  0
  190.6000  176.3060  143.2400 C   0  0  0  0  0  1  0  0  0  0  0  0
  189.0520  178.0060  142.1770 C   0  0  2  0  0  3  0  0  0  0  0  0
  190.0050  177.7180  143.3330 C   0  0  1  0  0  3  0  0  0  0  0  0
  189.5830  177.1790  145.8030 C   0  0  0  0  0  1  0  0  0  0  0  0
  187.7290  177.3400  144.1050 C   0  0  0  0  0  2  0  0  0  0  0  0
  187.7080  177.4300  142.5860 C   0  0  0  0  0  2  0  0  0  0  0  0
  189.0860  177.8630  144.5390 C   0  0  2  0  0  3  0  0  0  0  0  0
  1 10  1  0  0  0  0
  2  7  1  0  0  0  0
  2  5  1  1  0  0  0
  3  9  2  0  0  0  0
  7  1  2  0  0  0  0
  7  3  1  0  0  0  0
  8  4  1  6  0  0  0
  8 25  1  0  0  0  0
  9 15  1  0  0  0  0
  9 13  1  0  0  0  0
 10 15  2  0  0  0  0
 11  2  1  0  0  0  0
 11  6  1  0  0  0  0
 12 13  1  0  0  0  0
 12  8  1  0  0  0  0
 13 18  1  0  0  0  0
 14  6  1  1  0  0  0
 14  3  1  0  0  0  0
 14  8  1  0  0  0  0
 16 22  1  0  0  0  0
 17 16  2  0  0  0  0
 18 20  2  0  0  0  0
 19 17  1  0  0  0  0
 20 16  1  0  0  0  0
 21 19  2  0  0  0  0
 21 18  1  0  0  0  0
 23 24  1  0  0  0  0
 24  1  1  0  0  0  0
 25 26  1  0  0  0  0
 26 27  1  0  0  0  0
 29 27  1  6  0  0  0
 29 33  1  0  0  0  0
 29 30  1  0  0  0  0
 30 28  1  6  0  0  0
 30 34  1  0  0  0  0
 32 34  1  0  0  0  0
 33 32  1  0  0  0  0
 34 31  1  1  0  0  0
M  END
>  <MODEL>
4

>  <REMARK>
 VINA RESULT:      -8.2      2.602      3.870
  Name = 
  6 active torsions:
  status: ('A' for Active; 'I' for Inactive)
    1  A    between atoms: C_1  and  O_19
    2  A    between atoms: C_3  and  C_13
    3  A    between atoms: C_3  and  C_17
    4  A    between atoms: C_12  and  N_28
    5  A    between atoms: C_17  and  O_29
    6  A    between atoms: C_18  and  O_29
                            x       y       z     vdW  Elec       q    Type
                         _______ _______ _______ _____ _____    ______ ____

>  <TORSDO>
F 6

$$$$
=
 OpenBabel10262423463D

 34 38  0  0  1  0  0  0  0  0999 V2000
  188.6830  177.7110  142.5770 C   0  0  0  0  0  0  0  0  0  0  0  0
  186.5170  178.7880  141.8080 C   0  0  1  0  0  3  0  0  0  0  0  0
  188.2460  177.9170  140.1930 C   0  0  0  0  0  0  0  0  0  0  0  0
  186.6970  178.0760  136.6530 C   0  0  0  0  0  1  0  0  0  0  0  0
  185.4860  177.7850  142.3150 C   0  0  0  0  0  1  0  0  0  0  0  0
  185.9630  178.7200  139.5670 C   0  0  0  0  0  2  0  0  0  0  0  0
  187.8540  178.1350  141.5260 C   0  0  0  0  0  0  0  0  0  0  0  0
  187.4740  177.4920  137.8330 C   0  0  1  0  0  0  0  0  0  0  0  0
  189.4660  177.2810  139.8950 C   0  0  0  0  0  0  0  0  0  0  0  0
  189.8930  177.0660  142.2800 C   0  0  0  0  0  3  0  0  0  0  0  0
  186.0210  179.5420  140.7140 O   0  0  0  0  0  0  0  0  0  0  0  0
  188.9480  177.4900  137.4250 C   0  0  0  0  0  2  0  0  0  0  0  0
  189.8190  177.0160  138.5120 N   0  0  0  0  0  0  0  0  0  0  0  0
  187.3800  178.4150  139.0710 C   0  0  2  0  0  3  0  0  0  0  0  0
  190.2750  176.8480  140.9560 C   0  0  0  0  0  3  0  0  0  0  0  0
  192.2040  174.4800  137.1030 C   0  0  0  0  0  0  0  0  0  0  0  0
  193.4320  175.0520  137.4390 C   0  0  0  0  0  3  0  0  0  0  0  0
  191.0390  176.3490  138.1340 C   0  0  0  0  0  0  0  0  0  0  0  0
  193.4710  176.2670  138.1290 C   0  0  0  0  0  3  0  0  0  0  0  0
  191.0130  175.1220  137.4520 C   0  0  0  0  0  3  0  0  0  0  0  0
  192.2800  176.9100  138.4760 C   0  0  0  0  0  3  0  0  0  0  0  0
  192.1550  172.9580  136.2380 Cl  0  0  0  0  0  0  0  0  0  0  0  0
  188.5440  176.9940  144.9450 C   0  0  0  0  0  1  0  0  0  0  0  0
  188.2860  177.9260  143.9030 O   0  0  0  0  0  0  0  0  0  0  0  0
  187.1130  176.1430  138.0970 O   0  0  0  0  0  0  0  0  0  0  0  0
  186.4470  175.5750  137.0000 C   0  0  0  0  0  2  0  0  0  0  0  0
  186.7300  174.0870  136.9590 C   0  0  0  0  0  2  0  0  0  0  0  0
  185.4850  172.2140  135.1290 C   0  0  0  0  0  1  0  0  0  0  0  0
  185.5010  173.3080  137.4130 C   0  0  2  0  0  3  0  0  0  0  0  0
  185.2240  172.0280  136.6300 C   0  0  1  0  0  3  0  0  0  0  0  0
  183.0360  170.8960  135.9220 C   0  0  0  0  0  1  0  0  0  0  0  0
  183.1090  173.1740  136.9970 C   0  0  0  0  0  2  0  0  0  0  0  0
  184.2370  174.1450  137.3130 C   0  0  0  0  0  2  0  0  0  0  0  0
  183.7460  171.7990  136.9200 C   0  0  2  0  0  3  0  0  0  0  0  0
  1 24  1  0  0  0  0
  2  5  1  6  0  0  0
  3  7  1  0  0  0  0
  6 11  1  0  0  0  0
  7  2  1  0  0  0  0
  7  1  2  0  0  0  0
  8  4  1  6  0  0  0
  8 25  1  0  0  0  0
  8 14  1  0  0  0  0
  9  3  2  0  0  0  0
  9 15  1  0  0  0  0
 10  1  1  0  0  0  0
 11  2  1  0  0  0  0
 12  8  1  0  0  0  0
 12 13  1  0  0  0  0
 13  9  1  0  0  0  0
 14  6  1  1  0  0  0
 14  3  1  0  0  0  0
 15 10  2  0  0  0  0
 16 17  2  0  0  0  0
 16 20  1  0  0  0  0
 17 19  1  0  0  0  0
 18 21  1  0  0  0  0
 18 13  1  0  0  0  0
 19 21  2  0  0  0  0
 20 18  2  0  0  0  0
 22 16  1  0  0  0  0
 24 23  1  0  0  0  0
 26 25  1  0  0  0  0
 27 26  1  0  0  0  0
 29 27  1  6  0  0  0
 30 28  1  6  0  0  0
 30 34  1  0  0  0  0
 30 29  1  0  0  0  0
 32 33  1  0  0  0  0
 33 29  1  0  0  0  0
 34 31  1  6  0  0  0
 34 32  1  0  0  0  0
M  END
>  <MODEL>
5

>  <REMARK>
 VINA RESULT:      -7.8      3.736      8.411
  Name = 
  6 active torsions:
  status: ('A' for Active; 'I' for Inactive)
    1  A    between atoms: C_1  and  O_19
    2  A    between atoms: C_3  and  C_13
    3  A    between atoms: C_3  and  C_17
    4  A    between atoms: C_12  and  N_28
    5  A    between atoms: C_17  and  O_29
    6  A    between atoms: C_18  and  O_29
                            x       y       z     vdW  Elec       q    Type
                         _______ _______ _______ _____ _____    ______ ____

>  <TORSDO>
F 6

$$$$
=
 OpenBabel10262423463D

 34 38  0  0  1  0  0  0  0  0999 V2000
  184.4100  178.4540  141.9930 C   0  0  0  0  0  0  0  0  0  0  0  0
  183.8810  179.0080  139.5730 C   0  0  1  0  0  3  0  0  0  0  0  0
  186.2240  178.5330  140.3740 C   0  0  0  0  0  0  0  0  0  0  0  0
  188.4850  178.3040  137.2450 C   0  0  0  0  0  1  0  0  0  0  0  0
  183.0390  177.8050  139.1660 C   0  0  0  0  0  1  0  0  0  0  0  0
  185.5430  178.7960  137.9830 C   0  0  0  0  0  2  0  0  0  0  0  0
  184.8580  178.6710  140.6800 C   0  0  0  0  0  0  0  0  0  0  0  0
  187.9180  177.9220  138.6120 C   0  0  1  0  0  0  0  0  0  0  0  0
  187.1550  178.1850  141.3710 C   0  0  0  0  0  0  0  0  0  0  0  0
  185.3360  178.0950  142.9840 C   0  0  0  0  0  3  0  0  0  0  0  0
  184.4970  179.6210  138.4520 O   0  0  0  0  0  0  0  0  0  0  0  0
  189.0010  178.2480  139.6400 C   0  0  0  0  0  2  0  0  0  0  0  0
  188.5500  177.9920  141.0170 N   0  0  0  0  0  0  0  0  0  0  0  0
  186.7070  178.8130  138.9790 C   0  0  2  0  0  3  0  0  0  0  0  0
  186.6890  177.9560  142.6740 C   0  0  0  0  0  3  0  0  0  0  0  0
  191.2410  178.2010  143.6280 C   0  0  0  0  0  0  0  0  0  0  0  0
  191.5280  176.8500  143.8250 C   0  0  0  0  0  3  0  0  0  0  0  0
  189.5520  177.6140  141.9790 C   0  0  0  0  0  0  0  0  0  0  0  0
  190.8380  175.8760  143.0970 C   0  0  0  0  0  3  0  0  0  0  0  0
  190.2610  178.5820  142.7070 C   0  0  0  0  0  3  0  0  0  0  0  0
  189.8560  176.2570  142.1780 C   0  0  0  0  0  3  0  0  0  0  0  0
  192.1050  179.4220  144.5390 Cl  0  0  0  0  0  0  0  0  0  0  0  0
  182.5760  178.9730  143.5760 C   0  0  0  0  0  1  0  0  0  0  0  0
  183.0490  178.5880  142.2920 O   0  0  0  0  0  0  0  0  0  0  0  0
  187.6540  176.5300  138.7120 O   0  0  0  0  0  0  0  0  0  0  0  0
  188.4080  175.8050  137.7760 C   0  0  0  0  0  2  0  0  0  0  0  0
  187.4840  175.2440  136.7140 C   0  0  0  0  0  2  0  0  0  0  0  0
  186.4210  172.6370  136.0240 C   0  0  0  0  0  1  0  0  0  0  0  0
  186.1780  174.7810  137.3490 C   0  0  2  0  0  3  0  0  0  0  0  0
  185.9590  173.2710  137.3430 C   0  0  1  0  0  3  0  0  0  0  0  0
  183.8430  171.8510  137.0730 C   0  0  0  0  0  1  0  0  0  0  0  0
  183.8580  174.3510  136.7630 C   0  0  0  0  0  2  0  0  0  0  0  0
  184.9700  175.3850  136.6540 C   0  0  0  0  0  2  0  0  0  0  0  0
  184.4490  173.1730  137.5160 C   0  0  2  0  0  3  0  0  0  0  0  0
  1 24  1  0  0  0  0
  1 10  1  0  0  0  0
  2  5  1  6  0  0  0
  2  7  1  0  0  0  0
  3  7  1  0  0  0  0
  3  9  2  0  0  0  0
  6 11  1  0  0  0  0
  7  1  2  0  0  0  0
  8  4  1  6  0  0  0
  8 25  1  0  0  0  0
  8 14  1  0  0  0  0
  8 12  1  0  0  0  0
  9 15  1  0  0  0  0
 11  2  1  0  0  0  0
 12 13  1  0  0  0  0
 13  9  1  0  0  0  0
 13 18  1  0  0  0  0
 14  6  1  6  0  0  0
 14  3  1  0  0  0  0
 15 10  2  0  0  0  0
 16 17  1  0  0  0  0
 16 22  1  0  0  0  0
 18 21  2  0  0  0  0
 18 20  1  0  0  0  0
 19 17  2  0  0  0  0
 20 16  2  0  0  0  0
 21 19  1  0  0  0  0
 24 23  1  0  0  0  0
 26 25  1  0  0  0  0
 27 26  1  0  0  0  0
 29 27  1  6  0  0  0
 30 28  1  6  0  0  0
 30 29  1  0  0  0  0
 30 34  1  0  0  0  0
 32 34  1  0  0  0  0
 33 32  1  0  0  0  0
 33 29  1  0  0  0  0
 34 31  1  6  0  0  0
M  END
>  <MODEL>
6

>  <REMARK>
 VINA RESULT:      -7.8      3.210      7.745
  Name = 
  6 active torsions:
  status: ('A' for Active; 'I' for Inactive)
    1  A    between atoms: C_1  and  O_19
    2  A    between atoms: C_3  and  C_13
    3  A    between atoms: C_3  and  C_17
    4  A    between atoms: C_12  and  N_28
    5  A    between atoms: C_17  and  O_29
    6  A    between atoms: C_18  and  O_29
                            x       y       z     vdW  Elec       q    Type
                         _______ _______ _______ _____ _____    ______ ____

>  <TORSDO>
F 6

$$$$
=
 OpenBabel10262423463D

 34 38  0  0  1  0  0  0  0  0999 V2000
  188.2880  174.7440  136.1300 C   0  0  0  0  0  0  0  0  0  0  0  0
  190.8260  174.8060  136.0890 C   0  0  1  0  0  3  0  0  0  0  0  0
  189.4580  176.2740  137.6160 C   0  0  0  0  0  0  0  0  0  0  0  0
  191.9180  178.0290  140.0310 C   0  0  0  0  0  1  0  0  0  0  0  0
  191.1690  173.4130  136.6050 C   0  0  0  0  0  1  0  0  0  0  0  0
  191.9460  176.0320  137.6940 C   0  0  0  0  0  2  0  0  0  0  0  0
  189.4900  175.2920  136.6100 C   0  0  0  0  0  0  0  0  0  0  0  0
  190.6600  177.2810  139.5890 C   0  0  1  0  0  0  0  0  0  0  0  0
  188.2350  176.7230  138.1490 C   0  0  0  0  0  0  0  0  0  0  0  0
  187.0700  175.1820  136.6700 C   0  0  0  0  0  3  0  0  0  0  0  0
  191.8820  175.7250  136.3180 O   0  0  0  0  0  0  0  0  0  0  0  0
  189.5020  178.2740  139.6980 C   0  0  0  0  0  2  0  0  0  0  0  0
  188.2340  177.6950  139.2270 N   0  0  0  0  0  0  0  0  0  0  0  0
  190.7420  176.8920  138.0930 C   0  0  2  0  0  3  0  0  0  0  0  0
  187.0450  176.1540  137.6710 C   0  0  0  0  0  3  0  0  0  0  0  0
  184.7090  178.9150  139.6680 C   0  0  0  0  0  0  0  0  0  0  0  0
  184.6820  179.1640  141.0400 C   0  0  0  0  0  3  0  0  0  0  0  0
  187.0220  178.1810  139.8350 C   0  0  0  0  0  0  0  0  0  0  0  0
  185.8230  178.9330  141.8150 C   0  0  0  0  0  3  0  0  0  0  0  0
  185.8740  178.4290  139.0670 C   0  0  0  0  0  3  0  0  0  0  0  0
  186.9870  178.4460  141.2140 C   0  0  0  0  0  3  0  0  0  0  0  0
  183.2810  179.2030  138.6970 Cl  0  0  0  0  0  0  0  0  0  0  0  0
  187.3260  172.7590  135.0030 C   0  0  0  0  0  1  0  0  0  0  0  0
  188.3250  173.7630  135.1320 O   0  0  0  0  0  0  0  0  0  0  0  0
  190.3560  176.1900  140.4460 O   0  0  0  0  0  0  0  0  0  0  0  0
  190.9610  176.3520  141.7030 C   0  0  0  0  0  2  0  0  0  0  0  0
  190.0500  175.7850  142.7730 C   0  0  0  0  0  2  0  0  0  0  0  0
  190.4780  176.1610  145.6160 C   0  0  0  0  0  1  0  0  0  0  0  0
  189.3220  176.9160  143.4920 C   0  0  2  0  0  3  0  0  0  0  0  0
  189.9590  177.3580  144.8070 C   0  0  1  0  0  3  0  0  0  0  0  0
  188.9390  178.1730  147.0120 C   0  0  0  0  0  1  0  0  0  0  0  0
  187.5480  177.2660  145.1170 C   0  0  0  0  0  2  0  0  0  0  0  0
  187.8890  176.5390  143.8250 C   0  0  0  0  0  2  0  0  0  0  0  0
  188.7920  178.0450  145.5030 C   0  0  2  0  0  3  0  0  0  0  0  0
  1  7  2  0  0  0  0
  1 10  1  0  0  0  0
  2 11  1  0  0  0  0
  2  5  1  1  0  0  0
  2  7  1  0  0  0  0
  3 14  1  0  0  0  0
  3  9  2  0  0  0  0
  7  3  1  0  0  0  0
  8 12  1  0  0  0  0
  8  4  1  1  0  0  0
  8 25  1  0  0  0  0
  9 13  1  0  0  0  0
 10 15  2  0  0  0  0
 11  6  1  0  0  0  0
 13 12  1  0  0  0  0
 13 18  1  0  0  0  0
 14  6  1  1  0  0  0
 14  8  1  0  0  0  0
 15  9  1  0  0  0  0
 16 17  1  0  0  0  0
 17 19  2  0  0  0  0
 18 21  2  0  0  0  0
 20 16  2  0  0  0  0
 20 18  1  0  0  0  0
 21 19  1  0  0  0  0
 22 16  1  0  0  0  0
 23 24  1  0  0  0  0
 24  1  1  0  0  0  0
 25 26  1  0  0  0  0
 26 27  1  0  0  0  0
 29 27  1  1  0  0  0
 29 33  1  0  0  0  0
 29 30  1  0  0  0  0
 30 34  1  0  0  0  0
 30 28  1  1  0  0  0
 32 34  1  0  0  0  0
 33 32  1  0  0  0  0
 34 31  1  1  0  0  0
M  END
>  <MODEL>
7

>  <REMARK>
 VINA RESULT:      -7.7      1.737      2.272
  Name = 
  6 active torsions:
  status: ('A' for Active; 'I' for Inactive)
    1  A    between atoms: C_1  and  O_19
    2  A    between atoms: C_3  and  C_13
    3  A    between atoms: C_3  and  C_17
    4  A    between atoms: C_12  and  N_28
    5  A    between atoms: C_17  and  O_29
    6  A    between atoms: C_18  and  O_29
                            x       y       z     vdW  Elec       q    Type
                         _______ _______ _______ _____ _____    ______ ____

>  <TORSDO>
F 6

$$$$
=
 OpenBabel10262423463D

 34 38  0  0  1  0  0  0  0  0999 V2000
  184.1240  178.7690  144.2680 C   0  0  0  0  0  0  0  0  0  0  0  0
  181.7140  179.2520  143.6340 C   0  0  1  0  0  3  0  0  0  0  0  0
  183.5410  178.9900  141.9160 C   0  0  0  0  0  0  0  0  0  0  0  0
  181.8520  178.9300  138.4380 C   0  0  0  0  0  1  0  0  0  0  0  0
  181.0200  177.9750  144.0950 C   0  0  0  0  0  1  0  0  0  0  0  0
  181.1000  179.1700  141.4090 C   0  0  0  0  0  2  0  0  0  0  0  0
  183.1640  179.0110  143.2710 C   0  0  0  0  0  0  0  0  0  0  0  0
  182.8100  178.5120  139.5530 C   0  0  1  0  0  0  0  0  0  0  0  0
  184.8740  178.7340  141.5420 C   0  0  0  0  0  0  0  0  0  0  0  0
  185.4490  178.5010  143.8940 C   0  0  0  0  0  3  0  0  0  0  0  0
  180.9830  179.9050  142.6080 O   0  0  0  0  0  0  0  0  0  0  0  0
  184.2090  178.9410  139.1080 C   0  0  0  0  0  2  0  0  0  0  0  0
  185.2240  178.6600  140.1350 N   0  0  0  0  0  0  0  0  0  0  0  0
  182.5230  179.2980  140.8560 C   0  0  2  0  0  3  0  0  0  0  0  0
  185.8170  178.4780  142.5490 C   0  0  0  0  0  3  0  0  0  0  0  0
  188.1150  177.7540  137.9160 C   0  0  0  0  0  0  0  0  0  0  0  0
  189.1740  177.8020  138.8230 C   0  0  0  0  0  3  0  0  0  0  0  0
  186.5610  178.3790  139.6800 C   0  0  0  0  0  0  0  0  0  0  0  0
  188.9340  178.1290  140.1610 C   0  0  0  0  0  3  0  0  0  0  0  0
  186.8150  178.0370  138.3420 C   0  0  0  0  0  3  0  0  0  0  0  0
  187.6330  178.4140  140.5860 C   0  0  0  0  0  3  0  0  0  0  0  0
  188.4160  177.3450  136.2400 Cl  0  0  0  0  0  0  0  0  0  0  0  0
  184.6220  178.4140  146.6690 C   0  0  0  0  0  1  0  0  0  0  0  0
  183.7420  178.7860  145.6150 O   0  0  0  0  0  0  0  0  0  0  0  0
  182.8430  177.1030  139.7320 O   0  0  0  0  0  0  0  0  0  0  0  0
  182.4010  176.4380  138.5770 C   0  0  0  0  0  2  0  0  0  0  0  0
  183.4180  175.3850  138.1850 C   0  0  0  0  0  2  0  0  0  0  0  0
  186.0010  174.5520  137.1670 C   0  0  0  0  0  1  0  0  0  0  0  0
  183.6810  175.4450  136.6850 C   0  0  2  0  0  3  0  0  0  0  0  0
  184.8140  174.5490  136.1940 C   0  0  1  0  0  3  0  0  0  0  0  0
  186.5630  174.8620  134.3460 C   0  0  0  0  0  1  0  0  0  0  0  0
  184.9880  176.6940  135.0600 C   0  0  0  0  0  2  0  0  0  0  0  0
  184.0290  176.8520  136.2310 C   0  0  0  0  0  2  0  0  0  0  0  0
  185.1740  175.2010  134.8650 C   0  0  2  0  0  3  0  0  0  0  0  0
  1 24  1  0  0  0  0
  2  5  1  6  0  0  0
  3  7  1  0  0  0  0
  6 11  1  0  0  0  0
  7  2  1  0  0  0  0
  7  1  2  0  0  0  0
  8  4  1  6  0  0  0
  8 25  1  0  0  0  0
  8 14  1  0  0  0  0
  9  3  2  0  0  0  0
  9 15  1  0  0  0  0
 10  1  1  0  0  0  0
 11  2  1  0  0  0  0
 12  8  1  0  0  0  0
 12 13  1  0  0  0  0
 13  9  1  0  0  0  0
 14  6  1  1  0  0  0
 14  3  1  0  0  0  0
 15 10  2  0  0  0  0
 16 20  2  0  0  0  0
 16 17  1  0  0  0  0
 17 19  2  0  0  0  0
 18 13  1  0  0  0  0
 18 21  2  0  0  0  0
 19 21  1  0  0  0  0
 20 18  1  0  0  0  0
 22 16  1  0  0  0  0
 24 23  1  0  0  0  0
 26 25  1  0  0  0  0
 27 26  1  0  0  0  0
 29 27  1  1  0  0  0
 30 29  1  0  0  0  0
 30 28  1  1  0  0  0
 32 33  1  0  0  0  0
 33 29  1  0  0  0  0
 34 31  1  1  0  0  0
 34 32  1  0  0  0  0
 34 30  1  0  0  0  0
M  END
>  <MODEL>
8

>  <REMARK>
 VINA RESULT:      -7.6      3.986      9.217
  Name = 
  6 active torsions:
  status: ('A' for Active; 'I' for Inactive)
    1  A    between atoms: C_1  and  O_19
    2  A    between atoms: C_3  and  C_13
    3  A    between atoms: C_3  and  C_17
    4  A    between atoms: C_12  and  N_28
    5  A    between atoms: C_17  and  O_29
    6  A    between atoms: C_18  and  O_29
                            x       y       z     vdW  Elec       q    Type
                         _______ _______ _______ _____ _____    ______ ____

>  <TORSDO>
F 6

$$$$
=
 OpenBabel10262423463D

 34 38  0  0  1  0  0  0  0  0999 V2000
  186.5210  178.4600  138.6910 C   0  0  0  0  0  0  0  0  0  0  0  0
  187.3250  178.1620  136.3020 C   0  0  1  0  0  3  0  0  0  0  0  0
  188.8170  177.7570  138.2950 C   0  0  0  0  0  0  0  0  0  0  0  0
  192.0920  176.1780  136.9790 C   0  0  0  0  0  1  0  0  0  0  0  0
  186.4660  176.9900  135.8400 C   0  0  0  0  0  1  0  0  0  0  0  0
  189.3980  177.2150  135.9240 C   0  0  0  0  0  2  0  0  0  0  0  0
  187.5580  178.1410  137.7980 C   0  0  0  0  0  0  0  0  0  0  0  0
  190.8850  176.3760  137.8950 C   0  0  1  0  0  0  0  0  0  0  0  0
  189.0560  177.6920  139.6800 C   0  0  0  0  0  0  0  0  0  0  0  0
  186.7570  178.3830  140.0720 C   0  0  0  0  0  3  0  0  0  0  0  0
  188.5250  178.2610  135.5520 O   0  0  0  0  0  0  0  0  0  0  0  0
  191.4250  176.9310  139.2130 C   0  0  0  0  0  2  0  0  0  0  0  0
  190.3460  177.2360  140.1660 N   0  0  0  0  0  0  0  0  0  0  0  0
  189.9360  177.4630  137.3370 C   0  0  2  0  0  3  0  0  0  0  0  0
  188.0060  177.9980  140.5590 C   0  0  0  0  0  3  0  0  0  0  0  0
  191.4790  178.0850  143.6450 C   0  0  0  0  0  0  0  0  0  0  0  0
  191.2810  176.8660  144.2950 C   0  0  0  0  0  3  0  0  0  0  0  0
  190.6550  177.1230  141.5680 C   0  0  0  0  0  0  0  0  0  0  0  0
  190.7780  175.7700  143.5870 C   0  0  0  0  0  3  0  0  0  0  0  0
  191.1720  178.2120  142.2870 C   0  0  0  0  0  3  0  0  0  0  0  0
  190.4690  175.8990  142.2300 C   0  0  0  0  0  3  0  0  0  0  0  0
  192.1090  179.4580  144.5300 Cl  0  0  0  0  0  0  0  0  0  0  0  0
  184.0670  178.1590  138.5360 C   0  0  0  0  0  1  0  0  0  0  0  0
  185.2690  178.8370  138.1920 O   0  0  0  0  0  0  0  0  0  0  0  0
  190.2340  175.1490  138.1950 O   0  0  0  0  0  0  0  0  0  0  0  0
  190.6960  174.1160  137.3630 C   0  0  0  0  0  2  0  0  0  0  0  0
  189.6720  173.8530  136.2760 C   0  0  0  0  0  2  0  0  0  0  0  0
  187.7460  172.6340  134.4860 C   0  0  0  0  0  1  0  0  0  0  0  0
  188.4600  173.1390  136.8630 C   0  0  2  0  0  3  0  0  0  0  0  0
  187.7990  172.1260  135.9330 C   0  0  1  0  0  3  0  0  0  0  0  0
  185.3460  171.4610  135.5950 C   0  0  0  0  0  1  0  0  0  0  0  0
  186.0490  173.3900  137.0560 C   0  0  0  0  0  2  0  0  0  0  0  0
  187.3700  174.1180  137.2630 C   0  0  0  0  0  2  0  0  0  0  0  0
  186.4060  172.0090  136.5390 C   0  0  2  0  0  3  0  0  0  0  0  0
  1 10  1  0  0  0  0
  2  5  1  6  0  0  0
  2  7  1  0  0  0  0
  3  9  2  0  0  0  0
  7  3  1  0  0  0  0
  7  1  2  0  0  0  0
  8  4  1  6  0  0  0
  8 25  1  0  0  0  0
  8 12  1  0  0  0  0
  9 13  1  0  0  0  0
  9 15  1  0  0  0  0
 10 15  2  0  0  0  0
 11  6  1  0  0  0  0
 11  2  1  0  0  0  0
 12 13  1  0  0  0  0
 13 18  1  0  0  0  0
 14  6  1  6  0  0  0
 14  8  1  0  0  0  0
 14  3  1  0  0  0  0
 16 17  1  0  0  0  0
 16 22  1  0  0  0  0
 18 21  2  0  0  0  0
 18 20  1  0  0  0  0
 19 17  2  0  0  0  0
 20 16  2  0  0  0  0
 21 19  1  0  0  0  0
 24 23  1  0  0  0  0
 24  1  1  0  0  0  0
 26 25  1  0  0  0  0
 27 26  1  0  0  0  0
 29 27  1  6  0  0  0
 29 33  1  0  0  0  0
 30 28  1  6  0  0  0
 30 34  1  0  0  0  0
 30 29  1  0  0  0  0
 32 33  1  0  0  0  0
 34 31  1  6  0  0  0
 34 32  1  0  0  0  0
M  END
>  <MODEL>
9

>  <REMARK>
 VINA RESULT:      -7.6      2.905      7.156
  Name = 
  6 active torsions:
  status: ('A' for Active; 'I' for Inactive)
    1  A    between atoms: C_1  and  O_19
    2  A    between atoms: C_3  and  C_13
    3  A    between atoms: C_3  and  C_17
    4  A    between atoms: C_12  and  N_28
    5  A    between atoms: C_17  and  O_29
    6  A    between atoms: C_18  and  O_29
                            x       y       z     vdW  Elec       q    Type
                         _______ _______ _______ _____ _____    ______ ____

>  <TORSDO>
F 6

$$$$
