=
 OpenBabel10272400273D

 31 35  0  0  1  0  0  0  0  0999 V2000
  189.7580  177.0960  146.7750 C   0  0  0  0  0  0  0  0  0  0  0  0
  187.6520  177.3920  143.5740 C   0  0  2  0  0  3  0  0  0  0  0  0
  186.3970  178.0840  144.0920 C   0  0  0  0  0  0  0  0  0  0  0  0
  184.8150  178.3940  145.8510 C   0  0  0  0  0  0  0  0  0  0  0  0
  188.8310  177.2990  144.5330 C   0  0  0  0  0  0  0  0  0  0  0  0
  191.0420  176.9700  146.2410 C   0  0  0  0  0  3  0  0  0  0  0  0
  185.9780  177.8760  145.3720 N   0  0  0  0  0  0  0  0  0  0  0  0
  189.2630  177.1470  141.6820 C   0  0  1  0  0  3  0  0  0  0  0  0
  189.5760  177.0650  148.1170 F   0  0  0  0  0  0  0  0  0  0  0  0
  185.9290  179.0460  141.7720 C   0  0  0  0  0  2  0  0  0  0  0  0
  184.4570  178.1740  147.1380 F   0  0  0  0  0  0  0  0  0  0  0  0
  190.3420  177.1440  142.6180 O   0  0  0  0  0  0  0  0  0  0  0  0
  188.1100  177.9810  142.2290 C   0  0  1  0  0  3  0  0  0  0  0  0
  188.6600  177.2480  145.9250 C   0  0  0  0  0  3  0  0  0  0  0  0
  183.9890  179.1450  145.0160 C   0  0  0  0  0  3  0  0  0  0  0  0
  190.1310  177.1370  144.0020 C   0  0  0  0  0  0  0  0  0  0  0  0
  191.2270  176.9890  144.8570 C   0  0  0  0  0  3  0  0  0  0  0  0
  186.9370  178.0250  141.2620 C   0  0  0  0  0  2  0  0  0  0  0  0
  185.5540  178.7980  143.2060 C   0  0  0  0  0  0  0  0  0  0  0  0
  184.3640  179.3440  143.6880 C   0  0  0  0  0  3  0  0  0  0  0  0
  189.7110  177.6810  140.4420 O   0  0  0  0  0  0  0  0  0  0  0  0
  190.6220  176.0060  139.1500 O   0  0  0  0  0  0  0  0  0  0  0  0
  189.7610  176.9190  139.2710 C   0  0  0  0  0  0  0  0  0  0  0  0
  186.9340  177.6180  136.1230 C   0  0  0  0  0  0  0  0  0  0  0  0
  188.0480  176.1230  137.6640 C   0  0  0  0  0  3  0  0  0  0  0  0
  189.2910  179.5510  138.1300 F   0  0  0  0  0  0  0  0  0  0  0  0
  186.0380  177.8240  135.1280 F   0  0  0  0  0  0  0  0  0  0  0  0
  187.1240  176.3340  136.6380 C   0  0  0  0  0  3  0  0  0  0  0  0
  188.5970  178.4850  137.6610 C   0  0  0  0  0  0  0  0  0  0  0  0
  188.7940  177.1900  138.1860 C   0  0  0  0  0  0  0  0  0  0  0  0
  187.6700  178.6900  136.6340 C   0  0  0  0  0  3  0  0  0  0  0  0
  1  9  1  0  0  0  0
  2  3  1  1  0  0  0
  2  5  1  0  0  0  0
  3  7  1  0  0  0  0
  4 11  1  0  0  0  0
  5 14  1  0  0  0  0
  6  1  1  0  0  0  0
  7  4  2  0  0  0  0
  8 21  1  6  0  0  0
  8 13  1  0  0  0  0
  8 12  1  0  0  0  0
 10 19  1  0  0  0  0
 12 16  1  0  0  0  0
 13 18  1  6  0  0  0
 13  2  1  0  0  0  0
 14  1  2  0  0  0  0
 15  4  1  0  0  0  0
 16  5  2  0  0  0  0
 16 17  1  0  0  0  0
 17  6  2  0  0  0  0
 18 10  1  0  0  0  0
 19 20  1  0  0  0  0
 19  3  2  0  0  0  0
 20 15  2  0  0  0  0
 22 23  2  0  0  0  0
 23 21  1  0  0  0  0
 24 31  2  0  0  0  0
 24 28  1  0  0  0  0
 25 30  1  0  0  0  0
 27 24  1  0  0  0  0
 28 25  2  0  0  0  0
 29 26  1  0  0  0  0
 29 30  2  0  0  0  0
 30 23  1  0  0  0  0
 31 29  1  0  0  0  0
M  END
>  <MODEL>
1

>  <REMARK>
 VINA RESULT:     -10.9      0.000      0.000
  Name = 
  3 active torsions:
  status: ('A' for Active; 'I' for Inactive)
    1  A    between atoms: C_9  and  C_22
    2  A    between atoms: C_9  and  O_23
    3  A    between atoms: C_15  and  O_23
                            x       y       z     vdW  Elec       q    Type
                         _______ _______ _______ _____ _____    ______ ____

>  <TORSDO>
F 3

$$$$
=
 OpenBabel10272400273D

 31 35  0  0  1  0  0  0  0  0999 V2000
  190.6960  177.0660  142.2420 C   0  0  0  0  0  0  0  0  0  0  0  0
  187.1190  177.6370  143.5260 C   0  0  2  0  0  3  0  0  0  0  0  0
  187.3450  177.7600  145.0280 C   0  0  0  0  0  0  0  0  0  0  0  0
  188.5530  177.0880  146.9730 C   0  0  0  0  0  0  0  0  0  0  0  0
  188.3600  177.6200  142.6430 C   0  0  0  0  0  0  0  0  0  0  0  0
  190.5720  177.4730  140.9130 C   0  0  0  0  0  3  0  0  0  0  0  0
  188.3680  177.0860  145.6250 N   0  0  0  0  0  0  0  0  0  0  0  0
  185.8090  178.4140  141.5480 C   0  0  1  0  0  3  0  0  0  0  0  0
  191.8830  176.6030  142.7020 F   0  0  0  0  0  0  0  0  0  0  0  0
  185.2230  179.1630  145.2660 C   0  0  0  0  0  2  0  0  0  0  0  0
  189.5980  176.4180  147.5120 F   0  0  0  0  0  0  0  0  0  0  0  0
  187.0140  178.4580  140.7820 O   0  0  0  0  0  0  0  0  0  0  0  0
  186.1210  178.6890  143.0150 C   0  0  1  0  0  3  0  0  0  0  0  0
  189.5930  177.1290  143.0980 C   0  0  0  0  0  3  0  0  0  0  0  0
  187.6630  177.7730  147.7990 C   0  0  0  0  0  3  0  0  0  0  0  0
  188.2370  177.9980  141.2870 C   0  0  0  0  0  0  0  0  0  0  0  0
  189.3440  177.9360  140.4360 C   0  0  0  0  0  3  0  0  0  0  0  0
  184.8660  178.6650  143.8720 C   0  0  0  0  0  2  0  0  0  0  0  0
  186.3960  178.4210  145.8440 C   0  0  0  0  0  0  0  0  0  0  0  0
  186.5810  178.4400  147.2280 C   0  0  0  0  0  3  0  0  0  0  0  0
  184.8950  179.3840  141.0500 O   0  0  0  0  0  0  0  0  0  0  0  0
  184.2510  180.3240  139.0470 O   0  0  0  0  0  0  0  0  0  0  0  0
  184.3300  179.2960  139.7740 C   0  0  0  0  0  0  0  0  0  0  0  0
  182.9520  175.5160  138.2930 C   0  0  0  0  0  0  0  0  0  0  0  0
  184.3900  177.4520  138.1170 C   0  0  0  0  0  3  0  0  0  0  0  0
  182.2560  177.7470  141.0960 F   0  0  0  0  0  0  0  0  0  0  0  0
  182.5260  174.3230  137.8130 F   0  0  0  0  0  0  0  0  0  0  0  0
  183.9520  176.2220  137.6220 C   0  0  0  0  0  3  0  0  0  0  0  0
  182.8250  177.2720  139.9610 C   0  0  0  0  0  0  0  0  0  0  0  0
  183.8350  177.9920  139.2870 C   0  0  0  0  0  0  0  0  0  0  0  0
  182.3900  176.0400  139.4600 C   0  0  0  0  0  3  0  0  0  0  0  0
  1  9  1  0  0  0  0
  1 14  1  0  0  0  0
  2  5  1  6  0  0  0
  2  3  1  0  0  0  0
  3  7  2  0  0  0  0
  3 19  1  0  0  0  0
  4 11  1  0  0  0  0
  4 15  2  0  0  0  0
  5 14  2  0  0  0  0
  6  1  2  0  0  0  0
  7  4  1  0  0  0  0
  8 21  1  6  0  0  0
  8 13  1  0  0  0  0
 10 19  1  0  0  0  0
 12 16  1  0  0  0  0
 12  8  1  0  0  0  0
 13  2  1  0  0  0  0
 13 18  1  1  0  0  0
 16  5  1  0  0  0  0
 17  6  1  0  0  0  0
 17 16  2  0  0  0  0
 18 10  1  0  0  0  0
 19 20  2  0  0  0  0
 20 15  1  0  0  0  0
 22 23  2  0  0  0  0
 23 21  1  0  0  0  0
 24 31  1  0  0  0  0
 25 30  2  0  0  0  0
 27 24  1  0  0  0  0
 28 25  1  0  0  0  0
 28 24  2  0  0  0  0
 29 26  1  0  0  0  0
 30 23  1  0  0  0  0
 30 29  1  0  0  0  0
 31 29  2  0  0  0  0
M  END
>  <MODEL>
2

>  <REMARK>
 VINA RESULT:     -10.9      3.212      4.657
  Name = 
  3 active torsions:
  status: ('A' for Active; 'I' for Inactive)
    1  A    between atoms: C_9  and  C_22
    2  A    between atoms: C_9  and  O_23
    3  A    between atoms: C_15  and  O_23
                            x       y       z     vdW  Elec       q    Type
                         _______ _______ _______ _____ _____    ______ ____

>  <TORSDO>
F 3

$$$$
=
 OpenBabel10272400273D

 31 35  0  0  1  0  0  0  0  0999 V2000
  185.3810  178.3730  145.5410 C   0  0  0  0  0  0  0  0  0  0  0  0
  188.8930  177.9570  144.0360 C   0  0  2  0  0  3  0  0  0  0  0  0
  189.6820  177.4330  145.2290 C   0  0  0  0  0  0  0  0  0  0  0  0
  190.0630  177.4350  147.5850 C   0  0  0  0  0  0  0  0  0  0  0  0
  187.3800  178.0380  144.1930 C   0  0  0  0  0  0  0  0  0  0  0  0
  184.5900  178.3330  144.3910 C   0  0  0  0  0  3  0  0  0  0  0  0
  189.3340  177.7990  146.4960 N   0  0  0  0  0  0  0  0  0  0  0  0
  188.5610  177.8750  141.5620 C   0  0  1  0  0  3  0  0  0  0  0  0
  184.8060  178.5500  146.7540 F   0  0  0  0  0  0  0  0  0  0  0  0
  191.3540  176.2960  143.6680 C   0  0  0  0  0  2  0  0  0  0  0  0
  189.6610  177.8090  148.8220 F   0  0  0  0  0  0  0  0  0  0  0  0
  187.1470  177.8730  141.7650 O   0  0  0  0  0  0  0  0  0  0  0  0
  189.2510  177.2030  142.7440 C   0  0  1  0  0  3  0  0  0  0  0  0
  186.7680  178.2380  145.4400 C   0  0  0  0  0  3  0  0  0  0  0  0
  191.2260  176.6830  147.4270 C   0  0  0  0  0  3  0  0  0  0  0  0
  186.5730  178.0320  143.0320 C   0  0  0  0  0  0  0  0  0  0  0  0
  185.1860  178.1640  143.1400 C   0  0  0  0  0  3  0  0  0  0  0  0
  190.7610  177.1700  142.5710 C   0  0  0  0  0  2  0  0  0  0  0  0
  190.8850  176.7140  145.0340 C   0  0  0  0  0  0  0  0  0  0  0  0
  191.6360  176.3240  146.1450 C   0  0  0  0  0  3  0  0  0  0  0  0
  188.8690  177.1860  140.3570 O   0  0  0  0  0  0  0  0  0  0  0  0
  188.9670  179.0040  138.9450 O   0  0  0  0  0  0  0  0  0  0  0  0
  189.3640  177.8400  139.2250 C   0  0  0  0  0  0  0  0  0  0  0  0
  192.3040  175.8630  136.8090 C   0  0  0  0  0  0  0  0  0  0  0  0
  191.6190  176.8590  138.9040 C   0  0  0  0  0  3  0  0  0  0  0  0
  188.8750  177.0640  136.4660 F   0  0  0  0  0  0  0  0  0  0  0  0
  193.2430  175.2390  136.0580 F   0  0  0  0  0  0  0  0  0  0  0  0
  192.5880  176.2150  138.1300 C   0  0  0  0  0  3  0  0  0  0  0  0
  190.0780  176.7990  137.0320 C   0  0  0  0  0  0  0  0  0  0  0  0
  190.3570  177.1590  138.3680 C   0  0  0  0  0  0  0  0  0  0  0  0
  191.0520  176.1540  136.2620 C   0  0  0  0  0  3  0  0  0  0  0  0
  1  9  1  0  0  0  0
  2  5  1  1  0  0  0
  2  3  1  0  0  0  0
  3  7  1  0  0  0  0
  4 11  1  0  0  0  0
  5 14  2  0  0  0  0
  6  1  2  0  0  0  0
  7  4  2  0  0  0  0
  8 21  1  6  0  0  0
  8 12  1  0  0  0  0
  8 13  1  0  0  0  0
 10 19  1  0  0  0  0
 12 16  1  0  0  0  0
 13 18  1  6  0  0  0
 13  2  1  0  0  0  0
 14  1  1  0  0  0  0
 15  4  1  0  0  0  0
 16 17  2  0  0  0  0
 16  5  1  0  0  0  0
 17  6  1  0  0  0  0
 18 10  1  0  0  0  0
 19  3  2  0  0  0  0
 19 20  1  0  0  0  0
 20 15  2  0  0  0  0
 22 23  2  0  0  0  0
 23 21  1  0  0  0  0
 24 28  1  0  0  0  0
 26 29  1  0  0  0  0
 27 24  1  0  0  0  0
 28 25  2  0  0  0  0
 29 30  2  0  0  0  0
 30 25  1  0  0  0  0
 30 23  1  0  0  0  0
 31 24  2  0  0  0  0
 31 29  1  0  0  0  0
M  END
>  <MODEL>
3

>  <REMARK>
 VINA RESULT:     -10.7      2.091      4.669
  Name = 
  3 active torsions:
  status: ('A' for Active; 'I' for Inactive)
    1  A    between atoms: C_9  and  C_22
    2  A    between atoms: C_9  and  O_23
    3  A    between atoms: C_15  and  O_23
                            x       y       z     vdW  Elec       q    Type
                         _______ _______ _______ _____ _____    ______ ____

>  <TORSDO>
F 3

$$$$
=
 OpenBabel10272400273D

 31 35  0  0  1  0  0  0  0  0999 V2000
  185.2010  178.3230  145.2140 C   0  0  0  0  0  0  0  0  0  0  0  0
  188.8140  178.1270  143.9200 C   0  0  2  0  0  3  0  0  0  0  0  0
  189.5460  177.5560  145.1280 C   0  0  0  0  0  0  0  0  0  0  0  0
  189.7770  177.4200  147.4990 C   0  0  0  0  0  0  0  0  0  0  0  0
  187.2930  178.1450  143.9820 C   0  0  0  0  0  0  0  0  0  0  0  0
  184.4870  178.3290  144.0160 C   0  0  0  0  0  3  0  0  0  0  0  0
  189.1060  177.8280  146.3890 N   0  0  0  0  0  0  0  0  0  0  0  0
  188.6430  178.1920  141.4300 C   0  0  1  0  0  3  0  0  0  0  0  0
  184.5440  178.4020  146.3960 F   0  0  0  0  0  0  0  0  0  0  0  0
  191.3570  176.5800  143.6130 C   0  0  0  0  0  2  0  0  0  0  0  0
  189.2830  177.7010  148.7280 F   0  0  0  0  0  0  0  0  0  0  0  0
  187.2200  178.1270  141.5390 O   0  0  0  0  0  0  0  0  0  0  0  0
  189.2830  177.4700  142.6110 C   0  0  1  0  0  3  0  0  0  0  0  0
  186.5960  178.2430  145.1960 C   0  0  0  0  0  3  0  0  0  0  0  0
  190.9770  176.7210  147.3730 C   0  0  0  0  0  3  0  0  0  0  0  0
  186.5620  178.1850  142.7730 C   0  0  0  0  0  0  0  0  0  0  0  0
  185.1660  178.2610  142.7980 C   0  0  0  0  0  3  0  0  0  0  0  0
  190.8010  177.5010  142.5350 C   0  0  0  0  0  2  0  0  0  0  0  0
  190.7870  176.8930  144.9680 C   0  0  0  0  0  0  0  0  0  0  0  0
  191.4800  176.4600  146.1000 C   0  0  0  0  0  3  0  0  0  0  0  0
  189.0530  177.5920  140.2070 O   0  0  0  0  0  0  0  0  0  0  0  0
  189.1630  179.1730  138.5340 O   0  0  0  0  0  0  0  0  0  0  0  0
  188.6680  178.0930  138.9600 C   0  0  0  0  0  0  0  0  0  0  0  0
  185.7550  175.9930  136.6180 C   0  0  0  0  0  0  0  0  0  0  0  0
  186.4170  177.9090  137.9360 C   0  0  0  0  0  3  0  0  0  0  0  0
  189.1870  175.4990  137.7560 F   0  0  0  0  0  0  0  0  0  0  0  0
  184.8240  175.3410  135.8810 F   0  0  0  0  0  0  0  0  0  0  0  0
  185.4570  177.2380  137.1750 C   0  0  0  0  0  3  0  0  0  0  0  0
  187.9780  176.0880  137.5820 C   0  0  0  0  0  0  0  0  0  0  0  0
  187.6840  177.3460  138.1490 C   0  0  0  0  0  0  0  0  0  0  0  0
  187.0120  175.4200  136.8210 C   0  0  0  0  0  3  0  0  0  0  0  0
  1  9  1  0  0  0  0
  2  5  1  1  0  0  0
  2  3  1  0  0  0  0
  3  7  1  0  0  0  0
  4 11  1  0  0  0  0
  5 14  2  0  0  0  0
  6  1  2  0  0  0  0
  7  4  2  0  0  0  0
  8 21  1  6  0  0  0
  8 12  1  0  0  0  0
  8 13  1  0  0  0  0
 10 19  1  0  0  0  0
 12 16  1  0  0  0  0
 13 18  1  6  0  0  0
 13  2  1  0  0  0  0
 14  1  1  0  0  0  0
 15  4  1  0  0  0  0
 16 17  2  0  0  0  0
 16  5  1  0  0  0  0
 17  6  1  0  0  0  0
 18 10  1  0  0  0  0
 19  3  2  0  0  0  0
 19 20  1  0  0  0  0
 20 15  2  0  0  0  0
 22 23  2  0  0  0  0
 23 21  1  0  0  0  0
 24 31  2  0  0  0  0
 24 28  1  0  0  0  0
 25 30  1  0  0  0  0
 27 24  1  0  0  0  0
 28 25  2  0  0  0  0
 29 26  1  0  0  0  0
 29 30  2  0  0  0  0
 30 23  1  0  0  0  0
 31 29  1  0  0  0  0
M  END
>  <MODEL>
4

>  <REMARK>
 VINA RESULT:     -10.4      1.636      4.225
  Name = 
  3 active torsions:
  status: ('A' for Active; 'I' for Inactive)
    1  A    between atoms: C_9  and  C_22
    2  A    between atoms: C_9  and  O_23
    3  A    between atoms: C_15  and  O_23
                            x       y       z     vdW  Elec       q    Type
                         _______ _______ _______ _____ _____    ______ ____

>  <TORSDO>
F 3

$$$$
=
 OpenBabel10272400273D

 31 35  0  0  1  0  0  0  0  0999 V2000
  185.2860  178.3720  145.2580 C   0  0  0  0  0  0  0  0  0  0  0  0
  188.8340  178.0430  143.8190 C   0  0  2  0  0  3  0  0  0  0  0  0
  189.5910  177.4400  144.9960 C   0  0  0  0  0  0  0  0  0  0  0  0
  189.9110  177.2870  147.3550 C   0  0  0  0  0  0  0  0  0  0  0  0
  187.3180  178.1190  143.9420 C   0  0  0  0  0  0  0  0  0  0  0  0
  184.5240  178.4100  144.0890 C   0  0  0  0  0  3  0  0  0  0  0  0
  189.2120  177.7240  146.2740 N   0  0  0  0  0  0  0  0  0  0  0  0
  188.5650  178.1240  141.3380 C   0  0  1  0  0  3  0  0  0  0  0  0
  184.6800  178.4720  146.4660 F   0  0  0  0  0  0  0  0  0  0  0  0
  191.3010  176.4010  143.4070 C   0  0  0  0  0  2  0  0  0  0  0  0
  189.4780  177.5820  148.6040 F   0  0  0  0  0  0  0  0  0  0  0  0
  187.1460  178.1130  141.5040 O   0  0  0  0  0  0  0  0  0  0  0  0
  189.2230  177.3730  142.4910 C   0  0  1  0  0  3  0  0  0  0  0  0
  186.6740  178.2390  145.1840 C   0  0  0  0  0  3  0  0  0  0  0  0
  191.0770  176.5430  147.1790 C   0  0  0  0  0  3  0  0  0  0  0  0
  186.5410  178.1910  142.7640 C   0  0  0  0  0  0  0  0  0  0  0  0
  185.1510  178.3210  142.8440 C   0  0  0  0  0  3  0  0  0  0  0  0
  190.7380  177.3470  142.3540 C   0  0  0  0  0  2  0  0  0  0  0  0
  190.7980  176.7310  144.7850 C   0  0  0  0  0  0  0  0  0  0  0  0
  191.5190  176.2670  145.8870 C   0  0  0  0  0  3  0  0  0  0  0  0
  188.9030  177.5130  140.0980 O   0  0  0  0  0  0  0  0  0  0  0  0
  188.9820  179.1630  138.4920 O   0  0  0  0  0  0  0  0  0  0  0  0
  188.5170  178.0520  138.8680 C   0  0  0  0  0  0  0  0  0  0  0  0
  185.8270  175.8330  136.3720 C   0  0  0  0  0  0  0  0  0  0  0  0
  188.0220  176.1710  137.3290 C   0  0  0  0  0  3  0  0  0  0  0  0
  185.7290  178.7910  138.5080 F   0  0  0  0  0  0  0  0  0  0  0  0
  184.9890  175.1230  135.5790 F   0  0  0  0  0  0  0  0  0  0  0  0
  187.1590  175.4380  136.5120 C   0  0  0  0  0  3  0  0  0  0  0  0
  186.2200  177.7010  137.8670 C   0  0  0  0  0  0  0  0  0  0  0  0
  187.5670  177.3080  138.0140 C   0  0  0  0  0  0  0  0  0  0  0  0
  185.3600  176.9630  137.0480 C   0  0  0  0  0  3  0  0  0  0  0  0
  1  9  1  0  0  0  0
  2  5  1  1  0  0  0
  2  3  1  0  0  0  0
  3  7  1  0  0  0  0
  4 11  1  0  0  0  0
  5 14  2  0  0  0  0
  6  1  2  0  0  0  0
  7  4  2  0  0  0  0
  8 21  1  6  0  0  0
  8 12  1  0  0  0  0
  8 13  1  0  0  0  0
 10 19  1  0  0  0  0
 12 16  1  0  0  0  0
 13 18  1  6  0  0  0
 13  2  1  0  0  0  0
 14  1  1  0  0  0  0
 15  4  1  0  0  0  0
 16 17  2  0  0  0  0
 16  5  1  0  0  0  0
 17  6  1  0  0  0  0
 18 10  1  0  0  0  0
 19  3  2  0  0  0  0
 19 20  1  0  0  0  0
 20 15  2  0  0  0  0
 22 23  2  0  0  0  0
 23 21  1  0  0  0  0
 24 28  2  0  0  0  0
 24 31  1  0  0  0  0
 25 30  2  0  0  0  0
 27 24  1  0  0  0  0
 28 25  1  0  0  0  0
 29 30  1  0  0  0  0
 29 26  1  0  0  0  0
 30 23  1  0  0  0  0
 31 29  2  0  0  0  0
M  END
>  <MODEL>
5

>  <REMARK>
 VINA RESULT:     -10.4      1.618      4.185
  Name = 
  3 active torsions:
  status: ('A' for Active; 'I' for Inactive)
    1  A    between atoms: C_9  and  C_22
    2  A    between atoms: C_9  and  O_23
    3  A    between atoms: C_15  and  O_23
                            x       y       z     vdW  Elec       q    Type
                         _______ _______ _______ _____ _____    ______ ____

>  <TORSDO>
F 3

$$$$
=
 OpenBabel10272400273D

 31 35  0  0  1  0  0  0  0  0999 V2000
  185.4990  178.4080  145.3460 C   0  0  0  0  0  0  0  0  0  0  0  0
  189.0720  177.8350  144.0540 C   0  0  2  0  0  3  0  0  0  0  0  0
  189.7890  177.3750  145.3170 C   0  0  0  0  0  0  0  0  0  0  0  0
  190.0510  177.5210  147.6840 C   0  0  0  0  0  0  0  0  0  0  0  0
  187.5560  177.9520  144.1270 C   0  0  0  0  0  0  0  0  0  0  0  0
  184.7660  178.3080  144.1620 C   0  0  0  0  0  3  0  0  0  0  0  0
  189.3860  177.8280  146.5380 N   0  0  0  0  0  0  0  0  0  0  0  0
  188.8640  177.6010  141.5770 C   0  0  1  0  0  3  0  0  0  0  0  0
  184.8670  178.6730  146.5150 F   0  0  0  0  0  0  0  0  0  0  0  0
  191.5140  176.1110  143.9200 C   0  0  0  0  0  2  0  0  0  0  0  0
  189.5950  177.9810  148.8730 F   0  0  0  0  0  0  0  0  0  0  0  0
  187.4410  177.6360  141.7060 O   0  0  0  0  0  0  0  0  0  0  0  0
  189.4790  176.9930  142.8330 C   0  0  1  0  0  3  0  0  0  0  0  0
  186.8860  178.2420  145.3250 C   0  0  0  0  0  3  0  0  0  0  0  0
  191.2050  176.7400  147.6350 C   0  0  0  0  0  3  0  0  0  0  0  0
  186.8080  177.8860  142.9290 C   0  0  0  0  0  0  0  0  0  0  0  0
  185.4200  178.0490  142.9560 C   0  0  0  0  0  3  0  0  0  0  0  0
  190.9950  176.9230  142.7400 C   0  0  0  0  0  2  0  0  0  0  0  0
  190.9860  176.6240  145.2300 C   0  0  0  0  0  0  0  0  0  0  0  0
  191.6710  176.2930  146.4000 C   0  0  0  0  0  3  0  0  0  0  0  0
  189.2180  176.8300  140.4340 O   0  0  0  0  0  0  0  0  0  0  0  0
  191.0860  177.6830  139.3900 O   0  0  0  0  0  0  0  0  0  0  0  0
  189.8620  177.3860  139.3250 C   0  0  0  0  0  0  0  0  0  0  0  0
  187.5750  178.0840  135.7650 C   0  0  0  0  0  0  0  0  0  0  0  0
  187.7980  178.1380  138.1730 C   0  0  0  0  0  3  0  0  0  0  0  0
  190.8810  176.8230  136.6620 F   0  0  0  0  0  0  0  0  0  0  0  0
  186.8410  178.3090  134.6490 F   0  0  0  0  0  0  0  0  0  0  0  0
  187.0410  178.3710  137.0230 C   0  0  0  0  0  3  0  0  0  0  0  0
  189.6310  177.3280  136.8060 C   0  0  0  0  0  0  0  0  0  0  0  0
  189.0970  177.6160  138.0810 C   0  0  0  0  0  0  0  0  0  0  0  0
  188.8670  177.5630  135.6580 C   0  0  0  0  0  3  0  0  0  0  0  0
  1  9  1  0  0  0  0
  2  5  1  1  0  0  0
  2  3  1  0  0  0  0
  3  7  1  0  0  0  0
  4 11  1  0  0  0  0
  5 14  2  0  0  0  0
  6  1  2  0  0  0  0
  7  4  2  0  0  0  0
  8 21  1  6  0  0  0
  8 12  1  0  0  0  0
  8 13  1  0  0  0  0
 10 19  1  0  0  0  0
 12 16  1  0  0  0  0
 13 18  1  6  0  0  0
 13  2  1  0  0  0  0
 14  1  1  0  0  0  0
 15  4  1  0  0  0  0
 16 17  2  0  0  0  0
 16  5  1  0  0  0  0
 17  6  1  0  0  0  0
 18 10  1  0  0  0  0
 19  3  2  0  0  0  0
 19 20  1  0  0  0  0
 20 15  2  0  0  0  0
 23 22  2  0  0  0  0
 23 21  1  0  0  0  0
 24 28  1  0  0  0  0
 26 29  1  0  0  0  0
 27 24  1  0  0  0  0
 28 25  2  0  0  0  0
 29 30  2  0  0  0  0
 30 25  1  0  0  0  0
 30 23  1  0  0  0  0
 31 24  2  0  0  0  0
 31 29  1  0  0  0  0
M  END
>  <MODEL>
6

>  <REMARK>
 VINA RESULT:     -10.2      1.493      4.123
  Name = 
  3 active torsions:
  status: ('A' for Active; 'I' for Inactive)
    1  A    between atoms: C_9  and  C_22
    2  A    between atoms: C_9  and  O_23
    3  A    between atoms: C_15  and  O_23
                            x       y       z     vdW  Elec       q    Type
                         _______ _______ _______ _____ _____    ______ ____

>  <TORSDO>
F 3

$$$$
=
 OpenBabel10272400273D

 31 35  0  0  1  0  0  0  0  0999 V2000
  189.8100  177.1210  146.4450 C   0  0  0  0  0  0  0  0  0  0  0  0
  187.4420  177.5220  143.4450 C   0  0  2  0  0  3  0  0  0  0  0  0
  186.2220  178.1610  144.0970 C   0  0  0  0  0  0  0  0  0  0  0  0
  184.7860  178.3560  145.9920 C   0  0  0  0  0  0  0  0  0  0  0  0
  188.6980  177.4090  144.2990 C   0  0  0  0  0  0  0  0  0  0  0  0
  191.0470  177.0470  145.8020 C   0  0  0  0  0  3  0  0  0  0  0  0
  185.9140  177.8850  145.3960 N   0  0  0  0  0  0  0  0  0  0  0  0
  188.8940  177.3990  141.4180 C   0  0  1  0  0  3  0  0  0  0  0  0
  189.7400  177.0220  147.7940 F   0  0  0  0  0  0  0  0  0  0  0  0
  185.5470  179.2220  141.8730 C   0  0  0  0  0  2  0  0  0  0  0  0
  184.5390  178.0680  147.2920 F   0  0  0  0  0  0  0  0  0  0  0  0
  190.0470  177.3750  142.2610 O   0  0  0  0  0  0  0  0  0  0  0  0
  187.7760  178.1820  142.0980 C   0  0  1  0  0  3  0  0  0  0  0  0
  188.6430  177.2890  145.6960 C   0  0  0  0  0  3  0  0  0  0  0  0
  183.8800  179.1280  145.2650 C   0  0  0  0  0  3  0  0  0  0  0  0
  189.9520  177.2990  143.6560 C   0  0  0  0  0  0  0  0  0  0  0  0
  191.1170  177.1340  144.4110 C   0  0  0  0  0  3  0  0  0  0  0  0
  186.5270  178.2460  141.2330 C   0  0  0  0  0  2  0  0  0  0  0  0
  185.2970  178.8980  143.3190 C   0  0  0  0  0  0  0  0  0  0  0  0
  184.1410  179.3960  143.9230 C   0  0  0  0  0  3  0  0  0  0  0  0
  189.2290  178.0010  140.1730 O   0  0  0  0  0  0  0  0  0  0  0  0
  188.0600  177.4180  138.2750 O   0  0  0  0  0  0  0  0  0  0  0  0
  189.1170  177.3190  138.9580 C   0  0  0  0  0  0  0  0  0  0  0  0
  192.4480  174.9750  137.6180 C   0  0  0  0  0  0  0  0  0  0  0  0
  191.5530  176.8810  138.8070 C   0  0  0  0  0  3  0  0  0  0  0  0
  188.8070  174.9030  137.3720 F   0  0  0  0  0  0  0  0  0  0  0  0
  193.5090  174.2440  137.2020 F   0  0  0  0  0  0  0  0  0  0  0  0
  192.6490  176.1280  138.3780 C   0  0  0  0  0  3  0  0  0  0  0  0
  190.0500  175.3240  137.7130 C   0  0  0  0  0  0  0  0  0  0  0  0
  190.2450  176.4920  138.4820 C   0  0  0  0  0  0  0  0  0  0  0  0
  191.1510  174.5740  137.2870 C   0  0  0  0  0  3  0  0  0  0  0  0
  1  9  1  0  0  0  0
  2  3  1  1  0  0  0
  2  5  1  0  0  0  0
  3  7  1  0  0  0  0
  4 11  1  0  0  0  0
  5 14  1  0  0  0  0
  6  1  1  0  0  0  0
  7  4  2  0  0  0  0
  8 21  1  6  0  0  0
  8 13  1  0  0  0  0
  8 12  1  0  0  0  0
 10 19  1  0  0  0  0
 12 16  1  0  0  0  0
 13 18  1  6  0  0  0
 13  2  1  0  0  0  0
 14  1  2  0  0  0  0
 15  4  1  0  0  0  0
 16  5  2  0  0  0  0
 16 17  1  0  0  0  0
 17  6  2  0  0  0  0
 18 10  1  0  0  0  0
 19 20  1  0  0  0  0
 19  3  2  0  0  0  0
 20 15  2  0  0  0  0
 22 23  2  0  0  0  0
 23 21  1  0  0  0  0
 24 28  1  0  0  0  0
 26 29  1  0  0  0  0
 27 24  1  0  0  0  0
 28 25  2  0  0  0  0
 29 30  2  0  0  0  0
 30 25  1  0  0  0  0
 30 23  1  0  0  0  0
 31 24  2  0  0  0  0
 31 29  1  0  0  0  0
M  END
>  <MODEL>
7

>  <REMARK>
 VINA RESULT:     -10.2      1.993      2.782
  Name = 
  3 active torsions:
  status: ('A' for Active; 'I' for Inactive)
    1  A    between atoms: C_9  and  C_22
    2  A    between atoms: C_9  and  O_23
    3  A    between atoms: C_15  and  O_23
                            x       y       z     vdW  Elec       q    Type
                         _______ _______ _______ _____ _____    ______ ____

>  <TORSDO>
F 3

$$$$
=
 OpenBabel10272400273D

 31 35  0  0  1  0  0  0  0  0999 V2000
  191.1600  177.3700  144.8430 C   0  0  0  0  0  0  0  0  0  0  0  0
  187.6790  177.6500  143.2400 C   0  0  2  0  0  3  0  0  0  0  0  0
  186.8300  178.1100  144.4190 C   0  0  0  0  0  0  0  0  0  0  0  0
  186.3800  178.0380  146.7610 C   0  0  0  0  0  0  0  0  0  0  0  0
  189.1880  177.6380  143.4420 C   0  0  0  0  0  0  0  0  0  0  0  0
  191.9820  177.4720  143.7200 C   0  0  0  0  0  3  0  0  0  0  0  0
  187.1570  177.7330  145.6880 N   0  0  0  0  0  0  0  0  0  0  0  0
  188.0800  177.8010  140.7800 C   0  0  1  0  0  3  0  0  0  0  0  0
  191.7070  177.1940  146.0700 F   0  0  0  0  0  0  0  0  0  0  0  0
  185.1520  179.1990  142.8310 C   0  0  0  0  0  2  0  0  0  0  0  0
  186.7630  177.6570  148.0020 F   0  0  0  0  0  0  0  0  0  0  0  0
  189.4850  177.8670  141.0260 O   0  0  0  0  0  0  0  0  0  0  0  0
  187.3230  178.4140  141.9540 C   0  0  1  0  0  3  0  0  0  0  0  0
  189.7720  177.4410  144.7020 C   0  0  0  0  0  3  0  0  0  0  0  0
  185.1860  178.7370  146.5830 C   0  0  0  0  0  3  0  0  0  0  0  0
  190.0280  177.7070  142.3070 C   0  0  0  0  0  0  0  0  0  0  0  0
  191.4170  177.6390  142.4540 C   0  0  0  0  0  3  0  0  0  0  0  0
  185.8190  178.3780  141.7340 C   0  0  0  0  0  2  0  0  0  0  0  0
  185.6000  178.7740  144.2010 C   0  0  0  0  0  0  0  0  0  0  0  0
  184.7980  179.1040  145.2960 C   0  0  0  0  0  3  0  0  0  0  0  0
  187.7750  178.5010  139.5800 O   0  0  0  0  0  0  0  0  0  0  0  0
  188.9810  179.3870  137.8280 O   0  0  0  0  0  0  0  0  0  0  0  0
  188.5390  178.3630  138.4170 C   0  0  0  0  0  0  0  0  0  0  0  0
  189.2810  174.4330  136.8700 C   0  0  0  0  0  0  0  0  0  0  0  0
  187.7710  176.2600  137.3490 C   0  0  0  0  0  3  0  0  0  0  0  0
  191.1740  177.1350  138.4300 F   0  0  0  0  0  0  0  0  0  0  0  0
  189.5000  173.1900  136.3780 F   0  0  0  0  0  0  0  0  0  0  0  0
  187.9960  174.9790  136.8410 C   0  0  0  0  0  3  0  0  0  0  0  0
  190.1200  176.4520  137.9170 C   0  0  0  0  0  0  0  0  0  0  0  0
  188.8250  177.0110  137.8920 C   0  0  0  0  0  0  0  0  0  0  0  0
  190.3400  175.1690  137.4070 C   0  0  0  0  0  3  0  0  0  0  0  0
  1  9  1  0  0  0  0
  2  5  1  1  0  0  0
  2  3  1  0  0  0  0
  3  7  1  0  0  0  0
  4 11  1  0  0  0  0
  5 14  2  0  0  0  0
  6  1  2  0  0  0  0
  7  4  2  0  0  0  0
  8 21  1  6  0  0  0
  8 12  1  0  0  0  0
  8 13  1  0  0  0  0
 10 19  1  0  0  0  0
 12 16  1  0  0  0  0
 13 18  1  6  0  0  0
 13  2  1  0  0  0  0
 14  1  1  0  0  0  0
 15  4  1  0  0  0  0
 16 17  2  0  0  0  0
 16  5  1  0  0  0  0
 17  6  1  0  0  0  0
 18 10  1  0  0  0  0
 19  3  2  0  0  0  0
 19 20  1  0  0  0  0
 20 15  2  0  0  0  0
 22 23  2  0  0  0  0
 23 21  1  0  0  0  0
 24 31  1  0  0  0  0
 25 30  2  0  0  0  0
 27 24  1  0  0  0  0
 28 24  2  0  0  0  0
 28 25  1  0  0  0  0
 29 26  1  0  0  0  0
 30 29  1  0  0  0  0
 30 23  1  0  0  0  0
 31 29  2  0  0  0  0
M  END
>  <MODEL>
8

>  <REMARK>
 VINA RESULT:     -10.1      1.908      2.420
  Name = 
  3 active torsions:
  status: ('A' for Active; 'I' for Inactive)
    1  A    between atoms: C_9  and  C_22
    2  A    between atoms: C_9  and  O_23
    3  A    between atoms: C_15  and  O_23
                            x       y       z     vdW  Elec       q    Type
                         _______ _______ _______ _____ _____    ______ ____

>  <TORSDO>
F 3

$$$$
=
 OpenBabel10272400273D

 31 35  0  0  1  0  0  0  0  0999 V2000
  185.0980  178.4560  146.2070 C   0  0  0  0  0  0  0  0  0  0  0  0
  187.6460  178.4770  143.3300 C   0  0  2  0  0  3  0  0  0  0  0  0
  188.7920  177.6690  143.9250 C   0  0  0  0  0  0  0  0  0  0  0  0
  190.0880  177.0650  145.8350 C   0  0  0  0  0  0  0  0  0  0  0  0
  186.3410  178.5000  144.1140 C   0  0  0  0  0  0  0  0  0  0  0  0
  183.9110  178.7080  145.5170 C   0  0  0  0  0  3  0  0  0  0  0  0
  189.0230  177.6920  145.2690 N   0  0  0  0  0  0  0  0  0  0  0  0
  186.3390  179.0360  141.2770 C   0  0  1  0  0  3  0  0  0  0  0  0
  185.0810  178.3070  147.5530 F   0  0  0  0  0  0  0  0  0  0  0  0
  189.5730  176.9910  141.5890 C   0  0  0  0  0  2  0  0  0  0  0  0
  190.2570  177.1010  147.1780 F   0  0  0  0  0  0  0  0  0  0  0  0
  185.1340  178.9680  142.0400 O   0  0  0  0  0  0  0  0  0  0  0  0
  187.3770  178.0870  141.8670 C   0  0  1  0  0  3  0  0  0  0  0  0
  186.3060  178.3650  145.5110 C   0  0  0  0  0  3  0  0  0  0  0  0
  191.0090  176.3900  145.0350 C   0  0  0  0  0  3  0  0  0  0  0  0
  185.1380  178.7880  143.4290 C   0  0  0  0  0  0  0  0  0  0  0  0
  183.9320  178.8750  144.1310 C   0  0  0  0  0  3  0  0  0  0  0  0
  188.6780  178.1150  141.0810 C   0  0  0  0  0  2  0  0  0  0  0  0
  189.7370  177.0370  143.0830 C   0  0  0  0  0  0  0  0  0  0  0  0
  190.8290  176.3800  143.6530 C   0  0  0  0  0  3  0  0  0  0  0  0
  186.0660  178.6850  139.9260 O   0  0  0  0  0  0  0  0  0  0  0  0
  184.3780  180.0330  139.1220 O   0  0  0  0  0  0  0  0  0  0  0  0
  184.8070  178.8680  139.3440 C   0  0  0  0  0  0  0  0  0  0  0  0
  182.4910  175.4330  138.2400 C   0  0  0  0  0  0  0  0  0  0  0  0
  184.2370  177.0380  137.7700 C   0  0  0  0  0  3  0  0  0  0  0  0
  182.7020  177.7790  141.0270 F   0  0  0  0  0  0  0  0  0  0  0  0
  181.7660  174.3470  137.8770 F   0  0  0  0  0  0  0  0  0  0  0  0
  183.4920  175.9180  137.3960 C   0  0  0  0  0  3  0  0  0  0  0  0
  182.9790  177.1900  139.8380 C   0  0  0  0  0  0  0  0  0  0  0  0
  183.9930  177.6870  138.9900 C   0  0  0  0  0  0  0  0  0  0  0  0
  182.2350  176.0680  139.4570 C   0  0  0  0  0  3  0  0  0  0  0  0
  1  9  1  0  0  0  0
  2  3  1  1  0  0  0
  2  5  1  0  0  0  0
  3  7  1  0  0  0  0
  4 11  1  0  0  0  0
  5 14  1  0  0  0  0
  6  1  1  0  0  0  0
  7  4  2  0  0  0  0
  8 21  1  6  0  0  0
  8 13  1  0  0  0  0
  8 12  1  0  0  0  0
 10 19  1  0  0  0  0
 12 16  1  0  0  0  0
 13 18  1  6  0  0  0
 13  2  1  0  0  0  0
 14  1  2  0  0  0  0
 15  4  1  0  0  0  0
 16  5  2  0  0  0  0
 16 17  1  0  0  0  0
 17  6  2  0  0  0  0
 18 10  1  0  0  0  0
 19 20  1  0  0  0  0
 19  3  2  0  0  0  0
 20 15  2  0  0  0  0
 22 23  2  0  0  0  0
 23 21  1  0  0  0  0
 24 31  1  0  0  0  0
 25 30  2  0  0  0  0
 27 24  1  0  0  0  0
 28 25  1  0  0  0  0
 28 24  2  0  0  0  0
 29 26  1  0  0  0  0
 30 23  1  0  0  0  0
 30 29  1  0  0  0  0
 31 29  2  0  0  0  0
M  END
>  <MODEL>
9

>  <REMARK>
 VINA RESULT:      -9.9      3.059      5.172
  Name = 
  3 active torsions:
  status: ('A' for Active; 'I' for Inactive)
    1  A    between atoms: C_9  and  C_22
    2  A    between atoms: C_9  and  O_23
    3  A    between atoms: C_15  and  O_23
                            x       y       z     vdW  Elec       q    Type
                         _______ _______ _______ _____ _____    ______ ____

>  <TORSDO>
F 3

$$$$
