=
 OpenBabel10272414503D

 37 44  0  0  1  0  0  0  0  0999 V2000
  184.3200  175.0890  136.9680 C   0  0  0  0  0  0  0  0  0  0  0  0
  182.2670  177.2910  136.4720 C   0  0  1  0  0  0  0  0  0  0  0  0
  184.7620  174.1350  135.9090 C   0  0  1  0  0  3  0  0  0  0  0  0
  182.5700  178.0790  137.7400 C   0  0  1  0  0  0  0  0  0  0  0  0
  180.5250  174.0550  134.7410 C   0  0  0  0  0  2  0  0  0  0  0  0
  184.6170  177.1070  138.3850 C   0  0  0  0  0  2  0  0  0  0  0  0
  184.8230  174.8030  134.6660 O   0  0  0  0  0  0  0  0  0  0  0  0
  181.7320  174.8050  136.8950 C   0  0  1  0  0  3  0  0  0  0  0  0
  180.4020  175.5160  134.3740 C   0  0  0  0  0  2  0  0  0  0  0  0
  186.7390  176.3340  135.0890 C   0  0  1  0  0  3  0  0  0  0  0  0
  183.0460  174.7390  137.7220 C   0  0  0  0  0  2  0  0  0  0  0  0
  180.0180  176.2720  135.6280 C   0  0  0  0  0  2  0  0  0  0  0  0
  185.7780  177.4750  135.2860 C   0  0  0  0  0  2  0  0  0  0  0  0
  183.9950  178.3360  137.8950 N   0  0  0  0  0  2  0  0  0  0  0  0
  181.1570  176.2350  136.6530 C   0  0  2  0  0  3  0  0  0  0  0  0
  185.0230  176.2200  137.2370 C   0  0  0  0  0  0  0  0  0  0  0  0
  181.6910  173.8120  135.7030 C   0  0  1  0  0  3  0  0  0  0  0  0
  181.9090  178.8020  136.5620 C   0  0  1  0  0  0  0  0  0  0  0  0
  186.2680  176.6970  136.5090 C   0  0  1  0  0  3  0  0  0  0  0  0
  186.1500  175.1270  134.3470 C   0  0  0  0  0  2  0  0  0  0  0  0
  182.2130  178.1540  135.2270 C   0  0  0  0  0  2  0  0  0  0  0  0
  180.7620  177.0360  139.1950 C   0  0  0  0  0  3  0  0  0  0  0  0
  181.7680  177.9970  139.0250 C   0  0  0  0  0  0  0  0  0  0  0  0
  182.1230  178.8120  140.1110 C   0  0  0  0  0  3  0  0  0  0  0  0
  181.7850  179.5070  142.3670 F   0  0  0  0  0  0  0  0  0  0  0  0
  180.4250  177.7620  141.4780 C   0  0  0  0  0  3  0  0  0  0  0  0
  181.4460  178.7040  141.3290 C   0  0  0  0  0  0  0  0  0  0  0  0
  180.0860  176.9250  140.4120 C   0  0  0  0  0  3  0  0  0  0  0  0
  181.5940  172.3680  136.2080 C   0  0  0  0  0  0  0  0  0  0  0  0
  182.8390  171.5180  136.1130 C   0  0  0  0  0  2  0  0  0  0  0  0
  180.6200  171.9920  137.3120 C   0  0  0  0  0  1  0  0  0  0  0  0
  181.7030  171.3170  135.1230 C   0  0  0  0  0  2  0  0  0  0  0  0
  185.8770  172.7910  137.7490 C   0  0  0  0  0  1  0  0  0  0  0  0
  185.9780  173.2700  136.3120 C   0  0  0  0  0  2  0  0  0  0  0  0
  180.4080  179.0570  136.7080 C   0  0  0  0  0  2  0  0  0  0  0  0
  179.9830  181.6170  137.3350 C   0  0  0  0  0  3  0  0  0  0  0  0
  180.1740  180.4610  137.0530 C   0  0  0  0  0  0  0  0  0  0  0  0
  1 16  2  0  0  0  0
  1 11  1  0  0  0  0
  2 21  1  6  0  0  0
  2 18  1  0  0  0  0
  2 15  1  0  0  0  0
  2  4  1  0  0  0  0
  3 34  1  1  0  0  0
  3  1  1  0  0  0  0
  4 14  1  0  0  0  0
  4 23  1  1  0  0  0
  7  3  1  0  0  0  0
  8 11  1  6  0  0  0
  9  5  1  0  0  0  0
  9 12  1  0  0  0  0
 10 20  1  6  0  0  0
 10 13  1  0  0  0  0
 10 19  1  0  0  0  0
 14  6  1  0  0  0  0
 15 12  1  6  0  0  0
 15  8  1  0  0  0  0
 16  6  1  0  0  0  0
 17  5  1  6  0  0  0
 17 29  1  0  0  0  0
 17  8  1  0  0  0  0
 18 35  1  1  0  0  0
 18  4  1  0  0  0  0
 19 13  1  6  0  0  0
 19 16  1  0  0  0  0
 20  7  1  0  0  0  0
 21 18  1  0  0  0  0
 22 28  1  0  0  0  0
 23 22  2  0  0  0  0
 23 24  1  0  0  0  0
 24 27  2  0  0  0  0
 27 26  1  0  0  0  0
 27 25  1  0  0  0  0
 28 26  2  0  0  0  0
 29 31  1  0  0  0  0
 30 29  1  0  0  0  0
 32 30  1  0  0  0  0
 32 29  1  0  0  0  0
 34 33  1  0  0  0  0
 35 37  1  0  0  0  0
 37 36  3  0  0  0  0
M  END
>  <MODEL>
1

>  <REMARK>
 VINA RESULT:      -4.1      0.000      0.000
  Name = 
  5 active torsions:
  status: ('A' for Active; 'I' for Inactive)
    1  A    between atoms: C_3  and  C_30
    2  A    between atoms: C_5  and  C_23
    3  A    between atoms: C_6  and  C_7
    4  A    between atoms: C_14  and  C_31
    5  A    between atoms: C_14  and  C_37
                            x       y       z     vdW  Elec       q    Type
                         _______ _______ _______ _____ _____    ______ ____

>  <TORSDO>
F 5

$$$$
=
 OpenBabel10272414503D

 37 44  0  0  1  0  0  0  0  0999 V2000
  184.8190  175.5210  135.9060 C   0  0  0  0  0  0  0  0  0  0  0  0
  183.2320  177.0180  138.0410 C   0  0  1  0  0  0  0  0  0  0  0  0
  186.0750  174.7720  136.2020 C   0  0  1  0  0  3  0  0  0  0  0  0
  181.9660  177.1840  137.2090 C   0  0  1  0  0  0  0  0  0  0  0  0
  187.0500  178.1780  138.8040 C   0  0  0  0  0  2  0  0  0  0  0  0
  182.3780  175.6530  135.4660 C   0  0  0  0  0  2  0  0  0  0  0  0
  185.9750  174.1640  137.4740 O   0  0  0  0  0  0  0  0  0  0  0  0
  185.3640  177.8780  136.8740 C   0  0  1  0  0  3  0  0  0  0  0  0
  185.8880  178.0250  139.7600 C   0  0  0  0  0  2  0  0  0  0  0  0
  184.2240  172.4600  137.0030 C   0  0  1  0  0  3  0  0  0  0  0  0
  184.9530  177.0150  135.6480 C   0  0  0  0  0  2  0  0  0  0  0  0
  184.7260  178.8150  139.1990 C   0  0  0  0  0  2  0  0  0  0  0  0
  183.2040  173.3230  137.6970 C   0  0  0  0  0  2  0  0  0  0  0  0
  181.5280  175.9240  136.6240 N   0  0  0  0  0  2  0  0  0  0  0  0
  184.2250  178.1890  137.8930 C   0  0  2  0  0  3  0  0  0  0  0  0
  183.6140  174.8960  135.8770 C   0  0  0  0  0  0  0  0  0  0  0  0
  186.7580  177.5190  137.4530 C   0  0  1  0  0  3  0  0  0  0  0  0
  181.8620  177.2570  138.7360 C   0  0  1  0  0  0  0  0  0  0  0  0
  183.3570  173.4290  136.1780 C   0  0  1  0  0  3  0  0  0  0  0  0
  185.6810  172.7990  137.3430 C   0  0  0  0  0  2  0  0  0  0  0  0
  182.9680  176.4980  139.4400 C   0  0  0  0  0  2  0  0  0  0  0  0
  181.6210  178.4670  135.0390 C   0  0  0  0  0  3  0  0  0  0  0  0
  181.5920  178.4370  136.4400 C   0  0  0  0  0  0  0  0  0  0  0  0
  181.0870  179.5470  137.1360 C   0  0  0  0  0  3  0  0  0  0  0  0
  180.1970  181.7580  137.1260 F   0  0  0  0  0  0  0  0  0  0  0  0
  180.7280  180.7160  135.0480 C   0  0  0  0  0  3  0  0  0  0  0  0
  180.6680  180.6860  136.4440 C   0  0  0  0  0  0  0  0  0  0  0  0
  181.2010  179.6050  134.3460 C   0  0  0  0  0  3  0  0  0  0  0  0
  187.8680  177.9270  136.4790 C   0  0  0  0  0  0  0  0  0  0  0  0
  189.2840  177.5510  136.8480 C   0  0  0  0  0  2  0  0  0  0  0  0
  187.5870  178.0650  134.9920 C   0  0  0  0  0  1  0  0  0  0  0  0
  188.8100  178.9860  137.0110 C   0  0  0  0  0  2  0  0  0  0  0  0
  187.9610  174.3000  134.5720 C   0  0  0  0  0  1  0  0  0  0  0  0
  186.5720  173.8930  135.0310 C   0  0  0  0  0  2  0  0  0  0  0  0
  181.7190  178.6640  139.3170 C   0  0  0  0  0  2  0  0  0  0  0  0
  180.3490  178.5640  141.6060 C   0  0  0  0  0  3  0  0  0  0  0  0
  180.9680  178.6110  140.5720 C   0  0  0  0  0  0  0  0  0  0  0  0
  1  3  1  0  0  0  0
  2 18  1  0  0  0  0
  2 21  1  1  0  0  0
  3 34  1  6  0  0  0
  3  7  1  0  0  0  0
  4 23  1  6  0  0  0
  4  2  1  0  0  0  0
  4 18  1  0  0  0  0
  5  9  1  0  0  0  0
  6 16  1  0  0  0  0
  6 14  1  0  0  0  0
  8 11  1  1  0  0  0
  8 17  1  0  0  0  0
  8 15  1  0  0  0  0
 10 20  1  1  0  0  0
 10 13  1  0  0  0  0
 11  1  1  0  0  0  0
 12  9  1  0  0  0  0
 14  4  1  0  0  0  0
 15  2  1  0  0  0  0
 15 12  1  1  0  0  0
 16  1  2  0  0  0  0
 16 19  1  0  0  0  0
 17 29  1  6  0  0  0
 17  5  1  0  0  0  0
 18 35  1  1  0  0  0
 18 21  1  0  0  0  0
 19 10  1  0  0  0  0
 19 13  1  1  0  0  0
 20  7  1  0  0  0  0
 22 23  1  0  0  0  0
 23 24  2  0  0  0  0
 26 27  2  0  0  0  0
 27 25  1  0  0  0  0
 27 24  1  0  0  0  0
 28 22  2  0  0  0  0
 28 26  1  0  0  0  0
 29 30  1  0  0  0  0
 29 32  1  0  0  0  0
 30 32  1  0  0  0  0
 31 29  1  0  0  0  0
 33 34  1  0  0  0  0
 35 37  1  0  0  0  0
 37 36  3  0  0  0  0
M  END
>  <MODEL>
2

>  <REMARK>
 VINA RESULT:      -4.0      2.028      5.368
  Name = 
  5 active torsions:
  status: ('A' for Active; 'I' for Inactive)
    1  A    between atoms: C_3  and  C_30
    2  A    between atoms: C_5  and  C_23
    3  A    between atoms: C_6  and  C_7
    4  A    between atoms: C_14  and  C_31
    5  A    between atoms: C_14  and  C_37
                            x       y       z     vdW  Elec       q    Type
                         _______ _______ _______ _____ _____    ______ ____

>  <TORSDO>
F 5

$$$$
=
 OpenBabel10272414503D

 37 44  0  0  1  0  0  0  0  0999 V2000
  183.9540  177.3060  138.9790 C   0  0  0  0  0  0  0  0  0  0  0  0
  182.6310  176.2480  136.4410 C   0  0  1  0  0  0  0  0  0  0  0  0
  184.5640  178.6650  139.0730 C   0  0  1  0  0  3  0  0  0  0  0  0
  181.9200  175.0780  137.1090 C   0  0  1  0  0  0  0  0  0  0  0  0
  186.0880  177.8500  135.0320 C   0  0  0  0  0  2  0  0  0  0  0  0
  182.1250  175.6740  139.3790 C   0  0  0  0  0  2  0  0  0  0  0  0
  183.7980  179.5800  138.3180 O   0  0  0  0  0  0  0  0  0  0  0  0
  185.1670  176.3210  136.8950 C   0  0  1  0  0  3  0  0  0  0  0  0
  184.7470  177.7190  134.3460 C   0  0  0  0  0  2  0  0  0  0  0  0
  181.7180  179.6370  139.6830 C   0  0  1  0  0  3  0  0  0  0  0  0
  184.8260  176.1980  138.4060 C   0  0  0  0  0  2  0  0  0  0  0  0
  184.3190  176.2720  134.4520 C   0  0  0  0  0  2  0  0  0  0  0  0
  181.0400  178.7440  138.6800 C   0  0  0  0  0  2  0  0  0  0  0  0
  181.1710  175.4950  138.2860 N   0  0  0  0  0  2  0  0  0  0  0  0
  184.0360  175.8950  135.9100 C   0  0  2  0  0  3  0  0  0  0  0  0
  182.6770  177.0760  139.3800 C   0  0  0  0  0  0  0  0  0  0  0  0
  185.9790  177.5950  136.5370 C   0  0  1  0  0  3  0  0  0  0  0  0
  181.3780  175.6100  135.7780 C   0  0  1  0  0  0  0  0  0  0  0  0
  181.7010  178.1140  139.9080 C   0  0  1  0  0  3  0  0  0  0  0  0
  182.9760  180.3440  139.1590 C   0  0  0  0  0  2  0  0  0  0  0  0
  181.7280  177.0640  135.5370 C   0  0  0  0  0  2  0  0  0  0  0  0
  181.5720  172.5770  137.4230 C   0  0  0  0  0  3  0  0  0  0  0  0
  182.4230  173.6470  137.1160 C   0  0  0  0  0  0  0  0  0  0  0  0
  183.7320  173.3760  136.6860 C   0  0  0  0  0  3  0  0  0  0  0  0
  185.4650  171.8090  136.2140 F   0  0  0  0  0  0  0  0  0  0  0  0
  183.3470  171.0020  136.9510 C   0  0  0  0  0  3  0  0  0  0  0  0
  184.1960  172.0600  136.6150 C   0  0  0  0  0  0  0  0  0  0  0  0
  182.0330  171.2610  137.3520 C   0  0  0  0  0  3  0  0  0  0  0  0
  187.3990  177.5070  137.1070 C   0  0  0  0  0  0  0  0  0  0  0  0
  187.9980  178.7750  137.6680 C   0  0  0  0  0  2  0  0  0  0  0  0
  187.9210  176.2100  137.7010 C   0  0  0  0  0  1  0  0  0  0  0  0
  188.4410  178.2610  136.3080 C   0  0  0  0  0  2  0  0  0  0  0  0
  186.4110  178.7810  140.8080 C   0  0  0  0  0  1  0  0  0  0  0  0
  184.9530  179.0790  140.5110 C   0  0  0  0  0  2  0  0  0  0  0  0
  181.7120  174.7630  134.5490 C   0  0  0  0  0  2  0  0  0  0  0  0
  179.9830  172.7400  134.3460 C   0  0  0  0  0  3  0  0  0  0  0  0
  180.7640  173.6530  134.4360 C   0  0  0  0  0  0  0  0  0  0  0  0
  1  3  1  0  0  0  0
  1 16  2  0  0  0  0
  2 21  1  1  0  0  0
  2  4  1  0  0  0  0
  3 34  1  1  0  0  0
  4 23  1  1  0  0  0
  4 14  1  0  0  0  0
  6 16  1  0  0  0  0
  7  3  1  0  0  0  0
  7 20  1  0  0  0  0
  8 11  1  1  0  0  0
  9 12  1  0  0  0  0
  9  5  1  0  0  0  0
 10 13  1  6  0  0  0
 10 19  1  0  0  0  0
 11  1  1  0  0  0  0
 14  6  1  0  0  0  0
 15 12  1  6  0  0  0
 15  2  1  0  0  0  0
 15  8  1  0  0  0  0
 16 19  1  0  0  0  0
 17  5  1  6  0  0  0
 17  8  1  0  0  0  0
 17 29  1  0  0  0  0
 18 35  1  6  0  0  0
 18  2  1  0  0  0  0
 18  4  1  0  0  0  0
 19 13  1  6  0  0  0
 20 10  1  0  0  0  0
 21 18  1  0  0  0  0
 23 22  2  0  0  0  0
 24 23  1  0  0  0  0
 25 27  1  0  0  0  0
 26 28  2  0  0  0  0
 27 24  2  0  0  0  0
 27 26  1  0  0  0  0
 28 22  1  0  0  0  0
 29 30  1  0  0  0  0
 29 31  1  0  0  0  0
 32 29  1  0  0  0  0
 32 30  1  0  0  0  0
 34 33  1  0  0  0  0
 36 37  3  0  0  0  0
 37 35  1  0  0  0  0
M  END
>  <MODEL>
3

>  <REMARK>
 VINA RESULT:      -3.1      2.620      6.247
  Name = 
  5 active torsions:
  status: ('A' for Active; 'I' for Inactive)
    1  A    between atoms: C_3  and  C_30
    2  A    between atoms: C_5  and  C_23
    3  A    between atoms: C_6  and  C_7
    4  A    between atoms: C_14  and  C_31
    5  A    between atoms: C_14  and  C_37
                            x       y       z     vdW  Elec       q    Type
                         _______ _______ _______ _____ _____    ______ ____

>  <TORSDO>
F 5

$$$$
=
 OpenBabel10272414503D

 37 44  0  0  1  0  0  0  0  0999 V2000
  183.9140  173.7440  137.3850 C   0  0  0  0  0  0  0  0  0  0  0  0
  185.7320  175.6560  135.8510 C   0  0  1  0  0  0  0  0  0  0  0  0
  182.5550  173.3540  136.9070 C   0  0  1  0  0  3  0  0  0  0  0  0
  187.0040  175.3140  136.6170 C   0  0  1  0  0  0  0  0  0  0  0  0
  182.1550  177.5800  135.7640 C   0  0  0  0  0  2  0  0  0  0  0  0
  186.3420  173.3350  137.7110 C   0  0  0  0  0  2  0  0  0  0  0  0
  182.5630  173.2440  135.4990 O   0  0  0  0  0  0  0  0  0  0  0  0
  183.7610  176.3450  137.3620 C   0  0  1  0  0  3  0  0  0  0  0  0
  183.2810  177.6110  134.7550 C   0  0  0  0  0  2  0  0  0  0  0  0
  184.0150  171.2410  135.2280 C   0  0  1  0  0  3  0  0  0  0  0  0
  184.0210  175.0430  138.1710 C   0  0  0  0  0  2  0  0  0  0  0  0
  184.5520  177.9560  135.5000 C   0  0  0  0  0  2  0  0  0  0  0  0
  185.1630  172.1320  134.8380 C   0  0  0  0  0  2  0  0  0  0  0  0
  187.2300  173.8770  136.6840 N   0  0  0  0  0  2  0  0  0  0  0  0
  184.9400  176.8300  136.4640 C   0  0  2  0  0  3  0  0  0  0  0  0
  185.0030  172.9760  137.1210 C   0  0  0  0  0  0  0  0  0  0  0  0
  182.3300  176.4380  136.7680 C   0  0  1  0  0  3  0  0  0  0  0  0
  187.1270  175.9210  135.2150 C   0  0  1  0  0  0  0  0  0  0  0  0
  185.0220  171.6990  136.2990 C   0  0  1  0  0  3  0  0  0  0  0  0
  182.6330  171.8970  135.1120 C   0  0  0  0  0  2  0  0  0  0  0  0
  185.9160  175.6480  134.3460 C   0  0  0  0  0  2  0  0  0  0  0  0
  188.9230  176.0400  138.1210 C   0  0  0  0  0  3  0  0  0  0  0  0
  187.5710  176.1290  137.7640 C   0  0  0  0  0  0  0  0  0  0  0  0
  186.7590  177.0820  138.3980 C   0  0  0  0  0  3  0  0  0  0  0  0
  186.4830  178.8010  140.0270 F   0  0  0  0  0  0  0  0  0  0  0  0
  188.6210  177.7780  139.7780 C   0  0  0  0  0  3  0  0  0  0  0  0
  187.2790  177.8950  139.4100 C   0  0  0  0  0  0  0  0  0  0  0  0
  189.4450  176.8530  139.1310 C   0  0  0  0  0  3  0  0  0  0  0  0
  181.2950  176.6260  137.8830 C   0  0  0  0  0  0  0  0  0  0  0  0
  180.0390  175.7900  137.8070 C   0  0  0  0  0  2  0  0  0  0  0  0
  181.7210  177.0550  139.2770 C   0  0  0  0  0  1  0  0  0  0  0  0
  179.9970  177.2630  137.4310 C   0  0  0  0  0  2  0  0  0  0  0  0
  180.4110  172.1530  137.5330 C   0  0  0  0  0  1  0  0  0  0  0  0
  181.9180  172.1960  137.7080 C   0  0  0  0  0  2  0  0  0  0  0  0
  187.4970  177.4050  135.1740 C   0  0  0  0  0  2  0  0  0  0  0  0
  190.0410  177.6830  134.4140 C   0  0  0  0  0  3  0  0  0  0  0  0
  188.8930  177.5580  134.7590 C   0  0  0  0  0  0  0  0  0  0  0  0
  1 11  1  0  0  0  0
  2 21  1  6  0  0  0
  2 15  1  0  0  0  0
  2  4  1  0  0  0  0
  3  1  1  0  0  0  0
  3 34  1  1  0  0  0
  4 14  1  0  0  0  0
  4 23  1  1  0  0  0
  7  3  1  0  0  0  0
  8 11  1  6  0  0  0
  9 12  1  0  0  0  0
  9  5  1  0  0  0  0
 10 13  1  6  0  0  0
 10 19  1  0  0  0  0
 14  6  1  0  0  0  0
 15 12  1  6  0  0  0
 15  8  1  0  0  0  0
 16  1  2  0  0  0  0
 16  6  1  0  0  0  0
 17  5  1  6  0  0  0
 17  8  1  0  0  0  0
 17 29  1  0  0  0  0
 18 35  1  1  0  0  0
 18  2  1  0  0  0  0
 18  4  1  0  0  0  0
 19 13  1  6  0  0  0
 19 16  1  0  0  0  0
 20 10  1  0  0  0  0
 20  7  1  0  0  0  0
 21 18  1  0  0  0  0
 22 28  1  0  0  0  0
 23 22  2  0  0  0  0
 23 24  1  0  0  0  0
 24 27  2  0  0  0  0
 27 26  1  0  0  0  0
 27 25  1  0  0  0  0
 28 26  2  0  0  0  0
 29 31  1  0  0  0  0
 30 29  1  0  0  0  0
 32 30  1  0  0  0  0
 32 29  1  0  0  0  0
 33 34  1  0  0  0  0
 36 37  3  0  0  0  0
 37 35  1  0  0  0  0
M  END
>  <MODEL>
4

>  <REMARK>
 VINA RESULT:      -2.8      2.272      5.646
  Name = 
  5 active torsions:
  status: ('A' for Active; 'I' for Inactive)
    1  A    between atoms: C_3  and  C_30
    2  A    between atoms: C_5  and  C_23
    3  A    between atoms: C_6  and  C_7
    4  A    between atoms: C_14  and  C_31
    5  A    between atoms: C_14  and  C_37
                            x       y       z     vdW  Elec       q    Type
                         _______ _______ _______ _____ _____    ______ ____

>  <TORSDO>
F 5

$$$$
=
 OpenBabel10272414503D

 37 44  0  0  1  0  0  0  0  0999 V2000
  183.3480  174.4180  137.7700 C   0  0  0  0  0  0  0  0  0  0  0  0
  185.3770  175.5890  135.8140 C   0  0  1  0  0  0  0  0  0  0  0  0
  181.9170  174.1860  137.4160 C   0  0  1  0  0  3  0  0  0  0  0  0
  186.6130  175.1980  136.6130 C   0  0  1  0  0  0  0  0  0  0  0  0
  182.1860  178.0630  135.3630 C   0  0  0  0  0  2  0  0  0  0  0  0
  185.6840  173.6570  138.1350 C   0  0  0  0  0  2  0  0  0  0  0  0
  181.8240  173.7730  136.0690 O   0  0  0  0  0  0  0  0  0  0  0  0
  183.6440  176.9350  137.1680 C   0  0  1  0  0  3  0  0  0  0  0  0
  183.2400  177.6700  134.3530 C   0  0  0  0  0  2  0  0  0  0  0  0
  182.8910  171.5300  136.2280 C   0  0  1  0  0  3  0  0  0  0  0  0
  183.7230  175.8150  138.2430 C   0  0  0  0  0  2  0  0  0  0  0  0
  184.5930  177.9330  134.9780 C   0  0  0  0  0  2  0  0  0  0  0  0
  184.1510  172.0920  135.6270 C   0  0  0  0  0  2  0  0  0  0  0  0
  186.5920  173.7930  136.9970 N   0  0  0  0  0  2  0  0  0  0  0  0
  184.8350  176.9920  136.1620 C   0  0  2  0  0  3  0  0  0  0  0  0
  184.2710  173.4270  137.6650 C   0  0  0  0  0  0  0  0  0  0  0  0
  182.2190  177.1540  136.5950 C   0  0  1  0  0  3  0  0  0  0  0  0
  186.7570  175.4530  135.1100 C   0  0  1  0  0  0  0  0  0  0  0  0
  184.0220  172.0190  137.1500 C   0  0  1  0  0  3  0  0  0  0  0  0
  181.6380  172.3850  135.9930 C   0  0  0  0  0  2  0  0  0  0  0  0
  185.4690  175.2220  134.3460 C   0  0  0  0  0  2  0  0  0  0  0  0
  186.7880  177.2890  138.0520 C   0  0  0  0  0  3  0  0  0  0  0  0
  187.3770  176.1250  137.5380 C   0  0  0  0  0  0  0  0  0  0  0  0
  188.6520  175.7500  137.9910 C   0  0  0  0  0  3  0  0  0  0  0  0
  190.5830  176.1890  139.3170 F   0  0  0  0  0  0  0  0  0  0  0  0
  188.7610  177.7260  139.3830 C   0  0  0  0  0  3  0  0  0  0  0  0
  189.3460  176.5520  138.9000 C   0  0  0  0  0  0  0  0  0  0  0  0
  187.4800  178.0920  138.9620 C   0  0  0  0  0  3  0  0  0  0  0  0
  181.2980  177.7640  137.6570 C   0  0  0  0  0  0  0  0  0  0  0  0
  180.0060  177.0390  137.9510 C   0  0  0  0  0  2  0  0  0  0  0  0
  181.8670  178.5900  138.7990 C   0  0  0  0  0  1  0  0  0  0  0  0
  179.9940  178.3100  137.1160 C   0  0  0  0  0  2  0  0  0  0  0  0
  180.3770  174.2580  139.4310 C   0  0  0  0  0  1  0  0  0  0  0  0
  181.1370  173.3640  138.4680 C   0  0  0  0  0  2  0  0  0  0  0  0
  187.3740  176.8000  134.7300 C   0  0  0  0  0  2  0  0  0  0  0  0
  190.0180  176.5430  134.4740 C   0  0  0  0  0  3  0  0  0  0  0  0
  188.8250  176.6610  134.5890 C   0  0  0  0  0  0  0  0  0  0  0  0
  1 11  1  0  0  0  0
  2 21  1  6  0  0  0
  2 15  1  0  0  0  0
  2  4  1  0  0  0  0
  3  1  1  0  0  0  0
  3 34  1  1  0  0  0
  4 14  1  0  0  0  0
  4 23  1  1  0  0  0
  7  3  1  0  0  0  0
  8 11  1  6  0  0  0
  9 12  1  0  0  0  0
  9  5  1  0  0  0  0
 10 13  1  6  0  0  0
 10 19  1  0  0  0  0
 14  6  1  0  0  0  0
 15 12  1  6  0  0  0
 15  8  1  0  0  0  0
 16  1  2  0  0  0  0
 16  6  1  0  0  0  0
 17  5  1  6  0  0  0
 17  8  1  0  0  0  0
 17 29  1  0  0  0  0
 18 35  1  6  0  0  0
 18  2  1  0  0  0  0
 18  4  1  0  0  0  0
 19 13  1  6  0  0  0
 19 16  1  0  0  0  0
 20  7  1  0  0  0  0
 20 10  1  0  0  0  0
 21 18  1  0  0  0  0
 22 28  1  0  0  0  0
 23 24  1  0  0  0  0
 23 22  2  0  0  0  0
 24 27  2  0  0  0  0
 27 25  1  0  0  0  0
 27 26  1  0  0  0  0
 28 26  2  0  0  0  0
 29 30  1  0  0  0  0
 29 31  1  0  0  0  0
 32 29  1  0  0  0  0
 32 30  1  0  0  0  0
 34 33  1  0  0  0  0
 36 37  3  0  0  0  0
 37 35  1  0  0  0  0
M  END
>  <MODEL>
5

>  <REMARK>
 VINA RESULT:      -2.7      2.608      6.047
  Name = 
  5 active torsions:
  status: ('A' for Active; 'I' for Inactive)
    1  A    between atoms: C_3  and  C_30
    2  A    between atoms: C_5  and  C_23
    3  A    between atoms: C_6  and  C_7
    4  A    between atoms: C_14  and  C_31
    5  A    between atoms: C_14  and  C_37
                            x       y       z     vdW  Elec       q    Type
                         _______ _______ _______ _____ _____    ______ ____

>  <TORSDO>
F 5

$$$$
=
 OpenBabel10272414503D

 37 44  0  0  1  0  0  0  0  0999 V2000
  185.7640  173.5460  137.0360 C   0  0  0  0  0  0  0  0  0  0  0  0
  187.9870  175.2400  135.8080 C   0  0  1  0  0  0  0  0  0  0  0  0
  184.4580  173.3020  136.3580 C   0  0  1  0  0  3  0  0  0  0  0  0
  189.0850  174.7680  136.7520 C   0  0  1  0  0  0  0  0  0  0  0  0
  184.6900  177.5370  135.2060 C   0  0  0  0  0  2  0  0  0  0  0  0
  188.0580  172.8800  137.7180 C   0  0  0  0  0  2  0  0  0  0  0  0
  184.6640  173.1810  134.9660 O   0  0  0  0  0  0  0  0  0  0  0  0
  185.8970  176.1480  137.0140 C   0  0  1  0  0  3  0  0  0  0  0  0
  185.9510  177.4390  134.3770 C   0  0  0  0  0  2  0  0  0  0  0  0
  185.9160  171.0310  134.8970 C   0  0  1  0  0  3  0  0  0  0  0  0
  185.8920  174.8320  137.8410 C   0  0  0  0  0  2  0  0  0  0  0  0
  187.1270  177.6510  135.3060 C   0  0  0  0  0  2  0  0  0  0  0  0
  187.1990  171.7900  134.6910 C   0  0  0  0  0  2  0  0  0  0  0  0
  189.1430  173.3160  136.8400 N   0  0  0  0  0  2  0  0  0  0  0  0
  187.2420  176.4960  136.3060 C   0  0  2  0  0  3  0  0  0  0  0  0
  186.7910  172.6640  136.9320 C   0  0  0  0  0  0  0  0  0  0  0  0
  184.5890  176.3900  136.2150 C   0  0  1  0  0  3  0  0  0  0  0  0
  189.4800  175.3490  135.3910 C   0  0  1  0  0  0  0  0  0  0  0  0
  186.7950  171.3860  136.1100 C   0  0  1  0  0  3  0  0  0  0  0  0
  184.6460  171.8320  134.5820 C   0  0  0  0  0  2  0  0  0  0  0  0
  188.3910  175.2010  134.3480 C   0  0  0  0  0  2  0  0  0  0  0  0
  190.8980  175.4800  138.3910 C   0  0  0  0  0  3  0  0  0  0  0  0
  189.5590  175.5250  137.9790 C   0  0  0  0  0  0  0  0  0  0  0  0
  188.6710  176.3880  138.6400 C   0  0  0  0  0  3  0  0  0  0  0  0
  188.2340  177.9690  140.3710 F   0  0  0  0  0  0  0  0  0  0  0  0
  190.4330  177.0760  140.1490 C   0  0  0  0  0  3  0  0  0  0  0  0
  189.1030  177.1510  139.7290 C   0  0  0  0  0  0  0  0  0  0  0  0
  191.3310  176.2430  139.4780 C   0  0  0  0  0  3  0  0  0  0  0  0
  183.4260  176.6970  137.1640 C   0  0  0  0  0  0  0  0  0  0  0  0
  182.1630  175.8850  136.9940 C   0  0  0  0  0  2  0  0  0  0  0  0
  183.6820  177.2370  138.5610 C   0  0  0  0  0  1  0  0  0  0  0  0
  182.2190  177.3200  136.4940 C   0  0  0  0  0  2  0  0  0  0  0  0
  182.1370  172.3090  136.6050 C   0  0  0  0  0  1  0  0  0  0  0  0
  183.5870  172.2240  137.0440 C   0  0  0  0  0  2  0  0  0  0  0  0
  190.0100  176.7830  135.4180 C   0  0  0  0  0  2  0  0  0  0  0  0
  192.5740  176.8160  134.6760 C   0  0  0  0  0  3  0  0  0  0  0  0
  191.4160  176.8020  135.0100 C   0  0  0  0  0  0  0  0  0  0  0  0
  1 11  1  0  0  0  0
  2 21  1  6  0  0  0
  2 15  1  0  0  0  0
  2  4  1  0  0  0  0
  3  1  1  0  0  0  0
  3 34  1  1  0  0  0
  4 14  1  0  0  0  0
  4 23  1  1  0  0  0
  7  3  1  0  0  0  0
  8 11  1  6  0  0  0
  9  5  1  0  0  0  0
  9 12  1  0  0  0  0
 10 20  1  1  0  0  0
 10 19  1  0  0  0  0
 13 10  1  0  0  0  0
 14  6  1  0  0  0  0
 15 12  1  6  0  0  0
 15  8  1  0  0  0  0
 16  1  2  0  0  0  0
 16  6  1  0  0  0  0
 17  5  1  6  0  0  0
 17  8  1  0  0  0  0
 17 29  1  0  0  0  0
 18 35  1  1  0  0  0
 18  2  1  0  0  0  0
 18  4  1  0  0  0  0
 19 13  1  6  0  0  0
 19 16  1  0  0  0  0
 20  7  1  0  0  0  0
 21 18  1  0  0  0  0
 22 28  1  0  0  0  0
 23 22  2  0  0  0  0
 23 24  1  0  0  0  0
 24 27  2  0  0  0  0
 27 26  1  0  0  0  0
 27 25  1  0  0  0  0
 28 26  2  0  0  0  0
 29 31  1  0  0  0  0
 30 29  1  0  0  0  0
 32 30  1  0  0  0  0
 32 29  1  0  0  0  0
 33 34  1  0  0  0  0
 36 37  3  0  0  0  0
 37 35  1  0  0  0  0
M  END
>  <MODEL>
6

>  <REMARK>
 VINA RESULT:      -2.4      3.210      6.896
  Name = 
  5 active torsions:
  status: ('A' for Active; 'I' for Inactive)
    1  A    between atoms: C_3  and  C_30
    2  A    between atoms: C_5  and  C_23
    3  A    between atoms: C_6  and  C_7
    4  A    between atoms: C_14  and  C_31
    5  A    between atoms: C_14  and  C_37
                            x       y       z     vdW  Elec       q    Type
                         _______ _______ _______ _____ _____    ______ ____

>  <TORSDO>
F 5

$$$$
=
 OpenBabel10272414503D

 37 44  0  0  1  0  0  0  0  0999 V2000
  185.8000  175.8470  136.9730 C   0  0  0  0  0  0  0  0  0  0  0  0
  183.2740  177.3980  136.2440 C   0  0  1  0  0  0  0  0  0  0  0  0
  186.4870  174.9200  136.0270 C   0  0  1  0  0  3  0  0  0  0  0  0
  183.3460  178.3740  137.4110 C   0  0  1  0  0  0  0  0  0  0  0  0
  182.4290  173.6550  134.9100 C   0  0  0  0  0  2  0  0  0  0  0  0
  185.5560  178.0220  138.1470 C   0  0  0  0  0  2  0  0  0  0  0  0
  186.4060  175.4380  134.7150 O   0  0  0  0  0  0  0  0  0  0  0  0
  183.3660  174.9210  136.9530 C   0  0  1  0  0  3  0  0  0  0  0  0
  181.9540  174.9890  134.3780 C   0  0  0  0  0  2  0  0  0  0  0  0
  187.8720  177.4360  134.9450 C   0  0  1  0  0  3  0  0  0  0  0  0
  184.6370  175.2780  137.7720 C   0  0  0  0  0  2  0  0  0  0  0  0
  181.3680  175.7610  135.5400 C   0  0  0  0  0  2  0  0  0  0  0  0
  186.6540  178.3160  135.0170 C   0  0  0  0  0  2  0  0  0  0  0  0
  184.6590  178.9940  137.5250 N   0  0  0  0  0  2  0  0  0  0  0  0
  182.4590  176.1250  136.5540 C   0  0  2  0  0  3  0  0  0  0  0  0
  186.1930  177.1410  137.1050 C   0  0  0  0  0  0  0  0  0  0  0  0
  183.5980  173.8210  135.8840 C   0  0  1  0  0  3  0  0  0  0  0  0
  182.5510  178.7710  136.1630 C   0  0  1  0  0  0  0  0  0  0  0  0
  187.2960  177.8280  136.3170 C   0  0  1  0  0  3  0  0  0  0  0  0
  187.6170  176.0440  134.3510 C   0  0  0  0  0  2  0  0  0  0  0  0
  183.0340  178.0730  134.9090 C   0  0  0  0  0  2  0  0  0  0  0  0
  182.4720  179.3020  139.6140 C   0  0  0  0  0  3  0  0  0  0  0  0
  182.5630  178.2400  138.7040 C   0  0  0  0  0  0  0  0  0  0  0  0
  181.8110  177.0770  138.9350 C   0  0  0  0  0  3  0  0  0  0  0  0
  180.3140  175.8270  140.3060 F   0  0  0  0  0  0  0  0  0  0  0  0
  180.9640  178.0130  141.0000 C   0  0  0  0  0  3  0  0  0  0  0  0
  181.0240  176.9600  140.0840 C   0  0  0  0  0  0  0  0  0  0  0  0
  181.6850  179.1860  140.7620 C   0  0  0  0  0  3  0  0  0  0  0  0
  183.8530  172.4650  136.5510 C   0  0  0  0  0  0  0  0  0  0  0  0
  183.1020  171.2730  136.0040 C   0  0  0  0  0  2  0  0  0  0  0  0
  185.1880  172.1600  137.2090 C   0  0  0  0  0  1  0  0  0  0  0  0
  182.6690  171.9110  137.3150 C   0  0  0  0  0  2  0  0  0  0  0  0
  188.3270  173.1910  135.7790 C   0  0  0  0  0  1  0  0  0  0  0  0
  187.8720  174.4380  136.5160 C   0  0  0  0  0  2  0  0  0  0  0  0
  181.0310  178.6590  136.2910 C   0  0  0  0  0  2  0  0  0  0  0  0
  179.9820  181.0690  136.7620 C   0  0  0  0  0  3  0  0  0  0  0  0
  180.4550  179.9810  136.5490 C   0  0  0  0  0  0  0  0  0  0  0  0
  1 16  2  0  0  0  0
  1 11  1  0  0  0  0
  2 21  1  6  0  0  0
  2 15  1  0  0  0  0
  2  4  1  0  0  0  0
  3 34  1  1  0  0  0
  3  1  1  0  0  0  0
  4 14  1  0  0  0  0
  4 23  1  1  0  0  0
  7  3  1  0  0  0  0
  8 11  1  6  0  0  0
  9  5  1  0  0  0  0
  9 12  1  0  0  0  0
 10 20  1  6  0  0  0
 10 13  1  0  0  0  0
 10 19  1  0  0  0  0
 14  6  1  0  0  0  0
 15 12  1  6  0  0  0
 15  8  1  0  0  0  0
 16  6  1  0  0  0  0
 17  5  1  6  0  0  0
 17 29  1  0  0  0  0
 17  8  1  0  0  0  0
 18  2  1  0  0  0  0
 18 35  1  1  0  0  0
 18  4  1  0  0  0  0
 19 13  1  6  0  0  0
 19 16  1  0  0  0  0
 20  7  1  0  0  0  0
 21 18  1  0  0  0  0
 22 28  1  0  0  0  0
 23 24  1  0  0  0  0
 23 22  2  0  0  0  0
 24 27  2  0  0  0  0
 27 25  1  0  0  0  0
 27 26  1  0  0  0  0
 28 26  2  0  0  0  0
 29 31  1  0  0  0  0
 29 32  1  0  0  0  0
 30 29  1  0  0  0  0
 30 32  1  0  0  0  0
 33 34  1  0  0  0  0
 35 37  1  0  0  0  0
 37 36  3  0  0  0  0
M  END
>  <MODEL>
7

>  <REMARK>
 VINA RESULT:      -2.3      1.402      1.962
  Name = 
  5 active torsions:
  status: ('A' for Active; 'I' for Inactive)
    1  A    between atoms: C_3  and  C_30
    2  A    between atoms: C_5  and  C_23
    3  A    between atoms: C_6  and  C_7
    4  A    between atoms: C_14  and  C_31
    5  A    between atoms: C_14  and  C_37
                            x       y       z     vdW  Elec       q    Type
                         _______ _______ _______ _____ _____    ______ ____

>  <TORSDO>
F 5

$$$$
=
 OpenBabel10272414503D

 37 44  0  0  1  0  0  0  0  0999 V2000
  181.3860  178.1080  138.3850 C   0  0  0  0  0  0  0  0  0  0  0  0
  183.6940  177.1430  136.6360 C   0  0  1  0  0  0  0  0  0  0  0  0
  181.3450  179.4670  139.0000 C   0  0  1  0  0  3  0  0  0  0  0  0
  182.9600  175.9410  136.0560 C   0  0  1  0  0  0  0  0  0  0  0  0
  185.6220  178.8290  139.7900 C   0  0  0  0  0  2  0  0  0  0  0  0
  180.7380  176.4460  136.6570 C   0  0  0  0  0  2  0  0  0  0  0  0
  181.9150  180.4060  138.1120 O   0  0  0  0  0  0  0  0  0  0  0  0
  183.6910  177.2190  139.2130 C   0  0  1  0  0  3  0  0  0  0  0  0
  186.0650  178.7150  138.3480 C   0  0  0  0  0  2  0  0  0  0  0  0
  180.2040  180.3900  136.3060 C   0  0  1  0  0  3  0  0  0  0  0  0
  182.1490  177.0320  139.1440 C   0  0  0  0  0  2  0  0  0  0  0  0
  185.9460  177.2610  137.9470 C   0  0  0  0  0  2  0  0  0  0  0  0
  181.1080  179.5320  135.4630 C   0  0  0  0  0  2  0  0  0  0  0  0
  181.6530  176.3030  135.5260 N   0  0  0  0  0  2  0  0  0  0  0  0
  184.4780  176.8230  137.9260 C   0  0  2  0  0  3  0  0  0  0  0  0
  180.7760  177.8510  137.1990 C   0  0  0  0  0  0  0  0  0  0  0  0
  184.1320  178.5120  139.9470 C   0  0  1  0  0  3  0  0  0  0  0  0
  184.1510  176.5210  135.2870 C   0  0  1  0  0  0  0  0  0  0  0  0
  180.0430  178.8590  136.3300 C   0  0  1  0  0  3  0  0  0  0  0  0
  180.9110  181.1270  137.4500 C   0  0  0  0  0  2  0  0  0  0  0  0
  184.3900  177.9860  135.5870 C   0  0  0  0  0  2  0  0  0  0  0  0
  182.1100  173.5550  136.3050 C   0  0  0  0  0  3  0  0  0  0  0  0
  183.1000  174.5150  136.5550 C   0  0  0  0  0  0  0  0  0  0  0  0
  184.2990  174.1150  137.1670 C   0  0  0  0  0  3  0  0  0  0  0  0
  185.6340  172.4170  138.1750 F   0  0  0  0  0  0  0  0  0  0  0  0
  183.4740  171.8470  137.3430 C   0  0  0  0  0  3  0  0  0  0  0  0
  184.4800  172.7890  137.5700 C   0  0  0  0  0  0  0  0  0  0  0  0
  182.2900  172.2300  136.7060 C   0  0  0  0  0  3  0  0  0  0  0  0
  183.8260  178.4140  141.4460 C   0  0  0  0  0  0  0  0  0  0  0  0
  184.7020  179.2110  142.3840 C   0  0  0  0  0  2  0  0  0  0  0  0
  182.4150  178.1350  141.9350 C   0  0  0  0  0  1  0  0  0  0  0  0
  184.8920  177.7070  142.2570 C   0  0  0  0  0  2  0  0  0  0  0  0
  180.1360  180.2850  141.0750 C   0  0  0  0  0  1  0  0  0  0  0  0
  179.9820  179.8260  139.6360 C   0  0  0  0  0  2  0  0  0  0  0  0
  185.4540  175.7280  135.4010 C   0  0  0  0  0  2  0  0  0  0  0  0
  187.4660  177.1290  134.3460 C   0  0  0  0  0  3  0  0  0  0  0  0
  186.5570  176.4980  134.8220 C   0  0  0  0  0  0  0  0  0  0  0  0
  1  3  1  0  0  0  0
  1 11  1  0  0  0  0
  2 21  1  6  0  0  0
  2 15  1  0  0  0  0
  3 34  1  6  0  0  0
  4 23  1  1  0  0  0
  4  2  1  0  0  0  0
  6 16  1  0  0  0  0
  7  3  1  0  0  0  0
  8 11  1  6  0  0  0
  8 17  1  0  0  0  0
  9  5  1  0  0  0  0
 10 13  1  6  0  0  0
 10 19  1  0  0  0  0
 10 20  1  0  0  0  0
 12  9  1  0  0  0  0
 14  4  1  0  0  0  0
 14  6  1  0  0  0  0
 15 12  1  6  0  0  0
 15  8  1  0  0  0  0
 16  1  2  0  0  0  0
 17  5  1  1  0  0  0
 17 29  1  0  0  0  0
 18 35  1  1  0  0  0
 18 21  1  0  0  0  0
 18  4  1  0  0  0  0
 18  2  1  0  0  0  0
 19 13  1  6  0  0  0
 19 16  1  0  0  0  0
 20  7  1  0  0  0  0
 22 23  2  0  0  0  0
 22 28  1  0  0  0  0
 23 24  1  0  0  0  0
 24 27  2  0  0  0  0
 26 27  1  0  0  0  0
 27 25  1  0  0  0  0
 28 26  2  0  0  0  0
 29 31  1  0  0  0  0
 29 32  1  0  0  0  0
 29 30  1  0  0  0  0
 32 30  1  0  0  0  0
 34 33  1  0  0  0  0
 36 37  3  0  0  0  0
 37 35  1  0  0  0  0
M  END
>  <MODEL>
8

>  <REMARK>
 VINA RESULT:      -2.2      2.560      6.763
  Name = 
  5 active torsions:
  status: ('A' for Active; 'I' for Inactive)
    1  A    between atoms: C_3  and  C_30
    2  A    between atoms: C_5  and  C_23
    3  A    between atoms: C_6  and  C_7
    4  A    between atoms: C_14  and  C_31
    5  A    between atoms: C_14  and  C_37
                            x       y       z     vdW  Elec       q    Type
                         _______ _______ _______ _____ _____    ______ ____

>  <TORSDO>
F 5

$$$$
=
 OpenBabel10272414503D

 37 44  0  0  1  0  0  0  0  0999 V2000
  182.2980  174.7770  138.1290 C   0  0  0  0  0  0  0  0  0  0  0  0
  183.8750  175.9860  135.8120 C   0  0  1  0  0  0  0  0  0  0  0  0
  180.8080  174.7010  138.1470 C   0  0  1  0  0  3  0  0  0  0  0  0
  185.2240  175.4110  136.2220 C   0  0  1  0  0  0  0  0  0  0  0  0
  180.9550  178.7430  136.4270 C   0  0  0  0  0  2  0  0  0  0  0  0
  184.5560  173.7950  137.8010 C   0  0  0  0  0  2  0  0  0  0  0  0
  180.3320  174.4450  136.8430 O   0  0  0  0  0  0  0  0  0  0  0  0
  182.6960  177.3130  137.6830 C   0  0  1  0  0  3  0  0  0  0  0  0
  181.6690  178.3780  135.1450 C   0  0  0  0  0  2  0  0  0  0  0  0
  181.1600  172.1190  136.5270 C   0  0  1  0  0  3  0  0  0  0  0  0
  182.9270  176.0800  138.6010 C   0  0  0  0  0  2  0  0  0  0  0  0
  183.1560  178.4620  135.4110 C   0  0  0  0  0  2  0  0  0  0  0  0
  182.2780  172.6390  135.6640 C   0  0  0  0  0  2  0  0  0  0  0  0
  185.1530  173.9800  136.4800 N   0  0  0  0  0  2  0  0  0  0  0  0
  183.5910  177.3810  136.4070 C   0  0  2  0  0  3  0  0  0  0  0  0
  183.0540  173.7320  137.7030 C   0  0  0  0  0  0  0  0  0  0  0  0
  181.2040  177.7060  137.5260 C   0  0  1  0  0  3  0  0  0  0  0  0
  185.0070  175.8160  134.7610 C   0  0  1  0  0  0  0  0  0  0  0  0
  182.5340  172.4130  137.1560 C   0  0  1  0  0  3  0  0  0  0  0  0
  179.9870  173.0920  136.7030 C   0  0  0  0  0  2  0  0  0  0  0  0
  183.5510  175.7730  134.3470 C   0  0  0  0  0  2  0  0  0  0  0  0
  186.0200  177.4060  137.5880 C   0  0  0  0  0  3  0  0  0  0  0  0
  186.2930  176.1690  136.9870 C   0  0  0  0  0  0  0  0  0  0  0  0
  187.5410  175.5650  137.2070 C   0  0  0  0  0  3  0  0  0  0  0  0
  189.7240  175.6290  138.1620 F   0  0  0  0  0  0  0  0  0  0  0  0
  188.2440  177.4590  138.5400 C   0  0  0  0  0  3  0  0  0  0  0  0
  188.5170  176.2130  137.9700 C   0  0  0  0  0  0  0  0  0  0  0  0
  186.9940  178.0530  138.3520 C   0  0  0  0  0  3  0  0  0  0  0  0
  180.6540  178.2700  138.8400 C   0  0  0  0  0  0  0  0  0  0  0  0
  180.1890  179.7080  138.8360 C   0  0  0  0  0  2  0  0  0  0  0  0
  179.9820  177.3620  139.8570 C   0  0  0  0  0  1  0  0  0  0  0  0
  181.5190  179.3390  139.4740 C   0  0  0  0  0  2  0  0  0  0  0  0
  180.2280  174.5870  140.6140 C   0  0  0  0  0  1  0  0  0  0  0  0
  180.2390  173.8360  139.2950 C   0  0  0  0  0  2  0  0  0  0  0  0
  185.6470  177.1420  134.3460 C   0  0  0  0  0  2  0  0  0  0  0  0
  188.3050  176.9570  134.5080 C   0  0  0  0  0  3  0  0  0  0  0  0
  187.1050  177.0400  134.4360 C   0  0  0  0  0  0  0  0  0  0  0  0
  1  3  1  0  0  0  0
  1 11  1  0  0  0  0
  2 21  1  6  0  0  0
  2  4  1  0  0  0  0
  2 15  1  0  0  0  0
  3 34  1  1  0  0  0
  4 14  1  0  0  0  0
  4 23  1  1  0  0  0
  7  3  1  0  0  0  0
  8 11  1  6  0  0  0
  9 12  1  0  0  0  0
  9  5  1  0  0  0  0
 10 13  1  6  0  0  0
 10 20  1  0  0  0  0
 10 19  1  0  0  0  0
 14  6  1  0  0  0  0
 15 12  1  6  0  0  0
 15  8  1  0  0  0  0
 16  6  1  0  0  0  0
 16  1  2  0  0  0  0
 17  5  1  6  0  0  0
 17  8  1  0  0  0  0
 17 29  1  0  0  0  0
 18 35  1  6  0  0  0
 18  2  1  0  0  0  0
 18  4  1  0  0  0  0
 19 13  1  6  0  0  0
 19 16  1  0  0  0  0
 20  7  1  0  0  0  0
 21 18  1  0  0  0  0
 22 28  1  0  0  0  0
 23 24  1  0  0  0  0
 23 22  2  0  0  0  0
 24 27  2  0  0  0  0
 27 25  1  0  0  0  0
 27 26  1  0  0  0  0
 28 26  2  0  0  0  0
 29 32  1  0  0  0  0
 29 31  1  0  0  0  0
 30 29  1  0  0  0  0
 30 32  1  0  0  0  0
 34 33  1  0  0  0  0
 35 37  1  0  0  0  0
 37 36  3  0  0  0  0
M  END
>  <MODEL>
9

>  <REMARK>
 VINA RESULT:      -1.7      2.484      5.983
  Name = 
  5 active torsions:
  status: ('A' for Active; 'I' for Inactive)
    1  A    between atoms: C_3  and  C_30
    2  A    between atoms: C_5  and  C_23
    3  A    between atoms: C_6  and  C_7
    4  A    between atoms: C_14  and  C_31
    5  A    between atoms: C_14  and  C_37
                            x       y       z     vdW  Elec       q    Type
                         _______ _______ _______ _____ _____    ______ ____

>  <TORSDO>
F 5

$$$$
