=
 OpenBabel10272400383D

 31 33  0  0  1  0  0  0  0  0999 V2000
  185.2480  178.3710  143.9970 C   0  0  0  0  0  0  0  0  0  0  0  0
  188.3600  176.4450  142.9980 C   0  0  0  0  0  2  0  0  0  0  0  0
  187.2490  177.4630  142.9750 C   0  0  0  0  0  0  0  0  0  0  0  0
  185.1160  179.2790  142.9440 C   0  0  0  0  0  3  0  0  0  0  0  0
  188.9170  177.1970  140.7570 N   0  0  0  0  0  0  0  0  0  0  0  0
  184.3490  178.3720  145.0080 F   0  0  0  0  0  0  0  0  0  0  0  0
  188.1220  178.4290  140.7920 C   0  0  0  0  0  2  0  0  0  0  0  0
  189.5030  176.8320  142.0570 C   0  0  1  0  0  3  0  0  0  0  0  0
  186.3110  177.4650  144.0110 C   0  0  0  0  0  3  0  0  0  0  0  0
  187.1030  178.3680  141.8970 C   0  0  0  0  0  0  0  0  0  0  0  0
  186.0430  179.2790  141.8980 C   0  0  0  0  0  3  0  0  0  0  0  0
  190.3140  177.9680  142.6870 C   0  0  0  0  0  2  0  0  0  0  0  0
  191.5700  177.5010  143.0750 O   0  0  0  0  0  0  0  0  0  0  0  0
  191.6830  177.8630  144.4180 C   0  0  0  0  0  2  0  0  0  0  0  0
  191.2940  176.6930  145.3100 C   0  0  0  0  0  2  0  0  0  0  0  0
  188.9840  176.9040  146.4500 C   0  0  1  0  0  3  0  0  0  0  0  0
  191.0780  177.1290  147.7750 O   0  0  0  0  0  1  0  0  0  0  0  0
  188.3590  176.7780  147.8300 C   0  0  0  0  0  1  0  0  0  0  0  0
  189.5460  178.3150  146.2810 C   0  0  0  0  0  2  0  0  0  0  0  0
  190.4830  177.1550  146.5100 C   0  0  1  0  0  0  0  0  0  0  0  0
  189.8000  177.0960  139.5830 C   0  0  0  0  0  2  0  0  0  0  0  0
  189.1700  176.6380  138.2570 C   0  0  2  0  0  3  0  0  0  0  0  0
  189.8660  175.4820  137.6780 C   0  0  0  0  0  0  0  0  0  0  0  0
  190.4350  174.5270  137.2070 C   0  0  0  0  0  3  0  0  0  0  0  0
  188.9240  177.7570  137.2490 C   0  0  0  0  0  2  0  0  0  0  0  0
  187.6290  177.5480  136.4720 C   0  0  0  0  0  2  0  0  0  0  0  0
  186.4710  177.3430  137.3950 C   0  0  0  0  0  3  0  0  0  0  0  0
  185.7690  178.3820  137.8490 C   0  0  0  0  0  3  0  0  0  0  0  0
  184.6100  178.1780  138.7640 C   0  0  0  0  0  2  0  0  0  0  0  0
  182.7520  179.2710  139.7690 O   0  0  0  0  0  1  0  0  0  0  0  0
  183.9210  179.5000  139.0470 C   0  0  0  0  0  2  0  0  0  0  0  0
  1  9  1  0  0  0  0
  1  6  1  0  0  0  0
  3  2  1  0  0  0  0
  3  9  2  0  0  0  0
  4  1  2  0  0  0  0
  5  7  1  0  0  0  0
  5  8  1  0  0  0  0
  7 10  1  0  0  0  0
  8 12  1  1  0  0  0
  8  2  1  0  0  0  0
 10 11  2  0  0  0  0
 10  3  1  0  0  0  0
 11  4  1  0  0  0  0
 12 13  1  0  0  0  0
 13 14  1  0  0  0  0
 14 15  1  0  0  0  0
 15 20  1  0  0  0  0
 16 20  1  0  0  0  0
 16 18  1  1  0  0  0
 19 16  1  0  0  0  0
 19 20  1  0  0  0  0
 20 17  1  1  0  0  0
 21  5  1  0  0  0  0
 22 25  1  6  0  0  0
 22 21  1  0  0  0  0
 23 22  1  0  0  0  0
 24 23  3  0  0  0  0
 26 25  1  0  0  0  0
 26 27  1  0  0  0  0
 27 28  2  0  0  0  0
 28 29  1  0  0  0  0
 29 31  1  0  0  0  0
 31 30  1  0  0  0  0
M  END
>  <MODEL>
1

>  <REMARK>
 VINA RESULT:      -6.8      0.000      0.000
  Name = 
  13 active torsions:
  status: ('A' for Active; 'I' for Inactive)
    1  A    between atoms: C_1  and  C_11
    2  A    between atoms: C_1  and  C_24
    3  A    between atoms: C_3  and  C_9
    4  A    between atoms: C_5  and  O_14
    5  A    between atoms: C_5  and  C_21
    6  A    between atoms: C_6  and  C_7
    7  A    between atoms: C_6  and  C_19
    8  A    between atoms: C_7  and  C_9
    9  A    between atoms: C_9  and  C_23
   10  A    between atoms: C_10  and  O_14
   11  A    between atoms: C_10  and  C_18
   12  A    between atoms: N_15  and  C_23
   13  A    between atoms: C_18  and  C_31
                            x       y       z     vdW  Elec       q    Type
                         _______ _______ _______ _____ _____    ______ ____

>  <TORSDO>
F 13

$$$$
=
 OpenBabel10272400383D

 31 33  0  0  1  0  0  0  0  0999 V2000
  191.9280  176.1500  146.6950 C   0  0  0  0  0  0  0  0  0  0  0  0
  189.8420  176.0740  143.5270 C   0  0  0  0  0  2  0  0  0  0  0  0
  190.2840  176.3970  144.9310 C   0  0  0  0  0  0  0  0  0  0  0  0
  191.1220  176.8960  147.5580 C   0  0  0  0  0  3  0  0  0  0  0  0
  187.7030  177.0640  144.1160 N   0  0  0  0  0  0  0  0  0  0  0  0
  193.1190  175.6730  147.1250 F   0  0  0  0  0  0  0  0  0  0  0  0
  188.1580  177.7280  145.3410 C   0  0  0  0  0  2  0  0  0  0  0  0
  188.7250  177.0080  143.0570 C   0  0  1  0  0  3  0  0  0  0  0  0
  191.5090  175.9000  145.3860 C   0  0  0  0  0  3  0  0  0  0  0  0
  189.4570  177.1340  145.8120 C   0  0  0  0  0  0  0  0  0  0  0  0
  189.8910  177.3890  147.1160 C   0  0  0  0  0  3  0  0  0  0  0  0
  189.3180  178.3810  142.7270 C   0  0  0  0  0  2  0  0  0  0  0  0
  188.8690  178.8080  141.4760 O   0  0  0  0  0  0  0  0  0  0  0  0
  188.7220  177.6360  140.7340 C   0  0  0  0  0  2  0  0  0  0  0  0
  189.6760  177.6440  139.5480 C   0  0  0  0  0  2  0  0  0  0  0  0
  187.8470  177.3410  137.7470 C   0  0  1  0  0  3  0  0  0  0  0  0
  188.9280  179.5550  138.0980 O   0  0  0  0  0  1  0  0  0  0  0  0
  186.8490  178.1750  136.9590 C   0  0  0  0  0  1  0  0  0  0  0  0
  189.1980  177.3680  137.0330 C   0  0  0  0  0  2  0  0  0  0  0  0
  188.9970  178.1720  138.2940 C   0  0  1  0  0  0  0  0  0  0  0  0
  186.3440  177.4510  143.7020 C   0  0  0  0  0  2  0  0  0  0  0  0
  185.7480  178.7250  144.3240 C   0  0  2  0  0  3  0  0  0  0  0  0
  185.2450  178.5000  145.6860 C   0  0  0  0  0  0  0  0  0  0  0  0
  184.8380  178.3200  146.8070 C   0  0  0  0  0  3  0  0  0  0  0  0
  184.7550  179.4640  143.4320 C   0  0  0  0  0  2  0  0  0  0  0  0
  183.3460  178.8940  143.5550 C   0  0  0  0  0  2  0  0  0  0  0  0
  182.7300  178.6780  142.2110 C   0  0  0  0  0  3  0  0  0  0  0  0
  183.4860  178.6300  141.1140 C   0  0  0  0  0  3  0  0  0  0  0  0
  182.8730  178.4090  139.7730 C   0  0  0  0  0  2  0  0  0  0  0  0
  184.6360  179.9280  139.2860 O   0  0  0  0  0  1  0  0  0  0  0  0
  183.7040  179.0780  138.6950 C   0  0  0  0  0  2  0  0  0  0  0  0
  1  6  1  0  0  0  0
  1  4  1  0  0  0  0
  2  3  1  0  0  0  0
  3  9  1  0  0  0  0
  3 10  2  0  0  0  0
  5  7  1  0  0  0  0
  7 10  1  0  0  0  0
  8 12  1  1  0  0  0
  8  2  1  0  0  0  0
  8  5  1  0  0  0  0
  9  1  2  0  0  0  0
 10 11  1  0  0  0  0
 11  4  2  0  0  0  0
 13 12  1  0  0  0  0
 14 13  1  0  0  0  0
 15 14  1  0  0  0  0
 16 18  1  6  0  0  0
 16 20  1  0  0  0  0
 19 16  1  0  0  0  0
 19 20  1  0  0  0  0
 20 17  1  6  0  0  0
 20 15  1  0  0  0  0
 21  5  1  0  0  0  0
 21 22  1  0  0  0  0
 22 25  1  6  0  0  0
 22 23  1  0  0  0  0
 23 24  3  0  0  0  0
 25 26  1  0  0  0  0
 27 26  1  0  0  0  0
 28 27  2  0  0  0  0
 29 28  1  0  0  0  0
 31 30  1  0  0  0  0
 31 29  1  0  0  0  0
M  END
>  <MODEL>
2

>  <REMARK>
 VINA RESULT:      -6.7      2.628      6.720
  Name = 
  13 active torsions:
  status: ('A' for Active; 'I' for Inactive)
    1  A    between atoms: C_1  and  C_11
    2  A    between atoms: C_1  and  C_24
    3  A    between atoms: C_3  and  C_9
    4  A    between atoms: C_5  and  O_14
    5  A    between atoms: C_5  and  C_21
    6  A    between atoms: C_6  and  C_7
    7  A    between atoms: C_6  and  C_19
    8  A    between atoms: C_7  and  C_9
    9  A    between atoms: C_9  and  C_23
   10  A    between atoms: C_10  and  O_14
   11  A    between atoms: C_10  and  C_18
   12  A    between atoms: N_15  and  C_23
   13  A    between atoms: C_18  and  C_31
                            x       y       z     vdW  Elec       q    Type
                         _______ _______ _______ _____ _____    ______ ____

>  <TORSDO>
F 13

$$$$
=
 OpenBabel10272400383D

 31 33  0  0  1  0  0  0  0  0999 V2000
  191.5650  176.6110  145.2830 C   0  0  0  0  0  0  0  0  0  0  0  0
  189.3220  175.9310  142.2990 C   0  0  0  0  0  2  0  0  0  0  0  0
  190.0680  176.6740  143.3770 C   0  0  0  0  0  0  0  0  0  0  0  0
  191.4170  177.9890  145.4510 C   0  0  0  0  0  3  0  0  0  0  0  0
  188.1540  178.0130  141.8570 N   0  0  0  0  0  0  0  0  0  0  0  0
  192.3660  175.9090  146.1180 F   0  0  0  0  0  0  0  0  0  0  0  0
  189.0670  178.8800  142.6090 C   0  0  0  0  0  2  0  0  0  0  0  0
  188.8210  176.8740  141.2050 C   0  0  1  0  0  3  0  0  0  0  0  0
  190.8910  175.9550  144.2500 C   0  0  0  0  0  3  0  0  0  0  0  0
  189.9020  178.0670  143.5610 C   0  0  0  0  0  0  0  0  0  0  0  0
  190.5890  178.7160  144.5900 C   0  0  0  0  0  3  0  0  0  0  0  0
  189.9980  177.2970  140.3220 C   0  0  0  0  0  2  0  0  0  0  0  0
  190.5490  176.1810  139.6910 O   0  0  0  0  0  0  0  0  0  0  0  0
  189.9500  176.1550  138.4310 C   0  0  0  0  0  2  0  0  0  0  0  0
  190.3320  177.3990  137.6440 C   0  0  0  0  0  2  0  0  0  0  0  0
  187.8180  177.3350  137.0480 C   0  0  1  0  0  3  0  0  0  0  0  0
  188.9680  179.5020  137.4600 O   0  0  0  0  0  1  0  0  0  0  0  0
  186.5720  178.1950  137.1880 C   0  0  0  0  0  1  0  0  0  0  0  0
  188.5790  177.7560  135.7910 C   0  0  0  0  0  2  0  0  0  0  0  0
  189.1000  178.1450  137.1530 C   0  0  1  0  0  0  0  0  0  0  0  0
  187.1670  178.7510  141.0510 C   0  0  0  0  0  2  0  0  0  0  0  0
  185.6890  178.6390  141.4590 C   0  0  2  0  0  3  0  0  0  0  0  0
  184.7790  179.0500  140.3820 C   0  0  0  0  0  0  0  0  0  0  0  0
  184.0320  179.3810  139.4950 C   0  0  0  0  0  3  0  0  0  0  0  0
  185.3510  179.2730  142.8060 C   0  0  0  0  0  2  0  0  0  0  0  0
  185.2470  178.2320  143.9150 C   0  0  0  0  0  2  0  0  0  0  0  0
  186.4820  178.2120  144.7560 C   0  0  0  0  0  3  0  0  0  0  0  0
  186.5430  177.4650  145.8580 C   0  0  0  0  0  3  0  0  0  0  0  0
  187.7770  177.4390  146.6950 C   0  0  0  0  0  2  0  0  0  0  0  0
  188.6990  178.1150  148.7810 O   0  0  0  0  0  1  0  0  0  0  0  0
  187.5460  178.1790  148.0000 C   0  0  0  0  0  2  0  0  0  0  0  0
  1  4  1  0  0  0  0
  1  6  1  0  0  0  0
  2  3  1  0  0  0  0
  3 10  2  0  0  0  0
  3  9  1  0  0  0  0
  5  7  1  0  0  0  0
  7 10  1  0  0  0  0
  8 12  1  1  0  0  0
  8  5  1  0  0  0  0
  8  2  1  0  0  0  0
  9  1  2  0  0  0  0
 10 11  1  0  0  0  0
 11  4  2  0  0  0  0
 13 12  1  0  0  0  0
 14 13  1  0  0  0  0
 15 14  1  0  0  0  0
 16 20  1  0  0  0  0
 16 18  1  6  0  0  0
 19 16  1  0  0  0  0
 19 20  1  0  0  0  0
 20 17  1  1  0  0  0
 20 15  1  0  0  0  0
 21 22  1  0  0  0  0
 21  5  1  0  0  0  0
 22 23  1  6  0  0  0
 22 25  1  0  0  0  0
 24 23  3  0  0  0  0
 25 26  1  0  0  0  0
 26 27  1  0  0  0  0
 27 28  2  0  0  0  0
 28 29  1  0  0  0  0
 29 31  1  0  0  0  0
 31 30  1  0  0  0  0
M  END
>  <MODEL>
3

>  <REMARK>
 VINA RESULT:      -6.5      2.379      7.098
  Name = 
  13 active torsions:
  status: ('A' for Active; 'I' for Inactive)
    1  A    between atoms: C_1  and  C_11
    2  A    between atoms: C_1  and  C_24
    3  A    between atoms: C_3  and  C_9
    4  A    between atoms: C_5  and  O_14
    5  A    between atoms: C_5  and  C_21
    6  A    between atoms: C_6  and  C_7
    7  A    between atoms: C_6  and  C_19
    8  A    between atoms: C_7  and  C_9
    9  A    between atoms: C_9  and  C_23
   10  A    between atoms: C_10  and  O_14
   11  A    between atoms: C_10  and  C_18
   12  A    between atoms: N_15  and  C_23
   13  A    between atoms: C_18  and  C_31
                            x       y       z     vdW  Elec       q    Type
                         _______ _______ _______ _____ _____    ______ ____

>  <TORSDO>
F 13

$$$$
=
 OpenBabel10272400383D

 31 33  0  0  1  0  0  0  0  0999 V2000
  191.7090  176.2960  146.0730 C   0  0  0  0  0  0  0  0  0  0  0  0
  189.8530  178.6700  143.7690 C   0  0  0  0  0  2  0  0  0  0  0  0
  190.5940  177.4530  144.2590 C   0  0  0  0  0  0  0  0  0  0  0  0
  192.0450  175.2520  145.2090 C   0  0  0  0  0  3  0  0  0  0  0  0
  190.1120  177.7630  141.5310 N   0  0  0  0  0  0  0  0  0  0  0  0
  192.0800  176.2430  147.3740 F   0  0  0  0  0  0  0  0  0  0  0  0
  190.5000  176.4100  141.9430 C   0  0  0  0  0  2  0  0  0  0  0  0
  189.1460  178.4050  142.4380 C   0  0  1  0  0  3  0  0  0  0  0  0
  190.9880  177.3950  145.5990 C   0  0  0  0  0  3  0  0  0  0  0  0
  190.9520  176.4050  143.3780 C   0  0  0  0  0  0  0  0  0  0  0  0
  191.6640  175.3060  143.8650 C   0  0  0  0  0  3  0  0  0  0  0  0
  187.9010  177.5490  142.6880 C   0  0  0  0  0  2  0  0  0  0  0  0
  186.7580  178.3490  142.6670 O   0  0  0  0  0  0  0  0  0  0  0  0
  185.9000  177.7650  143.5990 C   0  0  0  0  0  2  0  0  0  0  0  0
  185.5050  178.7830  144.6580 C   0  0  0  0  0  2  0  0  0  0  0  0
  187.3730  178.2760  146.3720 C   0  0  1  0  0  3  0  0  0  0  0  0
  185.0170  178.5760  147.1150 O   0  0  0  0  0  1  0  0  0  0  0  0
  187.6530  178.4310  147.8580 C   0  0  0  0  0  1  0  0  0  0  0  0
  186.5950  176.9810  146.1400 C   0  0  0  0  0  2  0  0  0  0  0  0
  185.8860  178.3100  146.0530 C   0  0  1  0  0  0  0  0  0  0  0  0
  189.8470  177.8880  140.0880 C   0  0  0  0  0  2  0  0  0  0  0  0
  190.0190  176.6290  139.2220 C   0  0  2  0  0  3  0  0  0  0  0  0
  191.3660  176.5270  138.6460 C   0  0  0  0  0  0  0  0  0  0  0  0
  192.4700  176.4390  138.1670 C   0  0  0  0  0  3  0  0  0  0  0  0
  188.9100  176.4040  138.1980 C   0  0  0  0  0  2  0  0  0  0  0  0
  188.5670  177.6830  137.4410 C   0  0  0  0  0  2  0  0  0  0  0  0
  187.0890  177.8470  137.2970 C   0  0  0  0  0  3  0  0  0  0  0  0
  186.3150  178.0210  138.3690 C   0  0  0  0  0  3  0  0  0  0  0  0
  184.8400  178.1910  138.2260 C   0  0  0  0  0  2  0  0  0  0  0  0
  185.1390  179.5290  140.1690 O   0  0  0  0  0  1  0  0  0  0  0  0
  184.3680  179.3970  139.0160 C   0  0  0  0  0  2  0  0  0  0  0  0
  1  6  1  0  0  0  0
  2  3  1  0  0  0  0
  3  9  2  0  0  0  0
  4  1  2  0  0  0  0
  5  7  1  0  0  0  0
  5  8  1  0  0  0  0
  7 10  1  0  0  0  0
  8 12  1  1  0  0  0
  8  2  1  0  0  0  0
  9  1  1  0  0  0  0
 10 11  2  0  0  0  0
 10  3  1  0  0  0  0
 11  4  1  0  0  0  0
 13 12  1  0  0  0  0
 13 14  1  0  0  0  0
 14 15  1  0  0  0  0
 15 20  1  0  0  0  0
 16 18  1  1  0  0  0
 19 16  1  0  0  0  0
 20 19  1  0  0  0  0
 20 16  1  0  0  0  0
 20 17  1  1  0  0  0
 21  5  1  0  0  0  0
 22 25  1  6  0  0  0
 22 21  1  0  0  0  0
 23 22  1  0  0  0  0
 24 23  3  0  0  0  0
 26 25  1  0  0  0  0
 27 26  1  0  0  0  0
 27 28  2  0  0  0  0
 29 28  1  0  0  0  0
 29 31  1  0  0  0  0
 31 30  1  0  0  0  0
M  END
>  <MODEL>
4

>  <REMARK>
 VINA RESULT:      -6.5      2.496      4.148
  Name = 
  13 active torsions:
  status: ('A' for Active; 'I' for Inactive)
    1  A    between atoms: C_1  and  C_11
    2  A    between atoms: C_1  and  C_24
    3  A    between atoms: C_3  and  C_9
    4  A    between atoms: C_5  and  O_14
    5  A    between atoms: C_5  and  C_21
    6  A    between atoms: C_6  and  C_7
    7  A    between atoms: C_6  and  C_19
    8  A    between atoms: C_7  and  C_9
    9  A    between atoms: C_9  and  C_23
   10  A    between atoms: C_10  and  O_14
   11  A    between atoms: C_10  and  C_18
   12  A    between atoms: N_15  and  C_23
   13  A    between atoms: C_18  and  C_31
                            x       y       z     vdW  Elec       q    Type
                         _______ _______ _______ _____ _____    ______ ____

>  <TORSDO>
F 13

$$$$
=
 OpenBabel10272400383D

 31 33  0  0  1  0  0  0  0  0999 V2000
  191.9910  175.8090  146.7480 C   0  0  0  0  0  0  0  0  0  0  0  0
  190.6770  178.4740  144.3900 C   0  0  0  0  0  2  0  0  0  0  0  0
  191.2120  177.1580  144.8920 C   0  0  0  0  0  0  0  0  0  0  0  0
  192.2820  174.7610  145.8720 C   0  0  0  0  0  3  0  0  0  0  0  0
  191.0480  177.6190  142.1470 N   0  0  0  0  0  0  0  0  0  0  0  0
  192.2190  175.6650  148.0750 F   0  0  0  0  0  0  0  0  0  0  0  0
  191.2260  176.2150  142.5310 C   0  0  0  0  0  2  0  0  0  0  0  0
  190.0810  178.3450  142.9870 C   0  0  1  0  0  3  0  0  0  0  0  0
  191.4590  177.0040  146.2590 C   0  0  0  0  0  3  0  0  0  0  0  0
  191.5270  176.1040  144.0010 C   0  0  0  0  0  0  0  0  0  0  0  0
  192.0480  174.9080  144.5020 C   0  0  0  0  0  3  0  0  0  0  0  0
  188.7220  177.6440  143.0760 C   0  0  0  0  0  2  0  0  0  0  0  0
  188.0680  178.0160  144.2510 O   0  0  0  0  0  0  0  0  0  0  0  0
  186.7870  177.4760  144.1290 C   0  0  0  0  0  2  0  0  0  0  0  0
  185.9730  177.7700  145.3800 C   0  0  0  0  0  2  0  0  0  0  0  0
  184.1390  178.4890  143.7060 C   0  0  1  0  0  3  0  0  0  0  0  0
  183.9490  179.0630  146.1200 O   0  0  0  0  0  1  0  0  0  0  0  0
  182.6730  178.8920  143.6970 C   0  0  0  0  0  1  0  0  0  0  0  0
  184.9960  179.7180  144.0080 C   0  0  0  0  0  2  0  0  0  0  0  0
  184.7850  178.6690  145.0710 C   0  0  1  0  0  0  0  0  0  0  0  0
  190.9470  177.8260  140.6930 C   0  0  0  0  0  2  0  0  0  0  0  0
  190.0700  176.8460  139.8950 C   0  0  2  0  0  3  0  0  0  0  0  0
  190.8280  176.1360  138.8570 C   0  0  0  0  0  0  0  0  0  0  0  0
  191.4480  175.5460  138.0070 C   0  0  0  0  0  3  0  0  0  0  0  0
  188.7600  177.4380  139.3820 C   0  0  0  0  0  2  0  0  0  0  0  0
  188.9850  178.3920  138.2150 C   0  0  0  0  0  2  0  0  0  0  0  0
  187.7940  178.4350  137.3130 C   0  0  0  0  0  3  0  0  0  0  0  0
  187.0780  177.3360  137.0770 C   0  0  0  0  0  3  0  0  0  0  0  0
  185.8860  177.3790  136.1830 C   0  0  0  0  0  2  0  0  0  0  0  0
  183.9410  177.7700  137.4950 O   0  0  0  0  0  1  0  0  0  0  0  0
  184.6830  176.7660  136.8750 C   0  0  0  0  0  2  0  0  0  0  0  0
  1  6  1  0  0  0  0
  2  3  1  0  0  0  0
  3  9  2  0  0  0  0
  4  1  2  0  0  0  0
  5  7  1  0  0  0  0
  5  8  1  0  0  0  0
  7 10  1  0  0  0  0
  8 12  1  1  0  0  0
  8  2  1  0  0  0  0
  9  1  1  0  0  0  0
 10 11  2  0  0  0  0
 10  3  1  0  0  0  0
 11  4  1  0  0  0  0
 12 13  1  0  0  0  0
 14 13  1  0  0  0  0
 14 15  1  0  0  0  0
 16 18  1  1  0  0  0
 16 19  1  0  0  0  0
 16 20  1  0  0  0  0
 19 20  1  0  0  0  0
 20 15  1  0  0  0  0
 20 17  1  1  0  0  0
 21  5  1  0  0  0  0
 22 23  1  6  0  0  0
 22 21  1  0  0  0  0
 24 23  3  0  0  0  0
 25 22  1  0  0  0  0
 26 25  1  0  0  0  0
 27 26  1  0  0  0  0
 28 27  2  0  0  0  0
 29 31  1  0  0  0  0
 29 28  1  0  0  0  0
 31 30  1  0  0  0  0
M  END
>  <MODEL>
5

>  <REMARK>
 VINA RESULT:      -6.2      2.603      4.882
  Name = 
  13 active torsions:
  status: ('A' for Active; 'I' for Inactive)
    1  A    between atoms: C_1  and  C_11
    2  A    between atoms: C_1  and  C_24
    3  A    between atoms: C_3  and  C_9
    4  A    between atoms: C_5  and  O_14
    5  A    between atoms: C_5  and  C_21
    6  A    between atoms: C_6  and  C_7
    7  A    between atoms: C_6  and  C_19
    8  A    between atoms: C_7  and  C_9
    9  A    between atoms: C_9  and  C_23
   10  A    between atoms: C_10  and  O_14
   11  A    between atoms: C_10  and  C_18
   12  A    between atoms: N_15  and  C_23
   13  A    between atoms: C_18  and  C_31
                            x       y       z     vdW  Elec       q    Type
                         _______ _______ _______ _____ _____    ______ ____

>  <TORSDO>
F 13

$$$$
=
 OpenBabel10272400383D

 31 33  0  0  1  0  0  0  0  0999 V2000
  185.7090  178.4130  146.6170 C   0  0  0  0  0  0  0  0  0  0  0  0
  185.0030  179.7880  143.1530 C   0  0  0  0  0  2  0  0  0  0  0  0
  185.5570  178.9190  144.2520 C   0  0  0  0  0  0  0  0  0  0  0  0
  186.6170  177.3870  146.3450 C   0  0  0  0  0  3  0  0  0  0  0  0
  186.5550  178.6630  141.6610 N   0  0  0  0  0  0  0  0  0  0  0  0
  185.3340  178.6640  147.8930 F   0  0  0  0  0  0  0  0  0  0  0  0
  186.8780  177.5540  142.5640 C   0  0  0  0  0  2  0  0  0  0  0  0
  185.1650  179.1360  141.7780 C   0  0  1  0  0  3  0  0  0  0  0  0
  185.1820  179.1780  145.5730 C   0  0  0  0  0  3  0  0  0  0  0  0
  186.4930  177.8940  143.9780 C   0  0  0  0  0  0  0  0  0  0  0  0
  187.0060  177.1270  145.0280 C   0  0  0  0  0  3  0  0  0  0  0  0
  184.1360  178.0120  141.6270 C   0  0  0  0  0  2  0  0  0  0  0  0
  182.8520  178.5480  141.5310 O   0  0  0  0  0  0  0  0  0  0  0  0
  182.4480  178.2680  140.2250 C   0  0  0  0  0  2  0  0  0  0  0  0
  182.7900  176.8300  139.8680 C   0  0  0  0  0  2  0  0  0  0  0  0
  184.3470  177.7790  138.0370 C   0  0  1  0  0  3  0  0  0  0  0  0
  183.4670  175.4570  137.8750 O   0  0  0  0  0  1  0  0  0  0  0  0
  185.2880  177.2880  136.9480 C   0  0  0  0  0  1  0  0  0  0  0  0
  182.9200  177.8110  137.4910 C   0  0  0  0  0  2  0  0  0  0  0  0
  183.3340  176.7240  138.4520 C   0  0  1  0  0  0  0  0  0  0  0  0
  187.0800  178.4890  140.2970 C   0  0  0  0  0  2  0  0  0  0  0  0
  188.6060  178.3970  140.1300 C   0  0  2  0  0  3  0  0  0  0  0  0
  189.0160  178.4070  138.7200 C   0  0  0  0  0  0  0  0  0  0  0  0
  189.3560  178.4230  137.5630 C   0  0  0  0  0  3  0  0  0  0  0  0
  189.2690  177.2850  140.9390 C   0  0  0  0  0  2  0  0  0  0  0  0
  190.7760  177.4860  141.0540 C   0  0  0  0  0  2  0  0  0  0  0  0
  191.1990  177.5990  142.4830 C   0  0  0  0  0  3  0  0  0  0  0  0
  190.3090  177.8670  143.4380 C   0  0  0  0  0  3  0  0  0  0  0  0
  190.7290  177.9750  144.8650 C   0  0  0  0  0  2  0  0  0  0  0  0
  191.9810  176.9120  146.5860 O   0  0  0  0  0  1  0  0  0  0  0  0
  191.5760  176.7790  145.2580 C   0  0  0  0  0  2  0  0  0  0  0  0
  1  6  1  0  0  0  0
  2  3  1  0  0  0  0
  3  9  1  0  0  0  0
  4  1  1  0  0  0  0
  5  8  1  0  0  0  0
  5  7  1  0  0  0  0
  7 10  1  0  0  0  0
  8 12  1  1  0  0  0
  8  2  1  0  0  0  0
  9  1  2  0  0  0  0
 10  3  2  0  0  0  0
 10 11  1  0  0  0  0
 11  4  2  0  0  0  0
 13 12  1  0  0  0  0
 14 13  1  0  0  0  0
 15 14  1  0  0  0  0
 16 18  1  6  0  0  0
 16 20  1  0  0  0  0
 19 16  1  0  0  0  0
 19 20  1  0  0  0  0
 20 17  1  6  0  0  0
 20 15  1  0  0  0  0
 21  5  1  0  0  0  0
 22 23  1  6  0  0  0
 22 21  1  0  0  0  0
 22 25  1  0  0  0  0
 24 23  3  0  0  0  0
 25 26  1  0  0  0  0
 26 27  1  0  0  0  0
 27 28  2  0  0  0  0
 28 29  1  0  0  0  0
 29 31  1  0  0  0  0
 31 30  1  0  0  0  0
M  END
>  <MODEL>
6

>  <REMARK>
 VINA RESULT:      -6.1      1.890      7.127
  Name = 
  13 active torsions:
  status: ('A' for Active; 'I' for Inactive)
    1  A    between atoms: C_1  and  C_11
    2  A    between atoms: C_1  and  C_24
    3  A    between atoms: C_3  and  C_9
    4  A    between atoms: C_5  and  O_14
    5  A    between atoms: C_5  and  C_21
    6  A    between atoms: C_6  and  C_7
    7  A    between atoms: C_6  and  C_19
    8  A    between atoms: C_7  and  C_9
    9  A    between atoms: C_9  and  C_23
   10  A    between atoms: C_10  and  O_14
   11  A    between atoms: C_10  and  C_18
   12  A    between atoms: N_15  and  C_23
   13  A    between atoms: C_18  and  C_31
                            x       y       z     vdW  Elec       q    Type
                         _______ _______ _______ _____ _____    ______ ____

>  <TORSDO>
F 13

$$$$
=
 OpenBabel10272400383D

 31 33  0  0  1  0  0  0  0  0999 V2000
  192.1340  175.0640  136.0490 C   0  0  0  0  0  0  0  0  0  0  0  0
  188.9110  175.9110  137.8620 C   0  0  0  0  0  2  0  0  0  0  0  0
  190.3770  175.8570  137.5190 C   0  0  0  0  0  0  0  0  0  0  0  0
  193.0960  175.6530  136.8720 C   0  0  0  0  0  3  0  0  0  0  0  0
  189.5790  176.9140  139.9710 N   0  0  0  0  0  0  0  0  0  0  0  0
  192.5140  174.3990  134.9330 F   0  0  0  0  0  0  0  0  0  0  0  0
  190.9550  177.2320  139.5770 C   0  0  0  0  0  2  0  0  0  0  0  0
  188.6070  177.0210  138.8700 C   0  0  1  0  0  3  0  0  0  0  0  0
  190.7780  175.1650  136.3720 C   0  0  0  0  0  3  0  0  0  0  0  0
  191.3530  176.4350  138.3640 C   0  0  0  0  0  0  0  0  0  0  0  0
  192.7060  176.3390  138.0260 C   0  0  0  0  0  3  0  0  0  0  0  0
  188.6550  178.3780  138.1600 C   0  0  0  0  0  2  0  0  0  0  0  0
  187.4020  178.6860  137.6310 O   0  0  0  0  0  0  0  0  0  0  0  0
  186.4910  178.1340  138.5330 C   0  0  0  0  0  2  0  0  0  0  0  0
  185.0670  178.3930  138.0640 C   0  0  0  0  0  2  0  0  0  0  0  0
  183.0560  178.0810  139.6580 C   0  0  1  0  0  3  0  0  0  0  0  0
  184.8030  179.7870  140.1380 O   0  0  0  0  0  1  0  0  0  0  0  0
  182.6710  178.3560  141.1020 C   0  0  0  0  0  1  0  0  0  0  0  0
  182.7920  179.3320  138.8210 C   0  0  0  0  0  2  0  0  0  0  0  0
  184.2070  178.9560  139.1850 C   0  0  1  0  0  0  0  0  0  0  0  0
  189.1830  177.5020  141.2620 C   0  0  0  0  0  2  0  0  0  0  0  0
  188.9930  176.5450  142.4500 C   0  0  2  0  0  3  0  0  0  0  0  0
  188.0100  177.0460  143.4200 C   0  0  0  0  0  0  0  0  0  0  0  0
  187.2090  177.4600  144.2210 C   0  0  0  0  0  3  0  0  0  0  0  0
  190.2900  176.0730  143.1000 C   0  0  0  0  0  2  0  0  0  0  0  0
  191.1480  177.2410  143.5730 C   0  0  0  0  0  2  0  0  0  0  0  0
  191.5190  177.0930  145.0130 C   0  0  0  0  0  3  0  0  0  0  0  0
  190.6030  176.7580  145.9220 C   0  0  0  0  0  3  0  0  0  0  0  0
  190.9730  176.6030  147.3580 C   0  0  0  0  0  2  0  0  0  0  0  0
  192.9860  176.2670  148.5810 O   0  0  0  0  0  1  0  0  0  0  0  0
  192.2540  175.8000  147.4910 C   0  0  0  0  0  2  0  0  0  0  0  0
  1  9  2  0  0  0  0
  1  4  1  0  0  0  0
  2  8  1  0  0  0  0
  3  2  1  0  0  0  0
  3 10  2  0  0  0  0
  4 11  2  0  0  0  0
  5 21  1  0  0  0  0
  6  1  1  0  0  0  0
  7  5  1  0  0  0  0
  8 12  1  6  0  0  0
  8  5  1  0  0  0  0
  9  3  1  0  0  0  0
 10  7  1  0  0  0  0
 11 10  1  0  0  0  0
 13 12  1  0  0  0  0
 13 14  1  0  0  0  0
 15 14  1  0  0  0  0
 15 20  1  0  0  0  0
 16 18  1  1  0  0  0
 19 20  1  0  0  0  0
 19 16  1  0  0  0  0
 20 16  1  0  0  0  0
 20 17  1  1  0  0  0
 22 21  1  6  0  0  0
 22 25  1  0  0  0  0
 22 23  1  0  0  0  0
 23 24  3  0  0  0  0
 25 26  1  0  0  0  0
 26 27  1  0  0  0  0
 27 28  2  0  0  0  0
 28 29  1  0  0  0  0
 29 31  1  0  0  0  0
 31 30  1  0  0  0  0
M  END
>  <MODEL>
7

>  <REMARK>
 VINA RESULT:      -6.1      3.077      8.535
  Name = 
  13 active torsions:
  status: ('A' for Active; 'I' for Inactive)
    1  A    between atoms: C_1  and  C_11
    2  A    between atoms: C_1  and  C_24
    3  A    between atoms: C_3  and  C_9
    4  A    between atoms: C_5  and  O_14
    5  A    between atoms: C_5  and  C_21
    6  A    between atoms: C_6  and  C_7
    7  A    between atoms: C_6  and  C_19
    8  A    between atoms: C_7  and  C_9
    9  A    between atoms: C_9  and  C_23
   10  A    between atoms: C_10  and  O_14
   11  A    between atoms: C_10  and  C_18
   12  A    between atoms: N_15  and  C_23
   13  A    between atoms: C_18  and  C_31
                            x       y       z     vdW  Elec       q    Type
                         _______ _______ _______ _____ _____    ______ ____

>  <TORSDO>
F 13

$$$$
=
 OpenBabel10272400383D

 31 33  0  0  1  0  0  0  0  0999 V2000
  192.5430  175.4830  135.9780 C   0  0  0  0  0  0  0  0  0  0  0  0
  189.3820  176.1120  137.9790 C   0  0  0  0  0  2  0  0  0  0  0  0
  190.8340  176.1180  137.5740 C   0  0  0  0  0  0  0  0  0  0  0  0
  193.5270  176.0270  136.8070 C   0  0  0  0  0  3  0  0  0  0  0  0
  190.1160  176.9610  140.1330 N   0  0  0  0  0  0  0  0  0  0  0  0
  192.8890  174.9170  134.7980 F   0  0  0  0  0  0  0  0  0  0  0  0
  191.4690  177.3390  139.7110 C   0  0  0  0  0  2  0  0  0  0  0  0
  189.0980  177.1320  139.0830 C   0  0  1  0  0  3  0  0  0  0  0  0
  191.2010  175.5270  136.3620 C   0  0  0  0  0  3  0  0  0  0  0  0
  191.8320  176.6490  138.4240 C   0  0  0  0  0  0  0  0  0  0  0  0
  193.1710  176.6110  138.0260 C   0  0  0  0  0  3  0  0  0  0  0  0
  189.0910  178.5410  138.4820 C   0  0  0  0  0  2  0  0  0  0  0  0
  187.8740  178.7830  137.8440 O   0  0  0  0  0  0  0  0  0  0  0  0
  186.9070  178.3280  138.7420 C   0  0  0  0  0  2  0  0  0  0  0  0
  185.5860  178.1090  138.0210 C   0  0  0  0  0  2  0  0  0  0  0  0
  183.5290  177.6460  139.5170 C   0  0  1  0  0  3  0  0  0  0  0  0
  184.5600  179.9090  139.4430 O   0  0  0  0  0  1  0  0  0  0  0  0
  182.8400  178.2160  140.7460 C   0  0  0  0  0  1  0  0  0  0  0  0
  183.0390  178.3910  138.2750 C   0  0  0  0  0  2  0  0  0  0  0  0
  184.4180  178.6650  138.8210 C   0  0  1  0  0  0  0  0  0  0  0  0
  189.7620  177.4360  141.4810 C   0  0  0  0  0  2  0  0  0  0  0  0
  188.4310  176.9520  142.0780 C   0  0  2  0  0  3  0  0  0  0  0  0
  187.4150  178.0130  142.1120 C   0  0  0  0  0  0  0  0  0  0  0  0
  186.5870  178.8890  142.1400 C   0  0  0  0  0  3  0  0  0  0  0  0
  188.5620  176.2030  143.4010 C   0  0  0  0  0  2  0  0  0  0  0  0
  189.5790  176.8600  144.3280 C   0  0  0  0  0  2  0  0  0  0  0  0
  188.9330  177.3430  145.5850 C   0  0  0  0  0  3  0  0  0  0  0  0
  187.6210  177.5760  145.6320 C   0  0  0  0  0  3  0  0  0  0  0  0
  186.9740  178.0530  146.8880 C   0  0  0  0  0  2  0  0  0  0  0  0
  185.3850  178.6350  145.2160 O   0  0  0  0  0  1  0  0  0  0  0  0
  185.5890  178.6000  146.5940 C   0  0  0  0  0  2  0  0  0  0  0  0
  1  9  2  0  0  0  0
  1  4  1  0  0  0  0
  2  8  1  0  0  0  0
  3  2  1  0  0  0  0
  3 10  2  0  0  0  0
  4 11  2  0  0  0  0
  5 21  1  0  0  0  0
  6  1  1  0  0  0  0
  7  5  1  0  0  0  0
  8 12  1  6  0  0  0
  8  5  1  0  0  0  0
  9  3  1  0  0  0  0
 10  7  1  0  0  0  0
 11 10  1  0  0  0  0
 13 12  1  0  0  0  0
 13 14  1  0  0  0  0
 15 14  1  0  0  0  0
 15 20  1  0  0  0  0
 16 18  1  1  0  0  0
 19 20  1  0  0  0  0
 19 16  1  0  0  0  0
 20 17  1  1  0  0  0
 20 16  1  0  0  0  0
 22 21  1  1  0  0  0
 22 23  1  0  0  0  0
 22 25  1  0  0  0  0
 23 24  3  0  0  0  0
 25 26  1  0  0  0  0
 26 27  1  0  0  0  0
 27 28  2  0  0  0  0
 28 29  1  0  0  0  0
 30 31  1  0  0  0  0
 31 29  1  0  0  0  0
M  END
>  <MODEL>
8

>  <REMARK>
 VINA RESULT:      -6.1      3.327      7.907
  Name = 
  13 active torsions:
  status: ('A' for Active; 'I' for Inactive)
    1  A    between atoms: C_1  and  C_11
    2  A    between atoms: C_1  and  C_24
    3  A    between atoms: C_3  and  C_9
    4  A    between atoms: C_5  and  O_14
    5  A    between atoms: C_5  and  C_21
    6  A    between atoms: C_6  and  C_7
    7  A    between atoms: C_6  and  C_19
    8  A    between atoms: C_7  and  C_9
    9  A    between atoms: C_9  and  C_23
   10  A    between atoms: C_10  and  O_14
   11  A    between atoms: C_10  and  C_18
   12  A    between atoms: N_15  and  C_23
   13  A    between atoms: C_18  and  C_31
                            x       y       z     vdW  Elec       q    Type
                         _______ _______ _______ _____ _____    ______ ____

>  <TORSDO>
F 13

$$$$
=
 OpenBabel10272400383D

 31 33  0  0  1  0  0  0  0  0999 V2000
  192.4030  175.8110  146.5460 C   0  0  0  0  0  0  0  0  0  0  0  0
  190.1200  178.2360  144.7290 C   0  0  0  0  0  2  0  0  0  0  0  0
  190.9180  176.9960  145.0420 C   0  0  0  0  0  0  0  0  0  0  0  0
  192.4820  174.7500  145.6410 C   0  0  0  0  0  3  0  0  0  0  0  0
  189.7950  177.3060  142.5090 N   0  0  0  0  0  0  0  0  0  0  0  0
  193.0780  175.7520  147.7180 F   0  0  0  0  0  0  0  0  0  0  0  0
  190.2270  175.9430  142.8340 C   0  0  0  0  0  2  0  0  0  0  0  0
  189.1020  177.9880  143.6150 C   0  0  1  0  0  3  0  0  0  0  0  0
  191.6250  176.9310  146.2460 C   0  0  0  0  0  3  0  0  0  0  0  0
  191.0150  175.9310  144.1150 C   0  0  0  0  0  0  0  0  0  0  0  0
  191.7870  174.8090  144.4300 C   0  0  0  0  0  3  0  0  0  0  0  0
  187.9270  177.1790  144.1730 C   0  0  0  0  0  2  0  0  0  0  0  0
  187.8530  177.3360  145.5570 O   0  0  0  0  0  0  0  0  0  0  0  0
  186.5410  177.7450  145.7970 C   0  0  0  0  0  2  0  0  0  0  0  0
  185.7930  177.9030  144.4820 C   0  0  0  0  0  2  0  0  0  0  0  0
  183.5690  178.7650  143.4850 C   0  0  1  0  0  3  0  0  0  0  0  0
  184.0010  178.9040  145.9320 O   0  0  0  0  0  1  0  0  0  0  0  0
  182.1420  179.0580  143.9210 C   0  0  0  0  0  1  0  0  0  0  0  0
  184.4440  179.9820  143.7810 C   0  0  0  0  0  2  0  0  0  0  0  0
  184.5440  178.7550  144.6520 C   0  0  1  0  0  0  0  0  0  0  0  0
  189.1900  177.4330  141.1720 C   0  0  0  0  0  2  0  0  0  0  0  0
  190.0870  177.9430  140.0320 C   0  0  2  0  0  3  0  0  0  0  0  0
  189.3120  178.3610  138.8560 C   0  0  0  0  0  0  0  0  0  0  0  0
  188.6750  178.6970  137.8890 C   0  0  0  0  0  3  0  0  0  0  0  0
  191.2580  177.0280  139.6850 C   0  0  0  0  0  2  0  0  0  0  0  0
  190.8440  175.9110  138.7340 C   0  0  0  0  0  2  0  0  0  0  0  0
  191.7610  175.8350  137.5560 C   0  0  0  0  0  3  0  0  0  0  0  0
  193.0830  175.8100  137.7220 C   0  0  0  0  0  3  0  0  0  0  0  0
  193.9990  175.7280  136.5490 C   0  0  0  0  0  2  0  0  0  0  0  0
  196.3530  175.3850  136.5490 O   0  0  0  0  0  1  0  0  0  0  0  0
  195.1370  174.7650  136.8320 C   0  0  0  0  0  2  0  0  0  0  0  0
  1  6  1  0  0  0  0
  2  3  1  0  0  0  0
  3  9  2  0  0  0  0
  4  1  2  0  0  0  0
  5  7  1  0  0  0  0
  5  8  1  0  0  0  0
  7 10  1  0  0  0  0
  8 12  1  1  0  0  0
  8  2  1  0  0  0  0
  9  1  1  0  0  0  0
 10 11  2  0  0  0  0
 10  3  1  0  0  0  0
 11  4  1  0  0  0  0
 12 13  1  0  0  0  0
 13 14  1  0  0  0  0
 15 20  1  0  0  0  0
 15 14  1  0  0  0  0
 16 19  1  0  0  0  0
 16 18  1  1  0  0  0
 16 20  1  0  0  0  0
 19 20  1  0  0  0  0
 20 17  1  1  0  0  0
 21  5  1  0  0  0  0
 22 23  1  6  0  0  0
 22 21  1  0  0  0  0
 24 23  3  0  0  0  0
 25 22  1  0  0  0  0
 26 25  1  0  0  0  0
 27 28  2  0  0  0  0
 27 26  1  0  0  0  0
 29 31  1  0  0  0  0
 29 28  1  0  0  0  0
 30 31  1  0  0  0  0
M  END
>  <MODEL>
9

>  <REMARK>
 VINA RESULT:      -6.0      3.234      6.602
  Name = 
  13 active torsions:
  status: ('A' for Active; 'I' for Inactive)
    1  A    between atoms: C_1  and  C_11
    2  A    between atoms: C_1  and  C_24
    3  A    between atoms: C_3  and  C_9
    4  A    between atoms: C_5  and  O_14
    5  A    between atoms: C_5  and  C_21
    6  A    between atoms: C_6  and  C_7
    7  A    between atoms: C_6  and  C_19
    8  A    between atoms: C_7  and  C_9
    9  A    between atoms: C_9  and  C_23
   10  A    between atoms: C_10  and  O_14
   11  A    between atoms: C_10  and  C_18
   12  A    between atoms: N_15  and  C_23
   13  A    between atoms: C_18  and  C_31
                            x       y       z     vdW  Elec       q    Type
                         _______ _______ _______ _____ _____    ______ ____

>  <TORSDO>
F 13

$$$$
