=
 OpenBabel10272413223D

 32 37  0  0  1  0  0  0  0  0999 V2000
  186.7490  177.5500  142.8500 C   0  0  0  0  0  2  0  0  0  0  0  0
  190.8660  177.3080  139.4280 C   0  0  1  0  0  3  0  0  0  0  0  0
  186.6880  176.2110  136.9420 C   0  0  0  0  0  2  0  0  0  0  0  0
  187.4400  174.9090  136.6640 C   0  0  0  0  0  2  0  0  0  0  0  0
  193.0570  176.4000  138.6020 C   0  0  0  0  0  0  0  0  0  0  0  0
  193.7050  175.3960  137.8270 N   0  0  0  0  0  0  0  0  0  0  0  0
  189.6680  177.1300  141.6250 C   0  0  1  0  0  3  0  0  0  0  0  0
  188.8050  178.7190  139.8760 C   0  0  0  0  0  2  0  0  0  0  0  0
  193.7790  173.3230  136.8950 C   0  0  0  0  0  0  0  0  0  0  0  0
  187.5860  178.5310  142.0270 C   0  0  0  0  0  2  0  0  0  0  0  0
  187.3610  176.9680  138.0820 C   0  0  0  0  0  2  0  0  0  0  0  0
  189.6420  178.0070  138.8060 C   0  0  2  0  0  3  0  0  0  0  0  0
  188.8500  177.1560  137.7770 C   0  0  1  0  0  3  0  0  0  0  0  0
  190.9860  175.9460  137.2500 C   0  0  2  0  0  3  0  0  0  0  0  0
  195.0260  173.5530  137.5470 N   0  0  0  0  0  0  0  0  0  0  0  0
  188.8720  176.9600  143.9760 C   0  0  0  0  0  2  0  0  0  0  0  0
  188.4110  177.7640  141.0010 C   0  0  2  0  0  3  0  0  0  0  0  0
  194.9500  174.7370  138.0880 C   0  0  0  0  0  3  0  0  0  0  0  0
  189.3250  176.1700  142.7570 C   0  0  0  0  0  2  0  0  0  0  0  0
  187.4100  177.0450  144.0660 N   0  0  0  0  0  0  0  0  0  0  0  0
  188.8310  175.1950  136.3140 N   0  0  0  0  0  2  0  0  0  0  0  0
  189.4840  175.7880  137.4820 C   0  0  2  0  0  3  0  0  0  0  0  0
  191.6360  174.6310  136.8660 C   0  0  0  0  0  3  0  0  0  0  0  0
  190.4510  176.3700  140.5610 C   0  0  0  0  0  2  0  0  0  0  0  0
  193.6990  177.0760  139.4510 O   0  0  0  0  0  0  0  0  0  0  0  0
  193.4720  172.2590  136.2950 O   0  0  0  0  0  0  0  0  0  0  0  0
  191.6400  176.5740  138.4230 N   0  0  0  0  0  0  0  0  0  0  0  0
  192.9410  174.4770  137.0800 C   0  0  0  0  0  0  0  0  0  0  0  0
  187.0970  177.9720  145.1440 C   0  0  0  0  0  2  0  0  0  0  0  0
  188.0260  177.7400  146.3280 C   0  0  0  0  0  2  0  0  0  0  0  0
  188.3500  178.0950  148.7770 C   0  0  0  0  0  1  0  0  0  0  0  0
  187.3430  178.0900  147.6410 C   0  0  0  0  0  2  0  0  0  0  0  0
  1 20  1  0  0  0  0
  2 24  1  1  0  0  0
  3 11  1  0  0  0  0
  4  3  1  0  0  0  0
  5 25  2  0  0  0  0
  6 18  1  0  0  0  0
  6  5  1  0  0  0  0
  7 24  1  6  0  0  0
  7 19  1  0  0  0  0
  9 28  1  0  0  0  0
  9 15  1  0  0  0  0
 10  1  1  0  0  0  0
 12  2  1  0  0  0  0
 12  8  1  1  0  0  0
 13 11  1  1  0  0  0
 13 12  1  0  0  0  0
 14 23  1  1  0  0  0
 14 22  1  0  0  0  0
 14 27  1  0  0  0  0
 15 18  2  0  0  0  0
 16 20  1  0  0  0  0
 17  8  1  6  0  0  0
 17  7  1  0  0  0  0
 17 10  1  0  0  0  0
 19 16  1  0  0  0  0
 20 29  1  0  0  0  0
 21  4  1  0  0  0  0
 22 21  1  6  0  0  0
 22 13  1  0  0  0  0
 23 28  2  0  0  0  0
 26  9  2  0  0  0  0
 27  5  1  0  0  0  0
 27  2  1  0  0  0  0
 28  6  1  0  0  0  0
 29 30  1  0  0  0  0
 30 32  1  0  0  0  0
 32 31  1  0  0  0  0
M  END
>  <MODEL>
1

>  <REMARK>
 VINA RESULT:      -8.7      0.000      0.000
  Name = 
  3 active torsions:
  status: ('A' for Active; 'I' for Inactive)
    1  A    between atoms: C_1  and  C_10
    2  A    between atoms: C_1  and  C_20
    3  A    between atoms: C_10  and  N_24
                            x       y       z     vdW  Elec       q    Type
                         _______ _______ _______ _____ _____    ______ ____

>  <TORSDO>
F 3

$$$$
=
 OpenBabel10272413223D

 32 37  0  0  1  0  0  0  0  0999 V2000
  186.9530  177.5860  142.9220 C   0  0  0  0  0  2  0  0  0  0  0  0
  190.9170  177.2700  139.3290 C   0  0  1  0  0  3  0  0  0  0  0  0
  186.6410  176.0670  137.0650 C   0  0  0  0  0  2  0  0  0  0  0  0
  187.3920  174.7630  136.7940 C   0  0  0  0  0  2  0  0  0  0  0  0
  193.0760  176.3540  138.4330 C   0  0  0  0  0  0  0  0  0  0  0  0
  193.6980  175.3310  137.6610 N   0  0  0  0  0  0  0  0  0  0  0  0
  189.8180  177.1500  141.5810 C   0  0  1  0  0  3  0  0  0  0  0  0
  188.8650  178.6790  139.8250 C   0  0  0  0  0  2  0  0  0  0  0  0
  193.7480  173.2310  136.7890 C   0  0  0  0  0  0  0  0  0  0  0  0
  187.7440  178.5480  142.0330 C   0  0  0  0  0  2  0  0  0  0  0  0
  187.3580  176.8640  138.1510 C   0  0  0  0  0  2  0  0  0  0  0  0
  189.6600  177.9410  138.7410 C   0  0  2  0  0  3  0  0  0  0  0  0
  188.8300  177.0530  137.7740 C   0  0  1  0  0  3  0  0  0  0  0  0
  190.9510  175.8440  137.1890 C   0  0  2  0  0  3  0  0  0  0  0  0
  195.0210  173.4900  137.3780 N   0  0  0  0  0  0  0  0  0  0  0  0
  189.1290  177.0460  143.9690 C   0  0  0  0  0  2  0  0  0  0  0  0
  188.5290  177.7560  140.9950 C   0  0  2  0  0  3  0  0  0  0  0  0
  194.9580  174.6890  137.8850 C   0  0  0  0  0  3  0  0  0  0  0  0
  189.5350  176.2220  142.7550 C   0  0  0  0  0  2  0  0  0  0  0  0
  187.6710  177.1230  144.1210 N   0  0  0  0  0  0  0  0  0  0  0  0
  188.7640  175.0480  136.3740 N   0  0  0  0  0  2  0  0  0  0  0  0
  189.4620  175.6820  137.4930 C   0  0  2  0  0  3  0  0  0  0  0  0
  191.5950  174.5220  136.8170 C   0  0  0  0  0  3  0  0  0  0  0  0
  190.5590  176.3640  140.5070 C   0  0  0  0  0  2  0  0  0  0  0  0
  193.7490  177.0600  139.2320 O   0  0  0  0  0  0  0  0  0  0  0  0
  193.4240  172.1470  136.2360 O   0  0  0  0  0  0  0  0  0  0  0  0
  191.6510  176.5120  138.3120 N   0  0  0  0  0  0  0  0  0  0  0  0
  192.9090  174.3840  136.9770 C   0  0  0  0  0  0  0  0  0  0  0  0
  187.3990  178.0790  145.1850 C   0  0  0  0  0  2  0  0  0  0  0  0
  186.1620  177.6620  145.9690 C   0  0  0  0  0  2  0  0  0  0  0  0
  184.1250  178.8470  145.1490 C   0  0  0  0  0  1  0  0  0  0  0  0
  185.2270  178.8410  146.1920 C   0  0  0  0  0  2  0  0  0  0  0  0
  1 20  1  0  0  0  0
  2 24  1  1  0  0  0
  3 11  1  0  0  0  0
  4  3  1  0  0  0  0
  5 25  2  0  0  0  0
  6 18  1  0  0  0  0
  6  5  1  0  0  0  0
  7 24  1  6  0  0  0
  7 19  1  0  0  0  0
  9 28  1  0  0  0  0
  9 15  1  0  0  0  0
 10  1  1  0  0  0  0
 12  2  1  0  0  0  0
 12  8  1  1  0  0  0
 13 11  1  1  0  0  0
 13 12  1  0  0  0  0
 14 23  1  1  0  0  0
 14 22  1  0  0  0  0
 14 27  1  0  0  0  0
 15 18  2  0  0  0  0
 16 20  1  0  0  0  0
 17  8  1  6  0  0  0
 17  7  1  0  0  0  0
 17 10  1  0  0  0  0
 19 16  1  0  0  0  0
 20 29  1  0  0  0  0
 21  4  1  0  0  0  0
 22 21  1  6  0  0  0
 22 13  1  0  0  0  0
 23 28  2  0  0  0  0
 26  9  2  0  0  0  0
 27  5  1  0  0  0  0
 27  2  1  0  0  0  0
 28  6  1  0  0  0  0
 29 30  1  0  0  0  0
 30 32  1  0  0  0  0
 31 32  1  0  0  0  0
M  END
>  <MODEL>
2

>  <REMARK>
 VINA RESULT:      -8.6      0.790      1.162
  Name = 
  3 active torsions:
  status: ('A' for Active; 'I' for Inactive)
    1  A    between atoms: C_1  and  C_10
    2  A    between atoms: C_1  and  C_20
    3  A    between atoms: C_10  and  N_24
                            x       y       z     vdW  Elec       q    Type
                         _______ _______ _______ _____ _____    ______ ____

>  <TORSDO>
F 3

$$$$
=
 OpenBabel10272413223D

 32 37  0  0  1  0  0  0  0  0999 V2000
  187.8860  177.4960  142.5700 C   0  0  0  0  0  2  0  0  0  0  0  0
  191.0330  177.2060  138.2420 C   0  0  1  0  0  3  0  0  0  0  0  0
  186.3870  176.0040  136.8930 C   0  0  0  0  0  2  0  0  0  0  0  0
  187.0680  174.7020  136.4670 C   0  0  0  0  0  2  0  0  0  0  0  0
  192.9650  176.2990  136.9200 C   0  0  0  0  0  0  0  0  0  0  0  0
  193.4170  175.2810  136.0320 N   0  0  0  0  0  0  0  0  0  0  0  0
  190.4170  177.0730  140.6710 C   0  0  1  0  0  3  0  0  0  0  0  0
  189.1240  178.6070  139.1540 C   0  0  0  0  0  2  0  0  0  0  0  0
  193.2920  173.1850  135.1580 C   0  0  0  0  0  0  0  0  0  0  0  0
  188.4780  178.4630  141.5440 C   0  0  0  0  0  2  0  0  0  0  0  0
  187.3100  176.7970  137.8140 C   0  0  0  0  0  2  0  0  0  0  0  0
  189.6820  177.8760  137.9270 C   0  0  2  0  0  3  0  0  0  0  0  0
  188.6730  176.9910  137.1450 C   0  0  1  0  0  3  0  0  0  0  0  0
  190.6310  175.7890  136.1330 C   0  0  2  0  0  3  0  0  0  0  0  0
  194.6570  173.4440  135.4750 N   0  0  0  0  0  0  0  0  0  0  0  0
  190.2310  176.9560  143.1480 C   0  0  0  0  0  2  0  0  0  0  0  0
  189.0350  177.6780  140.3640 C   0  0  2  0  0  3  0  0  0  0  0  0
  194.6980  174.6410  135.9910 C   0  0  0  0  0  3  0  0  0  0  0  0
  190.3810  176.1390  141.8730 C   0  0  0  0  0  2  0  0  0  0  0  0
  188.8350  177.0290  143.5960 N   0  0  0  0  0  0  0  0  0  0  0  0
  188.3250  174.9930  135.7770 N   0  0  0  0  0  2  0  0  0  0  0  0
  189.2370  175.6230  136.7330 C   0  0  2  0  0  3  0  0  0  0  0  0
  191.1880  174.4710  135.6310 C   0  0  0  0  0  3  0  0  0  0  0  0
  190.9250  176.2930  139.4640 C   0  0  0  0  0  2  0  0  0  0  0  0
  193.7860  177.0030  137.5680 O   0  0  0  0  0  0  0  0  0  0  0  0
  192.8630  172.1030  134.6770 O   0  0  0  0  0  0  0  0  0  0  0  0
  191.5450  176.4540  137.0930 N   0  0  0  0  0  0  0  0  0  0  0  0
  192.5070  174.3360  135.5180 C   0  0  0  0  0  0  0  0  0  0  0  0
  188.7840  177.9790  144.6970 C   0  0  0  0  0  2  0  0  0  0  0  0
  188.1550  177.3350  145.9250 C   0  0  0  0  0  2  0  0  0  0  0  0
  185.9090  178.3920  145.6620 C   0  0  0  0  0  1  0  0  0  0  0  0
  187.1230  178.2540  146.5620 C   0  0  0  0  0  2  0  0  0  0  0  0
  1 20  1  0  0  0  0
  2 24  1  1  0  0  0
  3 11  1  0  0  0  0
  4  3  1  0  0  0  0
  5 27  1  0  0  0  0
  5 25  2  0  0  0  0
  6  5  1  0  0  0  0
  7 24  1  6  0  0  0
  7 19  1  0  0  0  0
  9 15  1  0  0  0  0
  9 28  1  0  0  0  0
 10  1  1  0  0  0  0
 12  2  1  0  0  0  0
 12  8  1  1  0  0  0
 13 11  1  1  0  0  0
 13 12  1  0  0  0  0
 14 23  1  1  0  0  0
 14 22  1  0  0  0  0
 14 27  1  0  0  0  0
 15 18  2  0  0  0  0
 16 20  1  0  0  0  0
 17  8  1  6  0  0  0
 17  7  1  0  0  0  0
 17 10  1  0  0  0  0
 18  6  1  0  0  0  0
 19 16  1  0  0  0  0
 20 29  1  0  0  0  0
 21  4  1  0  0  0  0
 22 21  1  6  0  0  0
 22 13  1  0  0  0  0
 26  9  2  0  0  0  0
 27  2  1  0  0  0  0
 28 23  2  0  0  0  0
 28  6  1  0  0  0  0
 29 30  1  0  0  0  0
 30 32  1  0  0  0  0
 31 32  1  0  0  0  0
M  END
>  <MODEL>
3

>  <REMARK>
 VINA RESULT:      -7.7      1.341      1.487
  Name = 
  3 active torsions:
  status: ('A' for Active; 'I' for Inactive)
    1  A    between atoms: C_1  and  C_10
    2  A    between atoms: C_1  and  C_20
    3  A    between atoms: C_10  and  N_24
                            x       y       z     vdW  Elec       q    Type
                         _______ _______ _______ _____ _____    ______ ____

>  <TORSDO>
F 3

$$$$
=
 OpenBabel10272413223D

 32 37  0  0  1  0  0  0  0  0999 V2000
  185.7520  178.0640  146.8960 C   0  0  0  0  0  2  0  0  0  0  0  0
  184.7880  179.0270  141.7120 C   0  0  1  0  0  3  0  0  0  0  0  0
  180.4190  178.5220  144.0580 C   0  0  0  0  0  2  0  0  0  0  0  0
  180.2370  177.3950  143.0400 C   0  0  0  0  0  2  0  0  0  0  0  0
  184.9290  178.5020  139.2610 C   0  0  0  0  0  0  0  0  0  0  0  0
  184.3490  177.8010  138.1660 N   0  0  0  0  0  0  0  0  0  0  0  0
  186.0230  178.1560  143.7160 C   0  0  1  0  0  3  0  0  0  0  0  0
  184.5090  180.1490  143.9720 C   0  0  0  0  0  2  0  0  0  0  0  0
  183.1060  176.1000  137.3100 C   0  0  0  0  0  0  0  0  0  0  0  0
  185.6930  179.2810  145.9700 C   0  0  0  0  0  2  0  0  0  0  0  0
  181.8850  178.9400  144.1160 C   0  0  0  0  0  2  0  0  0  0  0  0
  183.8400  179.8220  142.6300 C   0  0  2  0  0  3  0  0  0  0  0  0
  182.3880  179.2760  142.7090 C   0  0  1  0  0  3  0  0  0  0  0  0
  182.6840  178.3730  140.3860 C   0  0  2  0  0  3  0  0  0  0  0  0
  184.3110  176.1830  136.5520 N   0  0  0  0  0  0  0  0  0  0  0  0
  187.5830  177.2660  145.4360 C   0  0  0  0  0  2  0  0  0  0  0  0
  185.0420  178.8880  144.6500 C   0  0  2  0  0  3  0  0  0  0  0  0
  185.0110  177.1510  137.0740 C   0  0  0  0  0  3  0  0  0  0  0  0
  186.5850  176.8900  144.3500 C   0  0  0  0  0  2  0  0  0  0  0  0
  186.9760  177.2540  146.7720 N   0  0  0  0  0  0  0  0  0  0  0  0
  180.6800  177.8340  141.7170 N   0  0  0  0  0  2  0  0  0  0  0  0
  182.1200  178.0860  141.7760 C   0  0  2  0  0  3  0  0  0  0  0  0
  182.3610  177.2600  139.4080 C   0  0  0  0  0  3  0  0  0  0  0  0
  185.3210  177.7790  142.4160 C   0  0  0  0  0  2  0  0  0  0  0  0
  186.1150  178.9270  139.2010 O   0  0  0  0  0  0  0  0  0  0  0  0
  182.2000  175.2470  137.1180 O   0  0  0  0  0  0  0  0  0  0  0  0
  184.1380  178.6570  140.4520 N   0  0  0  0  0  0  0  0  0  0  0  0
  183.1330  177.1090  138.3340 C   0  0  0  0  0  0  0  0  0  0  0  0
  187.9550  177.8070  147.6960 C   0  0  0  0  0  2  0  0  0  0  0  0
  189.3030  177.9710  147.0050 C   0  0  0  0  0  2  0  0  0  0  0  0
  191.3530  176.7000  146.3660 C   0  0  0  0  0  1  0  0  0  0  0  0
  190.2690  176.8700  147.4140 C   0  0  0  0  0  2  0  0  0  0  0  0
  2 24  1  1  0  0  0
  2 12  1  0  0  0  0
  3 11  1  0  0  0  0
  4  3  1  0  0  0  0
  5 27  1  0  0  0  0
  6 28  1  0  0  0  0
  6  5  1  0  0  0  0
  7 24  1  6  0  0  0
  7 19  1  0  0  0  0
  7 17  1  0  0  0  0
  9 28  1  0  0  0  0
 10  1  1  0  0  0  0
 12 13  1  0  0  0  0
 12  8  1  1  0  0  0
 13 11  1  1  0  0  0
 14 23  1  6  0  0  0
 14 27  1  0  0  0  0
 14 22  1  0  0  0  0
 15 18  2  0  0  0  0
 15  9  1  0  0  0  0
 16 20  1  0  0  0  0
 17  8  1  6  0  0  0
 17 10  1  0  0  0  0
 18  6  1  0  0  0  0
 19 16  1  0  0  0  0
 20  1  1  0  0  0  0
 20 29  1  0  0  0  0
 21  4  1  0  0  0  0
 22 21  1  6  0  0  0
 22 13  1  0  0  0  0
 25  5  2  0  0  0  0
 26  9  2  0  0  0  0
 27  2  1  0  0  0  0
 28 23  2  0  0  0  0
 30 32  1  0  0  0  0
 30 29  1  0  0  0  0
 31 32  1  0  0  0  0
M  END
>  <MODEL>
4

>  <REMARK>
 VINA RESULT:      -7.0      5.808      7.679
  Name = 
  3 active torsions:
  status: ('A' for Active; 'I' for Inactive)
    1  A    between atoms: C_1  and  C_10
    2  A    between atoms: C_1  and  C_20
    3  A    between atoms: C_10  and  N_24
                            x       y       z     vdW  Elec       q    Type
                         _______ _______ _______ _____ _____    ______ ____

>  <TORSDO>
F 3

$$$$
=
 OpenBabel10272413223D

 32 37  0  0  1  0  0  0  0  0999 V2000
  185.9990  177.4480  144.7910 C   0  0  0  0  0  2  0  0  0  0  0  0
  186.8270  178.7840  139.6680 C   0  0  1  0  0  3  0  0  0  0  0  0
  182.2670  176.8070  140.0620 C   0  0  0  0  0  2  0  0  0  0  0  0
  182.8330  175.8170  139.0440 C   0  0  0  0  0  2  0  0  0  0  0  0
  188.0350  178.6440  137.4710 C   0  0  0  0  0  0  0  0  0  0  0  0
  188.1540  177.9610  136.2270 N   0  0  0  0  0  0  0  0  0  0  0  0
  187.4120  178.0260  141.9870 C   0  0  1  0  0  3  0  0  0  0  0  0
  185.3890  179.4810  141.6400 C   0  0  0  0  0  2  0  0  0  0  0  0
  187.9030  176.1140  134.9250 C   0  0  0  0  0  0  0  0  0  0  0  0
  185.9310  178.7130  143.9340 C   0  0  0  0  0  2  0  0  0  0  0  0
  183.4030  177.5960  140.7070 C   0  0  0  0  0  2  0  0  0  0  0  0
  185.4100  179.1640  140.1390 C   0  0  2  0  0  3  0  0  0  0  0  0
  184.2730  178.2390  139.6240 C   0  0  1  0  0  3  0  0  0  0  0  0
  185.6840  177.7630  137.6020 C   0  0  2  0  0  3  0  0  0  0  0  0
  189.2180  176.6210  134.7140 N   0  0  0  0  0  0  0  0  0  0  0  0
  188.3950  177.3760  144.1770 C   0  0  0  0  0  2  0  0  0  0  0  0
  185.9790  178.3350  142.4600 C   0  0  2  0  0  3  0  0  0  0  0  0
  189.3420  177.6650  135.4840 C   0  0  0  0  0  3  0  0  0  0  0  0
  188.0460  176.8890  142.7780 C   0  0  0  0  0  2  0  0  0  0  0  0
  187.3610  177.0250  145.1580 N   0  0  0  0  0  0  0  0  0  0  0  0
  183.5890  176.5300  138.0130 N   0  0  0  0  0  2  0  0  0  0  0  0
  184.7510  177.1540  138.6470 C   0  0  2  0  0  3  0  0  0  0  0  0
  186.1070  176.7420  136.5630 C   0  0  0  0  0  3  0  0  0  0  0  0
  187.4030  177.6470  140.5110 C   0  0  0  0  0  2  0  0  0  0  0  0
  188.9680  179.3790  137.8960 O   0  0  0  0  0  0  0  0  0  0  0  0
  187.4390  175.0790  134.3760 O   0  0  0  0  0  0  0  0  0  0  0  0
  186.8450  178.4200  138.2480 N   0  0  0  0  0  0  0  0  0  0  0  0
  187.2340  176.9490  135.8870 C   0  0  0  0  0  0  0  0  0  0  0  0
  187.7030  177.6960  146.4040 C   0  0  0  0  0  2  0  0  0  0  0  0
  189.1800  177.5070  146.7210 C   0  0  0  0  0  2  0  0  0  0  0  0
  188.1700  178.0330  148.9410 C   0  0  0  0  0  1  0  0  0  0  0  0
  189.4590  177.7290  148.1990 C   0  0  0  0  0  2  0  0  0  0  0  0
  1 20  1  0  0  0  0
  2 12  1  0  0  0  0
  2 24  1  1  0  0  0
  3 11  1  0  0  0  0
  4  3  1  0  0  0  0
  5 25  2  0  0  0  0
  5 27  1  0  0  0  0
  6  5  1  0  0  0  0
  7 24  1  6  0  0  0
  7 17  1  0  0  0  0
  7 19  1  0  0  0  0
  9 28  1  0  0  0  0
 10  1  1  0  0  0  0
 12  8  1  1  0  0  0
 13 12  1  0  0  0  0
 13 11  1  1  0  0  0
 14 23  1  6  0  0  0
 14 27  1  0  0  0  0
 14 22  1  0  0  0  0
 15  9  1  0  0  0  0
 15 18  2  0  0  0  0
 16 20  1  0  0  0  0
 17  8  1  6  0  0  0
 17 10  1  0  0  0  0
 18  6  1  0  0  0  0
 19 16  1  0  0  0  0
 20 29  1  0  0  0  0
 21  4  1  0  0  0  0
 22 21  1  6  0  0  0
 22 13  1  0  0  0  0
 26  9  2  0  0  0  0
 27  2  1  0  0  0  0
 28  6  1  0  0  0  0
 28 23  2  0  0  0  0
 29 30  1  0  0  0  0
 30 32  1  0  0  0  0
 32 31  1  0  0  0  0
M  END
>  <MODEL>
5

>  <REMARK>
 VINA RESULT:      -6.8      3.597      4.657
  Name = 
  3 active torsions:
  status: ('A' for Active; 'I' for Inactive)
    1  A    between atoms: C_1  and  C_10
    2  A    between atoms: C_1  and  C_20
    3  A    between atoms: C_10  and  N_24
                            x       y       z     vdW  Elec       q    Type
                         _______ _______ _______ _____ _____    ______ ____

>  <TORSDO>
F 3

$$$$
=
 OpenBabel10272413223D

 32 37  0  0  1  0  0  0  0  0999 V2000
  182.0130  175.1000  136.2270 C   0  0  0  0  0  2  0  0  0  0  0  0
  182.8300  178.5150  140.2760 C   0  0  1  0  0  3  0  0  0  0  0  0
  187.0190  178.2270  137.5900 C   0  0  0  0  0  2  0  0  0  0  0  0
  187.6020  177.7760  138.9300 C   0  0  0  0  0  2  0  0  0  0  0  0
  182.9730  179.1340  142.7050 C   0  0  0  0  0  0  0  0  0  0  0  0
  183.7970  179.1900  143.8650 N   0  0  0  0  0  0  0  0  0  0  0  0
  181.8630  176.5350  139.0750 C   0  0  1  0  0  3  0  0  0  0  0  0
  182.6300  178.5280  137.7450 C   0  0  0  0  0  2  0  0  0  0  0  0
  185.5630  178.4700  145.1030 C   0  0  0  0  0  0  0  0  0  0  0  0
  181.7100  176.5660  136.5390 C   0  0  0  0  0  2  0  0  0  0  0  0
  185.4960  178.1540  137.6350 C   0  0  0  0  0  2  0  0  0  0  0  0
  183.4250  179.0370  138.9540 C   0  0  2  0  0  3  0  0  0  0  0  0
  184.9710  178.9350  138.8420 C   0  0  1  0  0  3  0  0  0  0  0  0
  185.0870  179.1330  141.3420 C   0  0  2  0  0  3  0  0  0  0  0  0
  184.4310  178.5530  145.9650 N   0  0  0  0  0  0  0  0  0  0  0  0
  180.6070  174.5760  138.1960 C   0  0  0  0  0  2  0  0  0  0  0  0
  182.5090  177.0050  137.7590 C   0  0  2  0  0  3  0  0  0  0  0  0
  183.4310  178.9480  145.2280 C   0  0  0  0  0  3  0  0  0  0  0  0
  181.7180  175.0200  139.1360 C   0  0  0  0  0  2  0  0  0  0  0  0
  181.1270  174.1320  136.8970 N   0  0  0  0  0  0  0  0  0  0  0  0
  187.0980  178.6240  140.0100 N   0  0  0  0  0  2  0  0  0  0  0  0
  185.6540  178.4180  140.1170 C   0  0  2  0  0  3  0  0  0  0  0  0
  185.7970  178.7160  142.6150 C   0  0  0  0  0  3  0  0  0  0  0  0
  182.7040  176.9920  140.2610 C   0  0  0  0  0  2  0  0  0  0  0  0
  181.7170  179.1970  142.8000 O   0  0  0  0  0  0  0  0  0  0  0  0
  186.7060  178.0800  145.4600 O   0  0  0  0  0  0  0  0  0  0  0  0
  183.6180  178.9470  141.4330 N   0  0  0  0  0  0  0  0  0  0  0  0
  185.1640  178.8590  143.7770 C   0  0  0  0  0  0  0  0  0  0  0  0
  179.9820  173.9170  136.0240 C   0  0  0  0  0  2  0  0  0  0  0  0
  180.1490  172.6230  135.2380 C   0  0  0  0  0  2  0  0  0  0  0  0
  181.6360  170.6190  135.2550 C   0  0  0  0  0  1  0  0  0  0  0  0
  180.7650  171.5310  136.0990 C   0  0  0  0  0  2  0  0  0  0  0  0
  1 10  1  0  0  0  0
  1 20  1  0  0  0  0
  2 24  1  6  0  0  0
  2 27  1  0  0  0  0
  3 11  1  0  0  0  0
  3  4  1  0  0  0  0
  4 21  1  0  0  0  0
  5 25  2  0  0  0  0
  5  6  1  0  0  0  0
  6 18  1  0  0  0  0
  7 19  1  6  0  0  0
  7 24  1  0  0  0  0
  8 17  1  0  0  0  0
  9 26  2  0  0  0  0
  9 15  1  0  0  0  0
 12  8  1  6  0  0  0
 12  2  1  0  0  0  0
 13 11  1  6  0  0  0
 13 12  1  0  0  0  0
 13 22  1  0  0  0  0
 14 27  1  0  0  0  0
 14 23  1  1  0  0  0
 16 19  1  0  0  0  0
 17 10  1  6  0  0  0
 17  7  1  0  0  0  0
 18 15  2  0  0  0  0
 20 16  1  0  0  0  0
 22 21  1  6  0  0  0
 22 14  1  0  0  0  0
 23 28  2  0  0  0  0
 27  5  1  0  0  0  0
 28  6  1  0  0  0  0
 28  9  1  0  0  0  0
 29 20  1  0  0  0  0
 30 29  1  0  0  0  0
 30 32  1  0  0  0  0
 31 32  1  0  0  0  0
M  END
>  <MODEL>
6

>  <REMARK>
 VINA RESULT:      -6.7      5.401     10.039
  Name = 
  3 active torsions:
  status: ('A' for Active; 'I' for Inactive)
    1  A    between atoms: C_1  and  C_10
    2  A    between atoms: C_1  and  C_20
    3  A    between atoms: C_10  and  N_24
                            x       y       z     vdW  Elec       q    Type
                         _______ _______ _______ _____ _____    ______ ____

>  <TORSDO>
F 3

$$$$
=
 OpenBabel10272413223D

 32 37  0  0  1  0  0  0  0  0999 V2000
  190.9130  173.8600  136.3940 C   0  0  0  0  0  2  0  0  0  0  0  0
  187.7780  177.8080  138.2090 C   0  0  1  0  0  3  0  0  0  0  0  0
  191.6190  177.2830  141.3420 C   0  0  0  0  0  2  0  0  0  0  0  0
  190.4960  177.0330  142.3500 C   0  0  0  0  0  2  0  0  0  0  0  0
  185.6160  178.7510  139.0700 C   0  0  0  0  0  0  0  0  0  0  0  0
  184.7990  178.9850  140.2130 N   0  0  0  0  0  0  0  0  0  0  0  0
  188.3590  175.6580  137.0540 C   0  0  1  0  0  3  0  0  0  0  0  0
  190.0900  177.4760  137.2180 C   0  0  0  0  0  2  0  0  0  0  0  0
  184.1220  178.4880  142.3270 C   0  0  0  0  0  0  0  0  0  0  0  0
  190.6950  175.3460  136.1040 C   0  0  0  0  0  2  0  0  0  0  0  0
  191.0760  177.1730  139.9210 C   0  0  0  0  0  2  0  0  0  0  0  0
  189.2720  178.1650  138.3180 C   0  0  2  0  0  3  0  0  0  0  0  0
  189.8650  178.0940  139.7520 C   0  0  1  0  0  3  0  0  0  0  0  0
  187.5780  178.6280  140.6390 C   0  0  2  0  0  3  0  0  0  0  0  0
  182.9560  178.6530  141.5230 N   0  0  0  0  0  0  0  0  0  0  0  0
  188.5490  173.5650  135.7240 C   0  0  0  0  0  2  0  0  0  0  0  0
  189.8590  175.9660  137.2150 C   0  0  2  0  0  3  0  0  0  0  0  0
  183.3720  178.9180  140.3160 C   0  0  0  0  0  3  0  0  0  0  0  0
  188.0780  174.1610  137.0420 C   0  0  0  0  0  2  0  0  0  0  0  0
  189.8840  172.9650  135.8360 N   0  0  0  0  0  0  0  0  0  0  0  0
  189.4190  178.0030  142.1550 N   0  0  0  0  0  2  0  0  0  0  0  0
  188.8270  177.7710  140.8370 C   0  0  2  0  0  3  0  0  0  0  0  0
  186.5630  178.4050  141.7430 C   0  0  0  0  0  3  0  0  0  0  0  0
  187.5710  176.2940  138.1930 C   0  0  0  0  0  2  0  0  0  0  0  0
  185.1280  178.7900  137.9080 O   0  0  0  0  0  0  0  0  0  0  0  0
  184.1100  178.1820  143.5480 O   0  0  0  0  0  0  0  0  0  0  0  0
  186.9960  178.4130  139.2920 N   0  0  0  0  0  0  0  0  0  0  0  0
  185.2840  178.6850  141.5020 C   0  0  0  0  0  0  0  0  0  0  0  0
  190.3090  172.6030  134.4920 C   0  0  0  0  0  2  0  0  0  0  0  0
  191.7880  172.2420  134.4820 C   0  0  0  0  0  2  0  0  0  0  0  0
  193.2520  170.4960  135.5000 C   0  0  0  0  0  1  0  0  0  0  0  0
  191.9920  170.7490  134.6930 C   0  0  0  0  0  2  0  0  0  0  0  0
  2 24  1  1  0  0  0
  2 12  1  0  0  0  0
  2 27  1  0  0  0  0
  3  4  1  0  0  0  0
  5 27  1  0  0  0  0
  5  6  1  0  0  0  0
  6 18  1  0  0  0  0
  6 28  1  0  0  0  0
  7 19  1  1  0  0  0
  7 17  1  0  0  0  0
  7 24  1  0  0  0  0
  9 26  2  0  0  0  0
 10  1  1  0  0  0  0
 11  3  1  0  0  0  0
 12  8  1  6  0  0  0
 12 13  1  0  0  0  0
 13 11  1  6  0  0  0
 13 22  1  0  0  0  0
 14 22  1  0  0  0  0
 14 23  1  1  0  0  0
 15  9  1  0  0  0  0
 16 20  1  0  0  0  0
 16 19  1  0  0  0  0
 17 10  1  6  0  0  0
 17  8  1  0  0  0  0
 18 15  2  0  0  0  0
 20  1  1  0  0  0  0
 21  4  1  0  0  0  0
 22 21  1  1  0  0  0
 25  5  2  0  0  0  0
 27 14  1  0  0  0  0
 28 23  2  0  0  0  0
 28  9  1  0  0  0  0
 29 20  1  0  0  0  0
 30 29  1  0  0  0  0
 30 32  1  0  0  0  0
 32 31  1  0  0  0  0
M  END
>  <MODEL>
7

>  <REMARK>
 VINA RESULT:      -6.3      3.811      8.925
  Name = 
  3 active torsions:
  status: ('A' for Active; 'I' for Inactive)
    1  A    between atoms: C_1  and  C_10
    2  A    between atoms: C_1  and  C_20
    3  A    between atoms: C_10  and  N_24
                            x       y       z     vdW  Elec       q    Type
                         _______ _______ _______ _____ _____    ______ ____

>  <TORSDO>
F 3

$$$$
=
 OpenBabel10272413223D

 32 37  0  0  1  0  0  0  0  0999 V2000
  186.2890  177.9060  139.9320 C   0  0  0  0  0  2  0  0  0  0  0  0
  191.1380  176.8550  137.9090 C   0  0  1  0  0  3  0  0  0  0  0  0
  187.8000  173.9940  135.5600 C   0  0  0  0  0  2  0  0  0  0  0  0
  188.6840  172.8720  136.1060 C   0  0  0  0  0  2  0  0  0  0  0  0
  193.5220  176.0810  138.0610 C   0  0  0  0  0  0  0  0  0  0  0  0
  194.4100  174.9680  138.0190 N   0  0  0  0  0  0  0  0  0  0  0  0
  189.4420  177.5020  139.6410 C   0  0  1  0  0  3  0  0  0  0  0  0
  188.9400  177.9130  137.2100 C   0  0  0  0  0  2  0  0  0  0  0  0
  194.8550  172.7510  138.2620 C   0  0  0  0  0  0  0  0  0  0  0  0
  187.2370  178.5270  138.9040 C   0  0  0  0  0  2  0  0  0  0  0  0
  188.1130  175.3020  136.2810 C   0  0  0  0  0  2  0  0  0  0  0  0
  190.0650  176.9510  136.8080 C   0  0  2  0  0  3  0  0  0  0  0  0
  189.6150  175.5920  136.2050 C   0  0  1  0  0  3  0  0  0  0  0  0
  191.8910  174.6850  136.7510 C   0  0  2  0  0  3  0  0  0  0  0  0
  195.8800  173.4780  138.9350 N   0  0  0  0  0  0  0  0  0  0  0  0
  188.0970  178.3010  141.5740 C   0  0  0  0  0  2  0  0  0  0  0  0
  188.3420  177.5350  138.5640 C   0  0  2  0  0  3  0  0  0  0  0  0
  195.5910  174.7420  138.7960 C   0  0  0  0  0  3  0  0  0  0  0  0
  188.8930  177.1320  141.0130 C   0  0  0  0  0  2  0  0  0  0  0  0
  186.6560  178.1520  141.3370 N   0  0  0  0  0  0  0  0  0  0  0  0
  190.0960  173.2100  135.9260 N   0  0  0  0  0  2  0  0  0  0  0  0
  190.3940  174.3840  136.7470 C   0  0  2  0  0  3  0  0  0  0  0  0
  192.7040  173.4840  137.1940 C   0  0  0  0  0  3  0  0  0  0  0  0
  190.5160  176.4910  139.2570 C   0  0  0  0  0  2  0  0  0  0  0  0
  193.8840  177.1770  138.5680 O   0  0  0  0  0  0  0  0  0  0  0  0
  194.7810  171.4940  138.2200 O   0  0  0  0  0  0  0  0  0  0  0  0
  192.1870  175.8920  137.5600 N   0  0  0  0  0  0  0  0  0  0  0  0
  193.9210  173.6860  137.6950 C   0  0  0  0  0  0  0  0  0  0  0  0
  186.0220  179.3980  141.7390 C   0  0  0  0  0  2  0  0  0  0  0  0
  184.8740  179.1230  142.7010 C   0  0  0  0  0  2  0  0  0  0  0  0
  184.5290  178.8480  145.1570 C   0  0  0  0  0  1  0  0  0  0  0  0
  185.3660  178.4300  143.9620 C   0  0  0  0  0  2  0  0  0  0  0  0
  1 20  1  0  0  0  0
  2 24  1  1  0  0  0
  3  4  1  0  0  0  0
  3 11  1  0  0  0  0
  5 25  2  0  0  0  0
  6  5  1  0  0  0  0
  6 18  1  0  0  0  0
  7 24  1  6  0  0  0
  7 19  1  0  0  0  0
  9 15  1  0  0  0  0
 10  1  1  0  0  0  0
 12  8  1  1  0  0  0
 12  2  1  0  0  0  0
 13 11  1  1  0  0  0
 13 22  1  0  0  0  0
 13 12  1  0  0  0  0
 14 23  1  1  0  0  0
 14 27  1  0  0  0  0
 17  8  1  6  0  0  0
 17 10  1  0  0  0  0
 17  7  1  0  0  0  0
 18 15  2  0  0  0  0
 19 16  1  0  0  0  0
 20 16  1  0  0  0  0
 20 29  1  0  0  0  0
 21  4  1  0  0  0  0
 22 21  1  6  0  0  0
 22 14  1  0  0  0  0
 23 28  2  0  0  0  0
 26  9  2  0  0  0  0
 27  2  1  0  0  0  0
 27  5  1  0  0  0  0
 28  6  1  0  0  0  0
 28  9  1  0  0  0  0
 29 30  1  0  0  0  0
 30 32  1  0  0  0  0
 32 31  1  0  0  0  0
M  END
>  <MODEL>
8

>  <REMARK>
 VINA RESULT:      -6.2      1.968      2.576
  Name = 
  3 active torsions:
  status: ('A' for Active; 'I' for Inactive)
    1  A    between atoms: C_1  and  C_10
    2  A    between atoms: C_1  and  C_20
    3  A    between atoms: C_10  and  N_24
                            x       y       z     vdW  Elec       q    Type
                         _______ _______ _______ _____ _____    ______ ____

>  <TORSDO>
F 3

$$$$
=
 OpenBabel10272413223D

 32 37  0  0  1  0  0  0  0  0999 V2000
  185.0660  176.2750  134.4210 C   0  0  0  0  0  2  0  0  0  0  0  0
  187.7780  178.2800  138.5860 C   0  0  1  0  0  3  0  0  0  0  0  0
  191.0290  176.1320  135.4770 C   0  0  0  0  0  2  0  0  0  0  0  0
  191.3490  175.2980  136.7180 C   0  0  0  0  0  2  0  0  0  0  0  0
  188.3510  178.4600  141.0240 C   0  0  0  0  0  0  0  0  0  0  0  0
  189.1350  177.9460  142.0960 N   0  0  0  0  0  0  0  0  0  0  0  0
  185.8470  177.2510  137.3600 C   0  0  1  0  0  3  0  0  0  0  0  0
  187.4900  178.6750  136.0950 C   0  0  0  0  0  2  0  0  0  0  0  0
  190.3050  176.2740  143.0980 C   0  0  0  0  0  0  0  0  0  0  0  0
  185.6070  177.6370  134.8590 C   0  0  0  0  0  2  0  0  0  0  0  0
  189.7060  176.8660  135.6710 C   0  0  0  0  0  2  0  0  0  0  0  0
  188.4930  178.5530  137.2480 C   0  0  2  0  0  3  0  0  0  0  0  0
  189.7400  177.6680  136.9750 C   0  0  1  0  0  3  0  0  0  0  0  0
  190.0680  177.4980  139.4580 C   0  0  2  0  0  3  0  0  0  0  0  0
  189.4360  176.8430  144.0740 N   0  0  0  0  0  0  0  0  0  0  0  0
  183.6980  176.3560  136.4820 C   0  0  0  0  0  2  0  0  0  0  0  0
  186.5770  177.4520  136.0190 C   0  0  2  0  0  3  0  0  0  0  0  0
  188.7650  177.7840  143.4700 C   0  0  0  0  0  3  0  0  0  0  0  0
  184.9200  176.0420  137.3330 C   0  0  0  0  0  2  0  0  0  0  0  0
  183.8360  175.8500  135.1110 N   0  0  0  0  0  0  0  0  0  0  0  0
  191.4290  176.1590  137.8980 N   0  0  0  0  0  2  0  0  0  0  0  0
  190.1040  176.7320  138.1370 C   0  0  2  0  0  3  0  0  0  0  0  0
  190.5100  176.6320  140.6220 C   0  0  0  0  0  3  0  0  0  0  0  0
  186.8600  177.0630  138.4820 C   0  0  0  0  0  2  0  0  0  0  0  0
  187.3290  179.1620  141.2490 O   0  0  0  0  0  0  0  0  0  0  0  0
  191.0810  175.3040  143.3110 O   0  0  0  0  0  0  0  0  0  0  0  0
  188.7330  178.1030  139.6830 N   0  0  0  0  0  0  0  0  0  0  0  0
  190.1090  176.9580  141.8480 C   0  0  0  0  0  0  0  0  0  0  0  0
  182.7100  176.3670  134.3460 C   0  0  0  0  0  2  0  0  0  0  0  0
  181.8220  177.2340  135.2290 C   0  0  0  0  0  2  0  0  0  0  0  0
  180.0210  176.2660  136.6580 C   0  0  0  0  0  1  0  0  0  0  0  0
  180.3940  176.7120  135.2560 C   0  0  0  0  0  2  0  0  0  0  0  0
  1 10  1  0  0  0  0
  1 20  1  0  0  0  0
  2 24  1  6  0  0  0
  2 27  1  0  0  0  0
  3 11  1  0  0  0  0
  3  4  1  0  0  0  0
  4 21  1  0  0  0  0
  5 25  2  0  0  0  0
  5  6  1  0  0  0  0
  6 18  1  0  0  0  0
  7 19  1  6  0  0  0
  7 24  1  0  0  0  0
  9 26  2  0  0  0  0
  9 15  1  0  0  0  0
 12  8  1  6  0  0  0
 12  2  1  0  0  0  0
 13 11  1  6  0  0  0
 13 12  1  0  0  0  0
 13 22  1  0  0  0  0
 14 27  1  0  0  0  0
 14 23  1  1  0  0  0
 16 19  1  0  0  0  0
 17 10  1  6  0  0  0
 17  8  1  0  0  0  0
 17  7  1  0  0  0  0
 18 15  2  0  0  0  0
 20 16  1  0  0  0  0
 22 21  1  6  0  0  0
 22 14  1  0  0  0  0
 23 28  2  0  0  0  0
 27  5  1  0  0  0  0
 28  6  1  0  0  0  0
 28  9  1  0  0  0  0
 29 20  1  0  0  0  0
 29 30  1  0  0  0  0
 30 32  1  0  0  0  0
 32 31  1  0  0  0  0
M  END
>  <MODEL>
9

>  <REMARK>
 VINA RESULT:      -6.1      3.174      7.375
  Name = 
  3 active torsions:
  status: ('A' for Active; 'I' for Inactive)
    1  A    between atoms: C_1  and  C_10
    2  A    between atoms: C_1  and  C_20
    3  A    between atoms: C_10  and  N_24
                            x       y       z     vdW  Elec       q    Type
                         _______ _______ _______ _____ _____    ______ ____

>  <TORSDO>
F 3

$$$$
