=
 OpenBabel10272401493D

 28 31  0  0  1  0  0  0  0  0999 V2000
  188.2480  177.8530  144.5180 C   0  0  2  0  0  3  0  0  0  0  0  0
  184.0950  178.7200  143.5610 C   0  0  0  0  0  1  0  0  0  0  0  0
  188.3350  177.7610  140.6550 C   0  0  1  0  0  3  0  0  0  0  0  0
  186.4310  178.0960  142.7840 C   0  0  0  0  0  0  0  0  0  0  0  0
  188.8640  177.9680  142.0690 C   0  0  0  0  0  2  0  0  0  0  0  0
  185.8790  178.2670  145.2140 C   0  0  0  0  0  2  0  0  0  0  0  0
  186.1220  178.5320  141.5440 C   0  0  0  0  0  3  0  0  0  0  0  0
  185.3500  177.9010  143.8290 C   0  0  1  0  0  3  0  0  0  0  0  0
  187.1530  178.7100  140.4630 C   0  0  0  0  0  2  0  0  0  0  0  0
  187.1560  177.4980  145.5280 C   0  0  0  0  0  2  0  0  0  0  0  0
  187.8080  177.5210  143.0830 C   0  0  1  0  0  3  0  0  0  0  0  0
  188.9440  178.8150  138.3930 C   0  0  0  0  0  2  0  0  0  0  0  0
  189.7820  176.0980  137.8570 C   0  0  0  0  0  2  0  0  0  0  0  0
  187.4470  176.9930  137.4020 C   0  0  0  0  0  0  0  0  0  0  0  0
  189.4340  178.0150  139.6090 C   0  0  2  0  0  3  0  0  0  0  0  0
  190.9650  176.2350  139.8800 O   0  0  0  0  0  0  0  0  0  0  0  0
  188.2920  175.8090  137.7980 C   0  0  0  0  0  2  0  0  0  0  0  0
  190.1140  176.7420  139.1680 C   0  0  0  0  0  0  0  0  0  0  0  0
  186.1590  176.7030  136.7160 C   0  0  0  0  0  1  0  0  0  0  0  0
  187.7020  178.2750  137.7270 C   0  0  0  0  0  3  0  0  0  0  0  0
  189.5410  177.1730  144.8830 C   0  0  0  0  0  0  0  0  0  0  0  0
  190.2480  176.4460  143.9120 C   0  0  0  0  0  3  0  0  0  0  0  0
  191.2800  176.6510  146.5040 C   0  0  0  0  0  0  0  0  0  0  0  0
  191.4570  175.8250  144.2340 C   0  0  0  0  0  3  0  0  0  0  0  0
  189.3370  178.0510  147.2440 C   0  0  0  0  0  1  0  0  0  0  0  0
  190.0630  177.2770  146.1890 C   0  0  0  0  0  0  0  0  0  0  0  0
  191.8130  176.7410  147.7860 O   0  0  0  0  0  1  0  0  0  0  0  0
  191.9710  175.9280  145.5270 C   0  0  0  0  0  3  0  0  0  0  0  0
  1 21  1  1  0  0  0
  1 10  1  0  0  0  0
  3  9  1  6  0  0  0
  3  5  1  0  0  0  0
  4 11  1  0  0  0  0
  4  8  1  0  0  0  0
  6 10  1  0  0  0  0
  7  4  2  0  0  0  0
  8  2  1  6  0  0  0
  8  6  1  0  0  0  0
  9  7  1  0  0  0  0
 11  5  1  6  0  0  0
 11  1  1  0  0  0  0
 13 18  1  0  0  0  0
 14 20  2  0  0  0  0
 14 17  1  0  0  0  0
 15 12  1  6  0  0  0
 15  3  1  0  0  0  0
 17 13  1  0  0  0  0
 18 15  1  0  0  0  0
 18 16  2  0  0  0  0
 19 14  1  0  0  0  0
 20 12  1  0  0  0  0
 21 26  1  0  0  0  0
 22 24  1  0  0  0  0
 22 21  2  0  0  0  0
 23 27  1  0  0  0  0
 24 28  2  0  0  0  0
 26 23  2  0  0  0  0
 26 25  1  0  0  0  0
 28 23  1  0  0  0  0
M  END
>  <MODEL>
1

>  <REMARK>
 VINA RESULT:     -10.5      0.000      0.000
  Name = 
  2 active torsions:
  status: ('A' for Active; 'I' for Inactive)
    1  A    between atoms: C_1  and  C_2
    2  A    between atoms: C_10  and  C_13
                            x       y       z     vdW  Elec       q    Type
                         _______ _______ _______ _____ _____    ______ ____

>  <TORSDO>
F 2

$$$$
=
 OpenBabel10272401493D

 28 31  0  0  1  0  0  0  0  0999 V2000
  188.4610  177.9910  142.8050 C   0  0  2  0  0  3  0  0  0  0  0  0
  185.8820  177.8390  146.3040 C   0  0  0  0  0  1  0  0  0  0  0  0
  184.9870  178.5420  141.2000 C   0  0  1  0  0  3  0  0  0  0  0  0
  186.1340  178.0050  143.7830 C   0  0  0  0  0  0  0  0  0  0  0  0
  186.4990  178.6570  141.3560 C   0  0  0  0  0  2  0  0  0  0  0  0
  188.1150  177.6310  145.2580 C   0  0  0  0  0  2  0  0  0  0  0  0
  184.8940  178.5320  143.7050 C   0  0  0  0  0  3  0  0  0  0  0  0
  186.6240  177.3590  145.0650 C   0  0  1  0  0  3  0  0  0  0  0  0
  184.3490  179.1530  142.4470 C   0  0  0  0  0  2  0  0  0  0  0  0
  188.9090  177.1970  144.0320 C   0  0  0  0  0  2  0  0  0  0  0  0
  186.9630  177.7850  142.5250 C   0  0  1  0  0  3  0  0  0  0  0  0
  182.9790  179.3900  139.8420 C   0  0  0  0  0  2  0  0  0  0  0  0
  184.1910  177.6960  137.8330 C   0  0  0  0  0  2  0  0  0  0  0  0
  182.4500  176.9090  139.5110 C   0  0  0  0  0  0  0  0  0  0  0  0
  184.5060  179.2480  139.9210 C   0  0  2  0  0  3  0  0  0  0  0  0
  186.1890  178.8290  138.3170 O   0  0  0  0  0  0  0  0  0  0  0  0
  183.6670  176.5580  138.6920 C   0  0  0  0  0  2  0  0  0  0  0  0
  185.0440  178.6000  138.6690 C   0  0  0  0  0  0  0  0  0  0  0  0
  181.5220  175.7970  139.8490 C   0  0  0  0  0  1  0  0  0  0  0  0
  182.2030  178.1130  140.0600 C   0  0  0  0  0  3  0  0  0  0  0  0
  189.3110  177.6390  141.6130 C   0  0  0  0  0  0  0  0  0  0  0  0
  188.7020  177.2890  140.3980 C   0  0  0  0  0  3  0  0  0  0  0  0
  191.4930  177.3640  140.5690 C   0  0  0  0  0  0  0  0  0  0  0  0
  189.4790  176.9760  139.2810 C   0  0  0  0  0  3  0  0  0  0  0  0
  191.3960  178.0550  142.9780 C   0  0  0  0  0  1  0  0  0  0  0  0
  190.7180  177.6790  141.6980 C   0  0  0  0  0  0  0  0  0  0  0  0
  192.8820  177.3980  140.6320 O   0  0  0  0  0  1  0  0  0  0  0  0
  190.8710  177.0150  139.3680 C   0  0  0  0  0  3  0  0  0  0  0  0
  1 21  1  6  0  0  0
  1 10  1  0  0  0  0
  3  5  1  1  0  0  0
  3  9  1  0  0  0  0
  4  8  1  0  0  0  0
  7  4  2  0  0  0  0
  8  6  1  0  0  0  0
  8  2  1  1  0  0  0
  9  7  1  0  0  0  0
 10  6  1  0  0  0  0
 11  5  1  6  0  0  0
 11  1  1  0  0  0  0
 11  4  1  0  0  0  0
 12 20  1  0  0  0  0
 13 18  1  0  0  0  0
 13 17  1  0  0  0  0
 14 19  1  0  0  0  0
 14 20  2  0  0  0  0
 15 12  1  6  0  0  0
 15  3  1  0  0  0  0
 16 18  2  0  0  0  0
 17 14  1  0  0  0  0
 18 15  1  0  0  0  0
 21 26  1  0  0  0  0
 22 21  2  0  0  0  0
 23 27  1  0  0  0  0
 23 26  2  0  0  0  0
 24 28  2  0  0  0  0
 24 22  1  0  0  0  0
 26 25  1  0  0  0  0
 28 23  1  0  0  0  0
M  END
>  <MODEL>
2

>  <REMARK>
 VINA RESULT:     -10.1      2.464      4.532
  Name = 
  2 active torsions:
  status: ('A' for Active; 'I' for Inactive)
    1  A    between atoms: C_1  and  C_2
    2  A    between atoms: C_10  and  C_13
                            x       y       z     vdW  Elec       q    Type
                         _______ _______ _______ _____ _____    ______ ____

>  <TORSDO>
F 2

$$$$
=
 OpenBabel10272401493D

 28 31  0  0  1  0  0  0  0  0999 V2000
  187.7940  177.8720  143.8030 C   0  0  2  0  0  3  0  0  0  0  0  0
  183.5870  178.9060  143.4200 C   0  0  0  0  0  1  0  0  0  0  0  0
  187.4050  178.0150  139.9600 C   0  0  1  0  0  3  0  0  0  0  0  0
  185.7880  178.2700  142.3250 C   0  0  0  0  0  0  0  0  0  0  0  0
  188.1110  178.1210  141.3070 C   0  0  0  0  0  2  0  0  0  0  0  0
  185.5440  178.3050  144.8100 C   0  0  0  0  0  2  0  0  0  0  0  0
  185.3450  178.7890  141.1600 C   0  0  0  0  0  3  0  0  0  0  0  0
  184.8370  178.0390  143.4830 C   0  0  1  0  0  3  0  0  0  0  0  0
  186.2420  179.0050  139.9710 C   0  0  0  0  0  2  0  0  0  0  0  0
  186.8230  177.4840  144.9190 C   0  0  0  0  0  2  0  0  0  0  0  0
  187.1720  177.6410  142.4170 C   0  0  1  0  0  3  0  0  0  0  0  0
  187.6700  178.7350  137.5090 C   0  0  0  0  0  2  0  0  0  0  0  0
  189.0900  176.2170  137.3880 C   0  0  0  0  0  2  0  0  0  0  0  0
  186.5960  176.4770  136.9710 C   0  0  0  0  0  0  0  0  0  0  0  0
  188.3770  178.3040  138.8020 C   0  0  2  0  0  3  0  0  0  0  0  0
  190.2840  176.9860  139.2570 O   0  0  0  0  0  0  0  0  0  0  0  0
  187.7050  175.6020  137.4990 C   0  0  0  0  0  2  0  0  0  0  0  0
  189.3140  177.1520  138.5370 C   0  0  0  0  0  0  0  0  0  0  0  0
  185.3840  175.7890  136.4490 C   0  0  0  0  0  1  0  0  0  0  0  0
  186.5610  177.8210  137.0470 C   0  0  0  0  0  3  0  0  0  0  0  0
  189.0990  177.1370  143.9650 C   0  0  0  0  0  0  0  0  0  0  0  0
  189.5270  176.2430  142.9710 C   0  0  0  0  0  3  0  0  0  0  0  0
  191.1310  176.6720  145.2220 C   0  0  0  0  0  0  0  0  0  0  0  0
  190.7420  175.5680  143.1010 C   0  0  0  0  0  3  0  0  0  0  0  0
  189.4830  178.3050  146.1720 C   0  0  0  0  0  1  0  0  0  0  0  0
  189.9090  177.3540  145.0990 C   0  0  0  0  0  0  0  0  0  0  0  0
  191.9450  176.8720  146.3320 O   0  0  0  0  0  1  0  0  0  0  0  0
  191.5420  175.7830  144.2250 C   0  0  0  0  0  3  0  0  0  0  0  0
  1 21  1  6  0  0  0
  1 10  1  0  0  0  0
  3  9  1  1  0  0  0
  3  5  1  0  0  0  0
  4 11  1  0  0  0  0
  4  8  1  0  0  0  0
  6 10  1  0  0  0  0
  7  4  2  0  0  0  0
  8  2  1  6  0  0  0
  8  6  1  0  0  0  0
  9  7  1  0  0  0  0
 11  5  1  6  0  0  0
 11  1  1  0  0  0  0
 13 17  1  0  0  0  0
 13 18  1  0  0  0  0
 14 20  2  0  0  0  0
 14 17  1  0  0  0  0
 15 12  1  6  0  0  0
 15  3  1  0  0  0  0
 18 15  1  0  0  0  0
 18 16  2  0  0  0  0
 19 14  1  0  0  0  0
 20 12  1  0  0  0  0
 21 26  1  0  0  0  0
 22 24  1  0  0  0  0
 22 21  2  0  0  0  0
 23 27  1  0  0  0  0
 24 28  2  0  0  0  0
 26 23  2  0  0  0  0
 26 25  1  0  0  0  0
 28 23  1  0  0  0  0
M  END
>  <MODEL>
3

>  <REMARK>
 VINA RESULT:      -9.8      0.932      1.094
  Name = 
  2 active torsions:
  status: ('A' for Active; 'I' for Inactive)
    1  A    between atoms: C_1  and  C_2
    2  A    between atoms: C_10  and  C_13
                            x       y       z     vdW  Elec       q    Type
                         _______ _______ _______ _____ _____    ______ ____

>  <TORSDO>
F 2

$$$$
=
 OpenBabel10272401493D

 28 31  0  0  1  0  0  0  0  0999 V2000
  184.2430  178.3870  142.9540 C   0  0  2  0  0  3  0  0  0  0  0  0
  185.1030  178.6490  147.2090 C   0  0  0  0  0  1  0  0  0  0  0  0
  188.0080  177.5110  143.0130 C   0  0  1  0  0  3  0  0  0  0  0  0
  185.9270  178.3090  144.8320 C   0  0  0  0  0  0  0  0  0  0  0  0
  186.5680  177.4980  142.5120 C   0  0  0  0  0  2  0  0  0  0  0  0
  183.5490  178.9100  145.3010 C   0  0  0  0  0  2  0  0  0  0  0  0
  187.0330  177.7050  145.3140 C   0  0  0  0  0  3  0  0  0  0  0  0
  184.9980  179.0770  145.7520 C   0  0  1  0  0  3  0  0  0  0  0  0
  188.0040  176.9600  144.4380 C   0  0  0  0  0  2  0  0  0  0  0  0
  183.3870  179.2960  143.8360 C   0  0  0  0  0  2  0  0  0  0  0  0
  185.7300  178.4820  143.3320 C   0  0  1  0  0  3  0  0  0  0  0  0
  189.6480  175.5440  142.8230 C   0  0  0  0  0  2  0  0  0  0  0  0
  191.3390  177.6370  141.7600 C   0  0  0  0  0  2  0  0  0  0  0  0
  191.2090  177.0120  144.2210 C   0  0  0  0  0  0  0  0  0  0  0  0
  188.9220  176.6830  142.0930 C   0  0  2  0  0  3  0  0  0  0  0  0
  189.5360  178.1550  140.3500 O   0  0  0  0  0  0  0  0  0  0  0  0
  191.4110  178.1070  143.2030 C   0  0  0  0  0  2  0  0  0  0  0  0
  189.9060  177.5410  141.3360 C   0  0  0  0  0  0  0  0  0  0  0  0
  191.8620  177.1940  145.5450 C   0  0  0  0  0  1  0  0  0  0  0  0
  190.3910  175.9520  144.0720 C   0  0  0  0  0  3  0  0  0  0  0  0
  184.0100  178.6970  141.4990 C   0  0  0  0  0  0  0  0  0  0  0  0
  185.0960  179.0190  140.6690 C   0  0  0  0  0  3  0  0  0  0  0  0
  182.5170  178.9240  139.5900 C   0  0  0  0  0  0  0  0  0  0  0  0
  184.8950  179.2930  139.3150 C   0  0  0  0  0  3  0  0  0  0  0  0
  181.5340  178.3020  141.8110 C   0  0  0  0  0  1  0  0  0  0  0  0
  182.7100  178.6480  140.9530 C   0  0  0  0  0  0  0  0  0  0  0  0
  181.2430  178.8800  139.0320 O   0  0  0  0  0  1  0  0  0  0  0  0
  183.6080  179.2450  138.7770 C   0  0  0  0  0  3  0  0  0  0  0  0
  1 21  1  6  0  0  0
  1 11  1  0  0  0  0
  1 10  1  0  0  0  0
  3  5  1  6  0  0  0
  3  9  1  0  0  0  0
  4  7  2  0  0  0  0
  4  8  1  0  0  0  0
  6  8  1  0  0  0  0
  8  2  1  1  0  0  0
  9  7  1  0  0  0  0
 10  6  1  0  0  0  0
 11  5  1  6  0  0  0
 11  4  1  0  0  0  0
 12 20  1  0  0  0  0
 13 17  1  0  0  0  0
 14 19  1  0  0  0  0
 15 12  1  1  0  0  0
 15  3  1  0  0  0  0
 16 18  2  0  0  0  0
 17 14  1  0  0  0  0
 18 13  1  0  0  0  0
 18 15  1  0  0  0  0
 20 14  2  0  0  0  0
 22 21  2  0  0  0  0
 23 26  2  0  0  0  0
 24 22  1  0  0  0  0
 26 21  1  0  0  0  0
 26 25  1  0  0  0  0
 27 23  1  0  0  0  0
 28 24  2  0  0  0  0
 28 23  1  0  0  0  0
M  END
>  <MODEL>
4

>  <REMARK>
 VINA RESULT:      -9.5      2.704      6.682
  Name = 
  2 active torsions:
  status: ('A' for Active; 'I' for Inactive)
    1  A    between atoms: C_1  and  C_2
    2  A    between atoms: C_10  and  C_13
                            x       y       z     vdW  Elec       q    Type
                         _______ _______ _______ _____ _____    ______ ____

>  <TORSDO>
F 2

$$$$
=
 OpenBabel10272401493D

 28 31  0  0  1  0  0  0  0  0999 V2000
  186.1490  178.4720  144.1240 C   0  0  2  0  0  3  0  0  0  0  0  0
  182.5910  178.7910  141.6420 C   0  0  0  0  0  1  0  0  0  0  0  0
  187.6540  178.0130  140.5940 C   0  0  1  0  0  3  0  0  0  0  0  0
  185.0840  178.3490  141.8390 C   0  0  0  0  0  0  0  0  0  0  0  0
  187.6130  178.4130  142.0640 C   0  0  0  0  0  2  0  0  0  0  0  0
  183.6690  178.6960  143.8680 C   0  0  0  0  0  2  0  0  0  0  0  0
  185.2250  178.6260  140.5260 C   0  0  0  0  0  3  0  0  0  0  0  0
  183.7090  178.1410  142.4460 C   0  0  1  0  0  3  0  0  0  0  0  0
  186.5670  178.8070  139.8700 C   0  0  0  0  0  2  0  0  0  0  0  0
  184.7880  178.1030  144.7150 C   0  0  0  0  0  2  0  0  0  0  0  0
  186.2890  177.9570  142.6830 C   0  0  1  0  0  3  0  0  0  0  0  0
  188.9830  178.8970  138.5810 C   0  0  0  0  0  2  0  0  0  0  0  0
  190.1350  176.2480  138.7450 C   0  0  0  0  0  2  0  0  0  0  0  0
  188.0780  176.8330  137.3710 C   0  0  0  0  0  0  0  0  0  0  0  0
  189.0430  178.2810  139.9860 C   0  0  2  0  0  3  0  0  0  0  0  0
  190.4790  176.7150  141.0200 O   0  0  0  0  0  0  0  0  0  0  0  0
  188.7940  175.7930  138.1970 C   0  0  0  0  0  2  0  0  0  0  0  0
  189.9190  177.0530  139.9900 C   0  0  0  0  0  0  0  0  0  0  0  0
  187.1550  176.3360  136.3150 C   0  0  0  0  0  1  0  0  0  0  0  0
  188.1110  178.1610  137.5930 C   0  0  0  0  0  3  0  0  0  0  0  0
  187.2580  177.9750  145.0120 C   0  0  0  0  0  0  0  0  0  0  0  0
  188.3880  177.3640  144.4450 C   0  0  0  0  0  3  0  0  0  0  0  0
  188.2390  177.6800  147.2200 C   0  0  0  0  0  0  0  0  0  0  0  0
  189.4310  176.9130  145.2560 C   0  0  0  0  0  3  0  0  0  0  0  0
  185.9970  178.7880  147.0450 C   0  0  0  0  0  1  0  0  0  0  0  0
  187.1850  178.1350  146.4110 C   0  0  0  0  0  0  0  0  0  0  0  0
  188.1860  177.8290  148.6020 O   0  0  0  0  0  1  0  0  0  0  0  0
  189.3560  177.0720  146.6410 C   0  0  0  0  0  3  0  0  0  0  0  0
  1 10  1  0  0  0  0
  1 21  1  1  0  0  0
  3  9  1  6  0  0  0
  3  5  1  0  0  0  0
  4  8  1  0  0  0  0
  4 11  1  0  0  0  0
  6 10  1  0  0  0  0
  7  4  2  0  0  0  0
  8  2  1  6  0  0  0
  8  6  1  0  0  0  0
  9  7  1  0  0  0  0
 11  5  1  6  0  0  0
 11  1  1  0  0  0  0
 13 18  1  0  0  0  0
 14 20  2  0  0  0  0
 14 17  1  0  0  0  0
 15 12  1  6  0  0  0
 15 18  1  0  0  0  0
 15  3  1  0  0  0  0
 17 13  1  0  0  0  0
 18 16  2  0  0  0  0
 19 14  1  0  0  0  0
 20 12  1  0  0  0  0
 21 26  1  0  0  0  0
 22 21  2  0  0  0  0
 22 24  1  0  0  0  0
 23 27  1  0  0  0  0
 24 28  2  0  0  0  0
 26 25  1  0  0  0  0
 26 23  2  0  0  0  0
 28 23  1  0  0  0  0
M  END
>  <MODEL>
5

>  <REMARK>
 VINA RESULT:      -9.1      1.377      2.056
  Name = 
  2 active torsions:
  status: ('A' for Active; 'I' for Inactive)
    1  A    between atoms: C_1  and  C_2
    2  A    between atoms: C_10  and  C_13
                            x       y       z     vdW  Elec       q    Type
                         _______ _______ _______ _____ _____    ______ ____

>  <TORSDO>
F 2

$$$$
=
 OpenBabel10272401493D

 28 31  0  0  1  0  0  0  0  0999 V2000
  184.7520  178.6590  142.1250 C   0  0  2  0  0  3  0  0  0  0  0  0
  182.2260  178.4640  138.5890 C   0  0  0  0  0  1  0  0  0  0  0  0
  187.3880  178.1200  139.3490 C   0  0  1  0  0  3  0  0  0  0  0  0
  184.5310  178.2830  139.6390 C   0  0  0  0  0  0  0  0  0  0  0  0
  186.8250  178.6090  140.6790 C   0  0  0  0  0  2  0  0  0  0  0  0
  182.4940  178.6220  141.0440 C   0  0  0  0  0  2  0  0  0  0  0  0
  185.0870  178.4860  138.4260 C   0  0  0  0  0  3  0  0  0  0  0  0
  183.0510  177.9820  139.7740 C   0  0  1  0  0  3  0  0  0  0  0  0
  186.5550  178.7540  138.2360 C   0  0  0  0  0  2  0  0  0  0  0  0
  183.3010  178.1980  142.2650 C   0  0  0  0  0  2  0  0  0  0  0  0
  185.4060  178.0670  140.8660 C   0  0  1  0  0  3  0  0  0  0  0  0
  189.2740  178.8940  137.7860 C   0  0  0  0  0  2  0  0  0  0  0  0
  190.4880  176.4610  138.7770 C   0  0  0  0  0  2  0  0  0  0  0  0
  189.0130  176.5880  136.7100 C   0  0  0  0  0  0  0  0  0  0  0  0
  188.8770  178.4820  139.2120 C   0  0  2  0  0  3  0  0  0  0  0  0
  189.9660  177.2650  140.9200 O   0  0  0  0  0  0  0  0  0  0  0  0
  189.4660  175.7680  137.8920 C   0  0  0  0  0  2  0  0  0  0  0  0
  189.7840  177.3880  139.7200 C   0  0  0  0  0  0  0  0  0  0  0  0
  188.5650  175.8410  135.5040 C   0  0  0  0  0  1  0  0  0  0  0  0
  188.8670  177.9260  136.7010 C   0  0  0  0  0  3  0  0  0  0  0  0
  185.5290  178.3320  143.3720 C   0  0  0  0  0  0  0  0  0  0  0  0
  186.7340  177.6170  143.2790 C   0  0  0  0  0  3  0  0  0  0  0  0
  185.8200  178.4560  145.7850 C   0  0  0  0  0  0  0  0  0  0  0  0
  187.4720  177.3210  144.4260 C   0  0  0  0  0  3  0  0  0  0  0  0
  183.7940  179.5250  144.7680 C   0  0  0  0  0  1  0  0  0  0  0  0
  185.0700  178.7560  144.6360 C   0  0  0  0  0  0  0  0  0  0  0  0
  185.3850  178.8650  147.0420 O   0  0  0  0  0  1  0  0  0  0  0  0
  187.0160  177.7410  145.6760 C   0  0  0  0  0  3  0  0  0  0  0  0
  1 10  1  0  0  0  0
  1 21  1  1  0  0  0
  3  9  1  6  0  0  0
  3  5  1  0  0  0  0
  4  8  1  0  0  0  0
  4 11  1  0  0  0  0
  6 10  1  0  0  0  0
  7  4  2  0  0  0  0
  8  2  1  6  0  0  0
  8  6  1  0  0  0  0
  9  7  1  0  0  0  0
 11  5  1  6  0  0  0
 11  1  1  0  0  0  0
 13 18  1  0  0  0  0
 14 17  1  0  0  0  0
 15 12  1  6  0  0  0
 15  3  1  0  0  0  0
 15 18  1  0  0  0  0
 17 13  1  0  0  0  0
 18 16  2  0  0  0  0
 19 14  1  0  0  0  0
 20 14  2  0  0  0  0
 20 12  1  0  0  0  0
 21 26  1  0  0  0  0
 22 21  2  0  0  0  0
 22 24  1  0  0  0  0
 23 27  1  0  0  0  0
 24 28  2  0  0  0  0
 26 25  1  0  0  0  0
 26 23  2  0  0  0  0
 28 23  1  0  0  0  0
M  END
>  <MODEL>
6

>  <REMARK>
 VINA RESULT:      -8.7      2.476      3.889
  Name = 
  2 active torsions:
  status: ('A' for Active; 'I' for Inactive)
    1  A    between atoms: C_1  and  C_2
    2  A    between atoms: C_10  and  C_13
                            x       y       z     vdW  Elec       q    Type
                         _______ _______ _______ _____ _____    ______ ____

>  <TORSDO>
F 2

$$$$
=
 OpenBabel10272401493D

 28 31  0  0  1  0  0  0  0  0999 V2000
  186.3780  178.0380  141.5410 C   0  0  2  0  0  3  0  0  0  0  0  0
  187.7650  178.1390  137.4200 C   0  0  0  0  0  1  0  0  0  0  0  0
  183.0440  178.5000  139.6390 C   0  0  1  0  0  3  0  0  0  0  0  0
  185.8630  178.3470  139.0900 C   0  0  0  0  0  0  0  0  0  0  0  0
  183.9730  178.0470  140.7600 C   0  0  0  0  0  2  0  0  0  0  0  0
  188.2230  178.0480  139.8500 C   0  0  0  0  0  2  0  0  0  0  0  0
  184.9810  178.1110  138.0960 C   0  0  0  0  0  3  0  0  0  0  0  0
  187.3160  178.6530  138.7810 C   0  0  1  0  0  3  0  0  0  0  0  0
  183.5230  177.8360  138.3490 C   0  0  0  0  0  2  0  0  0  0  0  0
  187.8020  178.5050  141.2420 C   0  0  0  0  0  2  0  0  0  0  0  0
  185.3810  178.5960  140.5120 C   0  0  1  0  0  3  0  0  0  0  0  0
  180.7080  178.0040  138.6940 C   0  0  0  0  0  2  0  0  0  0  0  0
  180.0100  180.1560  140.4980 C   0  0  0  0  0  2  0  0  0  0  0  0
  180.6880  180.4850  138.0700 C   0  0  0  0  0  0  0  0  0  0  0  0
  181.5820  178.1330  139.9500 C   0  0  2  0  0  3  0  0  0  0  0  0
  181.1930  178.9530  142.1310 O   0  0  0  0  0  0  0  0  0  0  0  0
  180.7000  181.0390  139.4730 C   0  0  0  0  0  2  0  0  0  0  0  0
  180.9510  179.0780  140.9420 C   0  0  0  0  0  0  0  0  0  0  0  0
  180.7320  181.4700  136.9560 C   0  0  0  0  0  1  0  0  0  0  0  0
  180.7640  179.1800  137.7480 C   0  0  0  0  0  3  0  0  0  0  0  0
  185.9930  178.3990  142.9520 C   0  0  0  0  0  0  0  0  0  0  0  0
  185.0470  179.4100  143.1830 C   0  0  0  0  0  3  0  0  0  0  0  0
  186.1740  178.0550  145.3550 C   0  0  0  0  0  0  0  0  0  0  0  0
  184.6700  179.7430  144.4850 C   0  0  0  0  0  3  0  0  0  0  0  0
  187.5660  176.6290  143.8330 C   0  0  0  0  0  1  0  0  0  0  0  0
  186.5600  177.7150  144.0480 C   0  0  0  0  0  0  0  0  0  0  0  0
  186.7200  177.3920  146.4490 O   0  0  0  0  0  1  0  0  0  0  0  0
  185.2330  179.0650  145.5680 C   0  0  0  0  0  3  0  0  0  0  0  0
  1 21  1  1  0  0  0
  3  9  1  6  0  0  0
  3 15  1  0  0  0  0
  3  5  1  0  0  0  0
  4 11  1  0  0  0  0
  6 10  1  0  0  0  0
  7  9  1  0  0  0  0
  7  4  2  0  0  0  0
  8  2  1  6  0  0  0
  8  4  1  0  0  0  0
  8  6  1  0  0  0  0
 10  1  1  0  0  0  0
 11  5  1  6  0  0  0
 11  1  1  0  0  0  0
 13 18  1  0  0  0  0
 14 17  1  0  0  0  0
 15 12  1  6  0  0  0
 15 18  1  0  0  0  0
 17 13  1  0  0  0  0
 18 16  2  0  0  0  0
 19 14  1  0  0  0  0
 20 14  2  0  0  0  0
 20 12  1  0  0  0  0
 21 22  2  0  0  0  0
 21 26  1  0  0  0  0
 22 24  1  0  0  0  0
 23 28  1  0  0  0  0
 23 27  1  0  0  0  0
 24 28  2  0  0  0  0
 25 26  1  0  0  0  0
 26 23  2  0  0  0  0
M  END
>  <MODEL>
7

>  <REMARK>
 VINA RESULT:      -8.6      4.032      6.606
  Name = 
  2 active torsions:
  status: ('A' for Active; 'I' for Inactive)
    1  A    between atoms: C_1  and  C_2
    2  A    between atoms: C_10  and  C_13
                            x       y       z     vdW  Elec       q    Type
                         _______ _______ _______ _____ _____    ______ ____

>  <TORSDO>
F 2

$$$$
=
 OpenBabel10272401493D

 28 31  0  0  1  0  0  0  0  0999 V2000
  190.0200  176.3010  136.7830 C   0  0  2  0  0  3  0  0  0  0  0  0
  194.3450  175.8430  136.7260 C   0  0  0  0  0  1  0  0  0  0  0  0
  190.9110  177.1390  140.4500 C   0  0  1  0  0  3  0  0  0  0  0  0
  192.2130  176.2810  138.0330 C   0  0  0  0  0  0  0  0  0  0  0  0
  190.1190  177.1880  139.1480 C   0  0  0  0  0  2  0  0  0  0  0  0
  192.1430  175.6810  135.6090 C   0  0  0  0  0  2  0  0  0  0  0  0
  192.9440  176.8520  139.0120 C   0  0  0  0  0  3  0  0  0  0  0  0
  192.8810  175.4810  136.9310 C   0  0  1  0  0  3  0  0  0  0  0  0
  192.3270  177.6270  140.1450 C   0  0  0  0  0  2  0  0  0  0  0  0
  190.6600  175.3620  135.7610 C   0  0  0  0  0  2  0  0  0  0  0  0
  190.6990  176.1760  138.1570 C   0  0  1  0  0  3  0  0  0  0  0  0
  191.1500  178.2580  142.7490 C   0  0  0  0  0  2  0  0  0  0  0  0
  188.7790  176.6820  143.2660 C   0  0  0  0  0  2  0  0  0  0  0  0
  191.1550  175.8660  143.6560 C   0  0  0  0  0  0  0  0  0  0  0  0
  190.2430  177.9980  141.5380 C   0  0  2  0  0  3  0  0  0  0  0  0
  187.9250  177.6140  141.2880 O   0  0  0  0  0  0  0  0  0  0  0  0
  189.7420  175.5070  143.2680 C   0  0  0  0  0  2  0  0  0  0  0  0
  188.9150  177.4370  141.9790 C   0  0  0  0  0  0  0  0  0  0  0  0
  191.9710  174.7970  144.2920 C   0  0  0  0  0  1  0  0  0  0  0  0
  191.7720  177.0270  143.3630 C   0  0  0  0  0  3  0  0  0  0  0  0
  188.5370  176.0580  136.8620 C   0  0  0  0  0  0  0  0  0  0  0  0
  188.0500  174.7510  137.0260 C   0  0  0  0  0  3  0  0  0  0  0  0
  186.2480  176.8860  136.8880 C   0  0  0  0  0  0  0  0  0  0  0  0
  186.6770  174.5130  137.1180 C   0  0  0  0  0  3  0  0  0  0  0  0
  188.1150  178.5380  136.6250 C   0  0  0  0  0  1  0  0  0  0  0  0
  187.6270  177.1340  136.7940 C   0  0  0  0  0  0  0  0  0  0  0  0
  185.3350  177.9330  136.8230 O   0  0  0  0  0  1  0  0  0  0  0  0
  185.7790  175.5790  137.0490 C   0  0  0  0  0  3  0  0  0  0  0  0
  1 21  1  1  0  0  0
  1 11  1  0  0  0  0
  3  5  1  6  0  0  0
  3 15  1  0  0  0  0
  4 11  1  0  0  0  0
  4  7  2  0  0  0  0
  6 10  1  0  0  0  0
  6  8  1  0  0  0  0
  7  9  1  0  0  0  0
  8  2  1  6  0  0  0
  8  4  1  0  0  0  0
  9  3  1  0  0  0  0
 10  1  1  0  0  0  0
 11  5  1  1  0  0  0
 12 20  1  0  0  0  0
 13 17  1  0  0  0  0
 14 19  1  0  0  0  0
 15 18  1  0  0  0  0
 15 12  1  1  0  0  0
 16 18  2  0  0  0  0
 17 14  1  0  0  0  0
 18 13  1  0  0  0  0
 20 14  2  0  0  0  0
 21 22  1  0  0  0  0
 22 24  2  0  0  0  0
 23 28  2  0  0  0  0
 25 26  1  0  0  0  0
 26 21  2  0  0  0  0
 26 23  1  0  0  0  0
 27 23  1  0  0  0  0
 28 24  1  0  0  0  0
M  END
>  <MODEL>
8

>  <REMARK>
 VINA RESULT:      -8.3      2.794      8.220
  Name = 
  2 active torsions:
  status: ('A' for Active; 'I' for Inactive)
    1  A    between atoms: C_1  and  C_2
    2  A    between atoms: C_10  and  C_13
                            x       y       z     vdW  Elec       q    Type
                         _______ _______ _______ _____ _____    ______ ____

>  <TORSDO>
F 2

$$$$
=
 OpenBabel10272401493D

 28 31  0  0  1  0  0  0  0  0999 V2000
  184.8940  178.8970  142.8860 C   0  0  2  0  0  3  0  0  0  0  0  0
  180.7210  179.1130  144.0960 C   0  0  0  0  0  1  0  0  0  0  0  0
  183.1050  178.1260  139.5470 C   0  0  1  0  0  3  0  0  0  0  0  0
  182.4530  178.6230  142.3040 C   0  0  0  0  0  0  0  0  0  0  0  0
  184.2070  178.6400  140.4670 C   0  0  0  0  0  2  0  0  0  0  0  0
  183.1340  179.1640  144.6460 C   0  0  0  0  0  2  0  0  0  0  0  0
  181.5060  178.7940  141.3580 C   0  0  0  0  0  3  0  0  0  0  0  0
  182.0760  178.4990  143.7680 C   0  0  1  0  0  3  0  0  0  0  0  0
  181.8270  178.8880  139.8910 C   0  0  0  0  0  2  0  0  0  0  0  0
  184.5200  178.6090  144.3410 C   0  0  0  0  0  2  0  0  0  0  0  0
  183.8820  178.2670  141.9160 C   0  0  1  0  0  3  0  0  0  0  0  0
  182.3360  178.0030  137.1000 C   0  0  0  0  0  2  0  0  0  0  0  0
  184.6210  176.2360  136.9370 C   0  0  0  0  0  2  0  0  0  0  0  0
  182.2600  175.4760  137.4930 C   0  0  0  0  0  0  0  0  0  0  0  0
  183.4880  178.3090  138.0680 C   0  0  2  0  0  3  0  0  0  0  0  0
  185.8230  177.9560  137.9890 O   0  0  0  0  0  0  0  0  0  0  0  0
  183.7380  175.2670  137.7040 C   0  0  0  0  0  2  0  0  0  0  0  0
  184.7210  177.5260  137.6920 C   0  0  0  0  0  0  0  0  0  0  0  0
  181.3820  174.2840  137.6400 C   0  0  0  0  0  1  0  0  0  0  0  0
  181.6610  176.6680  137.3060 C   0  0  0  0  0  3  0  0  0  0  0  0
  186.3020  178.4410  142.6080 C   0  0  0  0  0  0  0  0  0  0  0  0
  186.9230  178.7880  141.3970 C   0  0  0  0  0  3  0  0  0  0  0  0
  188.3330  177.2850  143.2880 C   0  0  0  0  0  0  0  0  0  0  0  0
  188.2340  178.3860  141.1330 C   0  0  0  0  0  3  0  0  0  0  0  0
  186.3820  177.3040  144.8620 C   0  0  0  0  0  1  0  0  0  0  0  0
  187.0140  177.6840  143.5610 C   0  0  0  0  0  0  0  0  0  0  0  0
  189.0520  176.5380  144.2150 O   0  0  0  0  0  1  0  0  0  0  0  0
  188.9360  177.6360  142.0780 C   0  0  0  0  0  3  0  0  0  0  0  0
  1 21  1  6  0  0  0
  1 10  1  0  0  0  0
  3  9  1  1  0  0  0
  3  5  1  0  0  0  0
  4  8  1  0  0  0  0
  7  4  2  0  0  0  0
  8  2  1  6  0  0  0
  8  6  1  0  0  0  0
  9  7  1  0  0  0  0
 10  6  1  0  0  0  0
 11  5  1  6  0  0  0
 11  4  1  0  0  0  0
 11  1  1  0  0  0  0
 12 20  1  0  0  0  0
 13 18  1  0  0  0  0
 13 17  1  0  0  0  0
 14 19  1  0  0  0  0
 14 17  1  0  0  0  0
 15 12  1  6  0  0  0
 15  3  1  0  0  0  0
 18 16  2  0  0  0  0
 18 15  1  0  0  0  0
 20 14  2  0  0  0  0
 21 26  1  0  0  0  0
 22 21  2  0  0  0  0
 23 26  2  0  0  0  0
 23 27  1  0  0  0  0
 24 22  1  0  0  0  0
 24 28  2  0  0  0  0
 26 25  1  0  0  0  0
 28 23  1  0  0  0  0
M  END
>  <MODEL>
9

>  <REMARK>
 VINA RESULT:      -8.2      2.950      4.820
  Name = 
  2 active torsions:
  status: ('A' for Active; 'I' for Inactive)
    1  A    between atoms: C_1  and  C_2
    2  A    between atoms: C_10  and  C_13
                            x       y       z     vdW  Elec       q    Type
                         _______ _______ _______ _____ _____    ______ ____

>  <TORSDO>
F 2

$$$$
