=
 OpenBabel10272401583D

 28 31  0  0  1  0  0  0  0  0999 V2000
  181.5440  180.5750  137.1300 C   0  0  2  0  0  3  0  0  0  0  0  0
  184.0800  178.5220  141.6330 C   0  0  0  0  0  3  0  0  0  0  0  0
  181.5250  175.5970  137.7440 C   0  0  0  0  0  1  0  0  0  0  0  0
  181.7210  178.2840  142.1610 C   0  0  0  0  0  0  0  0  0  0  0  0
  182.5100  177.8440  139.7920 C   0  0  2  0  0  3  0  0  0  0  0  0
  183.2900  178.9770  143.8740 C   0  0  0  0  0  0  0  0  0  0  0  0
  182.7770  178.2040  141.2300 C   0  0  0  0  0  0  0  0  0  0  0  0
  180.1290  177.8710  140.2790 C   0  0  0  0  0  2  0  0  0  0  0  0
  181.9870  178.6590  143.4810 C   0  0  0  0  0  3  0  0  0  0  0  0
  181.1410  178.0240  137.2570 C   0  0  1  0  0  3  0  0  0  0  0  0
  182.6940  179.0740  138.8820 C   0  0  2  0  0  3  0  0  0  0  0  0
  180.3270  177.8720  141.7910 C   0  0  0  0  0  2  0  0  0  0  0  0
  180.3020  179.3210  135.3200 C   0  0  0  0  0  2  0  0  0  0  0  0
  180.8510  176.8670  138.2300 C   0  0  2  0  0  3  0  0  0  0  0  0
  179.9840  178.1940  136.2860 C   0  0  0  0  0  2  0  0  0  0  0  0
  183.5520  179.3660  145.2170 N   0  0  0  0  0  1  0  0  0  0  0  0
  184.3360  178.9070  142.9510 C   0  0  0  0  0  3  0  0  0  0  0  0
  181.2160  177.1320  139.6340 N   0  0  1  0  0  0  0  0  0  0  0  0
  180.4150  180.6240  136.0960 C   0  0  0  0  0  2  0  0  0  0  0  0
  181.4460  179.3180  138.0200 C   0  0  1  0  0  3  0  0  0  0  0  0
  181.4210  182.0590  138.1300 S   0  0  0  0  0  0  0  0  0  0  0  0
  180.6010  181.7560  139.3540 O   0  0  0  0  0  0  0  0  0  0  0  0
  182.8000  182.4830  138.5560 O   0  0  0  0  0  0  0  0  0  0  0  0
  181.4980  184.6490  137.3400 C   0  0  0  0  0  1  0  0  0  0  0  0
  180.6500  183.3960  137.2400 C   0  0  0  0  0  2  0  0  0  0  0  0
  183.9470  178.8440  138.0370 C   0  0  0  0  0  2  0  0  0  0  0  0
  184.5160  177.4580  138.2620 C   0  0  0  0  0  2  0  0  0  0  0  0
  184.9600  176.8750  136.9370 C   0  0  0  0  0  1  0  0  0  0  0  0
  1 20  1  0  0  0  0
  1 21  1  1  0  0  0
  2 17  1  0  0  0  0
  4  9  2  0  0  0  0
  5  7  1  1  0  0  0
  6 16  1  0  0  0  0
  7  2  2  0  0  0  0
  7  4  1  0  0  0  0
  8 12  1  0  0  0  0
  9  6  1  0  0  0  0
 10 15  1  6  0  0  0
 10 20  1  0  0  0  0
 10 14  1  0  0  0  0
 11 26  1  6  0  0  0
 11  5  1  0  0  0  0
 12  4  1  0  0  0  0
 13 19  1  0  0  0  0
 13 15  1  0  0  0  0
 14  3  1  6  0  0  0
 14 18  1  0  0  0  0
 17  6  2  0  0  0  0
 18  5  1  0  0  0  0
 18  8  1  6  0  0  0
 19  1  1  0  0  0  0
 20 11  1  0  0  0  0
 21 23  2  0  0  0  0
 21 22  2  0  0  0  0
 25 24  1  0  0  0  0
 25 21  1  0  0  0  0
 26 27  1  0  0  0  0
 28 27  1  0  0  0  0
M  END
>  <MODEL>
1

>  <REMARK>
 VINA RESULT:      -5.3      0.000      0.000
  Name = 
  4 active torsions:
  status: ('A' for Active; 'I' for Inactive)
    1  A    between atoms: C_1  and  S_2
    2  A    between atoms: S_2  and  C_11
    3  A    between atoms: C_6  and  C_28
    4  A    between atoms: C_17  and  C_28
                            x       y       z     vdW  Elec       q    Type
                         _______ _______ _______ _____ _____    ______ ____

>  <TORSDO>
F 4

$$$$
=
 OpenBabel10272401583D

 28 31  0  0  1  0  0  0  0  0999 V2000
  180.7000  176.8620  138.6430 C   0  0  2  0  0  3  0  0  0  0  0  0
  183.6160  178.7440  142.9880 C   0  0  0  0  0  3  0  0  0  0  0  0
  182.0570  181.6900  138.6180 C   0  0  0  0  0  1  0  0  0  0  0  0
  185.2780  178.5900  141.2230 C   0  0  0  0  0  0  0  0  0  0  0  0
  182.9400  179.3930  140.6570 C   0  0  2  0  0  3  0  0  0  0  0  0
  185.8420  177.9390  143.4880 C   0  0  0  0  0  0  0  0  0  0  0  0
  183.9730  178.9180  141.6450 C   0  0  0  0  0  0  0  0  0  0  0  0
  184.5340  178.9790  138.8690 C   0  0  0  0  0  2  0  0  0  0  0  0
  186.2080  178.1130  142.1510 C   0  0  0  0  0  3  0  0  0  0  0  0
  181.4310  179.3020  138.1980 C   0  0  1  0  0  3  0  0  0  0  0  0
  181.8690  178.3080  140.4280 C   0  0  2  0  0  3  0  0  0  0  0  0
  185.7230  178.8410  139.8130 C   0  0  0  0  0  2  0  0  0  0  0  0
  179.9820  178.1200  136.5710 C   0  0  0  0  0  2  0  0  0  0  0  0
  182.5950  180.2930  138.3720 C   0  0  2  0  0  3  0  0  0  0  0  0
  181.1500  179.0790  136.7200 C   0  0  0  0  0  2  0  0  0  0  0  0
  186.7920  177.4470  144.4260 N   0  0  0  0  0  1  0  0  0  0  0  0
  184.5480  178.2570  143.9070 C   0  0  0  0  0  3  0  0  0  0  0  0
  183.5660  179.9300  139.4210 N   0  0  1  0  0  0  0  0  0  0  0  0
  180.3720  176.7690  137.1500 C   0  0  0  0  0  2  0  0  0  0  0  0
  181.7150  177.9880  138.9340 C   0  0  1  0  0  3  0  0  0  0  0  0
  181.3670  175.2750  139.1460 S   0  0  0  0  0  0  0  0  0  0  0  0
  182.8110  175.4510  139.5280 O   0  0  0  0  0  0  0  0  0  0  0  0
  180.6010  174.7730  140.3400 O   0  0  0  0  0  0  0  0  0  0  0  0
  180.2270  173.0150  138.1810 C   0  0  0  0  0  1  0  0  0  0  0  0
  181.2630  174.0680  137.8400 C   0  0  0  0  0  2  0  0  0  0  0  0
  180.5650  178.8020  141.0540 C   0  0  0  0  0  2  0  0  0  0  0  0
  180.1330  177.9110  142.2000 C   0  0  0  0  0  2  0  0  0  0  0  0
  179.9830  178.7430  143.4560 C   0  0  0  0  0  1  0  0  0  0  0  0
  1 20  1  0  0  0  0
  1 21  1  6  0  0  0
  2 17  1  0  0  0  0
  4  7  1  0  0  0  0
  4  9  2  0  0  0  0
  5  7  1  1  0  0  0
  6 17  2  0  0  0  0
  6 16  1  0  0  0  0
  7  2  2  0  0  0  0
  8 12  1  0  0  0  0
  9  6  1  0  0  0  0
 10 15  1  6  0  0  0
 10 14  1  0  0  0  0
 10 20  1  0  0  0  0
 11  5  1  0  0  0  0
 11 26  1  6  0  0  0
 12  4  1  0  0  0  0
 13 15  1  0  0  0  0
 13 19  1  0  0  0  0
 14  3  1  1  0  0  0
 14 18  1  0  0  0  0
 18  8  1  6  0  0  0
 18  5  1  0  0  0  0
 19  1  1  0  0  0  0
 20 11  1  0  0  0  0
 21 22  2  0  0  0  0
 21 23  2  0  0  0  0
 25 24  1  0  0  0  0
 25 21  1  0  0  0  0
 26 27  1  0  0  0  0
 27 28  1  0  0  0  0
M  END
>  <MODEL>
2

>  <REMARK>
 VINA RESULT:      -5.0      2.841      5.161
  Name = 
  4 active torsions:
  status: ('A' for Active; 'I' for Inactive)
    1  A    between atoms: C_1  and  S_2
    2  A    between atoms: S_2  and  C_11
    3  A    between atoms: C_6  and  C_28
    4  A    between atoms: C_17  and  C_28
                            x       y       z     vdW  Elec       q    Type
                         _______ _______ _______ _____ _____    ______ ____

>  <TORSDO>
F 4

$$$$
=
 OpenBabel10272401583D

 28 31  0  0  1  0  0  0  0  0999 V2000
  182.5720  173.4330  136.9890 C   0  0  2  0  0  3  0  0  0  0  0  0
  185.9200  177.7350  138.0880 C   0  0  0  0  0  3  0  0  0  0  0  0
  180.8070  178.0420  136.0950 C   0  0  0  0  0  1  0  0  0  0  0  0
  185.9450  177.6110  135.6620 C   0  0  0  0  0  0  0  0  0  0  0  0
  183.7760  177.1780  136.9020 C   0  0  2  0  0  3  0  0  0  0  0  0
  187.9840  178.1000  136.8790 C   0  0  0  0  0  0  0  0  0  0  0  0
  185.2390  177.5350  136.8810 C   0  0  0  0  0  0  0  0  0  0  0  0
  183.8850  176.7990  134.5030 C   0  0  0  0  0  2  0  0  0  0  0  0
  187.3110  177.9050  135.6690 C   0  0  0  0  0  3  0  0  0  0  0  0
  181.4490  175.6230  136.1960 C   0  0  1  0  0  3  0  0  0  0  0  0
  183.5720  175.7590  137.4700 C   0  0  2  0  0  3  0  0  0  0  0  0
  185.2370  177.4860  134.3460 C   0  0  0  0  0  2  0  0  0  0  0  0
  180.2340  173.4690  136.0270 C   0  0  0  0  0  2  0  0  0  0  0  0
  181.7260  176.9790  135.5220 C   0  0  2  0  0  3  0  0  0  0  0  0
  180.5150  174.7900  135.3310 C   0  0  0  0  0  2  0  0  0  0  0  0
  189.3760  178.3920  136.8790 N   0  0  0  0  0  1  0  0  0  0  0  0
  187.2880  178.0180  138.0870 C   0  0  0  0  0  3  0  0  0  0  0  0
  183.1290  177.4280  135.5890 N   0  0  1  0  0  0  0  0  0  0  0  0
  181.5320  172.6860  136.1490 C   0  0  0  0  0  2  0  0  0  0  0  0
  182.7570  174.8870  136.5050 C   0  0  1  0  0  3  0  0  0  0  0  0
  184.1160  172.5310  136.8590 S   0  0  0  0  0  0  0  0  0  0  0  0
  184.9350  172.7830  138.0950 O   0  0  0  0  0  0  0  0  0  0  0  0
  183.8210  171.0590  136.7570 O   0  0  0  0  0  0  0  0  0  0  0  0
  186.2650  173.8460  135.8630 C   0  0  0  0  0  1  0  0  0  0  0  0
  185.0600  173.0330  135.4340 C   0  0  0  0  0  2  0  0  0  0  0  0
  182.9010  175.8980  138.8370 C   0  0  0  0  0  2  0  0  0  0  0  0
  182.6290  177.3490  139.1710 C   0  0  0  0  0  2  0  0  0  0  0  0
  183.2020  177.6680  140.5360 C   0  0  0  0  0  1  0  0  0  0  0  0
  1 21  1  6  0  0  0
  4  9  2  0  0  0  0
  4  7  1  0  0  0  0
  5  7  1  6  0  0  0
  5 11  1  0  0  0  0
  6 16  1  0  0  0  0
  6 17  2  0  0  0  0
  7  2  2  0  0  0  0
  9  6  1  0  0  0  0
 10 15  1  6  0  0  0
 10 20  1  0  0  0  0
 11 26  1  1  0  0  0
 12  8  1  0  0  0  0
 12  4  1  0  0  0  0
 13 19  1  0  0  0  0
 14 18  1  0  0  0  0
 14  3  1  1  0  0  0
 14 10  1  0  0  0  0
 15 13  1  0  0  0  0
 17  2  1  0  0  0  0
 18  8  1  6  0  0  0
 18  5  1  0  0  0  0
 19  1  1  0  0  0  0
 20  1  1  0  0  0  0
 20 11  1  0  0  0  0
 21 22  2  0  0  0  0
 23 21  2  0  0  0  0
 25 24  1  0  0  0  0
 25 21  1  0  0  0  0
 26 27  1  0  0  0  0
 27 28  1  0  0  0  0
M  END
>  <MODEL>
3

>  <REMARK>
 VINA RESULT:      -4.6      4.603      7.133
  Name = 
  4 active torsions:
  status: ('A' for Active; 'I' for Inactive)
    1  A    between atoms: C_1  and  S_2
    2  A    between atoms: S_2  and  C_11
    3  A    between atoms: C_6  and  C_28
    4  A    between atoms: C_17  and  C_28
                            x       y       z     vdW  Elec       q    Type
                         _______ _______ _______ _____ _____    ______ ____

>  <TORSDO>
F 4

$$$$
=
 OpenBabel10272401583D

 28 31  0  0  1  0  0  0  0  0999 V2000
  185.0740  176.0840  137.7220 C   0  0  2  0  0  3  0  0  0  0  0  0
  181.5820  180.2660  138.8380 C   0  0  0  0  0  3  0  0  0  0  0  0
  180.3170  174.9170  138.8050 C   0  0  0  0  0  1  0  0  0  0  0  0
  180.9200  179.5630  136.6090 C   0  0  0  0  0  0  0  0  0  0  0  0
  181.5860  177.8090  138.3140 C   0  0  2  0  0  3  0  0  0  0  0  0
  180.9820  181.9190  137.1760 C   0  0  0  0  0  0  0  0  0  0  0  0
  181.3380  179.2400  137.9160 C   0  0  0  0  0  0  0  0  0  0  0  0
  181.1800  177.1510  136.0090 C   0  0  0  0  0  2  0  0  0  0  0  0
  180.7330  180.9010  136.2510 C   0  0  0  0  0  3  0  0  0  0  0  0
  182.6760  175.1550  137.9980 C   0  0  1  0  0  3  0  0  0  0  0  0
  183.0960  177.5490  138.4890 C   0  0  2  0  0  3  0  0  0  0  0  0
  180.5680  178.4920  135.6190 C   0  0  0  0  0  2  0  0  0  0  0  0
  184.5770  173.6070  137.6310 C   0  0  0  0  0  2  0  0  0  0  0  0
  181.1970  175.4420  137.6850 C   0  0  2  0  0  3  0  0  0  0  0  0
  183.1240  173.8860  137.2880 C   0  0  0  0  0  2  0  0  0  0  0  0
  180.7970  183.2790  136.8030 N   0  0  0  0  0  1  0  0  0  0  0  0
  181.4040  181.6010  138.4690 C   0  0  0  0  0  3  0  0  0  0  0  0
  180.8850  176.8580  137.4140 N   0  0  1  0  0  0  0  0  0  0  0  0
  185.4410  174.7370  137.0930 C   0  0  0  0  0  2  0  0  0  0  0  0
  183.5560  176.3560  137.6380 C   0  0  1  0  0  3  0  0  0  0  0  0
  185.9850  177.3540  136.8420 S   0  0  0  0  0  0  0  0  0  0  0  0
  185.2730  177.6630  135.5540 O   0  0  0  0  0  0  0  0  0  0  0  0
  186.0370  178.5980  137.6850 O   0  0  0  0  0  0  0  0  0  0  0  0
  188.4940  176.8420  137.7250 C   0  0  0  0  0  1  0  0  0  0  0  0
  187.6480  176.8370  136.4670 C   0  0  0  0  0  2  0  0  0  0  0  0
  183.3610  177.3370  139.9790 C   0  0  0  0  0  2  0  0  0  0  0  0
  184.1470  178.4890  140.5680 C   0  0  0  0  0  2  0  0  0  0  0  0
  184.0970  178.4130  142.0800 C   0  0  0  0  0  1  0  0  0  0  0  0
  1 21  1  6  0  0  0
  4  7  1  0  0  0  0
  5  7  1  6  0  0  0
  5 11  1  0  0  0  0
  6 17  2  0  0  0  0
  7  2  2  0  0  0  0
  9  4  2  0  0  0  0
  9  6  1  0  0  0  0
 10 15  1  6  0  0  0
 11 26  1  1  0  0  0
 12  8  1  0  0  0  0
 12  4  1  0  0  0  0
 14 10  1  0  0  0  0
 14  3  1  1  0  0  0
 15 13  1  0  0  0  0
 16  6  1  0  0  0  0
 17  2  1  0  0  0  0
 18  8  1  6  0  0  0
 18 14  1  0  0  0  0
 18  5  1  0  0  0  0
 19 13  1  0  0  0  0
 19  1  1  0  0  0  0
 20  1  1  0  0  0  0
 20 10  1  0  0  0  0
 20 11  1  0  0  0  0
 21 23  2  0  0  0  0
 22 21  2  0  0  0  0
 25 21  1  0  0  0  0
 25 24  1  0  0  0  0
 26 27  1  0  0  0  0
 27 28  1  0  0  0  0
M  END
>  <MODEL>
4

>  <REMARK>
 VINA RESULT:      -4.6      3.033      5.854
  Name = 
  4 active torsions:
  status: ('A' for Active; 'I' for Inactive)
    1  A    between atoms: C_1  and  S_2
    2  A    between atoms: S_2  and  C_11
    3  A    between atoms: C_6  and  C_28
    4  A    between atoms: C_17  and  C_28
                            x       y       z     vdW  Elec       q    Type
                         _______ _______ _______ _____ _____    ______ ____

>  <TORSDO>
F 4

$$$$
=
 OpenBabel10272401583D

 28 31  0  0  1  0  0  0  0  0999 V2000
  186.3130  178.3020  138.1780 C   0  0  2  0  0  3  0  0  0  0  0  0
  188.1600  174.5600  134.5030 C   0  0  0  0  0  3  0  0  0  0  0  0
  182.8940  175.7060  135.5840 C   0  0  0  0  0  1  0  0  0  0  0  0
  187.3520  173.1900  136.3390 C   0  0  0  0  0  0  0  0  0  0  0  0
  186.0590  175.2700  135.6830 C   0  0  2  0  0  3  0  0  0  0  0  0
  189.3960  172.5930  135.1800 C   0  0  0  0  0  0  0  0  0  0  0  0
  187.2020  174.3090  135.4930 C   0  0  0  0  0  0  0  0  0  0  0  0
  185.4200  174.0380  137.6790 C   0  0  0  0  0  2  0  0  0  0  0  0
  188.4430  172.3330  136.1690 C   0  0  0  0  0  3  0  0  0  0  0  0
  184.3090  176.9910  137.2030 C   0  0  1  0  0  3  0  0  0  0  0  0
  186.5670  176.6110  136.2500 C   0  0  2  0  0  3  0  0  0  0  0  0
  186.3050  172.8400  137.3550 C   0  0  0  0  0  2  0  0  0  0  0  0
  183.9220  178.8620  138.7810 C   0  0  0  0  0  2  0  0  0  0  0  0
  183.8480  175.5920  136.7590 C   0  0  2  0  0  3  0  0  0  0  0  0
  183.4690  177.4700  138.3770 C   0  0  0  0  0  2  0  0  0  0  0  0
  190.5070  171.7210  135.0170 N   0  0  0  0  0  1  0  0  0  0  0  0
  189.2530  173.7050  134.3460 C   0  0  0  0  0  3  0  0  0  0  0  0
  184.9390  174.6520  136.4390 N   0  0  1  0  0  0  0  0  0  0  0  0
  185.3600  178.7940  139.2720 C   0  0  0  0  0  2  0  0  0  0  0  0
  185.8070  176.9980  137.5270 C   0  0  1  0  0  3  0  0  0  0  0  0
  187.9150  178.0380  138.9400 S   0  0  0  0  0  0  0  0  0  0  0  0
  188.4000  176.6590  138.5920 O   0  0  0  0  0  0  0  0  0  0  0  0
  188.8890  179.0520  138.4050 O   0  0  0  0  0  0  0  0  0  0  0  0
  188.9780  177.4200  141.3540 C   0  0  0  0  0  1  0  0  0  0  0  0
  187.8380  178.1880  140.7140 C   0  0  0  0  0  2  0  0  0  0  0  0
  186.4270  177.6630  135.1490 C   0  0  0  0  0  2  0  0  0  0  0  0
  187.7080  177.7990  134.3520 C   0  0  0  0  0  2  0  0  0  0  0  0
  188.8960  177.6880  135.2850 C   0  0  0  0  0  1  0  0  0  0  0  0
  1 21  1  1  0  0  0
  1 19  1  0  0  0  0
  2  7  1  0  0  0  0
  4 12  1  0  0  0  0
  5  7  1  1  0  0  0
  5 11  1  0  0  0  0
  5 18  1  0  0  0  0
  6  9  2  0  0  0  0
  7  4  2  0  0  0  0
  9  4  1  0  0  0  0
 10 20  1  0  0  0  0
 10 15  1  1  0  0  0
 11 26  1  6  0  0  0
 11 20  1  0  0  0  0
 12  8  1  0  0  0  0
 13 19  1  0  0  0  0
 14  3  1  6  0  0  0
 14 10  1  0  0  0  0
 15 13  1  0  0  0  0
 16  6  1  0  0  0  0
 17  2  2  0  0  0  0
 17  6  1  0  0  0  0
 18 14  1  0  0  0  0
 18  8  1  1  0  0  0
 20  1  1  0  0  0  0
 21 25  1  0  0  0  0
 22 21  2  0  0  0  0
 23 21  2  0  0  0  0
 25 24  1  0  0  0  0
 27 26  1  0  0  0  0
 27 28  1  0  0  0  0
M  END
>  <MODEL>
5

>  <REMARK>
 VINA RESULT:      -4.2      4.784      7.853
  Name = 
  4 active torsions:
  status: ('A' for Active; 'I' for Inactive)
    1  A    between atoms: C_1  and  S_2
    2  A    between atoms: S_2  and  C_11
    3  A    between atoms: C_6  and  C_28
    4  A    between atoms: C_17  and  C_28
                            x       y       z     vdW  Elec       q    Type
                         _______ _______ _______ _____ _____    ______ ____

>  <TORSDO>
F 4

$$$$
=
 OpenBabel10272401583D

 28 31  0  0  1  0  0  0  0  0999 V2000
  182.4530  178.2260  139.3770 C   0  0  2  0  0  3  0  0  0  0  0  0
  185.3460  177.0170  134.7850 C   0  0  0  0  0  3  0  0  0  0  0  0
  180.7600  174.5030  136.4740 C   0  0  0  0  0  1  0  0  0  0  0  0
  185.8860  175.1840  136.2850 C   0  0  0  0  0  0  0  0  0  0  0  0
  183.5200  176.0970  136.2450 C   0  0  2  0  0  3  0  0  0  0  0  0
  187.6050  176.1530  134.8780 C   0  0  0  0  0  0  0  0  0  0  0  0
  184.9420  176.0840  135.7480 C   0  0  0  0  0  0  0  0  0  0  0  0
  184.1440  174.4500  137.9210 C   0  0  0  0  0  2  0  0  0  0  0  0
  187.2090  175.2170  135.8370 C   0  0  0  0  0  3  0  0  0  0  0  0
  181.4480  176.1240  138.2540 C   0  0  1  0  0  3  0  0  0  0  0  0
  183.2500  177.3620  137.0830 C   0  0  2  0  0  3  0  0  0  0  0  0
  185.4750  174.1160  137.2560 C   0  0  0  0  0  2  0  0  0  0  0  0
  180.3700  177.0980  140.2620 C   0  0  0  0  0  2  0  0  0  0  0  0
  181.8140  174.8240  137.5170 C   0  0  2  0  0  3  0  0  0  0  0  0
  180.7460  175.8020  139.5650 C   0  0  0  0  0  2  0  0  0  0  0  0
  188.9550  176.1860  134.4320 N   0  0  0  0  0  1  0  0  0  0  0  0
  186.6740  177.0510  134.3500 C   0  0  0  0  0  3  0  0  0  0  0  0
  183.1560  174.8160  136.9040 N   0  0  1  0  0  0  0  0  0  0  0  0
  181.6390  177.8560  140.6210 C   0  0  0  0  0  2  0  0  0  0  0  0
  182.6860  177.0020  138.4650 C   0  0  1  0  0  3  0  0  0  0  0  0
  184.0200  178.8920  139.9400 S   0  0  0  0  0  0  0  0  0  0  0  0
  185.1330  178.0130  139.4400 O   0  0  0  0  0  0  0  0  0  0  0  0
  184.1970  180.2760  139.3780 O   0  0  0  0  0  0  0  0  0  0  0  0
  185.4370  178.4310  142.2020 C   0  0  0  0  0  1  0  0  0  0  0  0
  184.1070  178.9720  141.7170 C   0  0  0  0  0  2  0  0  0  0  0  0
  182.3020  178.2560  136.2830 C   0  0  0  0  0  2  0  0  0  0  0  0
  181.8640  177.5820  135.0000 C   0  0  0  0  0  2  0  0  0  0  0  0
  180.3800  177.8080  134.7930 C   0  0  0  0  0  1  0  0  0  0  0  0
  1 21  1  1  0  0  0
  1 19  1  0  0  0  0
  2  7  1  0  0  0  0
  4 12  1  0  0  0  0
  5  7  1  1  0  0  0
  5 18  1  0  0  0  0
  5 11  1  0  0  0  0
  6  9  2  0  0  0  0
  7  4  2  0  0  0  0
  9  4  1  0  0  0  0
 10 20  1  0  0  0  0
 10 15  1  1  0  0  0
 11 26  1  6  0  0  0
 11 20  1  0  0  0  0
 12  8  1  0  0  0  0
 13 19  1  0  0  0  0
 14  3  1  6  0  0  0
 14 10  1  0  0  0  0
 15 13  1  0  0  0  0
 16  6  1  0  0  0  0
 17  2  2  0  0  0  0
 17  6  1  0  0  0  0
 18 14  1  0  0  0  0
 18  8  1  1  0  0  0
 20  1  1  0  0  0  0
 21 25  1  0  0  0  0
 22 21  2  0  0  0  0
 23 21  2  0  0  0  0
 25 24  1  0  0  0  0
 27 26  1  0  0  0  0
 28 27  1  0  0  0  0
M  END
>  <MODEL>
6

>  <REMARK>
 VINA RESULT:      -4.1      3.182      6.209
  Name = 
  4 active torsions:
  status: ('A' for Active; 'I' for Inactive)
    1  A    between atoms: C_1  and  S_2
    2  A    between atoms: S_2  and  C_11
    3  A    between atoms: C_6  and  C_28
    4  A    between atoms: C_17  and  C_28
                            x       y       z     vdW  Elec       q    Type
                         _______ _______ _______ _____ _____    ______ ____

>  <TORSDO>
F 4

$$$$
=
 OpenBabel10272401583D

 28 31  0  0  1  0  0  0  0  0999 V2000
  181.7780  179.4150  139.5950 C   0  0  2  0  0  3  0  0  0  0  0  0
  183.9070  175.1330  136.7560 C   0  0  0  0  0  3  0  0  0  0  0  0
  181.2900  179.4600  134.6030 C   0  0  0  0  0  1  0  0  0  0  0  0
  181.5130  174.7240  136.6750 C   0  0  0  0  0  0  0  0  0  0  0  0
  182.3720  177.1010  136.4680 C   0  0  2  0  0  3  0  0  0  0  0  0
  183.0540  172.8810  136.9950 C   0  0  0  0  0  0  0  0  0  0  0  0
  182.6010  175.6200  136.6160 C   0  0  0  0  0  0  0  0  0  0  0  0
  179.9820  176.7000  136.6570 C   0  0  0  0  0  2  0  0  0  0  0  0
  181.7480  173.3580  136.8530 C   0  0  0  0  0  3  0  0  0  0  0  0
  181.1460  179.6370  137.0970 C   0  0  1  0  0  3  0  0  0  0  0  0
  182.7070  177.8350  137.7820 C   0  0  2  0  0  3  0  0  0  0  0  0
  180.1070  175.1950  136.4460 C   0  0  0  0  0  2  0  0  0  0  0  0
  180.5180  181.4170  138.7030 C   0  0  0  0  0  2  0  0  0  0  0  0
  180.7090  178.8360  135.8580 C   0  0  2  0  0  3  0  0  0  0  0  0
  180.0550  180.6190  137.4970 C   0  0  0  0  0  2  0  0  0  0  0  0
  183.2860  171.4900  137.1830 N   0  0  0  0  0  1  0  0  0  0  0  0
  184.1330  173.7670  136.9450 C   0  0  0  0  0  3  0  0  0  0  0  0
  181.0290  177.3970  135.9070 N   0  0  1  0  0  0  0  0  0  0  0  0
  180.7090  180.4730  139.8800 C   0  0  0  0  0  2  0  0  0  0  0  0
  181.5280  178.7020  138.2490 C   0  0  1  0  0  3  0  0  0  0  0  0
  181.7400  178.2340  140.9440 S   0  0  0  0  0  0  0  0  0  0  0  0
  180.8490  177.0840  140.5610 O   0  0  0  0  0  0  0  0  0  0  0  0
  183.1310  177.7180  141.1880 O   0  0  0  0  0  0  0  0  0  0  0  0
  182.2200  179.0410  143.4850 C   0  0  0  0  0  1  0  0  0  0  0  0
  181.1190  178.9640  142.4460 C   0  0  0  0  0  2  0  0  0  0  0  0
  183.9740  178.6570  137.5450 C   0  0  0  0  0  2  0  0  0  0  0  0
  185.1040  178.1970  138.4420 C   0  0  0  0  0  2  0  0  0  0  0  0
  186.3590  178.0090  137.6150 C   0  0  0  0  0  1  0  0  0  0  0  0
  1 19  1  0  0  0  0
  1 21  1  1  0  0  0
  2 17  1  0  0  0  0
  4  9  2  0  0  0  0
  5  7  1  1  0  0  0
  5 11  1  0  0  0  0
  6 16  1  0  0  0  0
  7  4  1  0  0  0  0
  7  2  2  0  0  0  0
  9  6  1  0  0  0  0
 10 15  1  1  0  0  0
 10 20  1  0  0  0  0
 11 26  1  6  0  0  0
 11 20  1  0  0  0  0
 12  8  1  0  0  0  0
 12  4  1  0  0  0  0
 13 19  1  0  0  0  0
 14  3  1  6  0  0  0
 14 18  1  0  0  0  0
 14 10  1  0  0  0  0
 15 13  1  0  0  0  0
 17  6  2  0  0  0  0
 18  5  1  0  0  0  0
 18  8  1  1  0  0  0
 20  1  1  0  0  0  0
 21 23  2  0  0  0  0
 21 25  1  0  0  0  0
 22 21  2  0  0  0  0
 25 24  1  0  0  0  0
 26 27  1  0  0  0  0
 28 27  1  0  0  0  0
M  END
>  <MODEL>
7

>  <REMARK>
 VINA RESULT:      -3.9      3.015      5.380
  Name = 
  4 active torsions:
  status: ('A' for Active; 'I' for Inactive)
    1  A    between atoms: C_1  and  S_2
    2  A    between atoms: S_2  and  C_11
    3  A    between atoms: C_6  and  C_28
    4  A    between atoms: C_17  and  C_28
                            x       y       z     vdW  Elec       q    Type
                         _______ _______ _______ _____ _____    ______ ____

>  <TORSDO>
F 4

$$$$
=
 OpenBabel10272401583D

 28 31  0  0  1  0  0  0  0  0999 V2000
  183.0580  179.1050  142.0200 C   0  0  2  0  0  3  0  0  0  0  0  0
  185.3510  178.2970  137.0190 C   0  0  0  0  0  3  0  0  0  0  0  0
  179.9890  178.0360  138.1990 C   0  0  0  0  0  1  0  0  0  0  0  0
  184.7450  176.0530  137.7260 C   0  0  0  0  0  0  0  0  0  0  0  0
  183.1840  177.9820  138.2510 C   0  0  2  0  0  3  0  0  0  0  0  0
  186.8400  176.4430  136.5710 C   0  0  0  0  0  0  0  0  0  0  0  0
  184.4420  177.4280  137.6360 C   0  0  0  0  0  0  0  0  0  0  0  0
  182.7290  175.7810  139.1790 C   0  0  0  0  0  2  0  0  0  0  0  0
  185.9380  175.5690  137.1830 C   0  0  0  0  0  3  0  0  0  0  0  0
  181.2350  178.3460  140.3490 C   0  0  1  0  0  3  0  0  0  0  0  0
  183.5160  178.8240  139.4990 C   0  0  2  0  0  3  0  0  0  0  0  0
  183.7620  175.0790  138.3040 C   0  0  0  0  0  2  0  0  0  0  0  0
  180.6190  178.9560  142.6710 C   0  0  0  0  0  2  0  0  0  0  0  0
  180.9590  177.3930  139.1730 C   0  0  2  0  0  3  0  0  0  0  0  0
  180.3490  177.9880  141.5330 C   0  0  0  0  0  2  0  0  0  0  0  0
  188.0560  175.9440  136.0260 N   0  0  0  0  0  1  0  0  0  0  0  0
  186.5460  177.8060  136.4870 C   0  0  0  0  0  3  0  0  0  0  0  0
  182.1620  176.9240  138.4600 N   0  0  1  0  0  0  0  0  0  0  0  0
  182.0570  178.7890  143.1360 C   0  0  0  0  0  2  0  0  0  0  0  0
  182.7220  178.3410  140.7220 C   0  0  1  0  0  3  0  0  0  0  0  0
  184.6860  178.6450  142.6120 S   0  0  0  0  0  0  0  0  0  0  0  0
  185.0490  177.2990  142.0470 O   0  0  0  0  0  0  0  0  0  0  0  0
  185.6890  179.6620  142.1420 O   0  0  0  0  0  0  0  0  0  0  0  0
  186.0450  177.9200  144.8410 C   0  0  0  0  0  1  0  0  0  0  0  0
  184.7440  178.5530  144.3910 C   0  0  0  0  0  2  0  0  0  0  0  0
  183.2300  180.2870  139.1620 C   0  0  0  0  0  2  0  0  0  0  0  0
  182.2380  180.4050  138.0240 C   0  0  0  0  0  2  0  0  0  0  0  0
  181.2790  181.5430  138.3080 C   0  0  0  0  0  1  0  0  0  0  0  0
  1 21  1  1  0  0  0
  1 19  1  0  0  0  0
  2  7  1  0  0  0  0
  4 12  1  0  0  0  0
  5  7  1  1  0  0  0
  5 18  1  0  0  0  0
  5 11  1  0  0  0  0
  6  9  2  0  0  0  0
  7  4  2  0  0  0  0
  9  4  1  0  0  0  0
 10 20  1  0  0  0  0
 10 15  1  1  0  0  0
 11 26  1  6  0  0  0
 11 20  1  0  0  0  0
 12  8  1  0  0  0  0
 13 19  1  0  0  0  0
 14  3  1  6  0  0  0
 14 10  1  0  0  0  0
 15 13  1  0  0  0  0
 16  6  1  0  0  0  0
 17  6  1  0  0  0  0
 17  2  2  0  0  0  0
 18 14  1  0  0  0  0
 18  8  1  1  0  0  0
 20  1  1  0  0  0  0
 21 25  1  0  0  0  0
 22 21  2  0  0  0  0
 23 21  2  0  0  0  0
 25 24  1  0  0  0  0
 27 28  1  0  0  0  0
 27 26  1  0  0  0  0
M  END
>  <MODEL>
8

>  <REMARK>
 VINA RESULT:      -3.7      2.860      5.998
  Name = 
  4 active torsions:
  status: ('A' for Active; 'I' for Inactive)
    1  A    between atoms: C_1  and  S_2
    2  A    between atoms: S_2  and  C_11
    3  A    between atoms: C_6  and  C_28
    4  A    between atoms: C_17  and  C_28
                            x       y       z     vdW  Elec       q    Type
                         _______ _______ _______ _____ _____    ______ ____

>  <TORSDO>
F 4

$$$$
=
 OpenBabel10272401583D

 28 31  0  0  1  0  0  0  0  0999 V2000
  197.2450  169.6350  137.1250 C   0  0  2  0  0  3  0  0  0  0  0  0
  193.3400  173.2440  135.4980 C   0  0  0  0  0  3  0  0  0  0  0  0
  198.7720  174.0750  135.3590 C   0  0  0  0  0  1  0  0  0  0  0  0
  194.1130  174.1680  137.6080 C   0  0  0  0  0  0  0  0  0  0  0  0
  195.7940  173.1230  136.0240 C   0  0  2  0  0  3  0  0  0  0  0  0
  191.7540  174.2100  137.0510 C   0  0  0  0  0  0  0  0  0  0  0  0
  194.3910  173.5390  136.3770 C   0  0  0  0  0  0  0  0  0  0  0  0
  196.5030  173.8090  138.2460 C   0  0  0  0  0  2  0  0  0  0  0  0
  192.7970  174.5100  137.9320 C   0  0  0  0  0  3  0  0  0  0  0  0
  198.3580  171.8850  136.5030 C   0  0  1  0  0  3  0  0  0  0  0  0
  195.9330  171.5880  136.0730 C   0  0  2  0  0  3  0  0  0  0  0  0
  195.2170  174.5760  138.5380 C   0  0  0  0  0  2  0  0  0  0  0  0
  199.7550  169.9430  137.1480 C   0  0  0  0  0  2  0  0  0  0  0  0
  198.1900  173.4120  136.5940 C   0  0  2  0  0  3  0  0  0  0  0  0
  199.5930  171.4470  137.2740 C   0  0  0  0  0  2  0  0  0  0  0  0
  190.4160  174.5540  137.3890 N   0  0  0  0  0  1  0  0  0  0  0  0
  192.0260  173.5790  135.8340 C   0  0  0  0  0  3  0  0  0  0  0  0
  196.8060  173.8710  136.8140 N   0  0  1  0  0  0  0  0  0  0  0  0
  198.5660  169.2590  137.8040 C   0  0  0  0  0  2  0  0  0  0  0  0
  197.0940  171.1650  136.9850 C   0  0  1  0  0  3  0  0  0  0  0  0
  195.9170  168.9660  138.1260 S   0  0  0  0  0  0  0  0  0  0  0  0
  196.5090  168.1580  139.2480 O   0  0  0  0  0  0  0  0  0  0  0  0
  195.1160  170.0990  138.7060 O   0  0  0  0  0  0  0  0  0  0  0  0
  193.3880  168.2000  137.5290 C   0  0  0  0  0  1  0  0  0  0  0  0
  194.8340  167.9180  137.1750 C   0  0  0  0  0  2  0  0  0  0  0  0
  196.1110  171.0920  134.6380 C   0  0  0  0  0  2  0  0  0  0  0  0
  195.3050  169.8340  134.3870 C   0  0  0  0  0  2  0  0  0  0  0  0
  193.8280  170.1690  134.4110 C   0  0  0  0  0  1  0  0  0  0  0  0
  1 19  1  0  0  0  0
  1 21  1  1  0  0  0
  2 17  2  0  0  0  0
  2  7  1  0  0  0  0
  4  9  1  0  0  0  0
  4 12  1  0  0  0  0
  5 11  1  0  0  0  0
  5  7  1  1  0  0  0
  5 18  1  0  0  0  0
  6 16  1  0  0  0  0
  6  9  2  0  0  0  0
  7  4  2  0  0  0  0
  8 12  1  0  0  0  0
 10 14  1  0  0  0  0
 10 20  1  0  0  0  0
 10 15  1  1  0  0  0
 11 26  1  6  0  0  0
 11 20  1  0  0  0  0
 13 15  1  0  0  0  0
 13 19  1  0  0  0  0
 14  3  1  6  0  0  0
 14 18  1  0  0  0  0
 17  6  1  0  0  0  0
 18  8  1  1  0  0  0
 20  1  1  0  0  0  0
 21 23  2  0  0  0  0
 21 22  2  0  0  0  0
 25 24  1  0  0  0  0
 25 21  1  0  0  0  0
 27 28  1  0  0  0  0
 27 26  1  0  0  0  0
M  END
>  <MODEL>
9

>  <REMARK>
 VINA RESULT:      -3.6     13.295     16.751
  Name = 
  4 active torsions:
  status: ('A' for Active; 'I' for Inactive)
    1  A    between atoms: C_1  and  S_2
    2  A    between atoms: S_2  and  C_11
    3  A    between atoms: C_6  and  C_28
    4  A    between atoms: C_17  and  C_28
                            x       y       z     vdW  Elec       q    Type
                         _______ _______ _______ _____ _____    ______ ____

>  <TORSDO>
F 4

$$$$
