=
 OpenBabel10272401243D

 55 59  0  0  1  0  0  0  0  0999 V2000
  186.5770  178.4150  142.1770 C   0  0  0  0  0  2  0  0  0  0  0  0
  188.6010  177.7400  135.5150 S   0  0  0  0  0  0  0  0  0  0  0  0
  184.8870  176.3900  135.4870 O   0  0  0  0  0  0  0  0  0  0  0  0
  181.9030  174.2070  135.4010 C   0  0  0  0  0  3  0  0  0  0  0  0
  180.6440  174.0390  135.9790 C   0  0  0  0  0  3  0  0  0  0  0  0
  182.5440  175.7080  137.2080 C   0  0  0  0  0  0  0  0  0  0  0  0
  181.2780  175.5190  137.7820 C   0  0  0  0  0  3  0  0  0  0  0  0
  184.6160  174.2880  134.5850 O   0  0  0  0  0  0  0  0  0  0  0  0
  180.3300  174.6990  137.1680 C   0  0  0  0  0  3  0  0  0  0  0  0
  182.8610  175.0410  135.9960 C   0  0  0  0  0  0  0  0  0  0  0  0
  184.4750  178.0860  140.8640 C   0  0  0  0  0  2  0  0  0  0  0  0
  188.3780  179.0710  140.5370 C   0  0  0  0  0  2  0  0  0  0  0  0
  184.5740  178.1770  139.3540 C   0  0  0  0  0  2  0  0  0  0  0  0
  188.7240  179.7510  137.4860 O   0  0  0  0  0  1  0  0  0  0  0  0
  183.5760  176.4800  137.9390 C   0  0  0  0  0  3  0  0  0  0  0  0
  186.7870  177.8370  135.5460 C   0  0  0  0  0  2  0  0  0  0  0  0
  186.2130  176.5400  135.0110 C   0  0  0  0  0  2  0  0  0  0  0  0
  188.8050  177.4560  137.3240 C   0  0  1  0  0  3  0  0  0  0  0  0
  185.4070  179.1060  141.4940 C   0  0  0  0  0  2  0  0  0  0  0  0
  184.1650  175.2080  135.3210 C   0  0  0  0  0  0  0  0  0  0  0  0
  187.6090  177.9130  141.1680 C   0  0  1  0  0  3  0  0  0  0  0  0
  188.3890  178.6080  138.1380 N   0  0  0  0  0  0  0  0  0  0  0  0
  183.3790  177.5570  138.7050 C   0  0  0  0  0  0  0  0  0  0  0  0
  189.2030  178.5970  139.3450 C   0  0  0  0  0  2  0  0  0  0  0  0
  182.0370  178.2300  138.8100 C   0  0  1  0  0  3  0  0  0  0  0  0
  181.5690  180.2120  137.9130 C   0  0  1  0  0  3  0  0  0  0  0  0
  182.0220  179.1280  139.8930 O   0  0  0  0  0  0  0  0  0  0  0  0
  181.4010  180.2690  139.3960 C   0  0  0  0  0  2  0  0  0  0  0  0
  181.7180  178.8670  137.5920 O   0  0  0  0  0  0  0  0  0  0  0  0
  180.3440  180.7820  137.2200 C   0  0  0  0  0  3  0  0  0  0  0  0
  180.7900  181.6460  136.0560 C   0  0  0  0  0  2  0  0  0  0  0  0
  180.3420  182.2930  137.3510 C   0  0  0  0  0  2  0  0  0  0  0  0
  188.0370  176.2030  137.7360 C   0  0  0  0  0  2  0  0  0  0  0  0
  188.5750  174.9670  137.0470 C   0  0  0  0  0  2  0  0  0  0  0  0
  190.0080  174.7400  137.4950 C   0  0  0  0  0  2  0  0  0  0  0  0
  190.9160  174.8270  136.3550 N   0  0  0  0  0  0  0  0  0  0  0  0
  192.3090  176.4520  137.4420 C   0  0  0  0  0  2  0  0  0  0  0  0
  192.1460  175.5730  136.4520 C   0  0  0  0  0  0  0  0  0  0  0  0
  194.5940  175.9650  136.0510 C   0  0  0  0  0  2  0  0  0  0  0  0
  194.4130  174.5850  136.6370 C   0  0  1  0  0  3  0  0  0  0  0  0
  193.3680  175.1430  135.6820 C   0  0  1  0  0  3  0  0  0  0  0  0
  195.2810  173.5970  135.8860 C   0  0  0  0  0  2  0  0  0  0  0  0
  196.4150  173.1400  136.7910 C   0  0  0  0  0  2  0  0  0  0  0  0
  195.8860  172.2480  137.9050 C   0  0  0  0  0  2  0  0  0  0  0  0
  195.0630  169.7980  138.1180 C   0  0  0  0  0  1  0  0  0  0  0  0
  196.8920  170.4370  136.7870 O   0  0  0  0  0  0  0  0  0  0  0  0
  196.0070  170.8010  137.5450 C   0  0  0  0  0  0  0  0  0  0  0  0
  190.5870  174.0840  135.1410 C   0  0  0  0  0  2  0  0  0  0  0  0
  191.9350  171.9740  134.7860 C   0  0  0  0  0  1  0  0  0  0  0  0
  189.4410  171.8720  134.7600 C   0  0  0  0  0  1  0  0  0  0  0  0
  190.6550  172.5690  135.3450 C   0  0  0  0  0  3  0  0  0  0  0  0
  188.5550  176.9100  141.8300 C   0  0  0  0  0  2  0  0  0  0  0  0
  188.1690  176.5840  143.2630 C   0  0  0  0  0  2  0  0  0  0  0  0
  188.6650  177.3350  145.5640 C   0  0  0  0  0  1  0  0  0  0  0  0
  189.2680  177.0340  144.2040 C   0  0  0  0  0  2  0  0  0  0  0  0
  2 16  1  0  0  0  0
  2 18  1  0  0  0  0
  4  5  2  0  0  0  0
  4 10  1  0  0  0  0
  5  9  1  0  0  0  0
  6  7  1  0  0  0  0
  6 15  1  0  0  0  0
  8 20  2  0  0  0  0
  9  7  2  0  0  0  0
 10  6  2  0  0  0  0
 11 19  1  0  0  0  0
 12 21  1  0  0  0  0
 13 11  1  0  0  0  0
 14 22  1  0  0  0  0
 15 23  2  0  0  0  0
 17  3  1  0  0  0  0
 17 16  1  0  0  0  0
 18 33  1  1  0  0  0
 18 22  1  0  0  0  0
 19  1  1  0  0  0  0
 20  3  1  0  0  0  0
 20 10  1  0  0  0  0
 21 52  1  1  0  0  0
 21  1  1  0  0  0  0
 22 24  1  0  0  0  0
 23 13  1  0  0  0  0
 24 12  1  0  0  0  0
 25 23  1  6  0  0  0
 25 27  1  0  0  0  0
 26 30  1  6  0  0  0
 26 28  1  0  0  0  0
 28 27  1  0  0  0  0
 29 26  1  0  0  0  0
 29 25  1  0  0  0  0
 30 32  1  0  0  0  0
 31 30  1  0  0  0  0
 31 32  1  0  0  0  0
 34 35  1  0  0  0  0
 34 33  1  0  0  0  0
 36 38  1  0  0  0  0
 36 35  1  0  0  0  0
 38 37  2  0  0  0  0
 39 40  1  0  0  0  0
 40 42  1  6  0  0  0
 41 39  1  0  0  0  0
 41 38  1  1  0  0  0
 41 40  1  0  0  0  0
 42 43  1  0  0  0  0
 43 44  1  0  0  0  0
 46 47  2  0  0  0  0
 47 44  1  0  0  0  0
 47 45  1  0  0  0  0
 48 51  1  0  0  0  0
 48 36  1  0  0  0  0
 49 51  1  0  0  0  0
 50 51  1  0  0  0  0
 52 53  1  0  0  0  0
 53 55  1  0  0  0  0
 55 54  1  0  0  0  0
M  END
>  <MODEL>
1

>  <REMARK>
 VINA RESULT:      -5.9      0.000      0.000
  Name = 
  17 active torsions:
  status: ('A' for Active; 'I' for Inactive)
    1  A    between atoms: C_3  and  C_14
    2  A    between atoms: C_3  and  C_21
    3  A    between atoms: C_6  and  C_14
    4  A    between atoms: C_6  and  C_38
    5  A    between atoms: C_8  and  C_20
    6  A    between atoms: C_8  and  C_22
    7  A    between atoms: C_10  and  C_32
    8  A    between atoms: N_12  and  C_20
    9  A    between atoms: N_12  and  C_42
   10  A    between atoms: N_12  and  C_46
   11  A    between atoms: C_13  and  C_52
   12  A    between atoms: C_22  and  C_43
   13  A    between atoms: C_27  and  C_49
   14  A    between atoms: C_27  and  C_55
   15  A    between atoms: C_41  and  C_55
   16  A    between atoms: C_42  and  C_50
   17  A    between atoms: C_46  and  C_53
                            x       y       z     vdW  Elec       q    Type
                         _______ _______ _______ _____ _____    ______ ____

>  <TORSDO>
F 17

$$$$
=
 OpenBabel10272401243D

 55 59  0  0  1  0  0  0  0  0999 V2000
  186.5470  178.4100  142.2040 C   0  0  0  0  0  2  0  0  0  0  0  0
  188.7900  177.7970  135.6060 S   0  0  0  0  0  0  0  0  0  0  0  0
  185.0640  176.4920  135.4340 O   0  0  0  0  0  0  0  0  0  0  0  0
  182.0590  174.3470  135.2180 C   0  0  0  0  0  3  0  0  0  0  0  0
  180.7790  174.1870  135.7500 C   0  0  0  0  0  3  0  0  0  0  0  0
  182.6550  175.8170  137.0650 C   0  0  0  0  0  0  0  0  0  0  0  0
  181.3680  175.6360  137.5930 C   0  0  0  0  0  3  0  0  0  0  0  0
  184.7990  174.4060  134.4950 O   0  0  0  0  0  0  0  0  0  0  0  0
  180.4320  174.8350  136.9370 C   0  0  0  0  0  3  0  0  0  0  0  0
  183.0050  175.1620  135.8550 C   0  0  0  0  0  0  0  0  0  0  0  0
  184.4880  178.1230  140.8160 C   0  0  0  0  0  2  0  0  0  0  0  0
  188.4110  179.0660  140.6360 C   0  0  0  0  0  2  0  0  0  0  0  0
  184.6390  178.2330  139.3120 C   0  0  0  0  0  2  0  0  0  0  0  0
  188.8680  179.7800  137.6080 O   0  0  0  0  0  1  0  0  0  0  0  0
  183.6700  176.5670  137.8410 C   0  0  0  0  0  3  0  0  0  0  0  0
  186.9770  177.9150  135.5770 C   0  0  0  0  0  2  0  0  0  0  0  0
  186.4070  176.6330  135.0060 C   0  0  0  0  0  2  0  0  0  0  0  0
  188.9290  177.4880  137.4180 C   0  0  1  0  0  3  0  0  0  0  0  0
  185.4090  179.1240  141.4910 C   0  0  0  0  0  2  0  0  0  0  0  0
  184.3340  175.3220  135.2280 C   0  0  0  0  0  0  0  0  0  0  0  0
  187.6070  177.9090  141.2250 C   0  0  1  0  0  3  0  0  0  0  0  0
  188.4980  178.6330  138.2320 N   0  0  0  0  0  0  0  0  0  0  0  0
  183.4600  177.6360  138.6140 C   0  0  0  0  0  0  0  0  0  0  0  0
  189.2700  178.5970  139.4660 C   0  0  0  0  0  2  0  0  0  0  0  0
  182.1230  178.3230  138.6830 C   0  0  1  0  0  3  0  0  0  0  0  0
  181.8270  180.4990  138.3180 C   0  0  1  0  0  3  0  0  0  0  0  0
  181.9250  178.8860  139.9580 O   0  0  0  0  0  0  0  0  0  0  0  0
  181.4040  180.1510  139.7080 C   0  0  0  0  0  2  0  0  0  0  0  0
  182.0220  179.2900  137.6590 O   0  0  0  0  0  0  0  0  0  0  0  0
  180.7420  181.3030  137.6220 C   0  0  0  0  0  3  0  0  0  0  0  0
  181.1430  182.7660  137.6060 C   0  0  0  0  0  2  0  0  0  0  0  0
  180.1170  182.2730  138.6070 C   0  0  0  0  0  2  0  0  0  0  0  0
  188.1320  176.2380  137.7860 C   0  0  0  0  0  2  0  0  0  0  0  0
  188.8990  174.9730  137.4650 C   0  0  0  0  0  2  0  0  0  0  0  0
  188.0360  174.0850  136.5870 C   0  0  0  0  0  2  0  0  0  0  0  0
  188.8570  173.4100  135.5860 N   0  0  0  0  0  0  0  0  0  0  0  0
  190.6140  174.6360  134.5020 C   0  0  0  0  0  2  0  0  0  0  0  0
  190.2500  173.7490  135.4300 C   0  0  0  0  0  0  0  0  0  0  0  0
  192.4270  172.6070  135.9450 C   0  0  0  0  0  2  0  0  0  0  0  0
  192.5780  174.0850  136.2170 C   0  0  1  0  0  3  0  0  0  0  0  0
  191.2500  173.3970  136.5010 C   0  0  1  0  0  3  0  0  0  0  0  0
  193.3110  174.2880  137.5260 C   0  0  0  0  0  2  0  0  0  0  0  0
  194.6520  174.9500  137.2500 C   0  0  0  0  0  2  0  0  0  0  0  0
  195.7640  174.2540  138.0220 C   0  0  0  0  0  2  0  0  0  0  0  0
  196.2460  172.2110  136.4980 C   0  0  0  0  0  1  0  0  0  0  0  0
  195.3070  172.0310  138.6450 O   0  0  0  0  0  0  0  0  0  0  0  0
  195.7450  172.7770  137.7850 C   0  0  0  0  0  0  0  0  0  0  0  0
  188.2570  172.3370  134.7970 C   0  0  0  0  0  2  0  0  0  0  0  0
  188.1300  169.9050  135.4820 C   0  0  0  0  0  1  0  0  0  0  0  0
  186.0530  171.2880  135.4230 C   0  0  0  0  0  1  0  0  0  0  0  0
  187.5500  171.2960  135.6680 C   0  0  0  0  0  3  0  0  0  0  0  0
  188.5170  176.8860  141.9050 C   0  0  0  0  0  2  0  0  0  0  0  0
  188.1270  176.6070  143.3470 C   0  0  0  0  0  2  0  0  0  0  0  0
  188.6310  177.2350  145.6830 C   0  0  0  0  0  1  0  0  0  0  0  0
  189.1980  177.1360  144.2790 C   0  0  0  0  0  2  0  0  0  0  0  0
  2 18  1  0  0  0  0
  4  5  2  0  0  0  0
  4 10  1  0  0  0  0
  5  9  1  0  0  0  0
  6  7  1  0  0  0  0
  6 15  1  0  0  0  0
  8 20  2  0  0  0  0
  9  7  2  0  0  0  0
 10  6  2  0  0  0  0
 11 19  1  0  0  0  0
 12 21  1  0  0  0  0
 13 11  1  0  0  0  0
 14 22  1  0  0  0  0
 15 23  2  0  0  0  0
 16  2  1  0  0  0  0
 17  3  1  0  0  0  0
 17 16  1  0  0  0  0
 18 33  1  1  0  0  0
 18 22  1  0  0  0  0
 19  1  1  0  0  0  0
 20  3  1  0  0  0  0
 20 10  1  0  0  0  0
 21 52  1  1  0  0  0
 21  1  1  0  0  0  0
 22 24  1  0  0  0  0
 23 13  1  0  0  0  0
 24 12  1  0  0  0  0
 25 23  1  1  0  0  0
 25 27  1  0  0  0  0
 26 30  1  6  0  0  0
 26 28  1  0  0  0  0
 28 27  1  0  0  0  0
 29 26  1  0  0  0  0
 29 25  1  0  0  0  0
 30 32  1  0  0  0  0
 31 30  1  0  0  0  0
 31 32  1  0  0  0  0
 34 33  1  0  0  0  0
 35 34  1  0  0  0  0
 36 35  1  0  0  0  0
 37 38  2  0  0  0  0
 38 36  1  0  0  0  0
 39 40  1  0  0  0  0
 39 41  1  0  0  0  0
 40 41  1  0  0  0  0
 40 42  1  1  0  0  0
 41 38  1  6  0  0  0
 43 42  1  0  0  0  0
 43 44  1  0  0  0  0
 45 47  1  0  0  0  0
 47 44  1  0  0  0  0
 47 46  2  0  0  0  0
 48 36  1  0  0  0  0
 48 51  1  0  0  0  0
 49 51  1  0  0  0  0
 50 51  1  0  0  0  0
 52 53  1  0  0  0  0
 53 55  1  0  0  0  0
 55 54  1  0  0  0  0
M  END
>  <MODEL>
2

>  <REMARK>
 VINA RESULT:      -5.7      1.054      1.718
  Name = 
  17 active torsions:
  status: ('A' for Active; 'I' for Inactive)
    1  A    between atoms: C_3  and  C_14
    2  A    between atoms: C_3  and  C_21
    3  A    between atoms: C_6  and  C_14
    4  A    between atoms: C_6  and  C_38
    5  A    between atoms: C_8  and  C_20
    6  A    between atoms: C_8  and  C_22
    7  A    between atoms: C_10  and  C_32
    8  A    between atoms: N_12  and  C_20
    9  A    between atoms: N_12  and  C_42
   10  A    between atoms: N_12  and  C_46
   11  A    between atoms: C_13  and  C_52
   12  A    between atoms: C_22  and  C_43
   13  A    between atoms: C_27  and  C_49
   14  A    between atoms: C_27  and  C_55
   15  A    between atoms: C_41  and  C_55
   16  A    between atoms: C_42  and  C_50
   17  A    between atoms: C_46  and  C_53
                            x       y       z     vdW  Elec       q    Type
                         _______ _______ _______ _____ _____    ______ ____

>  <TORSDO>
F 17

$$$$
=
 OpenBabel10272401243D

 55 59  0  0  1  0  0  0  0  0999 V2000
  186.5760  178.4770  142.0560 C   0  0  0  0  0  2  0  0  0  0  0  0
  188.1330  177.6100  135.2920 S   0  0  0  0  0  0  0  0  0  0  0  0
  184.4580  176.1870  135.5770 O   0  0  0  0  0  0  0  0  0  0  0  0
  181.5240  173.9430  135.7800 C   0  0  0  0  0  3  0  0  0  0  0  0
  180.3140  173.7710  136.4530 C   0  0  0  0  0  3  0  0  0  0  0  0
  182.2600  175.5190  137.4850 C   0  0  0  0  0  0  0  0  0  0  0  0
  181.0420  175.3250  138.1540 C   0  0  0  0  0  3  0  0  0  0  0  0
  184.1700  174.0490  134.7680 O   0  0  0  0  0  0  0  0  0  0  0  0
  180.0710  174.4650  137.6390 C   0  0  0  0  0  3  0  0  0  0  0  0
  182.5030  174.8160  136.2760 C   0  0  0  0  0  0  0  0  0  0  0  0
  184.3940  178.0600  140.9110 C   0  0  0  0  0  2  0  0  0  0  0  0
  188.2400  179.1120  140.2700 C   0  0  0  0  0  2  0  0  0  0  0  0
  184.3810  178.1010  139.3950 C   0  0  0  0  0  2  0  0  0  0  0  0
  188.3510  179.6910  137.1810 O   0  0  0  0  0  1  0  0  0  0  0  0
  183.3240  176.3360  138.1130 C   0  0  0  0  0  3  0  0  0  0  0  0
  186.3240  177.6720  135.4510 C   0  0  0  0  0  2  0  0  0  0  0  0
  185.7420  176.3470  135.0020 C   0  0  0  0  0  2  0  0  0  0  0  0
  188.4720  177.3940  137.0900 C   0  0  1  0  0  3  0  0  0  0  0  0
  185.3450  179.1200  141.4370 C   0  0  0  0  0  2  0  0  0  0  0  0
  183.7520  174.9850  135.5030 C   0  0  0  0  0  0  0  0  0  0  0  0
  187.5440  177.9610  140.9930 C   0  0  1  0  0  3  0  0  0  0  0  0
  188.0890  178.5650  137.8930 N   0  0  0  0  0  0  0  0  0  0  0  0
  183.1580  177.4360  138.8550 C   0  0  0  0  0  0  0  0  0  0  0  0
  188.9870  178.6130  139.0380 C   0  0  0  0  0  2  0  0  0  0  0  0
  181.8120  178.0840  139.0350 C   0  0  1  0  0  3  0  0  0  0  0  0
  181.3750  180.2020  138.5050 C   0  0  1  0  0  3  0  0  0  0  0  0
  181.7570  178.7660  140.2640 O   0  0  0  0  0  0  0  0  0  0  0  0
  181.1520  179.9830  139.9660 C   0  0  0  0  0  2  0  0  0  0  0  0
  181.5370  178.9380  137.9450 O   0  0  0  0  0  0  0  0  0  0  0  0
  180.1760  180.8970  137.8850 C   0  0  0  0  0  3  0  0  0  0  0  0
  180.6540  182.0960  137.0900 C   0  0  0  0  0  2  0  0  0  0  0  0
  180.0430  182.2930  138.4620 C   0  0  0  0  0  2  0  0  0  0  0  0
  187.7630  176.1410  137.5980 C   0  0  0  0  0  2  0  0  0  0  0  0
  188.4220  174.8800  137.0810 C   0  0  0  0  0  2  0  0  0  0  0  0
  189.7150  175.2540  136.3780 C   0  0  0  0  0  2  0  0  0  0  0  0
  190.7570  174.2770  136.6800 N   0  0  0  0  0  0  0  0  0  0  0  0
  189.7810  172.4420  135.4780 C   0  0  0  0  0  2  0  0  0  0  0  0
  190.8800  173.0700  135.9010 C   0  0  0  0  0  0  0  0  0  0  0  0
  192.7170  173.7930  134.3480 C   0  0  0  0  0  2  0  0  0  0  0  0
  193.2870  173.6460  135.7390 C   0  0  1  0  0  3  0  0  0  0  0  0
  192.1950  172.6970  135.2660 C   0  0  1  0  0  3  0  0  0  0  0  0
  194.6190  172.9290  135.6670 C   0  0  0  0  0  2  0  0  0  0  0  0
  195.7320  173.9570  135.5370 C   0  0  0  0  0  2  0  0  0  0  0  0
  196.7840  173.7490  136.6170 C   0  0  0  0  0  2  0  0  0  0  0  0
  199.2520  174.1970  135.9560 C   0  0  0  0  0  1  0  0  0  0  0  0
  197.7920  175.8740  136.7180 O   0  0  0  0  0  0  0  0  0  0  0  0
  197.9330  174.6930  136.4450 C   0  0  0  0  0  0  0  0  0  0  0  0
  191.7150  174.5810  137.7410 C   0  0  0  0  0  2  0  0  0  0  0  0
  193.2060  176.6210  137.6330 C   0  0  0  0  0  1  0  0  0  0  0  0
  191.5020  176.4250  139.4460 C   0  0  0  0  0  1  0  0  0  0  0  0
  191.8360  176.0830  138.0060 C   0  0  0  0  0  3  0  0  0  0  0  0
  188.5570  177.0010  141.6180 C   0  0  0  0  0  2  0  0  0  0  0  0
  188.2720  176.7040  143.0810 C   0  0  0  0  0  2  0  0  0  0  0  0
  190.6490  177.3730  142.9880 C   0  0  0  0  0  1  0  0  0  0  0  0
  189.5060  176.9890  143.9110 C   0  0  0  0  0  2  0  0  0  0  0  0
  2 16  1  0  0  0  0
  2 18  1  0  0  0  0
  4 10  2  0  0  0  0
  4  5  1  0  0  0  0
  5  9  2  0  0  0  0
  6 15  1  0  0  0  0
  6  7  2  0  0  0  0
  8 20  2  0  0  0  0
  9  7  1  0  0  0  0
 10  6  1  0  0  0  0
 11 19  1  0  0  0  0
 12 21  1  0  0  0  0
 13 11  1  0  0  0  0
 14 22  1  0  0  0  0
 15 23  2  0  0  0  0
 17 16  1  0  0  0  0
 17  3  1  0  0  0  0
 18 33  1  1  0  0  0
 18 22  1  0  0  0  0
 19  1  1  0  0  0  0
 20  3  1  0  0  0  0
 20 10  1  0  0  0  0
 21 52  1  1  0  0  0
 21  1  1  0  0  0  0
 22 24  1  0  0  0  0
 23 13  1  0  0  0  0
 24 12  1  0  0  0  0
 25 23  1  6  0  0  0
 25 27  1  0  0  0  0
 26 30  1  6  0  0  0
 26 28  1  0  0  0  0
 28 27  1  0  0  0  0
 29 26  1  0  0  0  0
 29 25  1  0  0  0  0
 30 32  1  0  0  0  0
 31 30  1  0  0  0  0
 31 32  1  0  0  0  0
 34 33  1  0  0  0  0
 35 36  1  0  0  0  0
 35 34  1  0  0  0  0
 36 48  1  0  0  0  0
 37 38  2  0  0  0  0
 38 36  1  0  0  0  0
 39 41  1  0  0  0  0
 39 40  1  0  0  0  0
 40 42  1  6  0  0  0
 41 40  1  0  0  0  0
 41 38  1  1  0  0  0
 43 42  1  0  0  0  0
 43 44  1  0  0  0  0
 45 47  1  0  0  0  0
 47 44  1  0  0  0  0
 47 46  2  0  0  0  0
 48 51  1  0  0  0  0
 49 51  1  0  0  0  0
 51 50  1  0  0  0  0
 52 53  1  0  0  0  0
 53 55  1  0  0  0  0
 54 55  1  0  0  0  0
M  END
>  <MODEL>
3

>  <REMARK>
 VINA RESULT:      -4.9      1.304      2.280
  Name = 
  17 active torsions:
  status: ('A' for Active; 'I' for Inactive)
    1  A    between atoms: C_3  and  C_14
    2  A    between atoms: C_3  and  C_21
    3  A    between atoms: C_6  and  C_14
    4  A    between atoms: C_6  and  C_38
    5  A    between atoms: C_8  and  C_20
    6  A    between atoms: C_8  and  C_22
    7  A    between atoms: C_10  and  C_32
    8  A    between atoms: N_12  and  C_20
    9  A    between atoms: N_12  and  C_42
   10  A    between atoms: N_12  and  C_46
   11  A    between atoms: C_13  and  C_52
   12  A    between atoms: C_22  and  C_43
   13  A    between atoms: C_27  and  C_49
   14  A    between atoms: C_27  and  C_55
   15  A    between atoms: C_41  and  C_55
   16  A    between atoms: C_42  and  C_50
   17  A    between atoms: C_46  and  C_53
                            x       y       z     vdW  Elec       q    Type
                         _______ _______ _______ _____ _____    ______ ____

>  <TORSDO>
F 17

$$$$
=
 OpenBabel10272401243D

 55 59  0  0  1  0  0  0  0  0999 V2000
  187.4230  178.2250  142.1730 C   0  0  0  0  0  2  0  0  0  0  0  0
  187.9590  177.5580  135.2300 S   0  0  0  0  0  0  0  0  0  0  0  0
  184.3380  176.1800  136.0070 O   0  0  0  0  0  0  0  0  0  0  0  0
  181.4230  173.9750  136.5700 C   0  0  0  0  0  3  0  0  0  0  0  0
  180.3200  173.7980  137.4070 C   0  0  0  0  0  3  0  0  0  0  0  0
  182.4290  175.4830  138.1950 C   0  0  0  0  0  0  0  0  0  0  0  0
  181.3190  175.2850  139.0300 C   0  0  0  0  0  3  0  0  0  0  0  0
  183.8940  174.0750  135.1840 O   0  0  0  0  0  0  0  0  0  0  0  0
  180.2670  174.4570  138.6360 C   0  0  0  0  0  3  0  0  0  0  0  0
  182.4800  174.8170  136.9430 C   0  0  0  0  0  0  0  0  0  0  0  0
  185.0890  177.8790  141.3470 C   0  0  0  0  0  2  0  0  0  0  0  0
  188.8210  178.8940  140.1820 C   0  0  0  0  0  2  0  0  0  0  0  0
  184.8570  177.9700  139.8520 C   0  0  0  0  0  2  0  0  0  0  0  0
  188.4910  179.5720  137.1290 O   0  0  0  0  0  1  0  0  0  0  0  0
  183.5890  176.2630  138.6860 C   0  0  0  0  0  3  0  0  0  0  0  0
  186.1940  177.6410  135.6540 C   0  0  0  0  0  2  0  0  0  0  0  0
  185.5280  176.3400  135.2560 C   0  0  0  0  0  2  0  0  0  0  0  0
  188.5530  177.2780  136.9520 C   0  0  1  0  0  3  0  0  0  0  0  0
  186.1280  178.9070  141.7600 C   0  0  0  0  0  2  0  0  0  0  0  0
  183.6060  174.9930  136.0010 C   0  0  0  0  0  0  0  0  0  0  0  0
  188.2160  177.7300  140.9640 C   0  0  1  0  0  3  0  0  0  0  0  0
  188.3140  178.4280  137.8370 N   0  0  0  0  0  0  0  0  0  0  0  0
  183.5550  177.3400  139.4770 C   0  0  0  0  0  0  0  0  0  0  0  0
  189.3700  178.4240  138.8390 C   0  0  0  0  0  2  0  0  0  0  0  0
  182.2630  178.0020  139.8710 C   0  0  1  0  0  3  0  0  0  0  0  0
  181.6430  180.0240  139.1760 C   0  0  1  0  0  3  0  0  0  0  0  0
  182.4620  178.8480  140.9780 O   0  0  0  0  0  0  0  0  0  0  0  0
  181.7640  180.0090  140.6650 C   0  0  0  0  0  2  0  0  0  0  0  0
  181.7180  178.6960  138.7690 O   0  0  0  0  0  0  0  0  0  0  0  0
  180.3100  180.6220  138.7600 C   0  0  0  0  0  3  0  0  0  0  0  0
  180.3890  181.0460  137.3060 C   0  0  0  0  0  2  0  0  0  0  0  0
  180.4990  182.0850  138.4040 C   0  0  0  0  0  2  0  0  0  0  0  0
  187.9010  176.0200  137.5200 C   0  0  0  0  0  2  0  0  0  0  0  0
  188.5930  174.7650  137.0300 C   0  0  0  0  0  2  0  0  0  0  0  0
  190.0810  175.0420  136.9040 C   0  0  0  0  0  2  0  0  0  0  0  0
  190.8130  173.7940  136.7090 N   0  0  0  0  0  0  0  0  0  0  0  0
  191.2810  172.1870  134.9880 C   0  0  0  0  0  2  0  0  0  0  0  0
  190.3770  172.8320  135.7280 C   0  0  0  0  0  0  0  0  0  0  0  0
  188.1530  172.7620  134.5620 C   0  0  0  0  0  2  0  0  0  0  0  0
  188.7450  171.3720  134.5630 C   0  0  1  0  0  3  0  0  0  0  0  0
  188.9710  172.2900  135.7560 C   0  0  1  0  0  3  0  0  0  0  0  0
  187.6730  170.3640  134.9200 C   0  0  0  0  0  2  0  0  0  0  0  0
  186.3410  170.8310  134.3530 C   0  0  0  0  0  2  0  0  0  0  0  0
  185.3110  169.7120  134.4130 C   0  0  0  0  0  2  0  0  0  0  0  0
  183.7100  168.8500  136.2630 C   0  0  0  0  0  1  0  0  0  0  0  0
  183.9060  171.1170  135.6760 O   0  0  0  0  0  0  0  0  0  0  0  0
  184.2840  169.9760  135.4700 C   0  0  0  0  0  0  0  0  0  0  0  0
  192.0360  173.5730  137.4790 C   0  0  0  0  0  2  0  0  0  0  0  0
  194.4850  172.9560  137.3380 C   0  0  0  0  0  1  0  0  0  0  0  0
  193.6000  174.8430  135.9650 C   0  0  0  0  0  1  0  0  0  0  0  0
  193.2800  173.4990  136.5910 C   0  0  0  0  0  3  0  0  0  0  0  0
  189.2890  176.7350  141.4040 C   0  0  0  0  0  2  0  0  0  0  0  0
  190.5690  177.4080  141.8720 C   0  0  0  0  0  2  0  0  0  0  0  0
  190.4800  177.0330  144.3130 C   0  0  0  0  0  1  0  0  0  0  0  0
  191.1680  176.6260  143.0230 C   0  0  0  0  0  2  0  0  0  0  0  0
  2 16  1  0  0  0  0
  2 18  1  0  0  0  0
  4 10  2  0  0  0  0
  4  5  1  0  0  0  0
  5  9  2  0  0  0  0
  6 15  1  0  0  0  0
  6  7  2  0  0  0  0
  8 20  2  0  0  0  0
  9  7  1  0  0  0  0
 10  6  1  0  0  0  0
 11 19  1  0  0  0  0
 12 21  1  0  0  0  0
 13 11  1  0  0  0  0
 14 22  1  0  0  0  0
 15 23  2  0  0  0  0
 17 16  1  0  0  0  0
 17  3  1  0  0  0  0
 18 33  1  1  0  0  0
 18 22  1  0  0  0  0
 19  1  1  0  0  0  0
 20  3  1  0  0  0  0
 20 10  1  0  0  0  0
 21 52  1  1  0  0  0
 21  1  1  0  0  0  0
 22 24  1  0  0  0  0
 23 13  1  0  0  0  0
 24 12  1  0  0  0  0
 25 23  1  6  0  0  0
 25 27  1  0  0  0  0
 26 30  1  1  0  0  0
 26 28  1  0  0  0  0
 28 27  1  0  0  0  0
 29 26  1  0  0  0  0
 29 25  1  0  0  0  0
 31 32  1  0  0  0  0
 31 30  1  0  0  0  0
 32 30  1  0  0  0  0
 34 33  1  0  0  0  0
 35 34  1  0  0  0  0
 36 35  1  0  0  0  0
 36 48  1  0  0  0  0
 37 38  2  0  0  0  0
 38 36  1  0  0  0  0
 39 40  1  0  0  0  0
 39 41  1  0  0  0  0
 40 42  1  1  0  0  0
 40 41  1  0  0  0  0
 41 38  1  6  0  0  0
 43 44  1  0  0  0  0
 43 42  1  0  0  0  0
 44 47  1  0  0  0  0
 47 46  2  0  0  0  0
 47 45  1  0  0  0  0
 50 51  1  0  0  0  0
 51 49  1  0  0  0  0
 51 48  1  0  0  0  0
 52 53  1  0  0  0  0
 53 55  1  0  0  0  0
 55 54  1  0  0  0  0
M  END
>  <MODEL>
4

>  <REMARK>
 VINA RESULT:      -3.3      2.075      4.338
  Name = 
  17 active torsions:
  status: ('A' for Active; 'I' for Inactive)
    1  A    between atoms: C_3  and  C_14
    2  A    between atoms: C_3  and  C_21
    3  A    between atoms: C_6  and  C_14
    4  A    between atoms: C_6  and  C_38
    5  A    between atoms: C_8  and  C_20
    6  A    between atoms: C_8  and  C_22
    7  A    between atoms: C_10  and  C_32
    8  A    between atoms: N_12  and  C_20
    9  A    between atoms: N_12  and  C_42
   10  A    between atoms: N_12  and  C_46
   11  A    between atoms: C_13  and  C_52
   12  A    between atoms: C_22  and  C_43
   13  A    between atoms: C_27  and  C_49
   14  A    between atoms: C_27  and  C_55
   15  A    between atoms: C_41  and  C_55
   16  A    between atoms: C_42  and  C_50
   17  A    between atoms: C_46  and  C_53
                            x       y       z     vdW  Elec       q    Type
                         _______ _______ _______ _____ _____    ______ ____

>  <TORSDO>
F 17

$$$$
=
 OpenBabel10272401243D

 55 59  0  0  1  0  0  0  0  0999 V2000
  183.0440  177.0400  138.8760 C   0  0  0  0  0  2  0  0  0  0  0  0
  189.2950  178.7010  136.2110 S   0  0  0  0  0  0  0  0  0  0  0  0
  188.9480  174.8480  135.4050 O   0  0  0  0  0  0  0  0  0  0  0  0
  189.3030  171.1660  135.4410 C   0  0  0  0  0  3  0  0  0  0  0  0
  188.5640  169.9870  135.3310 C   0  0  0  0  0  3  0  0  0  0  0  0
  187.2560  172.4260  135.8340 C   0  0  0  0  0  0  0  0  0  0  0  0
  186.5300  171.2290  135.7330 C   0  0  0  0  0  3  0  0  0  0  0  0
  190.7020  173.5360  136.1200 O   0  0  0  0  0  0  0  0  0  0  0  0
  187.1760  170.0200  135.4750 C   0  0  0  0  0  3  0  0  0  0  0  0
  188.6670  172.3920  135.6840 C   0  0  0  0  0  0  0  0  0  0  0  0
  183.6490  175.1530  137.3510 C   0  0  0  0  0  2  0  0  0  0  0  0
  184.5270  178.9880  138.2670 C   0  0  0  0  0  2  0  0  0  0  0  0
  184.8310  175.3570  136.4230 C   0  0  0  0  0  2  0  0  0  0  0  0
  186.6950  179.7870  136.1350 O   0  0  0  0  0  1  0  0  0  0  0  0
  186.5660  173.6740  136.2340 C   0  0  0  0  0  3  0  0  0  0  0  0
  188.6890  177.2210  135.3470 C   0  0  0  0  0  2  0  0  0  0  0  0
  189.6340  176.0690  135.6170 C   0  0  0  0  0  2  0  0  0  0  0  0
  188.0650  178.6350  137.5810 C   0  0  1  0  0  3  0  0  0  0  0  0
  182.8790  176.4550  137.4820 C   0  0  0  0  0  2  0  0  0  0  0  0
  189.4970  173.6140  135.7550 C   0  0  0  0  0  0  0  0  0  0  0  0
  184.4140  177.6890  139.0620 C   0  0  1  0  0  3  0  0  0  0  0  0
  186.6850  178.8620  137.1280 N   0  0  0  0  0  0  0  0  0  0  0  0
  185.3270  174.0490  135.9000 C   0  0  0  0  0  0  0  0  0  0  0  0
  185.9670  179.4850  138.2310 C   0  0  0  0  0  2  0  0  0  0  0  0
  184.4950  173.2720  134.9160 C   0  0  1  0  0  3  0  0  0  0  0  0
  182.3630  172.7280  135.2530 C   0  0  1  0  0  3  0  0  0  0  0  0
  184.5120  171.9010  135.2340 O   0  0  0  0  0  0  0  0  0  0  0  0
  183.1890  171.4920  135.1020 C   0  0  0  0  0  2  0  0  0  0  0  0
  183.1820  173.7880  134.8780 O   0  0  0  0  0  0  0  0  0  0  0  0
  181.1460  172.6640  134.3460 C   0  0  0  0  0  3  0  0  0  0  0  0
  180.0560  173.5520  134.9160 C   0  0  0  0  0  2  0  0  0  0  0  0
  179.9820  172.0500  135.1000 C   0  0  0  0  0  2  0  0  0  0  0  0
  188.1780  177.2960  138.3070 C   0  0  0  0  0  2  0  0  0  0  0  0
  189.3340  177.2870  139.2830 C   0  0  0  0  0  2  0  0  0  0  0  0
  189.0250  176.3090  140.4030 C   0  0  0  0  0  2  0  0  0  0  0  0
  189.1220  176.9740  141.6990 N   0  0  0  0  0  0  0  0  0  0  0  0
  187.6800  178.8820  141.4910 C   0  0  0  0  0  2  0  0  0  0  0  0
  188.0440  177.8010  142.1820 C   0  0  0  0  0  0  0  0  0  0  0  0
  187.6970  176.1250  144.0210 C   0  0  0  0  0  2  0  0  0  0  0  0
  187.7140  177.5100  144.6240 C   0  0  1  0  0  3  0  0  0  0  0  0
  187.1050  177.2930  143.2450 C   0  0  1  0  0  3  0  0  0  0  0  0
  186.5960  177.6360  145.6360 C   0  0  0  0  0  2  0  0  0  0  0  0
  187.0520  178.5350  146.7740 C   0  0  0  0  0  2  0  0  0  0  0  0
  187.4750  177.7050  147.9780 C   0  0  0  0  0  2  0  0  0  0  0  0
  189.8800  177.0380  147.2710 C   0  0  0  0  0  1  0  0  0  0  0  0
  189.4090  178.4110  149.1190 O   0  0  0  0  0  0  0  0  0  0  0  0
  188.9560  177.7680  148.1870 C   0  0  0  0  0  0  0  0  0  0  0  0
  190.3010  176.7260  142.5250 C   0  0  0  0  0  2  0  0  0  0  0  0
  192.4590  177.6020  141.5390 C   0  0  0  0  0  1  0  0  0  0  0  0
  191.8110  178.2360  143.8640 C   0  0  0  0  0  1  0  0  0  0  0  0
  191.3010  177.8830  142.4790 C   0  0  0  0  0  3  0  0  0  0  0  0
  184.6960  177.9180  140.5470 C   0  0  0  0  0  2  0  0  0  0  0  0
  183.4350  178.1430  141.3650 C   0  0  0  0  0  2  0  0  0  0  0  0
  183.7840  178.5180  143.7820 C   0  0  0  0  0  1  0  0  0  0  0  0
  183.6930  179.1930  142.4260 C   0  0  0  0  0  2  0  0  0  0  0  0
  1 21  1  0  0  0  0
  2 18  1  0  0  0  0
  3 17  1  0  0  0  0
  3 20  1  0  0  0  0
  4 10  1  0  0  0  0
  5  4  2  0  0  0  0
  5  9  1  0  0  0  0
  6 15  1  0  0  0  0
  7  6  1  0  0  0  0
  9  7  2  0  0  0  0
 10 20  1  0  0  0  0
 10  6  2  0  0  0  0
 11 19  1  0  0  0  0
 12 21  1  0  0  0  0
 13 11  1  0  0  0  0
 14 22  1  0  0  0  0
 16 17  1  0  0  0  0
 16  2  1  0  0  0  0
 18 33  1  6  0  0  0
 19  1  1  0  0  0  0
 20  8  2  0  0  0  0
 21 52  1  1  0  0  0
 22 18  1  0  0  0  0
 22 24  1  0  0  0  0
 23 15  2  0  0  0  0
 23 13  1  0  0  0  0
 24 12  1  0  0  0  0
 25 27  1  0  0  0  0
 25 23  1  1  0  0  0
 26 30  1  6  0  0  0
 28 27  1  0  0  0  0
 28 26  1  0  0  0  0
 29 25  1  0  0  0  0
 29 26  1  0  0  0  0
 30 31  1  0  0  0  0
 30 32  1  0  0  0  0
 31 32  1  0  0  0  0
 33 34  1  0  0  0  0
 34 35  1  0  0  0  0
 35 36  1  0  0  0  0
 36 38  1  0  0  0  0
 36 48  1  0  0  0  0
 37 38  2  0  0  0  0
 39 40  1  0  0  0  0
 40 42  1  1  0  0  0
 41 38  1  6  0  0  0
 41 39  1  0  0  0  0
 41 40  1  0  0  0  0
 42 43  1  0  0  0  0
 43 44  1  0  0  0  0
 44 47  1  0  0  0  0
 45 47  1  0  0  0  0
 47 46  2  0  0  0  0
 49 51  1  0  0  0  0
 51 48  1  0  0  0  0
 51 50  1  0  0  0  0
 52 53  1  0  0  0  0
 53 55  1  0  0  0  0
 55 54  1  0  0  0  0
M  END
>  <MODEL>
5

>  <REMARK>
 VINA RESULT:      -3.0      3.437      7.888
  Name = 
  17 active torsions:
  status: ('A' for Active; 'I' for Inactive)
    1  A    between atoms: C_3  and  C_14
    2  A    between atoms: C_3  and  C_21
    3  A    between atoms: C_6  and  C_14
    4  A    between atoms: C_6  and  C_38
    5  A    between atoms: C_8  and  C_20
    6  A    between atoms: C_8  and  C_22
    7  A    between atoms: C_10  and  C_32
    8  A    between atoms: N_12  and  C_20
    9  A    between atoms: N_12  and  C_42
   10  A    between atoms: N_12  and  C_46
   11  A    between atoms: C_13  and  C_52
   12  A    between atoms: C_22  and  C_43
   13  A    between atoms: C_27  and  C_49
   14  A    between atoms: C_27  and  C_55
   15  A    between atoms: C_41  and  C_55
   16  A    between atoms: C_42  and  C_50
   17  A    between atoms: C_46  and  C_53
                            x       y       z     vdW  Elec       q    Type
                         _______ _______ _______ _____ _____    ______ ____

>  <TORSDO>
F 17

$$$$
=
 OpenBabel10272401243D

 55 59  0  0  1  0  0  0  0  0999 V2000
  190.0190  175.0260  137.4830 C   0  0  0  0  0  2  0  0  0  0  0  0
  184.3910  179.1780  137.3560 S   0  0  0  0  0  0  0  0  0  0  0  0
  185.2480  178.9110  141.2050 O   0  0  0  0  0  0  0  0  0  0  0  0
  185.2230  178.0240  144.7950 C   0  0  0  0  0  3  0  0  0  0  0  0
  186.0690  177.6900  145.8530 C   0  0  0  0  0  3  0  0  0  0  0  0
  187.0120  177.5700  143.2060 C   0  0  0  0  0  0  0  0  0  0  0  0
  187.8460  177.2260  144.2810 C   0  0  0  0  0  3  0  0  0  0  0  0
  183.5030  178.2440  142.5520 O   0  0  0  0  0  0  0  0  0  0  0  0
  187.3830  177.2940  145.5960 C   0  0  0  0  0  3  0  0  0  0  0  0
  185.6770  177.9770  143.4690 C   0  0  0  0  0  0  0  0  0  0  0  0
  189.9370  176.1170  139.7300 C   0  0  0  0  0  2  0  0  0  0  0  0
  188.5410  176.3770  135.9490 C   0  0  0  0  0  2  0  0  0  0  0  0
  188.9760  177.2760  139.9090 C   0  0  0  0  0  2  0  0  0  0  0  0
  186.8360  179.0200  135.9630 O   0  0  0  0  0  1  0  0  0  0  0  0
  187.4820  177.3700  141.8160 C   0  0  0  0  0  3  0  0  0  0  0  0
  185.3020  179.5100  138.8930 C   0  0  0  0  0  2  0  0  0  0  0  0
  184.4260  179.1480  140.0750 C   0  0  0  0  0  2  0  0  0  0  0  0
  185.2880  177.6240  136.9380 C   0  0  1  0  0  3  0  0  0  0  0  0
  190.5400  176.1700  138.3380 C   0  0  0  0  0  2  0  0  0  0  0  0
  184.7480  178.3750  142.3920 C   0  0  0  0  0  0  0  0  0  0  0  0
  188.5890  175.2760  137.0060 C   0  0  1  0  0  3  0  0  0  0  0  0
  186.7080  177.8440  136.6290 N   0  0  0  0  0  0  0  0  0  0  0  0
  188.7260  177.5410  141.3570 C   0  0  0  0  0  0  0  0  0  0  0  0
  187.1060  176.8150  135.6790 C   0  0  0  0  0  2  0  0  0  0  0  0
  189.8210  178.1200  142.2120 C   0  0  1  0  0  3  0  0  0  0  0  0
  190.4490  177.2640  144.1690 C   0  0  1  0  0  3  0  0  0  0  0  0
  189.2810  178.9850  143.1820 O   0  0  0  0  0  0  0  0  0  0  0  0
  189.9500  178.6590  144.3570 C   0  0  0  0  0  2  0  0  0  0  0  0
  190.5790  177.0820  142.7960 O   0  0  0  0  0  0  0  0  0  0  0  0
  191.7970  177.0890  144.8470 C   0  0  0  0  0  3  0  0  0  0  0  0
  191.8320  175.7390  145.5390 C   0  0  0  0  0  2  0  0  0  0  0  0
  191.6020  176.9990  146.3490 C   0  0  0  0  0  2  0  0  0  0  0  0
  185.1370  176.6220  138.0810 C   0  0  0  0  0  2  0  0  0  0  0  0
  183.8800  175.7910  137.9310 C   0  0  0  0  0  2  0  0  0  0  0  0
  182.9300  176.1280  139.0670 C   0  0  0  0  0  2  0  0  0  0  0  0
  181.6820  176.6700  138.5400 N   0  0  0  0  0  0  0  0  0  0  0  0
  181.0700  177.6280  140.6550 C   0  0  0  0  0  2  0  0  0  0  0  0
  180.8730  177.5590  139.3370 C   0  0  0  0  0  0  0  0  0  0  0  0
  179.9900  179.9010  139.5500 C   0  0  0  0  0  2  0  0  0  0  0  0
  180.9490  179.8480  138.3840 C   0  0  1  0  0  3  0  0  0  0  0  0
  180.0610  178.6490  138.6870 C   0  0  1  0  0  3  0  0  0  0  0  0
  180.3630  180.6040  137.2110 C   0  0  0  0  0  2  0  0  0  0  0  0
  181.3030  181.7360  136.8270 C   0  0  0  0  0  2  0  0  0  0  0  0
  180.5410  182.8550  136.1330 C   0  0  0  0  0  2  0  0  0  0  0  0
  180.0140  185.3740  136.4620 C   0  0  0  0  0  1  0  0  0  0  0  0
  181.8900  184.3120  137.3980 O   0  0  0  0  0  0  0  0  0  0  0  0
  180.8850  184.1900  136.7180 C   0  0  0  0  0  0  0  0  0  0  0  0
  181.3070  176.3520  137.1640 C   0  0  0  0  0  2  0  0  0  0  0  0
  180.0490  174.6940  135.7270 C   0  0  0  0  0  1  0  0  0  0  0  0
  180.0420  174.4390  138.2090 C   0  0  0  0  0  1  0  0  0  0  0  0
  180.8400  174.9030  137.0050 C   0  0  0  0  0  3  0  0  0  0  0  0
  187.9670  173.9790  136.4890 C   0  0  0  0  0  2  0  0  0  0  0  0
  186.8450  173.4630  137.3750 C   0  0  0  0  0  2  0  0  0  0  0  0
  184.6160  172.3970  137.3450 C   0  0  0  0  0  1  0  0  0  0  0  0
  185.8930  172.6170  136.5550 C   0  0  0  0  0  2  0  0  0  0  0  0
  1 19  1  0  0  0  0
  2 16  1  0  0  0  0
  3 20  1  0  0  0  0
  4  5  1  0  0  0  0
  6 10  1  0  0  0  0
  6  7  2  0  0  0  0
  7  9  1  0  0  0  0
  9  5  2  0  0  0  0
 10  4  2  0  0  0  0
 11 13  1  0  0  0  0
 12 21  1  0  0  0  0
 13 23  1  0  0  0  0
 14 22  1  0  0  0  0
 15  6  1  0  0  0  0
 16 17  1  0  0  0  0
 17  3  1  0  0  0  0
 18  2  1  0  0  0  0
 18 33  1  1  0  0  0
 19 11  1  0  0  0  0
 20  8  2  0  0  0  0
 20 10  1  0  0  0  0
 21 52  1  6  0  0  0
 21  1  1  0  0  0  0
 22 18  1  0  0  0  0
 23 15  2  0  0  0  0
 24 12  1  0  0  0  0
 24 22  1  0  0  0  0
 25 23  1  1  0  0  0
 25 29  1  0  0  0  0
 25 27  1  0  0  0  0
 26 28  1  0  0  0  0
 26 30  1  1  0  0  0
 27 28  1  0  0  0  0
 29 26  1  0  0  0  0
 30 31  1  0  0  0  0
 30 32  1  0  0  0  0
 31 32  1  0  0  0  0
 34 33  1  0  0  0  0
 34 35  1  0  0  0  0
 36 35  1  0  0  0  0
 36 38  1  0  0  0  0
 38 37  2  0  0  0  0
 40 42  1  6  0  0  0
 40 41  1  0  0  0  0
 40 39  1  0  0  0  0
 41 38  1  1  0  0  0
 41 39  1  0  0  0  0
 43 42  1  0  0  0  0
 44 47  1  0  0  0  0
 44 43  1  0  0  0  0
 45 47  1  0  0  0  0
 47 46  2  0  0  0  0
 48 36  1  0  0  0  0
 49 51  1  0  0  0  0
 51 48  1  0  0  0  0
 51 50  1  0  0  0  0
 52 53  1  0  0  0  0
 55 54  1  0  0  0  0
 55 53  1  0  0  0  0
M  END
>  <MODEL>
6

>  <REMARK>
 VINA RESULT:      -3.0      3.447     10.785
  Name = 
  17 active torsions:
  status: ('A' for Active; 'I' for Inactive)
    1  A    between atoms: C_3  and  C_14
    2  A    between atoms: C_3  and  C_21
    3  A    between atoms: C_6  and  C_14
    4  A    between atoms: C_6  and  C_38
    5  A    between atoms: C_8  and  C_20
    6  A    between atoms: C_8  and  C_22
    7  A    between atoms: C_10  and  C_32
    8  A    between atoms: N_12  and  C_20
    9  A    between atoms: N_12  and  C_42
   10  A    between atoms: N_12  and  C_46
   11  A    between atoms: C_13  and  C_52
   12  A    between atoms: C_22  and  C_43
   13  A    between atoms: C_27  and  C_49
   14  A    between atoms: C_27  and  C_55
   15  A    between atoms: C_41  and  C_55
   16  A    between atoms: C_42  and  C_50
   17  A    between atoms: C_46  and  C_53
                            x       y       z     vdW  Elec       q    Type
                         _______ _______ _______ _____ _____    ______ ____

>  <TORSDO>
F 17

$$$$
=
 OpenBabel10272401243D

 55 59  0  0  1  0  0  0  0  0999 V2000
  187.1390  178.3150  141.9300 C   0  0  0  0  0  2  0  0  0  0  0  0
  187.5630  177.9310  134.9580 S   0  0  0  0  0  0  0  0  0  0  0  0
  183.9790  176.4630  135.7420 O   0  0  0  0  0  0  0  0  0  0  0  0
  181.1100  174.1890  136.2660 C   0  0  0  0  0  3  0  0  0  0  0  0
  180.0250  173.9610  137.1140 C   0  0  0  0  0  3  0  0  0  0  0  0
  182.1210  175.6480  137.9330 C   0  0  0  0  0  0  0  0  0  0  0  0
  181.0290  175.3990  138.7780 C   0  0  0  0  0  3  0  0  0  0  0  0
  183.5540  174.3850  134.8440 O   0  0  0  0  0  0  0  0  0  0  0  0
  179.9830  174.5700  138.3700 C   0  0  0  0  0  3  0  0  0  0  0  0
  182.1600  175.0330  136.6540 C   0  0  0  0  0  0  0  0  0  0  0  0
  184.7970  177.9630  141.1310 C   0  0  0  0  0  2  0  0  0  0  0  0
  188.4910  179.0850  139.9440 C   0  0  0  0  0  2  0  0  0  0  0  0
  184.5370  178.1080  139.6450 C   0  0  0  0  0  2  0  0  0  0  0  0
  188.0960  179.8780  136.9260 O   0  0  0  0  0  1  0  0  0  0  0  0
  183.2760  176.4280  138.4340 C   0  0  0  0  0  3  0  0  0  0  0  0
  185.8040  177.9680  135.4150 C   0  0  0  0  0  2  0  0  0  0  0  0
  185.1520  176.6730  134.9770 C   0  0  0  0  0  2  0  0  0  0  0  0
  188.1920  177.5940  136.6570 C   0  0  1  0  0  3  0  0  0  0  0  0
  185.8260  178.9900  141.5680 C   0  0  0  0  0  2  0  0  0  0  0  0
  183.2660  175.2650  135.7010 C   0  0  0  0  0  0  0  0  0  0  0  0
  187.9180  177.8810  140.6890 C   0  0  1  0  0  3  0  0  0  0  0  0
  187.9500  178.7030  137.5920 N   0  0  0  0  0  0  0  0  0  0  0  0
  183.2390  177.4720  139.2680 C   0  0  0  0  0  0  0  0  0  0  0  0
  189.0240  178.6780  138.5750 C   0  0  0  0  0  2  0  0  0  0  0  0
  181.9430  178.0960  139.7100 C   0  0  1  0  0  3  0  0  0  0  0  0
  181.4350  178.5260  141.8340 C   0  0  1  0  0  3  0  0  0  0  0  0
  181.0180  177.1000  140.0750 O   0  0  0  0  0  0  0  0  0  0  0  0
  180.4490  177.5630  141.2560 C   0  0  0  0  0  2  0  0  0  0  0  0
  182.1780  179.0080  140.7620 O   0  0  0  0  0  0  0  0  0  0  0  0
  180.7140  179.6700  142.5240 C   0  0  0  0  0  3  0  0  0  0  0  0
  181.3130  179.8750  143.9030 C   0  0  0  0  0  2  0  0  0  0  0  0
  179.9910  179.1490  143.7520 C   0  0  0  0  0  2  0  0  0  0  0  0
  187.5700  176.3030  137.1860 C   0  0  0  0  0  2  0  0  0  0  0  0
  187.8790  175.1270  136.2840 C   0  0  0  0  0  2  0  0  0  0  0  0
  189.2050  175.3760  135.5880 C   0  0  0  0  0  2  0  0  0  0  0  0
  189.8520  174.1080  135.2610 N   0  0  0  0  0  0  0  0  0  0  0  0
  191.9100  172.9010  134.9940 C   0  0  0  0  0  2  0  0  0  0  0  0
  191.2360  173.8830  135.5960 C   0  0  0  0  0  0  0  0  0  0  0  0
  191.4550  175.2020  137.7230 C   0  0  0  0  0  2  0  0  0  0  0  0
  192.6690  174.3160  137.5750 C   0  0  1  0  0  3  0  0  0  0  0  0
  192.0260  174.9300  136.3380 C   0  0  1  0  0  3  0  0  0  0  0  0
  193.9160  175.1020  137.9170 C   0  0  0  0  0  2  0  0  0  0  0  0
  195.0270  174.1360  138.2980 C   0  0  0  0  0  2  0  0  0  0  0  0
  195.2490  173.1120  137.1940 C   0  0  0  0  0  2  0  0  0  0  0  0
  196.8660  174.8870  136.2120 C   0  0  0  0  0  1  0  0  0  0  0  0
  197.0590  172.5840  135.7840 O   0  0  0  0  0  0  0  0  0  0  0  0
  196.4400  173.4650  136.3580 C   0  0  0  0  0  0  0  0  0  0  0  0
  189.0480  173.0490  134.6540 C   0  0  0  0  0  2  0  0  0  0  0  0
  188.6610  170.5510  134.7460 C   0  0  0  0  0  1  0  0  0  0  0  0
  187.9100  171.9930  136.6390 C   0  0  0  0  0  1  0  0  0  0  0  0
  188.9450  171.8100  135.5460 C   0  0  0  0  0  3  0  0  0  0  0  0
  189.0160  176.8880  141.0710 C   0  0  0  0  0  2  0  0  0  0  0  0
  189.3680  176.9290  142.5490 C   0  0  0  0  0  2  0  0  0  0  0  0
  191.5920  176.4690  143.5210 C   0  0  0  0  0  1  0  0  0  0  0  0
  190.3750  175.8430  142.8660 C   0  0  0  0  0  2  0  0  0  0  0  0
  2 16  1  0  0  0  0
  2 18  1  0  0  0  0
  4 10  2  0  0  0  0
  4  5  1  0  0  0  0
  5  9  2  0  0  0  0
  6 15  1  0  0  0  0
  6  7  2  0  0  0  0
  8 20  2  0  0  0  0
  9  7  1  0  0  0  0
 10  6  1  0  0  0  0
 11 19  1  0  0  0  0
 12 21  1  0  0  0  0
 13 11  1  0  0  0  0
 14 22  1  0  0  0  0
 15 23  2  0  0  0  0
 17 16  1  0  0  0  0
 17  3  1  0  0  0  0
 18 33  1  1  0  0  0
 18 22  1  0  0  0  0
 19  1  1  0  0  0  0
 20  3  1  0  0  0  0
 20 10  1  0  0  0  0
 21 52  1  1  0  0  0
 21  1  1  0  0  0  0
 22 24  1  0  0  0  0
 23 13  1  0  0  0  0
 24 12  1  0  0  0  0
 25 23  1  1  0  0  0
 25 27  1  0  0  0  0
 25 29  1  0  0  0  0
 26 30  1  6  0  0  0
 27 28  1  0  0  0  0
 28 26  1  0  0  0  0
 29 26  1  0  0  0  0
 30 32  1  0  0  0  0
 30 31  1  0  0  0  0
 32 31  1  0  0  0  0
 34 33  1  0  0  0  0
 35 34  1  0  0  0  0
 36 35  1  0  0  0  0
 36 38  1  0  0  0  0
 37 38  2  0  0  0  0
 40 39  1  0  0  0  0
 40 42  1  1  0  0  0
 41 38  1  6  0  0  0
 41 40  1  0  0  0  0
 41 39  1  0  0  0  0
 42 43  1  0  0  0  0
 44 43  1  0  0  0  0
 45 47  1  0  0  0  0
 46 47  2  0  0  0  0
 47 44  1  0  0  0  0
 48 36  1  0  0  0  0
 48 51  1  0  0  0  0
 49 51  1  0  0  0  0
 51 50  1  0  0  0  0
 52 53  1  0  0  0  0
 53 55  1  0  0  0  0
 55 54  1  0  0  0  0
M  END
>  <MODEL>
7

>  <REMARK>
 VINA RESULT:      -3.0      1.781      2.598
  Name = 
  17 active torsions:
  status: ('A' for Active; 'I' for Inactive)
    1  A    between atoms: C_3  and  C_14
    2  A    between atoms: C_3  and  C_21
    3  A    between atoms: C_6  and  C_14
    4  A    between atoms: C_6  and  C_38
    5  A    between atoms: C_8  and  C_20
    6  A    between atoms: C_8  and  C_22
    7  A    between atoms: C_10  and  C_32
    8  A    between atoms: N_12  and  C_20
    9  A    between atoms: N_12  and  C_42
   10  A    between atoms: N_12  and  C_46
   11  A    between atoms: C_13  and  C_52
   12  A    between atoms: C_22  and  C_43
   13  A    between atoms: C_27  and  C_49
   14  A    between atoms: C_27  and  C_55
   15  A    between atoms: C_41  and  C_55
   16  A    between atoms: C_42  and  C_50
   17  A    between atoms: C_46  and  C_53
                            x       y       z     vdW  Elec       q    Type
                         _______ _______ _______ _____ _____    ______ ____

>  <TORSDO>
F 17

$$$$
=
 OpenBabel10272401243D

 55 59  0  0  1  0  0  0  0  0999 V2000
  182.8580  176.7050  139.4480 C   0  0  0  0  0  2  0  0  0  0  0  0
  188.9210  178.9580  136.7830 S   0  0  0  0  0  0  0  0  0  0  0  0
  188.8920  175.1120  135.8730 O   0  0  0  0  0  0  0  0  0  0  0  0
  189.5540  171.4740  135.8050 C   0  0  0  0  0  3  0  0  0  0  0  0
  188.9160  170.2410  135.6690 C   0  0  0  0  0  3  0  0  0  0  0  0
  187.4130  172.5450  136.2490 C   0  0  0  0  0  0  0  0  0  0  0  0
  186.7890  171.2960  136.1200 C   0  0  0  0  0  3  0  0  0  0  0  0
  190.7560  173.9350  136.5380 O   0  0  0  0  0  0  0  0  0  0  0  0
  187.5320  170.1520  135.8230 C   0  0  0  0  0  3  0  0  0  0  0  0
  188.8200  172.6350  136.0870 C   0  0  0  0  0  0  0  0  0  0  0  0
  183.6050  174.9180  137.8670 C   0  0  0  0  0  2  0  0  0  0  0  0
  184.1660  178.7870  138.8820 C   0  0  0  0  0  2  0  0  0  0  0  0
  184.7560  175.2450  136.9360 C   0  0  0  0  0  2  0  0  0  0  0  0
  186.2390  179.8230  136.7560 O   0  0  0  0  0  1  0  0  0  0  0  0
  186.6240  173.7200  136.6880 C   0  0  0  0  0  3  0  0  0  0  0  0
  188.4330  177.4560  135.8830 C   0  0  0  0  0  2  0  0  0  0  0  0
  189.4750  176.3800  136.1140 C   0  0  0  0  0  2  0  0  0  0  0  0
  187.7150  178.7520  138.1600 C   0  0  1  0  0  3  0  0  0  0  0  0
  182.7290  176.1470  138.0390 C   0  0  0  0  0  2  0  0  0  0  0  0
  189.5450  173.9200  136.1860 C   0  0  0  0  0  0  0  0  0  0  0  0
  184.1710  177.4620  139.6420 C   0  0  1  0  0  3  0  0  0  0  0  0
  186.3160  178.8740  137.7240 N   0  0  0  0  0  0  0  0  0  0  0  0
  185.3560  173.9980  136.3730 C   0  0  0  0  0  0  0  0  0  0  0  0
  185.5600  179.4050  138.8490 C   0  0  0  0  0  2  0  0  0  0  0  0
  184.5820  173.1810  135.3750 C   0  0  1  0  0  3  0  0  0  0  0  0
  182.3720  172.9170  135.4340 C   0  0  1  0  0  3  0  0  0  0  0  0
  184.3810  171.8750  135.8600 O   0  0  0  0  0  0  0  0  0  0  0  0
  183.0500  171.5920  135.5720 C   0  0  0  0  0  2  0  0  0  0  0  0
  183.3630  173.8210  135.0650 O   0  0  0  0  0  0  0  0  0  0  0  0
  181.2990  172.8520  134.3620 C   0  0  0  0  0  3  0  0  0  0  0  0
  180.2280  173.8820  134.6690 C   0  0  0  0  0  2  0  0  0  0  0  0
  179.9850  172.4190  134.9830 C   0  0  0  0  0  2  0  0  0  0  0  0
  187.9460  177.4080  138.8470 C   0  0  0  0  0  2  0  0  0  0  0  0
  189.0400  177.4970  139.8910 C   0  0  0  0  0  2  0  0  0  0  0  0
  188.6510  176.6420  141.0840 C   0  0  0  0  0  2  0  0  0  0  0  0
  189.2100  177.2000  142.3110 N   0  0  0  0  0  0  0  0  0  0  0  0
  191.6070  177.2660  142.1880 C   0  0  0  0  0  2  0  0  0  0  0  0
  190.5100  176.7890  142.7800 C   0  0  0  0  0  0  0  0  0  0  0  0
  191.9890  176.4720  144.7850 C   0  0  0  0  0  2  0  0  0  0  0  0
  190.7220  177.1680  145.2220 C   0  0  1  0  0  3  0  0  0  0  0  0
  190.6660  176.1190  144.1210 C   0  0  1  0  0  3  0  0  0  0  0  0
  190.2220  176.5490  146.5100 C   0  0  0  0  0  2  0  0  0  0  0  0
  189.7560  177.6530  147.4470 C   0  0  0  0  0  2  0  0  0  0  0  0
  188.5000  178.3200  146.9070 C   0  0  0  0  0  2  0  0  0  0  0  0
  186.0040  178.6990  147.5060 C   0  0  0  0  0  1  0  0  0  0  0  0
  187.5190  177.5900  148.9190 O   0  0  0  0  0  0  0  0  0  0  0  0
  187.3510  178.1580  147.8530 C   0  0  0  0  0  0  0  0  0  0  0  0
  188.4560  178.2360  143.0150 C   0  0  0  0  0  2  0  0  0  0  0  0
  186.2480  178.8690  144.0730 C   0  0  0  0  0  1  0  0  0  0  0  0
  187.1690  176.5730  144.4040 C   0  0  0  0  0  1  0  0  0  0  0  0
  187.0720  177.7530  143.4560 C   0  0  0  0  0  3  0  0  0  0  0  0
  184.4470  177.6740  141.1300 C   0  0  0  0  0  2  0  0  0  0  0  0
  183.2050  178.0570  141.9180 C   0  0  0  0  0  2  0  0  0  0  0  0
  183.0090  178.7880  144.2700 C   0  0  0  0  0  1  0  0  0  0  0  0
  183.5410  179.1620  142.8990 C   0  0  0  0  0  2  0  0  0  0  0  0
  1 21  1  0  0  0  0
  2 18  1  0  0  0  0
  3 17  1  0  0  0  0
  3 20  1  0  0  0  0
  4 10  1  0  0  0  0
  5  4  2  0  0  0  0
  5  9  1  0  0  0  0
  6 15  1  0  0  0  0
  7  6  1  0  0  0  0
  9  7  2  0  0  0  0
 10 20  1  0  0  0  0
 10  6  2  0  0  0  0
 11 19  1  0  0  0  0
 12 21  1  0  0  0  0
 13 11  1  0  0  0  0
 14 22  1  0  0  0  0
 16 17  1  0  0  0  0
 16  2  1  0  0  0  0
 18 33  1  6  0  0  0
 19  1  1  0  0  0  0
 20  8  2  0  0  0  0
 21 52  1  1  0  0  0
 22 18  1  0  0  0  0
 22 24  1  0  0  0  0
 23 15  2  0  0  0  0
 23 13  1  0  0  0  0
 24 12  1  0  0  0  0
 25 27  1  0  0  0  0
 25 23  1  1  0  0  0
 26 30  1  6  0  0  0
 26 28  1  0  0  0  0
 28 27  1  0  0  0  0
 29 25  1  0  0  0  0
 29 26  1  0  0  0  0
 30 31  1  0  0  0  0
 30 32  1  0  0  0  0
 31 32  1  0  0  0  0
 33 34  1  0  0  0  0
 34 35  1  0  0  0  0
 35 36  1  0  0  0  0
 36 38  1  0  0  0  0
 36 48  1  0  0  0  0
 37 38  2  0  0  0  0
 39 40  1  0  0  0  0
 40 42  1  1  0  0  0
 41 38  1  6  0  0  0
 41 39  1  0  0  0  0
 41 40  1  0  0  0  0
 42 43  1  0  0  0  0
 44 43  1  0  0  0  0
 44 47  1  0  0  0  0
 45 47  1  0  0  0  0
 47 46  2  0  0  0  0
 48 51  1  0  0  0  0
 51 49  1  0  0  0  0
 51 50  1  0  0  0  0
 52 53  1  0  0  0  0
 53 55  1  0  0  0  0
 55 54  1  0  0  0  0
M  END
>  <MODEL>
8

>  <REMARK>
 VINA RESULT:      -3.0      3.412      7.935
  Name = 
  17 active torsions:
  status: ('A' for Active; 'I' for Inactive)
    1  A    between atoms: C_3  and  C_14
    2  A    between atoms: C_3  and  C_21
    3  A    between atoms: C_6  and  C_14
    4  A    between atoms: C_6  and  C_38
    5  A    between atoms: C_8  and  C_20
    6  A    between atoms: C_8  and  C_22
    7  A    between atoms: C_10  and  C_32
    8  A    between atoms: N_12  and  C_20
    9  A    between atoms: N_12  and  C_42
   10  A    between atoms: N_12  and  C_46
   11  A    between atoms: C_13  and  C_52
   12  A    between atoms: C_22  and  C_43
   13  A    between atoms: C_27  and  C_49
   14  A    between atoms: C_27  and  C_55
   15  A    between atoms: C_41  and  C_55
   16  A    between atoms: C_42  and  C_50
   17  A    between atoms: C_46  and  C_53
                            x       y       z     vdW  Elec       q    Type
                         _______ _______ _______ _____ _____    ______ ____

>  <TORSDO>
F 17

$$$$
