=
 OpenBabel10272400043D

 34 39  0  0  1  0  0  0  0  0999 V2000
  185.3570  178.9130  142.8840 C   0  0  0  0  0  0  0  0  0  0  0  0
  186.6460  177.7930  144.6100 C   0  0  0  0  0  3  0  0  0  0  0  0
  190.8530  176.9840  145.1560 C   0  0  2  0  0  3  0  0  0  0  0  0
  187.4860  177.9140  142.3650 C   0  0  0  0  0  0  0  0  0  0  0  0
  189.2620  176.2830  141.5780 C   0  0  2  0  0  3  0  0  0  0  0  0
  184.5350  178.8350  145.1630 C   0  0  0  0  0  3  0  0  0  0  0  0
  185.6630  178.1100  145.5490 C   0  0  0  0  0  3  0  0  0  0  0  0
  189.8790  177.9420  143.1970 C   0  0  1  0  0  3  0  0  0  0  0  0
  186.5220  178.2010  143.2690 C   0  0  0  0  0  0  0  0  0  0  0  0
  191.7810  176.7820  143.9770 C   0  0  0  0  0  2  0  0  0  0  0  0
  190.6940  176.0770  142.0110 C   0  0  0  0  0  2  0  0  0  0  0  0
  184.3810  179.2300  143.8330 C   0  0  0  0  0  3  0  0  0  0  0  0
  187.4080  178.4790  140.9650 C   0  0  1  0  0  3  0  0  0  0  0  0
  185.1440  179.2350  141.6090 C   0  0  0  0  0  3  0  0  0  0  0  0
  189.8950  178.0500  144.7070 C   0  0  0  0  0  2  0  0  0  0  0  0
  189.2760  177.0450  140.3250 N   0  0  0  0  0  2  0  0  0  0  0  0
  187.9160  177.4400  139.9680 C   0  0  2  0  0  3  0  0  0  0  0  0
  191.1060  177.2570  142.7710 N   0  0  1  0  0  0  0  0  0  0  0  0
  188.7050  177.0980  142.7340 C   0  0  1  0  0  3  0  0  0  0  0  0
  186.0830  178.9000  140.6300 O   0  0  0  0  0  0  0  0  0  0  0  0
  186.7800  178.1170  136.4170 C   0  0  0  0  0  0  0  0  0  0  0  0
  187.7970  178.9540  135.9470 C   0  0  0  0  0  3  0  0  0  0  0  0
  187.8910  177.9690  138.5670 C   0  0  0  0  0  0  0  0  0  0  0  0
  188.8600  179.3020  136.7840 C   0  0  0  0  0  3  0  0  0  0  0  0
  186.8280  177.6260  137.7250 C   0  0  0  0  0  3  0  0  0  0  0  0
  188.9080  178.8120  138.0930 C   0  0  0  0  0  3  0  0  0  0  0  0
  185.7480  177.7860  135.6060 F   0  0  0  0  0  0  0  0  0  0  0  0
  191.9260  177.5080  148.6120 O   0  0  0  0  0  0  0  0  0  0  0  0
  191.6000  177.4470  146.3160 N   0  0  0  0  0  2  0  0  0  0  0  0
  191.2340  177.0860  147.6480 C   0  0  0  0  0  0  0  0  0  0  0  0
  190.1220  176.2700  147.8730 O   0  0  0  0  0  0  0  0  0  0  0  0
  188.7870  176.7490  147.7590 C   0  0  0  0  0  2  0  0  0  0  0  0
  188.6070  177.9930  148.5660 C   0  0  0  0  0  3  0  0  0  0  0  0
  187.7230  178.7870  148.2910 O   0  0  0  0  0  0  0  0  0  0  0  0
  1  9  1  0  0  0  0
  1 12  1  0  0  0  0
  2  7  2  0  0  0  0
  3 29  1  1  0  0  0
  4  9  2  0  0  0  0
  5 11  1  1  0  0  0
  5 19  1  0  0  0  0
  6  7  1  0  0  0  0
  8 15  1  1  0  0  0
  9  2  1  0  0  0  0
 10  3  1  0  0  0  0
 12  6  2  0  0  0  0
 13 20  1  6  0  0  0
 13  4  1  0  0  0  0
 14  1  2  0  0  0  0
 15  3  1  0  0  0  0
 16  5  1  0  0  0  0
 17 23  1  6  0  0  0
 17 16  1  0  0  0  0
 17 13  1  0  0  0  0
 18 11  1  6  0  0  0
 18  8  1  0  0  0  0
 18 10  1  0  0  0  0
 19  4  1  6  0  0  0
 19  8  1  0  0  0  0
 20 14  1  0  0  0  0
 21 25  1  0  0  0  0
 22 21  2  0  0  0  0
 22 24  1  0  0  0  0
 24 26  2  0  0  0  0
 25 23  2  0  0  0  0
 26 23  1  0  0  0  0
 27 21  1  0  0  0  0
 29 30  1  0  0  0  0
 30 31  1  0  0  0  0
 30 28  2  0  0  0  0
 32 31  1  0  0  0  0
 32 33  1  0  0  0  0
 34 33  2  0  0  0  0
M  END
>  <MODEL>
1

>  <REMARK>
 VINA RESULT:      -9.0      0.000      0.000
  Name = 
  5 active torsions:
  status: ('A' for Active; 'I' for Inactive)
    1  A    between atoms: C_3  and  N_13
    2  A    between atoms: C_12  and  C_28
    3  A    between atoms: C_14  and  O_33
    4  A    between atoms: C_20  and  C_22
    5  A    between atoms: C_22  and  O_33
                            x       y       z     vdW  Elec       q    Type
                         _______ _______ _______ _____ _____    ______ ____

>  <TORSDO>
F 5

$$$$
=
 OpenBabel10272400043D

 34 39  0  0  1  0  0  0  0  0999 V2000
  186.1330  178.1610  142.5790 C   0  0  0  0  0  0  0  0  0  0  0  0
  186.7660  178.4870  140.2580 C   0  0  0  0  0  3  0  0  0  0  0  0
  189.8740  176.8510  137.7420 C   0  0  2  0  0  3  0  0  0  0  0  0
  188.3990  177.7680  141.8620 C   0  0  0  0  0  0  0  0  0  0  0  0
  190.8720  178.0780  141.3930 C   0  0  2  0  0  3  0  0  0  0  0  0
  184.4750  178.8360  140.9450 C   0  0  0  0  0  3  0  0  0  0  0  0
  185.4500  178.8340  139.9480 C   0  0  0  0  0  3  0  0  0  0  0  0
  189.6600  176.4690  140.0900 C   0  0  1  0  0  3  0  0  0  0  0  0
  187.1290  178.1280  141.5690 C   0  0  0  0  0  0  0  0  0  0  0  0
  191.2100  176.4230  138.3110 C   0  0  0  0  0  2  0  0  0  0  0  0
  191.7730  177.4810  140.3370 C   0  0  0  0  0  2  0  0  0  0  0  0
  184.8170  178.5060  142.2570 C   0  0  0  0  0  3  0  0  0  0  0  0
  188.7430  177.2510  143.2400 C   0  0  1  0  0  3  0  0  0  0  0  0
  186.4450  177.9280  143.8520 C   0  0  0  0  0  3  0  0  0  0  0  0
  188.8720  176.4720  138.7970 C   0  0  0  0  0  2  0  0  0  0  0  0
  191.1070  177.3550  142.6470 N   0  0  0  0  0  2  0  0  0  0  0  0
  190.1240  177.7620  143.6460 C   0  0  2  0  0  3  0  0  0  0  0  0
  191.0840  176.3250  139.7630 N   0  0  1  0  0  0  0  0  0  0  0  0
  189.4940  177.7900  140.8200 C   0  0  1  0  0  3  0  0  0  0  0  0
  187.7590  177.6170  144.2110 O   0  0  0  0  0  0  0  0  0  0  0  0
  190.1310  177.1360  147.3830 C   0  0  0  0  0  0  0  0  0  0  0  0
  191.2260  176.2800  147.5280 C   0  0  0  0  0  3  0  0  0  0  0  0
  190.5240  177.2440  144.9930 C   0  0  0  0  0  0  0  0  0  0  0  0
  191.9710  175.9010  146.4070 C   0  0  0  0  0  3  0  0  0  0  0  0
  189.7810  177.6170  146.1180 C   0  0  0  0  0  3  0  0  0  0  0  0
  191.6200  176.3800  145.1410 C   0  0  0  0  0  3  0  0  0  0  0  0
  189.4070  177.4980  148.4700 F   0  0  0  0  0  0  0  0  0  0  0  0
  188.5270  175.9890  134.4530 O   0  0  0  0  0  0  0  0  0  0  0  0
  189.5910  176.1300  136.5110 N   0  0  0  0  0  2  0  0  0  0  0  0
  188.7240  176.6550  135.5050 C   0  0  0  0  0  0  0  0  0  0  0  0
  188.1080  177.8960  135.6890 O   0  0  0  0  0  0  0  0  0  0  0  0
  186.7000  178.0730  135.5810 C   0  0  0  0  0  2  0  0  0  0  0  0
  185.9880  177.2360  136.5940 C   0  0  0  0  0  3  0  0  0  0  0  0
  184.7950  177.3870  136.7940 O   0  0  0  0  0  0  0  0  0  0  0  0
  1 14  2  0  0  0  0
  2  9  1  0  0  0  0
  3 29  1  6  0  0  0
  3 10  1  0  0  0  0
  3 15  1  0  0  0  0
  5 11  1  6  0  0  0
  5 16  1  0  0  0  0
  6 12  2  0  0  0  0
  7  2  2  0  0  0  0
  7  6  1  0  0  0  0
  8 15  1  6  0  0  0
  8 19  1  0  0  0  0
  9  4  2  0  0  0  0
  9  1  1  0  0  0  0
 12  1  1  0  0  0  0
 13  4  1  6  0  0  0
 13 17  1  0  0  0  0
 13 20  1  0  0  0  0
 14 20  1  0  0  0  0
 16 17  1  0  0  0  0
 17 23  1  1  0  0  0
 18 10  1  6  0  0  0
 18  8  1  0  0  0  0
 18 11  1  0  0  0  0
 19  5  1  0  0  0  0
 19  4  1  1  0  0  0
 21 22  1  0  0  0  0
 21 27  1  0  0  0  0
 23 26  2  0  0  0  0
 23 25  1  0  0  0  0
 24 22  2  0  0  0  0
 25 21  2  0  0  0  0
 26 24  1  0  0  0  0
 28 30  2  0  0  0  0
 30 31  1  0  0  0  0
 30 29  1  0  0  0  0
 32 31  1  0  0  0  0
 32 33  1  0  0  0  0
 33 34  2  0  0  0  0
M  END
>  <MODEL>
2

>  <REMARK>
 VINA RESULT:      -8.2      3.333      7.947
  Name = 
  5 active torsions:
  status: ('A' for Active; 'I' for Inactive)
    1  A    between atoms: C_3  and  N_13
    2  A    between atoms: C_12  and  C_28
    3  A    between atoms: C_14  and  O_33
    4  A    between atoms: C_20  and  C_22
    5  A    between atoms: C_22  and  O_33
                            x       y       z     vdW  Elec       q    Type
                         _______ _______ _______ _____ _____    ______ ____

>  <TORSDO>
F 5

$$$$
=
 OpenBabel10272400043D

 34 39  0  0  1  0  0  0  0  0999 V2000
  190.7900  177.3550  141.9750 C   0  0  0  0  0  0  0  0  0  0  0  0
  189.3680  178.5210  143.5600 C   0  0  0  0  0  3  0  0  0  0  0  0
  185.0920  178.8210  144.0930 C   0  0  2  0  0  3  0  0  0  0  0  0
  188.5400  177.9720  141.3760 C   0  0  0  0  0  0  0  0  0  0  0  0
  186.5530  179.2190  140.4130 C   0  0  2  0  0  3  0  0  0  0  0  0
  191.6050  177.8650  144.2000 C   0  0  0  0  0  3  0  0  0  0  0  0
  190.3900  178.4770  144.5100 C   0  0  0  0  0  3  0  0  0  0  0  0
  186.1780  177.7370  142.2620 C   0  0  1  0  0  3  0  0  0  0  0  0
  189.5400  177.9490  142.2860 C   0  0  0  0  0  0  0  0  0  0  0  0
  184.1390  178.7260  142.9200 C   0  0  0  0  0  2  0  0  0  0  0  0
  185.1070  179.2880  140.8490 C   0  0  0  0  0  2  0  0  0  0  0  0
  191.8050  177.3110  142.9350 C   0  0  0  0  0  3  0  0  0  0  0  0
  188.6880  177.2310  140.0660 C   0  0  1  0  0  3  0  0  0  0  0  0
  191.0380  176.8880  140.7530 C   0  0  0  0  0  3  0  0  0  0  0  0
  186.1860  177.8420  143.7730 C   0  0  0  0  0  2  0  0  0  0  0  0
  186.6370  178.2930  139.2790 N   0  0  0  0  0  2  0  0  0  0  0  0
  188.0360  178.0400  138.9470 C   0  0  2  0  0  3  0  0  0  0  0  0
  184.8670  178.1820  141.7760 N   0  0  1  0  0  0  0  0  0  0  0  0
  187.2220  178.6580  141.6570 C   0  0  1  0  0  3  0  0  0  0  0  0
  190.0570  176.9510  139.7610 O   0  0  0  0  0  0  0  0  0  0  0  0
  188.9720  177.2460  135.3630 C   0  0  0  0  0  0  0  0  0  0  0  0
  188.3370  176.0160  135.1680 C   0  0  0  0  0  3  0  0  0  0  0  0
  188.1260  177.3270  137.6340 C   0  0  0  0  0  0  0  0  0  0  0  0
  187.5970  175.4380  136.2030 C   0  0  0  0  0  3  0  0  0  0  0  0
  188.8670  177.9000  136.5940 C   0  0  0  0  0  3  0  0  0  0  0  0
  187.4920  176.0910  137.4350 C   0  0  0  0  0  3  0  0  0  0  0  0
  189.6920  177.8010  134.3590 F   0  0  0  0  0  0  0  0  0  0  0  0
  184.4600  178.0820  147.6170 O   0  0  0  0  0  0  0  0  0  0  0  0
  184.4230  178.4290  145.3230 N   0  0  0  0  0  2  0  0  0  0  0  0
  185.0950  178.4190  146.5830 C   0  0  0  0  0  0  0  0  0  0  0  0
  186.4420  178.7850  146.6620 O   0  0  0  0  0  0  0  0  0  0  0  0
  187.4580  177.8760  147.0670 C   0  0  0  0  0  2  0  0  0  0  0  0
  188.0260  178.2800  148.3890 C   0  0  0  0  0  3  0  0  0  0  0  0
  189.2250  178.2020  148.5980 O   0  0  0  0  0  0  0  0  0  0  0  0
  1  9  1  0  0  0  0
  1 12  1  0  0  0  0
  2  7  2  0  0  0  0
  3 29  1  1  0  0  0
  4  9  2  0  0  0  0
  5 11  1  1  0  0  0
  5 19  1  0  0  0  0
  6  7  1  0  0  0  0
  8 15  1  1  0  0  0
  9  2  1  0  0  0  0
 10  3  1  0  0  0  0
 12  6  2  0  0  0  0
 13 20  1  6  0  0  0
 13  4  1  0  0  0  0
 14  1  2  0  0  0  0
 15  3  1  0  0  0  0
 16  5  1  0  0  0  0
 17 23  1  6  0  0  0
 17 16  1  0  0  0  0
 17 13  1  0  0  0  0
 18 11  1  6  0  0  0
 18  8  1  0  0  0  0
 18 10  1  0  0  0  0
 19  4  1  6  0  0  0
 19  8  1  0  0  0  0
 20 14  1  0  0  0  0
 21 25  1  0  0  0  0
 22 21  2  0  0  0  0
 22 24  1  0  0  0  0
 24 26  2  0  0  0  0
 25 23  2  0  0  0  0
 26 23  1  0  0  0  0
 27 21  1  0  0  0  0
 29 30  1  0  0  0  0
 30 31  1  0  0  0  0
 30 28  2  0  0  0  0
 31 32  1  0  0  0  0
 32 33  1  0  0  0  0
 33 34  2  0  0  0  0
M  END
>  <MODEL>
3

>  <REMARK>
 VINA RESULT:      -7.9      2.418      4.692
  Name = 
  5 active torsions:
  status: ('A' for Active; 'I' for Inactive)
    1  A    between atoms: C_3  and  N_13
    2  A    between atoms: C_12  and  C_28
    3  A    between atoms: C_14  and  O_33
    4  A    between atoms: C_20  and  C_22
    5  A    between atoms: C_22  and  O_33
                            x       y       z     vdW  Elec       q    Type
                         _______ _______ _______ _____ _____    ______ ____

>  <TORSDO>
F 5

$$$$
=
 OpenBabel10272400043D

 34 39  0  0  1  0  0  0  0  0999 V2000
  188.1020  177.7950  139.0060 C   0  0  0  0  0  0  0  0  0  0  0  0
  189.0380  178.1820  141.2120 C   0  0  0  0  0  3  0  0  0  0  0  0
  187.4740  177.8670  145.2260 C   0  0  2  0  0  3  0  0  0  0  0  0
  186.6720  178.3690  140.8570 C   0  0  0  0  0  0  0  0  0  0  0  0
  185.2370  179.6830  142.4830 C   0  0  2  0  0  3  0  0  0  0  0  0
  190.4850  177.5550  139.3800 C   0  0  0  0  0  3  0  0  0  0  0  0
  190.3130  177.9000  140.7200 C   0  0  0  0  0  3  0  0  0  0  0  0
  186.1930  177.6130  143.2270 C   0  0  1  0  0  3  0  0  0  0  0  0
  187.9100  178.1180  140.3730 C   0  0  0  0  0  0  0  0  0  0  0  0
  186.0090  178.1050  145.5270 C   0  0  0  0  0  2  0  0  0  0  0  0
  184.9120  179.4560  143.9410 C   0  0  0  0  0  2  0  0  0  0  0  0
  189.3830  177.5090  138.5240 C   0  0  0  0  0  3  0  0  0  0  0  0
  185.4570  178.1600  139.9810 C   0  0  1  0  0  3  0  0  0  0  0  0
  187.0830  177.8190  138.1490 C   0  0  0  0  0  3  0  0  0  0  0  0
  187.4800  177.1730  143.8930 C   0  0  0  0  0  2  0  0  0  0  0  0
  184.0880  179.2330  141.6910 N   0  0  0  0  0  2  0  0  0  0  0  0
  184.4260  179.2480  140.2710 C   0  0  2  0  0  3  0  0  0  0  0  0
  185.2680  178.0750  144.2690 N   0  0  1  0  0  0  0  0  0  0  0  0
  186.4470  178.7830  142.2930 C   0  0  1  0  0  3  0  0  0  0  0  0
  185.7960  178.1370  138.5910 O   0  0  0  0  0  0  0  0  0  0  0  0
  181.5910  179.9510  137.8580 C   0  0  0  0  0  0  0  0  0  0  0  0
  180.8880  178.7430  137.8840 C   0  0  0  0  0  3  0  0  0  0  0  0
  183.1880  179.0610  139.4510 C   0  0  0  0  0  0  0  0  0  0  0  0
  181.3320  177.6920  138.6910 C   0  0  0  0  0  3  0  0  0  0  0  0
  182.7390  180.1090  138.6400 C   0  0  0  0  0  3  0  0  0  0  0  0
  182.4810  177.8480  139.4710 C   0  0  0  0  0  3  0  0  0  0  0  0
  181.1610  180.9670  137.0720 F   0  0  0  0  0  0  0  0  0  0  0  0
  189.9130  176.2650  147.4300 O   0  0  0  0  0  0  0  0  0  0  0  0
  188.0650  177.0020  146.2350 N   0  0  0  0  0  2  0  0  0  0  0  0
  189.4600  177.0300  146.5370 C   0  0  0  0  0  0  0  0  0  0  0  0
  190.3090  177.9020  145.8480 O   0  0  0  0  0  0  0  0  0  0  0  0
  191.2250  177.4510  144.8560 C   0  0  0  0  0  2  0  0  0  0  0  0
  191.6720  178.5910  144.0000 C   0  0  0  0  0  3  0  0  0  0  0  0
  191.0220  179.6220  143.9520 O   0  0  0  0  0  0  0  0  0  0  0  0
  1  9  1  0  0  0  0
  3 10  1  0  0  0  0
  3 29  1  1  0  0  0
  5 11  1  1  0  0  0
  6  7  1  0  0  0  0
  7  2  2  0  0  0  0
  8 15  1  1  0  0  0
  8 18  1  0  0  0  0
  9  4  2  0  0  0  0
  9  2  1  0  0  0  0
 12  1  1  0  0  0  0
 12  6  2  0  0  0  0
 13 20  1  6  0  0  0
 13 17  1  0  0  0  0
 13  4  1  0  0  0  0
 14 20  1  0  0  0  0
 14  1  2  0  0  0  0
 15  3  1  0  0  0  0
 16  5  1  0  0  0  0
 17 23  1  6  0  0  0
 17 16  1  0  0  0  0
 18 11  1  6  0  0  0
 18 10  1  0  0  0  0
 19  4  1  6  0  0  0
 19  5  1  0  0  0  0
 19  8  1  0  0  0  0
 21 22  2  0  0  0  0
 21 25  1  0  0  0  0
 22 24  1  0  0  0  0
 23 26  1  0  0  0  0
 24 26  2  0  0  0  0
 25 23  2  0  0  0  0
 27 21  1  0  0  0  0
 29 30  1  0  0  0  0
 30 28  2  0  0  0  0
 31 30  1  0  0  0  0
 32 31  1  0  0  0  0
 33 32  1  0  0  0  0
 34 33  2  0  0  0  0
M  END
>  <MODEL>
4

>  <REMARK>
 VINA RESULT:      -7.9      3.009      5.072
  Name = 
  5 active torsions:
  status: ('A' for Active; 'I' for Inactive)
    1  A    between atoms: C_3  and  N_13
    2  A    between atoms: C_12  and  C_28
    3  A    between atoms: C_14  and  O_33
    4  A    between atoms: C_20  and  C_22
    5  A    between atoms: C_22  and  O_33
                            x       y       z     vdW  Elec       q    Type
                         _______ _______ _______ _____ _____    ______ ____

>  <TORSDO>
F 5

$$$$
=
 OpenBabel10272400043D

 34 39  0  0  1  0  0  0  0  0999 V2000
  190.9350  177.3470  141.5050 C   0  0  0  0  0  0  0  0  0  0  0  0
  188.9180  177.2720  140.1550 C   0  0  0  0  0  3  0  0  0  0  0  0
  184.9300  178.8610  140.6360 C   0  0  2  0  0  3  0  0  0  0  0  0
  188.7670  177.5660  142.5320 C   0  0  0  0  0  0  0  0  0  0  0  0
  186.6060  177.0360  143.7490 C   0  0  2  0  0  3  0  0  0  0  0  0
  191.0860  177.1020  139.0980 C   0  0  0  0  0  3  0  0  0  0  0  0
  189.6940  177.1270  139.0040 C   0  0  0  0  0  3  0  0  0  0  0  0
  186.6520  178.9400  142.2900 C   0  0  1  0  0  3  0  0  0  0  0  0
  189.5200  177.4020  141.4210 C   0  0  0  0  0  0  0  0  0  0  0  0
  184.3120  179.0480  142.0050 C   0  0  0  0  0  2  0  0  0  0  0  0
  185.2340  177.6630  143.6720 C   0  0  0  0  0  2  0  0  0  0  0  0
  191.7030  177.2070  140.3460 C   0  0  0  0  0  3  0  0  0  0  0  0
  189.4280  177.8460  143.8630 C   0  0  1  0  0  3  0  0  0  0  0  0
  191.5490  177.3650  142.6870 C   0  0  0  0  0  3  0  0  0  0  0  0
  186.3810  179.2070  140.8240 C   0  0  0  0  0  2  0  0  0  0  0  0
  187.2660  177.5470  144.9550 N   0  0  0  0  0  2  0  0  0  0  0  0
  188.6640  177.1260  144.9720 C   0  0  2  0  0  3  0  0  0  0  0  0
  185.3710  178.9590  143.0070 N   0  0  1  0  0  0  0  0  0  0  0  0
  187.2560  177.5600  142.4790 C   0  0  1  0  0  3  0  0  0  0  0  0
  190.8070  177.4680  143.8660 O   0  0  0  0  0  0  0  0  0  0  0  0
  191.1200  177.1700  147.8570 C   0  0  0  0  0  0  0  0  0  0  0  0
  190.4260  177.9190  148.8120 C   0  0  0  0  0  3  0  0  0  0  0  0
  189.2620  177.4040  146.3160 C   0  0  0  0  0  0  0  0  0  0  0  0
  189.1510  178.4130  148.5220 C   0  0  0  0  0  3  0  0  0  0  0  0
  190.5390  176.9130  146.6120 C   0  0  0  0  0  3  0  0  0  0  0  0
  188.5700  178.1590  147.2760 C   0  0  0  0  0  3  0  0  0  0  0  0
  192.3570  176.6950  148.1390 F   0  0  0  0  0  0  0  0  0  0  0  0
  182.5570  180.3700  138.2990 O   0  0  0  0  0  0  0  0  0  0  0  0
  184.3260  179.7730  139.6770 N   0  0  0  0  0  2  0  0  0  0  0  0
  183.0340  179.5380  139.1160 C   0  0  0  0  0  0  0  0  0  0  0  0
  182.3100  178.3970  139.4770 O   0  0  0  0  0  0  0  0  0  0  0  0
  180.9160  178.4360  139.7590 C   0  0  0  0  0  2  0  0  0  0  0  0
  180.6820  178.4810  141.2340 C   0  0  0  0  0  3  0  0  0  0  0  0
  180.7340  179.5400  141.8370 O   0  0  0  0  0  0  0  0  0  0  0  0
  1 14  2  0  0  0  0
  2  9  1  0  0  0  0
  3 29  1  6  0  0  0
  3 15  1  0  0  0  0
  3 10  1  0  0  0  0
  5 11  1  1  0  0  0
  5 16  1  0  0  0  0
  6 12  2  0  0  0  0
  7  6  1  0  0  0  0
  7  2  2  0  0  0  0
  8 15  1  6  0  0  0
  8 19  1  0  0  0  0
  8 18  1  0  0  0  0
  9  1  1  0  0  0  0
  9  4  2  0  0  0  0
 12  1  1  0  0  0  0
 13  4  1  6  0  0  0
 13 20  1  0  0  0  0
 13 17  1  0  0  0  0
 14 20  1  0  0  0  0
 16 17  1  0  0  0  0
 17 23  1  1  0  0  0
 18 10  1  6  0  0  0
 18 11  1  0  0  0  0
 19  4  1  1  0  0  0
 19  5  1  0  0  0  0
 21 27  1  0  0  0  0
 21 22  1  0  0  0  0
 23 25  1  0  0  0  0
 23 26  2  0  0  0  0
 24 22  2  0  0  0  0
 25 21  2  0  0  0  0
 26 24  1  0  0  0  0
 28 30  2  0  0  0  0
 30 31  1  0  0  0  0
 30 29  1  0  0  0  0
 31 32  1  0  0  0  0
 32 33  1  0  0  0  0
 33 34  2  0  0  0  0
M  END
>  <MODEL>
5

>  <REMARK>
 VINA RESULT:      -7.6      3.691      8.595
  Name = 
  5 active torsions:
  status: ('A' for Active; 'I' for Inactive)
    1  A    between atoms: C_3  and  N_13
    2  A    between atoms: C_12  and  C_28
    3  A    between atoms: C_14  and  O_33
    4  A    between atoms: C_20  and  C_22
    5  A    between atoms: C_22  and  O_33
                            x       y       z     vdW  Elec       q    Type
                         _______ _______ _______ _____ _____    ______ ____

>  <TORSDO>
F 5

$$$$
=
 OpenBabel10272400043D

 34 39  0  0  1  0  0  0  0  0999 V2000
  190.0500  177.4690  140.4510 C   0  0  0  0  0  0  0  0  0  0  0  0
  189.8250  178.2950  142.7230 C   0  0  0  0  0  3  0  0  0  0  0  0
  186.5810  178.3750  145.5740 C   0  0  2  0  0  3  0  0  0  0  0  0
  187.8950  178.1200  141.3080 C   0  0  0  0  0  0  0  0  0  0  0  0
  185.8070  179.4620  141.8260 C   0  0  2  0  0  3  0  0  0  0  0  0
  191.9890  177.5970  141.9000 C   0  0  0  0  0  3  0  0  0  0  0  0
  191.1940  178.1100  142.9250 C   0  0  0  0  0  3  0  0  0  0  0  0
  186.3980  177.6650  143.3010 C   0  0  1  0  0  3  0  0  0  0  0  0
  189.2250  177.9630  141.4940 C   0  0  0  0  0  0  0  0  0  0  0  0
  185.1370  178.4640  145.1290 C   0  0  0  0  0  2  0  0  0  0  0  0
  184.8480  179.4120  142.9930 C   0  0  0  0  0  2  0  0  0  0  0  0
  191.4190  177.2830  140.6650 C   0  0  0  0  0  3  0  0  0  0  0  0
  187.2430  177.6280  140.0360 C   0  0  1  0  0  3  0  0  0  0  0  0
  189.5500  177.2340  139.2390 C   0  0  0  0  0  3  0  0  0  0  0  0
  187.2420  177.4990  144.5470 C   0  0  0  0  0  2  0  0  0  0  0  0
  185.1840  178.7550  140.7020 N   0  0  0  0  0  2  0  0  0  0  0  0
  186.1470  178.6050  139.6150 C   0  0  2  0  0  3  0  0  0  0  0  0
  185.0730  178.1530  143.7030 N   0  0  1  0  0  0  0  0  0  0  0  0
  187.0050  178.7080  142.3790 C   0  0  1  0  0  3  0  0  0  0  0  0
  188.1930  177.4450  138.9820 O   0  0  0  0  0  0  0  0  0  0  0  0
  183.3750  177.6620  137.2110 C   0  0  0  0  0  0  0  0  0  0  0  0
  184.0970  177.2950  136.0710 C   0  0  0  0  0  3  0  0  0  0  0  0
  185.4470  178.1400  138.3760 C   0  0  0  0  0  0  0  0  0  0  0  0
  185.4940  177.3520  136.0800 C   0  0  0  0  0  3  0  0  0  0  0  0
  184.0490  178.0830  138.3600 C   0  0  0  0  0  3  0  0  0  0  0  0
  186.1680  177.7750  137.2290 C   0  0  0  0  0  3  0  0  0  0  0  0
  182.0210  177.6110  137.1980 F   0  0  0  0  0  0  0  0  0  0  0  0
  187.9340  177.0090  148.6850 O   0  0  0  0  0  0  0  0  0  0  0  0
  186.6710  177.7520  146.8850 N   0  0  0  0  0  2  0  0  0  0  0  0
  187.9200  177.5430  147.5430 C   0  0  0  0  0  0  0  0  0  0  0  0
  189.1120  177.9340  146.9250 O   0  0  0  0  0  0  0  0  0  0  0  0
  190.0840  176.9960  146.4780 C   0  0  0  0  0  2  0  0  0  0  0  0
  191.2160  176.9120  147.4500 C   0  0  0  0  0  3  0  0  0  0  0  0
  191.9190  175.9170  147.4960 O   0  0  0  0  0  0  0  0  0  0  0  0
  1 12  1  0  0  0  0
  1  9  1  0  0  0  0
  2  7  2  0  0  0  0
  3 29  1  1  0  0  0
  4  9  2  0  0  0  0
  5 19  1  0  0  0  0
  5 11  1  1  0  0  0
  6  7  1  0  0  0  0
  8 18  1  0  0  0  0
  8 15  1  1  0  0  0
  9  2  1  0  0  0  0
 10  3  1  0  0  0  0
 12  6  2  0  0  0  0
 13 20  1  6  0  0  0
 13  4  1  0  0  0  0
 14  1  2  0  0  0  0
 15  3  1  0  0  0  0
 16  5  1  0  0  0  0
 17 23  1  6  0  0  0
 17 13  1  0  0  0  0
 17 16  1  0  0  0  0
 18 11  1  6  0  0  0
 18 10  1  0  0  0  0
 19  4  1  6  0  0  0
 19  8  1  0  0  0  0
 20 14  1  0  0  0  0
 21 25  1  0  0  0  0
 22 24  1  0  0  0  0
 22 21  2  0  0  0  0
 24 26  2  0  0  0  0
 25 23  2  0  0  0  0
 26 23  1  0  0  0  0
 27 21  1  0  0  0  0
 29 30  1  0  0  0  0
 30 28  2  0  0  0  0
 31 30  1  0  0  0  0
 32 31  1  0  0  0  0
 32 33  1  0  0  0  0
 33 34  2  0  0  0  0
M  END
>  <MODEL>
6

>  <REMARK>
 VINA RESULT:      -7.6      2.285      4.438
  Name = 
  5 active torsions:
  status: ('A' for Active; 'I' for Inactive)
    1  A    between atoms: C_3  and  N_13
    2  A    between atoms: C_12  and  C_28
    3  A    between atoms: C_14  and  O_33
    4  A    between atoms: C_20  and  C_22
    5  A    between atoms: C_22  and  O_33
                            x       y       z     vdW  Elec       q    Type
                         _______ _______ _______ _____ _____    ______ ____

>  <TORSDO>
F 5

$$$$
=
 OpenBabel10272400043D

 34 39  0  0  1  0  0  0  0  0999 V2000
  190.7310  176.6760  144.9080 C   0  0  0  0  0  0  0  0  0  0  0  0
  188.8050  177.9950  145.5730 C   0  0  0  0  0  3  0  0  0  0  0  0
  184.9400  178.7570  143.8010 C   0  0  2  0  0  3  0  0  0  0  0  0
  189.2040  177.5300  143.2530 C   0  0  0  0  0  0  0  0  0  0  0  0
  188.1500  178.9820  141.4600 C   0  0  2  0  0  3  0  0  0  0  0  0
  190.2960  177.1030  147.2540 C   0  0  0  0  0  3  0  0  0  0  0  0
  189.1640  177.8430  146.9130 C   0  0  0  0  0  3  0  0  0  0  0  0
  186.7200  177.5560  142.7560 C   0  0  1  0  0  3  0  0  0  0  0  0
  189.5670  177.4030  144.5490 C   0  0  0  0  0  0  0  0  0  0  0  0
  184.7430  178.7610  142.2990 C   0  0  0  0  0  2  0  0  0  0  0  0
  186.7060  179.2080  141.0770 C   0  0  0  0  0  2  0  0  0  0  0  0
  191.0800  176.5260  146.2530 C   0  0  0  0  0  3  0  0  0  0  0  0
  189.9500  176.7730  142.1770 C   0  0  1  0  0  3  0  0  0  0  0  0
  191.5410  176.1800  143.9740 C   0  0  0  0  0  3  0  0  0  0  0  0
  185.9410  177.6640  144.0490 C   0  0  0  0  0  2  0  0  0  0  0  0
  188.7310  178.0480  140.4910 N   0  0  0  0  0  2  0  0  0  0  0  0
  190.0650  177.6440  140.9280 C   0  0  2  0  0  3  0  0  0  0  0  0
  185.9100  178.1380  141.6790 N   0  0  1  0  0  0  0  0  0  0  0  0
  188.0080  178.3560  142.8380 C   0  0  1  0  0  3  0  0  0  0  0  0
  191.2410  176.3450  142.6190 O   0  0  0  0  0  0  0  0  0  0  0  0
  190.6600  175.4140  137.9230 C   0  0  0  0  0  0  0  0  0  0  0  0
  192.0360  175.5660  137.7230 C   0  0  0  0  0  3  0  0  0  0  0  0
  190.7660  176.9210  139.8200 C   0  0  0  0  0  0  0  0  0  0  0  0
  192.7780  176.3960  138.5670 C   0  0  0  0  0  3  0  0  0  0  0  0
  190.0270  176.0900  138.9700 C   0  0  0  0  0  3  0  0  0  0  0  0
  192.1450  177.0740  139.6130 C   0  0  0  0  0  3  0  0  0  0  0  0
  189.9420  174.6130  137.1010 F   0  0  0  0  0  0  0  0  0  0  0  0
  181.3710  178.3540  144.4870 O   0  0  0  0  0  0  0  0  0  0  0  0
  183.6890  178.4440  144.4750 N   0  0  0  0  0  2  0  0  0  0  0  0
  182.4200  178.6560  143.8580 C   0  0  0  0  0  0  0  0  0  0  0  0
  182.3480  179.1890  142.5670 O   0  0  0  0  0  0  0  0  0  0  0  0
  181.3250  178.8280  141.6470 C   0  0  0  0  0  2  0  0  0  0  0  0
  180.3180  179.9250  141.5260 C   0  0  0  0  0  3  0  0  0  0  0  0
  180.0830  180.6570  142.4730 O   0  0  0  0  0  0  0  0  0  0  0  0
  1 12  1  0  0  0  0
  2  7  2  0  0  0  0
  3 15  1  0  0  0  0
  3 29  1  1  0  0  0
  4  9  2  0  0  0  0
  5 11  1  6  0  0  0
  5 19  1  0  0  0  0
  7  6  1  0  0  0  0
  8 19  1  0  0  0  0
  8 15  1  1  0  0  0
  9  1  1  0  0  0  0
  9  2  1  0  0  0  0
 10  3  1  0  0  0  0
 12  6  2  0  0  0  0
 13 20  1  1  0  0  0
 13  4  1  0  0  0  0
 14  1  2  0  0  0  0
 16 17  1  0  0  0  0
 16  5  1  0  0  0  0
 17 23  1  6  0  0  0
 17 13  1  0  0  0  0
 18 11  1  1  0  0  0
 18 10  1  0  0  0  0
 18  8  1  0  0  0  0
 19  4  1  6  0  0  0
 20 14  1  0  0  0  0
 21 25  1  0  0  0  0
 22 21  2  0  0  0  0
 22 24  1  0  0  0  0
 24 26  2  0  0  0  0
 25 23  2  0  0  0  0
 26 23  1  0  0  0  0
 27 21  1  0  0  0  0
 30 29  1  0  0  0  0
 30 28  2  0  0  0  0
 31 30  1  0  0  0  0
 32 31  1  0  0  0  0
 33 32  1  0  0  0  0
 33 34  2  0  0  0  0
M  END
>  <MODEL>
7

>  <REMARK>
 VINA RESULT:      -7.5      3.227      6.253
  Name = 
  5 active torsions:
  status: ('A' for Active; 'I' for Inactive)
    1  A    between atoms: C_3  and  N_13
    2  A    between atoms: C_12  and  C_28
    3  A    between atoms: C_14  and  O_33
    4  A    between atoms: C_20  and  C_22
    5  A    between atoms: C_22  and  O_33
                            x       y       z     vdW  Elec       q    Type
                         _______ _______ _______ _____ _____    ______ ____

>  <TORSDO>
F 5

$$$$
=
 OpenBabel10272400043D

 34 39  0  0  1  0  0  0  0  0999 V2000
  186.7890  178.5420  141.0580 C   0  0  0  0  0  0  0  0  0  0  0  0
  186.6970  177.8870  143.3930 C   0  0  0  0  0  3  0  0  0  0  0  0
  189.6940  177.0800  146.3980 C   0  0  2  0  0  3  0  0  0  0  0  0
  188.6230  177.3490  142.0660 C   0  0  0  0  0  0  0  0  0  0  0  0
  190.1900  175.4900  142.7850 C   0  0  2  0  0  3  0  0  0  0  0  0
  184.8690  179.1300  142.4150 C   0  0  0  0  0  3  0  0  0  0  0  0
  185.4450  178.4920  143.5140 C   0  0  0  0  0  3  0  0  0  0  0  0
  190.1390  177.5020  144.0890 C   0  0  1  0  0  3  0  0  0  0  0  0
  187.3990  177.9150  142.1740 C   0  0  0  0  0  0  0  0  0  0  0  0
  191.0540  176.5230  146.0320 C   0  0  0  0  0  2  0  0  0  0  0  0
  191.0910  175.3500  143.9900 C   0  0  0  0  0  2  0  0  0  0  0  0
  185.5370  179.1490  141.1900 C   0  0  0  0  0  3  0  0  0  0  0  0
  189.4240  177.5090  140.7930 C   0  0  1  0  0  3  0  0  0  0  0  0
  187.3650  178.5090  139.8570 C   0  0  0  0  0  3  0  0  0  0  0  0
  189.3560  178.0220  145.2770 C   0  0  0  0  0  2  0  0  0  0  0  0
  191.0250  175.8760  141.6430 N   0  0  0  0  0  2  0  0  0  0  0  0
  190.1800  176.2150  140.5010 C   0  0  2  0  0  3  0  0  0  0  0  0
  191.2430  176.6750  144.5910 N   0  0  1  0  0  0  0  0  0  0  0  0
  189.2660  176.6150  143.2200 C   0  0  1  0  0  3  0  0  0  0  0  0
  188.5990  177.8780  139.6840 O   0  0  0  0  0  0  0  0  0  0  0  0
  191.2260  176.1150  136.8610 C   0  0  0  0  0  0  0  0  0  0  0  0
  192.5450  176.5750  136.9300 C   0  0  0  0  0  3  0  0  0  0  0  0
  191.0180  176.3380  139.2670 C   0  0  0  0  0  0  0  0  0  0  0  0
  193.1020  176.9180  138.1650 C   0  0  0  0  0  3  0  0  0  0  0  0
  190.4640  175.9970  138.0270 C   0  0  0  0  0  3  0  0  0  0  0  0
  192.3410  176.8030  139.3320 C   0  0  0  0  0  3  0  0  0  0  0  0
  190.6870  175.7870  135.6630 F   0  0  0  0  0  0  0  0  0  0  0  0
  188.7290  178.7780  149.4890 O   0  0  0  0  0  0  0  0  0  0  0  0
  189.7680  177.8130  147.6530 N   0  0  0  0  0  2  0  0  0  0  0  0
  188.6020  178.1530  148.4030 C   0  0  0  0  0  0  0  0  0  0  0  0
  187.3360  177.7890  147.9330 O   0  0  0  0  0  0  0  0  0  0  0  0
  186.4430  178.7260  147.3420 C   0  0  0  0  0  2  0  0  0  0  0  0
  185.2430  178.0270  146.7880 C   0  0  0  0  0  3  0  0  0  0  0  0
  184.1700  178.6020  146.7180 O   0  0  0  0  0  0  0  0  0  0  0  0
  1 12  1  0  0  0  0
  1  9  1  0  0  0  0
  2  7  2  0  0  0  0
  3 29  1  1  0  0  0
  4  9  2  0  0  0  0
  5 19  1  0  0  0  0
  5 11  1  1  0  0  0
  6  7  1  0  0  0  0
  8 18  1  0  0  0  0
  8 15  1  1  0  0  0
  9  2  1  0  0  0  0
 10  3  1  0  0  0  0
 12  6  2  0  0  0  0
 13 20  1  6  0  0  0
 13  4  1  0  0  0  0
 14  1  2  0  0  0  0
 15  3  1  0  0  0  0
 16  5  1  0  0  0  0
 17 23  1  6  0  0  0
 17 13  1  0  0  0  0
 17 16  1  0  0  0  0
 18 11  1  6  0  0  0
 18 10  1  0  0  0  0
 19  4  1  6  0  0  0
 19  8  1  0  0  0  0
 20 14  1  0  0  0  0
 21 22  2  0  0  0  0
 21 25  1  0  0  0  0
 22 24  1  0  0  0  0
 23 26  1  0  0  0  0
 24 26  2  0  0  0  0
 25 23  2  0  0  0  0
 27 21  1  0  0  0  0
 29 30  1  0  0  0  0
 30 28  2  0  0  0  0
 31 30  1  0  0  0  0
 32 31  1  0  0  0  0
 33 32  1  0  0  0  0
 34 33  2  0  0  0  0
M  END
>  <MODEL>
8

>  <REMARK>
 VINA RESULT:      -7.4      2.266      3.052
  Name = 
  5 active torsions:
  status: ('A' for Active; 'I' for Inactive)
    1  A    between atoms: C_3  and  N_13
    2  A    between atoms: C_12  and  C_28
    3  A    between atoms: C_14  and  O_33
    4  A    between atoms: C_20  and  C_22
    5  A    between atoms: C_22  and  O_33
                            x       y       z     vdW  Elec       q    Type
                         _______ _______ _______ _____ _____    ______ ____

>  <TORSDO>
F 5

$$$$
=
 OpenBabel10272400043D

 34 39  0  0  1  0  0  0  0  0999 V2000
  190.9320  176.5770  144.5660 C   0  0  0  0  0  0  0  0  0  0  0  0
  189.0020  177.9760  145.0250 C   0  0  0  0  0  3  0  0  0  0  0  0
  185.3470  178.8320  142.8880 C   0  0  2  0  0  3  0  0  0  0  0  0
  189.5960  177.4480  142.7610 C   0  0  0  0  0  0  0  0  0  0  0  0
  188.7650  178.8960  140.8520 C   0  0  2  0  0  3  0  0  0  0  0  0
  190.2980  177.0700  146.8530 C   0  0  0  0  0  3  0  0  0  0  0  0
  189.2300  177.8410  146.3950 C   0  0  0  0  0  3  0  0  0  0  0  0
  187.1710  177.5480  142.0350 C   0  0  1  0  0  3  0  0  0  0  0  0
  189.8330  177.3360  144.0880 C   0  0  0  0  0  0  0  0  0  0  0  0
  185.2900  178.8110  141.3750 C   0  0  0  0  0  2  0  0  0  0  0  0
  187.3720  179.1630  140.3320 C   0  0  0  0  0  2  0  0  0  0  0  0
  191.1500  176.4440  145.9410 C   0  0  0  0  0  3  0  0  0  0  0  0
  190.4100  176.6430  141.7730 C   0  0  1  0  0  3  0  0  0  0  0  0
  191.8070  176.0340  143.7210 C   0  0  0  0  0  3  0  0  0  0  0  0
  186.2800  177.7110  143.2480 C   0  0  0  0  0  2  0  0  0  0  0  0
  189.3990  177.9220  139.9580 N   0  0  0  0  0  2  0  0  0  0  0  0
  190.6710  177.4820  140.5240 C   0  0  2  0  0  3  0  0  0  0  0  0
  186.4860  178.1350  140.8770 N   0  0  1  0  0  0  0  0  0  0  0  0
  188.4740  178.3060  142.2220 C   0  0  1  0  0  3  0  0  0  0  0  0
  191.6380  176.1800  142.3410 O   0  0  0  0  0  0  0  0  0  0  0  0
  191.4770  175.0630  137.7220 C   0  0  0  0  0  0  0  0  0  0  0  0
  192.8510  175.2640  137.5570 C   0  0  0  0  0  3  0  0  0  0  0  0
  191.4440  176.7110  139.5000 C   0  0  0  0  0  0  0  0  0  0  0  0
  193.5240  176.1890  138.3600 C   0  0  0  0  0  3  0  0  0  0  0  0
  190.7760  175.7850  138.6920 C   0  0  0  0  0  3  0  0  0  0  0  0
  192.8230  176.9130  139.3290 C   0  0  0  0  0  3  0  0  0  0  0  0
  190.8260  174.1690  136.9400 F   0  0  0  0  0  0  0  0  0  0  0  0
  182.5740  178.5620  145.2560 O   0  0  0  0  0  0  0  0  0  0  0  0
  184.0290  178.5770  143.4490 N   0  0  0  0  0  2  0  0  0  0  0  0
  183.7380  178.7890  144.8300 C   0  0  0  0  0  0  0  0  0  0  0  0
  184.7370  179.2470  145.6950 O   0  0  0  0  0  0  0  0  0  0  0  0
  185.4330  178.3820  146.5840 C   0  0  0  0  0  2  0  0  0  0  0  0
  186.3000  179.1710  147.5110 C   0  0  0  0  0  3  0  0  0  0  0  0
  185.9820  180.3000  147.8460 O   0  0  0  0  0  0  0  0  0  0  0  0
  1 12  1  0  0  0  0
  2  7  2  0  0  0  0
  3 15  1  0  0  0  0
  3 29  1  1  0  0  0
  4  9  2  0  0  0  0
  5 11  1  6  0  0  0
  5 19  1  0  0  0  0
  7  6  1  0  0  0  0
  8 19  1  0  0  0  0
  8 15  1  1  0  0  0
  9  1  1  0  0  0  0
  9  2  1  0  0  0  0
 10  3  1  0  0  0  0
 12  6  2  0  0  0  0
 13 20  1  1  0  0  0
 13  4  1  0  0  0  0
 14  1  2  0  0  0  0
 16 17  1  0  0  0  0
 16  5  1  0  0  0  0
 17 23  1  6  0  0  0
 17 13  1  0  0  0  0
 18 11  1  1  0  0  0
 18 10  1  0  0  0  0
 18  8  1  0  0  0  0
 19  4  1  6  0  0  0
 20 14  1  0  0  0  0
 21 25  1  0  0  0  0
 22 21  2  0  0  0  0
 22 24  1  0  0  0  0
 24 26  2  0  0  0  0
 25 23  2  0  0  0  0
 26 23  1  0  0  0  0
 27 21  1  0  0  0  0
 29 30  1  0  0  0  0
 30 28  2  0  0  0  0
 30 31  1  0  0  0  0
 31 32  1  0  0  0  0
 32 33  1  0  0  0  0
 33 34  2  0  0  0  0
M  END
>  <MODEL>
9

>  <REMARK>
 VINA RESULT:      -7.2      2.992      5.367
  Name = 
  5 active torsions:
  status: ('A' for Active; 'I' for Inactive)
    1  A    between atoms: C_3  and  N_13
    2  A    between atoms: C_12  and  C_28
    3  A    between atoms: C_14  and  O_33
    4  A    between atoms: C_20  and  C_22
    5  A    between atoms: C_22  and  O_33
                            x       y       z     vdW  Elec       q    Type
                         _______ _______ _______ _____ _____    ______ ____

>  <TORSDO>
F 5

$$$$
