=
 OpenBabel10272400223D

 31 35  0  0  1  0  0  0  0  0999 V2000
  188.7080  176.5020  143.5610 C   0  0  0  0  0  3  0  0  0  0  0  0
  186.4140  177.5270  143.8610 C   0  0  2  0  0  3  0  0  0  0  0  0
  186.4660  177.3410  145.3260 N   0  0  1  0  0  0  0  0  0  0  0  0
  187.7220  177.3910  143.1060 C   0  0  0  0  0  0  0  0  0  0  0  0
  190.0610  176.9550  141.6100 C   0  0  0  0  0  3  0  0  0  0  0  0
  187.6560  177.6730  146.1240 C   0  0  1  0  0  3  0  0  0  0  0  0
  185.5320  178.8690  141.9470 C   0  0  0  0  0  0  0  0  0  0  0  0
  190.9220  175.3720  143.3360 C   0  0  0  0  0  1  0  0  0  0  0  0
  184.1520  178.6340  145.6840 C   0  0  0  0  0  2  0  0  0  0  0  0
  186.8580  178.9410  141.2440 C   0  0  0  0  0  2  0  0  0  0  0  0
  185.5780  178.7650  143.4340 C   0  0  1  0  0  3  0  0  0  0  0  0
  184.3900  178.8920  141.3190 N   0  0  0  0  0  0  0  0  0  0  0  0
  189.8770  176.2970  142.8260 C   0  0  0  0  0  0  0  0  0  0  0  0
  187.8910  178.0190  141.8440 C   0  0  0  0  0  0  0  0  0  0  0  0
  189.0700  177.8100  141.1210 C   0  0  0  0  0  3  0  0  0  0  0  0
  184.2340  179.0160  144.1770 C   0  0  0  0  0  2  0  0  0  0  0  0
  186.6670  178.7150  145.8550 C   0  0  2  0  0  3  0  0  0  0  0  0
  185.3610  179.0140  146.5790 C   0  0  0  0  0  2  0  0  0  0  0  0
  184.3260  180.0710  139.2800 O   0  0  0  0  0  0  0  0  0  0  0  0
  184.1760  178.9840  139.9000 C   0  0  0  0  0  0  0  0  0  0  0  0
  182.7660  176.3830  136.8450 C   0  0  0  0  0  0  0  0  0  0  0  0
  182.2840  177.8780  138.7490 C   0  0  0  0  0  2  0  0  0  0  0  0
  186.3520  177.9410  137.9350 Cl  0  0  0  0  0  0  0  0  0  0  0  0
  182.3730  175.4830  135.9130 F   0  0  0  0  0  0  0  0  0  0  0  0
  181.8900  176.8250  137.7510 C   0  0  0  0  0  3  0  0  0  0  0  0
  184.6430  177.5280  137.9210 C   0  0  0  0  0  0  0  0  0  0  0  0
  183.7660  177.7670  139.1350 C   0  0  1  0  0  3  0  0  0  0  0  0
  184.1700  176.8300  136.8840 C   0  0  0  0  0  3  0  0  0  0  0  0
  187.5050  177.1110  147.5290 C   0  0  0  0  0  2  0  0  0  0  0  0
  188.2770  177.9590  148.5220 C   0  0  0  0  0  2  0  0  0  0  0  0
  189.6390  177.9280  148.2210 O   0  0  0  0  0  1  0  0  0  0  0  0
  2  4  1  1  0  0  0
  2  3  1  0  0  0  0
  3 17  1  0  0  0  0
  3  6  1  0  0  0  0
  4  1  1  0  0  0  0
  5 13  1  0  0  0  0
  6 29  1  0  0  0  0
  7 11  1  0  0  0  0
  9 18  1  0  0  0  0
 10 14  1  0  0  0  0
 10  7  1  0  0  0  0
 11  2  1  0  0  0  0
 11 16  1  0  0  0  0
 12  7  2  0  0  0  0
 13  8  1  0  0  0  0
 13  1  2  0  0  0  0
 14  4  2  0  0  0  0
 15  5  2  0  0  0  0
 15 14  1  0  0  0  0
 16  9  1  0  0  0  0
 17  6  1  0  0  0  0
 17 18  1  0  0  0  0
 19 20  2  0  0  0  0
 20 12  1  0  0  0  0
 21 28  1  0  0  0  0
 21 25  2  0  0  0  0
 22 27  1  0  0  0  0
 24 21  1  0  0  0  0
 25 22  1  0  0  0  0
 26 23  1  0  0  0  0
 26 27  1  0  0  0  0
 27 20  1  0  0  0  0
 28 26  2  0  0  0  0
 29 30  1  0  0  0  0
 31 30  1  0  0  0  0
M  END
>  <MODEL>
1

>  <REMARK>
 VINA RESULT:      -9.6      0.000      0.000
  Name = 
  4 active torsions:
  status: ('A' for Active; 'I' for Inactive)
    1  A    between atoms: C_9  and  C_22
    2  A    between atoms: C_9  and  N_23
    3  A    between atoms: C_10  and  C_14
    4  A    between atoms: C_10  and  C_18
                            x       y       z     vdW  Elec       q    Type
                         _______ _______ _______ _____ _____    ______ ____

>  <TORSDO>
F 4

$$$$
=
 OpenBabel10272400223D

 31 35  0  0  1  0  0  0  0  0999 V2000
  188.5620  176.5710  143.5600 C   0  0  0  0  0  3  0  0  0  0  0  0
  186.2770  177.5490  144.0380 C   0  0  2  0  0  3  0  0  0  0  0  0
  186.4380  177.3460  145.4920 N   0  0  1  0  0  0  0  0  0  0  0  0
  187.5300  177.4470  143.1890 C   0  0  0  0  0  0  0  0  0  0  0  0
  189.7620  177.0740  141.5220 C   0  0  0  0  0  3  0  0  0  0  0  0
  187.6770  177.6900  146.2080 C   0  0  1  0  0  3  0  0  0  0  0  0
  185.2350  178.8970  142.2100 C   0  0  0  0  0  0  0  0  0  0  0  0
  190.7740  175.4850  143.1600 C   0  0  0  0  0  1  0  0  0  0  0  0
  184.1330  178.5910  146.0340 C   0  0  0  0  0  2  0  0  0  0  0  0
  186.5060  179.0030  141.4150 C   0  0  0  0  0  2  0  0  0  0  0  0
  185.3910  178.7760  143.6890 C   0  0  1  0  0  3  0  0  0  0  0  0
  184.0510  178.9070  141.6670 N   0  0  0  0  0  0  0  0  0  0  0  0
  189.6790  176.3970  142.7400 C   0  0  0  0  0  0  0  0  0  0  0  0
  187.5960  178.0930  141.9270 C   0  0  0  0  0  0  0  0  0  0  0  0
  188.7230  177.9150  141.1180 C   0  0  0  0  0  3  0  0  0  0  0  0
  184.0990  178.9920  144.5300 C   0  0  0  0  0  2  0  0  0  0  0  0
  186.6530  178.7170  146.0250 C   0  0  2  0  0  3  0  0  0  0  0  0
  185.3970  178.9820  146.8450 C   0  0  0  0  0  2  0  0  0  0  0  0
  184.3140  179.8440  139.5220 O   0  0  0  0  0  0  0  0  0  0  0  0
  183.7330  179.0120  140.2680 C   0  0  0  0  0  0  0  0  0  0  0  0
  180.9250  175.8720  139.6850 C   0  0  0  0  0  0  0  0  0  0  0  0
  183.2500  176.6910  139.5570 C   0  0  0  0  0  2  0  0  0  0  0  0
  180.8470  179.6090  141.2670 Cl  0  0  0  0  0  0  0  0  0  0  0  0
  179.9820  174.9330  139.4380 F   0  0  0  0  0  0  0  0  0  0  0  0
  182.1690  175.6980  139.2330 C   0  0  0  0  0  3  0  0  0  0  0  0
  181.3960  178.1440  140.4650 C   0  0  0  0  0  0  0  0  0  0  0  0
  182.6920  178.1160  139.6780 C   0  0  1  0  0  3  0  0  0  0  0  0
  180.5590  177.1030  140.4090 C   0  0  0  0  0  3  0  0  0  0  0  0
  187.6380  177.1090  147.6110 C   0  0  0  0  0  2  0  0  0  0  0  0
  188.3900  178.0060  148.5760 C   0  0  0  0  0  2  0  0  0  0  0  0
  189.7450  178.0360  148.2440 O   0  0  0  0  0  1  0  0  0  0  0  0
  2  4  1  6  0  0  0
  2  3  1  0  0  0  0
  3 17  1  0  0  0  0
  3  6  1  0  0  0  0
  4  1  1  0  0  0  0
  5 13  1  0  0  0  0
  6 29  1  0  0  0  0
  7 11  1  0  0  0  0
  9 18  1  0  0  0  0
 10 14  1  0  0  0  0
 10  7  1  0  0  0  0
 11  2  1  0  0  0  0
 11 16  1  0  0  0  0
 12  7  2  0  0  0  0
 13  8  1  0  0  0  0
 13  1  2  0  0  0  0
 14  4  2  0  0  0  0
 15  5  2  0  0  0  0
 15 14  1  0  0  0  0
 16  9  1  0  0  0  0
 17  6  1  0  0  0  0
 17 18  1  0  0  0  0
 19 20  2  0  0  0  0
 20 12  1  0  0  0  0
 21 28  1  0  0  0  0
 22 27  1  0  0  0  0
 24 21  1  0  0  0  0
 25 22  1  0  0  0  0
 25 21  2  0  0  0  0
 26 23  1  0  0  0  0
 27 20  1  0  0  0  0
 27 26  1  0  0  0  0
 28 26  2  0  0  0  0
 29 30  1  0  0  0  0
 31 30  1  0  0  0  0
M  END
>  <MODEL>
2

>  <REMARK>
 VINA RESULT:      -9.6      1.712      2.028
  Name = 
  4 active torsions:
  status: ('A' for Active; 'I' for Inactive)
    1  A    between atoms: C_9  and  C_22
    2  A    between atoms: C_9  and  N_23
    3  A    between atoms: C_10  and  C_14
    4  A    between atoms: C_10  and  C_18
                            x       y       z     vdW  Elec       q    Type
                         _______ _______ _______ _____ _____    ______ ____

>  <TORSDO>
F 4

$$$$
=
 OpenBabel10272400223D

 31 35  0  0  1  0  0  0  0  0999 V2000
  188.6210  176.8120  143.3260 C   0  0  0  0  0  3  0  0  0  0  0  0
  186.3010  177.4980  144.0670 C   0  0  2  0  0  3  0  0  0  0  0  0
  186.6660  177.3780  145.4930 N   0  0  1  0  0  0  0  0  0  0  0  0
  187.4430  177.5280  143.0680 C   0  0  0  0  0  0  0  0  0  0  0  0
  189.4830  177.3850  141.1410 C   0  0  0  0  0  3  0  0  0  0  0  0
  187.9240  177.9120  146.0370 C   0  0  1  0  0  3  0  0  0  0  0  0
  184.8690  178.6210  142.3550 C   0  0  0  0  0  0  0  0  0  0  0  0
  190.8950  176.0130  142.6740 C   0  0  0  0  0  1  0  0  0  0  0  0
  184.2970  178.3290  146.2930 C   0  0  0  0  0  2  0  0  0  0  0  0
  186.0070  178.8610  141.4020 C   0  0  0  0  0  2  0  0  0  0  0  0
  185.2200  178.5820  143.8050 C   0  0  1  0  0  3  0  0  0  0  0  0
  183.6370  178.4520  141.9660 N   0  0  0  0  0  0  0  0  0  0  0  0
  189.6430  176.7540  142.3750 C   0  0  0  0  0  0  0  0  0  0  0  0
  187.2650  178.1250  141.7930 C   0  0  0  0  0  0  0  0  0  0  0  0
  188.2980  178.0650  140.8510 C   0  0  0  0  0  3  0  0  0  0  0  0
  184.0240  178.6600  144.7970 C   0  0  0  0  0  2  0  0  0  0  0  0
  186.7550  178.7860  145.9610 C   0  0  2  0  0  3  0  0  0  0  0  0
  185.5850  178.9160  146.9280 C   0  0  0  0  0  2  0  0  0  0  0  0
  182.8130  179.5280  140.0400 O   0  0  0  0  0  0  0  0  0  0  0  0
  183.1380  178.4570  140.6170 C   0  0  0  0  0  0  0  0  0  0  0  0
  182.0460  175.5030  137.7600 C   0  0  0  0  0  0  0  0  0  0  0  0
  181.5230  176.7620  139.8170 C   0  0  0  0  0  2  0  0  0  0  0  0
  185.0510  178.2000  138.1760 Cl  0  0  0  0  0  0  0  0  0  0  0  0
  181.7820  174.5150  136.8730 F   0  0  0  0  0  0  0  0  0  0  0  0
  181.2940  175.6290  138.8560 C   0  0  0  0  0  3  0  0  0  0  0  0
  183.6190  177.2290  138.4920 C   0  0  0  0  0  0  0  0  0  0  0  0
  183.0020  177.1660  139.8760 C   0  0  1  0  0  3  0  0  0  0  0  0
  183.1920  176.4020  137.5330 C   0  0  0  0  0  3  0  0  0  0  0  0
  188.1370  177.3880  147.4480 C   0  0  0  0  0  2  0  0  0  0  0  0
  189.5800  176.9610  147.6400 C   0  0  0  0  0  2  0  0  0  0  0  0
  190.2610  177.0150  146.4230 O   0  0  0  0  0  1  0  0  0  0  0  0
  2  4  1  6  0  0  0
  2  3  1  0  0  0  0
  3 17  1  0  0  0  0
  3  6  1  0  0  0  0
  4  1  1  0  0  0  0
  5 13  1  0  0  0  0
  6 29  1  0  0  0  0
  7 11  1  0  0  0  0
  9 18  1  0  0  0  0
 10 14  1  0  0  0  0
 10  7  1  0  0  0  0
 11  2  1  0  0  0  0
 11 16  1  0  0  0  0
 12  7  2  0  0  0  0
 13  8  1  0  0  0  0
 13  1  2  0  0  0  0
 14  4  2  0  0  0  0
 15  5  2  0  0  0  0
 15 14  1  0  0  0  0
 16  9  1  0  0  0  0
 17  6  1  0  0  0  0
 17 18  1  0  0  0  0
 19 20  2  0  0  0  0
 20 12  1  0  0  0  0
 21 25  2  0  0  0  0
 22 27  1  0  0  0  0
 23 26  1  0  0  0  0
 24 21  1  0  0  0  0
 25 22  1  0  0  0  0
 26 27  1  0  0  0  0
 27 20  1  0  0  0  0
 28 21  1  0  0  0  0
 28 26  2  0  0  0  0
 29 30  1  0  0  0  0
 31 30  1  0  0  0  0
M  END
>  <MODEL>
3

>  <REMARK>
 VINA RESULT:      -9.3      1.067      1.106
  Name = 
  4 active torsions:
  status: ('A' for Active; 'I' for Inactive)
    1  A    between atoms: C_9  and  C_22
    2  A    between atoms: C_9  and  N_23
    3  A    between atoms: C_10  and  C_14
    4  A    between atoms: C_10  and  C_18
                            x       y       z     vdW  Elec       q    Type
                         _______ _______ _______ _____ _____    ______ ____

>  <TORSDO>
F 4

$$$$
=
 OpenBabel10272400223D

 31 35  0  0  1  0  0  0  0  0999 V2000
  188.6290  176.6850  143.5880 C   0  0  0  0  0  3  0  0  0  0  0  0
  186.3200  177.4540  144.2810 C   0  0  2  0  0  3  0  0  0  0  0  0
  186.6620  177.3600  145.7150 N   0  0  1  0  0  0  0  0  0  0  0  0
  187.4740  177.4270  143.2970 C   0  0  0  0  0  0  0  0  0  0  0  0
  189.5330  177.1780  141.4010 C   0  0  0  0  0  3  0  0  0  0  0  0
  187.9280  177.8730  146.2610 C   0  0  1  0  0  3  0  0  0  0  0  0
  184.9410  178.5720  142.5220 C   0  0  0  0  0  0  0  0  0  0  0  0
  190.8870  175.8070  142.9870 C   0  0  0  0  0  1  0  0  0  0  0  0
  184.3110  178.3960  146.4590 C   0  0  0  0  0  2  0  0  0  0  0  0
  186.0970  178.7560  141.5790 C   0  0  0  0  0  2  0  0  0  0  0  0
  185.2720  178.5610  143.9770 C   0  0  1  0  0  3  0  0  0  0  0  0
  183.7100  178.4270  142.1220 N   0  0  0  0  0  0  0  0  0  0  0  0
  189.6600  176.5750  142.6530 C   0  0  0  0  0  0  0  0  0  0  0  0
  187.3290  177.9960  142.0050 C   0  0  0  0  0  0  0  0  0  0  0  0
  188.3710  177.8830  141.0790 C   0  0  0  0  0  3  0  0  0  0  0  0
  184.0670  178.6970  144.9510 C   0  0  0  0  0  2  0  0  0  0  0  0
  186.7860  178.7770  146.1480 C   0  0  2  0  0  3  0  0  0  0  0  0
  185.6070  178.9640  147.0950 C   0  0  0  0  0  2  0  0  0  0  0  0
  183.5080  177.4690  139.9790 O   0  0  0  0  0  0  0  0  0  0  0  0
  183.2280  178.4120  140.7670 C   0  0  0  0  0  0  0  0  0  0  0  0
  180.7980  180.9050  138.3260 C   0  0  0  0  0  0  0  0  0  0  0  0
  183.0440  180.1960  139.0610 C   0  0  0  0  0  2  0  0  0  0  0  0
  180.1760  177.8170  140.8840 Cl  0  0  0  0  0  0  0  0  0  0  0  0
  179.9820  181.7340  137.6320 F   0  0  0  0  0  0  0  0  0  0  0  0
  182.1110  181.1420  138.3580 C   0  0  0  0  0  3  0  0  0  0  0  0
  180.9610  179.0870  139.9550 C   0  0  0  0  0  0  0  0  0  0  0  0
  182.3740  179.5350  140.2740 C   0  0  1  0  0  3  0  0  0  0  0  0
  180.2230  179.7770  139.0800 C   0  0  0  0  0  3  0  0  0  0  0  0
  188.1090  177.3790  147.6880 C   0  0  0  0  0  2  0  0  0  0  0  0
  189.4820  177.7620  148.2090 C   0  0  0  0  0  2  0  0  0  0  0  0
  190.4690  177.0650  147.5100 O   0  0  0  0  0  1  0  0  0  0  0  0
  2  4  1  6  0  0  0
  2  3  1  0  0  0  0
  3 17  1  0  0  0  0
  3  6  1  0  0  0  0
  4  1  1  0  0  0  0
  5 13  1  0  0  0  0
  6 29  1  0  0  0  0
  7 11  1  0  0  0  0
  9 18  1  0  0  0  0
 10 14  1  0  0  0  0
 10  7  1  0  0  0  0
 11  2  1  0  0  0  0
 11 16  1  0  0  0  0
 12  7  2  0  0  0  0
 13  8  1  0  0  0  0
 13  1  2  0  0  0  0
 14  4  2  0  0  0  0
 15  5  2  0  0  0  0
 15 14  1  0  0  0  0
 16  9  1  0  0  0  0
 17  6  1  0  0  0  0
 17 18  1  0  0  0  0
 19 20  2  0  0  0  0
 20 12  1  0  0  0  0
 21 25  2  0  0  0  0
 21 28  1  0  0  0  0
 22 27  1  0  0  0  0
 24 21  1  0  0  0  0
 25 22  1  0  0  0  0
 26 27  1  0  0  0  0
 26 23  1  0  0  0  0
 27 20  1  0  0  0  0
 28 26  2  0  0  0  0
 29 30  1  0  0  0  0
 31 30  1  0  0  0  0
M  END
>  <MODEL>
4

>  <REMARK>
 VINA RESULT:      -9.0      2.420      2.683
  Name = 
  4 active torsions:
  status: ('A' for Active; 'I' for Inactive)
    1  A    between atoms: C_9  and  C_22
    2  A    between atoms: C_9  and  N_23
    3  A    between atoms: C_10  and  C_14
    4  A    between atoms: C_10  and  C_18
                            x       y       z     vdW  Elec       q    Type
                         _______ _______ _______ _____ _____    ______ ____

>  <TORSDO>
F 4

$$$$
=
 OpenBabel10272400223D

 31 35  0  0  1  0  0  0  0  0999 V2000
  188.3920  177.4090  144.9330 C   0  0  0  0  0  3  0  0  0  0  0  0
  186.8210  177.7980  142.9880 C   0  0  2  0  0  3  0  0  0  0  0  0
  185.6550  177.9190  143.8880 N   0  0  1  0  0  0  0  0  0  0  0  0
  188.1930  177.8860  143.6290 C   0  0  0  0  0  0  0  0  0  0  0  0
  190.7660  177.8340  144.7570 C   0  0  0  0  0  3  0  0  0  0  0  0
  185.6900  178.7150  145.1250 C   0  0  1  0  0  3  0  0  0  0  0  0
  187.8710  178.4480  140.8160 C   0  0  0  0  0  0  0  0  0  0  0  0
  189.8580  176.9130  146.8920 C   0  0  0  0  0  1  0  0  0  0  0  0
  184.0230  178.5660  141.8690 C   0  0  0  0  0  2  0  0  0  0  0  0
  189.2100  178.7480  141.4290 C   0  0  0  0  0  2  0  0  0  0  0  0
  186.6830  178.6500  141.6970 C   0  0  1  0  0  3  0  0  0  0  0  0
  187.7240  178.0340  139.5900 N   0  0  0  0  0  0  0  0  0  0  0  0
  189.6680  177.3980  145.5000 C   0  0  0  0  0  0  0  0  0  0  0  0
  189.3190  178.2810  142.8600 C   0  0  0  0  0  0  0  0  0  0  0  0
  190.5910  178.2700  143.4420 C   0  0  0  0  0  3  0  0  0  0  0  0
  185.3000  178.6580  140.9840 C   0  0  0  0  0  2  0  0  0  0  0  0
  185.3360  179.3710  143.8680 C   0  0  2  0  0  3  0  0  0  0  0  0
  183.9900  179.4300  143.1580 C   0  0  0  0  0  2  0  0  0  0  0  0
  189.2560  178.7210  137.9380 O   0  0  0  0  0  0  0  0  0  0  0  0
  188.7590  177.7880  138.6220 C   0  0  0  0  0  0  0  0  0  0  0  0
  190.7910  174.3810  137.0890 C   0  0  0  0  0  0  0  0  0  0  0  0
  188.8450  175.8980  137.0260 C   0  0  0  0  0  2  0  0  0  0  0  0
  191.5920  177.2870  139.8070 Cl  0  0  0  0  0  0  0  0  0  0  0  0
  191.4340  173.2580  136.6920 F   0  0  0  0  0  0  0  0  0  0  0  0
  189.5510  174.6230  136.6580 C   0  0  0  0  0  3  0  0  0  0  0  0
  190.7610  176.2890  138.6220 C   0  0  0  0  0  0  0  0  0  0  0  0
  189.2620  176.3960  138.4170 C   0  0  1  0  0  3  0  0  0  0  0  0
  191.4470  175.3040  138.0330 C   0  0  0  0  0  3  0  0  0  0  0  0
  184.4570  178.4150  145.9630 C   0  0  0  0  0  2  0  0  0  0  0  0
  184.8580  178.0440  147.3790 C   0  0  0  0  0  2  0  0  0  0  0  0
  186.1970  178.3720  147.5970 O   0  0  0  0  0  1  0  0  0  0  0  0
  1 13  1  0  0  0  0
  2  4  1  1  0  0  0
  2  3  1  0  0  0  0
  3  6  1  0  0  0  0
  4  1  2  0  0  0  0
  5 13  2  0  0  0  0
  6 29  1  0  0  0  0
  7 10  1  0  0  0  0
  7 11  1  0  0  0  0
  9 18  1  0  0  0  0
 10 14  1  0  0  0  0
 11  2  1  0  0  0  0
 12  7  2  0  0  0  0
 13  8  1  0  0  0  0
 14 15  2  0  0  0  0
 14  4  1  0  0  0  0
 15  5  1  0  0  0  0
 16 11  1  0  0  0  0
 16  9  1  0  0  0  0
 17  3  1  0  0  0  0
 17  6  1  0  0  0  0
 18 17  1  0  0  0  0
 19 20  2  0  0  0  0
 20 12  1  0  0  0  0
 21 28  1  0  0  0  0
 22 27  1  0  0  0  0
 24 21  1  0  0  0  0
 25 22  1  0  0  0  0
 25 21  2  0  0  0  0
 26 23  1  0  0  0  0
 27 26  1  0  0  0  0
 27 20  1  0  0  0  0
 28 26  2  0  0  0  0
 29 30  1  0  0  0  0
 30 31  1  0  0  0  0
M  END
>  <MODEL>
5

>  <REMARK>
 VINA RESULT:      -8.8      3.307      4.613
  Name = 
  4 active torsions:
  status: ('A' for Active; 'I' for Inactive)
    1  A    between atoms: C_9  and  C_22
    2  A    between atoms: C_9  and  N_23
    3  A    between atoms: C_10  and  C_14
    4  A    between atoms: C_10  and  C_18
                            x       y       z     vdW  Elec       q    Type
                         _______ _______ _______ _____ _____    ______ ____

>  <TORSDO>
F 4

$$$$
=
 OpenBabel10272400223D

 31 35  0  0  1  0  0  0  0  0999 V2000
  186.8470  178.5780  139.2580 C   0  0  0  0  0  3  0  0  0  0  0  0
  186.2990  178.8460  141.7140 C   0  0  2  0  0  3  0  0  0  0  0  0
  184.8880  179.1670  141.4170 N   0  0  1  0  0  0  0  0  0  0  0  0
  187.1130  178.2310  140.5910 C   0  0  0  0  0  0  0  0  0  0  0  0
  188.7450  177.2810  138.5110 C   0  0  0  0  0  3  0  0  0  0  0  0
  184.0900  178.4020  140.4460 C   0  0  1  0  0  3  0  0  0  0  0  0
  187.9320  177.8730  143.3350 C   0  0  0  0  0  0  0  0  0  0  0  0
  187.3370  178.4490  136.8140 C   0  0  0  0  0  1  0  0  0  0  0  0
  184.2370  179.2200  144.0110 C   0  0  0  0  0  2  0  0  0  0  0  0
  188.6610  177.0760  142.2900 C   0  0  0  0  0  2  0  0  0  0  0  0
  186.4840  178.1280  143.0790 C   0  0  1  0  0  3  0  0  0  0  0  0
  188.5050  178.3280  144.4130 N   0  0  0  0  0  0  0  0  0  0  0  0
  187.6480  178.0930  138.2220 C   0  0  0  0  0  0  0  0  0  0  0  0
  188.2590  177.4460  140.8830 C   0  0  0  0  0  0  0  0  0  0  0  0
  189.0500  176.9620  139.8360 C   0  0  0  0  0  3  0  0  0  0  0  0
  185.6620  178.6600  144.2890 C   0  0  0  0  0  2  0  0  0  0  0  0
  184.1460  177.9480  141.8340 C   0  0  2  0  0  3  0  0  0  0  0  0
  183.3360  178.4170  143.0350 C   0  0  0  0  0  2  0  0  0  0  0  0
  190.7630  178.9970  144.4430 O   0  0  0  0  0  0  0  0  0  0  0  0
  189.8810  178.1730  144.8030 C   0  0  0  0  0  0  0  0  0  0  0  0
  191.9380  175.6600  147.5480 C   0  0  0  0  0  0  0  0  0  0  0  0
  191.6850  176.5420  145.2570 C   0  0  0  0  0  2  0  0  0  0  0  0
  188.9670  178.4170  147.7680 Cl  0  0  0  0  0  0  0  0  0  0  0  0
  192.5060  174.8140  148.4380 F   0  0  0  0  0  0  0  0  0  0  0  0
  192.2480  175.5670  146.2530 C   0  0  0  0  0  3  0  0  0  0  0  0
  190.1970  177.3300  147.1360 C   0  0  0  0  0  0  0  0  0  0  0  0
  190.2800  177.0130  145.6560 C   0  0  1  0  0  3  0  0  0  0  0  0
  190.9430  176.6450  148.0090 C   0  0  0  0  0  3  0  0  0  0  0  0
  182.7920  179.1390  140.1540 C   0  0  0  0  0  2  0  0  0  0  0  0
  182.9060  179.9120  138.8530 C   0  0  0  0  0  2  0  0  0  0  0  0
  184.0810  180.6640  138.8440 O   0  0  0  0  0  1  0  0  0  0  0  0
  1  4  1  0  0  0  0
  2  4  1  6  0  0  0
  2 11  1  0  0  0  0
  3  2  1  0  0  0  0
  3 17  1  0  0  0  0
  4 14  2  0  0  0  0
  5 15  2  0  0  0  0
  6  3  1  0  0  0  0
  6 17  1  0  0  0  0
  7 12  2  0  0  0  0
  8 13  1  0  0  0  0
  9 16  1  0  0  0  0
 10  7  1  0  0  0  0
 11  7  1  0  0  0  0
 11 16  1  0  0  0  0
 12 20  1  0  0  0  0
 13  5  1  0  0  0  0
 13  1  2  0  0  0  0
 14 10  1  0  0  0  0
 15 14  1  0  0  0  0
 17 18  1  0  0  0  0
 18  9  1  0  0  0  0
 19 20  2  0  0  0  0
 20 27  1  0  0  0  0
 21 28  1  0  0  0  0
 21 24  1  0  0  0  0
 22 27  1  0  0  0  0
 22 25  1  0  0  0  0
 25 21  2  0  0  0  0
 26 23  1  0  0  0  0
 26 28  2  0  0  0  0
 27 26  1  0  0  0  0
 29  6  1  0  0  0  0
 30 29  1  0  0  0  0
 31 30  1  0  0  0  0
M  END
>  <MODEL>
6

>  <REMARK>
 VINA RESULT:      -8.6      4.017      8.059
  Name = 
  4 active torsions:
  status: ('A' for Active; 'I' for Inactive)
    1  A    between atoms: C_9  and  C_22
    2  A    between atoms: C_9  and  N_23
    3  A    between atoms: C_10  and  C_14
    4  A    between atoms: C_10  and  C_18
                            x       y       z     vdW  Elec       q    Type
                         _______ _______ _______ _____ _____    ______ ____

>  <TORSDO>
F 4

$$$$
=
 OpenBabel10272400223D

 31 35  0  0  1  0  0  0  0  0999 V2000
  189.5690  176.5390  143.7450 C   0  0  0  0  0  3  0  0  0  0  0  0
  187.2740  177.3590  143.0630 C   0  0  2  0  0  3  0  0  0  0  0  0
  186.7900  177.3240  144.4580 N   0  0  1  0  0  0  0  0  0  0  0  0
  188.7750  177.2780  142.8560 C   0  0  0  0  0  0  0  0  0  0  0  0
  191.5210  176.9290  142.3740 C   0  0  0  0  0  3  0  0  0  0  0  0
  187.5800  177.8470  145.5840 C   0  0  1  0  0  3  0  0  0  0  0  0
  187.0920  178.4130  140.8050 C   0  0  0  0  0  0  0  0  0  0  0  0
  191.7670  175.6140  144.4810 C   0  0  0  0  0  1  0  0  0  0  0  0
  184.4410  178.4130  143.7880 C   0  0  0  0  0  2  0  0  0  0  0  0
  188.5780  178.5460  140.6270 C   0  0  0  0  0  2  0  0  0  0  0  0
  186.5890  178.4620  142.2090 C   0  0  1  0  0  3  0  0  0  0  0  0
  186.2640  178.2640  139.8100 N   0  0  0  0  0  0  0  0  0  0  0  0
  190.9370  176.3780  143.5160 C   0  0  0  0  0  0  0  0  0  0  0  0
  189.3640  177.7930  141.6720 C   0  0  0  0  0  0  0  0  0  0  0  0
  190.7370  177.6300  141.4560 C   0  0  0  0  0  3  0  0  0  0  0  0
  185.0540  178.6510  142.3780 C   0  0  0  0  0  2  0  0  0  0  0  0
  186.7050  178.7560  144.8460 C   0  0  2  0  0  3  0  0  0  0  0  0
  185.2090  178.9950  145.0040 C   0  0  0  0  0  2  0  0  0  0  0  0
  186.1480  179.0450  137.5910 O   0  0  0  0  0  0  0  0  0  0  0  0
  186.5860  178.1940  138.4100 C   0  0  0  0  0  0  0  0  0  0  0  0
  188.6200  175.4490  135.8790 C   0  0  0  0  0  0  0  0  0  0  0  0
  186.6050  176.0530  137.1690 C   0  0  0  0  0  2  0  0  0  0  0  0
  189.3450  179.1630  137.3440 Cl  0  0  0  0  0  0  0  0  0  0  0  0
  189.3380  174.5690  135.1420 F   0  0  0  0  0  0  0  0  0  0  0  0
  187.4540  175.0730  136.4090 C   0  0  0  0  0  3  0  0  0  0  0  0
  188.5900  177.6050  137.0350 C   0  0  0  0  0  0  0  0  0  0  0  0
  187.4610  177.0920  137.9070 C   0  0  1  0  0  3  0  0  0  0  0  0
  189.1540  176.7990  136.1300 C   0  0  0  0  0  3  0  0  0  0  0  0
  186.9510  177.4140  146.8980 C   0  0  0  0  0  2  0  0  0  0  0  0
  188.0120  177.2850  147.9750 C   0  0  0  0  0  2  0  0  0  0  0  0
  189.1230  176.6080  147.4710 O   0  0  0  0  0  1  0  0  0  0  0  0
  2  4  1  1  0  0  0
  2  3  1  0  0  0  0
  3 17  1  0  0  0  0
  3  6  1  0  0  0  0
  4  1  2  0  0  0  0
  5 13  2  0  0  0  0
  6 29  1  0  0  0  0
  7 11  1  0  0  0  0
  9 18  1  0  0  0  0
 10  7  1  0  0  0  0
 10 14  1  0  0  0  0
 11 16  1  0  0  0  0
 11  2  1  0  0  0  0
 12  7  2  0  0  0  0
 13  1  1  0  0  0  0
 13  8  1  0  0  0  0
 14  4  1  0  0  0  0
 15 14  2  0  0  0  0
 15  5  1  0  0  0  0
 16  9  1  0  0  0  0
 17 18  1  0  0  0  0
 17  6  1  0  0  0  0
 19 20  2  0  0  0  0
 20 12  1  0  0  0  0
 21 28  1  0  0  0  0
 21 25  2  0  0  0  0
 22 27  1  0  0  0  0
 24 21  1  0  0  0  0
 25 22  1  0  0  0  0
 26 23  1  0  0  0  0
 26 27  1  0  0  0  0
 27 20  1  0  0  0  0
 28 26  2  0  0  0  0
 29 30  1  0  0  0  0
 31 30  1  0  0  0  0
M  END
>  <MODEL>
7

>  <REMARK>
 VINA RESULT:      -8.5      2.485      2.996
  Name = 
  4 active torsions:
  status: ('A' for Active; 'I' for Inactive)
    1  A    between atoms: C_9  and  C_22
    2  A    between atoms: C_9  and  N_23
    3  A    between atoms: C_10  and  C_14
    4  A    between atoms: C_10  and  C_18
                            x       y       z     vdW  Elec       q    Type
                         _______ _______ _______ _____ _____    ______ ____

>  <TORSDO>
F 4

$$$$
=
 OpenBabel10272400223D

 31 35  0  0  1  0  0  0  0  0999 V2000
  188.1650  178.1690  146.4780 C   0  0  0  0  0  3  0  0  0  0  0  0
  188.8880  178.0300  144.0570 C   0  0  2  0  0  3  0  0  0  0  0  0
  190.2510  177.6040  144.4340 N   0  0  1  0  0  0  0  0  0  0  0  0
  187.8230  177.9540  145.1350 C   0  0  0  0  0  0  0  0  0  0  0  0
  185.8390  178.0380  147.1240 C   0  0  0  0  0  3  0  0  0  0  0  0
  190.5050  176.5780  145.4570 C   0  0  1  0  0  3  0  0  0  0  0  0
  187.0640  177.9560  142.3500 C   0  0  0  0  0  0  0  0  0  0  0  0
  187.5650  178.3970  148.8900 C   0  0  0  0  0  1  0  0  0  0  0  0
  190.9590  177.2240  141.8830 C   0  0  0  0  0  2  0  0  0  0  0  0
  185.9840  177.6770  143.3580 C   0  0  0  0  0  2  0  0  0  0  0  0
  188.4270  177.4540  142.6890 C   0  0  1  0  0  3  0  0  0  0  0  0
  186.8520  178.5980  141.2370 N   0  0  0  0  0  0  0  0  0  0  0  0
  187.1820  178.1940  147.4690 C   0  0  0  0  0  0  0  0  0  0  0  0
  186.4520  177.8460  144.7820 C   0  0  0  0  0  0  0  0  0  0  0  0
  185.4770  177.8680  145.7860 C   0  0  0  0  0  3  0  0  0  0  0  0
  189.4610  177.4510  141.5260 C   0  0  0  0  0  2  0  0  0  0  0  0
  190.2910  176.1630  144.0720 C   0  0  2  0  0  3  0  0  0  0  0  0
  191.2820  176.1130  142.9170 C   0  0  0  0  0  2  0  0  0  0  0  0
  184.9130  179.9120  141.4870 O   0  0  0  0  0  0  0  0  0  0  0  0
  185.6070  179.1450  140.7680 C   0  0  0  0  0  0  0  0  0  0  0  0
  184.6250  177.0360  137.2090 C   0  0  0  0  0  0  0  0  0  0  0  0
  186.2870  178.2640  138.5570 C   0  0  0  0  0  2  0  0  0  0  0  0
  182.7700  177.8670  140.7220 Cl  0  0  0  0  0  0  0  0  0  0  0  0
  184.2400  176.4310  136.0600 F   0  0  0  0  0  0  0  0  0  0  0  0
  185.8080  177.6500  137.2720 C   0  0  0  0  0  3  0  0  0  0  0  0
  183.9560  177.8320  139.4250 C   0  0  0  0  0  0  0  0  0  0  0  0
  185.1200  178.8030  139.3970 C   0  0  1  0  0  3  0  0  0  0  0  0
  183.7110  177.0530  138.3660 C   0  0  0  0  0  3  0  0  0  0  0  0
  191.9820  176.5690  145.8190 C   0  0  0  0  0  2  0  0  0  0  0  0
  192.2060  175.7880  147.1010 C   0  0  0  0  0  2  0  0  0  0  0  0
  192.3570  176.6660  148.1750 O   0  0  0  0  0  1  0  0  0  0  0  0
  1 13  1  0  0  0  0
  2  3  1  0  0  0  0
  2  4  1  1  0  0  0
  3  6  1  0  0  0  0
  4  1  2  0  0  0  0
  5 13  2  0  0  0  0
  6 29  1  0  0  0  0
  7 11  1  0  0  0  0
  7 10  1  0  0  0  0
  9 18  1  0  0  0  0
 10 14  1  0  0  0  0
 11  2  1  0  0  0  0
 12  7  2  0  0  0  0
 13  8  1  0  0  0  0
 14  4  1  0  0  0  0
 14 15  2  0  0  0  0
 15  5  1  0  0  0  0
 16  9  1  0  0  0  0
 16 11  1  0  0  0  0
 17  3  1  0  0  0  0
 17  6  1  0  0  0  0
 18 17  1  0  0  0  0
 20 12  1  0  0  0  0
 20 19  2  0  0  0  0
 21 25  2  0  0  0  0
 21 28  1  0  0  0  0
 22 27  1  0  0  0  0
 24 21  1  0  0  0  0
 25 22  1  0  0  0  0
 26 23  1  0  0  0  0
 27 26  1  0  0  0  0
 27 20  1  0  0  0  0
 28 26  2  0  0  0  0
 29 30  1  0  0  0  0
 30 31  1  0  0  0  0
M  END
>  <MODEL>
8

>  <REMARK>
 VINA RESULT:      -8.5      1.950      4.266
  Name = 
  4 active torsions:
  status: ('A' for Active; 'I' for Inactive)
    1  A    between atoms: C_9  and  C_22
    2  A    between atoms: C_9  and  N_23
    3  A    between atoms: C_10  and  C_14
    4  A    between atoms: C_10  and  C_18
                            x       y       z     vdW  Elec       q    Type
                         _______ _______ _______ _____ _____    ______ ____

>  <TORSDO>
F 4

$$$$
=
 OpenBabel10272400223D

 31 35  0  0  1  0  0  0  0  0999 V2000
  186.5830  178.5650  144.9340 C   0  0  0  0  0  3  0  0  0  0  0  0
  188.9570  178.1920  144.1430 C   0  0  2  0  0  3  0  0  0  0  0  0
  189.4560  178.0830  145.5290 N   0  0  1  0  0  0  0  0  0  0  0  0
  187.4570  178.0900  143.9450 C   0  0  0  0  0  0  0  0  0  0  0  0
  184.6800  178.1160  143.5120 C   0  0  0  0  0  3  0  0  0  0  0  0
  188.7680  177.2880  146.5590 C   0  0  1  0  0  3  0  0  0  0  0  0
  189.2460  177.5280  141.7520 C   0  0  0  0  0  0  0  0  0  0  0  0
  184.2890  179.0480  145.7940 C   0  0  0  0  0  1  0  0  0  0  0  0
  191.9230  177.4510  144.7100 C   0  0  0  0  0  2  0  0  0  0  0  0
  187.7900  177.2160  141.5490 C   0  0  0  0  0  2  0  0  0  0  0  0
  189.7750  177.3390  143.1340 C   0  0  1  0  0  3  0  0  0  0  0  0
  190.0260  177.9430  140.7940 N   0  0  0  0  0  0  0  0  0  0  0  0
  185.2020  178.5640  144.7260 C   0  0  0  0  0  0  0  0  0  0  0  0
  186.9240  177.6830  142.6940 C   0  0  0  0  0  0  0  0  0  0  0  0
  185.5390  177.6800  142.5000 C   0  0  0  0  0  3  0  0  0  0  0  0
  191.3240  177.3460  143.2770 C   0  0  0  0  0  2  0  0  0  0  0  0
  189.7480  176.6340  145.6940 C   0  0  2  0  0  3  0  0  0  0  0  0
  191.2660  176.5880  145.8190 C   0  0  0  0  0  2  0  0  0  0  0  0
  188.9400  179.1460  139.0840 O   0  0  0  0  0  0  0  0  0  0  0  0
  189.6730  178.1780  139.4200 C   0  0  0  0  0  0  0  0  0  0  0  0
  190.9170  174.7090  137.2980 C   0  0  0  0  0  0  0  0  0  0  0  0
  191.4450  176.5420  138.8630 C   0  0  0  0  0  2  0  0  0  0  0  0
  187.4300  176.7150  137.8350 Cl  0  0  0  0  0  0  0  0  0  0  0  0
  191.2890  173.6520  136.5380 F   0  0  0  0  0  0  0  0  0  0  0  0
  191.8420  175.4110  137.9570 C   0  0  0  0  0  3  0  0  0  0  0  0
  189.1300  176.2710  137.8950 C   0  0  0  0  0  0  0  0  0  0  0  0
  190.1840  177.2580  138.3590 C   0  0  1  0  0  3  0  0  0  0  0  0
  189.4990  175.1070  137.3510 C   0  0  0  0  0  3  0  0  0  0  0  0
  189.3540  177.6020  147.9260 C   0  0  0  0  0  2  0  0  0  0  0  0
  188.2570  178.0220  148.8860 C   0  0  0  0  0  2  0  0  0  0  0  0
  187.3040  178.7910  148.2170 O   0  0  0  0  0  1  0  0  0  0  0  0
  2  4  1  1  0  0  0
  2  3  1  0  0  0  0
  3 17  1  0  0  0  0
  3  6  1  0  0  0  0
  4  1  2  0  0  0  0
  5 13  2  0  0  0  0
  6 29  1  0  0  0  0
  7 11  1  0  0  0  0
  9 18  1  0  0  0  0
 10  7  1  0  0  0  0
 10 14  1  0  0  0  0
 11 16  1  0  0  0  0
 11  2  1  0  0  0  0
 12  7  2  0  0  0  0
 13  1  1  0  0  0  0
 13  8  1  0  0  0  0
 14  4  1  0  0  0  0
 15 14  2  0  0  0  0
 15  5  1  0  0  0  0
 16  9  1  0  0  0  0
 17 18  1  0  0  0  0
 17  6  1  0  0  0  0
 19 20  2  0  0  0  0
 20 12  1  0  0  0  0
 21 28  1  0  0  0  0
 21 25  2  0  0  0  0
 23 26  1  0  0  0  0
 24 21  1  0  0  0  0
 25 22  1  0  0  0  0
 26 27  1  0  0  0  0
 27 22  1  0  0  0  0
 27 20  1  0  0  0  0
 28 26  2  0  0  0  0
 29 30  1  0  0  0  0
 31 30  1  0  0  0  0
M  END
>  <MODEL>
9

>  <REMARK>
 VINA RESULT:      -8.4      3.403      5.445
  Name = 
  4 active torsions:
  status: ('A' for Active; 'I' for Inactive)
    1  A    between atoms: C_9  and  C_22
    2  A    between atoms: C_9  and  N_23
    3  A    between atoms: C_10  and  C_14
    4  A    between atoms: C_10  and  C_18
                            x       y       z     vdW  Elec       q    Type
                         _______ _______ _______ _____ _____    ______ ____

>  <TORSDO>
F 4

$$$$
