=
 OpenBabel10272414053D

 43 47  0  0  1  0  0  0  0  0999 V2000
  183.5710  178.8240  144.6320 C   0  0  0  0  0  0  0  0  0  0  0  0
  184.2370  178.5700  140.1850 C   0  0  0  0  0  0  0  0  0  0  0  0
  187.0090  178.3030  139.8870 C   0  0  0  0  0  0  0  0  0  0  0  0
  183.0190  178.7360  141.9050 C   0  0  0  0  0  0  0  0  0  0  0  0
  185.9220  178.6490  144.1460 F   0  0  0  0  0  0  0  0  0  0  0  0
  183.8200  178.8710  145.9640 F   0  0  0  0  0  0  0  0  0  0  0  0
  184.3210  178.6730  142.3640 C   0  0  0  0  0  0  0  0  0  0  0  0
  182.2390  178.8900  144.1690 C   0  0  0  0  0  3  0  0  0  0  0  0
  184.6360  178.7130  143.7200 C   0  0  0  0  0  0  0  0  0  0  0  0
  186.5070  178.4280  141.0900 N   0  0  0  0  0  0  0  0  0  0  0  0
  185.0930  178.5680  141.2430 C   0  0  1  0  0  3  0  0  0  0  0  0
  182.9380  178.6700  140.5540 N   0  0  0  0  0  0  0  0  0  0  0  0
  184.7480  178.4360  138.8620 N   0  0  0  0  0  0  0  0  0  0  0  0
  186.1450  178.2940  138.7250 N   0  0  0  0  0  2  0  0  0  0  0  0
  181.9490  178.8450  142.7930 C   0  0  0  0  0  3  0  0  0  0  0  0
  188.4780  178.1290  139.7030 C   0  0  1  0  0  3  0  0  0  0  0  0
  188.9940  179.1970  138.9630 O   0  0  0  0  0  1  0  0  0  0  0  0
  189.1630  178.0400  141.0600 C   0  0  0  0  0  2  0  0  0  0  0  0
  191.3110  177.1670  142.1130 N   0  0  0  0  0  2  0  0  0  0  0  0
  190.5190  177.4180  140.9490 C   0  0  0  0  0  0  0  0  0  0  0  0
  190.9630  177.0910  139.8170 O   0  0  0  0  0  0  0  0  0  0  0  0
  190.8680  177.5080  143.4600 C   0  0  1  0  0  3  0  0  0  0  0  0
  191.9330  175.4160  143.9970 O   0  0  0  0  0  1  0  0  0  0  0  0
  190.8740  176.2580  144.3430 C   0  0  1  0  0  3  0  0  0  0  0  0
  189.8160  177.0010  146.5420 N   0  0  0  0  0  0  0  0  0  0  0  0
  190.9820  176.6280  145.7940 C   0  0  0  0  0  0  0  0  0  0  0  0
  188.9700  178.4570  148.3080 C   0  0  0  0  0  2  0  0  0  0  0  0
  187.6020  178.0200  146.4230 C   0  0  0  0  0  2  0  0  0  0  0  0
  187.6160  178.1120  147.8820 N   0  0  0  0  0  2  0  0  0  0  0  0
  188.4800  176.8590  145.9660 C   0  0  0  0  0  2  0  0  0  0  0  0
  189.9290  177.3190  147.9640 C   0  0  0  0  0  2  0  0  0  0  0  0
  192.1180  176.6440  146.3430 O   0  0  0  0  0  0  0  0  0  0  0  0
  191.7870  178.5790  144.0300 C   0  0  0  0  0  2  0  0  0  0  0  0
  191.0820  179.9220  144.0400 C   0  0  0  0  0  1  0  0  0  0  0  0
  183.8740  178.3400  137.7020 C   0  0  0  0  0  2  0  0  0  0  0  0
  184.2750  175.1290  135.7320 C   0  0  0  0  0  3  0  0  0  0  0  0
  183.4430  174.2550  136.4410 C   0  0  0  0  0  0  0  0  0  0  0  0
  182.9040  176.0510  137.9880 C   0  0  0  0  0  3  0  0  0  0  0  0
  184.4230  176.4560  136.1470 C   0  0  0  0  0  3  0  0  0  0  0  0
  183.7430  176.9160  137.2790 C   0  0  0  0  0  0  0  0  0  0  0  0
  182.7550  174.7240  137.5730 C   0  0  0  0  0  3  0  0  0  0  0  0
  183.5780  171.8180  136.8400 C   0  0  0  0  0  1  0  0  0  0  0  0
  183.3170  172.9350  136.0010 O   0  0  0  0  0  0  0  0  0  0  0  0
  1  6  1  0  0  0  0
  2 12  2  0  0  0  0
  3 10  2  0  0  0  0
  4  7  2  0  0  0  0
  4 15  1  0  0  0  0
  7  9  1  0  0  0  0
  8  1  1  0  0  0  0
  9  5  1  0  0  0  0
  9  1  2  0  0  0  0
 10 11  1  0  0  0  0
 11  2  1  1  0  0  0
 11  7  1  0  0  0  0
 12  4  1  0  0  0  0
 13  2  1  0  0  0  0
 14 13  1  0  0  0  0
 14  3  1  0  0  0  0
 15  8  2  0  0  0  0
 16 17  1  1  0  0  0
 16  3  1  0  0  0  0
 16 18  1  0  0  0  0
 19 22  1  0  0  0  0
 20 18  1  0  0  0  0
 20 19  1  0  0  0  0
 21 20  2  0  0  0  0
 22 33  1  1  0  0  0
 22 24  1  0  0  0  0
 24 23  1  6  0  0  0
 24 26  1  0  0  0  0
 25 31  1  0  0  0  0
 26 32  2  0  0  0  0
 26 25  1  0  0  0  0
 28 29  1  0  0  0  0
 29 27  1  0  0  0  0
 30 28  1  0  0  0  0
 30 25  1  0  0  0  0
 31 27  1  0  0  0  0
 33 34  1  0  0  0  0
 35 13  1  0  0  0  0
 36 39  2  0  0  0  0
 36 37  1  0  0  0  0
 37 41  2  0  0  0  0
 39 40  1  0  0  0  0
 40 35  1  0  0  0  0
 40 38  2  0  0  0  0
 41 38  1  0  0  0  0
 43 37  1  0  0  0  0
 43 42  1  0  0  0  0
M  END
>  <MODEL>
1

>  <REMARK>
 VINA RESULT:      -8.9      0.000      0.000
  Name = 
  10 active torsions:
  status: ('A' for Active; 'I' for Inactive)
    1  A    between atoms: C_1  and  N_34
    2  A    between atoms: C_1  and  C_35
    3  A    between atoms: C_2  and  C_6
    4  A    between atoms: C_2  and  C_13
    5  A    between atoms: N_3  and  C_4
    6  A    between atoms: C_4  and  C_15
    7  A    between atoms: C_4  and  C_22
    8  A    between atoms: C_6  and  C_12
    9  A    between atoms: C_14  and  C_22
   10  A    between atoms: C_19  and  O_37
                            x       y       z     vdW  Elec       q    Type
                         _______ _______ _______ _____ _____    ______ ____

>  <TORSDO>
F 10

$$$$
=
 OpenBabel10272414053D

 43 47  0  0  1  0  0  0  0  0999 V2000
  186.1830  178.0540  146.3240 C   0  0  0  0  0  0  0  0  0  0  0  0
  185.0630  178.8220  142.0300 C   0  0  0  0  0  0  0  0  0  0  0  0
  187.4130  178.3520  140.5790 C   0  0  0  0  0  0  0  0  0  0  0  0
  184.6380  178.6900  144.0970 C   0  0  0  0  0  0  0  0  0  0  0  0
  188.0970  177.7610  144.8950 F   0  0  0  0  0  0  0  0  0  0  0  0
  186.9180  177.7490  147.4210 F   0  0  0  0  0  0  0  0  0  0  0  0
  185.9800  178.3830  143.9620 C   0  0  0  0  0  0  0  0  0  0  0  0
  184.8130  178.3680  146.4690 C   0  0  0  0  0  3  0  0  0  0  0  0
  186.7830  178.0590  145.0520 C   0  0  0  0  0  0  0  0  0  0  0  0
  187.4340  178.2320  141.8830 N   0  0  0  0  0  0  0  0  0  0  0  0
  186.2370  178.4760  142.6240 C   0  0  0  0  0  0  0  0  0  0  0  0
  184.0440  178.9630  142.9100 N   0  0  0  0  0  2  0  0  0  0  0  0
  185.0030  178.9640  140.6130 N   0  0  0  0  0  0  0  0  0  0  0  0
  186.1900  178.7150  139.8930 N   0  0  0  0  0  2  0  0  0  0  0  0
  184.0240  178.6890  145.3480 C   0  0  0  0  0  3  0  0  0  0  0  0
  188.6420  178.0780  139.7810 C   0  0  1  0  0  3  0  0  0  0  0  0
  189.4790  177.2060  140.4820 O   0  0  0  0  0  1  0  0  0  0  0  0
  188.2610  177.4830  138.4320 C   0  0  0  0  0  2  0  0  0  0  0  0
  188.5750  177.9460  135.9480 N   0  0  0  0  0  2  0  0  0  0  0  0
  188.6480  178.3880  137.3060 C   0  0  0  0  0  0  0  0  0  0  0  0
  189.0250  179.5640  137.5530 O   0  0  0  0  0  0  0  0  0  0  0  0
  188.1430  176.6040  135.5760 C   0  0  1  0  0  3  0  0  0  0  0  0
  188.2870  174.3390  136.3850 O   0  0  0  0  0  1  0  0  0  0  0  0
  188.9600  175.5620  136.3440 C   0  0  1  0  0  3  0  0  0  0  0  0
  191.5060  175.4980  136.4960 N   0  0  0  0  0  0  0  0  0  0  0  0
  190.3090  175.3690  135.7140 C   0  0  0  0  0  0  0  0  0  0  0  0
  193.8290  176.2440  136.4650 C   0  0  0  0  0  2  0  0  0  0  0  0
  192.5340  176.5940  138.4180 C   0  0  0  0  0  2  0  0  0  0  0  0
  193.8330  176.1440  137.9230 N   0  0  0  0  0  2  0  0  0  0  0  0
  191.4380  175.6400  137.9490 C   0  0  0  0  0  2  0  0  0  0  0  0
  192.8110  175.2670  135.8810 C   0  0  0  0  0  2  0  0  0  0  0  0
  190.3850  175.1290  134.4780 O   0  0  0  0  0  0  0  0  0  0  0  0
  186.6580  176.4560  135.8760 C   0  0  0  0  0  2  0  0  0  0  0  0
  185.8520  177.3970  135.0030 C   0  0  0  0  0  1  0  0  0  0  0  0
  183.7560  179.2430  139.9170 C   0  0  0  0  0  2  0  0  0  0  0  0
  182.7900  176.8990  137.1020 C   0  0  0  0  0  3  0  0  0  0  0  0
  182.3680  175.7660  137.8080 C   0  0  0  0  0  0  0  0  0  0  0  0
  182.8690  176.9030  139.8980 C   0  0  0  0  0  3  0  0  0  0  0  0
  183.2500  178.0270  137.7880 C   0  0  0  0  0  3  0  0  0  0  0  0
  183.2970  178.0270  139.1850 C   0  0  0  0  0  0  0  0  0  0  0  0
  182.4090  175.7740  139.2120 C   0  0  0  0  0  3  0  0  0  0  0  0
  182.6840  173.4690  136.9480 C   0  0  0  0  0  1  0  0  0  0  0  0
  181.9140  174.6550  137.0940 O   0  0  0  0  0  0  0  0  0  0  0  0
  1  8  1  0  0  0  0
  1  6  1  0  0  0  0
  2 11  2  0  0  0  0
  2 12  1  0  0  0  0
  3 10  2  0  0  0  0
  4 15  1  0  0  0  0
  5  9  1  0  0  0  0
  7  4  2  0  0  0  0
  7  9  1  0  0  0  0
  9  1  2  0  0  0  0
 10 11  1  0  0  0  0
 11  7  1  0  0  0  0
 12  4  1  0  0  0  0
 13  2  1  0  0  0  0
 14  3  1  0  0  0  0
 14 13  1  0  0  0  0
 15  8  2  0  0  0  0
 16 17  1  1  0  0  0
 16  3  1  0  0  0  0
 18 16  1  0  0  0  0
 19 20  1  0  0  0  0
 20 21  2  0  0  0  0
 20 18  1  0  0  0  0
 22 33  1  1  0  0  0
 22 19  1  0  0  0  0
 22 24  1  0  0  0  0
 24 23  1  6  0  0  0
 25 30  1  0  0  0  0
 26 24  1  0  0  0  0
 26 25  1  0  0  0  0
 27 29  1  0  0  0  0
 29 28  1  0  0  0  0
 30 28  1  0  0  0  0
 31 27  1  0  0  0  0
 31 25  1  0  0  0  0
 32 26  2  0  0  0  0
 34 33  1  0  0  0  0
 35 13  1  0  0  0  0
 36 39  2  0  0  0  0
 36 37  1  0  0  0  0
 37 41  2  0  0  0  0
 39 40  1  0  0  0  0
 40 38  2  0  0  0  0
 40 35  1  0  0  0  0
 41 38  1  0  0  0  0
 42 43  1  0  0  0  0
 43 37  1  0  0  0  0
M  END
>  <MODEL>
2

>  <REMARK>
 VINA RESULT:      -8.8      2.963      6.191
  Name = 
  10 active torsions:
  status: ('A' for Active; 'I' for Inactive)
    1  A    between atoms: C_1  and  N_34
    2  A    between atoms: C_1  and  C_35
    3  A    between atoms: C_2  and  C_6
    4  A    between atoms: C_2  and  C_13
    5  A    between atoms: N_3  and  C_4
    6  A    between atoms: C_4  and  C_15
    7  A    between atoms: C_4  and  C_22
    8  A    between atoms: C_6  and  C_12
    9  A    between atoms: C_14  and  C_22
   10  A    between atoms: C_19  and  O_37
                            x       y       z     vdW  Elec       q    Type
                         _______ _______ _______ _____ _____    ______ ____

>  <TORSDO>
F 10

$$$$
=
 OpenBabel10272414053D

 43 47  0  0  1  0  0  0  0  0999 V2000
  182.2420  179.1600  140.1100 C   0  0  0  0  0  0  0  0  0  0  0  0
  185.2570  178.2760  143.3370 C   0  0  0  0  0  0  0  0  0  0  0  0
  187.7230  178.1890  142.0120 C   0  0  0  0  0  0  0  0  0  0  0  0
  183.2970  178.6470  142.6350 C   0  0  0  0  0  0  0  0  0  0  0  0
  184.4490  178.9800  139.1670 F   0  0  0  0  0  0  0  0  0  0  0  0
  181.7080  179.4090  138.8890 F   0  0  0  0  0  0  0  0  0  0  0  0
  184.1160  178.6890  141.5220 C   0  0  0  0  0  0  0  0  0  0  0  0
  181.3990  179.1170  141.2430 C   0  0  0  0  0  3  0  0  0  0  0  0
  183.6250  178.9440  140.2440 C   0  0  0  0  0  0  0  0  0  0  0  0
  186.6340  178.4060  141.3170 N   0  0  0  0  0  0  0  0  0  0  0  0
  185.3750  178.4460  141.9920 C   0  0  0  0  0  0  0  0  0  0  0  0
  183.9820  178.3960  143.7770 N   0  0  0  0  0  2  0  0  0  0  0  0
  186.4200  178.0380  144.1250 N   0  0  0  0  0  0  0  0  0  0  0  0
  187.6570  178.0050  143.4480 N   0  0  0  0  0  2  0  0  0  0  0  0
  181.9240  178.8600  142.5240 C   0  0  0  0  0  3  0  0  0  0  0  0
  189.0520  178.1680  141.3360 C   0  0  1  0  0  3  0  0  0  0  0  0
  190.0160  177.6390  142.1980 O   0  0  0  0  0  1  0  0  0  0  0  0
  188.9690  177.3420  140.0590 C   0  0  0  0  0  2  0  0  0  0  0  0
  190.2580  177.6940  137.8910 N   0  0  0  0  0  2  0  0  0  0  0  0
  189.3100  178.1610  138.8550 C   0  0  0  0  0  0  0  0  0  0  0  0
  188.7410  179.2700  138.6740 O   0  0  0  0  0  0  0  0  0  0  0  0
  190.9560  176.4200  138.0220 C   0  0  1  0  0  3  0  0  0  0  0  0
  191.9550  174.9600  136.3870 O   0  0  0  0  0  1  0  0  0  0  0  0
  190.7620  175.5880  136.7520 C   0  0  1  0  0  3  0  0  0  0  0  0
  188.3300  174.8320  136.5950 N   0  0  0  0  0  0  0  0  0  0  0  0
  189.6930  174.5520  136.9490 C   0  0  0  0  0  0  0  0  0  0  0  0
  185.9990  174.4490  137.2070 C   0  0  0  0  0  2  0  0  0  0  0  0
  186.6360  176.5740  136.3750 C   0  0  0  0  0  2  0  0  0  0  0  0
  185.6280  175.5200  136.2840 N   0  0  0  0  0  2  0  0  0  0  0  0
  187.9810  176.0540  135.8740 C   0  0  0  0  0  2  0  0  0  0  0  0
  187.3060  173.8020  136.7530 C   0  0  0  0  0  2  0  0  0  0  0  0
  189.9960  173.4420  137.4650 O   0  0  0  0  0  0  0  0  0  0  0  0
  192.4330  176.6850  138.2760 C   0  0  0  0  0  2  0  0  0  0  0  0
  192.6490  177.1010  139.7170 C   0  0  0  0  0  1  0  0  0  0  0  0
  186.3650  177.9400  145.5750 C   0  0  0  0  0  2  0  0  0  0  0  0
  189.9980  176.8980  145.8320 C   0  0  0  0  0  3  0  0  0  0  0  0
  190.2820  177.1870  147.1710 C   0  0  0  0  0  0  0  0  0  0  0  0
  188.0050  177.9850  147.4650 C   0  0  0  0  0  3  0  0  0  0  0  0
  188.7250  177.1520  145.3090 C   0  0  0  0  0  3  0  0  0  0  0  0
  187.7310  177.7020  146.1230 C   0  0  0  0  0  0  0  0  0  0  0  0
  189.2770  177.7310  147.9880 C   0  0  0  0  0  3  0  0  0  0  0  0
  192.2980  175.7600  147.3010 C   0  0  0  0  0  1  0  0  0  0  0  0
  191.5630  176.9220  147.6630 O   0  0  0  0  0  0  0  0  0  0  0  0
  1  9  2  0  0  0  0
  1  8  1  0  0  0  0
  2 12  1  0  0  0  0
  2 13  1  0  0  0  0
  3 14  1  0  0  0  0
  4 12  1  0  0  0  0
  5  9  1  0  0  0  0
  6  1  1  0  0  0  0
  7 11  1  0  0  0  0
  7  4  2  0  0  0  0
  8 15  2  0  0  0  0
  9  7  1  0  0  0  0
 10 11  1  0  0  0  0
 10  3  2  0  0  0  0
 11  2  2  0  0  0  0
 13 35  1  0  0  0  0
 14 13  1  0  0  0  0
 15  4  1  0  0  0  0
 16  3  1  0  0  0  0
 16 17  1  1  0  0  0
 18 16  1  0  0  0  0
 19 22  1  0  0  0  0
 19 20  1  0  0  0  0
 20 18  1  0  0  0  0
 21 20  2  0  0  0  0
 22 33  1  6  0  0  0
 24 23  1  1  0  0  0
 24 26  1  0  0  0  0
 24 22  1  0  0  0  0
 25 31  1  0  0  0  0
 25 26  1  0  0  0  0
 26 32  2  0  0  0  0
 29 28  1  0  0  0  0
 29 27  1  0  0  0  0
 30 28  1  0  0  0  0
 30 25  1  0  0  0  0
 31 27  1  0  0  0  0
 33 34  1  0  0  0  0
 35 40  1  0  0  0  0
 36 37  1  0  0  0  0
 37 43  1  0  0  0  0
 37 41  2  0  0  0  0
 38 41  1  0  0  0  0
 39 36  2  0  0  0  0
 39 40  1  0  0  0  0
 40 38  2  0  0  0  0
 42 43  1  0  0  0  0
M  END
>  <MODEL>
3

>  <REMARK>
 VINA RESULT:      -8.8      2.820      7.900
  Name = 
  10 active torsions:
  status: ('A' for Active; 'I' for Inactive)
    1  A    between atoms: C_1  and  N_34
    2  A    between atoms: C_1  and  C_35
    3  A    between atoms: C_2  and  C_6
    4  A    between atoms: C_2  and  C_13
    5  A    between atoms: N_3  and  C_4
    6  A    between atoms: C_4  and  C_15
    7  A    between atoms: C_4  and  C_22
    8  A    between atoms: C_6  and  C_12
    9  A    between atoms: C_14  and  C_22
   10  A    between atoms: C_19  and  O_37
                            x       y       z     vdW  Elec       q    Type
                         _______ _______ _______ _____ _____    ______ ____

>  <TORSDO>
F 10

$$$$
=
 OpenBabel10272414053D

 43 47  0  0  1  0  0  0  0  0999 V2000
  189.5020  177.0890  147.1390 C   0  0  0  0  0  0  0  0  0  0  0  0
  186.8040  178.1650  143.6970 C   0  0  0  0  0  0  0  0  0  0  0  0
  188.4170  177.9280  141.4180 C   0  0  0  0  0  0  0  0  0  0  0  0
  187.2110  177.8390  145.7460 C   0  0  0  0  0  0  0  0  0  0  0  0
  190.7190  177.0070  145.0640 F   0  0  0  0  0  0  0  0  0  0  0  0
  190.6070  176.7270  147.8360 F   0  0  0  0  0  0  0  0  0  0  0  0
  188.4000  177.6070  145.0790 C   0  0  0  0  0  0  0  0  0  0  0  0
  188.2910  177.3260  147.8270 C   0  0  0  0  0  3  0  0  0  0  0  0
  189.5650  177.2290  145.7410 C   0  0  0  0  0  0  0  0  0  0  0  0
  188.9410  177.6990  142.5970 N   0  0  0  0  0  0  0  0  0  0  0  0
  188.1200  177.8240  143.7600 C   0  0  0  0  0  0  0  0  0  0  0  0
  186.2020  178.1830  144.9090 N   0  0  0  0  0  2  0  0  0  0  0  0
  186.2010  178.4220  142.4320 N   0  0  0  0  0  0  0  0  0  0  0  0
  187.0200  178.2900  141.2910 N   0  0  0  0  0  2  0  0  0  0  0  0
  187.1270  177.7030  147.1300 C   0  0  0  0  0  3  0  0  0  0  0  0
  189.2460  177.7790  140.1880 C   0  0  1  0  0  3  0  0  0  0  0  0
  190.1690  176.7440  140.3590 O   0  0  0  0  0  1  0  0  0  0  0  0
  188.3480  177.5000  138.9900 C   0  0  0  0  0  2  0  0  0  0  0  0
  189.5860  177.6120  136.7680 N   0  0  0  0  0  2  0  0  0  0  0  0
  188.8030  178.2510  137.7790 C   0  0  0  0  0  0  0  0  0  0  0  0
  188.4750  179.4590  137.6350 O   0  0  0  0  0  0  0  0  0  0  0  0
  190.0030  176.2170  136.8540 C   0  0  1  0  0  3  0  0  0  0  0  0
  189.9580  174.9560  134.8020 O   0  0  0  0  0  1  0  0  0  0  0  0
  189.1780  175.3660  135.8850 C   0  0  1  0  0  3  0  0  0  0  0  0
  187.2060  173.8770  136.5230 N   0  0  0  0  0  0  0  0  0  0  0  0
  188.6120  174.1600  136.5790 C   0  0  0  0  0  0  0  0  0  0  0  0
  185.3070  172.9900  137.7710 C   0  0  0  0  0  2  0  0  0  0  0  0
  184.9750  174.8460  136.3350 C   0  0  0  0  0  2  0  0  0  0  0  0
  184.4290  173.5540  136.7480 N   0  0  0  0  0  2  0  0  0  0  0  0
  186.3230  174.6460  135.6480 C   0  0  0  0  0  2  0  0  0  0  0  0
  186.6740  172.6790  137.1670 C   0  0  0  0  0  2  0  0  0  0  0  0
  189.3810  173.4150  137.2460 O   0  0  0  0  0  0  0  0  0  0  0  0
  191.4870  176.1190  136.5330 C   0  0  0  0  0  2  0  0  0  0  0  0
  192.2990  176.0960  137.8120 C   0  0  0  0  0  1  0  0  0  0  0  0
  184.7790  178.7010  142.2960 C   0  0  0  0  0  2  0  0  0  0  0  0
  184.3530  178.9430  138.5400 C   0  0  0  0  0  3  0  0  0  0  0  0
  183.4400  177.9120  138.2910 C   0  0  0  0  0  0  0  0  0  0  0  0
  183.4130  177.3850  140.6640 C   0  0  0  0  0  3  0  0  0  0  0  0
  184.7970  179.1940  139.8430 C   0  0  0  0  0  3  0  0  0  0  0  0
  184.3320  178.4110  140.9040 C   0  0  0  0  0  0  0  0  0  0  0  0
  182.9690  177.1340  139.3610 C   0  0  0  0  0  3  0  0  0  0  0  0
  181.7370  177.1510  136.6660 C   0  0  0  0  0  1  0  0  0  0  0  0
  183.0170  177.6860  136.9790 O   0  0  0  0  0  0  0  0  0  0  0  0
  1  8  1  0  0  0  0
  1  6  1  0  0  0  0
  2 11  2  0  0  0  0
  2 12  1  0  0  0  0
  3 10  2  0  0  0  0
  4 15  1  0  0  0  0
  5  9  1  0  0  0  0
  7  9  1  0  0  0  0
  7  4  2  0  0  0  0
  9  1  2  0  0  0  0
 10 11  1  0  0  0  0
 11  7  1  0  0  0  0
 12  4  1  0  0  0  0
 13  2  1  0  0  0  0
 14  3  1  0  0  0  0
 14 13  1  0  0  0  0
 15  8  2  0  0  0  0
 16 17  1  1  0  0  0
 16  3  1  0  0  0  0
 18 16  1  0  0  0  0
 19 22  1  0  0  0  0
 19 20  1  0  0  0  0
 20 18  1  0  0  0  0
 21 20  2  0  0  0  0
 22 33  1  6  0  0  0
 24 23  1  6  0  0  0
 24 26  1  0  0  0  0
 24 22  1  0  0  0  0
 25 26  1  0  0  0  0
 25 31  1  0  0  0  0
 26 32  2  0  0  0  0
 28 29  1  0  0  0  0
 29 27  1  0  0  0  0
 30 28  1  0  0  0  0
 30 25  1  0  0  0  0
 31 27  1  0  0  0  0
 33 34  1  0  0  0  0
 35 13  1  0  0  0  0
 36 39  1  0  0  0  0
 37 36  2  0  0  0  0
 37 41  1  0  0  0  0
 38 40  1  0  0  0  0
 39 40  2  0  0  0  0
 40 35  1  0  0  0  0
 41 38  2  0  0  0  0
 42 43  1  0  0  0  0
 43 37  1  0  0  0  0
M  END
>  <MODEL>
4

>  <REMARK>
 VINA RESULT:      -8.8      3.003      6.816
  Name = 
  10 active torsions:
  status: ('A' for Active; 'I' for Inactive)
    1  A    between atoms: C_1  and  N_34
    2  A    between atoms: C_1  and  C_35
    3  A    between atoms: C_2  and  C_6
    4  A    between atoms: C_2  and  C_13
    5  A    between atoms: N_3  and  C_4
    6  A    between atoms: C_4  and  C_15
    7  A    between atoms: C_4  and  C_22
    8  A    between atoms: C_6  and  C_12
    9  A    between atoms: C_14  and  C_22
   10  A    between atoms: C_19  and  O_37
                            x       y       z     vdW  Elec       q    Type
                         _______ _______ _______ _____ _____    ______ ____

>  <TORSDO>
F 10

$$$$
=
 OpenBabel10272414053D

 43 47  0  0  1  0  0  0  0  0999 V2000
  189.4850  176.9160  147.1080 C   0  0  0  0  0  0  0  0  0  0  0  0
  186.8180  178.3340  143.7670 C   0  0  0  0  0  0  0  0  0  0  0  0
  188.2170  177.7200  141.4200 C   0  0  0  0  0  0  0  0  0  0  0  0
  187.2850  178.0170  145.8050 C   0  0  0  0  0  0  0  0  0  0  0  0
  190.5370  176.5340  144.9780 F   0  0  0  0  0  0  0  0  0  0  0  0
  190.5470  176.3850  147.7610 F   0  0  0  0  0  0  0  0  0  0  0  0
  188.3690  177.5470  145.0870 C   0  0  0  0  0  0  0  0  0  0  0  0
  188.3810  177.3960  147.8470 C   0  0  0  0  0  3  0  0  0  0  0  0
  189.4860  176.9890  145.7030 C   0  0  0  0  0  0  0  0  0  0  0  0
  188.7640  177.4430  142.5780 N   0  0  0  0  0  0  0  0  0  0  0  0
  188.0520  177.7610  143.7760 C   0  0  0  0  0  0  0  0  0  0  0  0
  186.3050  178.5080  145.0080 N   0  0  0  0  0  2  0  0  0  0  0  0
  186.1930  178.6480  142.5260 N   0  0  0  0  0  0  0  0  0  0  0  0
  186.9040  178.3260  141.3510 N   0  0  0  0  0  2  0  0  0  0  0  0
  187.2640  177.9520  147.1970 C   0  0  0  0  0  3  0  0  0  0  0  0
  188.9280  177.3750  140.1560 C   0  0  1  0  0  3  0  0  0  0  0  0
  189.3410  178.5430  139.5090 O   0  0  0  0  0  1  0  0  0  0  0  0
  190.1240  176.4830  140.4610 C   0  0  0  0  0  2  0  0  0  0  0  0
  192.0200  176.6410  138.7680 N   0  0  0  0  0  2  0  0  0  0  0  0
  191.4000  177.0940  139.9740 C   0  0  0  0  0  0  0  0  0  0  0  0
  191.9280  178.0350  140.6240 O   0  0  0  0  0  0  0  0  0  0  0  0
  191.4720  175.5620  137.9540 C   0  0  1  0  0  3  0  0  0  0  0  0
  191.3190  176.0620  135.6020 O   0  0  0  0  0  1  0  0  0  0  0  0
  190.6310  176.1450  136.8160 C   0  0  1  0  0  3  0  0  0  0  0  0
  188.1030  176.1550  136.4690 N   0  0  0  0  0  0  0  0  0  0  0  0
  189.3180  175.4260  136.6960 C   0  0  0  0  0  0  0  0  0  0  0  0
  185.7160  176.2440  136.9670 C   0  0  0  0  0  2  0  0  0  0  0  0
  186.9400  178.2690  136.8290 C   0  0  0  0  0  2  0  0  0  0  0  0
  185.7010  177.6040  136.4300 N   0  0  0  0  0  2  0  0  0  0  0  0
  188.1350  177.5850  136.1700 C   0  0  0  0  0  2  0  0  0  0  0  0
  186.8380  175.4410  136.3140 C   0  0  0  0  0  2  0  0  0  0  0  0
  189.2860  174.1730  136.8360 O   0  0  0  0  0  0  0  0  0  0  0  0
  192.6150  174.7190  137.4070 C   0  0  0  0  0  2  0  0  0  0  0  0
  193.9450  175.2800  137.8690 C   0  0  0  0  0  1  0  0  0  0  0  0
  184.8390  179.1770  142.4530 C   0  0  0  0  0  2  0  0  0  0  0  0
  183.8050  179.1890  138.8090 C   0  0  0  0  0  3  0  0  0  0  0  0
  182.9570  178.0780  138.7510 C   0  0  0  0  0  0  0  0  0  0  0  0
  183.3520  177.6730  141.1150 C   0  0  0  0  0  3  0  0  0  0  0  0
  184.4260  179.5420  140.0120 C   0  0  0  0  0  3  0  0  0  0  0  0
  184.2050  178.7810  141.1640 C   0  0  0  0  0  0  0  0  0  0  0  0
  182.7320  177.3210  139.9120 C   0  0  0  0  0  3  0  0  0  0  0  0
  181.4850  178.6420  136.8460 C   0  0  0  0  0  1  0  0  0  0  0  0
  182.3530  177.7510  137.5340 O   0  0  0  0  0  0  0  0  0  0  0  0
  1  6  1  0  0  0  0
  1  8  1  0  0  0  0
  2 11  2  0  0  0  0
  2 12  1  0  0  0  0
  3 10  2  0  0  0  0
  4 15  1  0  0  0  0
  5  9  1  0  0  0  0
  7  9  1  0  0  0  0
  7  4  2  0  0  0  0
  9  1  2  0  0  0  0
 10 11  1  0  0  0  0
 11  7  1  0  0  0  0
 12  4  1  0  0  0  0
 13  2  1  0  0  0  0
 14  3  1  0  0  0  0
 14 13  1  0  0  0  0
 15  8  2  0  0  0  0
 16 17  1  1  0  0  0
 16 18  1  0  0  0  0
 16  3  1  0  0  0  0
 19 20  1  0  0  0  0
 20 18  1  0  0  0  0
 20 21  2  0  0  0  0
 22 33  1  6  0  0  0
 22 19  1  0  0  0  0
 24 23  1  6  0  0  0
 24 22  1  0  0  0  0
 25 26  1  0  0  0  0
 26 24  1  0  0  0  0
 26 32  2  0  0  0  0
 29 28  1  0  0  0  0
 29 27  1  0  0  0  0
 30 25  1  0  0  0  0
 30 28  1  0  0  0  0
 31 25  1  0  0  0  0
 31 27  1  0  0  0  0
 33 34  1  0  0  0  0
 35 13  1  0  0  0  0
 36 39  1  0  0  0  0
 37 36  2  0  0  0  0
 37 41  1  0  0  0  0
 38 40  1  0  0  0  0
 39 40  2  0  0  0  0
 40 35  1  0  0  0  0
 41 38  2  0  0  0  0
 42 43  1  0  0  0  0
 43 37  1  0  0  0  0
M  END
>  <MODEL>
5

>  <REMARK>
 VINA RESULT:      -8.5      2.912      6.578
  Name = 
  10 active torsions:
  status: ('A' for Active; 'I' for Inactive)
    1  A    between atoms: C_1  and  N_34
    2  A    between atoms: C_1  and  C_35
    3  A    between atoms: C_2  and  C_6
    4  A    between atoms: C_2  and  C_13
    5  A    between atoms: N_3  and  C_4
    6  A    between atoms: C_4  and  C_15
    7  A    between atoms: C_4  and  C_22
    8  A    between atoms: C_6  and  C_12
    9  A    between atoms: C_14  and  C_22
   10  A    between atoms: C_19  and  O_37
                            x       y       z     vdW  Elec       q    Type
                         _______ _______ _______ _____ _____    ______ ____

>  <TORSDO>
F 10

$$$$
=
 OpenBabel10272414053D

 43 47  0  0  1  0  0  0  0  0999 V2000
  188.2670  177.3840  147.6240 C   0  0  0  0  0  0  0  0  0  0  0  0
  188.8970  177.6320  143.1710 C   0  0  0  0  0  0  0  0  0  0  0  0
  186.4600  178.5640  142.1520 C   0  0  0  0  0  0  0  0  0  0  0  0
  189.5310  177.2320  145.1480 C   0  0  0  0  0  0  0  0  0  0  0  0
  186.2510  178.1170  146.5330 F   0  0  0  0  0  0  0  0  0  0  0  0
  187.6690  177.4500  148.8390 F   0  0  0  0  0  0  0  0  0  0  0  0
  188.2110  177.6320  145.2440 C   0  0  0  0  0  0  0  0  0  0  0  0
  189.6160  176.9740  147.5330 C   0  0  0  0  0  3  0  0  0  0  0  0
  187.5460  177.7220  146.4640 C   0  0  0  0  0  0  0  0  0  0  0  0
  186.5760  178.3640  143.4410 N   0  0  0  0  0  0  0  0  0  0  0  0
  187.8170  177.8840  143.9610 C   0  0  1  0  0  3  0  0  0  0  0  0
  189.9830  177.2270  143.8700 N   0  0  0  0  0  0  0  0  0  0  0  0
  188.8070  177.8380  141.7640 N   0  0  0  0  0  0  0  0  0  0  0  0
  187.5780  178.3170  141.2640 N   0  0  0  0  0  2  0  0  0  0  0  0
  190.2640  176.8960  146.2850 C   0  0  0  0  0  3  0  0  0  0  0  0
  185.1840  179.0890  141.5870 C   0  0  1  0  0  3  0  0  0  0  0  0
  185.3600  179.4190  140.2400 O   0  0  0  0  0  1  0  0  0  0  0  0
  184.0830  178.0490  141.7410 C   0  0  0  0  0  2  0  0  0  0  0  0
  181.6950  178.7700  141.2300 N   0  0  0  0  0  2  0  0  0  0  0  0
  182.7880  178.6780  142.1470 C   0  0  0  0  0  0  0  0  0  0  0  0
  182.6490  179.1160  143.3200 O   0  0  0  0  0  0  0  0  0  0  0  0
  181.7710  178.2810  139.8580 C   0  0  1  0  0  3  0  0  0  0  0  0
  179.9820  176.7360  140.3200 O   0  0  0  0  0  1  0  0  0  0  0  0
  181.2710  176.8360  139.7910 C   0  0  1  0  0  3  0  0  0  0  0  0
  182.4920  176.2650  137.6250 N   0  0  0  0  0  0  0  0  0  0  0  0
  181.2710  176.3340  138.3760 C   0  0  0  0  0  0  0  0  0  0  0  0
  183.4780  176.5210  135.4070 C   0  0  0  0  0  2  0  0  0  0  0  0
  184.7020  177.2470  137.3020 C   0  0  0  0  0  2  0  0  0  0  0  0
  184.7950  176.5130  136.0420 N   0  0  0  0  0  2  0  0  0  0  0  0
  183.7810  176.5080  138.2690 C   0  0  0  0  0  2  0  0  0  0  0  0
  182.4850  175.7370  136.2630 C   0  0  0  0  0  2  0  0  0  0  0  0
  180.1780  176.0070  137.8370 O   0  0  0  0  0  0  0  0  0  0  0  0
  180.9380  179.1850  138.9600 C   0  0  0  0  0  2  0  0  0  0  0  0
  181.8400  179.9720  138.0300 C   0  0  0  0  0  1  0  0  0  0  0  0
  189.9530  177.6730  140.8840 C   0  0  0  0  0  2  0  0  0  0  0  0
  188.9310  176.3360  137.4900 C   0  0  0  0  0  3  0  0  0  0  0  0
  188.7220  177.5180  136.7700 C   0  0  0  0  0  0  0  0  0  0  0  0
  189.3050  178.8060  138.7490 C   0  0  0  0  0  3  0  0  0  0  0  0
  189.3220  176.3860  138.8320 C   0  0  0  0  0  3  0  0  0  0  0  0
  189.5030  177.6200  139.4640 C   0  0  0  0  0  0  0  0  0  0  0  0
  188.9130  178.7560  137.4070 C   0  0  0  0  0  3  0  0  0  0  0  0
  188.3590  176.2170  134.6990 C   0  0  0  0  0  1  0  0  0  0  0  0
  188.3310  177.4350  135.4320 O   0  0  0  0  0  0  0  0  0  0  0  0
  1  6  1  0  0  0  0
  2 12  2  0  0  0  0
  3 10  2  0  0  0  0
  4  7  2  0  0  0  0
  4 15  1  0  0  0  0
  7  9  1  0  0  0  0
  8  1  1  0  0  0  0
  9  5  1  0  0  0  0
  9  1  2  0  0  0  0
 10 11  1  0  0  0  0
 11  2  1  1  0  0  0
 11  7  1  0  0  0  0
 12  4  1  0  0  0  0
 13  2  1  0  0  0  0
 14 13  1  0  0  0  0
 14  3  1  0  0  0  0
 15  8  2  0  0  0  0
 16 17  1  6  0  0  0
 16 18  1  0  0  0  0
 16  3  1  0  0  0  0
 18 20  1  0  0  0  0
 19 20  1  0  0  0  0
 20 21  2  0  0  0  0
 22 33  1  6  0  0  0
 22 19  1  0  0  0  0
 24 22  1  0  0  0  0
 24 23  1  6  0  0  0
 25 30  1  0  0  0  0
 25 26  1  0  0  0  0
 26 24  1  0  0  0  0
 27 29  1  0  0  0  0
 27 31  1  0  0  0  0
 28 30  1  0  0  0  0
 29 28  1  0  0  0  0
 31 25  1  0  0  0  0
 32 26  2  0  0  0  0
 34 33  1  0  0  0  0
 35 13  1  0  0  0  0
 36 39  1  0  0  0  0
 37 41  1  0  0  0  0
 37 36  2  0  0  0  0
 38 40  1  0  0  0  0
 39 40  2  0  0  0  0
 40 35  1  0  0  0  0
 41 38  2  0  0  0  0
 42 43  1  0  0  0  0
 43 37  1  0  0  0  0
M  END
>  <MODEL>
6

>  <REMARK>
 VINA RESULT:      -8.5      3.003      8.352
  Name = 
  10 active torsions:
  status: ('A' for Active; 'I' for Inactive)
    1  A    between atoms: C_1  and  N_34
    2  A    between atoms: C_1  and  C_35
    3  A    between atoms: C_2  and  C_6
    4  A    between atoms: C_2  and  C_13
    5  A    between atoms: N_3  and  C_4
    6  A    between atoms: C_4  and  C_15
    7  A    between atoms: C_4  and  C_22
    8  A    between atoms: C_6  and  C_12
    9  A    between atoms: C_14  and  C_22
   10  A    between atoms: C_19  and  O_37
                            x       y       z     vdW  Elec       q    Type
                         _______ _______ _______ _____ _____    ______ ____

>  <TORSDO>
F 10

$$$$
=
 OpenBabel10272414053D

 43 47  0  0  1  0  0  0  0  0999 V2000
  187.9800  177.3380  146.0050 C   0  0  0  0  0  0  0  0  0  0  0  0
  188.3290  178.0870  141.5770 C   0  0  0  0  0  0  0  0  0  0  0  0
  185.7420  178.7850  140.7600 C   0  0  0  0  0  0  0  0  0  0  0  0
  189.1160  177.5890  143.4750 C   0  0  0  0  0  0  0  0  0  0  0  0
  185.8300  177.9000  145.0780 F   0  0  0  0  0  0  0  0  0  0  0  0
  187.4450  177.2090  147.2440 F   0  0  0  0  0  0  0  0  0  0  0  0
  187.7630  177.8010  143.6670 C   0  0  0  0  0  0  0  0  0  0  0  0
  189.3620  177.1190  145.8160 C   0  0  0  0  0  3  0  0  0  0  0  0
  187.1590  177.6870  144.9160 C   0  0  0  0  0  0  0  0  0  0  0  0
  185.9520  178.4800  142.0160 N   0  0  0  0  0  0  0  0  0  0  0  0
  187.2710  178.1190  142.4330 C   0  0  1  0  0  3  0  0  0  0  0  0
  189.4940  177.7640  142.1860 N   0  0  0  0  0  0  0  0  0  0  0  0
  188.1370  178.4130  140.2030 N   0  0  0  0  0  0  0  0  0  0  0  0
  186.8320  178.7710  139.8050 N   0  0  0  0  0  2  0  0  0  0  0  0
  189.9460  177.2450  144.5410 C   0  0  0  0  0  3  0  0  0  0  0  0
  184.3810  179.1890  140.3050 C   0  0  1  0  0  3  0  0  0  0  0  0
  184.4830  180.0630  139.2190 O   0  0  0  0  0  1  0  0  0  0  0  0
  183.5750  177.9540  139.9230 C   0  0  0  0  0  2  0  0  0  0  0  0
  181.2420  178.5550  139.1000 N   0  0  0  0  0  2  0  0  0  0  0  0
  182.1130  178.1600  140.1620 C   0  0  0  0  0  0  0  0  0  0  0  0
  181.6360  177.9620  141.3110 O   0  0  0  0  0  0  0  0  0  0  0  0
  181.7120  178.7970  137.7400 C   0  0  1  0  0  3  0  0  0  0  0  0
  180.7790  178.0780  135.6380 O   0  0  0  0  0  1  0  0  0  0  0  0
  181.3270  177.6210  136.8390 C   0  0  1  0  0  3  0  0  0  0  0  0
  182.3910  175.3290  136.4890 N   0  0  0  0  0  0  0  0  0  0  0  0
  182.5200  176.7570  136.5470 C   0  0  0  0  0  0  0  0  0  0  0  0
  183.5020  173.2120  136.9800 C   0  0  0  0  0  2  0  0  0  0  0  0
  181.1640  173.3930  137.3260 C   0  0  0  0  0  2  0  0  0  0  0  0
  182.2180  172.5440  136.7750 N   0  0  0  0  0  2  0  0  0  0  0  0
  181.0760  174.6940  136.5330 C   0  0  0  0  0  2  0  0  0  0  0  0
  183.5510  174.5020  136.1640 C   0  0  0  0  0  2  0  0  0  0  0  0
  183.6490  177.2970  136.3900 O   0  0  0  0  0  0  0  0  0  0  0  0
  181.1040  180.0950  137.2270 C   0  0  0  0  0  2  0  0  0  0  0  0
  181.4810  181.2450  138.1380 C   0  0  0  0  0  1  0  0  0  0  0  0
  189.2450  178.4840  139.2640 C   0  0  0  0  0  2  0  0  0  0  0  0
  190.8910  175.2770  138.0980 C   0  0  0  0  0  3  0  0  0  0  0  0
  189.8680  174.6910  137.3440 C   0  0  0  0  0  0  0  0  0  0  0  0
  188.4280  176.5810  137.8590 C   0  0  0  0  0  3  0  0  0  0  0  0
  190.6860  176.5070  138.7310 C   0  0  0  0  0  3  0  0  0  0  0  0
  189.4530  177.1570  138.6170 C   0  0  0  0  0  0  0  0  0  0  0  0
  188.6330  175.3510  137.2260 C   0  0  0  0  0  3  0  0  0  0  0  0
  191.1380  173.2700  135.7680 C   0  0  0  0  0  1  0  0  0  0  0  0
  190.1040  173.4610  136.7240 O   0  0  0  0  0  0  0  0  0  0  0  0
  1  6  1  0  0  0  0
  2 12  2  0  0  0  0
  3 10  2  0  0  0  0
  4  7  2  0  0  0  0
  4 15  1  0  0  0  0
  7  9  1  0  0  0  0
  8  1  1  0  0  0  0
  9  5  1  0  0  0  0
  9  1  2  0  0  0  0
 10 11  1  0  0  0  0
 11  2  1  1  0  0  0
 11  7  1  0  0  0  0
 12  4  1  0  0  0  0
 13  2  1  0  0  0  0
 14 13  1  0  0  0  0
 14  3  1  0  0  0  0
 15  8  2  0  0  0  0
 16 17  1  6  0  0  0
 16  3  1  0  0  0  0
 18 20  1  0  0  0  0
 18 16  1  0  0  0  0
 19 20  1  0  0  0  0
 20 21  2  0  0  0  0
 22 33  1  6  0  0  0
 22 19  1  0  0  0  0
 24 23  1  6  0  0  0
 24 22  1  0  0  0  0
 25 30  1  0  0  0  0
 25 26  1  0  0  0  0
 26 24  1  0  0  0  0
 29 27  1  0  0  0  0
 29 28  1  0  0  0  0
 30 28  1  0  0  0  0
 31 25  1  0  0  0  0
 31 27  1  0  0  0  0
 32 26  2  0  0  0  0
 33 34  1  0  0  0  0
 35 13  1  0  0  0  0
 36 39  1  0  0  0  0
 37 36  2  0  0  0  0
 38 40  1  0  0  0  0
 40 39  2  0  0  0  0
 40 35  1  0  0  0  0
 41 37  1  0  0  0  0
 41 38  2  0  0  0  0
 42 43  1  0  0  0  0
 43 37  1  0  0  0  0
M  END
>  <MODEL>
7

>  <REMARK>
 VINA RESULT:      -8.3      3.172      8.552
  Name = 
  10 active torsions:
  status: ('A' for Active; 'I' for Inactive)
    1  A    between atoms: C_1  and  N_34
    2  A    between atoms: C_1  and  C_35
    3  A    between atoms: C_2  and  C_6
    4  A    between atoms: C_2  and  C_13
    5  A    between atoms: N_3  and  C_4
    6  A    between atoms: C_4  and  C_15
    7  A    between atoms: C_4  and  C_22
    8  A    between atoms: C_6  and  C_12
    9  A    between atoms: C_14  and  C_22
   10  A    between atoms: C_19  and  O_37
                            x       y       z     vdW  Elec       q    Type
                         _______ _______ _______ _____ _____    ______ ____

>  <TORSDO>
F 10

$$$$
=
 OpenBabel10272414053D

 43 47  0  0  1  0  0  0  0  0999 V2000
  190.3690  176.8830  146.1520 C   0  0  0  0  0  0  0  0  0  0  0  0
  188.8600  178.0270  142.0650 C   0  0  0  0  0  0  0  0  0  0  0  0
  186.0870  178.2830  142.3680 C   0  0  0  0  0  0  0  0  0  0  0  0
  190.3850  177.5400  143.4460 C   0  0  0  0  0  0  0  0  0  0  0  0
  187.9710  177.0990  146.1740 F   0  0  0  0  0  0  0  0  0  0  0  0
  190.3810  176.5590  147.4680 F   0  0  0  0  0  0  0  0  0  0  0  0
  189.1970  177.4770  144.1510 C   0  0  0  0  0  0  0  0  0  0  0  0
  191.5850  176.9440  145.4370 C   0  0  0  0  0  3  0  0  0  0  0  0
  189.1490  177.1530  145.5040 C   0  0  2  0  0  3  0  0  0  0  0  0
  186.8100  177.9270  143.4000 N   0  0  0  0  0  0  0  0  0  0  0  0
  188.2250  177.7910  143.2450 C   0  0  0  0  0  0  0  0  0  0  0  0
  190.2040  177.8830  142.1470 N   0  0  0  0  0  0  0  0  0  0  0  0
  188.1050  178.4160  140.9210 N   0  0  0  0  0  0  0  0  0  0  0  0
  186.7110  178.5510  141.0880 N   0  0  0  0  0  2  0  0  0  0  0  0
  191.6040  177.2780  144.0690 C   0  0  0  0  0  3  0  0  0  0  0  0
  184.6130  178.4570  142.5100 C   0  0  1  0  0  3  0  0  0  0  0  0
  184.3400  179.4390  143.4660 O   0  0  0  0  0  1  0  0  0  0  0  0
  184.0050  178.8360  141.1670 C   0  0  0  0  0  2  0  0  0  0  0  0
  181.7300  179.0880  140.0500 N   0  0  0  0  0  2  0  0  0  0  0  0
  182.5100  178.7830  141.2080 C   0  0  0  0  0  0  0  0  0  0  0  0
  181.9290  178.4440  142.2730 O   0  0  0  0  0  0  0  0  0  0  0  0
  182.3250  179.4810  138.7770 C   0  0  1  0  0  3  0  0  0  0  0  0
  181.7440  178.9420  136.5020 O   0  0  0  0  0  1  0  0  0  0  0  0
  182.0950  178.3850  137.7350 C   0  0  1  0  0  3  0  0  0  0  0  0
  183.2130  176.1500  137.2180 N   0  0  0  0  0  0  0  0  0  0  0  0
  183.3240  177.5380  137.5680 C   0  0  0  0  0  0  0  0  0  0  0  0
  184.1800  173.9340  137.5490 C   0  0  0  0  0  2  0  0  0  0  0  0
  181.8260  174.1490  137.3790 C   0  0  0  0  0  2  0  0  0  0  0  0
  182.9800  173.3690  136.9360 N   0  0  0  0  0  2  0  0  0  0  0  0
  181.9240  175.5740  136.8420 C   0  0  0  0  0  2  0  0  0  0  0  0
  184.4170  175.3470  137.0190 C   0  0  0  0  0  2  0  0  0  0  0  0
  184.4580  178.0480  137.7760 O   0  0  0  0  0  0  0  0  0  0  0  0
  181.7090  180.7970  138.3250 C   0  0  0  0  0  2  0  0  0  0  0  0
  180.4710  181.1040  139.1440 C   0  0  0  0  0  1  0  0  0  0  0  0
  188.7390  178.7680  139.6590 C   0  0  0  0  0  2  0  0  0  0  0  0
  188.1160  175.8310  137.3500 C   0  0  0  0  0  3  0  0  0  0  0  0
  189.3630  175.1970  137.3540 C   0  0  0  0  0  0  0  0  0  0  0  0
  190.2100  176.9110  138.8560 C   0  0  0  0  0  3  0  0  0  0  0  0
  187.9140  176.9990  138.0930 C   0  0  0  0  0  3  0  0  0  0  0  0
  188.9630  177.5430  138.8410 C   0  0  0  0  0  0  0  0  0  0  0  0
  190.4120  175.7430  138.1130 C   0  0  0  0  0  3  0  0  0  0  0  0
  188.6140  172.9480  136.6480 C   0  0  0  0  0  1  0  0  0  0  0  0
  189.5320  174.0330  136.6010 O   0  0  0  0  0  0  0  0  0  0  0  0
  1  6  1  0  0  0  0
  2 12  2  0  0  0  0
  2 11  1  0  0  0  0
  3 16  1  0  0  0  0
  3 10  2  0  0  0  0
  4 15  2  0  0  0  0
  4  7  1  0  0  0  0
  7  9  1  0  0  0  0
  8  1  2  0  0  0  0
  9  1  1  0  0  0  0
  9  5  1  6  0  0  0
 11 10  1  0  0  0  0
 11  7  2  0  0  0  0
 12  4  1  0  0  0  0
 13 14  1  0  0  0  0
 13  2  1  0  0  0  0
 14  3  1  0  0  0  0
 15  8  1  0  0  0  0
 16 17  1  1  0  0  0
 18 20  1  0  0  0  0
 18 16  1  0  0  0  0
 19 20  1  0  0  0  0
 20 21  2  0  0  0  0
 22 33  1  6  0  0  0
 22 19  1  0  0  0  0
 24 23  1  6  0  0  0
 24 22  1  0  0  0  0
 25 26  1  0  0  0  0
 26 24  1  0  0  0  0
 26 32  2  0  0  0  0
 29 28  1  0  0  0  0
 29 27  1  0  0  0  0
 30 25  1  0  0  0  0
 30 28  1  0  0  0  0
 31 25  1  0  0  0  0
 31 27  1  0  0  0  0
 33 34  1  0  0  0  0
 35 13  1  0  0  0  0
 36 37  2  0  0  0  0
 36 39  1  0  0  0  0
 37 41  1  0  0  0  0
 39 40  2  0  0  0  0
 40 38  1  0  0  0  0
 40 35  1  0  0  0  0
 41 38  2  0  0  0  0
 43 42  1  0  0  0  0
 43 37  1  0  0  0  0
M  END
>  <MODEL>
8

>  <REMARK>
 VINA RESULT:      -8.2      3.139      8.359
  Name = 
  10 active torsions:
  status: ('A' for Active; 'I' for Inactive)
    1  A    between atoms: C_1  and  N_34
    2  A    between atoms: C_1  and  C_35
    3  A    between atoms: C_2  and  C_6
    4  A    between atoms: C_2  and  C_13
    5  A    between atoms: N_3  and  C_4
    6  A    between atoms: C_4  and  C_15
    7  A    between atoms: C_4  and  C_22
    8  A    between atoms: C_6  and  C_12
    9  A    between atoms: C_14  and  C_22
   10  A    between atoms: C_19  and  O_37
                            x       y       z     vdW  Elec       q    Type
                         _______ _______ _______ _____ _____    ______ ____

>  <TORSDO>
F 10

$$$$
=
 OpenBabel10272414053D

 43 47  0  0  1  0  0  0  0  0999 V2000
  182.3060  178.9490  142.2740 C   0  0  0  0  0  0  0  0  0  0  0  0
  183.9350  177.6280  138.2880 C   0  0  0  0  0  0  0  0  0  0  0  0
  186.7010  178.0250  138.4740 C   0  0  0  0  0  0  0  0  0  0  0  0
  182.3730  177.9500  139.6760 C   0  0  0  0  0  0  0  0  0  0  0  0
  184.6910  179.2660  142.1970 F   0  0  0  0  0  0  0  0  0  0  0  0
  182.2520  179.4350  143.5380 F   0  0  0  0  0  0  0  0  0  0  0  0
  183.5330  178.3640  140.3040 C   0  0  0  0  0  0  0  0  0  0  0  0
  181.1170  178.5290  141.6380 C   0  0  0  0  0  3  0  0  0  0  0  0
  183.5390  178.8670  141.6020 C   0  0  0  0  0  0  0  0  0  0  0  0
  185.9410  178.3500  139.4910 N   0  0  0  0  0  0  0  0  0  0  0  0
  184.5290  178.1520  139.3940 C   0  0  1  0  0  3  0  0  0  0  0  0
  182.5950  177.4850  138.4230 N   0  0  0  0  0  0  0  0  0  0  0  0
  184.7300  177.2650  137.1630 N   0  0  0  0  0  0  0  0  0  0  0  0
  186.1230  177.4600  137.2720 N   0  0  0  0  0  2  0  0  0  0  0  0
  181.1410  178.0210  140.3250 C   0  0  0  0  0  3  0  0  0  0  0  0
  188.1800  178.1980  138.5600 C   0  0  1  0  0  3  0  0  0  0  0  0
  188.5850  179.2420  137.7230 O   0  0  0  0  0  1  0  0  0  0  0  0
  188.5860  178.4800  140.0000 C   0  0  0  0  0  2  0  0  0  0  0  0
  190.1470  177.5020  141.7580 N   0  0  0  0  0  2  0  0  0  0  0  0
  189.8090  177.7100  140.3840 C   0  0  0  0  0  0  0  0  0  0  0  0
  190.5440  177.2200  139.4860 O   0  0  0  0  0  0  0  0  0  0  0  0
  189.3470  178.0290  142.8570 C   0  0  1  0  0  3  0  0  0  0  0  0
  189.1510  175.6600  143.2460 O   0  0  0  0  0  1  0  0  0  0  0  0
  188.5600  176.8960  143.5190 C   0  0  1  0  0  3  0  0  0  0  0  0
  187.2630  177.5400  145.6190 N   0  0  0  0  0  0  0  0  0  0  0  0
  188.4810  177.0940  145.0050 C   0  0  0  0  0  0  0  0  0  0  0  0
  186.3250  178.9030  147.4120 C   0  0  0  0  0  2  0  0  0  0  0  0
  185.2280  178.8510  145.3120 C   0  0  0  0  0  2  0  0  0  0  0  0
  185.0230  178.7870  146.7580 N   0  0  0  0  0  2  0  0  0  0  0  0
  186.0270  177.6370  144.8450 C   0  0  0  0  0  2  0  0  0  0  0  0
  187.1870  177.6900  147.0710 C   0  0  0  0  0  2  0  0  0  0  0  0
  189.5100  176.9020  145.7090 O   0  0  0  0  0  0  0  0  0  0  0  0
  190.2670  178.7090  143.8620 C   0  0  0  0  0  2  0  0  0  0  0  0
  191.7140  178.3890  143.5450 C   0  0  0  0  0  1  0  0  0  0  0  0
  184.1610  176.6180  135.9910 C   0  0  0  0  0  2  0  0  0  0  0  0
  184.8270  172.9300  136.5420 C   0  0  0  0  0  3  0  0  0  0  0  0
  183.5310  172.4280  136.7050 C   0  0  0  0  0  0  0  0  0  0  0  0
  182.6450  174.6730  136.4160 C   0  0  0  0  0  3  0  0  0  0  0  0
  185.0340  174.2950  136.3190 C   0  0  0  0  0  3  0  0  0  0  0  0
  183.9440  175.1680  136.2620 C   0  0  0  0  0  0  0  0  0  0  0  0
  182.4380  173.3080  136.6400 C   0  0  0  0  0  3  0  0  0  0  0  0
  183.6750  170.0780  135.9490 C   0  0  0  0  0  1  0  0  0  0  0  0
  183.3580  171.0600  136.9270 O   0  0  0  0  0  0  0  0  0  0  0  0
  1  6  1  0  0  0  0
  2 12  2  0  0  0  0
  3 16  1  0  0  0  0
  3 10  2  0  0  0  0
  4  7  2  0  0  0  0
  4 15  1  0  0  0  0
  7  9  1  0  0  0  0
  8  1  1  0  0  0  0
  9  5  1  0  0  0  0
  9  1  2  0  0  0  0
 11  2  1  1  0  0  0
 11 10  1  0  0  0  0
 11  7  1  0  0  0  0
 12  4  1  0  0  0  0
 13 14  1  0  0  0  0
 13  2  1  0  0  0  0
 14  3  1  0  0  0  0
 15  8  2  0  0  0  0
 16 17  1  6  0  0  0
 16 18  1  0  0  0  0
 18 20  1  0  0  0  0
 19 22  1  0  0  0  0
 20 19  1  0  0  0  0
 21 20  2  0  0  0  0
 22 24  1  0  0  0  0
 22 33  1  1  0  0  0
 24 23  1  1  0  0  0
 24 26  1  0  0  0  0
 25 31  1  0  0  0  0
 26 25  1  0  0  0  0
 26 32  2  0  0  0  0
 28 29  1  0  0  0  0
 29 27  1  0  0  0  0
 30 28  1  0  0  0  0
 30 25  1  0  0  0  0
 31 27  1  0  0  0  0
 34 33  1  0  0  0  0
 35 40  1  0  0  0  0
 35 13  1  0  0  0  0
 36 37  1  0  0  0  0
 37 43  1  0  0  0  0
 38 41  1  0  0  0  0
 39 36  2  0  0  0  0
 40 39  1  0  0  0  0
 40 38  2  0  0  0  0
 41 37  2  0  0  0  0
 42 43  1  0  0  0  0
M  END
>  <MODEL>
9

>  <REMARK>
 VINA RESULT:      -8.2      1.693      2.226
  Name = 
  10 active torsions:
  status: ('A' for Active; 'I' for Inactive)
    1  A    between atoms: C_1  and  N_34
    2  A    between atoms: C_1  and  C_35
    3  A    between atoms: C_2  and  C_6
    4  A    between atoms: C_2  and  C_13
    5  A    between atoms: N_3  and  C_4
    6  A    between atoms: C_4  and  C_15
    7  A    between atoms: C_4  and  C_22
    8  A    between atoms: C_6  and  C_12
    9  A    between atoms: C_14  and  C_22
   10  A    between atoms: C_19  and  O_37
                            x       y       z     vdW  Elec       q    Type
                         _______ _______ _______ _____ _____    ______ ____

>  <TORSDO>
F 10

$$$$
