=
 OpenBabel10272400563D

 25 27  0  0  1  0  0  0  0  0999 V2000
  187.8230  176.6960  143.3050 C   0  0  1  0  0  3  0  0  0  0  0  0
  188.0700  177.7280  144.4040 C   0  0  1  0  0  0  0  0  0  0  0  0
  191.3940  176.8500  144.9170 O   0  0  0  0  0  0  0  0  0  0  0  0
  188.4570  178.0600  142.9540 C   0  0  1  0  0  3  0  0  0  0  0  0
  186.3570  177.7350  145.8930 C   0  0  1  0  0  3  0  0  0  0  0  0
  190.1520  176.4850  145.4470 C   0  0  0  0  0  2  0  0  0  0  0  0
  191.9080  176.5920  142.5790 C   0  0  0  0  0  2  0  0  0  0  0  0
  190.6040  177.0510  141.9320 C   0  0  1  0  0  3  0  0  0  0  0  0
  188.6970  177.9050  146.8250 N   0  0  0  0  0  0  0  0  0  0  0  0
  189.6090  178.2600  147.9020 C   0  0  0  0  0  1  0  0  0  0  0  0
  186.9050  178.4180  144.7880 O   0  0  0  0  0  0  0  0  0  0  0  0
  188.7300  175.6380  143.3390 O   0  0  0  0  0  1  0  0  0  0  0  0
  191.6660  175.9030  143.9220 C   0  0  0  0  0  2  0  0  0  0  0  0
  187.2880  177.8170  147.0750 C   0  0  0  0  0  0  0  0  0  0  0  0
  189.9830  178.1620  142.7700 C   0  0  0  0  0  2  0  0  0  0  0  0
  186.8480  177.7530  148.2560 O   0  0  0  0  0  0  0  0  0  0  0  0
  189.2240  177.7030  145.4720 C   0  0  2  0  0  3  0  0  0  0  0  0
  190.8830  177.5440  140.5230 C   0  0  0  0  0  2  0  0  0  0  0  0
  189.7450  177.1610  139.5960 C   0  0  0  0  0  1  0  0  0  0  0  0
  184.9530  178.2600  146.2050 C   0  0  0  0  0  2  0  0  0  0  0  0
  184.4550  179.2560  145.1650 C   0  0  0  0  0  2  0  0  0  0  0  0
  183.1300  178.7970  144.5830 C   0  0  0  0  0  2  0  0  0  0  0  0
  183.2100  178.7690  143.0980 C   0  0  0  0  0  0  0  0  0  0  0  0
  182.0550  178.8880  142.3360 O   0  0  0  0  0  1  0  0  0  0  0  0
  184.3820  178.6260  142.4990 C   0  0  0  0  0  2  0  0  0  0  0  0
  1 12  1  1  0  0  0
  1  2  1  0  0  0  0
  2 11  1  1  0  0  0
  2 17  1  0  0  0  0
  3  6  1  0  0  0  0
  4 15  1  1  0  0  0
  4  1  1  0  0  0  0
  4  2  1  0  0  0  0
  5 20  1  1  0  0  0
  5 14  1  0  0  0  0
  7 13  1  0  0  0  0
  8 18  1  6  0  0  0
  8  7  1  0  0  0  0
  8 15  1  0  0  0  0
  9 14  1  0  0  0  0
  9 10  1  0  0  0  0
 11  5  1  0  0  0  0
 13  3  1  0  0  0  0
 14 16  2  0  0  0  0
 17  6  1  1  0  0  0
 17  9  1  0  0  0  0
 19 18  1  0  0  0  0
 21 20  1  0  0  0  0
 22 21  1  0  0  0  0
 23 22  1  0  0  0  0
 24 23  1  0  0  0  0
 25 23  2  0  0  0  0
M  END
>  <MODEL>
1

>  <REMARK>
 VINA RESULT:      -7.1      0.000      0.000
  Name = 
  5 active torsions:
  status: ('A' for Active; 'I' for Inactive)
    1  A    between atoms: C_2  and  C_21
    2  A    between atoms: C_6  and  C_15
    3  A    between atoms: C_8  and  C_11
    4  A    between atoms: C_15  and  C_25
    5  A    between atoms: C_21  and  C_25
                            x       y       z     vdW  Elec       q    Type
                         _______ _______ _______ _____ _____    ______ ____

>  <TORSDO>
F 5

$$$$
=
 OpenBabel10272400563D

 25 27  0  0  1  0  0  0  0  0999 V2000
  189.8290  176.4530  141.9520 C   0  0  1  0  0  3  0  0  0  0  0  0
  189.1030  177.7510  141.6040 C   0  0  1  0  0  0  0  0  0  0  0  0
  187.2800  177.8920  144.5590 O   0  0  0  0  0  0  0  0  0  0  0  0
  190.3730  177.8030  142.4700 C   0  0  1  0  0  3  0  0  0  0  0  0
  188.3430  177.6920  139.4660 C   0  0  1  0  0  3  0  0  0  0  0  0
  187.0970  177.3680  143.2750 C   0  0  0  0  0  2  0  0  0  0  0  0
  189.1060  177.2050  145.9690 C   0  0  0  0  0  2  0  0  0  0  0  0
  190.2550  177.1480  144.9650 C   0  0  1  0  0  3  0  0  0  0  0  0
  186.8040  178.6700  141.2130 N   0  0  0  0  0  0  0  0  0  0  0  0
  185.6630  179.4960  141.5770 C   0  0  0  0  0  1  0  0  0  0  0  0
  189.3650  178.1980  140.2950 O   0  0  0  0  0  0  0  0  0  0  0  0
  189.1640  175.6990  142.9170 O   0  0  0  0  0  1  0  0  0  0  0  0
  187.7710  176.8290  145.3280 C   0  0  0  0  0  2  0  0  0  0  0  0
  187.0140  178.2940  139.8460 C   0  0  0  0  0  0  0  0  0  0  0  0
  190.0710  178.2370  143.9170 C   0  0  0  0  0  2  0  0  0  0  0  0
  186.0880  178.4130  138.9980 O   0  0  0  0  0  0  0  0  0  0  0  0
  187.7690  178.2800  142.2450 C   0  0  2  0  0  3  0  0  0  0  0  0
  191.5750  177.3340  145.6950 C   0  0  0  0  0  2  0  0  0  0  0  0
  191.8920  176.1070  146.5300 C   0  0  0  0  0  1  0  0  0  0  0  0
  188.6940  177.9070  137.9910 C   0  0  0  0  0  2  0  0  0  0  0  0
  189.0830  176.6140  137.2870 C   0  0  0  0  0  2  0  0  0  0  0  0
  190.5550  176.6360  136.9160 C   0  0  0  0  0  2  0  0  0  0  0  0
  191.3530  175.9440  137.9640 C   0  0  0  0  0  0  0  0  0  0  0  0
  191.2330  174.5710  138.1390 O   0  0  0  0  0  1  0  0  0  0  0  0
  192.1770  176.6360  138.7350 C   0  0  0  0  0  2  0  0  0  0  0  0
  1  4  1  0  0  0  0
  1 12  1  1  0  0  0
  2 11  1  6  0  0  0
  2  1  1  0  0  0  0
  2 17  1  0  0  0  0
  2  4  1  0  0  0  0
  3 13  1  0  0  0  0
  4 15  1  1  0  0  0
  5 20  1  6  0  0  0
  5 14  1  0  0  0  0
  5 11  1  0  0  0  0
  6  3  1  0  0  0  0
  8 18  1  1  0  0  0
  8  7  1  0  0  0  0
  9 10  1  0  0  0  0
  9 17  1  0  0  0  0
 13  7  1  0  0  0  0
 14  9  1  0  0  0  0
 15  8  1  0  0  0  0
 16 14  2  0  0  0  0
 17  6  1  6  0  0  0
 18 19  1  0  0  0  0
 21 20  1  0  0  0  0
 22 21  1  0  0  0  0
 22 23  1  0  0  0  0
 23 24  1  0  0  0  0
 23 25  2  0  0  0  0
M  END
>  <MODEL>
2

>  <REMARK>
 VINA RESULT:      -7.1      2.661      6.599
  Name = 
  5 active torsions:
  status: ('A' for Active; 'I' for Inactive)
    1  A    between atoms: C_2  and  C_21
    2  A    between atoms: C_6  and  C_15
    3  A    between atoms: C_8  and  C_11
    4  A    between atoms: C_15  and  C_25
    5  A    between atoms: C_21  and  C_25
                            x       y       z     vdW  Elec       q    Type
                         _______ _______ _______ _____ _____    ______ ____

>  <TORSDO>
F 5

$$$$
=
 OpenBabel10272400563D

 25 27  0  0  1  0  0  0  0  0999 V2000
  190.0320  176.3880  142.0750 C   0  0  1  0  0  3  0  0  0  0  0  0
  189.3290  177.6820  141.6710 C   0  0  1  0  0  0  0  0  0  0  0  0
  187.3260  177.8460  144.5070 O   0  0  0  0  0  0  0  0  0  0  0  0
  190.5430  177.7430  142.6140 C   0  0  1  0  0  3  0  0  0  0  0  0
  188.7020  177.6060  139.4910 C   0  0  1  0  0  3  0  0  0  0  0  0
  187.2230  177.3120  143.2180 C   0  0  0  0  0  2  0  0  0  0  0  0
  189.0620  177.1720  146.0330 C   0  0  0  0  0  2  0  0  0  0  0  0
  190.2710  177.1080  145.1020 C   0  0  1  0  0  3  0  0  0  0  0  0
  187.0580  178.5960  141.1320 N   0  0  0  0  0  0  0  0  0  0  0  0
  185.8960  179.4250  141.4180 C   0  0  0  0  0  1  0  0  0  0  0  0
  189.6710  178.1190  140.3780 O   0  0  0  0  0  0  0  0  0  0  0  0
  189.3090  175.6410  143.0020 O   0  0  0  0  0  1  0  0  0  0  0  0
  187.7690  176.7900  145.3130 C   0  0  0  0  0  2  0  0  0  0  0  0
  187.3520  178.2100  139.7830 C   0  0  0  0  0  0  0  0  0  0  0  0
  190.1510  178.1880  144.0350 C   0  0  0  0  0  2  0  0  0  0  0  0
  186.4800  178.3210  138.8780 O   0  0  0  0  0  0  0  0  0  0  0  0
  187.9570  178.2160  142.2250 C   0  0  2  0  0  3  0  0  0  0  0  0
  191.5430  177.3000  145.9100 C   0  0  0  0  0  2  0  0  0  0  0  0
  191.6500  176.2350  146.9860 C   0  0  0  0  0  1  0  0  0  0  0  0
  189.1430  177.8090  138.0390 C   0  0  0  0  0  2  0  0  0  0  0  0
  189.4400  176.4950  137.3280 C   0  0  0  0  0  2  0  0  0  0  0  0
  188.7130  176.4380  135.9970 C   0  0  0  0  0  2  0  0  0  0  0  0
  187.2520  176.2650  136.2230 C   0  0  0  0  0  0  0  0  0  0  0  0
  186.7940  175.3140  137.1250 O   0  0  0  0  0  1  0  0  0  0  0  0
  186.3860  177.0150  135.5600 C   0  0  0  0  0  2  0  0  0  0  0  0
  1  4  1  0  0  0  0
  1 12  1  1  0  0  0
  2 11  1  6  0  0  0
  2  1  1  0  0  0  0
  2 17  1  0  0  0  0
  2  4  1  0  0  0  0
  3 13  1  0  0  0  0
  4 15  1  1  0  0  0
  5 20  1  6  0  0  0
  5 14  1  0  0  0  0
  5 11  1  0  0  0  0
  6  3  1  0  0  0  0
  8 18  1  1  0  0  0
  8  7  1  0  0  0  0
  9 10  1  0  0  0  0
  9 17  1  0  0  0  0
 13  7  1  0  0  0  0
 14  9  1  0  0  0  0
 15  8  1  0  0  0  0
 16 14  2  0  0  0  0
 17  6  1  6  0  0  0
 18 19  1  0  0  0  0
 21 20  1  0  0  0  0
 22 23  1  0  0  0  0
 22 21  1  0  0  0  0
 23 24  1  0  0  0  0
 25 23  2  0  0  0  0
M  END
>  <MODEL>
3

>  <REMARK>
 VINA RESULT:      -6.8      3.001      6.285
  Name = 
  5 active torsions:
  status: ('A' for Active; 'I' for Inactive)
    1  A    between atoms: C_2  and  C_21
    2  A    between atoms: C_6  and  C_15
    3  A    between atoms: C_8  and  C_11
    4  A    between atoms: C_15  and  C_25
    5  A    between atoms: C_21  and  C_25
                            x       y       z     vdW  Elec       q    Type
                         _______ _______ _______ _____ _____    ______ ____

>  <TORSDO>
F 5

$$$$
=
 OpenBabel10272400563D

 25 27  0  0  1  0  0  0  0  0999 V2000
  190.1880  176.1540  142.4300 C   0  0  1  0  0  3  0  0  0  0  0  0
  189.5830  177.4360  141.8610 C   0  0  1  0  0  0  0  0  0  0  0  0
  187.3190  177.8930  144.4580 O   0  0  0  0  0  0  0  0  0  0  0  0
  190.7000  177.5290  142.9140 C   0  0  1  0  0  3  0  0  0  0  0  0
  189.1710  177.2080  139.6400 C   0  0  1  0  0  3  0  0  0  0  0  0
  187.3220  177.2620  143.2090 C   0  0  0  0  0  2  0  0  0  0  0  0
  188.8670  177.2840  146.1990 C   0  0  0  0  0  2  0  0  0  0  0  0
  190.1570  177.1040  145.4030 C   0  0  1  0  0  3  0  0  0  0  0  0
  187.4170  178.3810  141.0260 N   0  0  0  0  0  0  0  0  0  0  0  0
  186.2680  179.2690  141.1280 C   0  0  0  0  0  1  0  0  0  0  0  0
  190.0690  177.7560  140.5790 O   0  0  0  0  0  0  0  0  0  0  0  0
  189.3460  175.5090  143.3340 O   0  0  0  0  0  1  0  0  0  0  0  0
  187.6360  176.8900  145.3820 C   0  0  0  0  0  2  0  0  0  0  0  0
  187.8260  177.8780  139.7470 C   0  0  0  0  0  0  0  0  0  0  0  0
  190.1890  178.1000  144.2510 C   0  0  0  0  0  2  0  0  0  0  0  0
  187.0530  177.9470  138.7530 O   0  0  0  0  0  0  0  0  0  0  0  0
  188.1880  178.0580  142.2300 C   0  0  2  0  0  3  0  0  0  0  0  0
  191.3500  177.3160  146.3190 C   0  0  0  0  0  2  0  0  0  0  0  0
  191.6240  176.0610  147.1270 C   0  0  0  0  0  1  0  0  0  0  0  0
  189.7620  177.2790  138.2300 C   0  0  0  0  0  2  0  0  0  0  0  0
  191.2510  176.9580  138.2000 C   0  0  0  0  0  2  0  0  0  0  0  0
  191.4800  175.5590  137.6590 C   0  0  0  0  0  2  0  0  0  0  0  0
  192.9390  175.2760  137.5860 C   0  0  0  0  0  0  0  0  0  0  0  0
  193.8580  176.3030  137.7600 O   0  0  0  0  0  1  0  0  0  0  0  0
  193.3650  174.0450  137.3490 C   0  0  0  0  0  2  0  0  0  0  0  0
  1  4  1  0  0  0  0
  1 12  1  1  0  0  0
  2 11  1  6  0  0  0
  2 17  1  0  0  0  0
  2  1  1  0  0  0  0
  2  4  1  0  0  0  0
  3 13  1  0  0  0  0
  4 15  1  1  0  0  0
  5 20  1  6  0  0  0
  5 14  1  0  0  0  0
  5 11  1  0  0  0  0
  6  3  1  0  0  0  0
  8  7  1  0  0  0  0
  8 18  1  1  0  0  0
  9 10  1  0  0  0  0
  9 17  1  0  0  0  0
 13  7  1  0  0  0  0
 14  9  1  0  0  0  0
 15  8  1  0  0  0  0
 16 14  2  0  0  0  0
 17  6  1  1  0  0  0
 18 19  1  0  0  0  0
 21 20  1  0  0  0  0
 22 21  1  0  0  0  0
 23 22  1  0  0  0  0
 23 24  1  0  0  0  0
 25 23  2  0  0  0  0
M  END
>  <MODEL>
4

>  <REMARK>
 VINA RESULT:      -6.6      3.010      7.150
  Name = 
  5 active torsions:
  status: ('A' for Active; 'I' for Inactive)
    1  A    between atoms: C_2  and  C_21
    2  A    between atoms: C_6  and  C_15
    3  A    between atoms: C_8  and  C_11
    4  A    between atoms: C_15  and  C_25
    5  A    between atoms: C_21  and  C_25
                            x       y       z     vdW  Elec       q    Type
                         _______ _______ _______ _____ _____    ______ ____

>  <TORSDO>
F 5

$$$$
=
 OpenBabel10272400563D

 25 27  0  0  1  0  0  0  0  0999 V2000
  191.1490  176.0990  142.5810 C   0  0  1  0  0  3  0  0  0  0  0  0
  190.9400  177.2530  141.6030 C   0  0  1  0  0  0  0  0  0  0  0  0
  187.6510  177.8680  142.5440 O   0  0  0  0  0  0  0  0  0  0  0  0
  191.3360  177.5560  143.0570 C   0  0  1  0  0  3  0  0  0  0  0  0
  191.7550  176.7210  139.5520 C   0  0  1  0  0  3  0  0  0  0  0  0
  188.3060  177.0880  141.5850 C   0  0  0  0  0  2  0  0  0  0  0  0
  188.0500  177.5920  144.9020 C   0  0  0  0  0  2  0  0  0  0  0  0
  189.5650  177.4070  144.9310 C   0  0  1  0  0  3  0  0  0  0  0  0
  189.5410  177.9300  139.6360 N   0  0  0  0  0  0  0  0  0  0  0  0
  188.5130  178.7400  138.9970 C   0  0  0  0  0  1  0  0  0  0  0  0
  192.0280  177.4450  140.7310 O   0  0  0  0  0  0  0  0  0  0  0  0
  189.9540  175.5130  142.9950 O   0  0  0  0  0  1  0  0  0  0  0  0
  187.4300  177.0130  143.6310 C   0  0  0  0  0  2  0  0  0  0  0  0
  190.5570  177.3020  138.8450 C   0  0  0  0  0  0  0  0  0  0  0  0
  190.2030  178.2510  143.8340 C   0  0  0  0  0  2  0  0  0  0  0  0
  190.4230  177.1910  137.5960 O   0  0  0  0  0  0  0  0  0  0  0  0
  189.5610  177.8160  141.0970 C   0  0  2  0  0  3  0  0  0  0  0  0
  190.1000  177.8160  146.2920 C   0  0  0  0  0  2  0  0  0  0  0  0
  189.0350  177.6230  147.3560 C   0  0  0  0  0  1  0  0  0  0  0  0
  192.9990  176.6580  138.6620 C   0  0  0  0  0  2  0  0  0  0  0  0
  193.1790  175.2970  138.0010 C   0  0  0  0  0  2  0  0  0  0  0  0
  194.5410  175.2060  137.3390 C   0  0  0  0  0  2  0  0  0  0  0  0
  195.4500  174.3600  138.1600 C   0  0  0  0  0  0  0  0  0  0  0  0
  196.6320  174.8890  138.6600 O   0  0  0  0  0  1  0  0  0  0  0  0
  195.1340  173.0990  138.4110 C   0  0  0  0  0  2  0  0  0  0  0  0
  1 12  1  1  0  0  0
  1  4  1  0  0  0  0
  2 11  1  6  0  0  0
  2  1  1  0  0  0  0
  2  4  1  0  0  0  0
  3 13  1  0  0  0  0
  4 15  1  1  0  0  0
  5 20  1  6  0  0  0
  5 11  1  0  0  0  0
  6  3  1  0  0  0  0
  7  8  1  0  0  0  0
  8 18  1  1  0  0  0
  9 17  1  0  0  0  0
 10  9  1  0  0  0  0
 13  7  1  0  0  0  0
 14  5  1  0  0  0  0
 14  9  1  0  0  0  0
 15  8  1  0  0  0  0
 16 14  2  0  0  0  0
 17  6  1  6  0  0  0
 17  2  1  0  0  0  0
 18 19  1  0  0  0  0
 21 20  1  0  0  0  0
 22 21  1  0  0  0  0
 22 23  1  0  0  0  0
 23 25  2  0  0  0  0
 23 24  1  0  0  0  0
M  END
>  <MODEL>
5

>  <REMARK>
 VINA RESULT:      -6.5      3.678      8.385
  Name = 
  5 active torsions:
  status: ('A' for Active; 'I' for Inactive)
    1  A    between atoms: C_2  and  C_21
    2  A    between atoms: C_6  and  C_15
    3  A    between atoms: C_8  and  C_11
    4  A    between atoms: C_15  and  C_25
    5  A    between atoms: C_21  and  C_25
                            x       y       z     vdW  Elec       q    Type
                         _______ _______ _______ _____ _____    ______ ____

>  <TORSDO>
F 5

$$$$
=
 OpenBabel10272400563D

 25 27  0  0  1  0  0  0  0  0999 V2000
  188.3550  178.7170  141.8110 C   0  0  1  0  0  3  0  0  0  0  0  0
  188.6990  177.5600  140.8750 C   0  0  1  0  0  0  0  0  0  0  0  0
  191.7240  176.8040  142.4100 O   0  0  0  0  0  0  0  0  0  0  0  0
  188.0240  177.2660  142.2250 C   0  0  1  0  0  3  0  0  0  0  0  0
  188.3060  178.1350  138.7150 C   0  0  1  0  0  3  0  0  0  0  0  0
  191.2930  177.6160  141.3550 C   0  0  0  0  0  2  0  0  0  0  0  0
  190.9000  177.0850  144.6550 C   0  0  0  0  0  2  0  0  0  0  0  0
  189.4150  177.3320  144.4000 C   0  0  1  0  0  3  0  0  0  0  0  0
  190.4150  176.8350  139.1980 N   0  0  0  0  0  0  0  0  0  0  0  0
  191.5110  175.9860  138.7540 C   0  0  0  0  0  1  0  0  0  0  0  0
  187.7870  177.4180  139.8120 O   0  0  0  0  0  0  0  0  0  0  0  0
  189.4730  179.2510  142.4500 O   0  0  0  0  0  1  0  0  0  0  0  0
  191.7710  177.6440  143.5300 C   0  0  0  0  0  2  0  0  0  0  0  0
  189.5910  177.5080  138.2380 C   0  0  0  0  0  0  0  0  0  0  0  0
  188.9620  176.5210  143.1930 C   0  0  0  0  0  2  0  0  0  0  0  0
  189.9630  177.6190  137.0380 O   0  0  0  0  0  0  0  0  0  0  0  0
  190.1240  176.9420  140.6310 C   0  0  2  0  0  3  0  0  0  0  0  0
  188.6170  176.9390  145.6310 C   0  0  0  0  0  2  0  0  0  0  0  0
  187.4210  177.8570  145.8000 C   0  0  0  0  0  1  0  0  0  0  0  0
  187.2550  178.2540  137.6070 C   0  0  0  0  0  2  0  0  0  0  0  0
  185.9570  177.5370  137.9520 C   0  0  0  0  0  2  0  0  0  0  0  0
  184.8390  178.5410  138.1710 C   0  0  0  0  0  2  0  0  0  0  0  0
  184.5350  178.6540  139.6230 C   0  0  0  0  0  0  0  0  0  0  0  0
  185.2440  179.5460  140.4160 O   0  0  0  0  0  1  0  0  0  0  0  0
  183.5900  177.9000  140.1620 C   0  0  0  0  0  2  0  0  0  0  0  0
  1  4  1  0  0  0  0
  1 12  1  1  0  0  0
  2 11  1  6  0  0  0
  2  1  1  0  0  0  0
  2  4  1  0  0  0  0
  3 13  1  0  0  0  0
  4 15  1  1  0  0  0
  5 20  1  6  0  0  0
  5 11  1  0  0  0  0
  6  3  1  0  0  0  0
  8  7  1  0  0  0  0
  8 18  1  1  0  0  0
  9 17  1  0  0  0  0
 10  9  1  0  0  0  0
 13  7  1  0  0  0  0
 14  5  1  0  0  0  0
 14  9  1  0  0  0  0
 15  8  1  0  0  0  0
 16 14  2  0  0  0  0
 17  2  1  0  0  0  0
 17  6  1  1  0  0  0
 18 19  1  0  0  0  0
 20 21  1  0  0  0  0
 21 22  1  0  0  0  0
 22 23  1  0  0  0  0
 23 25  2  0  0  0  0
 23 24  1  0  0  0  0
M  END
>  <MODEL>
6

>  <REMARK>
 VINA RESULT:      -6.5      3.143      5.842
  Name = 
  5 active torsions:
  status: ('A' for Active; 'I' for Inactive)
    1  A    between atoms: C_2  and  C_21
    2  A    between atoms: C_6  and  C_15
    3  A    between atoms: C_8  and  C_11
    4  A    between atoms: C_15  and  C_25
    5  A    between atoms: C_21  and  C_25
                            x       y       z     vdW  Elec       q    Type
                         _______ _______ _______ _____ _____    ______ ____

>  <TORSDO>
F 5

$$$$
=
 OpenBabel10272400563D

 25 27  0  0  1  0  0  0  0  0999 V2000
  190.0680  177.9960  143.2800 C   0  0  1  0  0  3  0  0  0  0  0  0
  188.6950  177.3940  143.5730 C   0  0  1  0  0  0  0  0  0  0  0  0
  187.3010  178.2940  140.5190 O   0  0  0  0  0  0  0  0  0  0  0  0
  189.7260  176.5750  142.7790 C   0  0  1  0  0  3  0  0  0  0  0  0
  188.0100  177.9450  145.6650 C   0  0  1  0  0  3  0  0  0  0  0  0
  187.4000  178.8540  141.7970 C   0  0  0  0  0  2  0  0  0  0  0  0
  189.2470  177.7240  139.2210 C   0  0  0  0  0  2  0  0  0  0  0  0
  190.1500  177.1110  140.2880 C   0  0  1  0  0  3  0  0  0  0  0  0
  186.2850  178.0330  143.8250 N   0  0  0  0  0  0  0  0  0  0  0  0
  184.8960  178.0390  143.3890 C   0  0  0  0  0  1  0  0  0  0  0  0
  188.5720  176.9110  144.8890 O   0  0  0  0  0  0  0  0  0  0  0  0
  190.0330  178.9740  142.2880 O   0  0  0  0  0  1  0  0  0  0  0  0
  188.3670  178.8360  139.7910 C   0  0  0  0  0  2  0  0  0  0  0  0
  186.6060  178.2430  145.2050 C   0  0  0  0  0  0  0  0  0  0  0  0
  189.3000  176.3710  141.3120 C   0  0  0  0  0  2  0  0  0  0  0  0
  185.7490  178.7190  145.9990 O   0  0  0  0  0  0  0  0  0  0  0  0
  187.3430  177.7460  142.8520 C   0  0  2  0  0  3  0  0  0  0  0  0
  191.1360  176.1590  139.6310 C   0  0  0  0  0  2  0  0  0  0  0  0
  191.4570  176.6230  138.2230 C   0  0  0  0  0  1  0  0  0  0  0  0
  188.0880  177.6000  147.1550 C   0  0  0  0  0  2  0  0  0  0  0  0
  189.2000  176.6080  147.4700 C   0  0  0  0  0  2  0  0  0  0  0  0
  190.5430  177.3140  147.5080 C   0  0  0  0  0  2  0  0  0  0  0  0
  191.6070  176.4090  146.9940 C   0  0  0  0  0  0  0  0  0  0  0  0
  191.8120  176.2810  145.6260 O   0  0  0  0  0  1  0  0  0  0  0  0
  192.3570  175.7210  147.8400 C   0  0  0  0  0  2  0  0  0  0  0  0
  1 12  1  6  0  0  0
  1  2  1  0  0  0  0
  2 11  1  1  0  0  0
  3  6  1  0  0  0  0
  4 15  1  6  0  0  0
  4  1  1  0  0  0  0
  4  2  1  0  0  0  0
  5 20  1  1  0  0  0
  7 13  1  0  0  0  0
  7  8  1  0  0  0  0
  8 18  1  6  0  0  0
  8 15  1  0  0  0  0
  9 14  1  0  0  0  0
 10  9  1  0  0  0  0
 11  5  1  0  0  0  0
 13  3  1  0  0  0  0
 14  5  1  0  0  0  0
 14 16  2  0  0  0  0
 17  6  1  6  0  0  0
 17  2  1  0  0  0  0
 17  9  1  0  0  0  0
 19 18  1  0  0  0  0
 20 21  1  0  0  0  0
 21 22  1  0  0  0  0
 23 22  1  0  0  0  0
 23 25  2  0  0  0  0
 24 23  1  0  0  0  0
M  END
>  <MODEL>
7

>  <REMARK>
 VINA RESULT:      -6.4      2.023      5.164
  Name = 
  5 active torsions:
  status: ('A' for Active; 'I' for Inactive)
    1  A    between atoms: C_2  and  C_21
    2  A    between atoms: C_6  and  C_15
    3  A    between atoms: C_8  and  C_11
    4  A    between atoms: C_15  and  C_25
    5  A    between atoms: C_21  and  C_25
                            x       y       z     vdW  Elec       q    Type
                         _______ _______ _______ _____ _____    ______ ____

>  <TORSDO>
F 5

$$$$
=
 OpenBabel10272400563D

 25 27  0  0  1  0  0  0  0  0999 V2000
  187.7320  176.9040  142.9460 C   0  0  1  0  0  3  0  0  0  0  0  0
  187.2330  178.1270  143.7130 C   0  0  1  0  0  0  0  0  0  0  0  0
  189.2850  177.6230  146.4720 O   0  0  0  0  0  0  0  0  0  0  0  0
  188.5150  178.2340  142.8700 C   0  0  1  0  0  3  0  0  0  0  0  0
  184.9680  178.2530  143.6300 C   0  0  1  0  0  3  0  0  0  0  0  0
  187.9910  177.2560  146.0860 C   0  0  0  0  0  2  0  0  0  0  0  0
  191.2240  177.0070  145.1860 C   0  0  0  0  0  2  0  0  0  0  0  0
  190.7260  177.2400  143.7610 C   0  0  1  0  0  3  0  0  0  0  0  0
  186.0740  178.7710  145.8400 N   0  0  0  0  0  0  0  0  0  0  0  0
  186.0410  179.3790  147.1620 C   0  0  0  0  0  1  0  0  0  0  0  0
  186.1560  178.7760  143.0800 O   0  0  0  0  0  0  0  0  0  0  0  0
  188.3160  175.9450  143.7700 O   0  0  0  0  0  1  0  0  0  0  0  0
  190.1010  176.5430  146.1130 C   0  0  0  0  0  2  0  0  0  0  0  0
  184.8630  178.6130  145.0900 C   0  0  0  0  0  0  0  0  0  0  0  0
  189.7690  178.4250  143.7440 C   0  0  0  0  0  2  0  0  0  0  0  0
  183.7390  178.7190  145.6540 O   0  0  0  0  0  0  0  0  0  0  0  0
  187.3610  178.3810  145.2590 C   0  0  2  0  0  3  0  0  0  0  0  0
  191.9100  177.5030  142.8470 C   0  0  0  0  0  2  0  0  0  0  0  0
  191.5230  177.2580  141.4000 C   0  0  0  0  0  1  0  0  0  0  0  0
  183.7540  178.7090  142.8150 C   0  0  0  0  0  2  0  0  0  0  0  0
  183.7510  178.1410  141.4020 C   0  0  0  0  0  2  0  0  0  0  0  0
  184.5430  179.0390  140.4690 C   0  0  0  0  0  2  0  0  0  0  0  0
  183.9450  179.0090  139.1070 C   0  0  0  0  0  0  0  0  0  0  0  0
  184.5300  178.2460  138.1050 O   0  0  0  0  0  1  0  0  0  0  0  0
  182.8570  179.7160  138.8450 C   0  0  0  0  0  2  0  0  0  0  0  0
  1  2  1  0  0  0  0
  1 12  1  1  0  0  0
  2 11  1  6  0  0  0
  2 17  1  0  0  0  0
  4  1  1  0  0  0  0
  4  2  1  0  0  0  0
  4 15  1  1  0  0  0
  5 20  1  6  0  0  0
  5 14  1  0  0  0  0
  6  3  1  0  0  0  0
  7 13  1  0  0  0  0
  8 18  1  6  0  0  0
  8  7  1  0  0  0  0
  9 10  1  0  0  0  0
 11  5  1  0  0  0  0
 13  3  1  0  0  0  0
 14 16  2  0  0  0  0
 14  9  1  0  0  0  0
 15  8  1  0  0  0  0
 17  9  1  0  0  0  0
 17  6  1  1  0  0  0
 19 18  1  0  0  0  0
 21 20  1  0  0  0  0
 22 21  1  0  0  0  0
 23 22  1  0  0  0  0
 24 23  1  0  0  0  0
 25 23  2  0  0  0  0
M  END
>  <MODEL>
8

>  <REMARK>
 VINA RESULT:      -6.2      2.086      2.962
  Name = 
  5 active torsions:
  status: ('A' for Active; 'I' for Inactive)
    1  A    between atoms: C_2  and  C_21
    2  A    between atoms: C_6  and  C_15
    3  A    between atoms: C_8  and  C_11
    4  A    between atoms: C_15  and  C_25
    5  A    between atoms: C_21  and  C_25
                            x       y       z     vdW  Elec       q    Type
                         _______ _______ _______ _____ _____    ______ ____

>  <TORSDO>
F 5

$$$$
=
 OpenBabel10272400563D

 25 27  0  0  1  0  0  0  0  0999 V2000
  188.2310  176.9810  141.9080 C   0  0  1  0  0  3  0  0  0  0  0  0
  187.3720  178.2260  142.1220 C   0  0  1  0  0  0  0  0  0  0  0  0
  187.3220  177.9790  145.5880 O   0  0  0  0  0  0  0  0  0  0  0  0
  188.9020  178.3360  142.2240 C   0  0  1  0  0  3  0  0  0  0  0  0
  185.6240  178.2490  140.6740 C   0  0  1  0  0  3  0  0  0  0  0  0
  186.5290  177.5340  144.5250 C   0  0  0  0  0  2  0  0  0  0  0  0
  189.6420  177.3700  145.7920 C   0  0  0  0  0  2  0  0  0  0  0  0
  190.1130  177.4950  144.3450 C   0  0  1  0  0  3  0  0  0  0  0  0
  185.1600  178.9460  143.0550 N   0  0  0  0  0  0  0  0  0  0  0  0
  184.3320  179.6320  144.0360 C   0  0  0  0  0  1  0  0  0  0  0  0
  186.9030  178.7880  140.9200 O   0  0  0  0  0  0  0  0  0  0  0  0
  188.1910  176.1000  142.9860 O   0  0  0  0  0  1  0  0  0  0  0  0
  188.1860  176.9150  145.8790 C   0  0  0  0  0  2  0  0  0  0  0  0
  184.6540  178.6920  141.7390 C   0  0  0  0  0  0  0  0  0  0  0  0
  189.3670  178.6340  143.6620 C   0  0  0  0  0  2  0  0  0  0  0  0
  183.4190  178.7830  141.4960 O   0  0  0  0  0  0  0  0  0  0  0  0
  186.5340  178.5780  143.4050 C   0  0  2  0  0  3  0  0  0  0  0  0
  191.6100  177.7530  144.3190 C   0  0  0  0  0  2  0  0  0  0  0  0
  191.8870  179.2280  144.0960 C   0  0  0  0  0  1  0  0  0  0  0  0
  185.1570  178.6010  139.2590 C   0  0  0  0  0  2  0  0  0  0  0  0
  185.8490  177.7680  138.1880 C   0  0  0  0  0  2  0  0  0  0  0  0
  186.7100  178.6510  137.3040 C   0  0  0  0  0  2  0  0  0  0  0  0
  188.1490  178.4330  137.6160 C   0  0  0  0  0  0  0  0  0  0  0  0
  189.0810  179.4230  137.3340 O   0  0  0  0  0  1  0  0  0  0  0  0
  188.5440  177.2920  138.1580 C   0  0  0  0  0  2  0  0  0  0  0  0
  1  2  1  0  0  0  0
  1  4  1  0  0  0  0
  1 12  1  1  0  0  0
  2 11  1  6  0  0  0
  2  4  1  0  0  0  0
  2 17  1  0  0  0  0
  3 13  1  0  0  0  0
  4 15  1  1  0  0  0
  5 20  1  6  0  0  0
  5 11  1  0  0  0  0
  5 14  1  0  0  0  0
  6  3  1  0  0  0  0
  7 13  1  0  0  0  0
  8 18  1  1  0  0  0
  8  7  1  0  0  0  0
  9 17  1  0  0  0  0
  9 10  1  0  0  0  0
 14  9  1  0  0  0  0
 15  8  1  0  0  0  0
 16 14  2  0  0  0  0
 17  6  1  1  0  0  0
 19 18  1  0  0  0  0
 21 20  1  0  0  0  0
 22 23  1  0  0  0  0
 22 21  1  0  0  0  0
 23 25  2  0  0  0  0
 24 23  1  0  0  0  0
M  END
>  <MODEL>
9

>  <REMARK>
 VINA RESULT:      -6.1      2.745      5.233
  Name = 
  5 active torsions:
  status: ('A' for Active; 'I' for Inactive)
    1  A    between atoms: C_2  and  C_21
    2  A    between atoms: C_6  and  C_15
    3  A    between atoms: C_8  and  C_11
    4  A    between atoms: C_15  and  C_25
    5  A    between atoms: C_21  and  C_25
                            x       y       z     vdW  Elec       q    Type
                         _______ _______ _______ _____ _____    ______ ____

>  <TORSDO>
F 5

$$$$
