=
 OpenBabel10272401423D

 55 59  0  0  1  0  0  0  0  0999 V2000
  184.0990  177.2090  138.6520 C   0  0  0  0  0  2  0  0  0  0  0  0
  183.2570  180.2880  139.2520 C   0  0  0  0  0  1  0  0  0  0  0  0
  187.9730  176.9200  136.9050 C   0  0  2  0  0  3  0  0  0  0  0  0
  189.6390  178.9420  140.1800 O   0  0  0  0  0  1  0  0  0  0  0  0
  188.5040  179.1950  137.3450 C   0  0  0  0  0  1  0  0  0  0  0  0
  188.3500  178.4280  140.3310 C   0  0  2  0  0  0  0  0  0  0  0  0
  187.6740  177.8320  139.1000 C   0  0  1  0  0  3  0  0  0  0  0  0
  185.3030  179.7460  140.5260 C   0  0  0  0  0  2  0  0  0  0  0  0
  186.4650  177.4690  135.1190 O   0  0  0  0  0  1  0  0  0  0  0  0
  188.5200  177.8490  137.9070 N   0  0  0  0  0  0  0  0  0  0  0  0
  187.5030  178.9530  141.4940 C   0  0  0  0  0  2  0  0  0  0  0  0
  185.1430  176.1480  138.3300 C   0  0  0  0  0  2  0  0  0  0  0  0
  188.3040  176.9280  140.1600 C   0  0  0  0  0  2  0  0  0  0  0  0
  184.6650  178.4860  138.6010 O   0  0  0  0  0  0  0  0  0  0  0  0
  184.1580  179.1600  139.7160 C   0  0  2  0  0  3  0  0  0  0  0  0
  186.5110  177.2340  136.4920 C   0  0  1  0  0  3  0  0  0  0  0  0
  186.0040  178.6510  141.3190 C   0  0  1  0  0  3  0  0  0  0  0  0
  185.5000  176.1430  136.8480 C   0  0  0  0  0  2  0  0  0  0  0  0
  185.2940  178.3620  142.5720 N   0  0  0  0  0  0  0  0  0  0  0  0
  185.6970  177.0700  143.1220 C   0  0  0  0  0  2  0  0  0  0  0  0
  188.0050  177.0880  144.0860 C   0  0  0  0  0  3  0  0  0  0  0  0
  188.3830  177.5800  146.4340 C   0  0  0  0  0  0  0  0  0  0  0  0
  186.1300  177.6080  145.5270 C   0  0  0  0  0  3  0  0  0  0  0  0
  187.0030  177.7620  146.6070 C   0  0  0  0  0  3  0  0  0  0  0  0
  188.8770  177.2410  145.1670 C   0  0  0  0  0  3  0  0  0  0  0  0
  186.6310  177.2790  144.2630 C   0  0  0  0  0  0  0  0  0  0  0  0
  189.3060  177.7370  147.5700 C   0  0  0  0  0  0  0  0  0  0  0  0
  190.5130  177.3940  147.4640 O   0  0  0  0  0  0  0  0  0  0  0  0
  188.8520  178.2670  148.7730 O   0  0  0  0  0  1  0  0  0  0  0  0
  183.8640  178.3120  142.2940 C   0  0  0  0  0  2  0  0  0  0  0  0
  183.6770  179.7520  144.1490 O   0  0  0  0  0  0  0  0  0  0  0  0
  183.1450  179.3060  143.1460 C   0  0  0  0  0  0  0  0  0  0  0  0
  181.7890  179.7870  142.7390 C   0  0  0  0  0  2  0  0  0  0  0  0
  180.7910  178.6700  142.7840 C   0  0  0  0  0  0  0  0  0  0  0  0
  180.3880  178.1440  144.0600 S   0  0  0  0  0  0  0  0  0  0  0  0
  180.5810  178.9430  140.4310 O   0  0  0  0  0  0  0  0  0  0  0  0
  180.7760  177.5600  140.5900 C   0  0  0  0  0  2  0  0  0  0  0  0
  179.9830  178.3520  141.5620 C   0  0  1  0  0  3  0  0  0  0  0  0
  188.1330  175.5870  137.3370 O   0  0  0  0  0  0  0  0  0  0  0  0
  188.4940  174.0320  134.5940 C   0  0  1  0  0  3  0  0  0  0  0  0
  189.1660  174.9570  136.5990 C   0  0  2  0  0  0  0  0  0  0  0  0
  189.5240  175.7540  135.4820 O   0  0  0  0  0  0  0  0  0  0  0  0
  187.2530  174.6330  134.3520 O   0  0  0  0  0  1  0  0  0  0  0  0
  189.5040  174.9780  134.3940 O   0  0  0  0  0  0  0  0  0  0  0  0
  188.6580  173.6510  136.0340 C   0  0  1  0  0  3  0  0  0  0  0  0
  187.8320  172.2150  138.0030 C   0  0  0  0  0  1  0  0  0  0  0  0
  186.2630  172.9960  136.2540 C   0  0  0  0  0  3  0  0  0  0  0  0
  187.5040  172.9860  136.7650 C   0  0  0  0  0  0  0  0  0  0  0  0
  184.6170  172.7040  137.9630 O   0  0  0  0  0  1  0  0  0  0  0  0
  185.0600  172.3680  136.8320 C   0  0  0  0  0  0  0  0  0  0  0  0
  184.3950  171.3920  136.1040 O   0  0  0  0  0  0  0  0  0  0  0  0
  190.3880  174.6850  137.4850 C   0  0  0  0  0  2  0  0  0  0  0  0
  191.0640  175.8900  137.8050 O   0  0  0  0  0  0  0  0  0  0  0  0
  192.3230  176.1180  137.3250 C   0  0  0  0  0  0  0  0  0  0  0  0
  193.4330  176.3200  136.8990 C   0  0  0  0  0  3  0  0  0  0  0  0
  3 39  1  1  0  0  0
  3 10  1  0  0  0  0
  5 10  1  0  0  0  0
  6  4  1  6  0  0  0
  6 11  1  0  0  0  0
  7 13  1  1  0  0  0
  7  6  1  0  0  0  0
  8 17  1  0  0  0  0
 10  7  1  0  0  0  0
 12  1  1  0  0  0  0
 13  6  1  0  0  0  0
 14  1  1  0  0  0  0
 14 15  1  0  0  0  0
 15  2  1  6  0  0  0
 15  8  1  0  0  0  0
 16  9  1  6  0  0  0
 16 18  1  0  0  0  0
 16  3  1  0  0  0  0
 17 11  1  0  0  0  0
 17 19  1  1  0  0  0
 18 12  1  0  0  0  0
 19 20  1  0  0  0  0
 20 26  1  0  0  0  0
 21 26  2  0  0  0  0
 21 25  1  0  0  0  0
 22 24  1  0  0  0  0
 22 27  1  0  0  0  0
 23 24  2  0  0  0  0
 25 22  2  0  0  0  0
 26 23  1  0  0  0  0
 27 29  1  0  0  0  0
 28 27  2  0  0  0  0
 30 19  1  0  0  0  0
 30 32  1  0  0  0  0
 32 31  2  0  0  0  0
 33 34  1  0  0  0  0
 33 32  1  0  0  0  0
 34 35  2  0  0  0  0
 36 37  1  0  0  0  0
 36 38  1  0  0  0  0
 37 38  1  0  0  0  0
 38 34  1  1  0  0  0
 40 43  1  1  0  0  0
 40 45  1  0  0  0  0
 41 39  1  0  0  0  0
 41 52  1  1  0  0  0
 42 41  1  0  0  0  0
 44 40  1  0  0  0  0
 44 42  1  0  0  0  0
 45 41  1  0  0  0  0
 45 48  1  1  0  0  0
 47 48  2  0  0  0  0
 47 50  1  0  0  0  0
 48 46  1  0  0  0  0
 50 49  1  0  0  0  0
 51 50  2  0  0  0  0
 52 53  1  0  0  0  0
 54 53  1  0  0  0  0
 55 54  3  0  0  0  0
M  END
>  <MODEL>
1

>  <REMARK>
 VINA RESULT:      -4.1      0.000      0.000
  Name = 
  16 active torsions:
  status: ('A' for Active; 'I' for Inactive)
    1  A    between atoms: C_6  and  O_8
    2  A    between atoms: C_6  and  C_46
    3  A    between atoms: C_7  and  O_8
    4  A    between atoms: C_10  and  C_32
    5  A    between atoms: C_11  and  C_29
    6  A    between atoms: C_12  and  O_14
    7  A    between atoms: O_14  and  C_46
    8  A    between atoms: C_27  and  C_31
    9  A    between atoms: C_27  and  C_55
   10  A    between atoms: C_28  and  C_44
   11  A    between atoms: C_28  and  N_49
   12  A    between atoms: C_31  and  C_44
   13  A    between atoms: C_33  and  N_49
   14  A    between atoms: C_33  and  C_52
   15  A    between atoms: C_38  and  C_53
   16  A    between atoms: C_45  and  N_49
                            x       y       z     vdW  Elec       q    Type
                         _______ _______ _______ _____ _____    ______ ____

>  <TORSDO>
F 16

$$$$
=
 OpenBabel10272401423D

 55 59  0  0  1  0  0  0  0  0999 V2000
  185.6180  178.7260  138.0360 C   0  0  0  0  0  2  0  0  0  0  0  0
  188.1040  179.8720  136.2880 C   0  0  0  0  0  1  0  0  0  0  0  0
  183.5520  175.5950  136.0180 C   0  0  2  0  0  3  0  0  0  0  0  0
  187.1040  173.3840  135.7380 O   0  0  0  0  0  1  0  0  0  0  0  0
  185.2270  175.3650  134.3470 C   0  0  0  0  0  1  0  0  0  0  0  0
  187.0820  174.4500  136.6380 C   0  0  2  0  0  0  0  0  0  0  0  0
  185.8550  175.3570  136.6340 C   0  0  1  0  0  3  0  0  0  0  0  0
  188.4700  177.4700  136.7380 C   0  0  0  0  0  2  0  0  0  0  0  0
  182.7200  177.6530  135.1030 O   0  0  0  0  0  1  0  0  0  0  0  0
  184.8270  174.9380  135.6830 N   0  0  0  0  0  0  0  0  0  0  0  0
  188.4230  174.9760  137.1580 C   0  0  0  0  0  2  0  0  0  0  0  0
  184.5670  177.6620  138.3260 C   0  0  0  0  0  2  0  0  0  0  0  0
  186.0280  174.2800  137.7060 C   0  0  0  0  0  2  0  0  0  0  0  0
  186.2900  178.4380  136.8450 O   0  0  0  0  0  0  0  0  0  0  0  0
  187.6400  178.6870  137.1130 C   0  0  2  0  0  3  0  0  0  0  0  0
  183.6290  177.1440  136.0290 C   0  0  1  0  0  3  0  0  0  0  0  0
  188.3080  176.3770  137.7850 C   0  0  1  0  0  3  0  0  0  0  0  0
  183.3690  177.7860  137.3920 C   0  0  0  0  0  2  0  0  0  0  0  0
  189.1970  176.6020  138.9330 N   0  0  0  0  0  0  0  0  0  0  0  0
  188.5370  177.4010  139.9620 C   0  0  0  0  0  2  0  0  0  0  0  0
  188.4760  176.5730  142.3220 C   0  0  0  0  0  3  0  0  0  0  0  0
  190.3980  176.8080  143.7870 C   0  0  0  0  0  0  0  0  0  0  0  0
  190.5090  177.5910  141.4900 C   0  0  0  0  0  3  0  0  0  0  0  0
  191.1100  177.4090  142.7390 C   0  0  0  0  0  3  0  0  0  0  0  0
  189.0770  176.3920  143.5700 C   0  0  0  0  0  3  0  0  0  0  0  0
  189.1930  177.1660  141.2790 C   0  0  0  0  0  0  0  0  0  0  0  0
  191.0260  176.6170  145.1050 C   0  0  0  0  0  0  0  0  0  0  0  0
  191.9430  175.7670  145.2580 O   0  0  0  0  0  0  0  0  0  0  0  0
  190.6140  177.3770  146.1930 O   0  0  0  0  0  1  0  0  0  0  0  0
  190.3720  177.3320  138.4740 C   0  0  0  0  0  2  0  0  0  0  0  0
  192.5800  176.8240  139.1210 O   0  0  0  0  0  0  0  0  0  0  0  0
  191.5750  176.4500  138.5380 C   0  0  0  0  0  0  0  0  0  0  0  0
  191.5290  175.0870  137.9250 C   0  0  0  0  0  2  0  0  0  0  0  0
  192.4420  175.0040  136.7390 C   0  0  0  0  0  0  0  0  0  0  0  0
  191.9470  175.3960  135.4470 S   0  0  0  0  0  0  0  0  0  0  0  0
  194.1540  173.9300  137.9920 O   0  0  0  0  0  0  0  0  0  0  0  0
  194.3560  173.4620  136.6810 C   0  0  0  0  0  2  0  0  0  0  0  0
  193.9180  174.8530  136.9540 C   0  0  1  0  0  3  0  0  0  0  0  0
  183.0380  175.0750  137.2250 O   0  0  0  0  0  0  0  0  0  0  0  0
  179.9820  174.5970  136.5160 C   0  0  1  0  0  3  0  0  0  0  0  0
  182.1660  173.9920  136.9550 C   0  0  2  0  0  0  0  0  0  0  0  0
  181.8540  173.9470  135.5730 O   0  0  0  0  0  0  0  0  0  0  0  0
  180.0690  175.9660  136.2310 O   0  0  0  0  0  1  0  0  0  0  0  0
  180.5250  173.8760  135.4480 O   0  0  0  0  0  0  0  0  0  0  0  0
  180.8540  174.2110  137.6720 C   0  0  1  0  0  3  0  0  0  0  0  0
  180.6440  174.4270  140.2270 C   0  0  0  0  0  1  0  0  0  0  0  0
  181.0010  176.4250  138.8080 C   0  0  0  0  0  3  0  0  0  0  0  0
  180.8820  175.0920  138.9090 C   0  0  0  0  0  0  0  0  0  0  0  0
  179.9870  178.0700  140.2160 O   0  0  0  0  0  0  0  0  0  0  0  0
  181.0110  177.4010  139.9140 C   0  0  0  0  0  0  0  0  0  0  0  0
  182.1770  177.5760  140.6450 O   0  0  0  0  0  1  0  0  0  0  0  0
  182.7790  172.6640  137.4170 C   0  0  0  0  0  2  0  0  0  0  0  0
  183.5670  172.0830  136.3900 O   0  0  0  0  0  0  0  0  0  0  0  0
  183.5340  170.7330  136.1820 C   0  0  0  0  0  0  0  0  0  0  0  0
  183.5070  169.5410  135.9980 C   0  0  0  0  0  3  0  0  0  0  0  0
  1 12  1  0  0  0  0
  3 16  1  0  0  0  0
  3 39  1  1  0  0  0
  5 10  1  0  0  0  0
  6  4  1  6  0  0  0
  6 11  1  0  0  0  0
  6 13  1  0  0  0  0
  7  6  1  0  0  0  0
  7 13  1  1  0  0  0
  8 15  1  0  0  0  0
  8 17  1  0  0  0  0
 10  3  1  0  0  0  0
 10  7  1  0  0  0  0
 11 17  1  0  0  0  0
 14 15  1  0  0  0  0
 14  1  1  0  0  0  0
 15  2  1  6  0  0  0
 16  9  1  6  0  0  0
 16 18  1  0  0  0  0
 17 19  1  1  0  0  0
 18 12  1  0  0  0  0
 19 20  1  0  0  0  0
 20 26  1  0  0  0  0
 21 25  1  0  0  0  0
 22 27  1  0  0  0  0
 23 24  2  0  0  0  0
 24 22  1  0  0  0  0
 25 22  2  0  0  0  0
 26 23  1  0  0  0  0
 26 21  2  0  0  0  0
 27 28  2  0  0  0  0
 27 29  1  0  0  0  0
 30 32  1  0  0  0  0
 30 19  1  0  0  0  0
 32 31  2  0  0  0  0
 33 32  1  0  0  0  0
 34 33  1  0  0  0  0
 35 34  2  0  0  0  0
 37 38  1  0  0  0  0
 37 36  1  0  0  0  0
 38 34  1  6  0  0  0
 38 36  1  0  0  0  0
 40 43  1  6  0  0  0
 40 45  1  0  0  0  0
 41 39  1  0  0  0  0
 41 52  1  1  0  0  0
 41 45  1  0  0  0  0
 42 41  1  0  0  0  0
 44 42  1  0  0  0  0
 44 40  1  0  0  0  0
 45 48  1  1  0  0  0
 47 48  2  0  0  0  0
 47 50  1  0  0  0  0
 48 46  1  0  0  0  0
 50 49  2  0  0  0  0
 50 51  1  0  0  0  0
 53 52  1  0  0  0  0
 54 53  1  0  0  0  0
 55 54  3  0  0  0  0
M  END
>  <MODEL>
2

>  <REMARK>
 VINA RESULT:      -4.0      3.225      7.603
  Name = 
  16 active torsions:
  status: ('A' for Active; 'I' for Inactive)
    1  A    between atoms: C_6  and  O_8
    2  A    between atoms: C_6  and  C_46
    3  A    between atoms: C_7  and  O_8
    4  A    between atoms: C_10  and  C_32
    5  A    between atoms: C_11  and  C_29
    6  A    between atoms: C_12  and  O_14
    7  A    between atoms: O_14  and  C_46
    8  A    between atoms: C_27  and  C_31
    9  A    between atoms: C_27  and  C_55
   10  A    between atoms: C_28  and  C_44
   11  A    between atoms: C_28  and  N_49
   12  A    between atoms: C_31  and  C_44
   13  A    between atoms: C_33  and  N_49
   14  A    between atoms: C_33  and  C_52
   15  A    between atoms: C_38  and  C_53
   16  A    between atoms: C_45  and  N_49
                            x       y       z     vdW  Elec       q    Type
                         _______ _______ _______ _____ _____    ______ ____

>  <TORSDO>
F 16

$$$$
=
 OpenBabel10272401423D

 55 59  0  0  1  0  0  0  0  0999 V2000
  181.7560  176.3820  140.9720 C   0  0  0  0  0  2  0  0  0  0  0  0
  181.2730  179.3240  142.2610 C   0  0  0  0  0  1  0  0  0  0  0  0
  182.3580  176.5600  136.7590 C   0  0  2  0  0  3  0  0  0  0  0  0
  185.6000  179.1650  137.2960 O   0  0  0  0  0  1  0  0  0  0  0  0
  182.5970  178.9260  136.7430 C   0  0  0  0  0  1  0  0  0  0  0  0
  185.1490  178.4620  138.4150 C   0  0  2  0  0  0  0  0  0  0  0  0
  183.8750  177.6360  138.2680 C   0  0  1  0  0  3  0  0  0  0  0  0
  183.4960  179.2670  141.1860 C   0  0  0  0  0  2  0  0  0  0  0  0
  179.9840  176.6600  137.1070 O   0  0  0  0  0  1  0  0  0  0  0  0
  183.3140  177.6680  136.9180 N   0  0  0  0  0  0  0  0  0  0  0  0
  185.5880  178.9590  139.7960 C   0  0  0  0  0  2  0  0  0  0  0  0
  182.2170  175.4820  139.8330 C   0  0  0  0  0  2  0  0  0  0  0  0
  185.2500  176.9660  138.2340 C   0  0  0  0  0  2  0  0  0  0  0  0
  181.7800  177.7230  140.5770 O   0  0  0  0  0  0  0  0  0  0  0  0
  182.3290  178.4170  141.6600 C   0  0  2  0  0  3  0  0  0  0  0  0
  181.1970  176.5810  137.7880 C   0  0  1  0  0  3  0  0  0  0  0  0
  184.7180  178.3940  140.9330 C   0  0  1  0  0  3  0  0  0  0  0  0
  181.1650  175.3810  138.7350 C   0  0  0  0  0  2  0  0  0  0  0  0
  185.4480  178.1250  142.1780 N   0  0  0  0  0  0  0  0  0  0  0  0
  184.6870  178.5690  143.3440 C   0  0  0  0  0  2  0  0  0  0  0  0
  185.1880  179.0350  145.7500 C   0  0  0  0  0  3  0  0  0  0  0  0
  187.0200  177.9220  146.8910 C   0  0  0  0  0  0  0  0  0  0  0  0
  186.5410  177.4150  144.5640 C   0  0  0  0  0  3  0  0  0  0  0  0
  187.3080  177.2140  145.7150 C   0  0  0  0  0  3  0  0  0  0  0  0
  185.9560  178.8350  146.8990 C   0  0  0  0  0  3  0  0  0  0  0  0
  185.4750  178.3210  144.5830 C   0  0  0  0  0  0  0  0  0  0  0  0
  187.8270  177.7160  148.1050 C   0  0  0  0  0  0  0  0  0  0  0  0
  187.5340  178.3120  149.1750 O   0  0  0  0  0  1  0  0  0  0  0  0
  188.9200  176.8580  148.0810 O   0  0  0  0  0  0  0  0  0  0  0  0
  186.7050  178.8620  142.1480 C   0  0  0  0  0  2  0  0  0  0  0  0
  187.6370  176.7320  141.7680 O   0  0  0  0  0  0  0  0  0  0  0  0
  187.8470  177.9140  141.9890 C   0  0  0  0  0  0  0  0  0  0  0  0
  189.2500  178.4260  142.0560 C   0  0  0  0  0  2  0  0  0  0  0  0
  190.0280  177.7130  143.1190 C   0  0  0  0  0  0  0  0  0  0  0  0
  190.6920  176.4800  142.7920 S   0  0  0  0  0  0  0  0  0  0  0  0
  191.7220  178.1390  144.7340 O   0  0  0  0  0  0  0  0  0  0  0  0
  191.4990  179.3960  144.1440 C   0  0  0  0  0  2  0  0  0  0  0  0
  190.3910  178.4380  144.3810 C   0  0  1  0  0  3  0  0  0  0  0  0
  183.0400  175.3250  136.7440 O   0  0  0  0  0  0  0  0  0  0  0  0
  182.3590  172.4250  135.6500 C   0  0  1  0  0  3  0  0  0  0  0  0
  182.8440  174.6770  135.4990 C   0  0  2  0  0  0  0  0  0  0  0  0
  181.4680  174.4000  135.3030 O   0  0  0  0  0  0  0  0  0  0  0  0
  181.9800  172.2570  136.9870 O   0  0  0  0  0  1  0  0  0  0  0  0
  181.3460  173.1100  134.9730 O   0  0  0  0  0  0  0  0  0  0  0  0
  183.5410  173.3360  135.5150 C   0  0  1  0  0  3  0  0  0  0  0  0
  184.4080  172.7360  137.8620 C   0  0  0  0  0  1  0  0  0  0  0  0
  185.9550  173.5350  136.1020 C   0  0  0  0  0  3  0  0  0  0  0  0
  184.7150  173.1790  136.4670 C   0  0  0  0  0  0  0  0  0  0  0  0
  187.4400  174.3480  137.7910 O   0  0  0  0  0  1  0  0  0  0  0  0
  187.1770  173.4690  136.9270 C   0  0  0  0  0  0  0  0  0  0  0  0
  188.0490  172.4040  136.7530 O   0  0  0  0  0  0  0  0  0  0  0  0
  183.3980  175.5220  134.3460 C   0  0  0  0  0  2  0  0  0  0  0  0
  184.8160  175.5190  134.3470 O   0  0  0  0  0  0  0  0  0  0  0  0
  185.5050  176.6990  134.3460 C   0  0  0  0  0  0  0  0  0  0  0  0
  186.1110  177.7420  134.3460 C   0  0  0  0  0  3  0  0  0  0  0  0
  3 39  1  1  0  0  0
  3 10  1  0  0  0  0
  3 16  1  0  0  0  0
  5 10  1  0  0  0  0
  6  4  1  6  0  0  0
  6 11  1  0  0  0  0
  7 13  1  6  0  0  0
  7  6  1  0  0  0  0
  8 15  1  0  0  0  0
 10  7  1  0  0  0  0
 11 17  1  0  0  0  0
 12  1  1  0  0  0  0
 13  6  1  0  0  0  0
 14  1  1  0  0  0  0
 14 15  1  0  0  0  0
 15  2  1  6  0  0  0
 16  9  1  6  0  0  0
 16 18  1  0  0  0  0
 17  8  1  0  0  0  0
 17 19  1  1  0  0  0
 18 12  1  0  0  0  0
 19 20  1  0  0  0  0
 20 26  1  0  0  0  0
 21 25  1  0  0  0  0
 22 25  2  0  0  0  0
 22 27  1  0  0  0  0
 23 26  1  0  0  0  0
 23 24  2  0  0  0  0
 24 22  1  0  0  0  0
 26 21  2  0  0  0  0
 27 28  1  0  0  0  0
 29 27  2  0  0  0  0
 30 19  1  0  0  0  0
 31 32  2  0  0  0  0
 32 33  1  0  0  0  0
 32 30  1  0  0  0  0
 33 34  1  0  0  0  0
 35 34  2  0  0  0  0
 37 38  1  0  0  0  0
 37 36  1  0  0  0  0
 38 34  1  6  0  0  0
 38 36  1  0  0  0  0
 40 43  1  1  0  0  0
 41 52  1  6  0  0  0
 41 45  1  0  0  0  0
 41 39  1  0  0  0  0
 42 41  1  0  0  0  0
 44 42  1  0  0  0  0
 44 40  1  0  0  0  0
 45 40  1  0  0  0  0
 45 48  1  1  0  0  0
 47 48  2  0  0  0  0
 47 50  1  0  0  0  0
 48 46  1  0  0  0  0
 50 49  1  0  0  0  0
 51 50  2  0  0  0  0
 52 53  1  0  0  0  0
 54 55  3  0  0  0  0
 54 53  1  0  0  0  0
M  END
>  <MODEL>
3

>  <REMARK>
 VINA RESULT:      -3.6      2.860      5.544
  Name = 
  16 active torsions:
  status: ('A' for Active; 'I' for Inactive)
    1  A    between atoms: C_6  and  O_8
    2  A    between atoms: C_6  and  C_46
    3  A    between atoms: C_7  and  O_8
    4  A    between atoms: C_10  and  C_32
    5  A    between atoms: C_11  and  C_29
    6  A    between atoms: C_12  and  O_14
    7  A    between atoms: O_14  and  C_46
    8  A    between atoms: C_27  and  C_31
    9  A    between atoms: C_27  and  C_55
   10  A    between atoms: C_28  and  C_44
   11  A    between atoms: C_28  and  N_49
   12  A    between atoms: C_31  and  C_44
   13  A    between atoms: C_33  and  N_49
   14  A    between atoms: C_33  and  C_52
   15  A    between atoms: C_38  and  C_53
   16  A    between atoms: C_45  and  N_49
                            x       y       z     vdW  Elec       q    Type
                         _______ _______ _______ _____ _____    ______ ____

>  <TORSDO>
F 16

$$$$
=
 OpenBabel10272401423D

 55 59  0  0  1  0  0  0  0  0999 V2000
  188.0020  178.4420  136.5360 C   0  0  0  0  0  2  0  0  0  0  0  0
  190.3700  177.9560  134.3660 C   0  0  0  0  0  1  0  0  0  0  0  0
  184.6910  175.8380  135.9030 C   0  0  2  0  0  3  0  0  0  0  0  0
  187.2040  172.4990  136.2640 O   0  0  0  0  0  1  0  0  0  0  0  0
  185.8670  174.4790  134.3460 C   0  0  0  0  0  1  0  0  0  0  0  0
  187.6960  173.7250  136.7150 C   0  0  2  0  0  0  0  0  0  0  0  0
  186.8580  174.9700  136.4440 C   0  0  1  0  0  3  0  0  0  0  0  0
  189.9970  175.8710  135.6380 C   0  0  0  0  0  2  0  0  0  0  0  0
  184.4340  177.6470  134.3460 O   0  0  0  0  0  1  0  0  0  0  0  0
  185.5950  174.6840  135.7640 N   0  0  0  0  0  0  0  0  0  0  0  0
  189.2070  173.8500  136.9390 C   0  0  0  0  0  2  0  0  0  0  0  0
  186.7300  177.9990  137.2460 C   0  0  0  0  0  2  0  0  0  0  0  0
  186.8560  174.3110  137.8240 C   0  0  0  0  0  2  0  0  0  0  0  0
  188.3160  177.5600  135.4980 O   0  0  0  0  0  0  0  0  0  0  0  0
  189.6960  177.3600  135.5870 C   0  0  2  0  0  3  0  0  0  0  0  0
  185.2760  177.1620  135.3450 C   0  0  1  0  0  3  0  0  0  0  0  0
  189.6750  175.3140  137.0180 C   0  0  1  0  0  3  0  0  0  0  0  0
  185.4920  178.2540  136.3940 C   0  0  0  0  0  2  0  0  0  0  0  0
  190.7790  175.5460  137.9590 N   0  0  0  0  0  0  0  0  0  0  0  0
  190.8190  176.9410  138.3920 C   0  0  0  0  0  2  0  0  0  0  0  0
  188.9300  177.8420  139.7620 C   0  0  0  0  0  3  0  0  0  0  0  0
  188.8040  177.4340  142.1530 C   0  0  0  0  0  0  0  0  0  0  0  0
  190.6350  176.5100  140.8500 C   0  0  0  0  0  3  0  0  0  0  0  0
  189.9860  176.6810  142.0760 C   0  0  0  0  0  3  0  0  0  0  0  0
  188.2820  178.0130  140.9880 C   0  0  0  0  0  3  0  0  0  0  0  0
  190.1030  177.0840  139.6900 C   0  0  0  0  0  0  0  0  0  0  0  0
  188.1190  177.6190  143.4420 C   0  0  0  0  0  0  0  0  0  0  0  0
  186.8650  177.7250  143.4900 O   0  0  0  0  0  0  0  0  0  0  0  0
  188.8520  177.6780  144.6220 O   0  0  0  0  0  1  0  0  0  0  0  0
  192.0350  175.2440  137.2830 C   0  0  0  0  0  2  0  0  0  0  0  0
  193.1030  176.9580  138.4970 O   0  0  0  0  0  0  0  0  0  0  0  0
  193.1770  175.8240  138.0510 C   0  0  0  0  0  0  0  0  0  0  0  0
  194.3930  174.9950  138.3110 C   0  0  0  0  0  2  0  0  0  0  0  0
  194.6740  174.0830  137.1550 C   0  0  0  0  0  0  0  0  0  0  0  0
  194.9720  174.6550  135.8700 S   0  0  0  0  0  0  0  0  0  0  0  0
  195.7670  172.1250  136.3630 O   0  0  0  0  0  0  0  0  0  0  0  0
  196.4360  172.4180  137.5640 C   0  0  0  0  0  2  0  0  0  0  0  0
  194.9770  172.6370  137.4110 C   0  0  1  0  0  3  0  0  0  0  0  0
  184.2610  175.9620  137.2410 O   0  0  0  0  0  0  0  0  0  0  0  0
  181.2280  176.8900  137.1470 C   0  0  1  0  0  3  0  0  0  0  0  0
  182.9710  175.3970  137.3910 C   0  0  2  0  0  0  0  0  0  0  0  0
  182.3320  175.2910  136.1290 O   0  0  0  0  0  0  0  0  0  0  0  0
  181.8200  177.9900  136.5140 O   0  0  0  0  0  1  0  0  0  0  0  0
  181.1190  175.8410  136.2290 O   0  0  0  0  0  0  0  0  0  0  0  0
  182.1080  176.3220  138.2180 C   0  0  1  0  0  3  0  0  0  0  0  0
  182.6820  176.9930  140.6350 C   0  0  0  0  0  1  0  0  0  0  0  0
  183.4590  178.3560  138.7190 C   0  0  0  0  0  3  0  0  0  0  0  0
  182.8240  177.2640  139.1720 C   0  0  0  0  0  0  0  0  0  0  0  0
  185.2330  179.1030  140.1380 O   0  0  0  0  0  1  0  0  0  0  0  0
  184.1640  179.3700  139.5260 C   0  0  0  0  0  0  0  0  0  0  0  0
  183.6410  180.6530  139.6000 O   0  0  0  0  0  0  0  0  0  0  0  0
  183.0480  174.0270  138.0770 C   0  0  0  0  0  2  0  0  0  0  0  0
  182.4890  173.0150  137.2560 O   0  0  0  0  0  0  0  0  0  0  0  0
  183.1980  171.8760  136.9930 C   0  0  0  0  0  0  0  0  0  0  0  0
  183.8240  170.8710  136.7630 C   0  0  0  0  0  3  0  0  0  0  0  0
  1 12  1  0  0  0  0
  3 39  1  1  0  0  0
  5 10  1  0  0  0  0
  6  4  1  6  0  0  0
  6 11  1  0  0  0  0
  6 13  1  0  0  0  0
  7  6  1  0  0  0  0
  7 13  1  1  0  0  0
  8 17  1  0  0  0  0
 10  3  1  0  0  0  0
 10  7  1  0  0  0  0
 11 17  1  0  0  0  0
 14 15  1  0  0  0  0
 14  1  1  0  0  0  0
 15  2  1  6  0  0  0
 15  8  1  0  0  0  0
 16  9  1  6  0  0  0
 16  3  1  0  0  0  0
 16 18  1  0  0  0  0
 17 19  1  1  0  0  0
 18 12  1  0  0  0  0
 19 20  1  0  0  0  0
 20 26  1  0  0  0  0
 21 25  1  0  0  0  0
 22 27  1  0  0  0  0
 23 24  2  0  0  0  0
 24 22  1  0  0  0  0
 25 22  2  0  0  0  0
 26 21  2  0  0  0  0
 26 23  1  0  0  0  0
 27 28  2  0  0  0  0
 27 29  1  0  0  0  0
 30 19  1  0  0  0  0
 30 32  1  0  0  0  0
 32 33  1  0  0  0  0
 32 31  2  0  0  0  0
 34 33  1  0  0  0  0
 35 34  2  0  0  0  0
 36 38  1  0  0  0  0
 36 37  1  0  0  0  0
 38 34  1  6  0  0  0
 38 37  1  0  0  0  0
 39 41  1  0  0  0  0
 40 43  1  6  0  0  0
 40 45  1  0  0  0  0
 41 52  1  1  0  0  0
 41 45  1  0  0  0  0
 42 44  1  0  0  0  0
 42 41  1  0  0  0  0
 44 40  1  0  0  0  0
 45 48  1  6  0  0  0
 47 48  2  0  0  0  0
 47 50  1  0  0  0  0
 48 46  1  0  0  0  0
 50 51  2  0  0  0  0
 50 49  1  0  0  0  0
 53 52  1  0  0  0  0
 54 53  1  0  0  0  0
 55 54  3  0  0  0  0
M  END
>  <MODEL>
4

>  <REMARK>
 VINA RESULT:      -3.5      3.464      8.422
  Name = 
  16 active torsions:
  status: ('A' for Active; 'I' for Inactive)
    1  A    between atoms: C_6  and  O_8
    2  A    between atoms: C_6  and  C_46
    3  A    between atoms: C_7  and  O_8
    4  A    between atoms: C_10  and  C_32
    5  A    between atoms: C_11  and  C_29
    6  A    between atoms: C_12  and  O_14
    7  A    between atoms: O_14  and  C_46
    8  A    between atoms: C_27  and  C_31
    9  A    between atoms: C_27  and  C_55
   10  A    between atoms: C_28  and  C_44
   11  A    between atoms: C_28  and  N_49
   12  A    between atoms: C_31  and  C_44
   13  A    between atoms: C_33  and  N_49
   14  A    between atoms: C_33  and  C_52
   15  A    between atoms: C_38  and  C_53
   16  A    between atoms: C_45  and  N_49
                            x       y       z     vdW  Elec       q    Type
                         _______ _______ _______ _____ _____    ______ ____

>  <TORSDO>
F 16

$$$$
=
 OpenBabel10272401423D

 55 59  0  0  1  0  0  0  0  0999 V2000
  185.7460  178.8760  138.0380 C   0  0  0  0  0  2  0  0  0  0  0  0
  188.3470  180.4270  136.8650 C   0  0  0  0  0  1  0  0  0  0  0  0
  184.7160  175.4750  135.6890 C   0  0  2  0  0  3  0  0  0  0  0  0
  188.5470  173.8700  136.2720 O   0  0  0  0  0  1  0  0  0  0  0  0
  186.7410  175.5370  134.4430 C   0  0  0  0  0  1  0  0  0  0  0  0
  188.1510  174.9080  137.1160 C   0  0  2  0  0  0  0  0  0  0  0  0
  186.8280  175.6050  136.8130 C   0  0  1  0  0  3  0  0  0  0  0  0
  188.9800  178.1110  137.4470 C   0  0  0  0  0  2  0  0  0  0  0  0
  183.7950  177.3820  134.5580 O   0  0  0  0  0  1  0  0  0  0  0  0
  186.1220  175.0370  135.6660 N   0  0  0  0  0  0  0  0  0  0  0  0
  189.2390  175.6380  137.9100 C   0  0  0  0  0  2  0  0  0  0  0  0
  184.8410  177.6530  138.1130 C   0  0  0  0  0  2  0  0  0  0  0  0
  186.9240  174.5590  137.9240 C   0  0  0  0  0  2  0  0  0  0  0  0
  186.7070  178.7140  137.0360 O   0  0  0  0  0  0  0  0  0  0  0  0
  187.9040  179.1740  137.5940 C   0  0  2  0  0  3  0  0  0  0  0  0
  184.5410  177.0170  135.6770 C   0  0  1  0  0  3  0  0  0  0  0  0
  188.7630  176.9950  138.4590 C   0  0  1  0  0  3  0  0  0  0  0  0
  183.8810  177.5930  136.9300 C   0  0  0  0  0  2  0  0  0  0  0  0
  189.3220  177.3470  139.7710 N   0  0  0  0  0  0  0  0  0  0  0  0
  190.4800  176.5170  140.0920 C   0  0  0  0  0  2  0  0  0  0  0  0
  190.3940  175.6130  142.4230 C   0  0  0  0  0  3  0  0  0  0  0  0
  191.2870  176.8760  144.2950 C   0  0  0  0  0  0  0  0  0  0  0  0
  191.4230  177.7710  142.0410 C   0  0  0  0  0  3  0  0  0  0  0  0
  191.6740  177.8930  143.4110 C   0  0  0  0  0  3  0  0  0  0  0  0
  190.6440  175.7360  143.7920 C   0  0  0  0  0  3  0  0  0  0  0  0
  190.7890  176.6270  141.5450 C   0  0  0  0  0  0  0  0  0  0  0  0
  191.5470  177.0010  145.7390 C   0  0  0  0  0  0  0  0  0  0  0  0
  191.1530  178.0160  146.3720 O   0  0  0  0  0  0  0  0  0  0  0  0
  192.2290  175.9980  146.4170 O   0  0  0  0  0  1  0  0  0  0  0  0
  188.3020  177.1170  140.7860 C   0  0  0  0  0  2  0  0  0  0  0  0
  188.3770  179.4370  141.1870 O   0  0  0  0  0  0  0  0  0  0  0  0
  187.7070  178.4180  141.2130 C   0  0  0  0  0  0  0  0  0  0  0  0
  186.2730  178.4750  141.6320 C   0  0  0  0  0  2  0  0  0  0  0  0
  186.1170  178.0550  143.0620 C   0  0  0  0  0  0  0  0  0  0  0  0
  187.2840  177.6780  143.8110 S   0  0  0  0  0  0  0  0  0  0  0  0
  184.5080  179.7150  143.6210 O   0  0  0  0  0  0  0  0  0  0  0  0
  183.7830  178.7990  142.8380 C   0  0  0  0  0  2  0  0  0  0  0  0
  184.8370  178.3540  143.7840 C   0  0  1  0  0  3  0  0  0  0  0  0
  184.0330  174.8660  136.7630 O   0  0  0  0  0  0  0  0  0  0  0  0
  181.5830  173.8780  135.0050 C   0  0  1  0  0  3  0  0  0  0  0  0
  183.4520  173.6450  136.3390 C   0  0  2  0  0  0  0  0  0  0  0  0
  183.7290  173.4220  134.9660 O   0  0  0  0  0  0  0  0  0  0  0  0
  181.6440  175.2100  134.5790 O   0  0  0  0  0  1  0  0  0  0  0  0
  182.5760  173.1440  134.3490 O   0  0  0  0  0  0  0  0  0  0  0  0
  181.9480  173.7380  136.4520 C   0  0  1  0  0  3  0  0  0  0  0  0
  180.3980  175.7270  136.9590 C   0  0  0  0  0  1  0  0  0  0  0  0
  181.8590  174.7740  138.7160 C   0  0  0  0  0  3  0  0  0  0  0  0
  181.3910  174.7280  137.4600 C   0  0  0  0  0  0  0  0  0  0  0  0
  180.4400  175.4560  140.5160 O   0  0  0  0  0  1  0  0  0  0  0  0
  181.4380  175.6990  139.7870 C   0  0  0  0  0  0  0  0  0  0  0  0
  182.1710  176.8570  140.0010 O   0  0  0  0  0  0  0  0  0  0  0  0
  183.9530  172.4730  137.1910 C   0  0  0  0  0  2  0  0  0  0  0  0
  183.0550  171.3780  137.1300 O   0  0  0  0  0  0  0  0  0  0  0  0
  183.4330  170.2130  136.5230 C   0  0  0  0  0  0  0  0  0  0  0  0
  183.7660  169.1860  135.9860 C   0  0  0  0  0  3  0  0  0  0  0  0
  1 12  1  0  0  0  0
  3 39  1  1  0  0  0
  5 10  1  0  0  0  0
  6  4  1  6  0  0  0
  6 11  1  0  0  0  0
  6 13  1  0  0  0  0
  7  6  1  0  0  0  0
  7 13  1  1  0  0  0
  8 15  1  0  0  0  0
  8 17  1  0  0  0  0
 10  3  1  0  0  0  0
 10  7  1  0  0  0  0
 11 17  1  0  0  0  0
 14 15  1  0  0  0  0
 14  1  1  0  0  0  0
 15  2  1  6  0  0  0
 16  9  1  6  0  0  0
 16  3  1  0  0  0  0
 16 18  1  0  0  0  0
 17 19  1  1  0  0  0
 18 12  1  0  0  0  0
 19 20  1  0  0  0  0
 19 30  1  0  0  0  0
 20 26  1  0  0  0  0
 21 25  1  0  0  0  0
 22 27  1  0  0  0  0
 23 24  2  0  0  0  0
 24 22  1  0  0  0  0
 25 22  2  0  0  0  0
 26 23  1  0  0  0  0
 26 21  2  0  0  0  0
 27 28  2  0  0  0  0
 27 29  1  0  0  0  0
 30 32  1  0  0  0  0
 31 32  2  0  0  0  0
 32 33  1  0  0  0  0
 33 34  1  0  0  0  0
 34 35  2  0  0  0  0
 36 38  1  0  0  0  0
 37 36  1  0  0  0  0
 37 38  1  0  0  0  0
 38 34  1  6  0  0  0
 40 43  1  6  0  0  0
 40 45  1  0  0  0  0
 41 45  1  0  0  0  0
 41 39  1  0  0  0  0
 41 52  1  1  0  0  0
 42 41  1  0  0  0  0
 44 42  1  0  0  0  0
 44 40  1  0  0  0  0
 45 48  1  1  0  0  0
 46 48  1  0  0  0  0
 47 50  1  0  0  0  0
 48 47  2  0  0  0  0
 50 51  2  0  0  0  0
 50 49  1  0  0  0  0
 53 52  1  0  0  0  0
 54 53  1  0  0  0  0
 55 54  3  0  0  0  0
M  END
>  <MODEL>
5

>  <REMARK>
 VINA RESULT:      -3.4      2.633      5.526
  Name = 
  16 active torsions:
  status: ('A' for Active; 'I' for Inactive)
    1  A    between atoms: C_6  and  O_8
    2  A    between atoms: C_6  and  C_46
    3  A    between atoms: C_7  and  O_8
    4  A    between atoms: C_10  and  C_32
    5  A    between atoms: C_11  and  C_29
    6  A    between atoms: C_12  and  O_14
    7  A    between atoms: O_14  and  C_46
    8  A    between atoms: C_27  and  C_31
    9  A    between atoms: C_27  and  C_55
   10  A    between atoms: C_28  and  C_44
   11  A    between atoms: C_28  and  N_49
   12  A    between atoms: C_31  and  C_44
   13  A    between atoms: C_33  and  N_49
   14  A    between atoms: C_33  and  C_52
   15  A    between atoms: C_38  and  C_53
   16  A    between atoms: C_45  and  N_49
                            x       y       z     vdW  Elec       q    Type
                         _______ _______ _______ _____ _____    ______ ____

>  <TORSDO>
F 16

$$$$
=
 OpenBabel10272401423D

 55 59  0  0  1  0  0  0  0  0999 V2000
  189.4980  174.8560  136.9800 C   0  0  0  0  0  2  0  0  0  0  0  0
  188.1860  177.7870  136.4870 C   0  0  0  0  0  1  0  0  0  0  0  0
  193.7370  174.9110  136.5740 C   0  0  2  0  0  3  0  0  0  0  0  0
  194.0190  177.8550  139.5480 O   0  0  0  0  0  1  0  0  0  0  0  0
  193.8530  177.2860  136.5430 C   0  0  0  0  0  1  0  0  0  0  0  0
  192.8130  177.1590  139.4460 C   0  0  2  0  0  0  0  0  0  0  0  0
  192.6440  176.2010  138.2710 C   0  0  1  0  0  3  0  0  0  0  0  0
  189.7490  177.9100  138.3960 C   0  0  0  0  0  2  0  0  0  0  0  0
  192.8470  174.7830  134.3480 O   0  0  0  0  0  1  0  0  0  0  0  0
  193.8260  176.1170  137.4150 N   0  0  0  0  0  0  0  0  0  0  0  0
  191.5820  177.7570  140.1330 C   0  0  0  0  0  2  0  0  0  0  0  0
  190.6960  173.9590  137.2630 C   0  0  0  0  0  2  0  0  0  0  0  0
  192.9850  175.6750  139.6660 C   0  0  0  0  0  2  0  0  0  0  0  0
  189.9120  176.1740  136.7660 O   0  0  0  0  0  0  0  0  0  0  0  0
  189.0000  176.9670  137.4690 C   0  0  2  0  0  3  0  0  0  0  0  0
  192.4660  174.8580  135.6860 C   0  0  1  0  0  3  0  0  0  0  0  0
  190.2630  177.1570  139.6150 C   0  0  1  0  0  3  0  0  0  0  0  0
  191.5150  173.7030  136.0040 C   0  0  0  0  0  2  0  0  0  0  0  0
  189.2180  177.0180  140.6370 N   0  0  0  0  0  0  0  0  0  0  0  0
  188.7360  178.3240  141.0810 C   0  0  0  0  0  2  0  0  0  0  0  0
  186.3850  178.6270  141.8770 C   0  0  0  0  0  3  0  0  0  0  0  0
  184.5150  178.5580  140.3290 C   0  0  0  0  0  0  0  0  0  0  0  0
  186.7880  178.2960  139.5130 C   0  0  0  0  0  3  0  0  0  0  0  0
  185.4130  178.3600  139.2690 C   0  0  0  0  0  3  0  0  0  0  0  0
  185.0100  178.6900  141.6330 C   0  0  0  0  0  3  0  0  0  0  0  0
  187.2750  178.4380  140.8160 C   0  0  0  0  0  0  0  0  0  0  0  0
  183.0660  178.6220  140.0780 C   0  0  0  0  0  0  0  0  0  0  0  0
  182.3340  177.6230  140.3050 O   0  0  0  0  0  1  0  0  0  0  0  0
  182.4910  179.7900  139.5890 O   0  0  0  0  0  0  0  0  0  0  0  0
  189.7830  176.3260  141.7890 C   0  0  0  0  0  2  0  0  0  0  0  0
  188.0120  176.1320  143.3300 O   0  0  0  0  0  0  0  0  0  0  0  0
  189.0420  176.7110  143.0270 C   0  0  0  0  0  0  0  0  0  0  0  0
  189.5910  177.7790  143.9170 C   0  0  0  0  0  2  0  0  0  0  0  0
  189.8290  177.2520  145.2990 C   0  0  0  0  0  0  0  0  0  0  0  0
  191.1740  176.9630  145.7160 S   0  0  0  0  0  0  0  0  0  0  0  0
  189.0640  176.5560  147.4410 O   0  0  0  0  0  0  0  0  0  0  0  0
  189.2520  177.9420  147.5880 C   0  0  0  0  0  2  0  0  0  0  0  0
  188.7400  177.3540  146.3260 C   0  0  1  0  0  3  0  0  0  0  0  0
  193.8880  173.7530  137.3660 O   0  0  0  0  0  0  0  0  0  0  0  0
  195.4930  171.0800  137.9570 C   0  0  1  0  0  3  0  0  0  0  0  0
  194.6090  172.7650  136.6500 C   0  0  2  0  0  0  0  0  0  0  0  0
  193.8560  171.5660  136.5780 O   0  0  0  0  0  0  0  0  0  0  0  0
  194.7900  171.1930  139.1630 O   0  0  0  0  0  1  0  0  0  0  0  0
  194.6380  170.5590  136.9800 O   0  0  0  0  0  0  0  0  0  0  0  0
  195.8730  172.4200  137.4040 C   0  0  1  0  0  3  0  0  0  0  0  0
  195.5090  174.0230  139.3840 C   0  0  0  0  0  1  0  0  0  0  0  0
  197.6600  173.9850  138.1570 C   0  0  0  0  0  3  0  0  0  0  0  0
  196.4300  173.4800  138.3390 C   0  0  0  0  0  0  0  0  0  0  0  0
  197.6900  175.6770  139.8460 O   0  0  0  0  0  1  0  0  0  0  0  0
  198.3150  175.0340  138.9610 C   0  0  0  0  0  0  0  0  0  0  0  0
  199.6580  175.3080  138.7430 O   0  0  0  0  0  0  0  0  0  0  0  0
  194.9770  173.2620  135.2470 C   0  0  0  0  0  2  0  0  0  0  0  0
  195.9630  172.4320  134.6550 O   0  0  0  0  0  0  0  0  0  0  0  0
  197.2380  172.8930  134.4910 C   0  0  0  0  0  0  0  0  0  0  0  0
  198.3650  173.2980  134.3470 C   0  0  0  0  0  3  0  0  0  0  0  0
  1 12  1  0  0  0  0
  3 39  1  1  0  0  0
  3 10  1  0  0  0  0
  5 10  1  0  0  0  0
  6  4  1  1  0  0  0
  6 13  1  0  0  0  0
  6 11  1  0  0  0  0
  7  6  1  0  0  0  0
  7 13  1  1  0  0  0
  8 17  1  0  0  0  0
 10  7  1  0  0  0  0
 14  1  1  0  0  0  0
 14 15  1  0  0  0  0
 15  2  1  6  0  0  0
 15  8  1  0  0  0  0
 16  9  1  6  0  0  0
 16 18  1  0  0  0  0
 16  3  1  0  0  0  0
 17 11  1  0  0  0  0
 17 19  1  1  0  0  0
 18 12  1  0  0  0  0
 19 20  1  0  0  0  0
 19 30  1  0  0  0  0
 22 25  2  0  0  0  0
 23 26  1  0  0  0  0
 24 23  2  0  0  0  0
 24 22  1  0  0  0  0
 25 21  1  0  0  0  0
 26 20  1  0  0  0  0
 26 21  2  0  0  0  0
 27 28  1  0  0  0  0
 27 22  1  0  0  0  0
 29 27  2  0  0  0  0
 30 32  1  0  0  0  0
 32 31  2  0  0  0  0
 32 33  1  0  0  0  0
 33 34  1  0  0  0  0
 34 35  2  0  0  0  0
 36 37  1  0  0  0  0
 38 34  1  6  0  0  0
 38 36  1  0  0  0  0
 38 37  1  0  0  0  0
 40 43  1  1  0  0  0
 41 52  1  6  0  0  0
 41 39  1  0  0  0  0
 41 45  1  0  0  0  0
 42 41  1  0  0  0  0
 42 44  1  0  0  0  0
 44 40  1  0  0  0  0
 45 40  1  0  0  0  0
 45 48  1  1  0  0  0
 47 48  2  0  0  0  0
 47 50  1  0  0  0  0
 48 46  1  0  0  0  0
 50 49  1  0  0  0  0
 51 50  2  0  0  0  0
 53 52  1  0  0  0  0
 54 53  1  0  0  0  0
 55 54  3  0  0  0  0
M  END
>  <MODEL>
6

>  <REMARK>
 VINA RESULT:      -2.9      3.871      7.791
  Name = 
  16 active torsions:
  status: ('A' for Active; 'I' for Inactive)
    1  A    between atoms: C_6  and  O_8
    2  A    between atoms: C_6  and  C_46
    3  A    between atoms: C_7  and  O_8
    4  A    between atoms: C_10  and  C_32
    5  A    between atoms: C_11  and  C_29
    6  A    between atoms: C_12  and  O_14
    7  A    between atoms: O_14  and  C_46
    8  A    between atoms: C_27  and  C_31
    9  A    between atoms: C_27  and  C_55
   10  A    between atoms: C_28  and  C_44
   11  A    between atoms: C_28  and  N_49
   12  A    between atoms: C_31  and  C_44
   13  A    between atoms: C_33  and  N_49
   14  A    between atoms: C_33  and  C_52
   15  A    between atoms: C_38  and  C_53
   16  A    between atoms: C_45  and  N_49
                            x       y       z     vdW  Elec       q    Type
                         _______ _______ _______ _____ _____    ______ ____

>  <TORSDO>
F 16

$$$$
=
 OpenBabel10272401423D

 55 59  0  0  1  0  0  0  0  0999 V2000
  187.4980  178.0380  138.2740 C   0  0  0  0  0  2  0  0  0  0  0  0
  188.5710  178.7840  135.3000 C   0  0  0  0  0  1  0  0  0  0  0  0
  183.2710  178.4470  138.6000 C   0  0  2  0  0  3  0  0  0  0  0  0
  182.7310  175.7380  135.4430 O   0  0  0  0  0  1  0  0  0  0  0  0
  182.9630  178.6830  136.2540 C   0  0  0  0  0  1  0  0  0  0  0  0
  183.9900  175.7800  136.0450 C   0  0  2  0  0  0  0  0  0  0  0  0
  184.2450  176.8680  137.0830 C   0  0  1  0  0  3  0  0  0  0  0  0
  186.9900  176.8920  135.1400 C   0  0  0  0  0  2  0  0  0  0  0  0
  184.1840  180.6540  138.8470 O   0  0  0  0  0  1  0  0  0  0  0  0
  183.0790  177.7140  137.3370 N   0  0  0  0  0  0  0  0  0  0  0  0
  185.1640  175.1470  135.2910 C   0  0  0  0  0  2  0  0  0  0  0  0
  186.3750  177.6790  139.2370 C   0  0  0  0  0  2  0  0  0  0  0  0
  183.9380  175.4330  137.5140 C   0  0  0  0  0  2  0  0  0  0  0  0
  186.9800  178.3660  137.0170 O   0  0  0  0  0  0  0  0  0  0  0  0
  187.8190  177.7340  136.0950 C   0  0  2  0  0  3  0  0  0  0  0  0
  184.5480  179.3270  138.6250 C   0  0  1  0  0  3  0  0  0  0  0  0
  186.5300  175.6120  135.8250 C   0  0  1  0  0  3  0  0  0  0  0  0
  185.5880  178.9110  139.6670 C   0  0  0  0  0  2  0  0  0  0  0  0
  187.5770  174.5820  135.7890 N   0  0  0  0  0  0  0  0  0  0  0  0
  188.6080  174.9100  134.8080 C   0  0  0  0  0  2  0  0  0  0  0  0
  190.0520  174.7000  136.8390 C   0  0  0  0  0  3  0  0  0  0  0  0
  192.4670  174.9120  136.6910 C   0  0  0  0  0  0  0  0  0  0  0  0
  191.1000  175.0850  134.6900 C   0  0  0  0  0  3  0  0  0  0  0  0
  192.3550  175.0990  135.3060 C   0  0  0  0  0  3  0  0  0  0  0  0
  191.3070  174.7150  137.4530 C   0  0  0  0  0  3  0  0  0  0  0  0
  189.9480  174.8780  135.4560 C   0  0  0  0  0  0  0  0  0  0  0  0
  193.7860  174.9290  137.3440 C   0  0  0  0  0  0  0  0  0  0  0  0
  194.5640  175.9070  137.1850 O   0  0  0  0  0  0  0  0  0  0  0  0
  194.1850  173.8640  138.1440 O   0  0  0  0  0  1  0  0  0  0  0  0
  186.9680  173.3150  135.4030 C   0  0  0  0  0  2  0  0  0  0  0  0
  187.6020  172.1410  137.3440 O   0  0  0  0  0  0  0  0  0  0  0  0
  186.6880  172.4950  136.6180 C   0  0  0  0  0  0  0  0  0  0  0  0
  185.2760  172.1460  136.9680 C   0  0  0  0  0  2  0  0  0  0  0  0
  184.7060  171.1760  135.9780 C   0  0  0  0  0  0  0  0  0  0  0  0
  185.5910  170.5100  135.0610 S   0  0  0  0  0  0  0  0  0  0  0  0
  182.6380  171.4530  137.1190 O   0  0  0  0  0  0  0  0  0  0  0  0
  182.3070  171.6710  135.7700 C   0  0  0  0  0  2  0  0  0  0  0  0
  183.3120  170.6570  136.1710 C   0  0  1  0  0  3  0  0  0  0  0  0
  183.2100  177.5580  139.6940 O   0  0  0  0  0  0  0  0  0  0  0  0
  180.4240  178.8860  140.4340 C   0  0  1  0  0  3  0  0  0  0  0  0
  181.8690  177.1600  139.9220 C   0  0  2  0  0  0  0  0  0  0  0  0
  181.0540  177.5350  138.8240 O   0  0  0  0  0  0  0  0  0  0  0  0
  181.1200  180.0320  140.0290 O   0  0  0  0  0  1  0  0  0  0  0  0
  179.9920  178.1930  139.2990 O   0  0  0  0  0  0  0  0  0  0  0  0
  181.3210  177.9010  141.1200 C   0  0  1  0  0  3  0  0  0  0  0  0
  181.8380  179.3730  143.1660 C   0  0  0  0  0  1  0  0  0  0  0  0
  183.6240  178.0640  142.0590 C   0  0  0  0  0  3  0  0  0  0  0  0
  182.3280  178.3980  142.1440 C   0  0  0  0  0  0  0  0  0  0  0  0
  185.2160  179.6470  142.8810 O   0  0  0  0  0  0  0  0  0  0  0  0
  184.7120  178.4950  142.9570 C   0  0  0  0  0  0  0  0  0  0  0  0
  185.1810  177.6100  143.9190 O   0  0  0  0  0  1  0  0  0  0  0  0
  181.7790  175.6510  140.1760 C   0  0  0  0  0  2  0  0  0  0  0  0
  180.4840  175.1590  139.8700 O   0  0  0  0  0  0  0  0  0  0  0  0
  180.2180  174.6540  138.6290 C   0  0  0  0  0  0  0  0  0  0  0  0
  179.9820  174.2060  137.5340 C   0  0  0  0  0  3  0  0  0  0  0  0
  1 12  1  0  0  0  0
  3 16  1  0  0  0  0
  3 39  1  1  0  0  0
  5 10  1  0  0  0  0
  6  4  1  6  0  0  0
  6  7  1  0  0  0  0
  6 13  1  0  0  0  0
  7 10  1  0  0  0  0
  7 13  1  1  0  0  0
  8 17  1  0  0  0  0
  8 15  1  0  0  0  0
 10  3  1  0  0  0  0
 11 17  1  0  0  0  0
 11  6  1  0  0  0  0
 12 18  1  0  0  0  0
 14  1  1  0  0  0  0
 15  2  1  6  0  0  0
 15 14  1  0  0  0  0
 16  9  1  1  0  0  0
 16 18  1  0  0  0  0
 17 19  1  6  0  0  0
 20 26  1  0  0  0  0
 20 19  1  0  0  0  0
 21 25  1  0  0  0  0
 22 27  1  0  0  0  0
 22 25  2  0  0  0  0
 23 24  2  0  0  0  0
 23 26  1  0  0  0  0
 24 22  1  0  0  0  0
 26 21  2  0  0  0  0
 27 29  1  0  0  0  0
 28 27  2  0  0  0  0
 30 19  1  0  0  0  0
 30 32  1  0  0  0  0
 32 33  1  0  0  0  0
 32 31  2  0  0  0  0
 34 33  1  0  0  0  0
 35 34  2  0  0  0  0
 37 38  1  0  0  0  0
 37 36  1  0  0  0  0
 38 34  1  6  0  0  0
 38 36  1  0  0  0  0
 39 41  1  0  0  0  0
 40 43  1  6  0  0  0
 40 45  1  0  0  0  0
 41 52  1  1  0  0  0
 41 45  1  0  0  0  0
 42 44  1  0  0  0  0
 42 41  1  0  0  0  0
 44 40  1  0  0  0  0
 45 48  1  6  0  0  0
 47 48  2  0  0  0  0
 47 50  1  0  0  0  0
 48 46  1  0  0  0  0
 49 50  2  0  0  0  0
 50 51  1  0  0  0  0
 53 52  1  0  0  0  0
 54 53  1  0  0  0  0
 55 54  3  0  0  0  0
M  END
>  <MODEL>
7

>  <REMARK>
 VINA RESULT:      -2.9      3.346      8.927
  Name = 
  16 active torsions:
  status: ('A' for Active; 'I' for Inactive)
    1  A    between atoms: C_6  and  O_8
    2  A    between atoms: C_6  and  C_46
    3  A    between atoms: C_7  and  O_8
    4  A    between atoms: C_10  and  C_32
    5  A    between atoms: C_11  and  C_29
    6  A    between atoms: C_12  and  O_14
    7  A    between atoms: O_14  and  C_46
    8  A    between atoms: C_27  and  C_31
    9  A    between atoms: C_27  and  C_55
   10  A    between atoms: C_28  and  C_44
   11  A    between atoms: C_28  and  N_49
   12  A    between atoms: C_31  and  C_44
   13  A    between atoms: C_33  and  N_49
   14  A    between atoms: C_33  and  C_52
   15  A    between atoms: C_38  and  C_53
   16  A    between atoms: C_45  and  N_49
                            x       y       z     vdW  Elec       q    Type
                         _______ _______ _______ _____ _____    ______ ____

>  <TORSDO>
F 16

$$$$
=
 OpenBabel10272401423D

 55 59  0  0  1  0  0  0  0  0999 V2000
  189.5120  175.1500  137.1250 C   0  0  0  0  0  2  0  0  0  0  0  0
  188.3970  178.1690  136.6840 C   0  0  0  0  0  1  0  0  0  0  0  0
  193.7220  174.8950  136.5300 C   0  0  2  0  0  3  0  0  0  0  0  0
  194.3500  177.8080  139.4820 O   0  0  0  0  0  1  0  0  0  0  0  0
  194.0090  177.2550  136.4880 C   0  0  0  0  0  1  0  0  0  0  0  0
  193.0930  177.2020  139.4350 C   0  0  2  0  0  0  0  0  0  0  0  0
  192.8020  176.2600  138.2710 C   0  0  1  0  0  3  0  0  0  0  0  0
  190.0480  178.1760  138.5210 C   0  0  0  0  0  2  0  0  0  0  0  0
  192.7260  174.8340  134.3460 O   0  0  0  0  0  1  0  0  0  0  0  0
  193.9350  176.0910  137.3630 N   0  0  0  0  0  0  0  0  0  0  0  0
  191.9410  177.8880  140.1750 C   0  0  0  0  0  2  0  0  0  0  0  0
  190.6520  174.1680  137.3560 C   0  0  0  0  0  2  0  0  0  0  0  0
  193.1660  175.7090  139.6500 C   0  0  0  0  0  2  0  0  0  0  0  0
  190.0110  176.4340  136.8890 O   0  0  0  0  0  0  0  0  0  0  0  0
  189.1920  177.2910  137.6310 C   0  0  2  0  0  3  0  0  0  0  0  0
  192.4120  174.9360  135.7000 C   0  0  1  0  0  3  0  0  0  0  0  0
  190.5600  177.3860  139.7180 C   0  0  1  0  0  3  0  0  0  0  0  0
  191.3940  173.8540  136.0620 C   0  0  0  0  0  2  0  0  0  0  0  0
  189.5540  177.3220  140.7860 N   0  0  0  0  0  0  0  0  0  0  0  0
  189.6470  176.0660  141.5260 C   0  0  0  0  0  2  0  0  0  0  0  0
  188.8350  176.9260  143.7300 C   0  0  0  0  0  3  0  0  0  0  0  0
  190.2890  176.9710  145.6750 C   0  0  0  0  0  0  0  0  0  0  0  0
  191.1020  176.0930  143.5600 C   0  0  0  0  0  3  0  0  0  0  0  0
  191.3150  176.3990  144.9080 C   0  0  0  0  0  3  0  0  0  0  0  0
  189.0490  177.2330  145.0760 C   0  0  0  0  0  3  0  0  0  0  0  0
  189.8590  176.3500  142.9720 C   0  0  0  0  0  0  0  0  0  0  0  0
  190.5100  177.2970  147.0930 C   0  0  0  0  0  0  0  0  0  0  0  0
  189.5380  177.5870  147.8400 O   0  0  0  0  0  1  0  0  0  0  0  0
  191.7960  177.2880  147.6210 O   0  0  0  0  0  0  0  0  0  0  0  0
  188.2300  177.3960  140.1810 C   0  0  0  0  0  2  0  0  0  0  0  0
  187.9780  179.5430  141.1180 O   0  0  0  0  0  0  0  0  0  0  0  0
  187.4390  178.4900  140.8200 C   0  0  0  0  0  0  0  0  0  0  0  0
  185.9740  178.3050  141.0540 C   0  0  0  0  0  2  0  0  0  0  0  0
  185.1830  178.7590  139.8650 C   0  0  0  0  0  0  0  0  0  0  0  0
  185.6150  178.3740  138.5490 S   0  0  0  0  0  0  0  0  0  0  0  0
  183.6090  180.4300  139.2440 O   0  0  0  0  0  0  0  0  0  0  0  0
  183.0170  179.2340  138.8020 C   0  0  0  0  0  2  0  0  0  0  0  0
  183.7970  179.2980  140.0620 C   0  0  1  0  0  3  0  0  0  0  0  0
  193.8230  173.7290  137.3160 O   0  0  0  0  0  0  0  0  0  0  0  0
  195.4130  171.0680  137.9990 C   0  0  1  0  0  3  0  0  0  0  0  0
  194.6070  172.7570  136.6470 C   0  0  2  0  0  0  0  0  0  0  0  0
  193.8770  171.5490  136.5080 O   0  0  0  0  0  0  0  0  0  0  0  0
  194.6220  171.1610  139.1510 O   0  0  0  0  0  1  0  0  0  0  0  0
  194.6390  170.5480  136.9570 O   0  0  0  0  0  0  0  0  0  0  0  0
  195.8160  172.4190  137.4890 C   0  0  1  0  0  3  0  0  0  0  0  0
  195.2670  174.0610  139.3920 C   0  0  0  0  0  1  0  0  0  0  0  0
  197.5470  173.9420  138.4350 C   0  0  0  0  0  3  0  0  0  0  0  0
  196.2900  173.4750  138.4720 C   0  0  0  0  0  0  0  0  0  0  0  0
  198.4400  176.1200  138.8530 O   0  0  0  0  0  0  0  0  0  0  0  0
  198.1330  174.9830  139.3000 C   0  0  0  0  0  0  0  0  0  0  0  0
  198.3390  174.7030  140.6440 O   0  0  0  0  0  1  0  0  0  0  0  0
  195.0710  173.2720  135.2790 C   0  0  0  0  0  2  0  0  0  0  0  0
  196.4810  173.4110  135.2390 O   0  0  0  0  0  0  0  0  0  0  0  0
  197.0450  174.6490  135.1100 C   0  0  0  0  0  0  0  0  0  0  0  0
  197.5440  175.7410  134.9950 C   0  0  0  0  0  3  0  0  0  0  0  0
  1 12  1  0  0  0  0
  3 39  1  1  0  0  0
  3 10  1  0  0  0  0
  5 10  1  0  0  0  0
  6  4  1  6  0  0  0
  6 13  1  0  0  0  0
  6 11  1  0  0  0  0
  7  6  1  0  0  0  0
  7 13  1  1  0  0  0
  8 17  1  0  0  0  0
 10  7  1  0  0  0  0
 14  1  1  0  0  0  0
 14 15  1  0  0  0  0
 15  2  1  6  0  0  0
 15  8  1  0  0  0  0
 16  9  1  6  0  0  0
 16 18  1  0  0  0  0
 16  3  1  0  0  0  0
 17 11  1  0  0  0  0
 17 19  1  1  0  0  0
 18 12  1  0  0  0  0
 19 20  1  0  0  0  0
 20 26  1  0  0  0  0
 21 25  1  0  0  0  0
 22 27  1  0  0  0  0
 23 24  2  0  0  0  0
 24 22  1  0  0  0  0
 25 22  2  0  0  0  0
 26 23  1  0  0  0  0
 26 21  2  0  0  0  0
 27 29  2  0  0  0  0
 27 28  1  0  0  0  0
 30 19  1  0  0  0  0
 30 32  1  0  0  0  0
 32 33  1  0  0  0  0
 32 31  2  0  0  0  0
 34 33  1  0  0  0  0
 35 34  2  0  0  0  0
 36 38  1  0  0  0  0
 37 36  1  0  0  0  0
 37 38  1  0  0  0  0
 38 34  1  6  0  0  0
 40 43  1  1  0  0  0
 41 52  1  6  0  0  0
 41 39  1  0  0  0  0
 41 45  1  0  0  0  0
 42 41  1  0  0  0  0
 42 44  1  0  0  0  0
 44 40  1  0  0  0  0
 45 40  1  0  0  0  0
 45 48  1  1  0  0  0
 47 48  2  0  0  0  0
 47 50  1  0  0  0  0
 48 46  1  0  0  0  0
 49 50  2  0  0  0  0
 50 51  1  0  0  0  0
 53 52  1  0  0  0  0
 54 53  1  0  0  0  0
 55 54  3  0  0  0  0
M  END
>  <MODEL>
8

>  <REMARK>
 VINA RESULT:      -2.3      3.613      6.504
  Name = 
  16 active torsions:
  status: ('A' for Active; 'I' for Inactive)
    1  A    between atoms: C_6  and  O_8
    2  A    between atoms: C_6  and  C_46
    3  A    between atoms: C_7  and  O_8
    4  A    between atoms: C_10  and  C_32
    5  A    between atoms: C_11  and  C_29
    6  A    between atoms: C_12  and  O_14
    7  A    between atoms: O_14  and  C_46
    8  A    between atoms: C_27  and  C_31
    9  A    between atoms: C_27  and  C_55
   10  A    between atoms: C_28  and  C_44
   11  A    between atoms: C_28  and  N_49
   12  A    between atoms: C_31  and  C_44
   13  A    between atoms: C_33  and  N_49
   14  A    between atoms: C_33  and  C_52
   15  A    between atoms: C_38  and  C_53
   16  A    between atoms: C_45  and  N_49
                            x       y       z     vdW  Elec       q    Type
                         _______ _______ _______ _____ _____    ______ ____

>  <TORSDO>
F 16

$$$$
=
 OpenBabel10272401423D

 55 59  0  0  1  0  0  0  0  0999 V2000
  183.4180  177.9870  142.5480 C   0  0  0  0  0  2  0  0  0  0  0  0
  184.8170  180.5080  144.0410 C   0  0  0  0  0  1  0  0  0  0  0  0
  182.8130  178.7200  138.3950 C   0  0  2  0  0  3  0  0  0  0  0  0
  186.9150  179.4350  137.8890 O   0  0  0  0  0  1  0  0  0  0  0  0
  184.1610  180.6790  138.3930 C   0  0  0  0  0  1  0  0  0  0  0  0
  186.5150  178.7990  139.0660 C   0  0  2  0  0  0  0  0  0  0  0  0
  185.0180  178.6760  139.3330 C   0  0  1  0  0  3  0  0  0  0  0  0
  186.3230  179.6820  142.2660 C   0  0  0  0  0  2  0  0  0  0  0  0
  181.0000  179.7960  139.5420 O   0  0  0  0  0  1  0  0  0  0  0  0
  184.1900  179.2270  138.2610 N   0  0  0  0  0  0  0  0  0  0  0  0
  187.5090  178.7580  140.2300 C   0  0  0  0  0  2  0  0  0  0  0  0
  183.0380  177.2250  141.2850 C   0  0  0  0  0  2  0  0  0  0  0  0
  185.8170  177.4860  138.8010 C   0  0  0  0  0  2  0  0  0  0  0  0
  183.9810  179.2240  142.2230 O   0  0  0  0  0  0  0  0  0  0  0  0
  185.0770  179.3660  143.0780 C   0  0  2  0  0  3  0  0  0  0  0  0
  182.1550  179.0490  139.7610 C   0  0  1  0  0  3  0  0  0  0  0  0
  186.8350  178.4260  141.5730 C   0  0  1  0  0  3  0  0  0  0  0  0
  181.8100  177.8270  140.6130 C   0  0  0  0  0  2  0  0  0  0  0  0
  187.6580  177.6140  142.4800 N   0  0  0  0  0  0  0  0  0  0  0  0
  188.2050  176.4470  141.7940 C   0  0  0  0  0  2  0  0  0  0  0  0
  189.8990  176.6810  139.9680 C   0  0  0  0  0  3  0  0  0  0  0  0
  192.2190  177.1980  140.4640 C   0  0  0  0  0  0  0  0  0  0  0  0
  190.5960  177.0150  142.2620 C   0  0  0  0  0  3  0  0  0  0  0  0
  191.9050  177.2470  141.8300 C   0  0  0  0  0  3  0  0  0  0  0  0
  191.2070  176.9120  139.5370 C   0  0  0  0  0  3  0  0  0  0  0  0
  189.5900  176.7390  141.3300 C   0  0  0  0  0  0  0  0  0  0  0  0
  193.5970  177.4380  140.0050 C   0  0  0  0  0  0  0  0  0  0  0  0
  193.8690  178.4500  139.3060 O   0  0  0  0  0  0  0  0  0  0  0  0
  194.6120  176.5490  140.3400 O   0  0  0  0  0  1  0  0  0  0  0  0
  186.8180  177.1450  143.5750 C   0  0  0  0  0  2  0  0  0  0  0  0
  188.5480  178.0220  144.9120 O   0  0  0  0  0  0  0  0  0  0  0  0
  187.4720  177.4480  144.8820 C   0  0  0  0  0  0  0  0  0  0  0  0
  186.7820  177.0840  146.1580 C   0  0  0  0  0  2  0  0  0  0  0  0
  187.1150  178.0630  147.2430 C   0  0  0  0  0  0  0  0  0  0  0  0
  186.3550  179.2790  147.3460 S   0  0  0  0  0  0  0  0  0  0  0  0
  188.9580  176.7260  147.9310 O   0  0  0  0  0  0  0  0  0  0  0  0
  189.3870  178.0410  148.1840 C   0  0  0  0  0  2  0  0  0  0  0  0
  187.9770  177.6280  148.3900 C   0  0  1  0  0  3  0  0  0  0  0  0
  182.7700  177.3410  138.0970 O   0  0  0  0  0  0  0  0  0  0  0  0
  181.0790  174.9330  136.9090 C   0  0  1  0  0  3  0  0  0  0  0  0
  181.8600  177.1010  137.0380 C   0  0  2  0  0  0  0  0  0  0  0  0
  180.5430  176.9630  137.5460 O   0  0  0  0  0  0  0  0  0  0  0  0
  181.3880  174.3950  138.1640 O   0  0  0  0  0  1  0  0  0  0  0  0
  180.0220  175.8370  137.0490 O   0  0  0  0  0  0  0  0  0  0  0  0
  182.1930  175.7830  136.3770 C   0  0  1  0  0  3  0  0  0  0  0  0
  183.9660  174.4610  137.6910 C   0  0  0  0  0  1  0  0  0  0  0  0
  184.5680  175.6900  135.6270 C   0  0  0  0  0  3  0  0  0  0  0  0
  183.6260  175.2940  136.4970 C   0  0  0  0  0  0  0  0  0  0  0  0
  186.9020  176.1930  135.7540 O   0  0  0  0  0  1  0  0  0  0  0  0
  185.9970  175.3240  135.6390 C   0  0  0  0  0  0  0  0  0  0  0  0
  186.3480  173.9860  135.5330 O   0  0  0  0  0  0  0  0  0  0  0  0
  181.9250  178.2220  135.9940 C   0  0  0  0  0  2  0  0  0  0  0  0
  180.6460  178.8010  135.7880 O   0  0  0  0  0  0  0  0  0  0  0  0
  180.4350  180.1190  136.0770 C   0  0  0  0  0  0  0  0  0  0  0  0
  180.2510  181.2840  136.3330 C   0  0  0  0  0  3  0  0  0  0  0  0
  3 39  1  1  0  0  0
  3 16  1  0  0  0  0
  6  4  1  6  0  0  0
  6  7  1  0  0  0  0
  6 11  1  0  0  0  0
  7 13  1  6  0  0  0
  8 15  1  0  0  0  0
 10  5  1  0  0  0  0
 10  3  1  0  0  0  0
 10  7  1  0  0  0  0
 11 17  1  0  0  0  0
 12  1  1  0  0  0  0
 13  6  1  0  0  0  0
 14  1  1  0  0  0  0
 14 15  1  0  0  0  0
 15  2  1  1  0  0  0
 16  9  1  6  0  0  0
 16 18  1  0  0  0  0
 17  8  1  0  0  0  0
 17 19  1  1  0  0  0
 18 12  1  0  0  0  0
 19 30  1  0  0  0  0
 20 19  1  0  0  0  0
 21 26  1  0  0  0  0
 22 24  2  0  0  0  0
 24 23  1  0  0  0  0
 25 21  2  0  0  0  0
 25 22  1  0  0  0  0
 26 20  1  0  0  0  0
 26 23  2  0  0  0  0
 27 29  1  0  0  0  0
 27 22  1  0  0  0  0
 28 27  2  0  0  0  0
 30 32  1  0  0  0  0
 32 31  2  0  0  0  0
 32 33  1  0  0  0  0
 33 34  1  0  0  0  0
 34 35  2  0  0  0  0
 36 37  1  0  0  0  0
 36 38  1  0  0  0  0
 37 38  1  0  0  0  0
 38 34  1  6  0  0  0
 40 44  1  0  0  0  0
 40 43  1  1  0  0  0
 41 52  1  6  0  0  0
 41 42  1  0  0  0  0
 41 39  1  0  0  0  0
 44 42  1  0  0  0  0
 45 48  1  1  0  0  0
 45 40  1  0  0  0  0
 45 41  1  0  0  0  0
 47 50  1  0  0  0  0
 47 48  2  0  0  0  0
 48 46  1  0  0  0  0
 50 49  1  0  0  0  0
 51 50  2  0  0  0  0
 53 52  1  0  0  0  0
 53 54  1  0  0  0  0
 54 55  3  0  0  0  0
M  END
>  <MODEL>
9

>  <REMARK>
 VINA RESULT:      -2.1      2.740      6.714
  Name = 
  16 active torsions:
  status: ('A' for Active; 'I' for Inactive)
    1  A    between atoms: C_6  and  O_8
    2  A    between atoms: C_6  and  C_46
    3  A    between atoms: C_7  and  O_8
    4  A    between atoms: C_10  and  C_32
    5  A    between atoms: C_11  and  C_29
    6  A    between atoms: C_12  and  O_14
    7  A    between atoms: O_14  and  C_46
    8  A    between atoms: C_27  and  C_31
    9  A    between atoms: C_27  and  C_55
   10  A    between atoms: C_28  and  C_44
   11  A    between atoms: C_28  and  N_49
   12  A    between atoms: C_31  and  C_44
   13  A    between atoms: C_33  and  N_49
   14  A    between atoms: C_33  and  C_52
   15  A    between atoms: C_38  and  C_53
   16  A    between atoms: C_45  and  N_49
                            x       y       z     vdW  Elec       q    Type
                         _______ _______ _______ _____ _____    ______ ____

>  <TORSDO>
F 16

$$$$
