=
 OpenBabel10272414503D

 37 40  0  0  1  0  0  0  0  0999 V2000
  184.6840  174.7680  134.8700 C   0  0  2  0  0  3  0  0  0  0  0  0
  188.4400  173.8270  135.3680 C   0  0  0  0  0  0  0  0  0  0  0  0
  188.1200  176.6070  137.8610 C   0  0  0  0  0  2  0  0  0  0  0  0
  184.1340  174.6070  136.2180 N   0  0  0  0  0  0  0  0  0  0  0  0
  182.3220  178.5640  136.4730 C   0  0  0  0  0  2  0  0  0  0  0  0
  188.8110  176.1240  134.7500 C   0  0  0  0  0  2  0  0  0  0  0  0
  180.0950  178.3450  135.4190 C   0  0  0  0  0  1  0  0  0  0  0  0
  180.4090  174.6870  135.5390 C   0  0  0  0  0  1  0  0  0  0  0  0
  188.8910  175.5090  137.1100 C   0  0  0  0  0  2  0  0  0  0  0  0
  183.9600  177.9360  138.1250 C   0  0  0  0  0  0  0  0  0  0  0  0
  189.1330  177.5460  135.2400 C   0  0  0  0  0  2  0  0  0  0  0  0
  182.7450  174.8970  136.4550 C   0  0  0  0  0  0  0  0  0  0  0  0
  186.4160  173.0980  135.1590 O   0  0  0  0  0  0  0  0  0  0  0  0
  189.0730  172.8030  136.2990 C   0  0  0  0  0  2  0  0  0  0  0  0
  186.3200  178.3630  137.7760 C   0  0  0  0  0  2  0  0  0  0  0  0
  187.9510  178.2650  135.8950 C   0  0  0  0  0  2  0  0  0  0  0  0
  187.5010  173.3400  134.4490 O   0  0  0  0  0  0  0  0  0  0  0  0
  181.8230  175.1990  135.3070 C   0  0  2  0  0  3  0  0  0  0  0  0
  181.2660  177.5800  135.9980 C   0  0  1  0  0  3  0  0  0  0  0  0
  187.2020  177.4430  136.9530 C   0  0  1  0  0  3  0  0  0  0  0  0
  185.3490  173.4950  134.3460 C   0  0  0  0  0  2  0  0  0  0  0  0
  188.2830  175.2320  135.7990 N   0  0  2  0  0  0  0  0  0  0  0  0
  182.7200  178.2810  137.8890 C   0  0  0  0  0  0  0  0  0  0  0  0
  189.8600  173.3570  135.1140 C   0  0  0  0  0  2  0  0  0  0  0  0
  181.8500  176.6770  134.9200 C   0  0  0  0  0  2  0  0  0  0  0  0
  182.3070  174.9570  137.6380 O   0  0  0  0  0  0  0  0  0  0  0  0
  185.5630  175.8500  134.8250 O   0  0  0  0  0  1  0  0  0  0  0  0
  185.1930  177.5960  138.3760 C   0  0  0  0  0  3  0  0  0  0  0  0
  181.3960  177.4660  139.8540 C   0  0  0  0  0  3  0  0  0  0  0  0
  181.7890  178.5210  139.0170 C   0  0  0  0  0  0  0  0  0  0  0  0
  181.2980  179.7720  139.2510 N   0  0  0  0  0  0  0  0  0  0  0  0
  179.9820  181.2920  140.4670 F   0  0  0  0  0  0  0  0  0  0  0  0
  180.0370  179.0040  141.1270 C   0  0  0  0  0  3  0  0  0  0  0  0
  180.4410  180.0330  140.2750 C   0  0  0  0  0  0  0  0  0  0  0  0
  180.5190  177.7120  140.9120 C   0  0  0  0  0  3  0  0  0  0  0  0
  184.8940  172.9860  137.8820 C   0  0  0  0  0  1  0  0  0  0  0  0
  185.0360  174.4010  137.3490 C   0  0  0  0  0  2  0  0  0  0  0  0
  1 27  1  1  0  0  0
  1  4  1  0  0  0  0
  2 22  1  0  0  0  0
  2 14  1  0  0  0  0
  4 12  1  0  0  0  0
  4 37  1  0  0  0  0
  5 23  1  0  0  0  0
  6 11  1  0  0  0  0
  9  3  1  0  0  0  0
 10 28  2  0  0  0  0
 11 16  1  0  0  0  0
 12 26  2  0  0  0  0
 15 28  1  0  0  0  0
 17 13  1  0  0  0  0
 17  2  1  0  0  0  0
 18  8  1  1  0  0  0
 18 12  1  0  0  0  0
 19  7  1  6  0  0  0
 19  5  1  0  0  0  0
 20 16  1  6  0  0  0
 20 15  1  0  0  0  0
 20  3  1  0  0  0  0
 21  1  1  0  0  0  0
 21 13  1  0  0  0  0
 22  6  1  6  0  0  0
 22  9  1  0  0  0  0
 23 10  2  0  0  0  0
 23 30  1  0  0  0  0
 24  2  1  0  0  0  0
 24 14  1  0  0  0  0
 25 18  1  0  0  0  0
 25 19  1  0  0  0  0
 29 35  1  0  0  0  0
 30 31  1  0  0  0  0
 30 29  2  0  0  0  0
 31 34  2  0  0  0  0
 34 32  1  0  0  0  0
 34 33  1  0  0  0  0
 35 33  2  0  0  0  0
 37 36  1  0  0  0  0
M  END
>  <MODEL>
1

>  <REMARK>
 VINA RESULT:      -5.3      0.000      0.000
  Name = 
  2 active torsions:
  status: ('A' for Active; 'I' for Inactive)
    1  A    between atoms: N_5  and  C_23
    2  A    between atoms: C_6  and  C_31
                            x       y       z     vdW  Elec       q    Type
                         _______ _______ _______ _____ _____    ______ ____

>  <TORSDO>
F 2

$$$$
=
 OpenBabel10272414503D

 37 40  0  0  1  0  0  0  0  0999 V2000
  184.3270  176.2360  135.4310 C   0  0  2  0  0  3  0  0  0  0  0  0
  187.9430  174.7750  135.2650 C   0  0  0  0  0  0  0  0  0  0  0  0
  188.1680  176.7320  138.4530 C   0  0  0  0  0  2  0  0  0  0  0  0
  183.8480  175.7540  136.7300 N   0  0  0  0  0  0  0  0  0  0  0  0
  182.6150  179.6460  138.2600 C   0  0  0  0  0  2  0  0  0  0  0  0
  188.5840  177.0950  135.2780 C   0  0  0  0  0  2  0  0  0  0  0  0
  180.3150  179.9930  137.4170 C   0  0  0  0  0  1  0  0  0  0  0  0
  180.1330  176.4460  136.4800 C   0  0  0  0  0  1  0  0  0  0  0  0
  188.7320  175.8180  137.3520 C   0  0  0  0  0  2  0  0  0  0  0  0
  184.2560  178.3860  139.4960 C   0  0  0  0  0  0  0  0  0  0  0  0
  189.1290  178.2690  136.1090 C   0  0  0  0  0  2  0  0  0  0  0  0
  182.5310  176.1180  137.1770 C   0  0  0  0  0  0  0  0  0  0  0  0
  185.8290  174.3700  135.0660 O   0  0  0  0  0  0  0  0  0  0  0  0
  188.4890  173.4610  135.8040 C   0  0  0  0  0  2  0  0  0  0  0  0
  186.6240  178.6280  139.0440 C   0  0  0  0  0  2  0  0  0  0  0  0
  188.1010  178.8950  137.0550 C   0  0  0  0  0  2  0  0  0  0  0  0
  186.8890  174.6830  134.3460 O   0  0  0  0  0  0  0  0  0  0  0  0
  181.5860  176.8410  136.2580 C   0  0  2  0  0  3  0  0  0  0  0  0
  181.4060  178.9670  137.6390 C   0  0  1  0  0  3  0  0  0  0  0  0
  187.3170  177.8930  137.9120 C   0  0  1  0  0  3  0  0  0  0  0  0
  184.7760  175.1030  134.5090 C   0  0  0  0  0  2  0  0  0  0  0  0
  188.0080  176.0030  136.0840 N   0  0  2  0  0  0  0  0  0  0  0  0
  183.0620  178.9220  139.4920 C   0  0  0  0  0  0  0  0  0  0  0  0
  189.2660  174.2410  134.7470 C   0  0  0  0  0  2  0  0  0  0  0  0
  181.7900  178.3540  136.2980 C   0  0  0  0  0  2  0  0  0  0  0  0
  182.1820  175.8820  138.3680 O   0  0  0  0  0  0  0  0  0  0  0  0
  185.3410  177.1790  135.6010 O   0  0  0  0  0  1  0  0  0  0  0  0
  185.4440  177.8510  139.5170 C   0  0  0  0  0  3  0  0  0  0  0  0
  180.8540  179.0840  140.6690 C   0  0  0  0  0  3  0  0  0  0  0  0
  182.2470  178.9280  140.7310 C   0  0  0  0  0  0  0  0  0  0  0  0
  182.8440  178.7880  141.9500 N   0  0  0  0  0  0  0  0  0  0  0  0
  182.7720  178.6450  144.2940 F   0  0  0  0  0  0  0  0  0  0  0  0
  180.7460  178.9360  143.0770 C   0  0  0  0  0  3  0  0  0  0  0  0
  182.1330  178.7890  143.1090 C   0  0  0  0  0  0  0  0  0  0  0  0
  180.1050  179.0860  141.8460 C   0  0  0  0  0  3  0  0  0  0  0  0
  184.5760  173.6260  137.6850 C   0  0  0  0  0  1  0  0  0  0  0  0
  184.7860  175.1290  137.6610 C   0  0  0  0  0  2  0  0  0  0  0  0
  1 27  1  1  0  0  0
  1  4  1  0  0  0  0
  2 14  1  0  0  0  0
  2 22  1  0  0  0  0
  4 12  1  0  0  0  0
  4 37  1  0  0  0  0
  5 23  1  0  0  0  0
  6 11  1  0  0  0  0
  9  3  1  0  0  0  0
 10 28  2  0  0  0  0
 11 16  1  0  0  0  0
 12 26  2  0  0  0  0
 15 28  1  0  0  0  0
 17 13  1  0  0  0  0
 17  2  1  0  0  0  0
 18 25  1  0  0  0  0
 18  8  1  1  0  0  0
 18 12  1  0  0  0  0
 19  7  1  6  0  0  0
 19  5  1  0  0  0  0
 20 16  1  1  0  0  0
 20  3  1  0  0  0  0
 20 15  1  0  0  0  0
 21 13  1  0  0  0  0
 21  1  1  0  0  0  0
 22  6  1  6  0  0  0
 22  9  1  0  0  0  0
 23 10  2  0  0  0  0
 23 30  1  0  0  0  0
 24  2  1  0  0  0  0
 24 14  1  0  0  0  0
 25 19  1  0  0  0  0
 29 30  2  0  0  0  0
 29 35  1  0  0  0  0
 30 31  1  0  0  0  0
 31 34  2  0  0  0  0
 33 34  1  0  0  0  0
 34 32  1  0  0  0  0
 35 33  2  0  0  0  0
 37 36  1  0  0  0  0
M  END
>  <MODEL>
2

>  <REMARK>
 VINA RESULT:      -4.8      1.679      1.889
  Name = 
  2 active torsions:
  status: ('A' for Active; 'I' for Inactive)
    1  A    between atoms: N_5  and  C_23
    2  A    between atoms: C_6  and  C_31
                            x       y       z     vdW  Elec       q    Type
                         _______ _______ _______ _____ _____    ______ ____

>  <TORSDO>
F 2

$$$$
=
 OpenBabel10272414503D

 37 40  0  0  1  0  0  0  0  0999 V2000
  183.0330  175.3060  137.3090 C   0  0  2  0  0  3  0  0  0  0  0  0
  181.0520  178.4660  138.4610 C   0  0  0  0  0  0  0  0  0  0  0  0
  184.5650  179.7140  138.8440 C   0  0  0  0  0  2  0  0  0  0  0  0
  183.8480  175.8250  136.2080 N   0  0  0  0  0  0  0  0  0  0  0  0
  187.6730  174.3800  137.7210 C   0  0  0  0  0  2  0  0  0  0  0  0
  182.2850  178.1540  140.5040 C   0  0  0  0  0  2  0  0  0  0  0  0
  187.8700  172.0500  136.9140 C   0  0  0  0  0  1  0  0  0  0  0  0
  185.0810  172.6270  134.5960 C   0  0  0  0  0  1  0  0  0  0  0  0
  183.0360  179.8520  138.9200 C   0  0  0  0  0  2  0  0  0  0  0  0
  187.4010  176.7440  137.3380 C   0  0  0  0  0  0  0  0  0  0  0  0
  183.4690  178.6180  141.3700 C   0  0  0  0  0  2  0  0  0  0  0  0
  184.7590  174.9450  135.5270 C   0  0  0  0  0  0  0  0  0  0  0  0
  181.2300  176.8930  136.9900 O   0  0  0  0  0  0  0  0  0  0  0  0
  180.5190  179.6340  137.6430 C   0  0  0  0  0  2  0  0  0  0  0  0
  186.5670  178.2090  139.0780 C   0  0  0  0  0  2  0  0  0  0  0  0
  184.8340  178.1410  140.8680 C   0  0  0  0  0  2  0  0  0  0  0  0
  180.5910  177.1920  138.1040 O   0  0  0  0  0  0  0  0  0  0  0  0
  184.7590  173.4710  135.8210 C   0  0  2  0  0  3  0  0  0  0  0  0
  187.1250  173.3560  136.7420 C   0  0  1  0  0  3  0  0  0  0  0  0
  185.0870  178.3670  139.3710 C   0  0  1  0  0  3  0  0  0  0  0  0
  181.5370  175.5320  137.0960 C   0  0  0  0  0  2  0  0  0  0  0  0
  182.3890  178.5410  139.0850 N   0  0  2  0  0  0  0  0  0  0  0  0
  188.0440  175.6500  137.0170 C   0  0  0  0  0  0  0  0  0  0  0  0
  179.9840  179.3710  139.0490 C   0  0  0  0  0  2  0  0  0  0  0  0
  185.6450  173.1220  137.0160 C   0  0  0  0  0  2  0  0  0  0  0  0
  185.6060  175.4180  134.7180 O   0  0  0  0  0  0  0  0  0  0  0  0
  183.4540  175.8420  138.5270 O   0  0  0  0  0  1  0  0  0  0  0  0
  186.7740  177.8430  137.6490 C   0  0  0  0  0  3  0  0  0  0  0  0
  189.3510  176.7950  135.2110 C   0  0  0  0  0  3  0  0  0  0  0  0
  189.1980  175.7110  136.0890 C   0  0  0  0  0  0  0  0  0  0  0  0
  190.1240  174.7100  136.0740 N   0  0  0  0  0  0  0  0  0  0  0  0
  192.0890  173.7100  135.2610 F   0  0  0  0  0  0  0  0  0  0  0  0
  191.3770  175.7960  134.3570 C   0  0  0  0  0  3  0  0  0  0  0  0
  191.1970  174.7280  135.2380 C   0  0  0  0  0  0  0  0  0  0  0  0
  190.4460  176.8350  134.3460 C   0  0  0  0  0  3  0  0  0  0  0  0
  183.3600  177.6040  134.6050 C   0  0  0  0  0  1  0  0  0  0  0  0
  183.9190  177.2660  135.9760 C   0  0  0  0  0  2  0  0  0  0  0  0
  1 27  1  1  0  0  0
  2 24  1  0  0  0  0
  2 22  1  0  0  0  0
  3  9  1  0  0  0  0
  4  1  1  0  0  0  0
  6 11  1  0  0  0  0
 10 28  2  0  0  0  0
 12 18  1  0  0  0  0
 12  4  1  0  0  0  0
 13 21  1  0  0  0  0
 13 17  1  0  0  0  0
 14  2  1  0  0  0  0
 14 24  1  0  0  0  0
 15 20  1  0  0  0  0
 16 11  1  0  0  0  0
 17  2  1  0  0  0  0
 18  8  1  6  0  0  0
 18 25  1  0  0  0  0
 19  7  1  1  0  0  0
 19 25  1  0  0  0  0
 19  5  1  0  0  0  0
 20  3  1  1  0  0  0
 20 16  1  0  0  0  0
 21  1  1  0  0  0  0
 22  9  1  1  0  0  0
 22  6  1  0  0  0  0
 23 10  2  0  0  0  0
 23  5  1  0  0  0  0
 26 12  2  0  0  0  0
 28 15  1  0  0  0  0
 29 30  1  0  0  0  0
 30 23  1  0  0  0  0
 31 30  2  0  0  0  0
 33 34  2  0  0  0  0
 34 32  1  0  0  0  0
 34 31  1  0  0  0  0
 35 33  1  0  0  0  0
 35 29  2  0  0  0  0
 36 37  1  0  0  0  0
 37  4  1  0  0  0  0
M  END
>  <MODEL>
3

>  <REMARK>
 VINA RESULT:      -4.4      3.002      7.816
  Name = 
  2 active torsions:
  status: ('A' for Active; 'I' for Inactive)
    1  A    between atoms: N_5  and  C_23
    2  A    between atoms: C_6  and  C_31
                            x       y       z     vdW  Elec       q    Type
                         _______ _______ _______ _____ _____    ______ ____

>  <TORSDO>
F 2

$$$$
=
 OpenBabel10272414503D

 37 40  0  0  1  0  0  0  0  0999 V2000
  189.8410  173.9640  136.8100 C   0  0  2  0  0  3  0  0  0  0  0  0
  187.4220  176.8820  137.7450 C   0  0  0  0  0  0  0  0  0  0  0  0
  190.7130  178.4480  138.6190 C   0  0  0  0  0  2  0  0  0  0  0  0
  190.7390  174.5940  135.8380 N   0  0  0  0  0  0  0  0  0  0  0  0
  194.4560  173.4750  137.8230 C   0  0  0  0  0  2  0  0  0  0  0  0
  188.4000  176.6240  139.9290 C   0  0  0  0  0  2  0  0  0  0  0  0
  194.9880  171.2010  137.0060 C   0  0  0  0  0  1  0  0  0  0  0  0
  192.4840  171.5820  134.3460 C   0  0  0  0  0  1  0  0  0  0  0  0
  189.1800  178.4360  138.4920 C   0  0  0  0  0  2  0  0  0  0  0  0
  194.0030  175.8130  137.4510 C   0  0  0  0  0  0  0  0  0  0  0  0
  189.4080  177.1720  140.9540 C   0  0  0  0  0  2  0  0  0  0  0  0
  191.8140  173.8270  135.2690 C   0  0  0  0  0  0  0  0  0  0  0  0
  187.9470  175.3800  136.2820 O   0  0  0  0  0  0  0  0  0  0  0  0
  186.8880  178.0180  136.8850 C   0  0  0  0  0  2  0  0  0  0  0  0
  192.8060  177.1350  139.0910 C   0  0  0  0  0  2  0  0  0  0  0  0
  190.8680  176.8440  140.6310 C   0  0  0  0  0  2  0  0  0  0  0  0
  187.1410  175.5810  137.3060 O   0  0  0  0  0  0  0  0  0  0  0  0
  191.9210  172.3510  135.5320 C   0  0  2  0  0  3  0  0  0  0  0  0
  194.1450  172.4350  136.7600 C   0  0  1  0  0  3  0  0  0  0  0  0
  191.2920  177.1400  139.1860 C   0  0  1  0  0  3  0  0  0  0  0  0
  188.3710  174.0520  136.4020 C   0  0  0  0  0  2  0  0  0  0  0  0
  188.6520  177.0640  138.5440 N   0  0  2  0  0  0  0  0  0  0  0  0
  194.7870  174.7960  137.1990 C   0  0  0  0  0  0  0  0  0  0  0  0
  186.2010  177.6600  138.2010 C   0  0  0  0  0  2  0  0  0  0  0  0
  192.6730  172.0510  136.8280 C   0  0  0  0  0  2  0  0  0  0  0  0
  192.7090  174.4050  134.5890 O   0  0  0  0  0  0  0  0  0  0  0  0
  190.0430  174.4990  138.0830 O   0  0  0  0  0  1  0  0  0  0  0  0
  193.2340  176.8360  137.6960 C   0  0  0  0  0  3  0  0  0  0  0  0
  196.0620  175.8190  135.2980 C   0  0  0  0  0  3  0  0  0  0  0  0
  196.0420  174.9980  136.4350 C   0  0  0  0  0  0  0  0  0  0  0  0
  197.1940  174.3810  136.8270 N   0  0  0  0  0  0  0  0  0  0  0  0
  199.4830  173.9060  136.5840 F   0  0  0  0  0  0  0  0  0  0  0  0
  198.4150  175.3540  135.0220 C   0  0  0  0  0  3  0  0  0  0  0  0
  198.3650  174.5390  136.1540 C   0  0  0  0  0  0  0  0  0  0  0  0
  197.2530  175.9960  134.5930 C   0  0  0  0  0  3  0  0  0  0  0  0
  189.9830  176.3750  134.3460 C   0  0  0  0  0  1  0  0  0  0  0  0
  190.6960  176.0410  135.6440 C   0  0  0  0  0  2  0  0  0  0  0  0
  1 27  1  1  0  0  0
  2 24  1  0  0  0  0
  2 22  1  0  0  0  0
  4  1  1  0  0  0  0
  6 11  1  0  0  0  0
  9  3  1  0  0  0  0
 10 28  2  0  0  0  0
 12 18  1  0  0  0  0
 12  4  1  0  0  0  0
 13 21  1  0  0  0  0
 13 17  1  0  0  0  0
 14  2  1  0  0  0  0
 14 24  1  0  0  0  0
 15 20  1  0  0  0  0
 16 11  1  0  0  0  0
 17  2  1  0  0  0  0
 18  8  1  6  0  0  0
 18 25  1  0  0  0  0
 19 25  1  0  0  0  0
 19  7  1  1  0  0  0
 19  5  1  0  0  0  0
 20  3  1  1  0  0  0
 20 16  1  0  0  0  0
 21  1  1  0  0  0  0
 22  9  1  1  0  0  0
 22  6  1  0  0  0  0
 23 10  2  0  0  0  0
 23  5  1  0  0  0  0
 26 12  2  0  0  0  0
 28 15  1  0  0  0  0
 29 30  1  0  0  0  0
 30 31  2  0  0  0  0
 30 23  1  0  0  0  0
 33 34  2  0  0  0  0
 34 32  1  0  0  0  0
 34 31  1  0  0  0  0
 35 33  1  0  0  0  0
 35 29  2  0  0  0  0
 36 37  1  0  0  0  0
 37  4  1  0  0  0  0
M  END
>  <MODEL>
4

>  <REMARK>
 VINA RESULT:      -2.7      5.701     10.875
  Name = 
  2 active torsions:
  status: ('A' for Active; 'I' for Inactive)
    1  A    between atoms: N_5  and  C_23
    2  A    between atoms: C_6  and  C_31
                            x       y       z     vdW  Elec       q    Type
                         _______ _______ _______ _____ _____    ______ ____

>  <TORSDO>
F 2

$$$$
=
 OpenBabel10272414503D

 37 40  0  0  1  0  0  0  0  0999 V2000
  190.7580  172.9380  135.6710 C   0  0  2  0  0  3  0  0  0  0  0  0
  188.0710  175.7640  135.4910 C   0  0  0  0  0  0  0  0  0  0  0  0
  190.8960  177.6410  137.0840 C   0  0  0  0  0  2  0  0  0  0  0  0
  191.8820  173.5200  134.9320 N   0  0  0  0  0  0  0  0  0  0  0  0
  194.8760  172.8850  138.0380 C   0  0  0  0  0  2  0  0  0  0  0  0
  188.3630  175.8140  137.8790 C   0  0  0  0  0  2  0  0  0  0  0  0
  195.7050  170.5790  137.7000 C   0  0  0  0  0  1  0  0  0  0  0  0
  194.0960  170.4930  134.4000 C   0  0  0  0  0  1  0  0  0  0  0  0
  189.4730  177.5090  136.5190 C   0  0  0  0  0  2  0  0  0  0  0  0
  194.4750  175.1310  137.2630 C   0  0  0  0  0  0  0  0  0  0  0  0
  189.0010  176.5380  139.0770 C   0  0  0  0  0  2  0  0  0  0  0  0
  193.1050  172.7730  134.8010 C   0  0  0  0  0  0  0  0  0  0  0  0
  189.0600  174.1530  134.4420 O   0  0  0  0  0  0  0  0  0  0  0  0
  187.7780  176.7610  134.3780 C   0  0  0  0  0  2  0  0  0  0  0  0
  192.7980  176.5370  138.3050 C   0  0  0  0  0  2  0  0  0  0  0  0
  190.5010  176.2800  139.2370 C   0  0  0  0  0  2  0  0  0  0  0  0
  187.9790  174.4070  135.1530 O   0  0  0  0  0  0  0  0  0  0  0  0
  193.1790  171.3450  135.2660 C   0  0  2  0  0  3  0  0  0  0  0  0
  194.9330  171.7170  137.0680 C   0  0  1  0  0  3  0  0  0  0  0  0
  191.3250  176.4470  137.9530 C   0  0  1  0  0  3  0  0  0  0  0  0
  189.4740  172.8790  134.8450 C   0  0  0  0  0  2  0  0  0  0  0  0
  189.0000  176.1170  136.5840 N   0  0  2  0  0  0  0  0  0  0  0  0
  195.3330  174.1500  137.3790 C   0  0  0  0  0  0  0  0  0  0  0  0
  186.7440  176.5000  135.4710 C   0  0  0  0  0  2  0  0  0  0  0  0
  193.5210  171.2410  136.7510 C   0  0  0  0  0  2  0  0  0  0  0  0
  194.1410  173.3350  134.3460 O   0  0  0  0  0  0  0  0  0  0  0  0
  190.5540  173.6200  136.8710 O   0  0  0  0  0  1  0  0  0  0  0  0
  193.6320  176.1190  137.1440 C   0  0  0  0  0  3  0  0  0  0  0  0
  197.0840  174.8090  135.7100 C   0  0  0  0  0  3  0  0  0  0  0  0
  196.7500  174.3550  136.9950 C   0  0  0  0  0  0  0  0  0  0  0  0
  197.7500  174.0980  137.8870 N   0  0  0  0  0  0  0  0  0  0  0  0
  200.0170  174.0040  138.4960 F   0  0  0  0  0  0  0  0  0  0  0  0
  199.4220  174.7280  136.3060 C   0  0  0  0  0  3  0  0  0  0  0  0
  199.0610  174.2720  137.5750 C   0  0  0  0  0  0  0  0  0  0  0  0
  198.4240  174.9960  135.3690 C   0  0  0  0  0  3  0  0  0  0  0  0
  193.2600  175.4510  134.3470 C   0  0  0  0  0  1  0  0  0  0  0  0
  191.8490  174.9320  134.5570 C   0  0  0  0  0  2  0  0  0  0  0  0
  1 27  1  1  0  0  0
  2 22  1  0  0  0  0
  4  1  1  0  0  0  0
  6 11  1  0  0  0  0
  9  3  1  0  0  0  0
 10 23  2  0  0  0  0
 11 16  1  0  0  0  0
 12  4  1  0  0  0  0
 12 18  1  0  0  0  0
 13 21  1  0  0  0  0
 13 17  1  0  0  0  0
 14 24  1  0  0  0  0
 14  2  1  0  0  0  0
 17  2  1  0  0  0  0
 18  8  1  6  0  0  0
 18 25  1  0  0  0  0
 19  7  1  1  0  0  0
 19  5  1  0  0  0  0
 20  3  1  1  0  0  0
 20 15  1  0  0  0  0
 20 16  1  0  0  0  0
 21  1  1  0  0  0  0
 22  9  1  1  0  0  0
 22  6  1  0  0  0  0
 23  5  1  0  0  0  0
 24  2  1  0  0  0  0
 25 19  1  0  0  0  0
 26 12  2  0  0  0  0
 28 10  2  0  0  0  0
 28 15  1  0  0  0  0
 29 30  1  0  0  0  0
 30 23  1  0  0  0  0
 30 31  2  0  0  0  0
 33 34  2  0  0  0  0
 34 31  1  0  0  0  0
 34 32  1  0  0  0  0
 35 29  2  0  0  0  0
 35 33  1  0  0  0  0
 36 37  1  0  0  0  0
 37  4  1  0  0  0  0
M  END
>  <MODEL>
5

>  <REMARK>
 VINA RESULT:      -2.7      6.055     11.396
  Name = 
  2 active torsions:
  status: ('A' for Active; 'I' for Inactive)
    1  A    between atoms: N_5  and  C_23
    2  A    between atoms: C_6  and  C_31
                            x       y       z     vdW  Elec       q    Type
                         _______ _______ _______ _____ _____    ______ ____

>  <TORSDO>
F 2

$$$$
