=
 OpenBabel10272400163D

 31 35  0  0  1  0  0  0  0  0999 V2000
  188.3330  178.4380  140.1580 C   0  0  0  0  0  0  0  0  0  0  0  0
  185.7540  178.1190  143.0070 C   0  0  0  0  0  0  0  0  0  0  0  0
  184.4530  178.5200  142.6190 C   0  0  0  0  0  0  0  0  0  0  0  0
  182.9170  177.6140  140.9030 C   0  0  0  0  0  3  0  0  0  0  0  0
  186.7520  177.6620  141.9560 C   0  0  1  0  0  3  0  0  0  0  0  0
  188.9920  177.0900  140.2930 C   0  0  0  0  0  2  0  0  0  0  0  0
  184.0720  178.5200  141.1700 C   0  0  0  0  0  2  0  0  0  0  0  0
  187.4990  177.7090  144.8160 C   0  0  1  0  0  3  0  0  0  0  0  0
  188.6900  179.1990  139.2740 O   0  0  0  0  0  0  0  0  0  0  0  0
  183.9630  179.1330  144.9140 C   0  0  0  0  0  3  0  0  0  0  0  0
  181.7030  177.8300  141.4060 C   0  0  0  0  0  3  0  0  0  0  0  0
  187.9950  176.5420  143.9660 C   0  0  0  0  0  2  0  0  0  0  0  0
  186.1230  178.1700  144.3730 C   0  0  0  0  0  0  0  0  0  0  0  0
  187.2190  178.8450  141.0910 C   0  0  0  0  0  2  0  0  0  0  0  0
  181.3620  178.9150  142.3450 C   0  0  0  0  0  3  0  0  0  0  0  0
  187.9480  176.9230  142.5240 C   0  0  0  0  0  0  0  0  0  0  0  0
  188.9990  176.6610  141.7350 C   0  0  0  0  0  3  0  0  0  0  0  0
  185.2320  178.7190  145.3040 C   0  0  0  0  0  3  0  0  0  0  0  0
  183.5490  179.0100  143.5890 C   0  0  0  0  0  0  0  0  0  0  0  0
  182.1650  179.4280  143.2850 C   0  0  0  0  0  3  0  0  0  0  0  0
  187.5970  177.3610  146.3060 C   0  0  0  0  0  2  0  0  0  0  0  0
  188.7780  176.4430  146.6080 C   0  0  0  0  0  2  0  0  0  0  0  0
  189.8020  178.5000  147.8820 C   0  0  0  0  0  1  0  0  0  0  0  0
  191.8870  175.7680  147.9250 O   0  0  0  0  0  0  0  0  0  0  0  0
  191.1610  176.5440  147.2510 C   0  0  0  0  0  0  0  0  0  0  0  0
  190.9130  177.4240  146.0180 N   0  0  0  0  0  0  0  0  0  0  0  0
  189.9890  177.2490  147.0440 C   0  0  1  0  0  0  0  0  0  0  0  0
  191.3370  177.9890  144.7490 C   0  0  0  0  0  0  0  0  0  0  0  0
  192.5290  178.6870  144.9270 O   0  0  0  0  0  1  0  0  0  0  0  0
  190.2710  178.9340  144.2360 C   0  0  0  0  0  1  0  0  0  0  0  0
  191.5500  176.8790  143.7400 C   0  0  0  0  0  1  0  0  0  0  0  0
  1  6  1  0  0  0  0
  1 14  1  0  0  0  0
  2 13  1  0  0  0  0
  3  2  2  0  0  0  0
  3 19  1  0  0  0  0
  4  7  1  0  0  0  0
  4 11  2  0  0  0  0
  5 14  1  1  0  0  0
  5 16  1  0  0  0  0
  5  2  1  0  0  0  0
  6 17  1  0  0  0  0
  7  3  1  0  0  0  0
  8 21  1  1  0  0  0
  9  1  2  0  0  0  0
 10 18  1  0  0  0  0
 11 15  1  0  0  0  0
 12  8  1  0  0  0  0
 13  8  1  0  0  0  0
 13 18  2  0  0  0  0
 15 20  2  0  0  0  0
 16 12  1  0  0  0  0
 17 16  2  0  0  0  0
 19 10  2  0  0  0  0
 20 19  1  0  0  0  0
 21 22  1  0  0  0  0
 22 27  1  0  0  0  0
 25 24  2  0  0  0  0
 26 27  1  0  0  0  0
 26 25  1  0  0  0  0
 27 25  1  0  0  0  0
 27 23  1  1  0  0  0
 28 29  1  0  0  0  0
 28 26  1  0  0  0  0
 30 28  1  0  0  0  0
 31 28  1  0  0  0  0
M  END
>  <MODEL>
1

>  <REMARK>
 VINA RESULT:      -8.9      0.000      0.000
  Name = 
  4 active torsions:
  status: ('A' for Active; 'I' for Inactive)
    1  A    between atoms: C_1  and  N_19
    2  A    between atoms: C_9  and  C_22
    3  A    between atoms: C_9  and  C_23
    4  A    between atoms: C_15  and  C_23
                            x       y       z     vdW  Elec       q    Type
                         _______ _______ _______ _____ _____    ______ ____

>  <TORSDO>
F 4

$$$$
=
 OpenBabel10272400163D

 31 35  0  0  1  0  0  0  0  0999 V2000
  186.8440  178.1370  137.9370 C   0  0  0  0  0  0  0  0  0  0  0  0
  189.7700  177.1490  140.2450 C   0  0  0  0  0  0  0  0  0  0  0  0
  189.5500  177.5070  141.5980 C   0  0  0  0  0  0  0  0  0  0  0  0
  187.8160  176.7840  143.2090 C   0  0  0  0  0  3  0  0  0  0  0  0
  188.5880  176.9520  139.3100 C   0  0  1  0  0  3  0  0  0  0  0  0
  186.6980  176.8400  137.1840 C   0  0  0  0  0  2  0  0  0  0  0  0
  188.1520  177.7190  142.0970 C   0  0  0  0  0  2  0  0  0  0  0  0
  191.3540  176.5800  138.3350 C   0  0  1  0  0  3  0  0  0  0  0  0
  186.0810  179.0600  137.7040 O   0  0  0  0  0  0  0  0  0  0  0  0
  191.9450  177.6900  141.9350 C   0  0  0  0  0  3  0  0  0  0  0  0
  188.4330  176.8190  144.3880 C   0  0  0  0  0  3  0  0  0  0  0  0
  190.2830  175.6120  137.8370 C   0  0  0  0  0  2  0  0  0  0  0  0
  191.0950  177.0010  139.7690 C   0  0  0  0  0  0  0  0  0  0  0  0
  187.9080  178.2950  138.9940 C   0  0  0  0  0  2  0  0  0  0  0  0
  189.5660  177.7030  144.7200 C   0  0  0  0  0  3  0  0  0  0  0  0
  188.9350  176.2240  138.0270 C   0  0  0  0  0  0  0  0  0  0  0  0
  188.0410  176.1780  137.0300 C   0  0  0  0  0  3  0  0  0  0  0  0
  192.1670  177.3170  140.6140 C   0  0  0  0  0  3  0  0  0  0  0  0
  190.6500  177.7580  142.4480 C   0  0  0  0  0  0  0  0  0  0  0  0
  190.5210  178.1130  143.8760 C   0  0  0  0  0  3  0  0  0  0  0  0
  192.7510  175.9980  138.0920 C   0  0  0  0  0  2  0  0  0  0  0  0
  192.7000  174.6680  137.3450 C   0  0  0  0  0  2  0  0  0  0  0  0
  194.0340  173.3830  135.4820 C   0  0  0  0  0  1  0  0  0  0  0  0
  195.1280  176.6180  135.8750 O   0  0  0  0  0  0  0  0  0  0  0  0
  194.8240  175.5230  136.4150 C   0  0  0  0  0  0  0  0  0  0  0  0
  195.1050  174.3870  137.4090 N   0  0  0  0  0  0  0  0  0  0  0  0
  193.9890  174.4310  136.5780 C   0  0  1  0  0  0  0  0  0  0  0  0
  195.9230  173.7650  138.4360 C   0  0  0  0  0  0  0  0  0  0  0  0
  195.3180  172.5810  138.8550 O   0  0  0  0  0  1  0  0  0  0  0  0
  196.0570  174.7060  139.6140 C   0  0  0  0  0  1  0  0  0  0  0  0
  197.2980  173.4570  137.8790 C   0  0  0  0  0  1  0  0  0  0  0  0
  1 14  1  0  0  0  0
  2  3  1  0  0  0  0
  3  7  1  0  0  0  0
  3 19  2  0  0  0  0
  4 11  2  0  0  0  0
  5 14  1  6  0  0  0
  5  2  1  0  0  0  0
  6  1  1  0  0  0  0
  7  4  1  0  0  0  0
  8 21  1  1  0  0  0
  8 13  1  0  0  0  0
  9  1  2  0  0  0  0
 10 19  1  0  0  0  0
 11 15  1  0  0  0  0
 12 16  1  0  0  0  0
 12  8  1  0  0  0  0
 13  2  2  0  0  0  0
 13 18  1  0  0  0  0
 16  5  1  0  0  0  0
 17  6  1  0  0  0  0
 17 16  2  0  0  0  0
 18 10  2  0  0  0  0
 19 20  1  0  0  0  0
 20 15  2  0  0  0  0
 22 21  1  0  0  0  0
 24 25  2  0  0  0  0
 25 27  1  0  0  0  0
 25 26  1  0  0  0  0
 26 28  1  0  0  0  0
 27 23  1  6  0  0  0
 27 22  1  0  0  0  0
 27 26  1  0  0  0  0
 28 29  1  0  0  0  0
 28 30  1  0  0  0  0
 31 28  1  0  0  0  0
M  END
>  <MODEL>
2

>  <REMARK>
 VINA RESULT:      -8.4      4.849      7.987
  Name = 
  4 active torsions:
  status: ('A' for Active; 'I' for Inactive)
    1  A    between atoms: C_1  and  N_19
    2  A    between atoms: C_9  and  C_22
    3  A    between atoms: C_9  and  C_23
    4  A    between atoms: C_15  and  C_23
                            x       y       z     vdW  Elec       q    Type
                         _______ _______ _______ _____ _____    ______ ____

>  <TORSDO>
F 4

$$$$
=
 OpenBabel10272400163D

 31 35  0  0  1  0  0  0  0  0999 V2000
  190.1040  176.5900  139.9590 C   0  0  0  0  0  0  0  0  0  0  0  0
  188.2420  177.6750  143.1560 C   0  0  0  0  0  0  0  0  0  0  0  0
  188.9240  177.3110  144.3420 C   0  0  0  0  0  0  0  0  0  0  0  0
  191.1450  177.9750  145.2100 C   0  0  0  0  0  3  0  0  0  0  0  0
  189.0110  177.8320  141.8550 C   0  0  1  0  0  3  0  0  0  0  0  0
  190.0090  177.8810  139.1890 C   0  0  0  0  0  2  0  0  0  0  0  0
  190.4000  177.0520  144.3050 C   0  0  0  0  0  2  0  0  0  0  0  0
  186.0930  178.2980  141.9390 C   0  0  1  0  0  3  0  0  0  0  0  0
  190.7020  175.6420  139.4780 O   0  0  0  0  0  0  0  0  0  0  0  0
  186.8080  177.2080  145.5230 C   0  0  0  0  0  3  0  0  0  0  0  0
  190.9940  177.9620  146.5330 C   0  0  0  0  0  3  0  0  0  0  0  0
  186.9420  179.2290  141.0760 C   0  0  0  0  0  2  0  0  0  0  0  0
  186.8390  177.8690  143.1880 C   0  0  0  0  0  0  0  0  0  0  0  0
  189.4890  176.4680  141.3310 C   0  0  0  0  0  2  0  0  0  0  0  0
  190.0310  177.1160  147.2610 C   0  0  0  0  0  3  0  0  0  0  0  0
  188.2480  178.5720  140.7750 C   0  0  0  0  0  0  0  0  0  0  0  0
  188.7230  178.5870  139.5220 C   0  0  0  0  0  3  0  0  0  0  0  0
  186.1350  177.5890  144.3670 C   0  0  0  0  0  3  0  0  0  0  0  0
  188.1980  177.0970  145.5350 C   0  0  0  0  0  0  0  0  0  0  0  0
  188.8230  176.7380  146.8250 C   0  0  0  0  0  3  0  0  0  0  0  0
  184.7220  178.9270  142.2100 C   0  0  0  0  0  2  0  0  0  0  0  0
  183.5760  178.0320  141.7460 C   0  0  0  0  0  2  0  0  0  0  0  0
  181.4360  179.2690  140.8550 C   0  0  0  0  0  1  0  0  0  0  0  0
  184.2880  180.2380  139.1990 O   0  0  0  0  0  0  0  0  0  0  0  0
  183.5700  179.2950  139.6220 C   0  0  0  0  0  0  0  0  0  0  0  0
  182.8740  177.9410  139.4290 N   0  0  0  0  0  0  0  0  0  0  0  0
  182.8130  178.6820  140.6050 C   0  0  1  0  0  0  0  0  0  0  0  0
  182.5490  176.7780  138.6210 C   0  0  0  0  0  0  0  0  0  0  0  0
  183.7220  176.2270  138.1090 O   0  0  0  0  0  1  0  0  0  0  0  0
  181.6460  177.1930  137.4790 C   0  0  0  0  0  1  0  0  0  0  0  0
  181.8390  175.7450  139.4730 C   0  0  0  0  0  1  0  0  0  0  0  0
  1 14  1  0  0  0  0
  2 13  2  0  0  0  0
  2  3  1  0  0  0  0
  3 19  2  0  0  0  0
  4 11  2  0  0  0  0
  5 14  1  6  0  0  0
  5  2  1  0  0  0  0
  6 17  1  0  0  0  0
  6  1  1  0  0  0  0
  7  3  1  0  0  0  0
  7  4  1  0  0  0  0
  8 21  1  1  0  0  0
  8 13  1  0  0  0  0
  9  1  2  0  0  0  0
 10 19  1  0  0  0  0
 11 15  1  0  0  0  0
 12  8  1  0  0  0  0
 13 18  1  0  0  0  0
 16 12  1  0  0  0  0
 16  5  1  0  0  0  0
 17 16  2  0  0  0  0
 18 10  2  0  0  0  0
 19 20  1  0  0  0  0
 20 15  2  0  0  0  0
 22 21  1  0  0  0  0
 24 25  2  0  0  0  0
 25 27  1  0  0  0  0
 26 25  1  0  0  0  0
 26 27  1  0  0  0  0
 27 23  1  1  0  0  0
 27 22  1  0  0  0  0
 28 26  1  0  0  0  0
 28 31  1  0  0  0  0
 29 28  1  0  0  0  0
 30 28  1  0  0  0  0
M  END
>  <MODEL>
3

>  <REMARK>
 VINA RESULT:      -8.4      3.038      7.499
  Name = 
  4 active torsions:
  status: ('A' for Active; 'I' for Inactive)
    1  A    between atoms: C_1  and  N_19
    2  A    between atoms: C_9  and  C_22
    3  A    between atoms: C_9  and  C_23
    4  A    between atoms: C_15  and  C_23
                            x       y       z     vdW  Elec       q    Type
                         _______ _______ _______ _____ _____    ______ ____

>  <TORSDO>
F 4

$$$$
=
 OpenBabel10272400163D

 31 35  0  0  1  0  0  0  0  0999 V2000
  189.9210  175.7990  142.7090 C   0  0  0  0  0  0  0  0  0  0  0  0
  186.7950  177.9610  143.3550 C   0  0  0  0  0  0  0  0  0  0  0  0
  186.3990  177.9650  144.7150 C   0  0  0  0  0  0  0  0  0  0  0  0
  187.5700  178.7550  146.7470 C   0  0  0  0  0  3  0  0  0  0  0  0
  188.2350  177.6460  142.9850 C   0  0  1  0  0  3  0  0  0  0  0  0
  190.7040  176.7730  141.8690 C   0  0  0  0  0  2  0  0  0  0  0  0
  187.3940  177.6290  145.7840 C   0  0  0  0  0  2  0  0  0  0  0  0
  186.2470  178.2700  140.8880 C   0  0  1  0  0  3  0  0  0  0  0  0
  190.4070  174.7160  142.9880 O   0  0  0  0  0  0  0  0  0  0  0  0
  184.1040  178.3650  144.0410 C   0  0  0  0  0  3  0  0  0  0  0  0
  186.5900  179.1790  147.5430 C   0  0  0  0  0  3  0  0  0  0  0  0
  187.6600  178.8230  140.7220 C   0  0  0  0  0  2  0  0  0  0  0  0
  185.8370  178.2290  142.3480 C   0  0  0  0  0  0  0  0  0  0  0  0
  188.5530  176.1620  143.2300 C   0  0  0  0  0  2  0  0  0  0  0  0
  185.2070  178.6690  147.5200 C   0  0  0  0  0  3  0  0  0  0  0  0
  188.6040  178.0360  141.5670 C   0  0  0  0  0  0  0  0  0  0  0  0
  189.7670  177.6180  141.0480 C   0  0  0  0  0  3  0  0  0  0  0  0
  184.4910  178.3850  142.7050 C   0  0  0  0  0  3  0  0  0  0  0  0
  185.0460  178.1890  145.0530 C   0  0  0  0  0  0  0  0  0  0  0  0
  184.5420  178.2350  146.4420 C   0  0  0  0  0  3  0  0  0  0  0  0
  185.2690  179.0250  139.9800 C   0  0  0  0  0  2  0  0  0  0  0  0
  185.2510  178.4650  138.5610 C   0  0  0  0  0  2  0  0  0  0  0  0
  183.6100  177.3710  136.8250 C   0  0  0  0  0  1  0  0  0  0  0  0
  182.8990  176.4430  140.0570 O   0  0  0  0  0  0  0  0  0  0  0  0
  183.1430  177.3720  139.2440 C   0  0  0  0  0  0  0  0  0  0  0  0
  182.8480  178.7590  138.6580 N   0  0  0  0  0  0  0  0  0  0  0  0
  183.8730  177.9310  138.2100 C   0  0  1  0  0  0  0  0  0  0  0  0
  182.0800  179.9920  138.6210 C   0  0  0  0  0  0  0  0  0  0  0  0
  182.9430  181.0800  138.7310 O   0  0  0  0  0  1  0  0  0  0  0  0
  181.0980  180.0090  139.7740 C   0  0  0  0  0  1  0  0  0  0  0  0
  181.3200  180.0830  137.3130 C   0  0  0  0  0  1  0  0  0  0  0  0
  1  9  2  0  0  0  0
  1 14  1  0  0  0  0
  2  3  1  0  0  0  0
  3 19  2  0  0  0  0
  3  7  1  0  0  0  0
  4 11  2  0  0  0  0
  5 14  1  6  0  0  0
  5  2  1  0  0  0  0
  6  1  1  0  0  0  0
  7  4  1  0  0  0  0
  8 21  1  6  0  0  0
  8 13  1  0  0  0  0
 10 19  1  0  0  0  0
 12  8  1  0  0  0  0
 12 16  1  0  0  0  0
 13 18  1  0  0  0  0
 13  2  2  0  0  0  0
 15 11  1  0  0  0  0
 16  5  1  0  0  0  0
 17 16  2  0  0  0  0
 17  6  1  0  0  0  0
 18 10  2  0  0  0  0
 19 20  1  0  0  0  0
 20 15  2  0  0  0  0
 22 21  1  0  0  0  0
 25 24  2  0  0  0  0
 26 25  1  0  0  0  0
 27 23  1  6  0  0  0
 27 22  1  0  0  0  0
 27 26  1  0  0  0  0
 27 25  1  0  0  0  0
 28 26  1  0  0  0  0
 28 29  1  0  0  0  0
 28 30  1  0  0  0  0
 31 28  1  0  0  0  0
M  END
>  <MODEL>
4

>  <REMARK>
 VINA RESULT:      -8.2      3.288      7.357
  Name = 
  4 active torsions:
  status: ('A' for Active; 'I' for Inactive)
    1  A    between atoms: C_1  and  N_19
    2  A    between atoms: C_9  and  C_22
    3  A    between atoms: C_9  and  C_23
    4  A    between atoms: C_15  and  C_23
                            x       y       z     vdW  Elec       q    Type
                         _______ _______ _______ _____ _____    ______ ____

>  <TORSDO>
F 4

$$$$
=
 OpenBabel10272400163D

 31 35  0  0  1  0  0  0  0  0999 V2000
  190.1200  176.0880  142.3230 C   0  0  0  0  0  0  0  0  0  0  0  0
  187.4440  177.8400  144.4750 C   0  0  0  0  0  0  0  0  0  0  0  0
  187.6730  177.6970  145.8650 C   0  0  0  0  0  0  0  0  0  0  0  0
  189.5510  178.4530  147.2880 C   0  0  0  0  0  3  0  0  0  0  0  0
  188.6000  177.7130  143.4970 C   0  0  1  0  0  3  0  0  0  0  0  0
  190.3980  177.2020  141.3490 C   0  0  0  0  0  2  0  0  0  0  0  0
  189.0520  177.3920  146.3670 C   0  0  0  0  0  2  0  0  0  0  0  0
  185.8650  178.2730  142.5240 C   0  0  1  0  0  3  0  0  0  0  0  0
  190.7500  175.0460  142.2440 O   0  0  0  0  0  0  0  0  0  0  0  0
  185.2910  177.8940  146.2750 C   0  0  0  0  0  3  0  0  0  0  0  0
  188.9850  178.7070  148.4660 C   0  0  0  0  0  3  0  0  0  0  0  0
  187.0280  178.9890  141.8410 C   0  0  0  0  0  2  0  0  0  0  0  0
  186.1290  178.0770  144.0050 C   0  0  0  0  0  0  0  0  0  0  0  0
  189.0900  176.2580  143.4120 C   0  0  0  0  0  2  0  0  0  0  0  0
  187.7640  178.0520  148.9710 C   0  0  0  0  0  3  0  0  0  0  0  0
  188.2940  178.2470  142.1120 C   0  0  0  0  0  0  0  0  0  0  0  0
  189.1440  177.9990  141.1050 C   0  0  0  0  0  3  0  0  0  0  0  0
  185.0620  178.0580  144.9130 C   0  0  0  0  0  3  0  0  0  0  0  0
  186.5870  177.7460  146.7670 C   0  0  0  0  0  0  0  0  0  0  0  0
  186.7300  177.6310  148.2330 C   0  0  0  0  0  3  0  0  0  0  0  0
  184.5440  178.9840  142.2080 C   0  0  0  0  0  2  0  0  0  0  0  0
  183.5370  178.0560  141.5350 C   0  0  0  0  0  2  0  0  0  0  0  0
  181.5340  179.2910  140.3680 C   0  0  0  0  0  1  0  0  0  0  0  0
  184.5820  180.2920  139.1340 O   0  0  0  0  0  0  0  0  0  0  0  0
  183.8180  179.3410  139.4440 C   0  0  0  0  0  0  0  0  0  0  0  0
  183.1650  177.9850  139.1430 N   0  0  0  0  0  0  0  0  0  0  0  0
  182.9350  178.7140  140.3060 C   0  0  1  0  0  0  0  0  0  0  0  0
  182.9630  176.8300  138.2860 C   0  0  0  0  0  0  0  0  0  0  0  0
  184.1790  176.4550  137.7190 O   0  0  0  0  0  1  0  0  0  0  0  0
  181.9820  177.1800  137.1870 C   0  0  0  0  0  1  0  0  0  0  0  0
  182.4130  175.6770  139.1020 C   0  0  0  0  0  1  0  0  0  0  0  0
  1 14  1  0  0  0  0
  2  3  1  0  0  0  0
  3  7  1  0  0  0  0
  3 19  2  0  0  0  0
  4 11  2  0  0  0  0
  5 14  1  6  0  0  0
  5  2  1  0  0  0  0
  6  1  1  0  0  0  0
  7  4  1  0  0  0  0
  8 21  1  1  0  0  0
  8 13  1  0  0  0  0
  9  1  2  0  0  0  0
 10 19  1  0  0  0  0
 11 15  1  0  0  0  0
 12 16  1  0  0  0  0
 12  8  1  0  0  0  0
 13  2  2  0  0  0  0
 13 18  1  0  0  0  0
 16  5  1  0  0  0  0
 17  6  1  0  0  0  0
 17 16  2  0  0  0  0
 18 10  2  0  0  0  0
 19 20  1  0  0  0  0
 20 15  2  0  0  0  0
 22 21  1  0  0  0  0
 24 25  2  0  0  0  0
 25 27  1  0  0  0  0
 26 25  1  0  0  0  0
 26 27  1  0  0  0  0
 27 23  1  1  0  0  0
 27 22  1  0  0  0  0
 28 31  1  0  0  0  0
 28 26  1  0  0  0  0
 29 28  1  0  0  0  0
 30 28  1  0  0  0  0
M  END
>  <MODEL>
5

>  <REMARK>
 VINA RESULT:      -8.1      2.828      7.359
  Name = 
  4 active torsions:
  status: ('A' for Active; 'I' for Inactive)
    1  A    between atoms: C_1  and  N_19
    2  A    between atoms: C_9  and  C_22
    3  A    between atoms: C_9  and  C_23
    4  A    between atoms: C_15  and  C_23
                            x       y       z     vdW  Elec       q    Type
                         _______ _______ _______ _____ _____    ______ ____

>  <TORSDO>
F 4

$$$$
=
 OpenBabel10272400163D

 31 35  0  0  1  0  0  0  0  0999 V2000
  190.0030  175.7890  142.7390 C   0  0  0  0  0  0  0  0  0  0  0  0
  186.9610  177.9980  143.5910 C   0  0  0  0  0  0  0  0  0  0  0  0
  186.6360  177.9820  144.9690 C   0  0  0  0  0  0  0  0  0  0  0  0
  187.9270  178.7060  146.9520 C   0  0  0  0  0  3  0  0  0  0  0  0
  188.3720  177.6630  143.1390 C   0  0  1  0  0  3  0  0  0  0  0  0
  190.7610  176.7640  141.8780 C   0  0  0  0  0  2  0  0  0  0  0  0
  187.6780  177.6050  145.9780 C   0  0  0  0  0  2  0  0  0  0  0  0
  186.2910  178.3690  141.1620 C   0  0  1  0  0  3  0  0  0  0  0  0
  190.4800  174.6900  142.9710 O   0  0  0  0  0  0  0  0  0  0  0  0
  184.3170  178.4410  144.4240 C   0  0  0  0  0  3  0  0  0  0  0  0
  186.9990  179.1340  147.8060 C   0  0  0  0  0  3  0  0  0  0  0  0
  187.7050  178.8970  140.9330 C   0  0  0  0  0  2  0  0  0  0  0  0
  185.9570  178.3060  142.6400 C   0  0  0  0  0  0  0  0  0  0  0  0
  188.6710  176.1670  143.3380 C   0  0  0  0  0  2  0  0  0  0  0  0
  185.6070  178.6520  147.8460 C   0  0  0  0  0  3  0  0  0  0  0  0
  188.6750  178.0740  141.7120 C   0  0  0  0  0  0  0  0  0  0  0  0
  189.8000  177.6440  141.1240 C   0  0  0  0  0  3  0  0  0  0  0  0
  184.6350  178.4820  143.0710 C   0  0  0  0  0  3  0  0  0  0  0  0
  185.3070  178.2260  145.3820 C   0  0  0  0  0  0  0  0  0  0  0  0
  184.8780  178.2530  146.7960 C   0  0  0  0  0  3  0  0  0  0  0  0
  185.2840  179.1610  140.3210 C   0  0  0  0  0  2  0  0  0  0  0  0
  184.9920  178.4880  138.9840 C   0  0  0  0  0  2  0  0  0  0  0  0
  182.9510  177.2670  140.1000 C   0  0  0  0  0  1  0  0  0  0  0  0
  181.9650  179.8050  138.0020 O   0  0  0  0  0  0  0  0  0  0  0  0
  182.6760  178.7810  138.1750 C   0  0  0  0  0  0  0  0  0  0  0  0
  183.2310  177.4310  137.7000 N   0  0  0  0  0  0  0  0  0  0  0  0
  183.5510  178.0130  138.9230 C   0  0  1  0  0  0  0  0  0  0  0  0
  183.3350  176.3720  136.7110 C   0  0  0  0  0  0  0  0  0  0  0  0
  182.0590  175.9170  136.3830 O   0  0  0  0  0  1  0  0  0  0  0  0
  184.1470  175.2280  137.2790 C   0  0  0  0  0  1  0  0  0  0  0  0
  184.0150  176.9000  135.4650 C   0  0  0  0  0  1  0  0  0  0  0  0
  1  9  2  0  0  0  0
  1 14  1  0  0  0  0
  2  3  1  0  0  0  0
  3 19  2  0  0  0  0
  3  7  1  0  0  0  0
  4 11  2  0  0  0  0
  5 14  1  6  0  0  0
  5  2  1  0  0  0  0
  6  1  1  0  0  0  0
  7  4  1  0  0  0  0
  8 21  1  6  0  0  0
  8 13  1  0  0  0  0
 10 19  1  0  0  0  0
 11 15  1  0  0  0  0
 12  8  1  0  0  0  0
 12 16  1  0  0  0  0
 13 18  1  0  0  0  0
 13  2  2  0  0  0  0
 16  5  1  0  0  0  0
 17 16  2  0  0  0  0
 17  6  1  0  0  0  0
 18 10  2  0  0  0  0
 19 20  1  0  0  0  0
 20 15  2  0  0  0  0
 22 21  1  0  0  0  0
 24 25  2  0  0  0  0
 25 27  1  0  0  0  0
 26 25  1  0  0  0  0
 26 27  1  0  0  0  0
 27 22  1  0  0  0  0
 27 23  1  1  0  0  0
 28 30  1  0  0  0  0
 28 26  1  0  0  0  0
 29 28  1  0  0  0  0
 31 28  1  0  0  0  0
M  END
>  <MODEL>
6

>  <REMARK>
 VINA RESULT:      -8.0      3.546      7.548
  Name = 
  4 active torsions:
  status: ('A' for Active; 'I' for Inactive)
    1  A    between atoms: C_1  and  N_19
    2  A    between atoms: C_9  and  C_22
    3  A    between atoms: C_9  and  C_23
    4  A    between atoms: C_15  and  C_23
                            x       y       z     vdW  Elec       q    Type
                         _______ _______ _______ _____ _____    ______ ____

>  <TORSDO>
F 4

$$$$
=
 OpenBabel10272400163D

 31 35  0  0  1  0  0  0  0  0999 V2000
  187.0730  178.0610  138.0060 C   0  0  0  0  0  0  0  0  0  0  0  0
  189.8950  177.2290  140.4990 C   0  0  0  0  0  0  0  0  0  0  0  0
  189.5760  177.5850  141.8310 C   0  0  0  0  0  0  0  0  0  0  0  0
  187.7820  176.7920  143.3410 C   0  0  0  0  0  3  0  0  0  0  0  0
  188.7840  176.9700  139.4950 C   0  0  1  0  0  3  0  0  0  0  0  0
  187.0350  176.7540  137.2590 C   0  0  0  0  0  2  0  0  0  0  0  0
  188.1420  177.7340  142.2420 C   0  0  0  0  0  2  0  0  0  0  0  0
  191.6180  176.7210  138.6940 C   0  0  1  0  0  3  0  0  0  0  0  0
  186.2840  178.9450  137.7180 O   0  0  0  0  0  0  0  0  0  0  0  0
  191.9350  177.8830  142.3120 C   0  0  0  0  0  3  0  0  0  0  0  0
  188.3240  176.8640  144.5550 C   0  0  0  0  0  3  0  0  0  0  0  0
  190.6260  175.7010  138.1410 C   0  0  0  0  0  2  0  0  0  0  0  0
  191.2530  177.1400  140.1060 C   0  0  0  0  0  0  0  0  0  0  0  0
  188.0620  178.2770  139.1250 C   0  0  0  0  0  2  0  0  0  0  0  0
  189.3910  177.8020  144.9470 C   0  0  0  0  0  3  0  0  0  0  0  0
  189.2420  176.2490  138.2430 C   0  0  0  0  0  0  0  0  0  0  0  0
  188.4140  176.1550  137.1930 C   0  0  0  0  0  3  0  0  0  0  0  0
  192.2550  177.5110  141.0110 C   0  0  0  0  0  3  0  0  0  0  0  0
  190.6090  177.8930  142.7450 C   0  0  0  0  0  0  0  0  0  0  0  0
  190.3760  178.2520  144.1590 C   0  0  0  0  0  3  0  0  0  0  0  0
  193.0530  176.2040  138.5420 C   0  0  0  0  0  2  0  0  0  0  0  0
  193.6300  176.5010  137.1610 C   0  0  0  0  0  2  0  0  0  0  0  0
  195.4860  175.4420  135.6330 C   0  0  0  0  0  1  0  0  0  0  0  0
  194.7890  173.4950  138.3770 O   0  0  0  0  0  0  0  0  0  0  0  0
  194.3500  174.1490  137.3960 C   0  0  0  0  0  0  0  0  0  0  0  0
  193.4250  174.2950  136.1800 N   0  0  0  0  0  0  0  0  0  0  0  0
  194.3230  175.2750  136.5920 C   0  0  1  0  0  0  0  0  0  0  0  0
  192.3920  173.7850  135.2950 C   0  0  0  0  0  0  0  0  0  0  0  0
  192.9690  172.9410  134.3480 O   0  0  0  0  0  1  0  0  0  0  0  0
  191.7130  174.9410  134.5920 C   0  0  0  0  0  1  0  0  0  0  0  0
  191.3660  173.0120  136.0980 C   0  0  0  0  0  1  0  0  0  0  0  0
  1 14  1  0  0  0  0
  2  3  1  0  0  0  0
  3  7  1  0  0  0  0
  3 19  2  0  0  0  0
  4 11  2  0  0  0  0
  5 14  1  6  0  0  0
  5  2  1  0  0  0  0
  6  1  1  0  0  0  0
  7  4  1  0  0  0  0
  8 21  1  1  0  0  0
  8 13  1  0  0  0  0
  9  1  2  0  0  0  0
 10 19  1  0  0  0  0
 11 15  1  0  0  0  0
 12 16  1  0  0  0  0
 12  8  1  0  0  0  0
 13  2  2  0  0  0  0
 13 18  1  0  0  0  0
 16  5  1  0  0  0  0
 17  6  1  0  0  0  0
 17 16  2  0  0  0  0
 18 10  2  0  0  0  0
 19 20  1  0  0  0  0
 20 15  2  0  0  0  0
 22 21  1  0  0  0  0
 25 24  2  0  0  0  0
 26 27  1  0  0  0  0
 26 25  1  0  0  0  0
 27 23  1  6  0  0  0
 27 22  1  0  0  0  0
 27 25  1  0  0  0  0
 28 31  1  0  0  0  0
 28 26  1  0  0  0  0
 29 28  1  0  0  0  0
 30 28  1  0  0  0  0
M  END
>  <MODEL>
7

>  <REMARK>
 VINA RESULT:      -7.8      4.743      8.060
  Name = 
  4 active torsions:
  status: ('A' for Active; 'I' for Inactive)
    1  A    between atoms: C_1  and  N_19
    2  A    between atoms: C_9  and  C_22
    3  A    between atoms: C_9  and  C_23
    4  A    between atoms: C_15  and  C_23
                            x       y       z     vdW  Elec       q    Type
                         _______ _______ _______ _____ _____    ______ ____

>  <TORSDO>
F 4

$$$$
=
 OpenBabel10272400163D

 31 35  0  0  1  0  0  0  0  0999 V2000
  189.9600  176.6030  139.7480 C   0  0  0  0  0  0  0  0  0  0  0  0
  188.2890  177.6130  143.0730 C   0  0  0  0  0  0  0  0  0  0  0  0
  189.0690  177.2790  144.2060 C   0  0  0  0  0  0  0  0  0  0  0  0
  191.3160  178.0390  144.9130 C   0  0  0  0  0  3  0  0  0  0  0  0
  188.9550  177.8000  141.7200 C   0  0  1  0  0  3  0  0  0  0  0  0
  189.7550  177.8870  138.9890 C   0  0  0  0  0  2  0  0  0  0  0  0
  190.5490  177.0840  144.0630 C   0  0  0  0  0  2  0  0  0  0  0  0
  186.0330  178.1410  142.0140 C   0  0  1  0  0  3  0  0  0  0  0  0
  190.5620  175.6810  139.2240 O   0  0  0  0  0  0  0  0  0  0  0  0
  187.0500  177.0880  145.5360 C   0  0  0  0  0  3  0  0  0  0  0  0
  191.2620  178.0210  146.2430 C   0  0  0  0  0  3  0  0  0  0  0  0
  186.7770  179.1050  141.0940 C   0  0  0  0  0  2  0  0  0  0  0  0
  186.8850  177.7450  143.2060 C   0  0  0  0  0  0  0  0  0  0  0  0
  189.4510  176.4570  141.1610 C   0  0  0  0  0  2  0  0  0  0  0  0
  190.3900  177.1370  147.0380 C   0  0  0  0  0  3  0  0  0  0  0  0
  188.0840  178.5050  140.6990 C   0  0  0  0  0  0  0  0  0  0  0  0
  188.4670  178.5390  139.4140 C   0  0  0  0  0  3  0  0  0  0  0  0
  186.2800  177.4380  144.4320 C   0  0  0  0  0  3  0  0  0  0  0  0
  188.4410  177.0360  145.4480 C   0  0  0  0  0  0  0  0  0  0  0  0
  189.1720  176.7060  146.6890 C   0  0  0  0  0  3  0  0  0  0  0  0
  184.6590  178.7100  142.3840 C   0  0  0  0  0  2  0  0  0  0  0  0
  183.9180  179.2620  141.1700 C   0  0  0  0  0  2  0  0  0  0  0  0
  182.7420  177.0990  140.2530 C   0  0  0  0  0  1  0  0  0  0  0  0
  181.0450  178.4830  142.9010 O   0  0  0  0  0  0  0  0  0  0  0  0
  181.6040  178.6550  141.7870 C   0  0  0  0  0  0  0  0  0  0  0  0
  181.6310  179.2470  140.3710 N   0  0  0  0  0  0  0  0  0  0  0  0
  182.6520  178.4660  140.9040 C   0  0  1  0  0  0  0  0  0  0  0  0
  181.0330  180.0340  139.3070 C   0  0  0  0  0  0  0  0  0  0  0  0
  180.3050  179.1970  138.4640 O   0  0  0  0  0  1  0  0  0  0  0  0
  182.1240  180.7220  138.5130 C   0  0  0  0  0  1  0  0  0  0  0  0
  180.1080  181.0780  139.8990 C   0  0  0  0  0  1  0  0  0  0  0  0
  1 14  1  0  0  0  0
  2 13  2  0  0  0  0
  2  3  1  0  0  0  0
  3 19  2  0  0  0  0
  4 11  2  0  0  0  0
  5 14  1  6  0  0  0
  5  2  1  0  0  0  0
  6 17  1  0  0  0  0
  6  1  1  0  0  0  0
  7  3  1  0  0  0  0
  7  4  1  0  0  0  0
  8 21  1  1  0  0  0
  8 13  1  0  0  0  0
  9  1  2  0  0  0  0
 11 15  1  0  0  0  0
 12  8  1  0  0  0  0
 13 18  1  0  0  0  0
 16 12  1  0  0  0  0
 16  5  1  0  0  0  0
 17 16  2  0  0  0  0
 18 10  2  0  0  0  0
 19 10  1  0  0  0  0
 19 20  1  0  0  0  0
 20 15  2  0  0  0  0
 22 21  1  0  0  0  0
 25 24  2  0  0  0  0
 26 27  1  0  0  0  0
 26 25  1  0  0  0  0
 27 23  1  6  0  0  0
 27 22  1  0  0  0  0
 27 25  1  0  0  0  0
 28 31  1  0  0  0  0
 28 26  1  0  0  0  0
 29 28  1  0  0  0  0
 30 28  1  0  0  0  0
M  END
>  <MODEL>
8

>  <REMARK>
 VINA RESULT:      -7.8      3.311      7.784
  Name = 
  4 active torsions:
  status: ('A' for Active; 'I' for Inactive)
    1  A    between atoms: C_1  and  N_19
    2  A    between atoms: C_9  and  C_22
    3  A    between atoms: C_9  and  C_23
    4  A    between atoms: C_15  and  C_23
                            x       y       z     vdW  Elec       q    Type
                         _______ _______ _______ _____ _____    ______ ____

>  <TORSDO>
F 4

$$$$
=
 OpenBabel10272400163D

 31 35  0  0  1  0  0  0  0  0999 V2000
  185.7240  179.0300  146.3560 C   0  0  0  0  0  0  0  0  0  0  0  0
  188.9410  177.5580  144.8240 C   0  0  0  0  0  0  0  0  0  0  0  0
  189.8840  177.1570  145.8020 C   0  0  0  0  0  0  0  0  0  0  0  0
  189.7490  175.4430  147.5820 C   0  0  0  0  0  3  0  0  0  0  0  0
  187.4670  177.6470  145.1810 C   0  0  1  0  0  3  0  0  0  0  0  0
  184.7120  178.2720  145.5370 C   0  0  0  0  0  2  0  0  0  0  0  0
  189.4280  176.8480  147.1960 C   0  0  0  0  0  2  0  0  0  0  0  0
  188.3910  178.2920  142.4480 C   0  0  1  0  0  3  0  0  0  0  0  0
  185.3450  179.7990  147.2240 O   0  0  0  0  0  0  0  0  0  0  0  0
  191.6840  177.5630  144.2280 C   0  0  0  0  0  3  0  0  0  0  0  0
  190.9980  174.9970  147.7000 C   0  0  0  0  0  3  0  0  0  0  0  0
  187.0780  177.5280  142.5980 C   0  0  0  0  0  2  0  0  0  0  0  0
  189.3860  177.8980  143.5230 C   0  0  0  0  0  0  0  0  0  0  0  0
  187.2020  178.8280  146.1290 C   0  0  0  0  0  2  0  0  0  0  0  0
  192.2050  175.7840  147.3870 C   0  0  0  0  0  3  0  0  0  0  0  0
  186.5470  177.7200  143.9790 C   0  0  0  0  0  0  0  0  0  0  0  0
  185.2520  178.0180  144.1550 C   0  0  0  0  0  3  0  0  0  0  0  0
  190.7610  177.9360  143.2560 C   0  0  0  0  0  3  0  0  0  0  0  0
  191.2610  177.1420  145.4880 C   0  0  0  0  0  0  0  0  0  0  0  0
  192.3150  176.7160  146.4320 C   0  0  0  0  0  3  0  0  0  0  0  0
  188.9230  178.1600  141.0170 C   0  0  0  0  0  2  0  0  0  0  0  0
  187.8910  177.5540  140.0710 C   0  0  0  0  0  2  0  0  0  0  0  0
  187.6540  176.7980  137.5660 C   0  0  0  0  0  1  0  0  0  0  0  0
  189.0390  179.9300  137.8590 O   0  0  0  0  0  0  0  0  0  0  0  0
  189.0400  178.7260  138.2250 C   0  0  0  0  0  0  0  0  0  0  0  0
  189.7750  177.4190  138.5550 N   0  0  0  0  0  0  0  0  0  0  0  0
  188.3950  177.5740  138.6390 C   0  0  1  0  0  0  0  0  0  0  0  0
  190.9940  176.6400  138.6850 C   0  0  0  0  0  0  0  0  0  0  0  0
  190.6720  175.3320  139.0450 O   0  0  0  0  0  1  0  0  0  0  0  0
  191.8760  177.2530  139.7520 C   0  0  0  0  0  1  0  0  0  0  0  0
  191.7380  176.6280  137.3650 C   0  0  0  0  0  1  0  0  0  0  0  0
  1  9  2  0  0  0  0
  2  5  1  0  0  0  0
  2  3  1  0  0  0  0
  3  7  1  0  0  0  0
  4 11  2  0  0  0  0
  5 14  1  1  0  0  0
  6  1  1  0  0  0  0
  7  4  1  0  0  0  0
  8 21  1  6  0  0  0
  8 12  1  0  0  0  0
  8 13  1  0  0  0  0
 10 19  1  0  0  0  0
 12 16  1  0  0  0  0
 13  2  2  0  0  0  0
 14  1  1  0  0  0  0
 15 11  1  0  0  0  0
 16 17  2  0  0  0  0
 16  5  1  0  0  0  0
 17  6  1  0  0  0  0
 18 13  1  0  0  0  0
 18 10  2  0  0  0  0
 19  3  2  0  0  0  0
 19 20  1  0  0  0  0
 20 15  2  0  0  0  0
 22 21  1  0  0  0  0
 24 25  2  0  0  0  0
 25 26  1  0  0  0  0
 25 27  1  0  0  0  0
 26 27  1  0  0  0  0
 26 28  1  0  0  0  0
 27 23  1  6  0  0  0
 27 22  1  0  0  0  0
 28 29  1  0  0  0  0
 28 30  1  0  0  0  0
 31 28  1  0  0  0  0
M  END
>  <MODEL>
9

>  <REMARK>
 VINA RESULT:      -7.5      3.021      7.479
  Name = 
  4 active torsions:
  status: ('A' for Active; 'I' for Inactive)
    1  A    between atoms: C_1  and  N_19
    2  A    between atoms: C_9  and  C_22
    3  A    between atoms: C_9  and  C_23
    4  A    between atoms: C_15  and  C_23
                            x       y       z     vdW  Elec       q    Type
                         _______ _______ _______ _____ _____    ______ ____

>  <TORSDO>
F 4

$$$$
