=
 OpenBabel10272414533D

 37 40  0  0  1  0  0  0  0  0999 V2000
  189.1230  174.2720  136.4490 N   0  0  0  0  0  2  0  0  0  0  0  0
  190.6220  177.5020  139.4940 C   0  0  2  0  0  3  0  0  0  0  0  0
  190.6940  175.7520  137.6240 C   0  0  2  0  0  3  0  0  0  0  0  0
  189.6620  177.4110  140.6090 N   0  0  0  0  0  0  0  0  0  0  0  0
  189.9410  176.9260  138.2520 C   0  0  1  0  0  3  0  0  0  0  0  0
  192.1660  176.0960  137.3660 C   0  0  0  0  0  2  0  0  0  0  0  0
  188.6360  176.4830  138.7010 N   0  0  2  0  0  0  0  0  0  0  0  0
  187.0610  175.3870  137.2530 C   0  0  0  0  0  3  0  0  0  0  0  0
  192.0340  176.9490  139.7730 C   0  0  1  0  0  3  0  0  0  0  0  0
  192.8400  176.9140  138.4790 C   0  0  0  0  0  2  0  0  0  0  0  0
  187.6680  176.6960  137.6330 C   0  0  0  0  0  2  0  0  0  0  0  0
  192.7500  177.8340  140.7750 C   0  0  0  0  0  1  0  0  0  0  0  0
  188.3780  177.2460  139.9300 C   0  0  2  0  0  3  0  0  0  0  0  0
  190.0420  175.3940  136.2980 C   0  0  0  0  0  2  0  0  0  0  0  0
  187.7210  174.3320  136.7610 C   0  0  0  0  0  3  0  0  0  0  0  0
  189.8730  176.1890  141.3940 C   0  0  0  0  0  2  0  0  0  0  0  0
  188.1570  176.0000  143.2120 C   0  0  0  0  0  1  0  0  0  0  0  0
  189.5800  176.4070  142.8760 C   0  0  2  0  0  3  0  0  0  0  0  0
  189.8500  177.8550  143.2870 C   0  0  0  0  0  2  0  0  0  0  0  0
  188.8000  177.8030  145.5950 C   0  0  0  0  0  2  0  0  0  0  0  0
  190.0800  178.0150  144.7870 C   0  0  1  0  0  3  0  0  0  0  0  0
  191.1540  177.1380  145.2480 N   0  0  0  0  0  2  0  0  0  0  0  0
  192.3020  176.0820  147.0060 N   0  0  0  0  0  2  0  0  0  0  0  0
  190.0750  176.8370  147.5230 C   0  0  0  0  0  2  0  0  0  0  0  0
  191.2700  176.7520  146.6210 C   0  0  0  0  0  0  0  0  0  0  0  0
  189.1180  177.9410  147.0780 C   0  0  0  0  0  2  0  0  0  0  0  0
  187.7490  178.6280  139.6740 C   0  0  0  0  0  2  0  0  0  0  0  0
  186.4940  179.0240  141.7300 C   0  0  0  0  0  3  0  0  0  0  0  0
  186.4580  178.7840  140.4110 C   0  0  0  0  0  0  0  0  0  0  0  0
  185.3390  178.2570  143.7840 C   0  0  0  0  0  1  0  0  0  0  0  0
  185.2740  179.1820  142.5850 C   0  0  0  0  0  2  0  0  0  0  0  0
  185.1720  178.6320  139.6550 C   0  0  0  0  0  2  0  0  0  0  0  0
  184.7750  179.8600  139.1250 O   0  0  0  0  0  0  0  0  0  0  0  0
  183.3790  179.8100  139.1400 C   0  0  0  0  0  2  0  0  0  0  0  0
  182.9370  178.5790  139.7710 N   0  0  0  0  0  2  0  0  0  0  0  0
  180.7350  178.3330  140.7560 C   0  0  0  0  0  1  0  0  0  0  0  0
  181.5250  178.4250  139.4670 C   0  0  0  0  0  2  0  0  0  0  0  0
  1 15  1  0  0  0  0
  2  9  1  0  0  0  0
  2  4  1  1  0  0  0
  3 14  1  6  0  0  0
  3  5  1  0  0  0  0
  4 16  1  0  0  0  0
  5  7  1  0  0  0  0
  5  2  1  0  0  0  0
  6  3  1  0  0  0  0
  6 10  1  0  0  0  0
  7 13  1  0  0  0  0
  8 11  1  0  0  0  0
  9 12  1  0  0  0  0
 10  9  1  0  0  0  0
 11  7  1  0  0  0  0
 13  4  1  0  0  0  0
 14  1  1  0  0  0  0
 15  8  2  0  0  0  0
 16 18  1  0  0  0  0
 18 17  1  0  0  0  0
 18 19  1  0  0  0  0
 19 21  1  0  0  0  0
 20 26  1  0  0  0  0
 21 22  1  0  0  0  0
 21 20  1  0  0  0  0
 22 25  1  0  0  0  0
 25 23  2  0  0  0  0
 25 24  1  0  0  0  0
 26 24  1  0  0  0  0
 27 13  1  0  0  0  0
 27 29  1  0  0  0  0
 28 31  1  0  0  0  0
 29 28  2  0  0  0  0
 31 30  1  0  0  0  0
 32 29  1  0  0  0  0
 33 34  1  0  0  0  0
 33 32  1  0  0  0  0
 34 35  1  0  0  0  0
 37 35  1  0  0  0  0
 37 36  1  0  0  0  0
M  END
>  <MODEL>
1

>  <REMARK>
 VINA RESULT:      -6.7      0.000      0.000
  Name = 
  12 active torsions:
  status: ('A' for Active; 'I' for Inactive)
    1  A    between atoms: N_1  and  C_5
    2  A    between atoms: N_1  and  C_23
    3  A    between atoms: C_5  and  O_17
    4  A    between atoms: C_6  and  C_37
    5  A    between atoms: N_10  and  C_14
    6  A    between atoms: C_14  and  C_31
    7  A    between atoms: O_17  and  C_26
    8  A    between atoms: C_26  and  C_33
    9  A    between atoms: C_27  and  C_34
   10  A    between atoms: C_29  and  C_36
   11  A    between atoms: C_31  and  C_37
   12  A    between atoms: C_33  and  C_36
                            x       y       z     vdW  Elec       q    Type
                         _______ _______ _______ _____ _____    ______ ____

>  <TORSDO>
F 12

$$$$
=
 OpenBabel10272414533D

 37 40  0  0  1  0  0  0  0  0999 V2000
  189.4470  173.2230  136.4550 N   0  0  0  0  0  2  0  0  0  0  0  0
  190.8960  177.1290  138.6000 C   0  0  2  0  0  3  0  0  0  0  0  0
  190.9920  174.9800  137.2080 C   0  0  2  0  0  3  0  0  0  0  0  0
  189.9530  177.2880  139.7220 N   0  0  0  0  0  0  0  0  0  0  0  0
  190.2150  176.2530  137.5480 C   0  0  1  0  0  3  0  0  0  0  0  0
  192.4510  175.2850  136.8480 C   0  0  0  0  0  2  0  0  0  0  0  0
  188.9290  175.9020  138.1150 N   0  0  2  0  0  0  0  0  0  0  0  0
  187.3650  174.4520  137.0040 C   0  0  0  0  0  3  0  0  0  0  0  0
  192.3250  176.6930  138.9790 C   0  0  1  0  0  3  0  0  0  0  0  0
  193.1160  176.3640  137.7170 C   0  0  0  0  0  2  0  0  0  0  0  0
  187.9410  175.8280  137.0440 C   0  0  0  0  0  2  0  0  0  0  0  0
  193.0300  177.8100  139.7230 C   0  0  0  0  0  1  0  0  0  0  0  0
  188.6650  176.9340  139.1270 C   0  0  2  0  0  3  0  0  0  0  0  0
  190.3330  174.2960  136.0200 C   0  0  0  0  0  2  0  0  0  0  0  0
  188.0470  173.3240  136.7700 C   0  0  0  0  0  3  0  0  0  0  0  0
  190.2060  176.2980  140.7750 C   0  0  0  0  0  2  0  0  0  0  0  0
  189.6670  178.3360  142.1330 C   0  0  0  0  0  1  0  0  0  0  0  0
  189.8250  176.8270  142.1560 C   0  0  2  0  0  3  0  0  0  0  0  0
  190.8400  176.3950  143.2140 C   0  0  0  0  0  2  0  0  0  0  0  0
  189.1800  176.9430  145.0510 C   0  0  0  0  0  2  0  0  0  0  0  0
  190.6220  177.0750  144.5620 C   0  0  1  0  0  3  0  0  0  0  0  0
  191.5710  176.5780  145.5570 N   0  0  0  0  0  2  0  0  0  0  0  0
  192.2290  176.3550  147.8030 N   0  0  0  0  0  2  0  0  0  0  0  0
  189.9060  176.8790  147.4480 C   0  0  0  0  0  2  0  0  0  0  0  0
  191.3120  176.6900  146.9600 C   0  0  0  0  0  0  0  0  0  0  0  0
  189.0520  177.6100  146.4140 C   0  0  0  0  0  2  0  0  0  0  0  0
  187.9960  178.1980  138.5560 C   0  0  0  0  0  2  0  0  0  0  0  0
  185.5920  178.4170  138.1940 C   0  0  0  0  0  3  0  0  0  0  0  0
  186.6030  178.3580  139.0730 C   0  0  0  0  0  0  0  0  0  0  0  0
  183.4680  177.2480  138.7030 C   0  0  0  0  0  1  0  0  0  0  0  0
  184.1560  178.5930  138.5810 C   0  0  0  0  0  2  0  0  0  0  0  0
  186.3910  178.4820  140.5520 C   0  0  0  0  0  2  0  0  0  0  0  0
  185.5320  179.5460  140.8290 O   0  0  0  0  0  0  0  0  0  0  0  0
  184.8890  179.1760  142.0130 C   0  0  0  0  0  2  0  0  0  0  0  0
  185.7430  178.2840  142.7780 N   0  0  0  0  0  2  0  0  0  0  0  0
  184.2770  179.4500  144.3180 C   0  0  0  0  0  1  0  0  0  0  0  0
  185.2880  178.3340  144.1570 C   0  0  0  0  0  2  0  0  0  0  0  0
  1 15  1  0  0  0  0
  2  9  1  0  0  0  0
  2  4  1  1  0  0  0
  3 14  1  6  0  0  0
  3  5  1  0  0  0  0
  4 16  1  0  0  0  0
  5  7  1  0  0  0  0
  5  2  1  0  0  0  0
  6  3  1  0  0  0  0
  6 10  1  0  0  0  0
  7 13  1  0  0  0  0
  8 11  1  0  0  0  0
  9 12  1  0  0  0  0
 10  9  1  0  0  0  0
 11  7  1  0  0  0  0
 13  4  1  0  0  0  0
 14  1  1  0  0  0  0
 15  8  2  0  0  0  0
 16 18  1  0  0  0  0
 17 18  1  0  0  0  0
 18 19  1  0  0  0  0
 19 21  1  0  0  0  0
 20 26  1  0  0  0  0
 21 20  1  0  0  0  0
 21 22  1  0  0  0  0
 22 25  1  0  0  0  0
 25 24  1  0  0  0  0
 25 23  2  0  0  0  0
 26 24  1  0  0  0  0
 27 29  1  0  0  0  0
 27 13  1  0  0  0  0
 28 31  1  0  0  0  0
 28 29  2  0  0  0  0
 29 32  1  0  0  0  0
 31 30  1  0  0  0  0
 32 33  1  0  0  0  0
 33 34  1  0  0  0  0
 34 35  1  0  0  0  0
 35 37  1  0  0  0  0
 37 36  1  0  0  0  0
M  END
>  <MODEL>
2

>  <REMARK>
 VINA RESULT:      -6.3      1.401      2.293
  Name = 
  12 active torsions:
  status: ('A' for Active; 'I' for Inactive)
    1  A    between atoms: N_1  and  C_5
    2  A    between atoms: N_1  and  C_23
    3  A    between atoms: C_5  and  O_17
    4  A    between atoms: C_6  and  C_37
    5  A    between atoms: N_10  and  C_14
    6  A    between atoms: C_14  and  C_31
    7  A    between atoms: O_17  and  C_26
    8  A    between atoms: C_26  and  C_33
    9  A    between atoms: C_27  and  C_34
   10  A    between atoms: C_29  and  C_36
   11  A    between atoms: C_31  and  C_37
   12  A    between atoms: C_33  and  C_36
                            x       y       z     vdW  Elec       q    Type
                         _______ _______ _______ _____ _____    ______ ____

>  <TORSDO>
F 12

$$$$
=
 OpenBabel10272414533D

 37 40  0  0  1  0  0  0  0  0999 V2000
  190.4490  174.6440  136.8190 N   0  0  0  0  0  2  0  0  0  0  0  0
  190.5850  177.6990  140.3700 C   0  0  2  0  0  3  0  0  0  0  0  0
  191.4150  176.1350  138.5180 C   0  0  2  0  0  3  0  0  0  0  0  0
  189.3420  177.4320  141.1150 N   0  0  0  0  0  0  0  0  0  0  0  0
  190.3860  177.1830  138.9440 C   0  0  1  0  0  3  0  0  0  0  0  0
  192.8500  176.6180  138.7610 C   0  0  0  0  0  2  0  0  0  0  0  0
  189.0600  176.5990  138.9290 N   0  0  2  0  0  0  0  0  0  0  0  0
  188.1340  175.5140  136.9940 C   0  0  0  0  0  3  0  0  0  0  0  0
  191.8900  177.2390  141.0480 C   0  0  1  0  0  3  0  0  0  0  0  0
  193.0570  177.3840  140.0770 C   0  0  0  0  0  2  0  0  0  0  0  0
  188.4540  176.8290  137.6230 C   0  0  0  0  0  2  0  0  0  0  0  0
  192.1640  178.0850  142.2770 C   0  0  0  0  0  1  0  0  0  0  0  0
  188.3560  177.2260  140.0560 C   0  0  2  0  0  3  0  0  0  0  0  0
  191.2470  175.8460  137.0350 C   0  0  0  0  0  2  0  0  0  0  0  0
  189.0200  174.5630  136.6740 C   0  0  0  0  0  3  0  0  0  0  0  0
  189.4250  176.1660  141.8530 C   0  0  0  0  0  2  0  0  0  0  0  0
  187.4320  176.6780  143.2840 C   0  0  0  0  0  1  0  0  0  0  0  0
  188.9020  176.3030  143.2800 C   0  0  2  0  0  3  0  0  0  0  0  0
  189.7300  177.3090  144.0790 C   0  0  0  0  0  2  0  0  0  0  0  0
  191.4860  176.9610  145.8750 C   0  0  0  0  0  2  0  0  0  0  0  0
  190.0070  176.8520  145.5090 C   0  0  1  0  0  3  0  0  0  0  0  0
  189.1660  177.5760  146.4600 N   0  0  0  0  0  2  0  0  0  0  0  0
  188.6900  178.2210  148.6700 N   0  0  0  0  0  2  0  0  0  0  0  0
  190.9450  177.4790  148.2660 C   0  0  0  0  0  2  0  0  0  0  0  0
  189.5210  177.6840  147.8420 C   0  0  0  0  0  0  0  0  0  0  0  0
  191.6740  176.5250  147.3230 C   0  0  0  0  0  2  0  0  0  0  0  0
  187.6960  178.5710  139.6970 C   0  0  0  0  0  2  0  0  0  0  0  0
  185.6650  178.1580  138.4090 C   0  0  0  0  0  3  0  0  0  0  0  0
  186.2110  178.4410  139.6010 C   0  0  0  0  0  0  0  0  0  0  0  0
  183.9240  177.2700  136.8840 C   0  0  0  0  0  1  0  0  0  0  0  0
  184.1910  178.0190  138.1760 C   0  0  0  0  0  2  0  0  0  0  0  0
  185.3850  178.6660  140.8310 C   0  0  0  0  0  2  0  0  0  0  0  0
  186.0980  179.4250  141.7600 O   0  0  0  0  0  0  0  0  0  0  0  0
  185.1620  179.7350  142.7490 C   0  0  0  0  0  2  0  0  0  0  0  0
  184.5100  178.5200  143.2080 N   0  0  0  0  0  2  0  0  0  0  0  0
  184.8540  178.7360  145.5990 C   0  0  0  0  0  1  0  0  0  0  0  0
  183.8540  178.8360  144.4660 C   0  0  0  0  0  2  0  0  0  0  0  0
  1 14  1  0  0  0  0
  2  9  1  0  0  0  0
  2  4  1  1  0  0  0
  3 14  1  6  0  0  0
  3  6  1  0  0  0  0
  3  5  1  0  0  0  0
  4 16  1  0  0  0  0
  5  2  1  0  0  0  0
  6 10  1  0  0  0  0
  7  5  1  0  0  0  0
  7 13  1  0  0  0  0
  8 11  1  0  0  0  0
  9 12  1  0  0  0  0
 10  9  1  0  0  0  0
 11  7  1  0  0  0  0
 13  4  1  0  0  0  0
 15  1  1  0  0  0  0
 15  8  2  0  0  0  0
 16 18  1  0  0  0  0
 18 17  1  0  0  0  0
 18 19  1  0  0  0  0
 19 21  1  0  0  0  0
 20 26  1  0  0  0  0
 21 20  1  0  0  0  0
 21 22  1  0  0  0  0
 22 25  1  0  0  0  0
 25 24  1  0  0  0  0
 25 23  2  0  0  0  0
 26 24  1  0  0  0  0
 27 13  1  0  0  0  0
 28 29  2  0  0  0  0
 29 27  1  0  0  0  0
 29 32  1  0  0  0  0
 30 31  1  0  0  0  0
 31 28  1  0  0  0  0
 32 33  1  0  0  0  0
 33 34  1  0  0  0  0
 34 35  1  0  0  0  0
 35 37  1  0  0  0  0
 37 36  1  0  0  0  0
M  END
>  <MODEL>
3

>  <REMARK>
 VINA RESULT:      -5.8      1.668      2.720
  Name = 
  12 active torsions:
  status: ('A' for Active; 'I' for Inactive)
    1  A    between atoms: N_1  and  C_5
    2  A    between atoms: N_1  and  C_23
    3  A    between atoms: C_5  and  O_17
    4  A    between atoms: C_6  and  C_37
    5  A    between atoms: N_10  and  C_14
    6  A    between atoms: C_14  and  C_31
    7  A    between atoms: O_17  and  C_26
    8  A    between atoms: C_26  and  C_33
    9  A    between atoms: C_27  and  C_34
   10  A    between atoms: C_29  and  C_36
   11  A    between atoms: C_31  and  C_37
   12  A    between atoms: C_33  and  C_36
                            x       y       z     vdW  Elec       q    Type
                         _______ _______ _______ _____ _____    ______ ____

>  <TORSDO>
F 12

$$$$
=
 OpenBabel10272414533D

 37 40  0  0  1  0  0  0  0  0999 V2000
  193.9480  175.1480  134.6660 N   0  0  0  0  0  2  0  0  0  0  0  0
  189.6910  174.5910  136.5450 C   0  0  2  0  0  3  0  0  0  0  0  0
  191.6930  174.2230  134.9890 C   0  0  2  0  0  3  0  0  0  0  0  0
  189.3760  175.9160  137.1070 N   0  0  0  0  0  0  0  0  0  0  0  0
  191.2120  174.4970  136.4150 C   0  0  1  0  0  3  0  0  0  0  0  0
  190.9860  173.0080  134.3760 C   0  0  0  0  0  2  0  0  0  0  0  0
  191.7150  175.7800  136.8610 N   0  0  2  0  0  0  0  0  0  0  0  0
  194.0510  176.3470  136.8330 C   0  0  0  0  0  3  0  0  0  0  0  0
  188.9080  174.1910  135.2790 C   0  0  1  0  0  3  0  0  0  0  0  0
  189.4870  172.9070  134.6970 C   0  0  0  0  0  2  0  0  0  0  0  0
  192.9870  175.5810  137.5450 C   0  0  0  0  0  2  0  0  0  0  0  0
  187.4480  173.9620  135.6220 C   0  0  0  0  0  1  0  0  0  0  0  0
  190.6440  176.3380  137.6980 C   0  0  2  0  0  3  0  0  0  0  0  0
  193.1890  173.9510  135.0120 C   0  0  0  0  0  2  0  0  0  0  0  0
  194.4380  176.1570  135.5660 C   0  0  0  0  0  3  0  0  0  0  0  0
  189.0720  176.8860  136.0480 C   0  0  0  0  0  2  0  0  0  0  0  0
  188.5270  179.1270  137.0290 C   0  0  0  0  0  1  0  0  0  0  0  0
  187.9560  177.8430  136.4550 C   0  0  2  0  0  3  0  0  0  0  0  0
  186.9890  177.1820  137.4370 C   0  0  0  0  0  2  0  0  0  0  0  0
  184.4650  177.4080  137.5080 C   0  0  0  0  0  2  0  0  0  0  0  0
  185.8070  178.0750  137.8030 C   0  0  1  0  0  3  0  0  0  0  0  0
  185.8930  178.5100  139.1960 N   0  0  0  0  0  2  0  0  0  0  0  0
  184.8780  179.4480  141.0970 N   0  0  0  0  0  2  0  0  0  0  0  0
  183.3690  178.5580  139.4450 C   0  0  0  0  0  2  0  0  0  0  0  0
  184.7370  178.9540  139.9140 C   0  0  0  0  0  0  0  0  0  0  0  0
  183.3390  178.3420  137.9340 C   0  0  0  0  0  2  0  0  0  0  0  0
  190.7080  175.8770  139.1660 C   0  0  0  0  0  2  0  0  0  0  0  0
  189.0860  177.3120  140.2910 C   0  0  0  0  0  3  0  0  0  0  0  0
  190.3750  176.9910  140.1030 C   0  0  0  0  0  0  0  0  0  0  0  0
  187.8730  177.8580  142.3820 C   0  0  0  0  0  1  0  0  0  0  0  0
  188.6220  178.4180  141.1880 C   0  0  0  0  0  2  0  0  0  0  0  0
  191.4940  177.7330  140.7710 C   0  0  0  0  0  2  0  0  0  0  0  0
  192.0850  176.9350  141.7510 O   0  0  0  0  0  0  0  0  0  0  0  0
  191.7510  177.5580  142.9560 C   0  0  0  0  0  2  0  0  0  0  0  0
  191.0680  176.6150  143.8240 N   0  0  0  0  0  2  0  0  0  0  0  0
  191.8130  176.3390  146.1150 C   0  0  0  0  0  1  0  0  0  0  0  0
  191.0280  177.2050  145.1510 C   0  0  0  0  0  2  0  0  0  0  0  0
  1 14  1  0  0  0  0
  1 15  1  0  0  0  0
  2  4  1  6  0  0  0
  3  6  1  1  0  0  0
  3 14  1  0  0  0  0
  3  5  1  0  0  0  0
  4 13  1  0  0  0  0
  5  2  1  0  0  0  0
  5  7  1  0  0  0  0
  6 10  1  0  0  0  0
  7 11  1  0  0  0  0
  7 13  1  0  0  0  0
  8 11  1  0  0  0  0
  9 12  1  0  0  0  0
  9  2  1  0  0  0  0
 10  9  1  0  0  0  0
 13 27  1  0  0  0  0
 15  8  2  0  0  0  0
 16 18  1  0  0  0  0
 16  4  1  0  0  0  0
 18 17  1  0  0  0  0
 18 19  1  0  0  0  0
 19 21  1  0  0  0  0
 20 21  1  0  0  0  0
 20 26  1  0  0  0  0
 21 22  1  0  0  0  0
 22 25  1  0  0  0  0
 24 25  1  0  0  0  0
 25 23  2  0  0  0  0
 26 24  1  0  0  0  0
 27 29  1  0  0  0  0
 28 31  1  0  0  0  0
 29 28  2  0  0  0  0
 29 32  1  0  0  0  0
 31 30  1  0  0  0  0
 32 33  1  0  0  0  0
 33 34  1  0  0  0  0
 34 35  1  0  0  0  0
 35 37  1  0  0  0  0
 37 36  1  0  0  0  0
M  END
>  <MODEL>
4

>  <REMARK>
 VINA RESULT:      -5.8      2.507      7.093
  Name = 
  12 active torsions:
  status: ('A' for Active; 'I' for Inactive)
    1  A    between atoms: N_1  and  C_5
    2  A    between atoms: N_1  and  C_23
    3  A    between atoms: C_5  and  O_17
    4  A    between atoms: C_6  and  C_37
    5  A    between atoms: N_10  and  C_14
    6  A    between atoms: C_14  and  C_31
    7  A    between atoms: O_17  and  C_26
    8  A    between atoms: C_26  and  C_33
    9  A    between atoms: C_27  and  C_34
   10  A    between atoms: C_29  and  C_36
   11  A    between atoms: C_31  and  C_37
   12  A    between atoms: C_33  and  C_36
                            x       y       z     vdW  Elec       q    Type
                         _______ _______ _______ _____ _____    ______ ____

>  <TORSDO>
F 12

$$$$
=
 OpenBabel10272414533D

 37 40  0  0  1  0  0  0  0  0999 V2000
  188.4140  177.3690  141.7210 N   0  0  0  0  0  2  0  0  0  0  0  0
  189.5800  176.9390  137.2030 C   0  0  2  0  0  3  0  0  0  0  0  0
  188.2370  177.6060  139.2810 C   0  0  2  0  0  3  0  0  0  0  0  0
  190.3900  175.7090  137.1610 N   0  0  0  0  0  0  0  0  0  0  0  0
  189.6180  177.4660  138.6380 C   0  0  1  0  0  3  0  0  0  0  0  0
  187.2790  178.4120  138.3970 C   0  0  0  0  0  2  0  0  0  0  0  0
  190.4060  176.5030  139.3800 N   0  0  2  0  0  0  0  0  0  0  0  0
  190.7950  176.6800  141.7450 C   0  0  0  0  0  3  0  0  0  0  0  0
  188.1700  176.8400  136.5880 C   0  0  1  0  0  3  0  0  0  0  0  0
  187.3820  178.1090  136.8940 C   0  0  0  0  0  2  0  0  0  0  0  0
  191.1760  177.2030  140.4010 C   0  0  0  0  0  2  0  0  0  0  0  0
  188.2690  176.6730  135.0840 C   0  0  0  0  0  1  0  0  0  0  0  0
  191.2120  175.8100  138.3650 C   0  0  2  0  0  3  0  0  0  0  0  0
  188.3790  178.3200  140.6160 C   0  0  0  0  0  2  0  0  0  0  0  0
  189.5750  176.7410  142.2920 C   0  0  0  0  0  3  0  0  0  0  0  0
  189.5530  174.5150  137.3330 C   0  0  0  0  0  2  0  0  0  0  0  0
  190.8510  173.9640  135.2600 C   0  0  0  0  0  1  0  0  0  0  0  0
  189.7290  173.5260  136.1840 C   0  0  2  0  0  3  0  0  0  0  0  0
  188.4230  173.3350  135.4120 C   0  0  0  0  0  2  0  0  0  0  0  0
  186.3480  173.6760  136.8290 C   0  0  0  0  0  2  0  0  0  0  0  0
  187.3330  172.6650  136.2430 C   0  0  1  0  0  3  0  0  0  0  0  0
  186.6440  171.6360  135.4670 N   0  0  0  0  0  2  0  0  0  0  0  0
  184.8130  170.1890  135.1850 N   0  0  0  0  0  2  0  0  0  0  0  0
  184.4500  172.0470  136.6720 C   0  0  0  0  0  2  0  0  0  0  0  0
  185.3310  171.1850  135.8180 C   0  0  0  0  0  0  0  0  0  0  0  0
  185.2730  172.9300  137.6080 C   0  0  0  0  0  2  0  0  0  0  0  0
  192.5300  176.5320  138.0290 C   0  0  0  0  0  2  0  0  0  0  0  0
  193.8130  174.4810  137.7060 C   0  0  0  0  0  3  0  0  0  0  0  0
  193.4320  175.6680  137.2100 C   0  0  0  0  0  0  0  0  0  0  0  0
  193.9790  172.2760  136.5860 C   0  0  0  0  0  1  0  0  0  0  0  0
  194.7270  173.5310  136.9940 C   0  0  0  0  0  2  0  0  0  0  0  0
  193.9070  176.1740  135.8810 C   0  0  0  0  0  2  0  0  0  0  0  0
  194.9630  177.0700  136.0540 O   0  0  0  0  0  0  0  0  0  0  0  0
  195.9390  176.6370  135.1530 C   0  0  0  0  0  2  0  0  0  0  0  0
  197.2060  176.4680  135.8450 N   0  0  0  0  0  2  0  0  0  0  0  0
  196.9720  174.5750  134.3480 C   0  0  0  0  0  1  0  0  0  0  0  0
  197.9380  175.4250  135.1490 C   0  0  0  0  0  2  0  0  0  0  0  0
  1 15  1  0  0  0  0
  2  4  1  1  0  0  0
  2  5  1  0  0  0  0
  3  6  1  6  0  0  0
  3 14  1  0  0  0  0
  4 16  1  0  0  0  0
  4 13  1  0  0  0  0
  5  3  1  0  0  0  0
  5  7  1  0  0  0  0
  7 11  1  0  0  0  0
  8 15  2  0  0  0  0
  9 10  1  0  0  0  0
  9  2  1  0  0  0  0
 10  6  1  0  0  0  0
 11  8  1  0  0  0  0
 12  9  1  0  0  0  0
 13  7  1  0  0  0  0
 14  1  1  0  0  0  0
 17 18  1  0  0  0  0
 18 16  1  0  0  0  0
 19 18  1  0  0  0  0
 19 21  1  0  0  0  0
 20 26  1  0  0  0  0
 21 20  1  0  0  0  0
 22 25  1  0  0  0  0
 22 21  1  0  0  0  0
 23 25  2  0  0  0  0
 24 26  1  0  0  0  0
 25 24  1  0  0  0  0
 27 13  1  0  0  0  0
 29 28  2  0  0  0  0
 29 27  1  0  0  0  0
 30 31  1  0  0  0  0
 31 28  1  0  0  0  0
 32 33  1  0  0  0  0
 32 29  1  0  0  0  0
 34 35  1  0  0  0  0
 34 33  1  0  0  0  0
 36 37  1  0  0  0  0
 37 35  1  0  0  0  0
M  END
>  <MODEL>
5

>  <REMARK>
 VINA RESULT:      -5.8      3.683      9.592
  Name = 
  12 active torsions:
  status: ('A' for Active; 'I' for Inactive)
    1  A    between atoms: N_1  and  C_5
    2  A    between atoms: N_1  and  C_23
    3  A    between atoms: C_5  and  O_17
    4  A    between atoms: C_6  and  C_37
    5  A    between atoms: N_10  and  C_14
    6  A    between atoms: C_14  and  C_31
    7  A    between atoms: O_17  and  C_26
    8  A    between atoms: C_26  and  C_33
    9  A    between atoms: C_27  and  C_34
   10  A    between atoms: C_29  and  C_36
   11  A    between atoms: C_31  and  C_37
   12  A    between atoms: C_33  and  C_36
                            x       y       z     vdW  Elec       q    Type
                         _______ _______ _______ _____ _____    ______ ____

>  <TORSDO>
F 12

$$$$
=
 OpenBabel10272414533D

 37 40  0  0  1  0  0  0  0  0999 V2000
  191.2660  173.6260  136.8880 N   0  0  0  0  0  2  0  0  0  0  0  0
  190.8700  177.5570  139.4070 C   0  0  2  0  0  3  0  0  0  0  0  0
  191.9570  175.5240  138.2880 C   0  0  2  0  0  3  0  0  0  0  0  0
  189.4810  177.5270  139.8960 N   0  0  0  0  0  0  0  0  0  0  0  0
  190.9420  176.6620  138.1690 C   0  0  1  0  0  3  0  0  0  0  0  0
  193.3390  176.0380  138.7080 C   0  0  0  0  0  2  0  0  0  0  0  0
  189.6100  176.1130  138.0150 N   0  0  2  0  0  0  0  0  0  0  0  0
  189.0390  174.5370  136.2910 C   0  0  0  0  0  3  0  0  0  0  0  0
  191.9630  177.2910  140.4610 C   0  0  1  0  0  3  0  0  0  0  0  0
  193.3170  177.1430  139.7770 C   0  0  0  0  0  2  0  0  0  0  0  0
  189.3150  175.9720  136.5940 C   0  0  0  0  0  2  0  0  0  0  0  0
  192.0310  178.4460  141.4420 C   0  0  0  0  0  1  0  0  0  0  0  0
  188.7310  177.0420  138.7390 C   0  0  2  0  0  3  0  0  0  0  0  0
  192.0880  174.8290  136.9420 C   0  0  0  0  0  2  0  0  0  0  0  0
  189.9000  173.5240  136.4510 C   0  0  0  0  0  3  0  0  0  0  0  0
  189.3090  176.5190  140.9490 C   0  0  0  0  0  2  0  0  0  0  0  0
  188.5330  178.4910  142.2880 C   0  0  0  0  0  1  0  0  0  0  0  0
  188.3680  177.0010  142.0500 C   0  0  2  0  0  3  0  0  0  0  0  0
  188.5740  176.2100  143.3420 C   0  0  0  0  0  2  0  0  0  0  0  0
  187.9970  177.1890  145.6080 C   0  0  0  0  0  2  0  0  0  0  0  0
  189.0470  177.0790  144.5040 C   0  0  1  0  0  3  0  0  0  0  0  0
  190.3250  176.6000  145.0280 N   0  0  0  0  0  2  0  0  0  0  0  0
  191.9450  176.5850  146.7300 N   0  0  0  0  0  2  0  0  0  0  0  0
  189.7560  177.3430  147.3860 C   0  0  0  0  0  2  0  0  0  0  0  0
  190.7580  176.9210  146.3530 C   0  0  0  0  0  0  0  0  0  0  0  0
  188.5550  178.0360  146.7450 C   0  0  0  0  0  2  0  0  0  0  0  0
  188.2660  178.2380  137.8870 C   0  0  0  0  0  2  0  0  0  0  0  0
  186.7760  177.8840  135.9870 C   0  0  0  0  0  3  0  0  0  0  0  0
  186.9050  178.0040  137.3170 C   0  0  0  0  0  0  0  0  0  0  0  0
  185.2870  176.2020  134.9420 C   0  0  0  0  0  1  0  0  0  0  0  0
  185.4680  177.6660  135.2900 C   0  0  0  0  0  2  0  0  0  0  0  0
  185.7310  177.9490  138.2470 C   0  0  0  0  0  2  0  0  0  0  0  0
  185.5820  179.1670  138.9110 O   0  0  0  0  0  0  0  0  0  0  0  0
  184.7390  178.8780  139.9870 C   0  0  0  0  0  2  0  0  0  0  0  0
  185.2260  179.5400  141.1850 N   0  0  0  0  0  2  0  0  0  0  0  0
  183.4740  178.6550  142.6070 C   0  0  0  0  0  1  0  0  0  0  0  0
  184.9580  178.6530  142.3030 C   0  0  0  0  0  2  0  0  0  0  0  0
  1 14  1  0  0  0  0
  2  4  1  1  0  0  0
  2  9  1  0  0  0  0
  3 14  1  6  0  0  0
  3  6  1  0  0  0  0
  4 16  1  0  0  0  0
  5  3  1  0  0  0  0
  5  2  1  0  0  0  0
  6 10  1  0  0  0  0
  7  5  1  0  0  0  0
  7 13  1  0  0  0  0
  8 15  2  0  0  0  0
  8 11  1  0  0  0  0
  9 12  1  0  0  0  0
 10  9  1  0  0  0  0
 11  7  1  0  0  0  0
 13  4  1  0  0  0  0
 15  1  1  0  0  0  0
 16 18  1  0  0  0  0
 18 17  1  0  0  0  0
 18 19  1  0  0  0  0
 19 21  1  0  0  0  0
 20 26  1  0  0  0  0
 21 22  1  0  0  0  0
 21 20  1  0  0  0  0
 22 25  1  0  0  0  0
 25 23  2  0  0  0  0
 25 24  1  0  0  0  0
 26 24  1  0  0  0  0
 27 13  1  0  0  0  0
 28 29  2  0  0  0  0
 29 27  1  0  0  0  0
 29 32  1  0  0  0  0
 30 31  1  0  0  0  0
 31 28  1  0  0  0  0
 32 33  1  0  0  0  0
 33 34  1  0  0  0  0
 34 35  1  0  0  0  0
 35 37  1  0  0  0  0
 37 36  1  0  0  0  0
M  END
>  <MODEL>
6

>  <REMARK>
 VINA RESULT:      -5.7      1.508      2.812
  Name = 
  12 active torsions:
  status: ('A' for Active; 'I' for Inactive)
    1  A    between atoms: N_1  and  C_5
    2  A    between atoms: N_1  and  C_23
    3  A    between atoms: C_5  and  O_17
    4  A    between atoms: C_6  and  C_37
    5  A    between atoms: N_10  and  C_14
    6  A    between atoms: C_14  and  C_31
    7  A    between atoms: O_17  and  C_26
    8  A    between atoms: C_26  and  C_33
    9  A    between atoms: C_27  and  C_34
   10  A    between atoms: C_29  and  C_36
   11  A    between atoms: C_31  and  C_37
   12  A    between atoms: C_33  and  C_36
                            x       y       z     vdW  Elec       q    Type
                         _______ _______ _______ _____ _____    ______ ____

>  <TORSDO>
F 12

$$$$
=
 OpenBabel10272414533D

 37 40  0  0  1  0  0  0  0  0999 V2000
  190.8400  174.1030  136.9440 N   0  0  0  0  0  2  0  0  0  0  0  0
  190.5990  177.6910  139.9480 C   0  0  2  0  0  3  0  0  0  0  0  0
  191.6210  175.8630  138.4710 C   0  0  2  0  0  3  0  0  0  0  0  0
  189.2830  177.5270  140.5920 N   0  0  0  0  0  0  0  0  0  0  0  0
  190.5520  176.9490  138.6120 C   0  0  1  0  0  3  0  0  0  0  0  0
  193.0220  176.4020  138.7830 C   0  0  0  0  0  2  0  0  0  0  0  0
  189.2360  176.3480  138.5520 N   0  0  2  0  0  0  0  0  0  0  0  0
  188.5200  174.9510  136.7310 C   0  0  0  0  0  3  0  0  0  0  0  0
  191.8240  177.3670  140.8260 C   0  0  1  0  0  3  0  0  0  0  0  0
  193.0880  177.3740  139.9720 C   0  0  0  0  0  2  0  0  0  0  0  0
  188.7720  176.3550  137.1700 C   0  0  0  0  0  2  0  0  0  0  0  0
  191.9670  178.4040  141.9230 C   0  0  0  0  0  1  0  0  0  0  0  0
  188.4160  177.1370  139.4820 C   0  0  2  0  0  3  0  0  0  0  0  0
  191.6120  175.3360  137.0450 C   0  0  0  0  0  2  0  0  0  0  0  0
  189.4350  173.9760  136.6640 C   0  0  0  0  0  3  0  0  0  0  0  0
  189.2860  176.3970  141.5290 C   0  0  0  0  0  2  0  0  0  0  0  0
  190.0230  176.1910  143.9160 C   0  0  0  0  0  1  0  0  0  0  0  0
  189.0400  176.8490  142.9660 C   0  0  2  0  0  3  0  0  0  0  0  0
  187.5970  176.5790  143.3920 C   0  0  0  0  0  2  0  0  0  0  0  0
  185.5720  178.0360  142.9400 C   0  0  0  0  0  2  0  0  0  0  0  0
  186.8400  177.8490  143.7710 C   0  0  1  0  0  3  0  0  0  0  0  0
  186.5500  177.8760  145.2030 N   0  0  0  0  0  2  0  0  0  0  0  0
  185.3560  178.7750  147.0170 N   0  0  0  0  0  2  0  0  0  0  0  0
  184.3830  179.1460  144.8460 C   0  0  0  0  0  2  0  0  0  0  0  0
  185.4960  178.6830  145.7380 C   0  0  0  0  0  0  0  0  0  0  0  0
  184.8550  179.2990  143.4020 C   0  0  0  0  0  2  0  0  0  0  0  0
  187.7990  178.3950  138.8430 C   0  0  0  0  0  2  0  0  0  0  0  0
  186.0000  177.6630  137.3660 C   0  0  0  0  0  3  0  0  0  0  0  0
  186.3480  178.1990  138.5440 C   0  0  0  0  0  0  0  0  0  0  0  0
  184.5370  176.8150  135.5530 C   0  0  0  0  0  1  0  0  0  0  0  0
  184.5820  177.4310  136.9380 C   0  0  0  0  0  2  0  0  0  0  0  0
  185.3360  178.6420  139.5580 C   0  0  0  0  0  2  0  0  0  0  0  0
  184.8570  179.9130  139.2380 O   0  0  0  0  0  0  0  0  0  0  0  0
  183.4670  179.7680  139.2220 C   0  0  0  0  0  2  0  0  0  0  0  0
  183.0630  178.7910  140.2180 N   0  0  0  0  0  2  0  0  0  0  0  0
  181.0810  179.9970  139.5150 C   0  0  0  0  0  1  0  0  0  0  0  0
  181.6770  179.0680  140.5530 C   0  0  0  0  0  2  0  0  0  0  0  0
  1 14  1  0  0  0  0
  2  4  1  1  0  0  0
  2  9  1  0  0  0  0
  3 14  1  6  0  0  0
  3  5  1  0  0  0  0
  3  6  1  0  0  0  0
  4 16  1  0  0  0  0
  5  2  1  0  0  0  0
  6 10  1  0  0  0  0
  7  5  1  0  0  0  0
  7 13  1  0  0  0  0
  8 11  1  0  0  0  0
  9 12  1  0  0  0  0
 10  9  1  0  0  0  0
 11  7  1  0  0  0  0
 13  4  1  0  0  0  0
 15  8  2  0  0  0  0
 15  1  1  0  0  0  0
 16 18  1  0  0  0  0
 18 19  1  0  0  0  0
 18 17  1  0  0  0  0
 19 21  1  0  0  0  0
 20 26  1  0  0  0  0
 20 21  1  0  0  0  0
 21 22  1  0  0  0  0
 22 25  1  0  0  0  0
 24 25  1  0  0  0  0
 25 23  2  0  0  0  0
 26 24  1  0  0  0  0
 27 13  1  0  0  0  0
 28 29  2  0  0  0  0
 29 27  1  0  0  0  0
 29 32  1  0  0  0  0
 30 31  1  0  0  0  0
 31 28  1  0  0  0  0
 33 32  1  0  0  0  0
 34 33  1  0  0  0  0
 34 35  1  0  0  0  0
 35 37  1  0  0  0  0
 36 37  1  0  0  0  0
M  END
>  <MODEL>
7

>  <REMARK>
 VINA RESULT:      -5.7      1.950      3.279
  Name = 
  12 active torsions:
  status: ('A' for Active; 'I' for Inactive)
    1  A    between atoms: N_1  and  C_5
    2  A    between atoms: N_1  and  C_23
    3  A    between atoms: C_5  and  O_17
    4  A    between atoms: C_6  and  C_37
    5  A    between atoms: N_10  and  C_14
    6  A    between atoms: C_14  and  C_31
    7  A    between atoms: O_17  and  C_26
    8  A    between atoms: C_26  and  C_33
    9  A    between atoms: C_27  and  C_34
   10  A    between atoms: C_29  and  C_36
   11  A    between atoms: C_31  and  C_37
   12  A    between atoms: C_33  and  C_36
                            x       y       z     vdW  Elec       q    Type
                         _______ _______ _______ _____ _____    ______ ____

>  <TORSDO>
F 12

$$$$
=
 OpenBabel10272414533D

 37 40  0  0  1  0  0  0  0  0999 V2000
  185.1510  178.0680  144.4180 N   0  0  0  0  0  2  0  0  0  0  0  0
  182.4510  178.8420  140.6670 C   0  0  2  0  0  3  0  0  0  0  0  0
  183.1820  178.7640  143.1220 C   0  0  2  0  0  3  0  0  0  0  0  0
  182.9150  177.8470  139.6840 N   0  0  0  0  0  0  0  0  0  0  0  0
  183.5820  179.0560  141.6740 C   0  0  1  0  0  3  0  0  0  0  0  0
  181.9060  179.5150  143.5200 C   0  0  0  0  0  2  0  0  0  0  0  0
  184.6350  178.1480  141.2670 N   0  0  2  0  0  0  0  0  0  0  0  0
  186.6940  177.9080  142.4850 C   0  0  0  0  0  3  0  0  0  0  0  0
  181.0680  178.5770  141.2930 C   0  0  1  0  0  3  0  0  0  0  0  0
  180.8200  179.5600  142.4330 C   0  0  0  0  0  2  0  0  0  0  0  0
  185.9270  178.7680  141.5360 C   0  0  0  0  0  2  0  0  0  0  0  0
  179.9820  178.7520  140.2490 C   0  0  0  0  0  1  0  0  0  0  0  0
  184.3670  177.8670  139.8500 C   0  0  2  0  0  3  0  0  0  0  0  0
  184.3070  179.1990  144.0470 C   0  0  0  0  0  2  0  0  0  0  0  0
  186.3230  177.5950  143.7320 C   0  0  0  0  0  3  0  0  0  0  0  0
  182.4790  176.4940  140.0500 C   0  0  0  0  0  2  0  0  0  0  0  0
  180.7490  174.7380  139.5950 C   0  0  0  0  0  1  0  0  0  0  0  0
  181.5270  175.9040  139.0130 C   0  0  2  0  0  3  0  0  0  0  0  0
  182.2750  175.4900  137.7460 C   0  0  0  0  0  2  0  0  0  0  0  0
  182.3010  173.1580  136.7500 C   0  0  0  0  0  2  0  0  0  0  0  0
  182.8590  174.0830  137.8310 C   0  0  1  0  0  3  0  0  0  0  0  0
  184.3200  174.1210  137.7990 N   0  0  0  0  0  2  0  0  0  0  0  0
  186.3750  173.0160  137.5200 N   0  0  0  0  0  2  0  0  0  0  0  0
  184.4560  171.8900  136.6000 C   0  0  0  0  0  2  0  0  0  0  0  0
  185.0910  172.9790  137.4120 C   0  0  0  0  0  0  0  0  0  0  0  0
  182.9580  171.7900  136.8770 C   0  0  0  0  0  2  0  0  0  0  0  0
  184.9810  178.9050  138.8910 C   0  0  0  0  0  2  0  0  0  0  0  0
  185.2130  177.5760  136.8580 C   0  0  0  0  0  3  0  0  0  0  0  0
  185.8210  178.2510  137.8440 C   0  0  0  0  0  0  0  0  0  0  0  0
  184.9750  176.0390  134.9280 C   0  0  0  0  0  1  0  0  0  0  0  0
  185.9400  176.8620  135.7600 C   0  0  0  0  0  2  0  0  0  0  0  0
  187.3140  178.3410  137.9550 C   0  0  0  0  0  2  0  0  0  0  0  0
  187.7900  177.3930  138.8610 O   0  0  0  0  0  0  0  0  0  0  0  0
  188.9210  177.9870  139.4260 C   0  0  0  0  0  2  0  0  0  0  0  0
  189.8390  176.9590  139.8840 N   0  0  0  0  0  2  0  0  0  0  0  0
  190.1210  176.3100  142.2030 C   0  0  0  0  0  1  0  0  0  0  0  0
  190.3590  177.3910  141.1700 C   0  0  0  0  0  2  0  0  0  0  0  0
  2  4  1  6  0  0  0
  2  9  1  0  0  0  0
  2  5  1  0  0  0  0
  3  6  1  1  0  0  0
  3 14  1  0  0  0  0
  4 13  1  0  0  0  0
  4 16  1  0  0  0  0
  5  3  1  0  0  0  0
  7 11  1  0  0  0  0
  7  5  1  0  0  0  0
  8 15  2  0  0  0  0
  9 10  1  0  0  0  0
 10  6  1  0  0  0  0
 11  8  1  0  0  0  0
 12  9  1  0  0  0  0
 13  7  1  0  0  0  0
 14  1  1  0  0  0  0
 15  1  1  0  0  0  0
 18 17  1  0  0  0  0
 18 16  1  0  0  0  0
 19 21  1  0  0  0  0
 19 18  1  0  0  0  0
 20 26  1  0  0  0  0
 20 21  1  0  0  0  0
 22 21  1  0  0  0  0
 24 26  1  0  0  0  0
 24 25  1  0  0  0  0
 25 23  2  0  0  0  0
 25 22  1  0  0  0  0
 27 13  1  0  0  0  0
 28 29  2  0  0  0  0
 29 32  1  0  0  0  0
 29 27  1  0  0  0  0
 30 31  1  0  0  0  0
 31 28  1  0  0  0  0
 32 33  1  0  0  0  0
 33 34  1  0  0  0  0
 34 35  1  0  0  0  0
 35 37  1  0  0  0  0
 37 36  1  0  0  0  0
M  END
>  <MODEL>
8

>  <REMARK>
 VINA RESULT:      -5.6      2.975      9.004
  Name = 
  12 active torsions:
  status: ('A' for Active; 'I' for Inactive)
    1  A    between atoms: N_1  and  C_5
    2  A    between atoms: N_1  and  C_23
    3  A    between atoms: C_5  and  O_17
    4  A    between atoms: C_6  and  C_37
    5  A    between atoms: N_10  and  C_14
    6  A    between atoms: C_14  and  C_31
    7  A    between atoms: O_17  and  C_26
    8  A    between atoms: C_26  and  C_33
    9  A    between atoms: C_27  and  C_34
   10  A    between atoms: C_29  and  C_36
   11  A    between atoms: C_31  and  C_37
   12  A    between atoms: C_33  and  C_36
                            x       y       z     vdW  Elec       q    Type
                         _______ _______ _______ _____ _____    ______ ____

>  <TORSDO>
F 12

$$$$
=
 OpenBabel10272414533D

 37 40  0  0  1  0  0  0  0  0999 V2000
  182.2090  178.5310  141.2470 N   0  0  0  0  0  2  0  0  0  0  0  0
  183.4710  177.6100  136.8290 C   0  0  2  0  0  3  0  0  0  0  0  0
  181.9710  178.1860  138.8250 C   0  0  2  0  0  3  0  0  0  0  0  0
  184.6610  176.7530  136.9720 N   0  0  0  0  0  0  0  0  0  0  0  0
  183.3160  178.4010  138.1290 C   0  0  1  0  0  3  0  0  0  0  0  0
  180.7940  178.4130  137.8680 C   0  0  0  0  0  2  0  0  0  0  0  0
  184.3880  177.9420  138.9880 N   0  0  2  0  0  0  0  0  0  0  0  0
  184.6800  178.7240  141.2430 C   0  0  0  0  0  3  0  0  0  0  0  0
  182.1890  176.9080  136.3420 C   0  0  1  0  0  3  0  0  0  0  0  0
  181.0040  177.8620  136.4490 C   0  0  0  0  0  2  0  0  0  0  0  0
  184.8590  179.0580  139.7990 C   0  0  0  0  0  2  0  0  0  0  0  0
  182.3470  176.4800  134.8960 C   0  0  0  0  0  1  0  0  0  0  0  0
  185.3910  177.3760  138.0750 C   0  0  2  0  0  3  0  0  0  0  0  0
  181.8470  179.1630  139.9840 C   0  0  0  0  0  2  0  0  0  0  0  0
  183.5130  178.4720  141.8490 C   0  0  0  0  0  3  0  0  0  0  0  0
  184.2960  175.4070  137.4290 C   0  0  0  0  0  2  0  0  0  0  0  0
  185.5790  174.4660  135.4910 C   0  0  0  0  0  1  0  0  0  0  0  0
  185.3120  174.3590  136.9810 C   0  0  2  0  0  3  0  0  0  0  0  0
  184.8590  172.9490  137.3610 C   0  0  0  0  0  2  0  0  0  0  0  0
  184.4830  170.9510  135.8470 C   0  0  0  0  0  2  0  0  0  0  0  0
  183.9580  172.3090  136.3090 C   0  0  1  0  0  3  0  0  0  0  0  0
  182.5810  172.2140  136.7890 N   0  0  0  0  0  2  0  0  0  0  0  0
  180.4180  171.3160  136.5920 N   0  0  0  0  0  2  0  0  0  0  0  0
  182.1620  170.0800  135.4840 C   0  0  0  0  0  2  0  0  0  0  0  0
  181.6540  171.2800  136.2270 C   0  0  0  0  0  0  0  0  0  0  0  0
  183.5130  170.3610  134.8300 C   0  0  0  0  0  2  0  0  0  0  0  0
  186.3740  178.4230  137.5170 C   0  0  0  0  0  2  0  0  0  0  0  0
  188.0290  176.9740  136.4600 C   0  0  0  0  0  3  0  0  0  0  0  0
  187.7590  177.8720  137.4190 C   0  0  0  0  0  0  0  0  0  0  0  0
  189.4170  174.9790  136.9450 C   0  0  0  0  0  1  0  0  0  0  0  0
  189.3700  176.3340  136.2660 C   0  0  0  0  0  2  0  0  0  0  0  0
  188.7850  178.3150  138.4180 C   0  0  0  0  0  2  0  0  0  0  0  0
  188.1630  178.7620  139.5840 O   0  0  0  0  0  0  0  0  0  0  0  0
  188.6110  177.8850  140.5760 C   0  0  0  0  0  2  0  0  0  0  0  0
  188.1820  178.3590  141.8800 N   0  0  0  0  0  2  0  0  0  0  0  0
  187.2580  177.4650  143.9360 C   0  0  0  0  0  1  0  0  0  0  0  0
  188.2040  177.2180  142.7790 C   0  0  0  0  0  2  0  0  0  0  0  0
  1 15  1  0  0  0  0
  2  4  1  1  0  0  0
  2  5  1  0  0  0  0
  3  6  1  6  0  0  0
  3 14  1  0  0  0  0
  4 16  1  0  0  0  0
  4 13  1  0  0  0  0
  5  3  1  0  0  0  0
  5  7  1  0  0  0  0
  7 11  1  0  0  0  0
  8 15  2  0  0  0  0
  9 10  1  0  0  0  0
  9  2  1  0  0  0  0
 10  6  1  0  0  0  0
 11  8  1  0  0  0  0
 12  9  1  0  0  0  0
 13  7  1  0  0  0  0
 14  1  1  0  0  0  0
 17 18  1  0  0  0  0
 18 19  1  0  0  0  0
 18 16  1  0  0  0  0
 20 21  1  0  0  0  0
 21 22  1  0  0  0  0
 21 19  1  0  0  0  0
 24 25  1  0  0  0  0
 25 23  2  0  0  0  0
 25 22  1  0  0  0  0
 26 24  1  0  0  0  0
 26 20  1  0  0  0  0
 27 13  1  0  0  0  0
 28 29  2  0  0  0  0
 29 27  1  0  0  0  0
 29 32  1  0  0  0  0
 31 28  1  0  0  0  0
 31 30  1  0  0  0  0
 32 33  1  0  0  0  0
 33 34  1  0  0  0  0
 34 35  1  0  0  0  0
 35 37  1  0  0  0  0
 37 36  1  0  0  0  0
M  END
>  <MODEL>
9

>  <REMARK>
 VINA RESULT:      -5.3      3.499      9.309
  Name = 
  12 active torsions:
  status: ('A' for Active; 'I' for Inactive)
    1  A    between atoms: N_1  and  C_5
    2  A    between atoms: N_1  and  C_23
    3  A    between atoms: C_5  and  O_17
    4  A    between atoms: C_6  and  C_37
    5  A    between atoms: N_10  and  C_14
    6  A    between atoms: C_14  and  C_31
    7  A    between atoms: O_17  and  C_26
    8  A    between atoms: C_26  and  C_33
    9  A    between atoms: C_27  and  C_34
   10  A    between atoms: C_29  and  C_36
   11  A    between atoms: C_31  and  C_37
   12  A    between atoms: C_33  and  C_36
                            x       y       z     vdW  Elec       q    Type
                         _______ _______ _______ _____ _____    ______ ____

>  <TORSDO>
F 12

$$$$
