=
 OpenBabel10272400173D

 31 35  0  0  1  0  0  0  0  0999 V2000
  185.1530  178.4550  142.7030 C   0  0  0  0  0  0  0  0  0  0  0  0
  188.6880  177.9140  141.5100 C   0  0  0  0  0  0  0  0  0  0  0  0
  189.4580  177.5430  142.6630 C   0  0  0  0  0  0  0  0  0  0  0  0
  189.6770  177.0990  145.0590 C   0  0  0  0  0  0  0  0  0  0  0  0
  187.2890  178.2070  141.5380 C   0  0  0  0  0  0  0  0  0  0  0  0
  184.5190  178.7680  141.5020 C   0  0  0  0  0  3  0  0  0  0  0  0
  188.9050  177.4640  143.9550 C   0  0  0  0  0  3  0  0  0  0  0  0
  188.6460  178.3580  139.0870 C   0  0  0  0  0  0  0  0  0  0  0  0
  184.3740  178.4130  143.9660 C   0  0  0  0  0  1  0  0  0  0  0  0
  191.4470  177.2940  141.2760 C   0  0  0  0  0  3  0  0  0  0  0  0
  189.0990  177.0310  146.3190 O   0  0  0  0  0  1  0  0  0  0  0  0
  187.3130  178.5840  139.1650 N   0  0  0  0  0  0  0  0  0  0  0  0
  189.3550  177.9810  140.2490 C   0  0  0  0  0  0  0  0  0  0  0  0
  186.5210  178.1760  142.7170 C   0  0  0  0  0  3  0  0  0  0  0  0
  191.0290  176.8020  144.8960 C   0  0  0  0  0  3  0  0  0  0  0  0
  186.6280  178.5320  140.3290 C   0  0  0  0  0  0  0  0  0  0  0  0
  185.2560  178.8060  140.3180 C   0  0  0  0  0  3  0  0  0  0  0  0
  190.7160  177.6600  140.1570 C   0  0  0  0  0  3  0  0  0  0  0  0
  190.8370  177.2380  142.5210 C   0  0  0  0  0  0  0  0  0  0  0  0
  191.6070  176.8720  143.6290 C   0  0  0  0  0  3  0  0  0  0  0  0
  190.1070  176.9130  135.9090 O   0  0  0  0  0  1  0  0  0  0  0  0
  188.2420  178.3220  136.6160 C   0  0  0  0  0  2  0  0  0  0  0  0
  189.1240  177.1310  136.8790 C   0  0  2  0  0  0  0  0  0  0  0  0
  189.3000  178.3980  137.7220 C   0  0  2  0  0  3  0  0  0  0  0  0
  188.4730  175.9490  137.4840 N   0  0  0  0  0  0  0  0  0  0  0  0
  187.1940  175.6090  136.8210 C   0  0  0  0  0  0  0  0  0  0  0  0
  187.2780  175.8680  135.4630 F   0  0  0  0  0  0  0  0  0  0  0  0
  186.1440  176.3470  137.3450 F   0  0  0  0  0  0  0  0  0  0  0  0
  186.8860  174.1290  136.9710 C   0  0  0  0  0  1  0  0  0  0  0  0
  190.4800  174.9890  138.2110 O   0  0  0  0  0  1  0  0  0  0  0  0
  189.3980  174.8230  137.3460 C   0  0  0  0  0  2  0  0  0  0  0  0
  1 14  1  0  0  0  0
  1  9  1  0  0  0  0
  2  5  1  0  0  0  0
  2  3  1  0  0  0  0
  3  7  1  0  0  0  0
  4 11  1  0  0  0  0
  5 14  2  0  0  0  0
  6  1  2  0  0  0  0
  7  4  2  0  0  0  0
  8 12  2  0  0  0  0
  8 13  1  0  0  0  0
 10 19  1  0  0  0  0
 12 16  1  0  0  0  0
 13  2  2  0  0  0  0
 15  4  1  0  0  0  0
 16  5  1  0  0  0  0
 17 16  2  0  0  0  0
 17  6  1  0  0  0  0
 18 13  1  0  0  0  0
 18 10  2  0  0  0  0
 19  3  2  0  0  0  0
 19 20  1  0  0  0  0
 20 15  2  0  0  0  0
 22 23  1  0  0  0  0
 22 24  1  0  0  0  0
 23 21  1  6  0  0  0
 23 25  1  0  0  0  0
 23 24  1  0  0  0  0
 24  8  1  1  0  0  0
 26 29  1  0  0  0  0
 26 28  1  0  0  0  0
 26 25  1  0  0  0  0
 27 26  1  0  0  0  0
 31 25  1  0  0  0  0
 31 30  1  0  0  0  0
M  END
>  <MODEL>
1

>  <REMARK>
 VINA RESULT:      -9.1      0.000      0.000
  Name = 
  4 active torsions:
  status: ('A' for Active; 'I' for Inactive)
    1  A    between atoms: C_1  and  N_19
    2  A    between atoms: C_7  and  N_19
    3  A    between atoms: C_15  and  C_23
    4  A    between atoms: N_19  and  C_22
                            x       y       z     vdW  Elec       q    Type
                         _______ _______ _______ _____ _____    ______ ____

>  <TORSDO>
F 4

$$$$
=
 OpenBabel10272400173D

 31 35  0  0  1  0  0  0  0  0999 V2000
  189.5500  177.5250  141.4380 C   0  0  0  0  0  0  0  0  0  0  0  0
  186.0590  178.3890  142.5710 C   0  0  0  0  0  0  0  0  0  0  0  0
  186.0470  178.2570  143.9990 C   0  0  0  0  0  0  0  0  0  0  0  0
  187.1320  177.7210  146.1260 C   0  0  0  0  0  0  0  0  0  0  0  0
  187.2060  178.1480  141.7520 C   0  0  0  0  0  0  0  0  0  0  0  0
  189.4340  177.7250  140.0650 C   0  0  0  0  0  3  0  0  0  0  0  0
  187.1720  177.8400  144.7360 C   0  0  0  0  0  3  0  0  0  0  0  0
  184.8100  178.9300  140.5170 C   0  0  0  0  0  0  0  0  0  0  0  0
  190.8450  177.0910  142.0200 C   0  0  0  0  0  1  0  0  0  0  0  0
  183.7170  178.9720  144.0640 C   0  0  0  0  0  3  0  0  0  0  0  0
  188.2610  177.3070  146.8200 O   0  0  0  0  0  1  0  0  0  0  0  0
  185.9380  178.7290  139.7950 N   0  0  0  0  0  0  0  0  0  0  0  0
  184.8550  178.8020  141.9240 C   0  0  0  0  0  0  0  0  0  0  0  0
  188.4480  177.7370  142.2700 C   0  0  0  0  0  3  0  0  0  0  0  0
  185.9600  178.0200  146.8180 C   0  0  0  0  0  3  0  0  0  0  0  0
  187.1070  178.3410  140.3520 C   0  0  0  0  0  0  0  0  0  0  0  0
  188.2140  178.1330  139.5230 C   0  0  0  0  0  3  0  0  0  0  0  0
  183.7150  179.0940  142.6830 C   0  0  0  0  0  3  0  0  0  0  0  0
  184.8630  178.5540  144.7250 C   0  0  0  0  0  0  0  0  0  0  0  0
  184.8280  178.4350  146.1180 C   0  0  0  0  0  3  0  0  0  0  0  0
  182.2730  179.0440  137.7120 O   0  0  0  0  0  1  0  0  0  0  0  0
  182.3840  178.4860  140.0880 C   0  0  0  0  0  2  0  0  0  0  0  0
  183.0290  178.4490  138.7270 C   0  0  2  0  0  0  0  0  0  0  0  0
  183.5710  179.4090  139.7920 C   0  0  2  0  0  3  0  0  0  0  0  0
  183.8010  177.2330  138.3960 N   0  0  0  0  0  0  0  0  0  0  0  0
  183.0180  175.9940  138.6050 C   0  0  0  0  0  0  0  0  0  0  0  0
  181.7500  176.1350  138.0640 F   0  0  0  0  0  0  0  0  0  0  0  0
  182.8900  175.7010  139.9540 F   0  0  0  0  0  0  0  0  0  0  0  0
  183.6710  174.8180  137.8990 C   0  0  0  0  0  1  0  0  0  0  0  0
  185.5450  177.5950  136.8780 O   0  0  0  0  0  1  0  0  0  0  0  0
  184.1800  177.3280  136.9860 C   0  0  0  0  0  2  0  0  0  0  0  0
  1  9  1  0  0  0  0
  1 14  1  0  0  0  0
  2  3  1  0  0  0  0
  3 19  2  0  0  0  0
  3  7  1  0  0  0  0
  4 15  1  0  0  0  0
  4 11  1  0  0  0  0
  5 14  2  0  0  0  0
  5  2  1  0  0  0  0
  6  1  2  0  0  0  0
  7  4  2  0  0  0  0
  8 13  1  0  0  0  0
 10 19  1  0  0  0  0
 12 16  1  0  0  0  0
 12  8  2  0  0  0  0
 13  2  2  0  0  0  0
 13 18  1  0  0  0  0
 16  5  1  0  0  0  0
 17  6  1  0  0  0  0
 17 16  2  0  0  0  0
 18 10  2  0  0  0  0
 19 20  1  0  0  0  0
 20 15  2  0  0  0  0
 23 21  1  6  0  0  0
 23 24  1  0  0  0  0
 23 22  1  0  0  0  0
 24 22  1  0  0  0  0
 24  8  1  1  0  0  0
 25 26  1  0  0  0  0
 25 23  1  0  0  0  0
 26 28  1  0  0  0  0
 27 26  1  0  0  0  0
 29 26  1  0  0  0  0
 30 31  1  0  0  0  0
 31 25  1  0  0  0  0
M  END
>  <MODEL>
2

>  <REMARK>
 VINA RESULT:      -9.1      2.788      5.140
  Name = 
  4 active torsions:
  status: ('A' for Active; 'I' for Inactive)
    1  A    between atoms: C_1  and  N_19
    2  A    between atoms: C_7  and  N_19
    3  A    between atoms: C_15  and  C_23
    4  A    between atoms: N_19  and  C_22
                            x       y       z     vdW  Elec       q    Type
                         _______ _______ _______ _____ _____    ______ ____

>  <TORSDO>
F 4

$$$$
=
 OpenBabel10272400173D

 31 35  0  0  1  0  0  0  0  0999 V2000
  189.0580  177.6840  141.1590 C   0  0  0  0  0  0  0  0  0  0  0  0
  186.4970  178.1780  143.8800 C   0  0  0  0  0  0  0  0  0  0  0  0
  187.1580  177.8960  145.1210 C   0  0  0  0  0  0  0  0  0  0  0  0
  189.1200  177.2180  146.4160 C   0  0  0  0  0  0  0  0  0  0  0  0
  187.1270  178.1050  142.5990 C   0  0  0  0  0  0  0  0  0  0  0  0
  188.3090  178.0180  140.0330 C   0  0  0  0  0  3  0  0  0  0  0  0
  188.5020  177.4840  145.1930 C   0  0  0  0  0  3  0  0  0  0  0  0
  184.4230  178.8430  142.7260 C   0  0  0  0  0  0  0  0  0  0  0  0
  190.4810  177.2830  141.0130 C   0  0  0  0  0  1  0  0  0  0  0  0
  185.1210  178.4370  146.3490 C   0  0  0  0  0  3  0  0  0  0  0  0
  190.4470  176.8140  146.4490 O   0  0  0  0  0  1  0  0  0  0  0  0
  185.0830  178.7980  141.5440 N   0  0  0  0  0  0  0  0  0  0  0  0
  185.1240  178.5720  143.9230 C   0  0  0  0  0  0  0  0  0  0  0  0
  188.4730  177.7300  142.4250 C   0  0  0  0  0  3  0  0  0  0  0  0
  188.4050  177.3600  147.6040 C   0  0  0  0  0  3  0  0  0  0  0  0
  186.3810  178.4360  141.4420 C   0  0  0  0  0  0  0  0  0  0  0  0
  186.9730  178.3940  140.1750 C   0  0  0  0  0  3  0  0  0  0  0  0
  184.4700  178.7020  145.1540 C   0  0  0  0  0  3  0  0  0  0  0  0
  186.4480  178.0330  146.3450 C   0  0  0  0  0  0  0  0  0  0  0  0
  187.0720  177.7670  147.5670 C   0  0  0  0  0  3  0  0  0  0  0  0
  181.1610  179.9910  141.1890 O   0  0  0  0  0  1  0  0  0  0  0  0
  182.0360  178.1230  142.4980 C   0  0  0  0  0  2  0  0  0  0  0  0
  182.2420  179.1280  141.3950 C   0  0  2  0  0  0  0  0  0  0  0  0
  182.9820  179.3070  142.7250 C   0  0  2  0  0  3  0  0  0  0  0  0
  182.9950  178.6630  140.2110 N   0  0  0  0  0  0  0  0  0  0  0  0
  182.4510  177.4020  139.6580 C   0  0  0  0  0  0  0  0  0  0  0  0
  181.0850  177.3350  139.8790 F   0  0  0  0  0  0  0  0  0  0  0  0
  183.0460  176.2960  140.2460 F   0  0  0  0  0  0  0  0  0  0  0  0
  182.6590  177.3390  138.1540 C   0  0  0  0  0  1  0  0  0  0  0  0
  184.1300  180.3570  139.0630 O   0  0  0  0  0  1  0  0  0  0  0  0
  182.9010  179.7120  139.1950 C   0  0  0  0  0  2  0  0  0  0  0  0
  1 14  1  0  0  0  0
  2 13  2  0  0  0  0
  2  3  1  0  0  0  0
  3  7  2  0  0  0  0
  3 19  1  0  0  0  0
  4 11  1  0  0  0  0
  4 15  2  0  0  0  0
  5  2  1  0  0  0  0
  6 17  1  0  0  0  0
  6  1  2  0  0  0  0
  7  4  1  0  0  0  0
  8 13  1  0  0  0  0
  9  1  1  0  0  0  0
 12  8  2  0  0  0  0
 13 18  1  0  0  0  0
 14  5  2  0  0  0  0
 16 12  1  0  0  0  0
 16  5  1  0  0  0  0
 17 16  2  0  0  0  0
 18 10  2  0  0  0  0
 19 10  1  0  0  0  0
 19 20  2  0  0  0  0
 20 15  1  0  0  0  0
 22 24  1  0  0  0  0
 23 21  1  6  0  0  0
 23 22  1  0  0  0  0
 23 24  1  0  0  0  0
 24  8  1  6  0  0  0
 25 23  1  0  0  0  0
 26 27  1  0  0  0  0
 26 25  1  0  0  0  0
 26 28  1  0  0  0  0
 29 26  1  0  0  0  0
 30 31  1  0  0  0  0
 31 25  1  0  0  0  0
M  END
>  <MODEL>
3

>  <REMARK>
 VINA RESULT:      -9.0      3.406      5.862
  Name = 
  4 active torsions:
  status: ('A' for Active; 'I' for Inactive)
    1  A    between atoms: C_1  and  N_19
    2  A    between atoms: C_7  and  N_19
    3  A    between atoms: C_15  and  C_23
    4  A    between atoms: N_19  and  C_22
                            x       y       z     vdW  Elec       q    Type
                         _______ _______ _______ _____ _____    ______ ____

>  <TORSDO>
F 4

$$$$
=
 OpenBabel10272400173D

 31 35  0  0  1  0  0  0  0  0999 V2000
  184.6710  178.6600  142.9790 C   0  0  0  0  0  0  0  0  0  0  0  0
  188.3300  177.8870  142.5010 C   0  0  0  0  0  0  0  0  0  0  0  0
  188.8580  177.5850  143.7990 C   0  0  0  0  0  0  0  0  0  0  0  0
  188.6180  177.3320  146.2210 C   0  0  0  0  0  0  0  0  0  0  0  0
  186.9660  178.2350  142.2490 C   0  0  0  0  0  0  0  0  0  0  0  0
  184.2820  178.8960  141.6630 C   0  0  0  0  0  3  0  0  0  0  0  0
  188.0780  177.6340  144.9700 C   0  0  0  0  0  3  0  0  0  0  0  0
  188.7490  178.1300  140.0850 C   0  0  0  0  0  0  0  0  0  0  0  0
  183.6760  178.7530  144.0780 C   0  0  0  0  0  1  0  0  0  0  0  0
  191.0490  177.1450  142.8250 C   0  0  0  0  0  3  0  0  0  0  0  0
  187.8200  177.3910  147.3550 O   0  0  0  0  0  1  0  0  0  0  0  0
  187.4370  178.4130  139.8990 N   0  0  0  0  0  0  0  0  0  0  0  0
  189.2160  177.8240  141.3820 C   0  0  0  0  0  0  0  0  0  0  0  0
  185.9970  178.3310  143.2650 C   0  0  0  0  0  3  0  0  0  0  0  0
  189.9600  176.9710  146.3320 C   0  0  0  0  0  3  0  0  0  0  0  0
  186.5510  178.4840  140.9180 C   0  0  0  0  0  0  0  0  0  0  0  0
  185.2200  178.8080  140.6340 C   0  0  0  0  0  3  0  0  0  0  0  0
  190.5520  177.4450  141.5660 C   0  0  0  0  0  3  0  0  0  0  0  0
  190.2230  177.2160  143.9370 C   0  0  0  0  0  0  0  0  0  0  0  0
  190.7600  176.9140  145.1920 C   0  0  0  0  0  3  0  0  0  0  0  0
  189.7630  176.9690  136.6290 O   0  0  0  0  0  1  0  0  0  0  0  0
  189.2000  179.0400  137.7960 C   0  0  0  0  0  2  0  0  0  0  0  0
  188.9370  177.5720  137.5820 C   0  0  2  0  0  0  0  0  0  0  0  0
  189.6390  178.0320  138.8640 C   0  0  2  0  0  3  0  0  0  0  0  0
  187.5260  177.1380  137.6520 N   0  0  0  0  0  0  0  0  0  0  0  0
  186.6490  177.9290  136.7580 C   0  0  0  0  0  0  0  0  0  0  0  0
  187.1600  179.2050  136.5960 F   0  0  0  0  0  0  0  0  0  0  0  0
  185.3660  178.0320  137.2740 F   0  0  0  0  0  0  0  0  0  0  0  0
  186.5800  177.3000  135.3760 C   0  0  0  0  0  1  0  0  0  0  0  0
  186.3120  175.1390  137.7210 O   0  0  0  0  0  1  0  0  0  0  0  0
  187.4810  175.7330  137.2460 C   0  0  0  0  0  2  0  0  0  0  0  0
  1 14  1  0  0  0  0
  1  9  1  0  0  0  0
  2  3  1  0  0  0  0
  3 19  2  0  0  0  0
  3  7  1  0  0  0  0
  4 15  1  0  0  0  0
  4 11  1  0  0  0  0
  5  2  1  0  0  0  0
  5 14  2  0  0  0  0
  6  1  2  0  0  0  0
  7  4  2  0  0  0  0
  8 13  1  0  0  0  0
 10 19  1  0  0  0  0
 12  8  2  0  0  0  0
 12 16  1  0  0  0  0
 13 18  1  0  0  0  0
 13  2  2  0  0  0  0
 16  5  1  0  0  0  0
 17 16  2  0  0  0  0
 17  6  1  0  0  0  0
 18 10  2  0  0  0  0
 19 20  1  0  0  0  0
 20 15  2  0  0  0  0
 22 24  1  0  0  0  0
 23 21  1  6  0  0  0
 23 25  1  0  0  0  0
 23 22  1  0  0  0  0
 23 24  1  0  0  0  0
 24  8  1  1  0  0  0
 26 28  1  0  0  0  0
 26 25  1  0  0  0  0
 27 26  1  0  0  0  0
 29 26  1  0  0  0  0
 31 25  1  0  0  0  0
 31 30  1  0  0  0  0
M  END
>  <MODEL>
4

>  <REMARK>
 VINA RESULT:      -8.7      1.403      1.737
  Name = 
  4 active torsions:
  status: ('A' for Active; 'I' for Inactive)
    1  A    between atoms: C_1  and  N_19
    2  A    between atoms: C_7  and  N_19
    3  A    between atoms: C_15  and  C_23
    4  A    between atoms: N_19  and  C_22
                            x       y       z     vdW  Elec       q    Type
                         _______ _______ _______ _____ _____    ______ ____

>  <TORSDO>
F 4

$$$$
=
 OpenBabel10272400173D

 31 35  0  0  1  0  0  0  0  0999 V2000
  185.0310  178.4300  145.5720 C   0  0  0  0  0  0  0  0  0  0  0  0
  186.6600  178.2780  142.1760 C   0  0  0  0  0  0  0  0  0  0  0  0
  188.0210  177.8770  142.3910 C   0  0  0  0  0  0  0  0  0  0  0  0
  189.8810  177.2540  143.8540 C   0  0  0  0  0  0  0  0  0  0  0  0
  185.6990  178.4530  143.2200 C   0  0  0  0  0  0  0  0  0  0  0  0
  183.7320  178.7890  145.2210 C   0  0  0  0  0  3  0  0  0  0  0  0
  188.5530  177.6460  143.6740 C   0  0  0  0  0  3  0  0  0  0  0  0
  184.9050  178.9170  140.5690 C   0  0  0  0  0  0  0  0  0  0  0  0
  185.3850  178.2200  146.9990 C   0  0  0  0  0  1  0  0  0  0  0  0
  188.4280  177.9060  139.9880 C   0  0  0  0  0  3  0  0  0  0  0  0
  190.3730  177.0350  145.1330 O   0  0  0  0  0  1  0  0  0  0  0  0
  184.0260  179.0270  141.5940 N   0  0  0  0  0  0  0  0  0  0  0  0
  186.2300  178.5040  140.8330 C   0  0  0  0  0  0  0  0  0  0  0  0
  186.0000  178.2620  144.5810 C   0  0  0  0  0  3  0  0  0  0  0  0
  190.7130  177.0830  142.7490 C   0  0  0  0  0  3  0  0  0  0  0  0
  184.3740  178.8230  142.8840 C   0  0  0  0  0  0  0  0  0  0  0  0
  183.4050  178.9840  143.8780 C   0  0  0  0  0  3  0  0  0  0  0  0
  187.1180  178.3030  139.7680 C   0  0  0  0  0  3  0  0  0  0  0  0
  188.8870  177.6970  141.2800 C   0  0  0  0  0  0  0  0  0  0  0  0
  190.2160  177.3040  141.4650 C   0  0  0  0  0  3  0  0  0  0  0  0
  182.6200  178.3570  137.6040 O   0  0  0  0  0  1  0  0  0  0  0  0
  183.2470  180.1430  139.1480 C   0  0  0  0  0  2  0  0  0  0  0  0
  182.9420  178.6850  138.9250 C   0  0  2  0  0  0  0  0  0  0  0  0
  184.3920  179.1230  139.1600 C   0  0  2  0  0  3  0  0  0  0  0  0
  182.2170  177.9900  140.0090 N   0  0  0  0  0  0  0  0  0  0  0  0
  180.9720  178.6910  140.3940 C   0  0  0  0  0  0  0  0  0  0  0  0
  180.3570  179.2220  139.2720 F   0  0  0  0  0  0  0  0  0  0  0  0
  181.2300  179.7230  141.2840 F   0  0  0  0  0  0  0  0  0  0  0  0
  179.9820  177.7260  141.0250 C   0  0  0  0  0  1  0  0  0  0  0  0
  182.9820  175.8060  139.6570 O   0  0  0  0  0  1  0  0  0  0  0  0
  181.8810  176.6520  139.5210 C   0  0  0  0  0  2  0  0  0  0  0  0
  1  9  1  0  0  0  0
  2  3  1  0  0  0  0
  2  5  1  0  0  0  0
  3  7  2  0  0  0  0
  4 11  1  0  0  0  0
  5 14  1  0  0  0  0
  6  1  1  0  0  0  0
  7  4  1  0  0  0  0
  8 13  1  0  0  0  0
  8 12  2  0  0  0  0
 10 19  1  0  0  0  0
 12 16  1  0  0  0  0
 13  2  2  0  0  0  0
 14  1  2  0  0  0  0
 15  4  2  0  0  0  0
 16  5  2  0  0  0  0
 16 17  1  0  0  0  0
 17  6  2  0  0  0  0
 18 10  2  0  0  0  0
 18 13  1  0  0  0  0
 19 20  2  0  0  0  0
 19  3  1  0  0  0  0
 20 15  1  0  0  0  0
 22 24  1  0  0  0  0
 23 21  1  6  0  0  0
 23 22  1  0  0  0  0
 23 24  1  0  0  0  0
 23 25  1  0  0  0  0
 24  8  1  1  0  0  0
 25 26  1  0  0  0  0
 26 29  1  0  0  0  0
 26 28  1  0  0  0  0
 27 26  1  0  0  0  0
 31 30  1  0  0  0  0
 31 25  1  0  0  0  0
M  END
>  <MODEL>
5

>  <REMARK>
 VINA RESULT:      -8.4      3.607      4.985
  Name = 
  4 active torsions:
  status: ('A' for Active; 'I' for Inactive)
    1  A    between atoms: C_1  and  N_19
    2  A    between atoms: C_7  and  N_19
    3  A    between atoms: C_15  and  C_23
    4  A    between atoms: N_19  and  C_22
                            x       y       z     vdW  Elec       q    Type
                         _______ _______ _______ _____ _____    ______ ____

>  <TORSDO>
F 4

$$$$
=
 OpenBabel10272400173D

 31 35  0  0  1  0  0  0  0  0999 V2000
  190.4850  177.0620  143.2620 C   0  0  0  0  0  0  0  0  0  0  0  0
  186.9430  178.1000  142.4970 C   0  0  0  0  0  0  0  0  0  0  0  0
  186.2690  178.2190  143.7580 C   0  0  0  0  0  0  0  0  0  0  0  0
  186.2180  178.0680  146.2000 C   0  0  0  0  0  0  0  0  0  0  0  0
  188.3140  177.7230  142.3510 C   0  0  0  0  0  0  0  0  0  0  0  0
  191.0250  177.0190  141.9790 C   0  0  0  0  0  3  0  0  0  0  0  0
  186.8970  177.9410  144.9870 C   0  0  0  0  0  3  0  0  0  0  0  0
  186.8160  178.2700  140.0420 C   0  0  0  0  0  0  0  0  0  0  0  0
  191.3340  176.7400  144.4380 C   0  0  0  0  0  1  0  0  0  0  0  0
  184.2310  178.9280  142.6230 C   0  0  0  0  0  3  0  0  0  0  0  0
  186.8680  177.7850  147.3930 O   0  0  0  0  0  1  0  0  0  0  0  0
  188.1300  177.9490  139.9660 N   0  0  0  0  0  0  0  0  0  0  0  0
  186.2040  178.3890  141.3100 C   0  0  0  0  0  0  0  0  0  0  0  0
  189.1460  177.4130  143.4430 C   0  0  0  0  0  3  0  0  0  0  0  0
  184.8860  178.4790  146.2130 C   0  0  0  0  0  3  0  0  0  0  0  0
  188.8800  177.6680  141.0550 C   0  0  0  0  0  0  0  0  0  0  0  0
  190.2240  177.3220  140.8770 C   0  0  0  0  0  3  0  0  0  0  0  0
  184.8690  178.8060  141.3980 C   0  0  0  0  0  3  0  0  0  0  0  0
  184.9110  178.6360  143.7960 C   0  0  0  0  0  0  0  0  0  0  0  0
  184.2350  178.7620  145.0130 C   0  0  0  0  0  3  0  0  0  0  0  0
  186.4560  178.8660  136.3220 O   0  0  0  0  0  1  0  0  0  0  0  0
  185.6390  177.3330  138.0400 C   0  0  0  0  0  2  0  0  0  0  0  0
  186.7770  178.1420  137.4750 C   0  0  2  0  0  0  0  0  0  0  0  0
  186.0870  178.6100  138.7600 C   0  0  2  0  0  3  0  0  0  0  0  0
  188.1230  177.5370  137.5620 N   0  0  0  0  0  0  0  0  0  0  0  0
  188.1760  176.1900  136.9500 C   0  0  0  0  0  0  0  0  0  0  0  0
  187.5930  176.2130  135.6940 F   0  0  0  0  0  0  0  0  0  0  0  0
  187.5060  175.2570  137.7280 F   0  0  0  0  0  0  0  0  0  0  0  0
  189.6150  175.7390  136.7610 C   0  0  0  0  0  1  0  0  0  0  0  0
  189.1130  179.6570  137.4950 O   0  0  0  0  0  1  0  0  0  0  0  0
  189.0460  178.4220  136.8500 C   0  0  0  0  0  2  0  0  0  0  0  0
  1 14  1  0  0  0  0
  1  9  1  0  0  0  0
  2  3  1  0  0  0  0
  3 19  2  0  0  0  0
  3  7  1  0  0  0  0
  4 15  1  0  0  0  0
  4 11  1  0  0  0  0
  5  2  1  0  0  0  0
  5 14  2  0  0  0  0
  6  1  2  0  0  0  0
  7  4  2  0  0  0  0
  8 13  1  0  0  0  0
 10 19  1  0  0  0  0
 12  8  2  0  0  0  0
 12 16  1  0  0  0  0
 13 18  1  0  0  0  0
 13  2  2  0  0  0  0
 16  5  1  0  0  0  0
 17 16  2  0  0  0  0
 17  6  1  0  0  0  0
 18 10  2  0  0  0  0
 19 20  1  0  0  0  0
 20 15  2  0  0  0  0
 22 24  1  0  0  0  0
 23 21  1  6  0  0  0
 23 25  1  0  0  0  0
 23 22  1  0  0  0  0
 23 24  1  0  0  0  0
 24  8  1  1  0  0  0
 26 25  1  0  0  0  0
 26 28  1  0  0  0  0
 27 26  1  0  0  0  0
 29 26  1  0  0  0  0
 31 30  1  0  0  0  0
 31 25  1  0  0  0  0
M  END
>  <MODEL>
6

>  <REMARK>
 VINA RESULT:      -8.3      1.677      4.271
  Name = 
  4 active torsions:
  status: ('A' for Active; 'I' for Inactive)
    1  A    between atoms: C_1  and  N_19
    2  A    between atoms: C_7  and  N_19
    3  A    between atoms: C_15  and  C_23
    4  A    between atoms: N_19  and  C_22
                            x       y       z     vdW  Elec       q    Type
                         _______ _______ _______ _____ _____    ______ ____

>  <TORSDO>
F 4

$$$$
=
 OpenBabel10272400173D

 31 35  0  0  1  0  0  0  0  0999 V2000
  185.1840  178.9310  142.8070 C   0  0  0  0  0  0  0  0  0  0  0  0
  188.6440  177.4980  143.2330 C   0  0  0  0  0  0  0  0  0  0  0  0
  188.8810  177.4110  144.6450 C   0  0  0  0  0  0  0  0  0  0  0  0
  188.2010  177.7450  146.9720 C   0  0  0  0  0  0  0  0  0  0  0  0
  187.4370  177.9940  142.6500 C   0  0  0  0  0  0  0  0  0  0  0  0
  185.0700  178.9280  141.4190 C   0  0  0  0  0  3  0  0  0  0  0  0
  187.9440  177.8430  145.6030 C   0  0  0  0  0  3  0  0  0  0  0  0
  189.4950  177.1280  140.9500 C   0  0  0  0  0  0  0  0  0  0  0  0
  184.0600  179.4240  143.6440 C   0  0  0  0  0  1  0  0  0  0  0  0
  191.0720  176.4220  144.2350 C   0  0  0  0  0  3  0  0  0  0  0  0
  187.2540  178.1810  147.8880 O   0  0  0  0  0  1  0  0  0  0  0  0
  188.3140  177.5680  140.4540 N   0  0  0  0  0  0  0  0  0  0  0  0
  189.6720  177.0470  142.3500 C   0  0  0  0  0  0  0  0  0  0  0  0
  186.3530  178.4670  143.4130 C   0  0  0  0  0  3  0  0  0  0  0  0
  189.4070  177.2090  147.4180 C   0  0  0  0  0  3  0  0  0  0  0  0
  187.3040  178.0040  141.2400 C   0  0  0  0  0  0  0  0  0  0  0  0
  186.1290  178.4640  140.6370 C   0  0  0  0  0  3  0  0  0  0  0  0
  190.8570  176.5100  142.8680 C   0  0  0  0  0  3  0  0  0  0  0  0
  190.1040  176.8690  145.1230 C   0  0  0  0  0  0  0  0  0  0  0  0
  190.3560  176.7720  146.4950 C   0  0  0  0  0  3  0  0  0  0  0  0
  190.7940  175.8360  137.6390 O   0  0  0  0  0  1  0  0  0  0  0  0
  191.0670  177.7680  139.1090 C   0  0  0  0  0  2  0  0  0  0  0  0
  190.1550  176.7370  138.4970 C   0  0  2  0  0  0  0  0  0  0  0  0
  190.5360  176.6200  139.9760 C   0  0  2  0  0  3  0  0  0  0  0  0
  188.7940  177.1900  138.1390 N   0  0  0  0  0  0  0  0  0  0  0  0
  188.8050  178.4600  137.3780 C   0  0  0  0  0  0  0  0  0  0  0  0
  189.6690  178.3630  136.3010 F   0  0  0  0  0  0  0  0  0  0  0  0
  189.2120  179.5200  138.1750 F   0  0  0  0  0  0  0  0  0  0  0  0
  187.4270  178.7630  136.8140 C   0  0  0  0  0  1  0  0  0  0  0  0
  186.9570  175.7690  137.8510 O   0  0  0  0  0  1  0  0  0  0  0  0
  188.1890  176.1440  137.3140 C   0  0  0  0  0  2  0  0  0  0  0  0
  1 14  1  0  0  0  0
  1  9  1  0  0  0  0
  2  3  1  0  0  0  0
  3 19  2  0  0  0  0
  3  7  1  0  0  0  0
  4 15  1  0  0  0  0
  4 11  1  0  0  0  0
  5  2  1  0  0  0  0
  5 14  2  0  0  0  0
  6  1  2  0  0  0  0
  7  4  2  0  0  0  0
  8 13  1  0  0  0  0
 10 19  1  0  0  0  0
 12  8  2  0  0  0  0
 12 16  1  0  0  0  0
 13 18  1  0  0  0  0
 13  2  2  0  0  0  0
 16  5  1  0  0  0  0
 17 16  2  0  0  0  0
 17  6  1  0  0  0  0
 18 10  2  0  0  0  0
 19 20  1  0  0  0  0
 20 15  2  0  0  0  0
 22 24  1  0  0  0  0
 23 21  1  6  0  0  0
 23 22  1  0  0  0  0
 23 24  1  0  0  0  0
 24  8  1  1  0  0  0
 25 23  1  0  0  0  0
 26 25  1  0  0  0  0
 26 28  1  0  0  0  0
 27 26  1  0  0  0  0
 29 26  1  0  0  0  0
 31 30  1  0  0  0  0
 31 25  1  0  0  0  0
M  END
>  <MODEL>
7

>  <REMARK>
 VINA RESULT:      -8.3      1.753      2.585
  Name = 
  4 active torsions:
  status: ('A' for Active; 'I' for Inactive)
    1  A    between atoms: C_1  and  N_19
    2  A    between atoms: C_7  and  N_19
    3  A    between atoms: C_15  and  C_23
    4  A    between atoms: N_19  and  C_22
                            x       y       z     vdW  Elec       q    Type
                         _______ _______ _______ _____ _____    ______ ____

>  <TORSDO>
F 4

$$$$
=
 OpenBabel10272400173D

 31 35  0  0  1  0  0  0  0  0999 V2000
  189.4710  177.7800  143.5340 C   0  0  0  0  0  0  0  0  0  0  0  0
  186.0690  178.3570  142.0170 C   0  0  0  0  0  0  0  0  0  0  0  0
  185.1540  178.5160  143.1100 C   0  0  0  0  0  0  0  0  0  0  0  0
  184.6390  178.5800  145.5010 C   0  0  0  0  0  0  0  0  0  0  0  0
  187.4700  178.1190  142.1700 C   0  0  0  0  0  0  0  0  0  0  0  0
  190.2540  177.6800  142.3860 C   0  0  0  0  0  3  0  0  0  0  0  0
  185.5520  178.4190  144.4570 C   0  0  0  0  0  3  0  0  0  0  0  0
  186.4110  178.2910  139.5770 C   0  0  0  0  0  0  0  0  0  0  0  0
  190.0980  177.6590  144.8750 C   0  0  0  0  0  1  0  0  0  0  0  0
  183.3230  178.8960  141.5450 C   0  0  0  0  0  3  0  0  0  0  0  0
  185.0660  178.4780  146.8170 O   0  0  0  0  0  1  0  0  0  0  0  0
  187.7380  178.1080  139.7820 N   0  0  0  0  0  0  0  0  0  0  0  0
  185.5540  178.4570  140.6880 C   0  0  0  0  0  0  0  0  0  0  0  0
  188.0970  178.0000  143.4240 C   0  0  0  0  0  3  0  0  0  0  0  0
  183.3000  178.8450  145.2220 C   0  0  0  0  0  3  0  0  0  0  0  0
  188.2820  178.0090  141.0150 C   0  0  0  0  0  0  0  0  0  0  0  0
  189.6600  177.7950  141.1290 C   0  0  0  0  0  3  0  0  0  0  0  0
  184.1970  178.7340  140.4810 C   0  0  0  0  0  3  0  0  0  0  0  0
  183.7840  178.7850  142.8490 C   0  0  0  0  0  0  0  0  0  0  0  0
  182.8740  178.9470  143.8980 C   0  0  0  0  0  3  0  0  0  0  0  0
  186.7420  178.6330  135.8230 O   0  0  0  0  0  1  0  0  0  0  0  0
  185.8480  177.0640  137.4680 C   0  0  0  0  0  2  0  0  0  0  0  0
  186.9300  178.0340  137.0720 C   0  0  2  0  0  0  0  0  0  0  0  0
  185.9190  178.4340  138.1530 C   0  0  2  0  0  3  0  0  0  0  0  0
  188.3090  177.6830  137.4730 N   0  0  0  0  0  0  0  0  0  0  0  0
  188.7440  176.3820  136.9150 C   0  0  0  0  0  0  0  0  0  0  0  0
  188.1570  176.1740  135.6780 F   0  0  0  0  0  0  0  0  0  0  0  0
  188.3910  175.3330  137.7510 F   0  0  0  0  0  0  0  0  0  0  0  0
  190.2480  176.3640  136.7000 C   0  0  0  0  0  1  0  0  0  0  0  0
  188.9820  179.9140  137.6920 O   0  0  0  0  0  1  0  0  0  0  0  0
  189.1910  178.7380  136.9720 C   0  0  0  0  0  2  0  0  0  0  0  0
  1  9  1  0  0  0  0
  2  5  1  0  0  0  0
  2  3  1  0  0  0  0
  3  7  1  0  0  0  0
  4 11  1  0  0  0  0
  5 14  2  0  0  0  0
  6  1  2  0  0  0  0
  7  4  2  0  0  0  0
  8 12  2  0  0  0  0
  8 13  1  0  0  0  0
 10 19  1  0  0  0  0
 12 16  1  0  0  0  0
 13  2  2  0  0  0  0
 14  1  1  0  0  0  0
 15  4  1  0  0  0  0
 16 17  2  0  0  0  0
 16  5  1  0  0  0  0
 17  6  1  0  0  0  0
 18 13  1  0  0  0  0
 18 10  2  0  0  0  0
 19  3  2  0  0  0  0
 19 20  1  0  0  0  0
 20 15  2  0  0  0  0
 22 24  1  0  0  0  0
 23 21  1  6  0  0  0
 23 22  1  0  0  0  0
 23 25  1  0  0  0  0
 23 24  1  0  0  0  0
 24  8  1  1  0  0  0
 26 25  1  0  0  0  0
 26 28  1  0  0  0  0
 27 26  1  0  0  0  0
 29 26  1  0  0  0  0
 31 25  1  0  0  0  0
 31 30  1  0  0  0  0
M  END
>  <MODEL>
8

>  <REMARK>
 VINA RESULT:      -8.1      1.884      4.559
  Name = 
  4 active torsions:
  status: ('A' for Active; 'I' for Inactive)
    1  A    between atoms: C_1  and  N_19
    2  A    between atoms: C_7  and  N_19
    3  A    between atoms: C_15  and  C_23
    4  A    between atoms: N_19  and  C_22
                            x       y       z     vdW  Elec       q    Type
                         _______ _______ _______ _____ _____    ______ ____

>  <TORSDO>
F 4

$$$$
=
 OpenBabel10272400173D

 31 35  0  0  1  0  0  0  0  0999 V2000
  186.5130  178.3470  139.4010 C   0  0  0  0  0  0  0  0  0  0  0  0
  185.5560  178.3040  143.0470 C   0  0  0  0  0  0  0  0  0  0  0  0
  184.1500  178.5830  143.1050 C   0  0  0  0  0  0  0  0  0  0  0  0
  182.0100  179.1130  142.0440 C   0  0  0  0  0  0  0  0  0  0  0  0
  186.3110  178.2300  141.8350 C   0  0  0  0  0  0  0  0  0  0  0  0
  187.8670  178.0320  139.4840 C   0  0  0  0  0  3  0  0  0  0  0  0
  183.3770  178.8460  141.9580 C   0  0  0  0  0  3  0  0  0  0  0  0
  187.6350  177.8080  144.2730 C   0  0  0  0  0  0  0  0  0  0  0  0
  185.8830  178.5770  138.0750 C   0  0  0  0  0  1  0  0  0  0  0  0
  184.1860  178.3480  145.5310 C   0  0  0  0  0  3  0  0  0  0  0  0
  181.2780  179.3680  140.8930 O   0  0  0  0  0  1  0  0  0  0  0  0
  188.2920  177.7090  143.0920 N   0  0  0  0  0  0  0  0  0  0  0  0
  186.2470  178.0700  144.2750 C   0  0  0  0  0  0  0  0  0  0  0  0
  185.7460  178.4410  140.5630 C   0  0  0  0  0  3  0  0  0  0  0  0
  181.3790  179.1230  143.2870 C   0  0  0  0  0  3  0  0  0  0  0  0
  187.6900  177.9160  141.8990 C   0  0  0  0  0  0  0  0  0  0  0  0
  188.4540  177.8170  140.7310 C   0  0  0  0  0  3  0  0  0  0  0  0
  185.5470  178.0860  145.4880 C   0  0  0  0  0  3  0  0  0  0  0  0
  183.4860  178.6000  144.3610 C   0  0  0  0  0  0  0  0  0  0  0  0
  182.1160  178.8670  144.4420 C   0  0  0  0  0  3  0  0  0  0  0  0
  190.5070  176.4810  146.3490 O   0  0  0  0  0  1  0  0  0  0  0  0
  189.4290  178.6090  145.8250 C   0  0  0  0  0  2  0  0  0  0  0  0
  189.9000  177.2580  145.3570 C   0  0  2  0  0  0  0  0  0  0  0  0
  188.4000  177.5080  145.5440 C   0  0  2  0  0  3  0  0  0  0  0  0
  190.4520  177.1890  143.9880 N   0  0  0  0  0  0  0  0  0  0  0  0
  191.4160  178.2790  143.7140 C   0  0  0  0  0  0  0  0  0  0  0  0
  192.3680  178.3370  144.7180 F   0  0  0  0  0  0  0  0  0  0  0  0
  190.7790  179.5090  143.6420 F   0  0  0  0  0  0  0  0  0  0  0  0
  192.1600  178.0270  142.4130 C   0  0  0  0  0  1  0  0  0  0  0  0
  190.4270  175.0750  142.9860 O   0  0  0  0  0  1  0  0  0  0  0  0
  191.1360  175.9020  143.8570 C   0  0  0  0  0  2  0  0  0  0  0  0
  1  6  2  0  0  0  0
  1 14  1  0  0  0  0
  2  3  2  0  0  0  0
  2 13  1  0  0  0  0
  3 19  1  0  0  0  0
  4 15  1  0  0  0  0
  5 16  1  0  0  0  0
  5  2  1  0  0  0  0
  6 17  1  0  0  0  0
  7  4  2  0  0  0  0
  7  3  1  0  0  0  0
  8 13  1  0  0  0  0
  9  1  1  0  0  0  0
 11  4  1  0  0  0  0
 12  8  2  0  0  0  0
 13 18  2  0  0  0  0
 14  5  2  0  0  0  0
 15 20  2  0  0  0  0
 16 12  1  0  0  0  0
 17 16  2  0  0  0  0
 18 10  1  0  0  0  0
 19 20  1  0  0  0  0
 19 10  2  0  0  0  0
 23 24  1  0  0  0  0
 23 22  1  0  0  0  0
 23 21  1  1  0  0  0
 24  8  1  6  0  0  0
 24 22  1  0  0  0  0
 25 23  1  0  0  0  0
 26 25  1  0  0  0  0
 26 27  1  0  0  0  0
 28 26  1  0  0  0  0
 29 26  1  0  0  0  0
 30 31  1  0  0  0  0
 31 25  1  0  0  0  0
M  END
>  <MODEL>
9

>  <REMARK>
 VINA RESULT:      -8.1      3.566      7.114
  Name = 
  4 active torsions:
  status: ('A' for Active; 'I' for Inactive)
    1  A    between atoms: C_1  and  N_19
    2  A    between atoms: C_7  and  N_19
    3  A    between atoms: C_15  and  C_23
    4  A    between atoms: N_19  and  C_22
                            x       y       z     vdW  Elec       q    Type
                         _______ _______ _______ _____ _____    ______ ____

>  <TORSDO>
F 4

$$$$
