=
 OpenBabel10272402133D

 32 36  0  0  1  0  0  0  0  0999 V2000
  186.3660  177.4680  144.3780 C   0  0  1  0  0  3  0  0  0  0  0  0
  186.2270  178.2120  141.9900 C   0  0  1  0  0  3  0  0  0  0  0  0
  185.9650  177.7800  145.8320 C   0  0  0  0  0  2  0  0  0  0  0  0
  185.7070  178.4310  143.4030 C   0  0  1  0  0  3  0  0  0  0  0  0
  185.6010  179.2490  141.0560 C   0  0  0  0  0  2  0  0  0  0  0  0
  187.7640  178.3080  141.9680 C   0  0  1  0  0  3  0  0  0  0  0  0
  184.1920  178.2740  143.4630 C   0  0  2  0  0  3  0  0  0  0  0  0
  183.5410  179.3200  142.5600 C   0  0  0  0  0  2  0  0  0  0  0  0
  183.6520  178.3530  144.9020 C   0  0  0  0  0  2  0  0  0  0  0  0
  188.3530  178.4080  143.2580 O   0  0  0  0  0  0  0  0  0  0  0  0
  187.8810  177.3560  144.0820 C   0  0  1  0  0  3  0  0  0  0  0  0
  184.0640  179.2160  141.1180 C   0  0  2  0  0  3  0  0  0  0  0  0
  184.7320  178.6950  145.9410 C   0  0  0  0  0  2  0  0  0  0  0  0
  191.0920  177.1510  146.2850 C   0  0  2  0  0  3  0  0  0  0  0  0
  190.5170  178.6600  148.9060 F   0  0  0  0  0  0  0  0  0  0  0  0
  192.3260  176.5880  146.0140 F   0  0  0  0  0  0  0  0  0  0  0  0
  188.6610  178.3090  147.4610 C   0  0  0  0  0  2  0  0  0  0  0  0
  188.7150  177.2030  145.2750 N   0  0  0  0  0  0  0  0  0  0  0  0
  190.6020  176.6420  147.6320 C   0  0  0  0  0  2  0  0  0  0  0  0
  188.0140  177.2780  146.5530 C   0  0  0  0  0  2  0  0  0  0  0  0
  190.1130  176.8380  145.1820 C   0  0  0  0  0  0  0  0  0  0  0  0
  190.5530  176.3300  144.1140 O   0  0  0  0  0  0  0  0  0  0  0  0
  189.7260  177.6710  148.3510 C   0  0  1  0  0  3  0  0  0  0  0  0
  183.5340  178.0220  140.4450 C   0  0  0  0  0  0  0  0  0  0  0  0
  183.0980  177.0430  139.8910 C   0  0  0  0  0  3  0  0  0  0  0  0
  188.3670  177.1750  141.1390 C   0  0  0  0  0  2  0  0  0  0  0  0
  190.5880  176.6330  140.1310 C   0  0  0  0  0  2  0  0  0  0  0  0
  189.6930  176.8530  137.5990 S   0  0  0  0  0  0  0  0  0  0  0  0
  188.9850  177.8900  138.8600 C   0  0  0  0  0  0  0  0  0  0  0  0
  188.2240  178.8040  138.5830 O   0  0  0  0  0  0  0  0  0  0  0  0
  191.1180  176.6490  138.7050 C   0  0  0  0  0  2  0  0  0  0  0  0
  189.4880  177.6810  140.2420 C   0  0  1  0  0  3  0  0  0  0  0  0
  1  3  1  1  0  0  0
  2  5  1  6  0  0  0
  2  4  1  0  0  0  0
  3 13  1  0  0  0  0
  4  7  1  0  0  0  0
  4  1  1  0  0  0  0
  5 12  1  0  0  0  0
  6  2  1  0  0  0  0
  6 10  1  0  0  0  0
  7  9  1  0  0  0  0
  8  7  1  0  0  0  0
  9 13  1  0  0  0  0
 10 11  1  0  0  0  0
 11  1  1  0  0  0  0
 11 18  1  0  0  0  0
 12  8  1  0  0  0  0
 14 19  1  0  0  0  0
 16 14  1  0  0  0  0
 17 23  1  0  0  0  0
 18 20  1  0  0  0  0
 19 23  1  0  0  0  0
 20 17  1  0  0  0  0
 21 18  1  0  0  0  0
 21 14  1  0  0  0  0
 22 21  2  0  0  0  0
 23 15  1  0  0  0  0
 24 12  1  0  0  0  0
 25 24  3  0  0  0  0
 26  6  1  0  0  0  0
 27 32  1  0  0  0  0
 28 31  1  0  0  0  0
 28 29  1  0  0  0  0
 29 32  1  0  0  0  0
 30 29  2  0  0  0  0
 31 27  1  0  0  0  0
 32 26  1  0  0  0  0
M  END
>  <MODEL>
1

>  <REMARK>
 VINA RESULT:      -9.3      0.000      0.000
  Name = 
  4 active torsions:
  status: ('A' for Active; 'I' for Inactive)
    1  A    between atoms: C_10  and  C_28
    2  A    between atoms: C_13  and  C_29
    3  A    between atoms: N_16  and  C_27
    4  A    between atoms: C_28  and  C_32
                            x       y       z     vdW  Elec       q    Type
                         _______ _______ _______ _____ _____    ______ ____

>  <TORSDO>
F 4

$$$$
=
 OpenBabel10272402133D

 32 36  0  0  1  0  0  0  0  0999 V2000
  186.0790  178.7800  144.3120 C   0  0  1  0  0  3  0  0  0  0  0  0
  188.0960  177.7820  143.2120 C   0  0  1  0  0  3  0  0  0  0  0  0
  185.0940  178.6800  145.4920 C   0  0  0  0  0  2  0  0  0  0  0  0
  187.2170  177.7800  144.4530 C   0  0  1  0  0  3  0  0  0  0  0  0
  189.1780  176.7100  143.3600 C   0  0  0  0  0  2  0  0  0  0  0  0
  187.2430  177.5320  141.9540 C   0  0  1  0  0  3  0  0  0  0  0  0
  188.0290  178.0920  145.7050 C   0  0  2  0  0  3  0  0  0  0  0  0
  189.0980  177.0170  145.8920 C   0  0  0  0  0  2  0  0  0  0  0  0
  187.1430  178.2340  146.9560 C   0  0  0  0  0  2  0  0  0  0  0  0
  185.8430  177.5260  142.2010 O   0  0  0  0  0  0  0  0  0  0  0  0
  185.4730  178.7070  142.8900 C   0  0  1  0  0  3  0  0  0  0  0  0
  189.9960  176.9010  144.6490 C   0  0  2  0  0  3  0  0  0  0  0  0
  185.6640  177.9100  146.6980 C   0  0  0  0  0  2  0  0  0  0  0  0
  181.8010  178.5260  141.5890 C   0  0  2  0  0  3  0  0  0  0  0  0
  179.9820  177.9980  144.0150 F   0  0  0  0  0  0  0  0  0  0  0  0
  181.3060  178.6070  140.3000 F   0  0  0  0  0  0  0  0  0  0  0  0
  182.2600  178.4890  144.4910 C   0  0  0  0  0  2  0  0  0  0  0  0
  184.0250  178.9150  142.8450 N   0  0  0  0  0  0  0  0  0  0  0  0
  181.0310  179.4920  142.4760 C   0  0  0  0  0  2  0  0  0  0  0  0
  183.4130  179.3890  144.0830 C   0  0  0  0  0  2  0  0  0  0  0  0
  183.2820  178.8120  141.6070 C   0  0  0  0  0  0  0  0  0  0  0  0
  183.8960  178.8690  140.5060 O   0  0  0  0  0  0  0  0  0  0  0  0
  180.9350  178.9940  143.9200 C   0  0  1  0  0  3  0  0  0  0  0  0
  190.8980  178.0550  144.5360 C   0  0  0  0  0  0  0  0  0  0  0  0
  191.6380  179.0030  144.4410 C   0  0  0  0  0  3  0  0  0  0  0  0
  187.6320  178.4970  140.8350 C   0  0  0  0  0  2  0  0  0  0  0  0
  186.7620  178.0890  138.5290 C   0  0  0  0  0  2  0  0  0  0  0  0
  188.9760  179.0500  137.3300 S   0  0  0  0  0  0  0  0  0  0  0  0
  189.1310  178.2170  138.8950 C   0  0  0  0  0  0  0  0  0  0  0  0
  190.2230  177.9300  139.3600 O   0  0  0  0  0  0  0  0  0  0  0  0
  187.3860  178.1950  137.1450 C   0  0  0  0  0  2  0  0  0  0  0  0
  187.8660  177.7580  139.5250 C   0  0  1  0  0  3  0  0  0  0  0  0
  1  4  1  0  0  0  0
  1  3  1  1  0  0  0
  2  5  1  1  0  0  0
  2  4  1  0  0  0  0
  3 13  1  0  0  0  0
  4  7  1  0  0  0  0
  5 12  1  0  0  0  0
  6 10  1  0  0  0  0
  6  2  1  0  0  0  0
  7  8  1  0  0  0  0
  7  9  1  0  0  0  0
 10 11  1  0  0  0  0
 11  1  1  0  0  0  0
 12  8  1  0  0  0  0
 13  9  1  0  0  0  0
 14 21  1  0  0  0  0
 14 19  1  0  0  0  0
 16 14  1  0  0  0  0
 18 11  1  0  0  0  0
 18 20  1  0  0  0  0
 19 23  1  0  0  0  0
 20 17  1  0  0  0  0
 21 18  1  0  0  0  0
 22 21  2  0  0  0  0
 23 15  1  0  0  0  0
 23 17  1  0  0  0  0
 24 12  1  0  0  0  0
 25 24  3  0  0  0  0
 26  6  1  0  0  0  0
 27 32  1  0  0  0  0
 28 29  1  0  0  0  0
 29 30  2  0  0  0  0
 29 32  1  0  0  0  0
 31 28  1  0  0  0  0
 31 27  1  0  0  0  0
 32 26  1  0  0  0  0
M  END
>  <MODEL>
2

>  <REMARK>
 VINA RESULT:      -9.1      3.664      6.337
  Name = 
  4 active torsions:
  status: ('A' for Active; 'I' for Inactive)
    1  A    between atoms: C_10  and  C_28
    2  A    between atoms: C_13  and  C_29
    3  A    between atoms: N_16  and  C_27
    4  A    between atoms: C_28  and  C_32
                            x       y       z     vdW  Elec       q    Type
                         _______ _______ _______ _____ _____    ______ ____

>  <TORSDO>
F 4

$$$$
=
 OpenBabel10272402133D

 32 36  0  0  1  0  0  0  0  0999 V2000
  183.8730  178.0720  142.3950 C   0  0  1  0  0  3  0  0  0  0  0  0
  184.4590  178.8280  140.0800 C   0  0  1  0  0  3  0  0  0  0  0  0
  182.9900  178.3290  143.6310 C   0  0  0  0  0  2  0  0  0  0  0  0
  183.4860  178.9830  141.2400 C   0  0  1  0  0  3  0  0  0  0  0  0
  184.0830  179.8160  138.9730 C   0  0  0  0  0  2  0  0  0  0  0  0
  185.9030  179.0630  140.5610 C   0  0  1  0  0  3  0  0  0  0  0  0
  182.0560  178.6880  140.8030 C   0  0  2  0  0  3  0  0  0  0  0  0
  181.6470  179.6820  139.7170 C   0  0  0  0  0  2  0  0  0  0  0  0
  181.0700  178.7020  141.9850 C   0  0  0  0  0  2  0  0  0  0  0  0
  186.0250  179.2000  141.9710 O   0  0  0  0  0  0  0  0  0  0  0  0
  185.4040  178.1010  142.6130 C   0  0  1  0  0  3  0  0  0  0  0  0
  182.6210  179.6440  138.5290 C   0  0  2  0  0  3  0  0  0  0  0  0
  181.7130  179.1270  143.3130 C   0  0  0  0  0  2  0  0  0  0  0  0
  187.7180  177.6280  145.7160 C   0  0  2  0  0  3  0  0  0  0  0  0
  186.9030  179.7290  147.8120 F   0  0  0  0  0  0  0  0  0  0  0  0
  188.7740  176.7560  145.9180 F   0  0  0  0  0  0  0  0  0  0  0  0
  185.4810  179.5210  145.9170 C   0  0  0  0  0  2  0  0  0  0  0  0
  185.8110  178.0090  144.0170 N   0  0  0  0  0  0  0  0  0  0  0  0
  186.7640  177.5280  146.8970 C   0  0  0  0  0  2  0  0  0  0  0  0
  184.8420  178.5000  144.9920 C   0  0  0  0  0  2  0  0  0  0  0  0
  187.0250  177.3260  144.4120 C   0  0  0  0  0  0  0  0  0  0  0  0
  187.5770  176.5240  143.6090 O   0  0  0  0  0  0  0  0  0  0  0  0
  186.0480  178.8530  147.1690 C   0  0  1  0  0  3  0  0  0  0  0  0
  182.4500  178.4140  137.7410 C   0  0  0  0  0  0  0  0  0  0  0  0
  182.3080  177.4060  137.0960 C   0  0  0  0  0  3  0  0  0  0  0  0
  186.8430  177.9990  139.9960 C   0  0  0  0  0  2  0  0  0  0  0  0
  189.0830  177.4150  140.9360 C   0  0  0  0  0  2  0  0  0  0  0  0
  190.2630  177.2830  138.5170 S   0  0  0  0  0  0  0  0  0  0  0  0
  188.9380  178.4450  138.7720 C   0  0  0  0  0  0  0  0  0  0  0  0
  188.6580  179.2880  137.9350 O   0  0  0  0  0  0  0  0  0  0  0  0
  190.4670  177.2710  140.3200 C   0  0  0  0  0  2  0  0  0  0  0  0
  188.2990  178.4290  140.1130 C   0  0  1  0  0  3  0  0  0  0  0  0
  1 11  1  0  0  0  0
  1  3  1  1  0  0  0
  2  5  1  6  0  0  0
  2  6  1  0  0  0  0
  2  4  1  0  0  0  0
  4  1  1  0  0  0  0
  6 10  1  0  0  0  0
  7  4  1  0  0  0  0
  7  9  1  0  0  0  0
  8  7  1  0  0  0  0
  9 13  1  0  0  0  0
 10 11  1  0  0  0  0
 11 18  1  0  0  0  0
 12  5  1  0  0  0  0
 12  8  1  0  0  0  0
 13  3  1  0  0  0  0
 14 16  1  0  0  0  0
 14 19  1  0  0  0  0
 17 23  1  0  0  0  0
 18 21  1  0  0  0  0
 18 20  1  0  0  0  0
 19 23  1  0  0  0  0
 20 17  1  0  0  0  0
 21 14  1  0  0  0  0
 22 21  2  0  0  0  0
 23 15  1  0  0  0  0
 24 12  1  0  0  0  0
 25 24  3  0  0  0  0
 26 32  1  0  0  0  0
 26  6  1  0  0  0  0
 28 29  1  0  0  0  0
 28 31  1  0  0  0  0
 29 32  1  0  0  0  0
 30 29  2  0  0  0  0
 31 27  1  0  0  0  0
 32 27  1  0  0  0  0
M  END
>  <MODEL>
3

>  <REMARK>
 VINA RESULT:      -8.8      2.004      3.055
  Name = 
  4 active torsions:
  status: ('A' for Active; 'I' for Inactive)
    1  A    between atoms: C_10  and  C_28
    2  A    between atoms: C_13  and  C_29
    3  A    between atoms: N_16  and  C_27
    4  A    between atoms: C_28  and  C_32
                            x       y       z     vdW  Elec       q    Type
                         _______ _______ _______ _____ _____    ______ ____

>  <TORSDO>
F 4

$$$$
=
 OpenBabel10272402133D

 32 36  0  0  1  0  0  0  0  0999 V2000
  187.4200  178.5250  142.1680 C   0  0  1  0  0  3  0  0  0  0  0  0
  187.4260  177.5940  144.4940 C   0  0  1  0  0  3  0  0  0  0  0  0
  186.5930  178.7400  140.8860 C   0  0  0  0  0  2  0  0  0  0  0  0
  186.5690  177.9420  143.2860 C   0  0  1  0  0  3  0  0  0  0  0  0
  186.5470  176.9390  145.5620 C   0  0  0  0  0  2  0  0  0  0  0  0
  188.5760  176.6570  144.0780 C   0  0  1  0  0  3  0  0  0  0  0  0
  185.4620  178.9230  143.6590 C   0  0  2  0  0  3  0  0  0  0  0  0
  184.5530  178.2800  144.7050 C   0  0  0  0  0  2  0  0  0  0  0  0
  184.6660  179.4010  142.4320 C   0  0  0  0  0  2  0  0  0  0  0  0
  188.6830  176.4670  142.6730 O   0  0  0  0  0  0  0  0  0  0  0  0
  188.7360  177.7240  142.0230 C   0  0  1  0  0  3  0  0  0  0  0  0
  185.3510  177.8300  145.9400 C   0  0  2  0  0  3  0  0  0  0  0  0
  185.0730  178.6980  141.1280 C   0  0  0  0  0  2  0  0  0  0  0  0
  190.9680  176.6220  139.0210 C   0  0  2  0  0  3  0  0  0  0  0  0
  189.0940  175.8240  136.7140 F   0  0  0  0  0  0  0  0  0  0  0  0
  192.3440  176.5130  138.9240 F   0  0  0  0  0  0  0  0  0  0  0  0
  188.0700  176.8570  138.5960 C   0  0  0  0  0  2  0  0  0  0  0  0
  189.2040  177.5870  140.6420 N   0  0  0  0  0  0  0  0  0  0  0  0
  190.4530  177.4310  137.8400 C   0  0  0  0  0  2  0  0  0  0  0  0
  188.2510  177.9760  139.6080 C   0  0  0  0  0  2  0  0  0  0  0  0
  190.5780  177.2450  140.3370 C   0  0  0  0  0  0  0  0  0  0  0  0
  191.4640  177.3800  141.2250 O   0  0  0  0  0  0  0  0  0  0  0  0
  189.0420  177.0070  137.4260 C   0  0  1  0  0  3  0  0  0  0  0  0
  185.7840  178.9830  146.7410 C   0  0  0  0  0  0  0  0  0  0  0  0
  186.1380  179.9300  147.4000 C   0  0  0  0  0  3  0  0  0  0  0  0
  189.8950  177.1050  144.7070 C   0  0  0  0  0  2  0  0  0  0  0  0
  191.7960  175.8240  145.6970 C   0  0  0  0  0  2  0  0  0  0  0  0
  191.6780  177.1230  148.0550 S   0  0  0  0  0  0  0  0  0  0  0  0
  190.1750  176.8450  147.1440 C   0  0  0  0  0  0  0  0  0  0  0  0
  189.0800  177.0830  147.6290 O   0  0  0  0  0  0  0  0  0  0  0  0
  192.3960  175.7610  147.0950 C   0  0  0  0  0  2  0  0  0  0  0  0
  190.3190  176.1680  145.8290 C   0  0  1  0  0  3  0  0  0  0  0  0
  1  3  1  6  0  0  0
  1  4  1  0  0  0  0
  2  5  1  1  0  0  0
  3 13  1  0  0  0  0
  4  7  1  0  0  0  0
  4  2  1  0  0  0  0
  5 12  1  0  0  0  0
  6  2  1  0  0  0  0
  6 26  1  0  0  0  0
  7  8  1  0  0  0  0
  8 12  1  0  0  0  0
  9  7  1  0  0  0  0
 10  6  1  0  0  0  0
 11  1  1  0  0  0  0
 11 10  1  0  0  0  0
 12 24  1  0  0  0  0
 13  9  1  0  0  0  0
 14 21  1  0  0  0  0
 15 23  1  0  0  0  0
 16 14  1  0  0  0  0
 17 20  1  0  0  0  0
 18 11  1  0  0  0  0
 19 14  1  0  0  0  0
 20 18  1  0  0  0  0
 21 18  1  0  0  0  0
 21 22  2  0  0  0  0
 23 19  1  0  0  0  0
 23 17  1  0  0  0  0
 24 25  3  0  0  0  0
 26 32  1  0  0  0  0
 27 32  1  0  0  0  0
 27 31  1  0  0  0  0
 29 30  2  0  0  0  0
 29 28  1  0  0  0  0
 31 28  1  0  0  0  0
 32 29  1  0  0  0  0
M  END
>  <MODEL>
4

>  <REMARK>
 VINA RESULT:      -8.7      3.362      6.525
  Name = 
  4 active torsions:
  status: ('A' for Active; 'I' for Inactive)
    1  A    between atoms: C_10  and  C_28
    2  A    between atoms: C_13  and  C_29
    3  A    between atoms: N_16  and  C_27
    4  A    between atoms: C_28  and  C_32
                            x       y       z     vdW  Elec       q    Type
                         _______ _______ _______ _____ _____    ______ ____

>  <TORSDO>
F 4

$$$$
=
 OpenBabel10272402133D

 32 36  0  0  1  0  0  0  0  0999 V2000
  186.7390  177.6310  142.9610 C   0  0  1  0  0  3  0  0  0  0  0  0
  185.8400  178.2310  140.7020 C   0  0  1  0  0  3  0  0  0  0  0  0
  186.7520  177.9880  144.4610 C   0  0  0  0  0  2  0  0  0  0  0  0
  185.7370  178.4840  142.1980 C   0  0  1  0  0  3  0  0  0  0  0  0
  184.8750  179.1630  139.9660 C   0  0  0  0  0  2  0  0  0  0  0  0
  187.2880  178.4500  140.2230 C   0  0  1  0  0  3  0  0  0  0  0  0
  184.3270  178.2090  142.7090 C   0  0  2  0  0  3  0  0  0  0  0  0
  183.3470  179.1500  142.0090 C   0  0  0  0  0  2  0  0  0  0  0  0
  184.2270  178.3220  144.2400 C   0  0  0  0  0  2  0  0  0  0  0  0
  188.2160  178.6650  141.2790 O   0  0  0  0  0  0  0  0  0  0  0  0
  188.1040  177.6260  142.2340 C   0  0  1  0  0  3  0  0  0  0  0  0
  183.4330  179.0110  140.4810 C   0  0  2  0  0  3  0  0  0  0  0  0
  185.5260  178.8050  144.9040 C   0  0  0  0  0  2  0  0  0  0  0  0
  191.4980  176.4880  143.7820 C   0  0  2  0  0  3  0  0  0  0  0  0
  193.1000  179.0240  144.4710 F   0  0  0  0  0  0  0  0  0  0  0  0
  192.0110  175.2180  143.9730 F   0  0  0  0  0  0  0  0  0  0  0  0
  190.8410  179.3520  143.8050 C   0  0  0  0  0  2  0  0  0  0  0  0
  189.2610  177.6040  143.1310 N   0  0  0  0  0  0  0  0  0  0  0  0
  191.6070  177.2660  145.0850 C   0  0  0  0  0  2  0  0  0  0  0  0
  189.4390  178.7880  143.9650 C   0  0  0  0  0  2  0  0  0  0  0  0
  190.0740  176.4170  143.2920 C   0  0  0  0  0  0  0  0  0  0  0  0
  189.6190  175.2970  142.9270 O   0  0  0  0  0  0  0  0  0  0  0  0
  191.7950  178.7650  144.8450 C   0  0  1  0  0  3  0  0  0  0  0  0
  182.8420  177.7440  140.0280 C   0  0  0  0  0  0  0  0  0  0  0  0
  182.3580  176.7040  139.6550 C   0  0  0  0  0  3  0  0  0  0  0  0
  187.7240  177.3250  139.2850 C   0  0  0  0  0  2  0  0  0  0  0  0
  189.7770  176.3500  138.2490 C   0  0  0  0  0  2  0  0  0  0  0  0
  189.3640  177.5500  135.8710 S   0  0  0  0  0  0  0  0  0  0  0  0
  188.8520  178.3790  137.3600 C   0  0  0  0  0  0  0  0  0  0  0  0
  188.4670  179.5380  137.3460 O   0  0  0  0  0  0  0  0  0  0  0  0
  190.4800  176.5730  136.9170 C   0  0  0  0  0  2  0  0  0  0  0  0
  189.0630  177.6390  138.6310 C   0  0  1  0  0  3  0  0  0  0  0  0
  1  3  1  1  0  0  0
  2  5  1  6  0  0  0
  2  4  1  0  0  0  0
  3 13  1  0  0  0  0
  4  7  1  0  0  0  0
  4  1  1  0  0  0  0
  5 12  1  0  0  0  0
  6  2  1  0  0  0  0
  6 10  1  0  0  0  0
  7  9  1  0  0  0  0
  8  7  1  0  0  0  0
  9 13  1  0  0  0  0
 10 11  1  0  0  0  0
 11  1  1  0  0  0  0
 11 18  1  0  0  0  0
 12  8  1  0  0  0  0
 14 16  1  0  0  0  0
 14 19  1  0  0  0  0
 15 23  1  0  0  0  0
 17 20  1  0  0  0  0
 17 23  1  0  0  0  0
 18 21  1  0  0  0  0
 18 20  1  0  0  0  0
 21 14  1  0  0  0  0
 22 21  2  0  0  0  0
 23 19  1  0  0  0  0
 24 12  1  0  0  0  0
 25 24  3  0  0  0  0
 26  6  1  0  0  0  0
 27 32  1  0  0  0  0
 28 31  1  0  0  0  0
 28 29  1  0  0  0  0
 29 32  1  0  0  0  0
 30 29  2  0  0  0  0
 31 27  1  0  0  0  0
 32 26  1  0  0  0  0
M  END
>  <MODEL>
5

>  <REMARK>
 VINA RESULT:      -8.7      1.942      2.212
  Name = 
  4 active torsions:
  status: ('A' for Active; 'I' for Inactive)
    1  A    between atoms: C_10  and  C_28
    2  A    between atoms: C_13  and  C_29
    3  A    between atoms: N_16  and  C_27
    4  A    between atoms: C_28  and  C_32
                            x       y       z     vdW  Elec       q    Type
                         _______ _______ _______ _____ _____    ______ ____

>  <TORSDO>
F 4

$$$$
=
 OpenBabel10272402133D

 32 36  0  0  1  0  0  0  0  0999 V2000
  186.6360  178.7220  142.8720 C   0  0  1  0  0  3  0  0  0  0  0  0
  188.9120  177.9010  142.2240 C   0  0  1  0  0  3  0  0  0  0  0  0
  185.4070  178.4850  143.7710 C   0  0  0  0  0  2  0  0  0  0  0  0
  187.7650  177.7620  143.2140 C   0  0  1  0  0  3  0  0  0  0  0  0
  189.9900  176.8660  142.5540 C   0  0  0  0  0  2  0  0  0  0  0  0
  188.3970  177.7200  140.7830 C   0  0  1  0  0  3  0  0  0  0  0  0
  188.2370  178.0040  144.6430 C   0  0  2  0  0  3  0  0  0  0  0  0
  189.2940  176.9620  145.0060 C   0  0  0  0  0  2  0  0  0  0  0  0
  187.0730  178.0060  145.6510 C   0  0  0  0  0  2  0  0  0  0  0  0
  186.9810  177.6360  140.6850 O   0  0  0  0  0  0  0  0  0  0  0  0
  186.3890  178.7400  141.3450 C   0  0  1  0  0  3  0  0  0  0  0  0
  190.4660  176.9850  144.0110 C   0  0  2  0  0  3  0  0  0  0  0  0
  185.7190  177.6440  145.0210 C   0  0  0  0  0  2  0  0  0  0  0  0
  183.1630  178.5860  139.1590 C   0  0  2  0  0  3  0  0  0  0  0  0
  180.8580  177.6510  140.9720 F   0  0  0  0  0  0  0  0  0  0  0  0
  182.9880  178.8230  137.8070 F   0  0  0  0  0  0  0  0  0  0  0  0
  182.9100  178.1670  142.0570 C   0  0  0  0  0  2  0  0  0  0  0  0
  184.9830  178.8910  140.9670 N   0  0  0  0  0  0  0  0  0  0  0  0
  182.1310  179.3870  139.9390 C   0  0  0  0  0  2  0  0  0  0  0  0
  184.0570  179.1630  142.0630 C   0  0  0  0  0  2  0  0  0  0  0  0
  184.5700  178.9290  139.5800 C   0  0  0  0  0  0  0  0  0  0  0  0
  185.4250  179.1630  138.6820 O   0  0  0  0  0  0  0  0  0  0  0  0
  181.7280  178.6900  141.2410 C   0  0  1  0  0  3  0  0  0  0  0  0
  191.2990  178.1810  144.1990 C   0  0  0  0  0  0  0  0  0  0  0  0
  191.9820  179.1630  144.3510 C   0  0  0  0  0  3  0  0  0  0  0  0
  188.9820  178.7880  139.8600 C   0  0  0  0  0  2  0  0  0  0  0  0
  189.7700  176.6830  138.7710 C   0  0  0  0  0  2  0  0  0  0  0  0
  187.8740  176.7510  136.8570 S   0  0  0  0  0  0  0  0  0  0  0  0
  188.5220  178.2840  137.4890 C   0  0  0  0  0  0  0  0  0  0  0  0
  188.2490  179.3550  136.9710 O   0  0  0  0  0  0  0  0  0  0  0  0
  189.3870  175.9680  137.4830 C   0  0  0  0  0  2  0  0  0  0  0  0
  189.5270  178.1740  138.5790 C   0  0  1  0  0  3  0  0  0  0  0  0
  1  4  1  0  0  0  0
  1  3  1  1  0  0  0
  2  5  1  1  0  0  0
  2  4  1  0  0  0  0
  3 13  1  0  0  0  0
  4  7  1  0  0  0  0
  5 12  1  0  0  0  0
  6  2  1  0  0  0  0
  7  8  1  0  0  0  0
  7  9  1  0  0  0  0
 10  6  1  0  0  0  0
 10 11  1  0  0  0  0
 11  1  1  0  0  0  0
 12 24  1  0  0  0  0
 12  8  1  0  0  0  0
 13  9  1  0  0  0  0
 14 21  1  0  0  0  0
 14 19  1  0  0  0  0
 15 23  1  0  0  0  0
 16 14  1  0  0  0  0
 17 20  1  0  0  0  0
 18 11  1  0  0  0  0
 18 20  1  0  0  0  0
 19 23  1  0  0  0  0
 21 18  1  0  0  0  0
 22 21  2  0  0  0  0
 23 17  1  0  0  0  0
 24 25  3  0  0  0  0
 26  6  1  0  0  0  0
 28 31  1  0  0  0  0
 28 29  1  0  0  0  0
 29 32  1  0  0  0  0
 30 29  2  0  0  0  0
 31 27  1  0  0  0  0
 32 27  1  0  0  0  0
 32 26  1  0  0  0  0
M  END
>  <MODEL>
6

>  <REMARK>
 VINA RESULT:      -8.3      3.771      6.517
  Name = 
  4 active torsions:
  status: ('A' for Active; 'I' for Inactive)
    1  A    between atoms: C_10  and  C_28
    2  A    between atoms: C_13  and  C_29
    3  A    between atoms: N_16  and  C_27
    4  A    between atoms: C_28  and  C_32
                            x       y       z     vdW  Elec       q    Type
                         _______ _______ _______ _____ _____    ______ ____

>  <TORSDO>
F 4

$$$$
=
 OpenBabel10272402133D

 32 36  0  0  1  0  0  0  0  0999 V2000
  188.2340  177.3140  140.6710 C   0  0  1  0  0  3  0  0  0  0  0  0
  189.0440  177.2810  138.3010 C   0  0  1  0  0  3  0  0  0  0  0  0
  187.4620  178.1110  141.7400 C   0  0  0  0  0  2  0  0  0  0  0  0
  188.1560  177.9920  139.3110 C   0  0  1  0  0  3  0  0  0  0  0  0
  188.9990  178.0380  136.9710 C   0  0  0  0  0  2  0  0  0  0  0  0
  190.4870  177.1870  138.8320 C   0  0  1  0  0  3  0  0  0  0  0  0
  186.7080  178.0380  138.8370 C   0  0  2  0  0  3  0  0  0  0  0  0
  186.6330  178.8150  137.5240 C   0  0  0  0  0  2  0  0  0  0  0  0
  185.7630  178.6270  139.9000 C   0  0  0  0  0  2  0  0  0  0  0  0
  190.6320  177.6180  140.1800 O   0  0  0  0  0  0  0  0  0  0  0  0
  189.6990  176.9410  141.0020 C   0  0  1  0  0  3  0  0  0  0  0  0
  187.5580  178.2040  136.4600 C   0  0  2  0  0  3  0  0  0  0  0  0
  186.4950  179.1500  141.1450 C   0  0  0  0  0  2  0  0  0  0  0  0
  191.1770  178.4810  144.2650 C   0  0  2  0  0  3  0  0  0  0  0  0
  189.1260  178.0310  146.5160 F   0  0  0  0  0  0  0  0  0  0  0  0
  192.3570  179.1740  144.4710 F   0  0  0  0  0  0  0  0  0  0  0  0
  188.6890  176.9290  144.4540 C   0  0  0  0  0  2  0  0  0  0  0  0
  190.0450  177.0740  142.4180 N   0  0  0  0  0  0  0  0  0  0  0  0
  191.0710  177.3700  145.2980 C   0  0  0  0  0  2  0  0  0  0  0  0
  189.3600  176.1610  143.3280 C   0  0  0  0  0  2  0  0  0  0  0  0
  191.1170  177.9430  142.8580 C   0  0  0  0  0  0  0  0  0  0  0  0
  191.9770  178.3410  142.0250 O   0  0  0  0  0  0  0  0  0  0  0  0
  189.6160  177.0610  145.6620 C   0  0  1  0  0  3  0  0  0  0  0  0
  187.0250  176.9290  135.9600 C   0  0  0  0  0  0  0  0  0  0  0  0
  186.5890  175.8820  135.5510 C   0  0  0  0  0  3  0  0  0  0  0  0
  191.0590  175.7890  138.6040 C   0  0  0  0  0  2  0  0  0  0  0  0
  193.1310  176.4620  137.3800 C   0  0  0  0  0  2  0  0  0  0  0  0
  193.9070  173.9200  136.9330 S   0  0  0  0  0  0  0  0  0  0  0  0
  192.1680  174.2980  136.9800 C   0  0  0  0  0  0  0  0  0  0  0  0
  191.3260  173.4750  136.6590 O   0  0  0  0  0  0  0  0  0  0  0  0
  194.1810  175.6830  136.6010 C   0  0  0  0  0  2  0  0  0  0  0  0
  191.8100  175.7090  137.2820 C   0  0  1  0  0  3  0  0  0  0  0  0
  1 11  1  0  0  0  0
  1  3  1  1  0  0  0
  2  5  1  6  0  0  0
  2  6  1  0  0  0  0
  2  4  1  0  0  0  0
  4  1  1  0  0  0  0
  6 10  1  0  0  0  0
  7  4  1  0  0  0  0
  7  9  1  0  0  0  0
  8  7  1  0  0  0  0
  9 13  1  0  0  0  0
 10 11  1  0  0  0  0
 11 18  1  0  0  0  0
 12  5  1  0  0  0  0
 12  8  1  0  0  0  0
 13  3  1  0  0  0  0
 14 16  1  0  0  0  0
 14 19  1  0  0  0  0
 17 23  1  0  0  0  0
 18 21  1  0  0  0  0
 18 20  1  0  0  0  0
 19 23  1  0  0  0  0
 20 17  1  0  0  0  0
 21 14  1  0  0  0  0
 22 21  2  0  0  0  0
 23 15  1  0  0  0  0
 24 12  1  0  0  0  0
 25 24  3  0  0  0  0
 26  6  1  0  0  0  0
 28 29  1  0  0  0  0
 29 32  1  0  0  0  0
 30 29  2  0  0  0  0
 31 28  1  0  0  0  0
 31 27  1  0  0  0  0
 32 27  1  0  0  0  0
 32 26  1  0  0  0  0
M  END
>  <MODEL>
7

>  <REMARK>
 VINA RESULT:      -8.1      2.706      4.418
  Name = 
  4 active torsions:
  status: ('A' for Active; 'I' for Inactive)
    1  A    between atoms: C_10  and  C_28
    2  A    between atoms: C_13  and  C_29
    3  A    between atoms: N_16  and  C_27
    4  A    between atoms: C_28  and  C_32
                            x       y       z     vdW  Elec       q    Type
                         _______ _______ _______ _____ _____    ______ ____

>  <TORSDO>
F 4

$$$$
=
 OpenBabel10272402133D

 32 36  0  0  1  0  0  0  0  0999 V2000
  186.6750  177.5970  143.3450 C   0  0  1  0  0  3  0  0  0  0  0  0
  186.0170  178.2650  141.0220 C   0  0  1  0  0  3  0  0  0  0  0  0
  186.5670  177.9350  144.8440 C   0  0  0  0  0  2  0  0  0  0  0  0
  185.7880  178.5060  142.5070 C   0  0  1  0  0  3  0  0  0  0  0  0
  185.1680  179.2510  140.2160 C   0  0  0  0  0  2  0  0  0  0  0  0
  187.5110  178.4190  140.6810 C   0  0  1  0  0  3  0  0  0  0  0  0
  184.3260  178.2930  142.8820 C   0  0  2  0  0  3  0  0  0  0  0  0
  183.4600  179.2880  142.1110 C   0  0  0  0  0  2  0  0  0  0  0  0
  184.0910  178.3940  144.4000 C   0  0  0  0  0  2  0  0  0  0  0  0
  188.3480  178.5780  141.8200 O   0  0  0  0  0  0  0  0  0  0  0  0
  188.1000  177.5340  142.7450 C   0  0  1  0  0  3  0  0  0  0  0  0
  183.6800  179.1620  140.5950 C   0  0  2  0  0  3  0  0  0  0  0  0
  185.3450  178.8060  145.1870 C   0  0  0  0  0  2  0  0  0  0  0  0
  191.2190  178.5600  144.8490 C   0  0  2  0  0  3  0  0  0  0  0  0
  190.6860  177.7280  147.7640 F   0  0  0  0  0  0  0  0  0  0  0  0
  192.3700  179.2290  144.4720 F   0  0  0  0  0  0  0  0  0  0  0  0
  189.1220  176.9610  146.1450 C   0  0  0  0  0  2  0  0  0  0  0  0
  189.1670  177.4470  143.7440 N   0  0  0  0  0  0  0  0  0  0  0  0
  191.6070  177.2980  145.6030 C   0  0  0  0  0  2  0  0  0  0  0  0
  189.0170  176.3910  144.7410 C   0  0  0  0  0  2  0  0  0  0  0  0
  190.3670  178.2500  143.6440 C   0  0  0  0  0  0  0  0  0  0  0  0
  190.6650  178.7890  142.5420 O   0  0  0  0  0  0  0  0  0  0  0  0
  190.5630  176.9130  146.6540 C   0  0  1  0  0  3  0  0  0  0  0  0
  183.0740  177.9300  140.0700 C   0  0  0  0  0  0  0  0  0  0  0  0
  182.5760  176.9180  139.6410 C   0  0  0  0  0  3  0  0  0  0  0  0
  187.9790  177.2860  139.7700 C   0  0  0  0  0  2  0  0  0  0  0  0
  188.8200  178.7770  137.9510 C   0  0  0  0  0  2  0  0  0  0  0  0
  189.6440  176.7280  136.4070 S   0  0  0  0  0  0  0  0  0  0  0  0
  188.2100  176.5120  137.4380 C   0  0  0  0  0  0  0  0  0  0  0  0
  187.5000  175.5230  137.3470 O   0  0  0  0  0  0  0  0  0  0  0  0
  189.3570  178.5140  136.5510 C   0  0  0  0  0  2  0  0  0  0  0  0
  187.8420  177.6640  138.3020 C   0  0  1  0  0  3  0  0  0  0  0  0
  1  3  1  1  0  0  0
  2  5  1  6  0  0  0
  2  4  1  0  0  0  0
  3 13  1  0  0  0  0
  4  7  1  0  0  0  0
  4  1  1  0  0  0  0
  5 12  1  0  0  0  0
  6  2  1  0  0  0  0
  6 10  1  0  0  0  0
  7  9  1  0  0  0  0
  8  7  1  0  0  0  0
  9 13  1  0  0  0  0
 10 11  1  0  0  0  0
 11  1  1  0  0  0  0
 11 18  1  0  0  0  0
 12  8  1  0  0  0  0
 14 19  1  0  0  0  0
 16 14  1  0  0  0  0
 17 23  1  0  0  0  0
 18 20  1  0  0  0  0
 19 23  1  0  0  0  0
 20 17  1  0  0  0  0
 21 18  1  0  0  0  0
 21 14  1  0  0  0  0
 22 21  2  0  0  0  0
 23 15  1  0  0  0  0
 24 12  1  0  0  0  0
 25 24  3  0  0  0  0
 26  6  1  0  0  0  0
 27 32  1  0  0  0  0
 28 31  1  0  0  0  0
 28 29  1  0  0  0  0
 29 32  1  0  0  0  0
 30 29  2  0  0  0  0
 31 27  1  0  0  0  0
 32 26  1  0  0  0  0
M  END
>  <MODEL>
8

>  <REMARK>
 VINA RESULT:      -8.0      1.592      1.894
  Name = 
  4 active torsions:
  status: ('A' for Active; 'I' for Inactive)
    1  A    between atoms: C_10  and  C_28
    2  A    between atoms: C_13  and  C_29
    3  A    between atoms: N_16  and  C_27
    4  A    between atoms: C_28  and  C_32
                            x       y       z     vdW  Elec       q    Type
                         _______ _______ _______ _____ _____    ______ ____

>  <TORSDO>
F 4

$$$$
=
 OpenBabel10272402133D

 32 36  0  0  1  0  0  0  0  0999 V2000
  186.5170  178.7050  142.0940 C   0  0  1  0  0  3  0  0  0  0  0  0
  187.5610  178.1260  144.2960 C   0  0  1  0  0  3  0  0  0  0  0  0
  185.3400  178.4400  141.1360 C   0  0  0  0  0  2  0  0  0  0  0  0
  186.3270  177.9810  143.4180 C   0  0  1  0  0  3  0  0  0  0  0  0
  187.3630  177.3190  145.5810 C   0  0  0  0  0  2  0  0  0  0  0  0
  188.8140  177.6500  143.5360 C   0  0  1  0  0  3  0  0  0  0  0  0
  185.0830  178.5070  144.1240 C   0  0  2  0  0  3  0  0  0  0  0  0
  184.8460  177.6970  145.3970 C   0  0  0  0  0  2  0  0  0  0  0  0
  183.8450  178.5010  143.2100 C   0  0  0  0  0  2  0  0  0  0  0  0
  188.5770  177.3510  142.1660 O   0  0  0  0  0  0  0  0  0  0  0  0
  187.9390  178.4490  141.5400 C   0  0  1  0  0  3  0  0  0  0  0  0
  186.0770  177.7300  146.3180 C   0  0  2  0  0  3  0  0  0  0  0  0
  184.1010  177.8560  141.8390 C   0  0  0  0  0  2  0  0  0  0  0  0
  189.2100  177.3630  138.0180 C   0  0  2  0  0  3  0  0  0  0  0  0
  186.7420  176.6960  136.3050 F   0  0  0  0  0  0  0  0  0  0  0  0
  190.5010  177.2100  137.5420 F   0  0  0  0  0  0  0  0  0  0  0  0
  186.3190  177.7060  138.4160 C   0  0  0  0  0  2  0  0  0  0  0  0
  188.0020  178.3380  140.0820 N   0  0  0  0  0  0  0  0  0  0  0  0
  188.4230  178.2230  137.0410 C   0  0  0  0  0  2  0  0  0  0  0  0
  186.8170  178.7880  139.3590 C   0  0  0  0  0  2  0  0  0  0  0  0
  189.2230  177.9590  139.4020 C   0  0  0  0  0  0  0  0  0  0  0  0
  190.3250  178.0390  140.0130 O   0  0  0  0  0  0  0  0  0  0  0  0
  186.9360  177.8590  137.0260 C   0  0  1  0  0  3  0  0  0  0  0  0
  186.2300  179.0470  146.9520 C   0  0  0  0  0  0  0  0  0  0  0  0
  186.3570  180.1280  147.4710 C   0  0  0  0  0  3  0  0  0  0  0  0
  189.9680  178.6340  143.7250 C   0  0  0  0  0  2  0  0  0  0  0  0
  190.8660  177.3010  145.6380 C   0  0  0  0  0  2  0  0  0  0  0  0
  191.5120  175.1870  144.0960 S   0  0  0  0  0  0  0  0  0  0  0  0
  191.6170  176.8250  143.4070 C   0  0  0  0  0  0  0  0  0  0  0  0
  192.1230  177.0280  142.3150 O   0  0  0  0  0  0  0  0  0  0  0  0
  191.6070  175.9740  145.7290 C   0  0  0  0  0  2  0  0  0  0  0  0
  191.1970  177.9400  144.2960 C   0  0  1  0  0  3  0  0  0  0  0  0
  1  3  1  6  0  0  0
  1  4  1  0  0  0  0
  2  5  1  1  0  0  0
  3 13  1  0  0  0  0
  4  7  1  0  0  0  0
  4  2  1  0  0  0  0
  5 12  1  0  0  0  0
  6 26  1  0  0  0  0
  6  2  1  0  0  0  0
  7  8  1  0  0  0  0
  8 12  1  0  0  0  0
  9  7  1  0  0  0  0
 10  6  1  0  0  0  0
 11  1  1  0  0  0  0
 11 10  1  0  0  0  0
 12 24  1  0  0  0  0
 13  9  1  0  0  0  0
 14 21  1  0  0  0  0
 15 23  1  0  0  0  0
 16 14  1  0  0  0  0
 17 20  1  0  0  0  0
 18 11  1  0  0  0  0
 19 14  1  0  0  0  0
 20 18  1  0  0  0  0
 21 22  2  0  0  0  0
 21 18  1  0  0  0  0
 23 19  1  0  0  0  0
 23 17  1  0  0  0  0
 24 25  3  0  0  0  0
 26 32  1  0  0  0  0
 27 31  1  0  0  0  0
 28 31  1  0  0  0  0
 29 28  1  0  0  0  0
 29 32  1  0  0  0  0
 30 29  2  0  0  0  0
 32 27  1  0  0  0  0
M  END
>  <MODEL>
9

>  <REMARK>
 VINA RESULT:      -7.8      3.330      6.380
  Name = 
  4 active torsions:
  status: ('A' for Active; 'I' for Inactive)
    1  A    between atoms: C_10  and  C_28
    2  A    between atoms: C_13  and  C_29
    3  A    between atoms: N_16  and  C_27
    4  A    between atoms: C_28  and  C_32
                            x       y       z     vdW  Elec       q    Type
                         _______ _______ _______ _____ _____    ______ ____

>  <TORSDO>
F 4

$$$$
