=
 OpenBabel10272401223D

 55 59  0  0  1  0  0  0  0  0999 V2000
  187.8600  176.9820  136.3360 C   0  0  0  0  0  3  0  0  0  0  0  0
  185.0380  176.5360  140.0750 C   0  0  0  0  0  2  0  0  0  0  0  0
  184.6080  179.0930  141.9110 C   0  0  0  0  0  1  0  0  0  0  0  0
  183.9030  176.1260  137.2420 C   0  0  0  0  0  2  0  0  0  0  0  0
  182.6510  174.2620  138.1280 O   0  0  0  0  0  0  0  0  0  0  0  0
  187.5700  178.3560  142.7250 O   0  0  0  0  0  1  0  0  0  0  0  0
  180.2150  177.8640  138.6860 C   0  0  0  0  0  2  0  0  0  0  0  0
  182.1630  179.5440  136.9040 C   0  0  2  0  0  3  0  0  0  0  0  0
  188.7440  177.3680  140.8520 C   0  0  2  0  0  3  0  0  0  0  0  0
  187.4250  179.3670  139.2470 C   0  0  0  0  0  2  0  0  0  0  0  0
  181.4040  176.1720  137.2710 C   0  0  1  0  0  3  0  0  0  0  0  0
  181.5120  175.0720  138.3280 C   0  0  0  0  0  2  0  0  0  0  0  0
  185.8520  175.0200  134.6810 S   0  0  0  0  0  0  0  0  0  0  0  0
  180.1030  176.9320  137.4910 C   0  0  0  0  0  2  0  0  0  0  0  0
  187.4080  177.9390  141.4020 C   0  0  2  0  0  3  0  0  0  0  0  0
  187.0230  173.9280  136.9800 C   0  0  2  0  0  3  0  0  0  0  0  0
  188.0110  178.2700  137.0730 C   0  0  2  0  0  3  0  0  0  0  0  0
  179.9820  179.3090  138.2730 C   0  0  0  0  0  2  0  0  0  0  0  0
  187.5710  172.7060  137.7020 C   0  0  0  0  0  1  0  0  0  0  0  0
  190.1990  177.3380  138.7470 C   0  0  2  0  0  3  0  0  0  0  0  0
  189.3940  178.8390  136.9240 C   0  0  0  0  0  3  0  0  0  0  0  0
  183.9070  175.5640  139.7640 C   0  0  0  0  0  2  0  0  0  0  0  0
  188.7620  177.2310  139.3070 C   0  0  2  0  0  3  0  0  0  0  0  0
  184.6620  177.9510  139.6530 C   0  0  0  0  0  2  0  0  0  0  0  0
  185.2600  179.0540  140.5370 C   0  0  2  0  0  3  0  0  0  0  0  0
  187.5390  175.6120  134.3460 C   0  0  0  0  0  2  0  0  0  0  0  0
  182.6790  177.0530  137.2960 C   0  0  2  0  0  3  0  0  0  0  0  0
  183.8380  175.0170  138.3140 C   0  0  2  0  0  0  0  0  0  0  0  0
  187.7440  176.9330  135.0110 C   0  0  0  0  0  3  0  0  0  0  0  0
  186.7960  179.1110  140.6100 C   0  0  2  0  0  3  0  0  0  0  0  0
  187.6840  178.0460  138.5510 C   0  0  1  0  0  3  0  0  0  0  0  0
  180.6300  179.6720  136.9340 C   0  0  0  0  0  2  0  0  0  0  0  0
  185.0060  174.0480  138.0950 C   0  0  0  0  0  2  0  0  0  0  0  0
  190.3910  178.4240  137.7120 C   0  0  0  0  0  3  0  0  0  0  0  0
  182.7580  178.2450  136.2690 C   0  0  1  0  0  0  0  0  0  0  0  0
  186.2110  174.7280  137.8210 O   0  0  0  0  0  0  0  0  0  0  0  0
  186.3920  173.5580  135.6320 C   0  0  0  0  0  2  0  0  0  0  0  0
  182.0910  177.8730  134.9530 C   0  0  0  0  0  0  0  0  0  0  0  0
  182.1820  176.5780  134.4490 O   0  0  0  0  0  1  0  0  0  0  0  0
  181.3740  178.7160  134.3460 O   0  0  0  0  0  0  0  0  0  0  0  0
  188.5100  175.8170  142.8890 C   0  0  0  0  0  1  0  0  0  0  0  0
  189.0530  175.9850  141.4790 C   0  0  2  0  0  3  0  0  0  0  0  0
  190.4330  175.7710  141.5310 O   0  0  0  0  0  1  0  0  0  0  0  0
  184.2400  178.5730  135.9610 C   0  0  0  0  0  2  0  0  0  0  0  0
  184.6440  178.3580  134.5060 C   0  0  0  0  0  1  0  0  0  0  0  0
  182.7420  179.8410  138.1500 O   0  0  0  0  0  0  0  0  0  0  0  0
  183.6620  181.9160  138.4680 O   0  0  0  0  0  1  0  0  0  0  0  0
  182.4710  181.1900  138.3910 C   0  0  0  0  0  2  0  0  0  0  0  0
  190.6130  175.9900  138.1690 C   0  0  0  0  0  2  0  0  0  0  0  0
  191.4610  176.1850  136.9250 C   0  0  0  0  0  2  0  0  0  0  0  0
  193.3590  175.9390  138.3410 O   0  0  0  0  0  0  0  0  0  0  0  0
  192.8540  175.7450  137.2000 C   0  0  0  0  0  0  0  0  0  0  0  0
  193.6130  175.1090  136.1740 N   0  0  0  0  0  2  0  0  0  0  0  0
  194.9620  174.6220  136.4050 C   0  0  0  0  0  2  0  0  0  0  0  0
  195.2250  173.4210  135.5180 C   0  0  0  0  0  1  0  0  0  0  0  0
  4 27  1  0  0  0  0
  4 28  1  0  0  0  0
  5 28  1  0  0  0  0
  5 12  1  0  0  0  0
  8 32  1  0  0  0  0
  8 46  1  1  0  0  0
  9 15  1  0  0  0  0
  9 42  1  1  0  0  0
 10 30  1  0  0  0  0
 11 27  1  0  0  0  0
 11 14  1  1  0  0  0
 11 12  1  0  0  0  0
 13 37  1  0  0  0  0
 14  7  1  0  0  0  0
 15  6  1  1  0  0  0
 16 19  1  1  0  0  0
 16 36  1  0  0  0  0
 17  1  1  6  0  0  0
 17 31  1  0  0  0  0
 18  7  1  0  0  0  0
 20 49  1  6  0  0  0
 20 23  1  0  0  0  0
 21 17  1  0  0  0  0
 21 34  2  0  0  0  0
 22  2  1  0  0  0  0
 23  9  1  0  0  0  0
 24  2  1  0  0  0  0
 24 25  1  0  0  0  0
 25 30  1  0  0  0  0
 25  3  1  0  0  0  0
 26 13  1  0  0  0  0
 26 29  1  0  0  0  0
 28 22  1  0  0  0  0
 29  1  2  0  0  0  0
 30 15  1  0  0  0  0
 31 10  1  0  0  0  0
 31 23  1  0  0  0  0
 32 18  1  0  0  0  0
 33 28  1  0  0  0  0
 34 20  1  0  0  0  0
 35  8  1  0  0  0  0
 35 27  1  0  0  0  0
 36 33  1  0  0  0  0
 37 16  1  0  0  0  0
 38 35  1  0  0  0  0
 39 38  1  0  0  0  0
 40 38  2  0  0  0  0
 42 43  1  0  0  0  0
 42 41  1  0  0  0  0
 44 35  1  0  0  0  0
 45 44  1  0  0  0  0
 46 48  1  0  0  0  0
 48 47  1  0  0  0  0
 50 52  1  0  0  0  0
 50 49  1  0  0  0  0
 52 51  2  0  0  0  0
 53 54  1  0  0  0  0
 53 52  1  0  0  0  0
 55 54  1  0  0  0  0
M  END
>  <MODEL>
1

>  <REMARK>
 VINA RESULT:       7.7      0.000      0.000
  Name = 
  9 active torsions:
  status: ('A' for Active; 'I' for Inactive)
    1  A    between atoms: C_1  and  C_53
    2  A    between atoms: C_6  and  C_53
    3  A    between atoms: O_12  and  C_14
    4  A    between atoms: O_12  and  C_38
    5  A    between atoms: C_13  and  C_33
    6  A    between atoms: C_13  and  C_48
    7  A    between atoms: C_16  and  C_17
    8  A    between atoms: C_18  and  N_39
    9  A    between atoms: C_32  and  C_48
                            x       y       z     vdW  Elec       q    Type
                         _______ _______ _______ _____ _____    ______ ____

>  <TORSDO>
F 9

$$$$
