=
 OpenBabel10272415083D

 34 39  0  0  0  0  0  0  0  0999 V2000
  186.8460  178.1890  143.9330 C   0  0  0  0  0  0  0  0  0  0  0  0
  187.8110  177.5780  147.5380 C   0  0  0  0  0  3  0  0  0  0  0  0
  185.7820  178.2640  146.5620 C   0  0  0  0  0  3  0  0  0  0  0  0
  186.1290  178.6720  141.4940 C   0  0  0  0  0  0  0  0  0  0  0  0
  187.2420  178.2040  142.4630 C   0  0  0  0  0  2  0  0  0  0  0  0
  184.6070  178.9100  143.3640 C   0  0  0  0  0  0  0  0  0  0  0  0
  183.4770  179.1900  144.0540 N   0  0  0  0  0  0  0  0  0  0  0  0
  184.8880  178.9880  141.9300 C   0  0  0  0  0  3  0  0  0  0  0  0
  185.0210  178.5860  145.4470 C   0  0  0  0  0  0  0  0  0  0  0  0
  185.5580  178.5360  144.2250 C   0  0  0  0  0  0  0  0  0  0  0  0
  183.7350  178.9880  145.3520 N   0  0  0  0  0  0  0  0  0  0  0  0
  189.1170  177.1740  147.7630 C   0  0  0  0  0  3  0  0  0  0  0  0
  190.1530  176.9510  146.8660 C   0  0  0  0  0  0  0  0  0  0  0  0
  190.0660  177.1040  145.4880 C   0  0  0  0  0  3  0  0  0  0  0  0
  187.1370  177.8830  146.3630 C   0  0  0  0  0  0  0  0  0  0  0  0
  188.9960  177.4900  144.6970 C   0  0  0  0  0  3  0  0  0  0  0  0
  187.6890  177.8430  145.0260 C   0  0  0  0  0  0  0  0  0  0  0  0
  191.4490  176.5210  147.4270 C   0  0  0  0  0  0  0  0  0  0  0  0
  192.0510  175.3460  146.9890 O   0  0  0  0  0  0  0  0  0  0  0  0
  192.0280  177.2100  148.3100 O   0  0  0  0  0  1  0  0  0  0  0  0
  186.3570  178.7450  140.1110 O   0  0  0  0  0  0  0  0  0  0  0  0
  188.0750  177.1390  137.3040 N   0  0  0  0  0  0  0  0  0  0  0  0
  188.5720  177.6790  139.9660 C   0  0  0  0  0  3  0  0  0  0  0  0
  191.6410  176.4070  137.4270 N   0  0  0  0  0  0  0  0  0  0  0  0
  192.6830  176.3590  136.4440 C   0  0  0  0  0  0  0  0  0  0  0  0
  190.2790  176.0350  137.0270 C   0  0  0  0  0  2  0  0  0  0  0  0
  193.8720  176.6310  136.7590 O   0  0  0  0  0  1  0  0  0  0  0  0
  189.2640  176.7650  137.8470 C   0  0  0  0  0  0  0  0  0  0  0  0
  192.3910  176.0130  135.1290 O   0  0  0  0  0  0  0  0  0  0  0  0
  190.8210  176.5690  139.7890 C   0  0  0  0  0  2  0  0  0  0  0  0
  189.5330  177.0310  139.1920 C   0  0  0  0  0  0  0  0  0  0  0  0
  191.9800  176.7850  138.8110 C   0  0  0  0  0  2  0  0  0  0  0  0
  187.3500  178.0620  139.3930 C   0  0  0  0  0  0  0  0  0  0  0  0
  187.1280  177.7820  138.0400 C   0  0  0  0  0  3  0  0  0  0  0  0
  1 10  1  0  0  0  0
  1 17  2  0  0  0  0
  2 12  1  0  0  0  0
  4  8  2  0  0  0  0
  4  5  1  0  0  0  0
  5  1  1  0  0  0  0
  6  7  1  0  0  0  0
  6 10  2  0  0  0  0
  7 11  2  0  0  0  0
  8  6  1  0  0  0  0
  9  3  2  0  0  0  0
 10  9  1  0  0  0  0
 11  9  1  0  0  0  0
 13 18  1  0  0  0  0
 13 12  2  0  0  0  0
 14 13  1  0  0  0  0
 15  3  1  0  0  0  0
 15  2  2  0  0  0  0
 16 17  1  0  0  0  0
 16 14  2  0  0  0  0
 17 15  1  0  0  0  0
 18 20  1  0  0  0  0
 19 18  2  0  0  0  0
 21  4  1  0  0  0  0
 22 28  2  0  0  0  0
 22 34  1  0  0  0  0
 24 32  1  0  0  0  0
 25 27  1  0  0  0  0
 25 24  1  0  0  0  0
 26 24  1  0  0  0  0
 26 28  1  0  0  0  0
 28 31  1  0  0  0  0
 29 25  2  0  0  0  0
 31 30  1  0  0  0  0
 31 23  2  0  0  0  0
 32 30  1  0  0  0  0
 33 23  1  0  0  0  0
 33 21  1  0  0  0  0
 34 33  2  0  0  0  0
M  END
>  <MODEL>
1

>  <REMARK>
 VINA RESULT:     -12.5      0.000      0.000
  Name = 
  3 active torsions:
  status: ('A' for Active; 'I' for Inactive)
    1  A    between atoms: C_3  and  C_25
    2  A    between atoms: C_8  and  O_18
    3  A    between atoms: O_18  and  C_30
                            x       y       z     vdW  Elec       q    Type
                         _______ _______ _______ _____ _____    ______ ____

>  <TORSDO>
F 3

$$$$
=
 OpenBabel10272415083D

 34 39  0  0  0  0  0  0  0  0999 V2000
  186.8440  178.1660  143.9320 C   0  0  0  0  0  0  0  0  0  0  0  0
  187.8610  177.5890  147.5270 C   0  0  0  0  0  3  0  0  0  0  0  0
  185.8230  178.2830  146.5760 C   0  0  0  0  0  3  0  0  0  0  0  0
  186.0910  178.6270  141.4980 C   0  0  0  0  0  0  0  0  0  0  0  0
  187.2150  178.1590  142.4550 C   0  0  0  0  0  2  0  0  0  0  0  0
  184.6020  178.9020  143.3890 C   0  0  0  0  0  0  0  0  0  0  0  0
  183.4870  179.2020  144.0940 N   0  0  0  0  0  0  0  0  0  0  0  0
  184.8610  178.9600  141.9500 C   0  0  0  0  0  3  0  0  0  0  0  0
  185.0470  178.5990  145.4700 C   0  0  0  0  0  0  0  0  0  0  0  0
  185.5640  178.5290  144.2400 C   0  0  0  0  0  0  0  0  0  0  0  0
  183.7640  179.0120  145.3900 N   0  0  0  0  0  0  0  0  0  0  0  0
  189.1660  177.1740  147.7360 C   0  0  0  0  0  3  0  0  0  0  0  0
  190.1850  176.9300  146.8260 C   0  0  0  0  0  0  0  0  0  0  0  0
  190.0770  177.0680  145.4470 C   0  0  0  0  0  3  0  0  0  0  0  0
  187.1710  177.8860  146.3590 C   0  0  0  0  0  0  0  0  0  0  0  0
  188.9990  177.4550  144.6690 C   0  0  0  0  0  3  0  0  0  0  0  0
  187.7000  177.8240  145.0150 C   0  0  0  0  0  0  0  0  0  0  0  0
  191.4860  176.4950  147.3710 C   0  0  0  0  0  0  0  0  0  0  0  0
  192.0880  175.3290  146.9080 O   0  0  0  0  0  0  0  0  0  0  0  0
  192.0690  177.1700  148.2620 O   0  0  0  0  0  1  0  0  0  0  0  0
  186.2980  178.6820  140.1110 O   0  0  0  0  0  0  0  0  0  0  0  0
  189.7750  178.0260  139.1660 N   0  0  0  0  0  0  0  0  0  0  0  0
  187.2540  177.2450  138.3540 C   0  0  0  0  0  3  0  0  0  0  0  0
  190.6610  175.2350  137.0010 N   0  0  0  0  0  0  0  0  0  0  0  0
  191.8030  174.3740  136.9020 C   0  0  0  0  0  0  0  0  0  0  0  0
  190.8620  176.6230  137.4340 C   0  0  0  0  0  2  0  0  0  0  0  0
  191.6760  173.1890  136.4940 O   0  0  0  0  0  0  0  0  0  0  0  0
  189.6510  177.1410  138.1420 C   0  0  0  0  0  0  0  0  0  0  0  0
  193.0640  174.8380  137.2580 O   0  0  0  0  0  1  0  0  0  0  0  0
  188.2610  175.8010  136.5590 C   0  0  0  0  0  2  0  0  0  0  0  0
  188.3840  176.7340  137.7180 C   0  0  0  0  0  0  0  0  0  0  0  0
  189.3360  174.7120  136.6240 C   0  0  0  0  0  2  0  0  0  0  0  0
  187.3950  178.1560  139.4110 C   0  0  0  0  0  0  0  0  0  0  0  0
  188.6850  178.5300  139.8060 C   0  0  0  0  0  3  0  0  0  0  0  0
  1 10  1  0  0  0  0
  1 17  2  0  0  0  0
  2 12  1  0  0  0  0
  4  8  2  0  0  0  0
  4  5  1  0  0  0  0
  5  1  1  0  0  0  0
  6  7  1  0  0  0  0
  6 10  2  0  0  0  0
  7 11  2  0  0  0  0
  8  6  1  0  0  0  0
  9  3  2  0  0  0  0
 10  9  1  0  0  0  0
 11  9  1  0  0  0  0
 13 18  1  0  0  0  0
 13 12  2  0  0  0  0
 14 13  1  0  0  0  0
 15  3  1  0  0  0  0
 15  2  2  0  0  0  0
 16 17  1  0  0  0  0
 16 14  2  0  0  0  0
 17 15  1  0  0  0  0
 18 20  1  0  0  0  0
 19 18  2  0  0  0  0
 21  4  1  0  0  0  0
 22 34  1  0  0  0  0
 23 33  1  0  0  0  0
 24 26  1  0  0  0  0
 25 24  1  0  0  0  0
 25 29  1  0  0  0  0
 26 28  1  0  0  0  0
 27 25  2  0  0  0  0
 28 22  2  0  0  0  0
 30 32  1  0  0  0  0
 30 31  1  0  0  0  0
 31 28  1  0  0  0  0
 31 23  2  0  0  0  0
 32 24  1  0  0  0  0
 33 34  2  0  0  0  0
 33 21  1  0  0  0  0
M  END
>  <MODEL>
2

>  <REMARK>
 VINA RESULT:     -12.2      1.067      1.598
  Name = 
  3 active torsions:
  status: ('A' for Active; 'I' for Inactive)
    1  A    between atoms: C_3  and  C_25
    2  A    between atoms: C_8  and  O_18
    3  A    between atoms: O_18  and  C_30
                            x       y       z     vdW  Elec       q    Type
                         _______ _______ _______ _____ _____    ______ ____

>  <TORSDO>
F 3

$$$$
=
 OpenBabel10272415083D

 34 39  0  0  0  0  0  0  0  0999 V2000
  187.8070  177.8590  145.2270 C   0  0  0  0  0  0  0  0  0  0  0  0
  191.3550  177.0090  144.2340 C   0  0  0  0  0  3  0  0  0  0  0  0
  190.3530  177.2970  146.3440 C   0  0  0  0  0  3  0  0  0  0  0  0
  185.4110  178.4850  145.9790 C   0  0  0  0  0  0  0  0  0  0  0  0
  186.3780  178.1780  144.8100 C   0  0  0  0  0  3  0  0  0  0  0  0
  187.1990  178.0710  147.5600 C   0  0  0  0  0  0  0  0  0  0  0  0
  187.8490  177.9620  148.7420 N   0  0  0  0  0  2  0  0  0  0  0  0
  185.8080  178.4180  147.2710 C   0  0  0  0  0  3  0  0  0  0  0  0
  189.2450  177.5730  147.1330 C   0  0  0  0  0  0  0  0  0  0  0  0
  188.0620  177.8300  146.5680 C   0  0  0  0  0  0  0  0  0  0  0  0
  189.1240  177.6500  148.4750 N   0  0  0  0  0  0  0  0  0  0  0  0
  191.6060  176.9160  142.8740 C   0  0  0  0  0  3  0  0  0  0  0  0
  190.7530  177.0860  141.7920 C   0  0  0  0  0  0  0  0  0  0  0  0
  189.4030  177.4050  141.8790 C   0  0  0  0  0  3  0  0  0  0  0  0
  190.1900  177.2980  144.9320 C   0  0  0  0  0  0  0  0  0  0  0  0
  188.6040  177.6190  142.9910 C   0  0  0  0  0  3  0  0  0  0  0  0
  188.8960  177.5840  144.3530 C   0  0  0  0  0  0  0  0  0  0  0  0
  191.3320  176.9190  140.4440 C   0  0  0  0  0  0  0  0  0  0  0  0
  190.6680  176.1660  139.4820 O   0  0  0  0  0  0  0  0  0  0  0  0
  192.4340  177.4540  140.1470 O   0  0  0  0  0  1  0  0  0  0  0  0
  184.0660  178.8070  145.7400 O   0  0  0  0  0  0  0  0  0  0  0  0
  181.3570  178.9960  143.2840 N   0  0  0  0  0  0  0  0  0  0  0  0
  184.0830  178.5600  143.2910 C   0  0  0  0  0  3  0  0  0  0  0  0
  182.0420  179.3180  139.7210 N   0  0  0  0  0  0  0  0  0  0  0  0
  181.3680  179.9590  138.6310 C   0  0  0  0  0  0  0  0  0  0  0  0
  181.2390  178.7640  140.8170 C   0  0  0  0  0  2  0  0  0  0  0  0
  182.0210  180.4090  137.6520 O   0  0  0  0  0  0  0  0  0  0  0  0
  182.0000  178.7920  142.1030 C   0  0  0  0  0  0  0  0  0  0  0  0
  179.9840  180.0910  138.6420 O   0  0  0  0  0  1  0  0  0  0  0  0
  184.0650  178.2960  140.7900 C   0  0  0  0  0  2  0  0  0  0  0  0
  183.3790  178.5700  142.0870 C   0  0  0  0  0  0  0  0  0  0  0  0
  183.5110  179.1990  139.6840 C   0  0  0  0  0  2  0  0  0  0  0  0
  183.4090  178.7740  144.5010 C   0  0  0  0  0  0  0  0  0  0  0  0
  182.0280  178.9990  144.4680 C   0  0  0  0  0  3  0  0  0  0  0  0
  1 10  1  0  0  0  0
  2 15  1  0  0  0  0
  3  9  1  0  0  0  0
  4  8  2  0  0  0  0
  5  1  2  0  0  0  0
  5  4  1  0  0  0  0
  6  7  1  0  0  0  0
  8  6  1  0  0  0  0
  9 11  2  0  0  0  0
 10  9  1  0  0  0  0
 10  6  2  0  0  0  0
 11  7  1  0  0  0  0
 12  2  2  0  0  0  0
 13 14  2  0  0  0  0
 13 12  1  0  0  0  0
 14 16  1  0  0  0  0
 15  3  2  0  0  0  0
 16 17  2  0  0  0  0
 17 15  1  0  0  0  0
 17  1  1  0  0  0  0
 18 13  1  0  0  0  0
 19 18  2  0  0  0  0
 20 18  1  0  0  0  0
 21  4  1  0  0  0  0
 22 34  1  0  0  0  0
 23 33  1  0  0  0  0
 24 26  1  0  0  0  0
 25 29  1  0  0  0  0
 25 24  1  0  0  0  0
 26 28  1  0  0  0  0
 27 25  2  0  0  0  0
 28 22  2  0  0  0  0
 30 31  1  0  0  0  0
 31 28  1  0  0  0  0
 31 23  2  0  0  0  0
 32 24  1  0  0  0  0
 32 30  1  0  0  0  0
 33 21  1  0  0  0  0
 34 33  2  0  0  0  0
M  END
>  <MODEL>
3

>  <REMARK>
 VINA RESULT:     -11.6      3.643      7.108
  Name = 
  3 active torsions:
  status: ('A' for Active; 'I' for Inactive)
    1  A    between atoms: C_3  and  C_25
    2  A    between atoms: C_8  and  O_18
    3  A    between atoms: O_18  and  C_30
                            x       y       z     vdW  Elec       q    Type
                         _______ _______ _______ _____ _____    ______ ____

>  <TORSDO>
F 3

$$$$
=
 OpenBabel10272415083D

 34 39  0  0  0  0  0  0  0  0999 V2000
  186.5180  178.2820  143.9260 C   0  0  0  0  0  0  0  0  0  0  0  0
  187.8730  177.4730  147.3620 C   0  0  0  0  0  3  0  0  0  0  0  0
  185.7430  178.1820  146.6530 C   0  0  0  0  0  3  0  0  0  0  0  0
  185.5360  178.8980  141.6110 C   0  0  0  0  0  0  0  0  0  0  0  0
  186.7520  178.3920  142.4250 C   0  0  0  0  0  2  0  0  0  0  0  0
  184.2230  178.9970  143.6450 C   0  0  0  0  0  0  0  0  0  0  0  0
  183.1710  179.2160  144.4670 N   0  0  0  0  0  0  0  0  0  0  0  0
  184.3470  179.1660  142.1960 C   0  0  0  0  0  3  0  0  0  0  0  0
  184.8630  178.5570  145.6480 C   0  0  0  0  0  0  0  0  0  0  0  0
  185.2650  178.5890  144.3750 C   0  0  0  0  0  0  0  0  0  0  0  0
  183.5700  178.9410  145.7160 N   0  0  0  0  0  0  0  0  0  0  0  0
  189.2000  177.0790  147.4210 C   0  0  0  0  0  3  0  0  0  0  0  0
  190.1350  176.9280  146.4060 C   0  0  0  0  0  0  0  0  0  0  0  0
  189.8980  177.1620  145.0570 C   0  0  0  0  0  3  0  0  0  0  0  0
  187.0730  177.8360  146.2870 C   0  0  0  0  0  0  0  0  0  0  0  0
  188.7450  177.5770  144.4100 C   0  0  0  0  0  3  0  0  0  0  0  0
  187.4770  177.8860  144.8990 C   0  0  0  0  0  0  0  0  0  0  0  0
  191.4890  176.4880  146.7980 C   0  0  0  0  0  0  0  0  0  0  0  0
  192.0540  176.9280  147.9910 O   0  0  0  0  0  1  0  0  0  0  0  0
  192.1510  175.7100  146.0590 O   0  0  0  0  0  0  0  0  0  0  0  0
  185.6140  179.0580  140.2190 O   0  0  0  0  0  0  0  0  0  0  0  0
  185.1240  177.1360  137.1410 N   0  0  0  0  0  0  0  0  0  0  0  0
  183.6850  177.7560  139.4150 C   0  0  0  0  0  3  0  0  0  0  0  0
  182.3740  174.7730  136.7940 N   0  0  0  0  0  0  0  0  0  0  0  0
  182.2060  173.5360  136.0910 C   0  0  0  0  0  0  0  0  0  0  0  0
  183.2510  175.7980  136.2160 C   0  0  0  0  0  2  0  0  0  0  0  0
  181.4290  172.6490  136.5340 O   0  0  0  0  0  1  0  0  0  0  0  0
  183.8670  176.6390  137.2880 C   0  0  0  0  0  0  0  0  0  0  0  0
  182.9020  173.3010  134.9100 O   0  0  0  0  0  0  0  0  0  0  0  0
  181.7270  176.4310  138.5580 C   0  0  0  0  0  2  0  0  0  0  0  0
  183.1240  176.9410  138.4330 C   0  0  0  0  0  0  0  0  0  0  0  0
  181.6290  174.9900  138.0470 C   0  0  0  0  0  2  0  0  0  0  0  0
  184.9830  178.2610  139.2530 C   0  0  0  0  0  0  0  0  0  0  0  0
  185.6920  177.9260  138.0930 C   0  0  0  0  0  3  0  0  0  0  0  0
  1 10  1  0  0  0  0
  1 17  2  0  0  0  0
  2 12  1  0  0  0  0
  4  8  2  0  0  0  0
  4  5  1  0  0  0  0
  5  1  1  0  0  0  0
  6 10  2  0  0  0  0
  6  7  1  0  0  0  0
  7 11  2  0  0  0  0
  8  6  1  0  0  0  0
  9 11  1  0  0  0  0
  9  3  2  0  0  0  0
 10  9  1  0  0  0  0
 13 18  1  0  0  0  0
 13 12  2  0  0  0  0
 14 13  1  0  0  0  0
 15  3  1  0  0  0  0
 15  2  2  0  0  0  0
 16 17  1  0  0  0  0
 16 14  2  0  0  0  0
 17 15  1  0  0  0  0
 18 19  1  0  0  0  0
 20 18  2  0  0  0  0
 21  4  1  0  0  0  0
 22 28  2  0  0  0  0
 22 34  1  0  0  0  0
 24 32  1  0  0  0  0
 25 27  1  0  0  0  0
 25 24  1  0  0  0  0
 26 24  1  0  0  0  0
 26 28  1  0  0  0  0
 28 31  1  0  0  0  0
 29 25  2  0  0  0  0
 31 30  1  0  0  0  0
 31 23  2  0  0  0  0
 32 30  1  0  0  0  0
 33 23  1  0  0  0  0
 33 21  1  0  0  0  0
 34 33  2  0  0  0  0
M  END
>  <MODEL>
4

>  <REMARK>
 VINA RESULT:     -11.5      3.512      4.991
  Name = 
  3 active torsions:
  status: ('A' for Active; 'I' for Inactive)
    1  A    between atoms: C_3  and  C_25
    2  A    between atoms: C_8  and  O_18
    3  A    between atoms: O_18  and  C_30
                            x       y       z     vdW  Elec       q    Type
                         _______ _______ _______ _____ _____    ______ ____

>  <TORSDO>
F 3

$$$$
=
 OpenBabel10272415083D

 34 39  0  0  0  0  0  0  0  0999 V2000
  185.4950  178.5400  142.9700 C   0  0  0  0  0  0  0  0  0  0  0  0
  185.5260  178.2780  146.7410 C   0  0  0  0  0  3  0  0  0  0  0  0
  183.7730  178.6690  145.2200 C   0  0  0  0  0  3  0  0  0  0  0  0
  185.4050  178.7790  140.3940 C   0  0  0  0  0  0  0  0  0  0  0  0
  186.2610  178.5020  141.6540 C   0  0  0  0  0  2  0  0  0  0  0  0
  183.4290  178.9680  141.7820 C   0  0  0  0  0  0  0  0  0  0  0  0
  182.1370  179.1660  142.1310 N   0  0  0  0  0  0  0  0  0  0  0  0
  184.0700  178.9830  140.4670 C   0  0  0  0  0  3  0  0  0  0  0  0
  183.3070  178.8300  143.9230 C   0  0  0  0  0  0  0  0  0  0  0  0
  184.1490  178.7600  142.8890 C   0  0  0  0  0  0  0  0  0  0  0  0
  182.0610  179.0790  143.4660 N   0  0  0  0  0  0  0  0  0  0  0  0
  186.7570  178.0370  147.3290 C   0  0  0  0  0  3  0  0  0  0  0  0
  188.0090  177.8720  146.7520 C   0  0  0  0  0  0  0  0  0  0  0  0
  188.2750  177.9240  145.3890 C   0  0  0  0  0  3  0  0  0  0  0  0
  185.1610  178.4280  145.4100 C   0  0  0  0  0  0  0  0  0  0  0  0
  187.4210  178.1360  144.3180 C   0  0  0  0  0  3  0  0  0  0  0  0
  186.0470  178.3620  144.2680 C   0  0  0  0  0  0  0  0  0  0  0  0
  189.1440  177.6270  147.6630 C   0  0  0  0  0  0  0  0  0  0  0  0
  190.0270  176.5800  147.4200 O   0  0  0  0  0  0  0  0  0  0  0  0
  189.3290  178.3610  148.6710 O   0  0  0  0  0  1  0  0  0  0  0  0
  185.9830  178.7860  139.1150 O   0  0  0  0  0  0  0  0  0  0  0  0
  188.1540  176.7670  136.9660 N   0  0  0  0  0  0  0  0  0  0  0  0
  188.2310  177.8580  139.5010 C   0  0  0  0  0  3  0  0  0  0  0  0
  191.6860  176.3050  137.7300 N   0  0  0  0  0  0  0  0  0  0  0  0
  192.8630  176.1300  136.9320 C   0  0  0  0  0  0  0  0  0  0  0  0
  190.4120  175.7740  137.2320 C   0  0  0  0  0  2  0  0  0  0  0  0
  193.9820  176.5350  137.3460 O   0  0  0  0  0  1  0  0  0  0  0  0
  189.2620  176.5860  137.7340 C   0  0  0  0  0  0  0  0  0  0  0  0
  192.7820  175.5100  135.6900 O   0  0  0  0  0  0  0  0  0  0  0  0
  190.5180  176.8820  139.8710 C   0  0  0  0  0  2  0  0  0  0  0  0
  189.3180  177.1320  139.0190 C   0  0  0  0  0  0  0  0  0  0  0  0
  191.8010  176.9730  139.0390 C   0  0  0  0  0  2  0  0  0  0  0  0
  187.0950  178.0390  138.6980 C   0  0  0  0  0  0  0  0  0  0  0  0
  187.0860  177.4800  137.4150 C   0  0  0  0  0  3  0  0  0  0  0  0
  1 17  2  0  0  0  0
  2 12  1  0  0  0  0
  3 15  1  0  0  0  0
  4  8  2  0  0  0  0
  4  5  1  0  0  0  0
  5  1  1  0  0  0  0
  6  7  1  0  0  0  0
  6 10  2  0  0  0  0
  7 11  2  0  0  0  0
  8  6  1  0  0  0  0
  9  3  2  0  0  0  0
 10  1  1  0  0  0  0
 10  9  1  0  0  0  0
 11  9  1  0  0  0  0
 13 12  2  0  0  0  0
 13 18  1  0  0  0  0
 14 13  1  0  0  0  0
 15  2  2  0  0  0  0
 16 14  2  0  0  0  0
 17 16  1  0  0  0  0
 17 15  1  0  0  0  0
 18 20  1  0  0  0  0
 19 18  2  0  0  0  0
 21  4  1  0  0  0  0
 22 34  2  0  0  0  0
 22 28  1  0  0  0  0
 24 32  1  0  0  0  0
 25 27  1  0  0  0  0
 25 24  1  0  0  0  0
 26 24  1  0  0  0  0
 26 28  1  0  0  0  0
 28 31  2  0  0  0  0
 29 25  2  0  0  0  0
 31 23  1  0  0  0  0
 31 30  1  0  0  0  0
 32 30  1  0  0  0  0
 33 21  1  0  0  0  0
 33 23  2  0  0  0  0
 34 33  1  0  0  0  0
M  END
>  <MODEL>
5

>  <REMARK>
 VINA RESULT:     -11.5      1.156      1.715
  Name = 
  3 active torsions:
  status: ('A' for Active; 'I' for Inactive)
    1  A    between atoms: C_3  and  C_25
    2  A    between atoms: C_8  and  O_18
    3  A    between atoms: O_18  and  C_30
                            x       y       z     vdW  Elec       q    Type
                         _______ _______ _______ _____ _____    ______ ____

>  <TORSDO>
F 3

$$$$
=
 OpenBabel10272415083D

 34 39  0  0  0  0  0  0  0  0999 V2000
  188.1220  177.7330  144.5900 C   0  0  0  0  0  0  0  0  0  0  0  0
  184.8670  178.3980  146.3970 C   0  0  0  0  0  3  0  0  0  0  0  0
  187.0370  177.9660  147.2000 C   0  0  0  0  0  3  0  0  0  0  0  0
  190.3750  177.2230  143.4220 C   0  0  0  0  0  0  0  0  0  0  0  0
  188.8740  177.5750  143.2750 C   0  0  0  0  0  3  0  0  0  0  0  0
  190.1580  177.3220  145.8330 C   0  0  0  0  0  0  0  0  0  0  0  0
  190.4940  177.2520  147.1420 N   0  0  0  0  0  2  0  0  0  0  0  0
  190.9700  177.1210  144.6320 C   0  0  0  0  0  3  0  0  0  0  0  0
  188.3810  177.6980  146.9800 C   0  0  0  0  0  0  0  0  0  0  0  0
  188.8540  177.5980  145.7350 C   0  0  0  0  0  0  0  0  0  0  0  0
  189.3860  177.4880  147.8570 N   0  0  0  0  0  0  0  0  0  0  0  0
  183.7560  178.6150  145.5980 C   0  0  0  0  0  3  0  0  0  0  0  0
  183.6360  178.6300  144.2150 C   0  0  0  0  0  0  0  0  0  0  0  0
  184.6750  178.4130  143.3190 C   0  0  0  0  0  3  0  0  0  0  0  0
  186.1900  178.1300  146.0700 C   0  0  0  0  0  0  0  0  0  0  0  0
  186.0140  178.1460  143.5490 C   0  0  0  0  0  3  0  0  0  0  0  0
  186.7340  178.0110  144.7350 C   0  0  0  0  0  0  0  0  0  0  0  0
  182.2940  178.8940  143.6580 C   0  0  0  0  0  0  0  0  0  0  0  0
  182.1350  179.1600  142.3020 O   0  0  0  0  0  0  0  0  0  0  0  0
  181.2760  178.8820  144.4020 O   0  0  0  0  0  1  0  0  0  0  0  0
  191.1870  177.0380  142.2930 O   0  0  0  0  0  0  0  0  0  0  0  0
  191.3650  176.9260  138.6370 N   0  0  0  0  0  0  0  0  0  0  0  0
  189.4930  177.5300  140.5750 C   0  0  0  0  0  3  0  0  0  0  0  0
  188.3560  177.0070  136.5850 N   0  0  0  0  0  0  0  0  0  0  0  0
  187.9970  176.4370  135.3200 C   0  0  0  0  0  0  0  0  0  0  0  0
  189.7530  177.3970  136.8110 C   0  0  0  0  0  2  0  0  0  0  0  0
  186.8010  176.1290  135.0740 O   0  0  0  0  0  1  0  0  0  0  0  0
  190.1100  177.2880  138.2590 C   0  0  0  0  0  0  0  0  0  0  0  0
  188.9680  176.2180  134.3500 O   0  0  0  0  0  0  0  0  0  0  0  0
  187.7910  178.0410  138.7970 C   0  0  0  0  0  2  0  0  0  0  0  0
  189.1490  177.5960  139.2260 C   0  0  0  0  0  0  0  0  0  0  0  0
  187.3060  177.2210  137.5970 C   0  0  0  0  0  2  0  0  0  0  0  0
  190.7900  177.1540  140.9520 C   0  0  0  0  0  0  0  0  0  0  0  0
  191.7170  176.8470  139.9490 C   0  0  0  0  0  3  0  0  0  0  0  0
  1 17  1  0  0  0  0
  1 10  1  0  0  0  0
  4  8  2  0  0  0  0
  5  4  1  0  0  0  0
  5  1  2  0  0  0  0
  6  7  1  0  0  0  0
  7 11  1  0  0  0  0
  8  6  1  0  0  0  0
  9  3  1  0  0  0  0
  9 11  2  0  0  0  0
 10  6  2  0  0  0  0
 10  9  1  0  0  0  0
 12  2  2  0  0  0  0
 13 12  1  0  0  0  0
 14 16  1  0  0  0  0
 14 13  2  0  0  0  0
 15  2  1  0  0  0  0
 15  3  2  0  0  0  0
 16 17  2  0  0  0  0
 17 15  1  0  0  0  0
 18 13  1  0  0  0  0
 18 20  1  0  0  0  0
 19 18  2  0  0  0  0
 21  4  1  0  0  0  0
 22 34  1  0  0  0  0
 23 33  1  0  0  0  0
 24 26  1  0  0  0  0
 24 32  1  0  0  0  0
 25 24  1  0  0  0  0
 26 28  1  0  0  0  0
 27 25  1  0  0  0  0
 28 22  2  0  0  0  0
 28 31  1  0  0  0  0
 29 25  2  0  0  0  0
 30 31  1  0  0  0  0
 31 23  2  0  0  0  0
 32 30  1  0  0  0  0
 33 21  1  0  0  0  0
 34 33  2  0  0  0  0
M  END
>  <MODEL>
6

>  <REMARK>
 VINA RESULT:     -11.5      2.816      5.410
  Name = 
  3 active torsions:
  status: ('A' for Active; 'I' for Inactive)
    1  A    between atoms: C_3  and  C_25
    2  A    between atoms: C_8  and  O_18
    3  A    between atoms: O_18  and  C_30
                            x       y       z     vdW  Elec       q    Type
                         _______ _______ _______ _____ _____    ______ ____

>  <TORSDO>
F 3

$$$$
=
 OpenBabel10272415083D

 34 39  0  0  0  0  0  0  0  0999 V2000
  187.6650  178.0120  143.3750 C   0  0  0  0  0  0  0  0  0  0  0  0
  188.1100  177.2840  147.0590 C   0  0  0  0  0  3  0  0  0  0  0  0
  186.2110  177.8940  145.8090 C   0  0  0  0  0  3  0  0  0  0  0  0
  187.2950  178.5700  140.8750 C   0  0  0  0  0  0  0  0  0  0  0  0
  188.2770  178.1230  141.9860 C   0  0  0  0  0  2  0  0  0  0  0  0
  185.4940  178.6230  142.4950 C   0  0  0  0  0  0  0  0  0  0  0  0
  184.2560  178.8000  143.0120 N   0  0  0  0  0  0  0  0  0  0  0  0
  185.9840  178.7880  141.1260 C   0  0  0  0  0  3  0  0  0  0  0  0
  185.6080  178.2230  144.6030 C   0  0  0  0  0  0  0  0  0  0  0  0
  186.3270  178.2660  143.4780 C   0  0  0  0  0  0  0  0  0  0  0  0
  184.3280  178.5510  144.3260 N   0  0  0  0  0  0  0  0  0  0  0  0
  189.3910  176.9490  147.4670 C   0  0  0  0  0  3  0  0  0  0  0  0
  190.5640  176.8330  146.7340 C   0  0  0  0  0  0  0  0  0  0  0  0
  190.6770  177.0490  145.3660 C   0  0  0  0  0  3  0  0  0  0  0  0
  187.6030  177.6050  145.8070 C   0  0  0  0  0  0  0  0  0  0  0  0
  189.7160  177.4080  144.4340 C   0  0  0  0  0  3  0  0  0  0  0  0
  188.3530  177.6640  144.5710 C   0  0  0  0  0  0  0  0  0  0  0  0
  191.7860  176.4560  147.4710 C   0  0  0  0  0  0  0  0  0  0  0  0
  192.2440  177.2430  148.5230 O   0  0  0  0  0  1  0  0  0  0  0  0
  192.4300  175.4180  147.1590 O   0  0  0  0  0  0  0  0  0  0  0  0
  187.7250  178.7250  139.5480 O   0  0  0  0  0  0  0  0  0  0  0  0
  188.6030  175.9200  137.3630 N   0  0  0  0  0  0  0  0  0  0  0  0
  186.4900  177.6660  137.7000 C   0  0  0  0  0  3  0  0  0  0  0  0
  186.1010  174.2660  135.2970 N   0  0  0  0  0  0  0  0  0  0  0  0
  185.9220  172.9220  134.8330 C   0  0  0  0  0  0  0  0  0  0  0  0
  187.4670  174.7710  135.4810 C   0  0  0  0  0  2  0  0  0  0  0  0
  184.7670  172.4670  134.6220 O   0  0  0  0  0  1  0  0  0  0  0  0
  187.5120  175.8050  136.5610 C   0  0  0  0  0  0  0  0  0  0  0  0
  187.0250  172.1040  134.6120 O   0  0  0  0  0  0  0  0  0  0  0  0
  185.2630  176.5740  135.7960 C   0  0  0  0  0  2  0  0  0  0  0  0
  186.4330  176.6790  136.7170 C   0  0  0  0  0  0  0  0  0  0  0  0
  184.9130  175.1060  135.5300 C   0  0  0  0  0  2  0  0  0  0  0  0
  187.6210  177.7730  138.5220 C   0  0  0  0  0  0  0  0  0  0  0  0
  188.6750  176.8710  138.3340 C   0  0  0  0  0  3  0  0  0  0  0  0
  1 10  1  0  0  0  0
  1 17  2  0  0  0  0
  2 12  1  0  0  0  0
  4  8  2  0  0  0  0
  4  5  1  0  0  0  0
  5  1  1  0  0  0  0
  6  7  1  0  0  0  0
  6 10  2  0  0  0  0
  7 11  2  0  0  0  0
  8  6  1  0  0  0  0
  9  3  2  0  0  0  0
 10  9  1  0  0  0  0
 11  9  1  0  0  0  0
 13 12  2  0  0  0  0
 13 18  1  0  0  0  0
 14 13  1  0  0  0  0
 15  3  1  0  0  0  0
 15  2  2  0  0  0  0
 16 17  1  0  0  0  0
 16 14  2  0  0  0  0
 17 15  1  0  0  0  0
 18 19  1  0  0  0  0
 20 18  2  0  0  0  0
 21  4  1  0  0  0  0
 22 34  1  0  0  0  0
 23 33  1  0  0  0  0
 24 26  1  0  0  0  0
 24 32  1  0  0  0  0
 25 24  1  0  0  0  0
 26 28  1  0  0  0  0
 27 25  1  0  0  0  0
 28 31  1  0  0  0  0
 28 22  2  0  0  0  0
 29 25  2  0  0  0  0
 30 31  1  0  0  0  0
 31 23  2  0  0  0  0
 32 30  1  0  0  0  0
 33 21  1  0  0  0  0
 34 33  2  0  0  0  0
M  END
>  <MODEL>
7

>  <REMARK>
 VINA RESULT:     -11.4      2.617      3.592
  Name = 
  3 active torsions:
  status: ('A' for Active; 'I' for Inactive)
    1  A    between atoms: C_3  and  C_25
    2  A    between atoms: C_8  and  O_18
    3  A    between atoms: O_18  and  C_30
                            x       y       z     vdW  Elec       q    Type
                         _______ _______ _______ _____ _____    ______ ____

>  <TORSDO>
F 3

$$$$
=
 OpenBabel10272415083D

 34 39  0  0  0  0  0  0  0  0999 V2000
  186.7120  178.2030  143.4270 C   0  0  0  0  0  0  0  0  0  0  0  0
  187.7240  177.4840  146.9990 C   0  0  0  0  0  3  0  0  0  0  0  0
  185.6680  178.1450  146.0640 C   0  0  0  0  0  3  0  0  0  0  0  0
  185.9610  178.7580  141.0130 C   0  0  0  0  0  0  0  0  0  0  0  0
  187.0950  178.2880  141.9560 C   0  0  0  0  0  2  0  0  0  0  0  0
  184.4470  178.8770  142.9010 C   0  0  0  0  0  0  0  0  0  0  0  0
  183.3150  179.0950  143.6090 N   0  0  0  0  0  0  0  0  0  0  0  0
  184.7150  179.0190  141.4700 C   0  0  0  0  0  3  0  0  0  0  0  0
  184.8880  178.4860  144.9680 C   0  0  0  0  0  0  0  0  0  0  0  0
  185.4170  178.5000  143.7410 C   0  0  0  0  0  0  0  0  0  0  0  0
  183.5900  178.8510  144.8970 N   0  0  0  0  0  0  0  0  0  0  0  0
  189.0440  177.1120  147.1990 C   0  0  0  0  0  3  0  0  0  0  0  0
  190.0790  176.9560  146.2870 C   0  0  0  0  0  0  0  0  0  0  0  0
  189.9760  177.1590  144.9170 C   0  0  0  0  0  3  0  0  0  0  0  0
  187.0320  177.8130  145.8410 C   0  0  0  0  0  0  0  0  0  0  0  0
  188.8890  177.5430  144.1480 C   0  0  0  0  0  3  0  0  0  0  0  0
  187.5740  177.8420  144.5000 C   0  0  0  0  0  0  0  0  0  0  0  0
  191.3920  176.5450  146.8220 C   0  0  0  0  0  0  0  0  0  0  0  0
  192.1660  175.6090  146.1440 O   0  0  0  0  0  0  0  0  0  0  0  0
  191.8290  177.0340  147.8990 O   0  0  0  0  0  1  0  0  0  0  0  0
  186.1760  178.8920  139.6330 O   0  0  0  0  0  0  0  0  0  0  0  0
  189.1220  177.1330  138.3520 N   0  0  0  0  0  0  0  0  0  0  0  0
  186.4240  177.2860  137.7830 C   0  0  0  0  0  3  0  0  0  0  0  0
  188.8060  174.2930  136.0940 N   0  0  0  0  0  0  0  0  0  0  0  0
  189.5710  173.1010  135.8800 C   0  0  0  0  0  0  0  0  0  0  0  0
  189.5070  175.5130  136.5140 C   0  0  0  0  0  2  0  0  0  0  0  0
  189.0120  172.0460  135.4780 O   0  0  0  0  0  0  0  0  0  0  0  0
  188.6130  176.3830  137.3390 C   0  0  0  0  0  0  0  0  0  0  0  0
  190.9420  173.0950  136.1150 O   0  0  0  0  0  1  0  0  0  0  0  0
  186.7140  175.6570  135.8900 C   0  0  0  0  0  2  0  0  0  0  0  0
  187.2510  176.4470  137.0370 C   0  0  0  0  0  0  0  0  0  0  0  0
  187.3540  174.2660  135.8430 C   0  0  0  0  0  2  0  0  0  0  0  0
  186.9610  178.0540  138.8270 C   0  0  0  0  0  0  0  0  0  0  0  0
  188.3300  177.9520  139.0980 C   0  0  0  0  0  3  0  0  0  0  0  0
  1 10  1  0  0  0  0
  1 17  2  0  0  0  0
  2 12  1  0  0  0  0
  4  8  2  0  0  0  0
  4  5  1  0  0  0  0
  5  1  1  0  0  0  0
  6  7  1  0  0  0  0
  6 10  2  0  0  0  0
  7 11  2  0  0  0  0
  8  6  1  0  0  0  0
  9  3  2  0  0  0  0
 10  9  1  0  0  0  0
 11  9  1  0  0  0  0
 13 18  1  0  0  0  0
 13 12  2  0  0  0  0
 14 13  1  0  0  0  0
 15  3  1  0  0  0  0
 15  2  2  0  0  0  0
 16 17  1  0  0  0  0
 16 14  2  0  0  0  0
 17 15  1  0  0  0  0
 18 20  1  0  0  0  0
 19 18  2  0  0  0  0
 21  4  1  0  0  0  0
 22 34  1  0  0  0  0
 23 33  1  0  0  0  0
 24 26  1  0  0  0  0
 25 24  1  0  0  0  0
 25 29  1  0  0  0  0
 26 28  1  0  0  0  0
 27 25  2  0  0  0  0
 28 22  2  0  0  0  0
 30 31  1  0  0  0  0
 31 28  1  0  0  0  0
 31 23  2  0  0  0  0
 32 30  1  0  0  0  0
 32 24  1  0  0  0  0
 33 34  2  0  0  0  0
 33 21  1  0  0  0  0
M  END
>  <MODEL>
8

>  <REMARK>
 VINA RESULT:     -11.4      1.692      2.399
  Name = 
  3 active torsions:
  status: ('A' for Active; 'I' for Inactive)
    1  A    between atoms: C_3  and  C_25
    2  A    between atoms: C_8  and  O_18
    3  A    between atoms: O_18  and  C_30
                            x       y       z     vdW  Elec       q    Type
                         _______ _______ _______ _____ _____    ______ ____

>  <TORSDO>
F 3

$$$$
=
 OpenBabel10272415083D

 34 39  0  0  0  0  0  0  0  0999 V2000
  185.8460  177.9390  143.8820 C   0  0  0  0  0  0  0  0  0  0  0  0
  182.2810  179.0920  143.3700 C   0  0  0  0  0  3  0  0  0  0  0  0
  183.6340  179.0170  145.2940 C   0  0  0  0  0  3  0  0  0  0  0  0
  188.2640  177.1240  144.3160 C   0  0  0  0  0  0  0  0  0  0  0  0
  187.1270  177.3650  143.2930 C   0  0  0  0  0  3  0  0  0  0  0  0
  186.8650  178.0290  146.0750 C   0  0  0  0  0  0  0  0  0  0  0  0
  186.4700  178.4170  147.3100 N   0  0  0  0  0  2  0  0  0  0  0  0
  188.1320  177.4540  145.6210 C   0  0  0  0  0  3  0  0  0  0  0  0
  184.8390  178.7250  145.9190 C   0  0  0  0  0  0  0  0  0  0  0  0
  185.8580  178.2210  145.2180 C   0  0  0  0  0  0  0  0  0  0  0  0
  185.2070  178.8520  147.2120 N   0  0  0  0  0  0  0  0  0  0  0  0
  181.7850  178.9950  142.0790 C   0  0  0  0  0  3  0  0  0  0  0  0
  182.3920  178.5370  140.9180 C   0  0  0  0  0  0  0  0  0  0  0  0
  183.6920  178.0560  140.8300 C   0  0  0  0  0  3  0  0  0  0  0  0
  183.5220  178.7640  143.8990 C   0  0  0  0  0  0  0  0  0  0  0  0
  184.6630  177.9180  141.8090 C   0  0  0  0  0  3  0  0  0  0  0  0
  184.6440  178.2140  143.1710 C   0  0  0  0  0  0  0  0  0  0  0  0
  181.5850  178.5600  139.6820 C   0  0  0  0  0  0  0  0  0  0  0  0
  182.1690  178.9000  138.4670 O   0  0  0  0  0  0  0  0  0  0  0  0
  180.3580  178.2720  139.7100 O   0  0  0  0  0  1  0  0  0  0  0  0
  189.4970  176.5880  143.9150 O   0  0  0  0  0  0  0  0  0  0  0  0
  192.1630  177.3420  141.5200 N   0  0  0  0  0  0  0  0  0  0  0  0
  189.4870  176.6640  141.4540 C   0  0  0  0  0  3  0  0  0  0  0  0
  191.8110  176.5680  137.9780 N   0  0  0  0  0  0  0  0  0  0  0  0
  192.7280  176.1830  136.9470 C   0  0  0  0  0  0  0  0  0  0  0  0
  192.2850  177.4580  139.0450 C   0  0  0  0  0  2  0  0  0  0  0  0
  192.3480  175.4550  135.9920 O   0  0  0  0  0  0  0  0  0  0  0  0
  191.5420  177.2060  140.3180 C   0  0  0  0  0  0  0  0  0  0  0  0
  194.0510  176.6100  136.9900 O   0  0  0  0  0  1  0  0  0  0  0  0
  189.5060  176.7670  138.9420 C   0  0  0  0  0  2  0  0  0  0  0  0
  190.1890  176.8630  140.2650 C   0  0  0  0  0  0  0  0  0  0  0  0
  190.4180  176.0940  137.9100 C   0  0  0  0  0  2  0  0  0  0  0  0
  190.1400  176.8050  142.6870 C   0  0  0  0  0  0  0  0  0  0  0  0
  191.4980  177.1440  142.6910 C   0  0  0  0  0  3  0  0  0  0  0  0
  1 10  1  0  0  0  0
  2 15  1  0  0  0  0
  3  9  1  0  0  0  0
  4  8  2  0  0  0  0
  5  1  2  0  0  0  0
  5  4  1  0  0  0  0
  6  7  1  0  0  0  0
  8  6  1  0  0  0  0
  9 11  2  0  0  0  0
 10  9  1  0  0  0  0
 10  6  2  0  0  0  0
 11  7  1  0  0  0  0
 12  2  2  0  0  0  0
 13 12  1  0  0  0  0
 14 13  2  0  0  0  0
 14 16  1  0  0  0  0
 15  3  2  0  0  0  0
 16 17  2  0  0  0  0
 17  1  1  0  0  0  0
 17 15  1  0  0  0  0
 18 20  1  0  0  0  0
 18 13  1  0  0  0  0
 19 18  2  0  0  0  0
 21  4  1  0  0  0  0
 22 34  1  0  0  0  0
 23 33  1  0  0  0  0
 24 26  1  0  0  0  0
 25 29  1  0  0  0  0
 25 24  1  0  0  0  0
 26 28  1  0  0  0  0
 27 25  2  0  0  0  0
 28 22  2  0  0  0  0
 30 31  1  0  0  0  0
 31 28  1  0  0  0  0
 31 23  2  0  0  0  0
 32 24  1  0  0  0  0
 32 30  1  0  0  0  0
 33 34  2  0  0  0  0
 33 21  1  0  0  0  0
M  END
>  <MODEL>
9

>  <REMARK>
 VINA RESULT:     -11.2      2.338      5.885
  Name = 
  3 active torsions:
  status: ('A' for Active; 'I' for Inactive)
    1  A    between atoms: C_3  and  C_25
    2  A    between atoms: C_8  and  O_18
    3  A    between atoms: O_18  and  C_30
                            x       y       z     vdW  Elec       q    Type
                         _______ _______ _______ _____ _____    ______ ____

>  <TORSDO>
F 3

$$$$
