=
 OpenBabel10262423513D

 34 40  0  0  1  0  0  0  0  0999 V2000
  184.0990  178.5280  143.7180 C   0  0  0  0  0  0  0  0  0  0  0  0
  184.6980  178.6520  141.3570 C   0  0  0  0  0  0  0  0  0  0  0  0
  186.3970  178.1190  143.0370 C   0  0  0  0  0  0  0  0  0  0  0  0
  188.7030  177.6900  142.4440 C   0  0  0  0  0  0  0  0  0  0  0  0
  182.4110  179.0520  142.0670 C   0  0  0  0  0  3  0  0  0  0  0  0
  183.3680  178.9600  141.0510 C   0  0  0  0  0  3  0  0  0  0  0  0
  187.0970  178.2140  140.6890 C   0  0  0  0  0  0  0  0  0  0  0  0
  185.0710  178.4330  142.6980 C   0  0  0  0  0  0  0  0  0  0  0  0
  188.1370  178.0860  139.7480 C   0  0  0  0  0  0  0  0  0  0  0  0
  189.6970  177.5750  141.4740 C   0  0  0  0  0  2  0  0  0  0  0  0
  182.7750  178.8360  143.3990 C   0  0  0  0  0  3  0  0  0  0  0  0
  186.7300  177.9080  144.3940 C   0  0  0  0  0  0  0  0  0  0  0  0
  184.4740  178.3110  145.0440 C   0  0  0  0  0  3  0  0  0  0  0  0
  185.6980  178.5690  140.2370 C   0  0  0  0  0  3  0  0  0  0  0  0
  189.0000  177.4920  143.7550 N   0  0  0  0  0  0  0  0  0  0  0  0
  188.0620  177.5900  144.7350 C   0  0  0  0  0  0  0  0  0  0  0  0
  189.3950  177.7710  140.1640 N   0  0  0  0  0  0  0  0  0  0  0  0
  187.3910  178.0110  142.0510 C   0  0  0  0  0  0  0  0  0  0  0  0
  185.7630  178.0100  145.3500 N   0  0  0  0  0  0  0  0  0  0  0  0
  190.4350  177.0020  147.7050 C   0  0  1  0  0  3  0  0  0  0  0  0
  189.8740  178.0780  148.6320 C   0  0  0  0  0  2  0  0  0  0  0  0
  188.4980  177.3510  146.1520 C   0  0  1  0  0  3  0  0  0  0  0  0
  188.3520  178.1130  148.5350 C   0  0  0  0  0  2  0  0  0  0  0  0
  190.0220  177.2780  146.2630 C   0  0  0  0  0  2  0  0  0  0  0  0
  187.9200  178.4030  147.1010 C   0  0  0  0  0  2  0  0  0  0  0  0
  191.8250  176.9880  147.7960 O   0  0  0  0  0  1  0  0  0  0  0  0
  187.8840  178.2690  138.2850 C   0  0  0  0  0  2  0  0  0  0  0  0
  190.1000  176.9450  136.8500 N   0  0  0  0  0  1  0  0  0  0  0  0
  187.7430  176.9220  137.5740 C   0  0  2  0  0  3  0  0  0  0  0  0
  188.7260  176.7990  136.4010 C   0  0  1  0  0  3  0  0  0  0  0  0
  186.9370  178.1210  135.1270 C   0  0  0  0  0  2  0  0  0  0  0  0
  186.0630  176.9710  135.6160 C   0  0  0  0  0  2  0  0  0  0  0  0
  186.2900  176.7010  137.1090 C   0  0  0  0  0  2  0  0  0  0  0  0
  188.4290  177.7900  135.2650 C   0  0  0  0  0  2  0  0  0  0  0  0
  1 13  1  0  0  0  0
  2  8  1  0  0  0  0
  3 12  1  0  0  0  0
  4 15  2  0  0  0  0
  5 11  1  0  0  0  0
  6  2  1  0  0  0  0
  6  5  2  0  0  0  0
  7 18  2  0  0  0  0
  8  3  2  0  0  0  0
  8  1  1  0  0  0  0
  9 17  2  0  0  0  0
  9  7  1  0  0  0  0
 10  4  1  0  0  0  0
 11  1  2  0  0  0  0
 12 16  2  0  0  0  0
 12 19  1  0  0  0  0
 13 19  2  0  0  0  0
 14  7  1  0  0  0  0
 14  2  2  0  0  0  0
 15 16  1  0  0  0  0
 17 10  1  0  0  0  0
 18  4  1  0  0  0  0
 18  3  1  0  0  0  0
 20 26  1  6  0  0  0
 20 21  1  0  0  0  0
 22 16  1  6  0  0  0
 22 24  1  0  0  0  0
 22 25  1  0  0  0  0
 23 21  1  0  0  0  0
 24 20  1  0  0  0  0
 25 23  1  0  0  0  0
 27  9  1  0  0  0  0
 29 27  1  6  0  0  0
 30 28  1  1  0  0  0
 30 29  1  0  0  0  0
 31 34  1  0  0  0  0
 31 32  1  0  0  0  0
 32 33  1  0  0  0  0
 33 29  1  0  0  0  0
 34 30  1  0  0  0  0
M  END
>  <MODEL>
1

>  <REMARK>
 VINA RESULT:     -10.5      0.000      0.000
  Name = 
  3 active torsions:
  status: ('A' for Active; 'I' for Inactive)
    1  A    between atoms: C_3  and  C_13
    2  A    between atoms: C_3  and  C_17
    3  A    between atoms: C_12  and  C_28
                            x       y       z     vdW  Elec       q    Type
                         _______ _______ _______ _____ _____    ______ ____

>  <TORSDO>
F 3

$$$$
=
 OpenBabel10262423513D

 34 40  0  0  1  0  0  0  0  0999 V2000
  184.8610  178.4320  142.5450 C   0  0  0  0  0  0  0  0  0  0  0  0
  185.7580  178.5500  140.2810 C   0  0  0  0  0  0  0  0  0  0  0  0
  187.2110  177.9430  142.1560 C   0  0  0  0  0  0  0  0  0  0  0  0
  189.5570  177.4340  141.8540 C   0  0  0  0  0  0  0  0  0  0  0  0
  183.4160  179.0290  140.7000 C   0  0  0  0  0  3  0  0  0  0  0  0
  184.4900  178.9090  139.8130 C   0  0  0  0  0  3  0  0  0  0  0  0
  188.2050  178.0290  139.9160 C   0  0  0  0  0  0  0  0  0  0  0  0
  185.9500  178.3080  141.6550 C   0  0  0  0  0  0  0  0  0  0  0  0
  189.3510  177.8700  139.1130 C   0  0  0  0  0  0  0  0  0  0  0  0
  190.6610  177.2900  141.0160 C   0  0  0  0  0  2  0  0  0  0  0  0
  183.6000  178.7900  142.0650 C   0  0  0  0  0  3  0  0  0  0  0  0
  187.3610  177.7100  143.5410 C   0  0  0  0  0  0  0  0  0  0  0  0
  185.0560  178.1910  143.9050 C   0  0  0  0  0  3  0  0  0  0  0  0
  186.8890  178.4380  139.2950 C   0  0  0  0  0  3  0  0  0  0  0  0
  189.6770  177.2150  143.1890 N   0  0  0  0  0  0  0  0  0  0  0  0
  188.6270  177.3410  144.0440 C   0  0  0  0  0  0  0  0  0  0  0  0
  190.5350  177.5060  139.6810 N   0  0  0  0  0  0  0  0  0  0  0  0
  188.3170  177.8060  141.3020 C   0  0  0  0  0  0  0  0  0  0  0  0
  186.2850  177.8410  144.3690 N   0  0  0  0  0  0  0  0  0  0  0  0
  190.5840  176.8130  147.3140 C   0  0  1  0  0  3  0  0  0  0  0  0
  189.8070  177.8010  148.1800 C   0  0  0  0  0  2  0  0  0  0  0  0
  188.8710  177.0760  145.5020 C   0  0  1  0  0  3  0  0  0  0  0  0
  188.3170  177.7210  147.8590 C   0  0  0  0  0  2  0  0  0  0  0  0
  190.3630  177.1180  145.8360 C   0  0  0  0  0  2  0  0  0  0  0  0
  188.0760  178.0370  146.3870 C   0  0  0  0  0  2  0  0  0  0  0  0
  191.9430  176.9030  147.6090 O   0  0  0  0  0  1  0  0  0  0  0  0
  189.2930  178.0730  137.6320 C   0  0  0  0  0  2  0  0  0  0  0  0
  189.6710  177.8850  134.7090 N   0  0  0  0  0  1  0  0  0  0  0  0
  189.4460  176.7470  136.8840 C   0  0  2  0  0  3  0  0  0  0  0  0
  188.9470  176.8560  135.4360 C   0  0  1  0  0  3  0  0  0  0  0  0
  186.6450  176.4640  136.4930 C   0  0  0  0  0  2  0  0  0  0  0  0
  187.3590  175.2360  137.0470 C   0  0  0  0  0  2  0  0  0  0  0  0
  188.7250  175.6110  137.6370 C   0  0  0  0  0  2  0  0  0  0  0  0
  187.4330  177.1010  135.3410 C   0  0  0  0  0  2  0  0  0  0  0  0
  1 13  1  0  0  0  0
  2  8  1  0  0  0  0
  3 12  1  0  0  0  0
  4 15  2  0  0  0  0
  5 11  1  0  0  0  0
  6  2  1  0  0  0  0
  6  5  2  0  0  0  0
  7 18  2  0  0  0  0
  8  3  2  0  0  0  0
  8  1  1  0  0  0  0
  9 17  2  0  0  0  0
  9  7  1  0  0  0  0
 10  4  1  0  0  0  0
 11  1  2  0  0  0  0
 12 16  2  0  0  0  0
 12 19  1  0  0  0  0
 13 19  2  0  0  0  0
 14  7  1  0  0  0  0
 14  2  2  0  0  0  0
 15 16  1  0  0  0  0
 17 10  1  0  0  0  0
 18  4  1  0  0  0  0
 18  3  1  0  0  0  0
 20 26  1  1  0  0  0
 20 21  1  0  0  0  0
 22 16  1  6  0  0  0
 22 24  1  0  0  0  0
 22 25  1  0  0  0  0
 23 21  1  0  0  0  0
 24 20  1  0  0  0  0
 25 23  1  0  0  0  0
 27  9  1  0  0  0  0
 29 27  1  1  0  0  0
 29 33  1  0  0  0  0
 30 28  1  1  0  0  0
 30 29  1  0  0  0  0
 31 32  1  0  0  0  0
 32 33  1  0  0  0  0
 34 30  1  0  0  0  0
 34 31  1  0  0  0  0
M  END
>  <MODEL>
2

>  <REMARK>
 VINA RESULT:     -10.1      1.070      1.421
  Name = 
  3 active torsions:
  status: ('A' for Active; 'I' for Inactive)
    1  A    between atoms: C_3  and  C_13
    2  A    between atoms: C_3  and  C_17
    3  A    between atoms: C_12  and  C_28
                            x       y       z     vdW  Elec       q    Type
                         _______ _______ _______ _____ _____    ______ ____

>  <TORSDO>
F 3

$$$$
=
 OpenBabel10262423513D

 34 40  0  0  1  0  0  0  0  0999 V2000
  186.7710  178.1460  138.4730 C   0  0  0  0  0  0  0  0  0  0  0  0
  186.7650  178.4930  140.8860 C   0  0  0  0  0  0  0  0  0  0  0  0
  188.7780  177.6720  139.7600 C   0  0  0  0  0  0  0  0  0  0  0  0
  190.8190  177.1840  140.9650 C   0  0  0  0  0  0  0  0  0  0  0  0
  184.7780  178.9600  139.5730 C   0  0  0  0  0  3  0  0  0  0  0  0
  185.4360  178.9200  140.8060 C   0  0  0  0  0  3  0  0  0  0  0  0
  188.8740  177.9940  142.1890 C   0  0  0  0  0  0  0  0  0  0  0  0
  187.4420  178.1030  139.7130 C   0  0  0  0  0  0  0  0  0  0  0  0
  189.6340  177.9240  143.3720 C   0  0  0  0  0  0  0  0  0  0  0  0
  191.5280  177.1330  142.1630 C   0  0  0  0  0  3  0  0  0  0  0  0
  185.4440  178.5750  138.4070 C   0  0  0  0  0  3  0  0  0  0  0  0
  189.4200  177.2890  138.5610 C   0  0  0  0  0  0  0  0  0  0  0  0
  187.4450  177.7580  137.3140 C   0  0  0  0  0  3  0  0  0  0  0  0
  187.4350  178.4570  142.2320 C   0  0  0  0  0  3  0  0  0  0  0  0
  191.4150  176.8210  139.8000 N   0  0  0  0  0  2  0  0  0  0  0  0
  190.7640  176.8580  138.6070 C   0  0  0  0  0  0  0  0  0  0  0  0
  190.9280  177.5010  143.3250 N   0  0  0  0  0  0  0  0  0  0  0  0
  189.4810  177.6190  140.9740 C   0  0  0  0  0  0  0  0  0  0  0  0
  188.7380  177.3430  137.3820 N   0  0  0  0  0  0  0  0  0  0  0  0
  193.7710  176.1080  136.3280 C   0  0  1  0  0  3  0  0  0  0  0  0
  193.3570  174.7030  135.8980 C   0  0  0  0  0  2  0  0  0  0  0  0
  191.5180  176.4340  137.3800 C   0  0  1  0  0  3  0  0  0  0  0  0
  191.8520  174.6510  135.6500 C   0  0  0  0  0  2  0  0  0  0  0  0
  193.0310  176.5120  137.5980 C   0  0  0  0  0  2  0  0  0  0  0  0
  191.0950  175.0390  136.9160 C   0  0  0  0  0  2  0  0  0  0  0  0
  195.1440  176.1390  136.5600 O   0  0  0  0  0  1  0  0  0  0  0  0
  189.0530  178.3280  144.6900 C   0  0  0  0  0  2  0  0  0  0  0  0
  186.2860  177.3700  145.0720 N   0  0  0  0  0  1  0  0  0  0  0  0
  188.6930  177.1040  145.5350 C   0  0  2  0  0  3  0  0  0  0  0  0
  187.2790  177.2220  146.1220 C   0  0  1  0  0  3  0  0  0  0  0  0
  188.4440  178.6290  147.9210 C   0  0  0  0  0  2  0  0  0  0  0  0
  189.2980  177.3700  148.0300 C   0  0  0  0  0  2  0  0  0  0  0  0
  189.7390  176.8800  146.6440 C   0  0  0  0  0  2  0  0  0  0  0  0
  187.1480  178.3620  147.1440 C   0  0  0  0  0  2  0  0  0  0  0  0
  1  8  2  0  0  0  0
  2 14  1  0  0  0  0
  3 18  2  0  0  0  0
  4 18  1  0  0  0  0
  4 10  2  0  0  0  0
  5  6  1  0  0  0  0
  6  2  2  0  0  0  0
  7 14  2  0  0  0  0
  7  9  1  0  0  0  0
  8  3  1  0  0  0  0
  8  2  1  0  0  0  0
  9 27  1  0  0  0  0
 10 17  1  0  0  0  0
 11  1  1  0  0  0  0
 11  5  2  0  0  0  0
 12 16  2  0  0  0  0
 12  3  1  0  0  0  0
 13 19  2  0  0  0  0
 13  1  1  0  0  0  0
 15  4  1  0  0  0  0
 16 15  1  0  0  0  0
 17  9  2  0  0  0  0
 18  7  1  0  0  0  0
 19 12  1  0  0  0  0
 20 26  1  1  0  0  0
 20 24  1  0  0  0  0
 21 20  1  0  0  0  0
 22 24  1  0  0  0  0
 22 16  1  1  0  0  0
 23 21  1  0  0  0  0
 23 25  1  0  0  0  0
 25 22  1  0  0  0  0
 29 27  1  1  0  0  0
 29 30  1  0  0  0  0
 29 33  1  0  0  0  0
 30 28  1  6  0  0  0
 30 34  1  0  0  0  0
 31 32  1  0  0  0  0
 33 32  1  0  0  0  0
 34 31  1  0  0  0  0
M  END
>  <MODEL>
3

>  <REMARK>
 VINA RESULT:     -10.1      2.924      8.119
  Name = 
  3 active torsions:
  status: ('A' for Active; 'I' for Inactive)
    1  A    between atoms: C_3  and  C_13
    2  A    between atoms: C_3  and  C_17
    3  A    between atoms: C_12  and  C_28
                            x       y       z     vdW  Elec       q    Type
                         _______ _______ _______ _____ _____    ______ ____

>  <TORSDO>
F 3

$$$$
=
 OpenBabel10262423513D

 34 40  0  0  1  0  0  0  0  0999 V2000
  185.4690  178.2230  145.3550 C   0  0  0  0  0  0  0  0  0  0  0  0
  184.1380  178.7720  143.3870 C   0  0  0  0  0  0  0  0  0  0  0  0
  186.5050  178.1940  143.1560 C   0  0  0  0  0  0  0  0  0  0  0  0
  187.6110  178.1350  141.0050 C   0  0  0  0  0  0  0  0  0  0  0  0
  183.1300  178.7880  145.5960 C   0  0  0  0  0  3  0  0  0  0  0  0
  183.0250  178.9640  144.2120 C   0  0  0  0  0  3  0  0  0  0  0  0
  185.2500  178.7250  141.1170 C   0  0  0  0  0  0  0  0  0  0  0  0
  185.3700  178.3980  143.9580 C   0  0  0  0  0  0  0  0  0  0  0  0
  185.2550  178.8640  139.7160 C   0  0  0  0  0  0  0  0  0  0  0  0
  187.5630  178.2850  139.6200 C   0  0  0  0  0  2  0  0  0  0  0  0
  184.3500  178.4180  146.1670 C   0  0  0  0  0  3  0  0  0  0  0  0
  187.7230  177.8210  143.7680 C   0  0  0  0  0  0  0  0  0  0  0  0
  186.6920  177.8530  145.9150 C   0  0  0  0  0  3  0  0  0  0  0  0
  183.9840  178.9770  141.9050 C   0  0  0  0  0  3  0  0  0  0  0  0
  188.7710  177.7760  141.6150 N   0  0  0  0  0  0  0  0  0  0  0  0
  188.8640  177.6140  142.9620 C   0  0  0  0  0  0  0  0  0  0  0  0
  186.4010  178.6400  139.0140 N   0  0  0  0  0  0  0  0  0  0  0  0
  186.4470  178.3540  141.7620 C   0  0  0  0  0  0  0  0  0  0  0  0
  187.7790  177.6630  145.1210 N   0  0  0  0  0  0  0  0  0  0  0  0
  191.6070  177.0400  145.5960 C   0  0  1  0  0  3  0  0  0  0  0  0
  191.9380  175.5930  145.2360 C   0  0  0  0  0  2  0  0  0  0  0  0
  190.1940  177.2150  143.5330 C   0  0  1  0  0  3  0  0  0  0  0  0
  191.9260  175.4140  143.7210 C   0  0  0  0  0  2  0  0  0  0  0  0
  190.2360  177.4210  145.0490 C   0  0  0  0  0  2  0  0  0  0  0  0
  190.5560  175.7770  143.1570 C   0  0  0  0  0  2  0  0  0  0  0  0
  191.6120  177.1880  146.9820 O   0  0  0  0  0  1  0  0  0  0  0  0
  184.0120  179.2360  138.9710 C   0  0  0  0  0  2  0  0  0  0  0  0
  181.7980  179.4680  137.0310 N   0  0  0  0  0  1  0  0  0  0  0  0
  183.4930  178.0620  138.1390 C   0  0  2  0  0  3  0  0  0  0  0  0
  182.0110  178.2400  137.7770 C   0  0  1  0  0  3  0  0  0  0  0  0
  181.6120  177.2850  140.1220 C   0  0  0  0  0  2  0  0  0  0  0  0
  182.4850  176.1640  139.5670 C   0  0  0  0  0  2  0  0  0  0  0  0
  183.7310  176.7280  138.8720 C   0  0  0  0  0  2  0  0  0  0  0  0
  181.0870  178.1930  139.0030 C   0  0  0  0  0  2  0  0  0  0  0  0
  1 13  1  0  0  0  0
  1 11  2  0  0  0  0
  2  8  1  0  0  0  0
  2  6  1  0  0  0  0
  3 12  1  0  0  0  0
  3  8  2  0  0  0  0
  4 15  2  0  0  0  0
  4 18  1  0  0  0  0
  5 11  1  0  0  0  0
  6  5  2  0  0  0  0
  7 18  2  0  0  0  0
  7 14  1  0  0  0  0
  8  1  1  0  0  0  0
  9  7  1  0  0  0  0
 10  4  1  0  0  0  0
 12 19  1  0  0  0  0
 14  2  2  0  0  0  0
 15 16  1  0  0  0  0
 16 12  2  0  0  0  0
 17 10  1  0  0  0  0
 17  9  2  0  0  0  0
 18  3  1  0  0  0  0
 19 13  2  0  0  0  0
 20 26  1  1  0  0  0
 21 20  1  0  0  0  0
 22 16  1  1  0  0  0
 22 24  1  0  0  0  0
 23 21  1  0  0  0  0
 24 20  1  0  0  0  0
 25 22  1  0  0  0  0
 25 23  1  0  0  0  0
 27  9  1  0  0  0  0
 29 33  1  0  0  0  0
 29 27  1  1  0  0  0
 30 28  1  1  0  0  0
 30 29  1  0  0  0  0
 30 34  1  0  0  0  0
 32 31  1  0  0  0  0
 33 32  1  0  0  0  0
 34 31  1  0  0  0  0
M  END
>  <MODEL>
4

>  <REMARK>
 VINA RESULT:      -9.9      2.443      3.988
  Name = 
  3 active torsions:
  status: ('A' for Active; 'I' for Inactive)
    1  A    between atoms: C_3  and  C_13
    2  A    between atoms: C_3  and  C_17
    3  A    between atoms: C_12  and  C_28
                            x       y       z     vdW  Elec       q    Type
                         _______ _______ _______ _____ _____    ______ ____

>  <TORSDO>
F 3

$$$$
=
 OpenBabel10262423513D

 34 40  0  0  1  0  0  0  0  0999 V2000
  188.7790  177.2790  145.5770 C   0  0  0  0  0  0  0  0  0  0  0  0
  186.5250  178.1810  145.3550 C   0  0  0  0  0  0  0  0  0  0  0  0
  187.8810  177.7360  143.3650 C   0  0  0  0  0  0  0  0  0  0  0  0
  187.0590  178.1550  141.1280 C   0  0  0  0  0  0  0  0  0  0  0  0
  187.4490  177.7110  147.5490 C   0  0  0  0  0  3  0  0  0  0  0  0
  186.3970  178.1650  146.7470 C   0  0  0  0  0  3  0  0  0  0  0  0
  185.6240  178.6380  143.0370 C   0  0  0  0  0  0  0  0  0  0  0  0
  187.7220  177.7350  144.7600 C   0  0  0  0  0  0  0  0  0  0  0  0
  184.6290  179.0630  142.1350 C   0  0  0  0  0  0  0  0  0  0  0  0
  186.0420  178.5860  140.2780 C   0  0  0  0  0  2  0  0  0  0  0  0
  188.6390  177.2680  146.9660 C   0  0  0  0  0  3  0  0  0  0  0  0
  189.0970  177.2820  142.8090 C   0  0  0  0  0  0  0  0  0  0  0  0
  189.9630  176.8390  144.9840 C   0  0  0  0  0  3  0  0  0  0  0  0
  185.3740  178.6830  144.5270 C   0  0  0  0  0  3  0  0  0  0  0  0
  188.2370  177.7140  140.6160 N   0  0  0  0  0  0  0  0  0  0  0  0
  189.2560  177.2800  141.4070 C   0  0  0  0  0  0  0  0  0  0  0  0
  184.8640  179.0230  140.7940 N   0  0  0  0  0  0  0  0  0  0  0  0
  186.8510  178.1780  142.5190 C   0  0  0  0  0  0  0  0  0  0  0  0
  190.0960  176.8500  143.6310 N   0  0  0  0  0  0  0  0  0  0  0  0
  191.5890  176.0890  138.5890 C   0  0  1  0  0  3  0  0  0  0  0  0
  192.7290  177.0740  138.8370 C   0  0  0  0  0  2  0  0  0  0  0  0
  190.5160  176.8130  140.7370 C   0  0  1  0  0  3  0  0  0  0  0  0
  192.9500  177.2550  140.3360 C   0  0  0  0  0  2  0  0  0  0  0  0
  190.3040  176.5940  139.2380 C   0  0  0  0  0  2  0  0  0  0  0  0
  191.6780  177.7730  140.9990 C   0  0  0  0  0  2  0  0  0  0  0  0
  191.3910  175.9410  137.2180 O   0  0  0  0  0  1  0  0  0  0  0  0
  183.2980  179.5420  142.6210 C   0  0  0  0  0  2  0  0  0  0  0  0
  181.9540  178.3270  140.2890 N   0  0  0  0  0  1  0  0  0  0  0  0
  182.2990  178.3890  142.7290 C   0  0  2  0  0  3  0  0  0  0  0  0
  181.2850  178.4110  141.5760 C   0  0  1  0  0  3  0  0  0  0  0  0
  180.0770  180.1340  143.0400 C   0  0  0  0  0  2  0  0  0  0  0  0
  180.1710  179.0010  144.0560 C   0  0  0  0  0  2  0  0  0  0  0  0
  181.5870  178.4110  144.0960 C   0  0  0  0  0  2  0  0  0  0  0  0
  180.3600  179.6370  141.6170 C   0  0  0  0  0  2  0  0  0  0  0  0
  1 11  2  0  0  0  0
  2  6  1  0  0  0  0
  3  8  2  0  0  0  0
  4 18  1  0  0  0  0
  6  5  2  0  0  0  0
  7 14  1  0  0  0  0
  8  2  1  0  0  0  0
  8  1  1  0  0  0  0
  9 27  1  0  0  0  0
  9  7  1  0  0  0  0
 10 17  1  0  0  0  0
 10  4  1  0  0  0  0
 11  5  1  0  0  0  0
 12  3  1  0  0  0  0
 12 19  1  0  0  0  0
 13  1  1  0  0  0  0
 14  2  2  0  0  0  0
 15  4  2  0  0  0  0
 15 16  1  0  0  0  0
 16 12  2  0  0  0  0
 17  9  2  0  0  0  0
 18  7  2  0  0  0  0
 18  3  1  0  0  0  0
 19 13  2  0  0  0  0
 20 26  1  6  0  0  0
 20 21  1  0  0  0  0
 20 24  1  0  0  0  0
 21 23  1  0  0  0  0
 22 25  1  0  0  0  0
 22 16  1  6  0  0  0
 23 25  1  0  0  0  0
 24 22  1  0  0  0  0
 29 27  1  6  0  0  0
 29 33  1  0  0  0  0
 30 28  1  6  0  0  0
 30 34  1  0  0  0  0
 30 29  1  0  0  0  0
 31 32  1  0  0  0  0
 32 33  1  0  0  0  0
 34 31  1  0  0  0  0
M  END
>  <MODEL>
5

>  <REMARK>
 VINA RESULT:      -9.9      2.973      6.827
  Name = 
  3 active torsions:
  status: ('A' for Active; 'I' for Inactive)
    1  A    between atoms: C_3  and  C_13
    2  A    between atoms: C_3  and  C_17
    3  A    between atoms: C_12  and  C_28
                            x       y       z     vdW  Elec       q    Type
                         _______ _______ _______ _____ _____    ______ ____

>  <TORSDO>
F 3

$$$$
=
 OpenBabel10262423513D

 34 40  0  0  1  0  0  0  0  0999 V2000
  189.8180  177.4060  141.2640 C   0  0  0  0  0  0  0  0  0  0  0  0
  187.8720  178.0420  139.9410 C   0  0  0  0  0  0  0  0  0  0  0  0
  187.6940  177.8170  142.3720 C   0  0  0  0  0  0  0  0  0  0  0  0
  185.6200  178.2160  143.5520 C   0  0  0  0  0  0  0  0  0  0  0  0
  190.0080  177.6280  138.8640 C   0  0  0  0  0  3  0  0  0  0  0  0
  188.6560  177.9750  138.7840 C   0  0  0  0  0  3  0  0  0  0  0  0
  185.6820  178.4670  141.1300 C   0  0  0  0  0  0  0  0  0  0  0  0
  188.4530  177.7570  141.1920 C   0  0  0  0  0  0  0  0  0  0  0  0
  184.3180  178.8150  141.1670 C   0  0  0  0  0  0  0  0  0  0  0  0
  184.2710  178.5670  143.5350 C   0  0  0  0  0  3  0  0  0  0  0  0
  190.5890  177.3430  140.1020 C   0  0  0  0  0  3  0  0  0  0  0  0
  188.3140  177.5230  143.6060 C   0  0  0  0  0  0  0  0  0  0  0  0
  190.3890  177.1240  142.5060 C   0  0  0  0  0  3  0  0  0  0  0  0
  186.4200  178.4130  139.8110 C   0  0  0  0  0  3  0  0  0  0  0  0
  186.2380  177.9290  144.7270 N   0  0  0  0  0  0  0  0  0  0  0  0
  187.5520  177.5860  144.7930 C   0  0  0  0  0  0  0  0  0  0  0  0
  183.6580  178.8570  142.3580 N   0  0  0  0  0  0  0  0  0  0  0  0
  186.3340  178.1660  142.3420 C   0  0  1  0  0  3  0  0  0  0  0  0
  189.6360  177.1870  143.6350 N   0  0  0  0  0  0  0  0  0  0  0  0
  190.2260  177.1000  147.5160 C   0  0  1  0  0  3  0  0  0  0  0  0
  189.5960  177.9910  148.5830 C   0  0  0  0  0  2  0  0  0  0  0  0
  188.1350  177.2890  146.1440 C   0  0  1  0  0  3  0  0  0  0  0  0
  188.0810  177.8030  148.5960 C   0  0  0  0  0  2  0  0  0  0  0  0
  189.6580  177.4390  146.1410 C   0  0  0  0  0  2  0  0  0  0  0  0
  187.4940  178.1520  147.2330 C   0  0  0  0  0  2  0  0  0  0  0  0
  191.6070  177.2880  147.5070 O   0  0  0  0  0  1  0  0  0  0  0  0
  183.5740  179.1650  139.9170 C   0  0  0  0  0  2  0  0  0  0  0  0
  183.3560  176.5840  138.4970 N   0  0  0  0  0  1  0  0  0  0  0  0
  182.2710  178.3700  139.8060 C   0  0  2  0  0  3  0  0  0  0  0  0
  182.2400  177.5140  138.5320 C   0  0  1  0  0  3  0  0  0  0  0  0
  181.4810  179.6960  137.4200 C   0  0  0  0  0  2  0  0  0  0  0  0
  180.4190  179.6180  138.5120 C   0  0  0  0  0  2  0  0  0  0  0  0
  181.0520  179.3100  139.8760 C   0  0  0  0  0  2  0  0  0  0  0  0
  182.2080  178.3560  137.2470 C   0  0  0  0  0  2  0  0  0  0  0  0
  1 13  1  0  0  0  0
  2  8  1  0  0  0  0
  3 12  1  0  0  0  0
  4 15  2  0  0  0  0
  5 11  1  0  0  0  0
  6  5  2  0  0  0  0
  6  2  1  0  0  0  0
  7  9  2  0  0  0  0
  8  1  1  0  0  0  0
  8  3  2  0  0  0  0
  9 17  1  0  0  0  0
 10  4  1  0  0  0  0
 11  1  2  0  0  0  0
 12 19  1  0  0  0  0
 12 16  2  0  0  0  0
 13 19  2  0  0  0  0
 14  2  2  0  0  0  0
 14  7  1  0  0  0  0
 15 16  1  0  0  0  0
 17 10  2  0  0  0  0
 18  7  1  1  0  0  0
 18  3  1  0  0  0  0
 18  4  1  0  0  0  0
 20 26  1  6  0  0  0
 20 21  1  0  0  0  0
 21 23  1  0  0  0  0
 22 16  1  6  0  0  0
 22 25  1  0  0  0  0
 24 22  1  0  0  0  0
 24 20  1  0  0  0  0
 25 23  1  0  0  0  0
 27  9  1  0  0  0  0
 29 33  1  0  0  0  0
 29 27  1  6  0  0  0
 30 28  1  6  0  0  0
 30 29  1  0  0  0  0
 31 32  1  0  0  0  0
 32 33  1  0  0  0  0
 34 31  1  0  0  0  0
 34 30  1  0  0  0  0
M  END
>  <MODEL>
6

>  <REMARK>
 VINA RESULT:      -9.9      2.070      4.703
  Name = 
  3 active torsions:
  status: ('A' for Active; 'I' for Inactive)
    1  A    between atoms: C_3  and  C_13
    2  A    between atoms: C_3  and  C_17
    3  A    between atoms: C_12  and  C_28
                            x       y       z     vdW  Elec       q    Type
                         _______ _______ _______ _____ _____    ______ ____

>  <TORSDO>
F 3

$$$$
=
 OpenBabel10262423513D

 34 40  0  0  1  0  0  0  0  0999 V2000
  188.1560  177.4330  144.4220 C   0  0  0  0  0  0  0  0  0  0  0  0
  186.0000  178.3340  143.7240 C   0  0  0  0  0  0  0  0  0  0  0  0
  187.6960  177.7530  142.0570 C   0  0  0  0  0  0  0  0  0  0  0  0
  187.3160  178.0330  139.6830 C   0  0  0  0  0  0  0  0  0  0  0  0
  186.4880  178.0000  146.0780 C   0  0  0  0  0  3  0  0  0  0  0  0
  185.6130  178.4080  145.0660 C   0  0  0  0  0  3  0  0  0  0  0  0
  185.5580  178.6470  141.2540 C   0  0  0  0  0  0  0  0  0  0  0  0
  187.2790  177.8430  143.3950 C   0  0  0  0  0  0  0  0  0  0  0  0
  184.7580  179.0200  140.1570 C   0  0  0  0  0  0  0  0  0  0  0  0
  186.4850  178.4160  138.6330 C   0  0  0  0  0  2  0  0  0  0  0  0
  187.7570  177.5120  145.7580 C   0  0  0  0  0  3  0  0  0  0  0  0
  188.9870  177.2560  141.7690 C   0  0  0  0  0  0  0  0  0  0  0  0
  189.4210  176.9480  144.0910 C   0  0  0  0  0  3  0  0  0  0  0  0
  185.0340  178.7900  142.6660 C   0  0  0  0  0  3  0  0  0  0  0  0
  188.5610  177.5520  139.4310 N   0  0  0  0  0  0  0  0  0  0  0  0
  189.4060  177.1630  140.4240 C   0  0  0  0  0  0  0  0  0  0  0  0
  185.2390  178.8930  138.8890 N   0  0  0  0  0  0  0  0  0  0  0  0
  186.8510  178.1470  141.0060 C   0  0  0  0  0  0  0  0  0  0  0  0
  189.8050  176.8710  142.7900 N   0  0  0  0  0  0  0  0  0  0  0  0
  192.1700  175.6720  138.2030 C   0  0  1  0  0  3  0  0  0  0  0  0
  193.2500  176.7120  138.4940 C   0  0  0  0  0  2  0  0  0  0  0  0
  190.7600  176.6460  140.0340 C   0  0  1  0  0  3  0  0  0  0  0  0
  193.2240  177.0960  139.9700 C   0  0  0  0  0  2  0  0  0  0  0  0
  190.7940  176.2230  138.5640 C   0  0  0  0  0  2  0  0  0  0  0  0
  191.8590  177.6630  140.3450 C   0  0  0  0  0  2  0  0  0  0  0  0
  192.1970  175.3370  136.8510 O   0  0  0  0  0  1  0  0  0  0  0  0
  183.3680  179.5380  140.3540 C   0  0  0  0  0  2  0  0  0  0  0  0
  181.5990  180.9720  138.4730 N   0  0  0  0  0  1  0  0  0  0  0  0
  182.3770  178.8350  139.4250 C   0  0  2  0  0  3  0  0  0  0  0  0
  181.1740  179.7320  139.1000 C   0  0  1  0  0  3  0  0  0  0  0  0
  180.2910  178.8860  141.3530 C   0  0  0  0  0  2  0  0  0  0  0  0
  180.5380  177.5370  140.6860 C   0  0  0  0  0  2  0  0  0  0  0  0
  181.9240  177.4920  140.0290 C   0  0  0  0  0  2  0  0  0  0  0  0
  180.3010  180.0290  140.3290 C   0  0  0  0  0  2  0  0  0  0  0  0
  1 11  2  0  0  0  0
  2  6  1  0  0  0  0
  3  8  2  0  0  0  0
  4 18  1  0  0  0  0
  6  5  2  0  0  0  0
  7 14  1  0  0  0  0
  8  2  1  0  0  0  0
  8  1  1  0  0  0  0
  9 27  1  0  0  0  0
  9  7  1  0  0  0  0
 10 17  1  0  0  0  0
 10  4  1  0  0  0  0
 11  5  1  0  0  0  0
 12  3  1  0  0  0  0
 12 19  1  0  0  0  0
 13  1  1  0  0  0  0
 14  2  2  0  0  0  0
 15  4  2  0  0  0  0
 15 16  1  0  0  0  0
 16 12  2  0  0  0  0
 17  9  2  0  0  0  0
 18  7  2  0  0  0  0
 18  3  1  0  0  0  0
 19 13  2  0  0  0  0
 20 26  1  6  0  0  0
 20 21  1  0  0  0  0
 20 24  1  0  0  0  0
 21 23  1  0  0  0  0
 22 25  1  0  0  0  0
 22 16  1  6  0  0  0
 23 25  1  0  0  0  0
 24 22  1  0  0  0  0
 29 33  1  0  0  0  0
 29 27  1  1  0  0  0
 30 28  1  1  0  0  0
 30 29  1  0  0  0  0
 30 34  1  0  0  0  0
 32 31  1  0  0  0  0
 33 32  1  0  0  0  0
 34 31  1  0  0  0  0
M  END
>  <MODEL>
7

>  <REMARK>
 VINA RESULT:      -9.8      3.204      6.384
  Name = 
  3 active torsions:
  status: ('A' for Active; 'I' for Inactive)
    1  A    between atoms: C_3  and  C_13
    2  A    between atoms: C_3  and  C_17
    3  A    between atoms: C_12  and  C_28
                            x       y       z     vdW  Elec       q    Type
                         _______ _______ _______ _____ _____    ______ ____

>  <TORSDO>
F 3

$$$$
=
 OpenBabel10262423513D

 34 40  0  0  1  0  0  0  0  0999 V2000
  182.1960  178.7890  142.8720 C   0  0  0  0  0  0  0  0  0  0  0  0
  184.5840  178.6410  143.3410 C   0  0  0  0  0  0  0  0  0  0  0  0
  183.7760  178.6460  141.0300 C   0  0  0  0  0  0  0  0  0  0  0  0
  185.2810  178.5160  139.1400 C   0  0  0  0  0  0  0  0  0  0  0  0
  182.9820  178.7880  145.1590 C   0  0  0  0  0  3  0  0  0  0  0  0
  184.3030  178.6910  144.7100 C   0  0  0  0  0  3  0  0  0  0  0  0
  186.1960  178.5010  141.3980 C   0  0  0  0  0  0  0  0  0  0  0  0
  183.5260  178.6910  142.4110 C   0  0  0  0  0  0  0  0  0  0  0  0
  187.4850  178.4130  140.8370 C   0  0  0  0  0  0  0  0  0  0  0  0
  186.5770  178.4290  138.6350 C   0  0  0  0  0  3  0  0  0  0  0  0
  181.9290  178.8380  144.2420 C   0  0  0  0  0  3  0  0  0  0  0  0
  182.6880  178.6980  140.1310 C   0  0  0  0  0  0  0  0  0  0  0  0
  181.1520  178.8370  141.9470 C   0  0  0  0  0  3  0  0  0  0  0  0
  186.0180  178.5300  142.9000 C   0  0  0  0  0  3  0  0  0  0  0  0
  184.2190  178.5670  138.2950 N   0  0  0  0  0  2  0  0  0  0  0  0
  182.9380  178.6550  138.7430 C   0  0  0  0  0  0  0  0  0  0  0  0
  187.6370  178.3820  139.4840 N   0  0  0  0  0  0  0  0  0  0  0  0
  185.0860  178.5540  140.5330 C   0  0  0  0  0  0  0  0  0  0  0  0
  181.4160  178.7910  140.6150 N   0  0  0  0  0  0  0  0  0  0  0  0
  180.3420  180.1700  136.3420 C   0  0  1  0  0  3  0  0  0  0  0  0
  180.7230  179.3720  135.0970 C   0  0  0  0  0  2  0  0  0  0  0  0
  181.8380  178.7050  137.7220 C   0  0  1  0  0  3  0  0  0  0  0  0
  181.0410  177.9280  135.4770 C   0  0  0  0  0  2  0  0  0  0  0  0
  181.4820  180.1480  137.3540 C   0  0  0  0  0  2  0  0  0  0  0  0
  182.1900  177.8860  136.4790 C   0  0  0  0  0  2  0  0  0  0  0  0
  180.0630  181.4870  135.9830 O   0  0  0  0  0  1  0  0  0  0  0  0
  188.7050  178.3740  141.7020 C   0  0  0  0  0  2  0  0  0  0  0  0
  188.2330  175.9660  143.3460 N   0  0  0  0  0  1  0  0  0  0  0  0
  189.4720  177.0640  141.5190 C   0  0  2  0  0  3  0  0  0  0  0  0
  189.5570  176.2720  142.8320 C   0  0  1  0  0  3  0  0  0  0  0  0
  191.5300  177.8340  143.3220 C   0  0  0  0  0  2  0  0  0  0  0  0
  192.0020  177.2890  141.9790 C   0  0  0  0  0  2  0  0  0  0  0  0
  190.8750  177.3310  140.9380 C   0  0  0  0  0  2  0  0  0  0  0  0
  190.3950  176.9830  143.9060 C   0  0  0  0  0  2  0  0  0  0  0  0
  1 11  1  0  0  0  0
  2  6  2  0  0  0  0
  3  8  1  0  0  0  0
  4 18  1  0  0  0  0
  6  5  1  0  0  0  0
  7 14  2  0  0  0  0
  8  1  2  0  0  0  0
  8  2  1  0  0  0  0
  9  7  1  0  0  0  0
  9 27  1  0  0  0  0
 10  4  2  0  0  0  0
 10 17  1  0  0  0  0
 11  5  2  0  0  0  0
 12 19  1  0  0  0  0
 12  3  1  0  0  0  0
 13  1  1  0  0  0  0
 14  2  1  0  0  0  0
 15 16  1  0  0  0  0
 15  4  1  0  0  0  0
 16 12  2  0  0  0  0
 17  9  2  0  0  0  0
 18  3  2  0  0  0  0
 18  7  1  0  0  0  0
 19 13  2  0  0  0  0
 20 26  1  6  0  0  0
 20 24  1  0  0  0  0
 21 23  1  0  0  0  0
 21 20  1  0  0  0  0
 22 16  1  1  0  0  0
 23 25  1  0  0  0  0
 24 22  1  0  0  0  0
 25 22  1  0  0  0  0
 29 27  1  1  0  0  0
 29 30  1  0  0  0  0
 30 28  1  1  0  0  0
 30 34  1  0  0  0  0
 31 34  1  0  0  0  0
 32 31  1  0  0  0  0
 33 29  1  0  0  0  0
 33 32  1  0  0  0  0
M  END
>  <MODEL>
8

>  <REMARK>
 VINA RESULT:      -9.7      4.078      8.010
  Name = 
  3 active torsions:
  status: ('A' for Active; 'I' for Inactive)
    1  A    between atoms: C_3  and  C_13
    2  A    between atoms: C_3  and  C_17
    3  A    between atoms: C_12  and  C_28
                            x       y       z     vdW  Elec       q    Type
                         _______ _______ _______ _____ _____    ______ ____

>  <TORSDO>
F 3

$$$$
=
 OpenBabel10262423513D

 34 40  0  0  1  0  0  0  0  0999 V2000
  189.0800  177.3210  145.0060 C   0  0  0  0  0  0  0  0  0  0  0  0
  190.6210  177.0110  143.1420 C   0  0  0  0  0  0  0  0  0  0  0  0
  188.3380  177.7980  142.7410 C   0  0  0  0  0  0  0  0  0  0  0  0
  187.5220  178.3040  140.5200 C   0  0  0  0  0  0  0  0  0  0  0  0
  191.3340  176.5460  145.4150 C   0  0  0  0  0  3  0  0  0  0  0  0
  191.6060  176.5980  144.0450 C   0  0  0  0  0  3  0  0  0  0  0  0
  189.8130  177.5230  140.8020 C   0  0  0  0  0  0  0  0  0  0  0  0
  189.3470  177.3770  143.6220 C   0  0  0  0  0  0  0  0  0  0  0  0
  189.9810  177.6230  139.4070 C   0  0  0  0  0  0  0  0  0  0  0  0
  187.7390  178.3850  139.1460 C   0  0  0  0  0  2  0  0  0  0  0  0
  190.0720  176.9070  145.8970 C   0  0  0  0  0  3  0  0  0  0  0  0
  187.0740  178.1560  143.2620 C   0  0  0  0  0  0  0  0  0  0  0  0
  187.8170  177.6840  145.4760 C   0  0  0  0  0  3  0  0  0  0  0  0
  190.9510  177.0460  141.6760 C   0  0  0  0  0  3  0  0  0  0  0  0
  186.3160  178.6420  141.0440 N   0  0  0  0  0  0  0  0  0  0  0  0
  186.0600  178.5820  142.3780 C   0  0  0  0  0  0  0  0  0  0  0  0
  188.9480  178.0490  138.6260 N   0  0  0  0  0  0  0  0  0  0  0  0
  188.5660  177.8710  141.3580 C   0  0  0  0  0  0  0  0  0  0  0  0
  186.8540  178.0880  144.6060 N   0  0  0  0  0  0  0  0  0  0  0  0
  182.2280  178.9180  142.3870 C   0  0  1  0  0  3  0  0  0  0  0  0
  181.9810  178.4200  143.8090 C   0  0  0  0  0  2  0  0  0  0  0  0
  184.6910  178.9800  142.8510 C   0  0  1  0  0  3  0  0  0  0  0  0
  183.0550  178.9620  144.7490 C   0  0  0  0  0  2  0  0  0  0  0  0
  183.6030  178.4730  141.9020 C   0  0  0  0  0  2  0  0  0  0  0  0
  184.4370  178.5140  144.2860 C   0  0  0  0  0  2  0  0  0  0  0  0
  181.2470  178.4080  141.5390 O   0  0  0  0  0  1  0  0  0  0  0  0
  191.2860  177.2880  138.7580 C   0  0  0  0  0  2  0  0  0  0  0  0
  193.8580  175.8720  138.4350 N   0  0  0  0  0  1  0  0  0  0  0  0
  191.3940  175.7890  138.4710 C   0  0  2  0  0  3  0  0  0  0  0  0
  192.6780  175.4550  137.6970 C   0  0  1  0  0  3  0  0  0  0  0  0
  191.2990  176.1620  135.6550 C   0  0  0  0  0  2  0  0  0  0  0  0
  190.3520  175.1040  136.2110 C   0  0  0  0  0  2  0  0  0  0  0  0
  190.1450  175.2870  137.7210 C   0  0  0  0  0  2  0  0  0  0  0  0
  192.6950  176.0510  136.2810 C   0  0  0  0  0  2  0  0  0  0  0  0
  1 13  1  0  0  0  0
  1 11  2  0  0  0  0
  2  8  1  0  0  0  0
  2  6  1  0  0  0  0
  3 12  1  0  0  0  0
  3  8  2  0  0  0  0
  4 15  2  0  0  0  0
  4 18  1  0  0  0  0
  5 11  1  0  0  0  0
  6  5  2  0  0  0  0
  7 18  2  0  0  0  0
  7 14  1  0  0  0  0
  8  1  1  0  0  0  0
  9  7  1  0  0  0  0
 10  4  1  0  0  0  0
 12 19  1  0  0  0  0
 14  2  2  0  0  0  0
 15 16  1  0  0  0  0
 16 12  2  0  0  0  0
 17 10  1  0  0  0  0
 17  9  2  0  0  0  0
 18  3  1  0  0  0  0
 19 13  2  0  0  0  0
 20 26  1  6  0  0  0
 20 21  1  0  0  0  0
 21 23  1  0  0  0  0
 22 16  1  6  0  0  0
 22 25  1  0  0  0  0
 24 20  1  0  0  0  0
 24 22  1  0  0  0  0
 25 23  1  0  0  0  0
 27  9  1  0  0  0  0
 29 27  1  6  0  0  0
 30 28  1  1  0  0  0
 30 29  1  0  0  0  0
 31 32  1  0  0  0  0
 31 34  1  0  0  0  0
 32 33  1  0  0  0  0
 33 29  1  0  0  0  0
 34 30  1  0  0  0  0
M  END
>  <MODEL>
9

>  <REMARK>
 VINA RESULT:      -9.6      2.954      5.640
  Name = 
  3 active torsions:
  status: ('A' for Active; 'I' for Inactive)
    1  A    between atoms: C_3  and  C_13
    2  A    between atoms: C_3  and  C_17
    3  A    between atoms: C_12  and  C_28
                            x       y       z     vdW  Elec       q    Type
                         _______ _______ _______ _____ _____    ______ ____

>  <TORSDO>
F 3

$$$$
