=
 OpenBabel10272400243D

 31 35  0  0  1  0  0  0  0  0999 V2000
  187.3920  178.1490  137.0340 C   0  0  0  0  0  0  0  0  0  0  0  0
  190.6930  176.8820  138.4060 C   0  0  1  0  0  3  0  0  0  0  0  0
  190.5860  175.3690  138.2670 C   0  0  0  0  0  2  0  0  0  0  0  0
  191.2850  173.8220  136.4630 C   0  0  0  0  0  3  0  0  0  0  0  0
  189.3190  177.4790  138.3190 C   0  0  0  0  0  0  0  0  0  0  0  0
  186.7270  178.4250  138.1890 N   0  0  0  0  0  0  0  0  0  0  0  0
  191.5650  174.8220  137.2790 C   0  0  2  0  0  3  0  0  0  0  0  0
  190.5090  177.3440  140.8810 C   0  0  0  0  0  0  0  0  0  0  0  0
  186.7520  178.3450  135.7800 N   0  0  0  0  0  1  0  0  0  0  0  0
  193.5390  176.2000  139.3350 C   0  0  0  0  0  2  0  0  0  0  0  0
  192.5370  173.4600  135.7250 C   0  0  0  0  0  3  0  0  0  0  0  0
  189.2440  177.6200  140.7720 N   0  0  0  0  0  0  0  0  0  0  0  0
  191.3190  177.2000  139.6950 N   0  0  0  0  0  0  0  0  0  0  0  0
  188.7010  177.6620  137.0790 C   0  0  0  0  0  3  0  0  0  0  0  0
  193.5390  174.3690  136.2680 N   0  0  0  0  0  0  0  0  0  0  0  0
  188.6140  177.7720  139.4960 C   0  0  0  0  0  0  0  0  0  0  0  0
  187.3050  178.2490  139.4070 C   0  0  0  0  0  3  0  0  0  0  0  0
  192.7590  177.4340  139.7590 C   0  0  0  0  0  2  0  0  0  0  0  0
  192.9860  175.1170  137.1590 C   0  0  0  0  0  0  0  0  0  0  0  0
  193.7320  176.2230  137.8300 C   0  0  0  0  0  2  0  0  0  0  0  0
  191.1150  177.2550  142.2450 C   0  0  0  0  0  2  0  0  0  0  0  0
  190.4320  175.0760  142.8950 O   0  0  0  0  0  0  0  0  0  0  0  0
  190.3350  176.3140  143.1110 C   0  0  0  0  0  0  0  0  0  0  0  0
  187.7770  177.8210  146.2170 C   0  0  0  0  0  0  0  0  0  0  0  0
  188.1190  177.0330  143.9600 C   0  0  0  0  0  3  0  0  0  0  0  0
  191.6680  176.8690  145.9610 Cl  0  0  0  0  0  0  0  0  0  0  0  0
  186.7160  178.4340  147.4650 Cl  0  0  0  0  0  0  0  0  0  0  0  0
  187.2690  177.5230  144.9530 C   0  0  0  0  0  3  0  0  0  0  0  0
  189.9920  177.1340  145.5000 C   0  0  0  0  0  0  0  0  0  0  0  0
  189.4860  176.8330  144.2110 C   0  0  0  0  0  0  0  0  0  0  0  0
  189.1310  177.6230  146.4880 C   0  0  0  0  0  3  0  0  0  0  0  0
  1 14  2  0  0  0  0
  1  6  1  0  0  0  0
  2  3  1  1  0  0  0
  2 13  1  0  0  0  0
  5  2  1  0  0  0  0
  5 16  2  0  0  0  0
  6 17  2  0  0  0  0
  7  4  1  1  0  0  0
  7  3  1  0  0  0  0
  8 21  1  0  0  0  0
  9  1  1  0  0  0  0
 10 18  1  0  0  0  0
 11 15  1  0  0  0  0
 11  4  2  0  0  0  0
 12  8  2  0  0  0  0
 13 18  1  0  0  0  0
 13  8  1  0  0  0  0
 14  5  1  0  0  0  0
 15 19  2  0  0  0  0
 16 12  1  0  0  0  0
 17 16  1  0  0  0  0
 19  7  1  0  0  0  0
 19 20  1  0  0  0  0
 20 10  1  0  0  0  0
 21 23  1  0  0  0  0
 22 23  2  0  0  0  0
 23 30  1  0  0  0  0
 24 31  1  0  0  0  0
 24 27  1  0  0  0  0
 25 30  2  0  0  0  0
 25 28  1  0  0  0  0
 28 24  2  0  0  0  0
 29 26  1  0  0  0  0
 29 31  2  0  0  0  0
 30 29  1  0  0  0  0
M  END
>  <MODEL>
1

>  <REMARK>
 VINA RESULT:      -8.9      0.000      0.000
  Name = 
  3 active torsions:
  status: ('A' for Active; 'I' for Inactive)
    1  A    between atoms: C_9  and  C_22
    2  A    between atoms: C_9  and  C_23
    3  A    between atoms: C_15  and  C_23
                            x       y       z     vdW  Elec       q    Type
                         _______ _______ _______ _____ _____    ______ ____

>  <TORSDO>
F 3

$$$$
=
 OpenBabel10272400243D

 31 35  0  0  1  0  0  0  0  0999 V2000
  192.5220  177.4130  140.5980 C   0  0  0  0  0  0  0  0  0  0  0  0
  190.4210  177.3420  143.7540 C   0  0  1  0  0  3  0  0  0  0  0  0
  190.6920  175.9620  144.3400 C   0  0  0  0  0  2  0  0  0  0  0  0
  192.3530  175.1680  145.9950 C   0  0  0  0  0  3  0  0  0  0  0  0
  190.8250  177.3480  142.3090 C   0  0  0  0  0  0  0  0  0  0  0  0
  191.5690  177.1920  139.6530 N   0  0  0  0  0  0  0  0  0  0  0  0
  191.4230  176.0350  145.6410 C   0  0  0  0  0  0  0  0  0  0  0  0
  188.0570  177.2470  142.8750 C   0  0  0  0  0  0  0  0  0  0  0  0
  193.8840  177.5560  140.2150 N   0  0  0  0  0  1  0  0  0  0  0  0
  188.8230  177.6960  146.3520 C   0  0  0  0  0  2  0  0  0  0  0  0
  192.7570  175.4700  147.4060 C   0  0  0  0  0  2  0  0  0  0  0  0
  188.4760  177.0110  141.6680 N   0  0  0  0  0  0  0  0  0  0  0  0
  188.9930  177.6490  143.8970 N   0  0  0  0  0  0  0  0  0  0  0  0
  192.1680  177.4870  141.9480 C   0  0  0  0  0  3  0  0  0  0  0  0
  191.9040  176.5910  147.7820 N   0  0  0  0  0  0  0  0  0  0  0  0
  189.8590  177.1230  141.3170 C   0  0  0  0  0  0  0  0  0  0  0  0
  190.2570  177.0470  139.9810 C   0  0  0  0  0  3  0  0  0  0  0  0
  188.5330  178.4220  145.0480 C   0  0  0  0  0  2  0  0  0  0  0  0
  191.1410  176.8870  146.7880 C   0  0  0  0  0  0  0  0  0  0  0  0
  190.2180  178.0610  146.8280 C   0  0  0  0  0  2  0  0  0  0  0  0
  186.5900  177.1660  143.1600 C   0  0  0  0  0  2  0  0  0  0  0  0
  186.4970  179.0800  141.7600 O   0  0  0  0  0  0  0  0  0  0  0  0
  185.8670  178.3240  142.5470 C   0  0  0  0  0  0  0  0  0  0  0  0
  181.6880  178.9990  143.2870 C   0  0  0  0  0  0  0  0  0  0  0  0
  183.5140  178.5130  141.7840 C   0  0  0  0  0  3  0  0  0  0  0  0
  184.9850  178.8510  145.5720 Cl  0  0  0  0  0  0  0  0  0  0  0  0
  179.9820  179.2700  143.5630 Cl  0  0  0  0  0  0  0  0  0  0  0  0
  182.1530  178.7300  142.0000 C   0  0  0  0  0  3  0  0  0  0  0  0
  183.9500  178.8280  144.1500 C   0  0  0  0  0  0  0  0  0  0  0  0
  184.4330  178.5590  142.8450 C   0  0  0  0  0  0  0  0  0  0  0  0
  182.5830  179.0420  144.3560 C   0  0  0  0  0  3  0  0  0  0  0  0
  1 14  1  0  0  0  0
  2 13  1  0  0  0  0
  2  3  1  6  0  0  0
  3  7  1  0  0  0  0
  4 11  1  0  0  0  0
  5  2  1  0  0  0  0
  6 17  1  0  0  0  0
  6  1  2  0  0  0  0
  7  4  2  0  0  0  0
  7 19  1  0  0  0  0
  8 21  1  0  0  0  0
  8 13  1  0  0  0  0
  9  1  1  0  0  0  0
 10 20  1  0  0  0  0
 11 15  1  0  0  0  0
 12  8  2  0  0  0  0
 13 18  1  0  0  0  0
 14  5  2  0  0  0  0
 16 12  1  0  0  0  0
 16  5  1  0  0  0  0
 17 16  2  0  0  0  0
 18 10  1  0  0  0  0
 19 20  1  0  0  0  0
 19 15  2  0  0  0  0
 22 23  2  0  0  0  0
 23 30  1  0  0  0  0
 23 21  1  0  0  0  0
 24 27  1  0  0  0  0
 24 31  1  0  0  0  0
 25 28  1  0  0  0  0
 25 30  2  0  0  0  0
 28 24  2  0  0  0  0
 29 31  2  0  0  0  0
 29 26  1  0  0  0  0
 30 29  1  0  0  0  0
M  END
>  <MODEL>
2

>  <REMARK>
 VINA RESULT:      -8.5      3.461      6.938
  Name = 
  3 active torsions:
  status: ('A' for Active; 'I' for Inactive)
    1  A    between atoms: C_9  and  C_22
    2  A    between atoms: C_9  and  C_23
    3  A    between atoms: C_15  and  C_23
                            x       y       z     vdW  Elec       q    Type
                         _______ _______ _______ _____ _____    ______ ____

>  <TORSDO>
F 3

$$$$
=
 OpenBabel10272400243D

 31 35  0  0  1  0  0  0  0  0999 V2000
  185.6010  177.1320  135.9380 C   0  0  0  0  0  0  0  0  0  0  0  0
  184.3440  178.3160  139.3140 C   0  0  1  0  0  3  0  0  0  0  0  0
  183.8340  179.7240  139.0370 C   0  0  0  0  0  2  0  0  0  0  0  0
  181.5890  180.5780  138.4330 C   0  0  0  0  0  3  0  0  0  0  0  0
  185.2560  177.8980  138.1970 C   0  0  0  0  0  0  0  0  0  0  0  0
  186.9430  177.2890  136.0970 N   0  0  0  0  0  0  0  0  0  0  0  0
  182.3530  179.8310  139.2100 C   0  0  2  0  0  3  0  0  0  0  0  0
  186.4660  178.6200  140.6490 C   0  0  0  0  0  0  0  0  0  0  0  0
  185.0820  176.6620  134.7010 N   0  0  0  0  0  1  0  0  0  0  0  0
  183.1960  178.8740  142.1070 C   0  0  0  0  0  2  0  0  0  0  0  0
  180.1970  180.5490  138.9860 C   0  0  0  0  0  3  0  0  0  0  0  0
  187.1980  178.4870  139.5840 N   0  0  0  0  0  0  0  0  0  0  0  0
  185.0570  178.3100  140.5980 N   0  0  0  0  0  0  0  0  0  0  0  0
  184.7300  177.4420  136.9860 C   0  0  0  0  0  3  0  0  0  0  0  0
  180.3110  179.7180  140.1780 N   0  0  0  0  0  0  0  0  0  0  0  0
  186.6420  178.0510  138.3390 C   0  0  0  0  0  0  0  0  0  0  0  0
  187.4780  177.7380  137.2650 C   0  0  0  0  0  3  0  0  0  0  0  0
  184.3480  177.9250  141.8150 C   0  0  0  0  0  2  0  0  0  0  0  0
  181.5340  179.3380  140.3070 C   0  0  0  0  0  0  0  0  0  0  0  0
  181.9530  178.3890  141.3830 C   0  0  0  0  0  2  0  0  0  0  0  0
  187.1210  179.0250  141.9310 C   0  0  0  0  0  2  0  0  0  0  0  0
  188.2630  176.9460  141.8510 O   0  0  0  0  0  0  0  0  0  0  0  0
  187.7790  177.8500  142.5840 C   0  0  0  0  0  0  0  0  0  0  0  0
  187.9340  177.6080  146.8720 C   0  0  0  0  0  0  0  0  0  0  0  0
  186.6900  177.6310  144.8020 C   0  0  0  0  0  3  0  0  0  0  0  0
  190.6660  177.9220  143.9490 Cl  0  0  0  0  0  0  0  0  0  0  0  0
  187.9700  177.5080  148.6180 Cl  0  0  0  0  0  0  0  0  0  0  0  0
  186.7160  177.5520  146.1950 C   0  0  0  0  0  3  0  0  0  0  0  0
  189.1090  177.8170  144.7590 C   0  0  0  0  0  0  0  0  0  0  0  0
  187.8760  177.7660  144.0620 C   0  0  0  0  0  0  0  0  0  0  0  0
  189.1230  177.7350  146.1550 C   0  0  0  0  0  3  0  0  0  0  0  0
  1  6  2  0  0  0  0
  1 14  1  0  0  0  0
  2  3  1  6  0  0  0
  2 13  1  0  0  0  0
  3  7  1  0  0  0  0
  4 11  2  0  0  0  0
  5 16  1  0  0  0  0
  5  2  1  0  0  0  0
  6 17  1  0  0  0  0
  7  4  1  1  0  0  0
  7 19  1  0  0  0  0
  8 21  1  0  0  0  0
  9  1  1  0  0  0  0
 11 15  1  0  0  0  0
 12  8  2  0  0  0  0
 13  8  1  0  0  0  0
 13 18  1  0  0  0  0
 14  5  2  0  0  0  0
 15 19  2  0  0  0  0
 16 12  1  0  0  0  0
 17 16  2  0  0  0  0
 18 10  1  0  0  0  0
 19 20  1  0  0  0  0
 20 10  1  0  0  0  0
 21 23  1  0  0  0  0
 22 23  2  0  0  0  0
 23 30  1  0  0  0  0
 24 27  1  0  0  0  0
 25 28  2  0  0  0  0
 26 29  1  0  0  0  0
 28 24  1  0  0  0  0
 29 31  1  0  0  0  0
 30 29  2  0  0  0  0
 30 25  1  0  0  0  0
 31 24  2  0  0  0  0
M  END
>  <MODEL>
3

>  <REMARK>
 VINA RESULT:      -8.4      3.729      6.943
  Name = 
  3 active torsions:
  status: ('A' for Active; 'I' for Inactive)
    1  A    between atoms: C_9  and  C_22
    2  A    between atoms: C_9  and  C_23
    3  A    between atoms: C_15  and  C_23
                            x       y       z     vdW  Elec       q    Type
                         _______ _______ _______ _____ _____    ______ ____

>  <TORSDO>
F 3

$$$$
=
 OpenBabel10272400243D

 31 35  0  0  1  0  0  0  0  0999 V2000
  183.2640  179.1040  139.0830 C   0  0  0  0  0  0  0  0  0  0  0  0
  186.9010  178.1240  138.6460 C   0  0  1  0  0  3  0  0  0  0  0  0
  186.8410  176.6340  138.3360 C   0  0  0  0  0  2  0  0  0  0  0  0
  186.7420  175.3940  136.1950 C   0  0  0  0  0  3  0  0  0  0  0  0
  185.6020  178.5470  139.2670 C   0  0  0  0  0  0  0  0  0  0  0  0
  183.1790  179.1660  140.4390 N   0  0  0  0  0  0  0  0  0  0  0  0
  187.2970  176.3270  136.9470 C   0  0  2  0  0  3  0  0  0  0  0  0
  187.8310  178.2870  140.9870 C   0  0  0  0  0  0  0  0  0  0  0  0
  182.1130  179.3520  138.2860 N   0  0  0  0  0  1  0  0  0  0  0  0
  189.8960  177.7120  138.1090 C   0  0  0  0  0  2  0  0  0  0  0  0
  187.5440  175.2760  134.9350 C   0  0  0  0  0  3  0  0  0  0  0  0
  186.6400  178.4100  141.4910 N   0  0  0  0  0  0  0  0  0  0  0  0
  188.0230  178.3770  139.5590 N   0  0  0  0  0  0  0  0  0  0  0  0
  184.4790  178.7850  138.4700 C   0  0  0  0  0  3  0  0  0  0  0  0
  188.6220  176.2410  135.1140 N   0  0  0  0  0  0  0  0  0  0  0  0
  185.4910  178.6190  140.6630 C   0  0  0  0  0  0  0  0  0  0  0  0
  184.2570  178.9330  141.2350 C   0  0  0  0  0  3  0  0  0  0  0  0
  189.3160  178.7830  139.0180 C   0  0  0  0  0  2  0  0  0  0  0  0
  188.4870  176.8110  136.2600 C   0  0  0  0  0  0  0  0  0  0  0  0
  189.3830  177.9230  136.6960 C   0  0  0  0  0  2  0  0  0  0  0  0
  188.9960  178.1270  141.9130 C   0  0  0  0  0  2  0  0  0  0  0  0
  188.6760  175.8260  142.3970 O   0  0  0  0  0  0  0  0  0  0  0  0
  188.7650  176.9930  142.8630 C   0  0  0  0  0  0  0  0  0  0  0  0
  188.3540  177.7360  147.0750 C   0  0  0  0  0  0  0  0  0  0  0  0
  187.3960  177.4760  144.8740 C   0  0  0  0  0  3  0  0  0  0  0  0
  191.4270  176.9160  144.6270 Cl  0  0  0  0  0  0  0  0  0  0  0  0
  188.1600  178.0410  148.7870 Cl  0  0  0  0  0  0  0  0  0  0  0  0
  187.2380  177.7200  146.2390 C   0  0  0  0  0  3  0  0  0  0  0  0
  189.7930  177.2540  145.1810 C   0  0  0  0  0  0  0  0  0  0  0  0
  188.6650  177.2420  144.3220 C   0  0  0  0  0  0  0  0  0  0  0  0
  189.6230  177.4990  146.5480 C   0  0  0  0  0  3  0  0  0  0  0  0
  1  6  1  0  0  0  0
  2  3  1  1  0  0  0
  2  5  1  0  0  0  0
  2 13  1  0  0  0  0
  5 16  2  0  0  0  0
  6 17  2  0  0  0  0
  7  4  1  1  0  0  0
  7  3  1  0  0  0  0
  8 12  2  0  0  0  0
  8 21  1  0  0  0  0
  9  1  1  0  0  0  0
 10 18  1  0  0  0  0
 11 15  1  0  0  0  0
 11  4  2  0  0  0  0
 13  8  1  0  0  0  0
 14  1  2  0  0  0  0
 14  5  1  0  0  0  0
 15 19  2  0  0  0  0
 16 17  1  0  0  0  0
 16 12  1  0  0  0  0
 18 13  1  0  0  0  0
 19 20  1  0  0  0  0
 19  7  1  0  0  0  0
 20 10  1  0  0  0  0
 21 23  1  0  0  0  0
 22 23  2  0  0  0  0
 23 30  1  0  0  0  0
 24 27  1  0  0  0  0
 25 28  1  0  0  0  0
 26 29  1  0  0  0  0
 28 24  2  0  0  0  0
 29 31  2  0  0  0  0
 30 25  2  0  0  0  0
 30 29  1  0  0  0  0
 31 24  1  0  0  0  0
M  END
>  <MODEL>
4

>  <REMARK>
 VINA RESULT:      -8.4      2.624      3.567
  Name = 
  3 active torsions:
  status: ('A' for Active; 'I' for Inactive)
    1  A    between atoms: C_9  and  C_22
    2  A    between atoms: C_9  and  C_23
    3  A    between atoms: C_15  and  C_23
                            x       y       z     vdW  Elec       q    Type
                         _______ _______ _______ _____ _____    ______ ____

>  <TORSDO>
F 3

$$$$
=
 OpenBabel10272400243D

 31 35  0  0  1  0  0  0  0  0999 V2000
  192.3870  176.5520  138.6900 C   0  0  0  0  0  0  0  0  0  0  0  0
  190.7680  177.3990  142.0130 C   0  0  1  0  0  3  0  0  0  0  0  0
  190.4540  176.0380  142.6210 C   0  0  0  0  0  2  0  0  0  0  0  0
  191.7380  174.5800  144.1570 C   0  0  0  0  0  3  0  0  0  0  0  0
  190.9990  177.2340  140.5390 C   0  0  0  0  0  0  0  0  0  0  0  0
  191.3520  176.7820  137.8370 N   0  0  0  0  0  0  0  0  0  0  0  0
  191.2570  175.7720  143.8530 C   0  0  0  0  0  0  0  0  0  0  0  0
  188.5340  178.3650  141.3410 C   0  0  0  0  0  0  0  0  0  0  0  0
  193.6310  176.0810  138.1880 N   0  0  0  0  0  1  0  0  0  0  0  0
  189.7340  178.4060  144.7230 C   0  0  0  0  0  2  0  0  0  0  0  0
  192.3610  174.6640  145.5160 C   0  0  0  0  0  2  0  0  0  0  0  0
  188.6940  177.9750  140.1120 N   0  0  0  0  0  0  0  0  0  0  0  0
  189.6400  178.3050  142.2660 N   0  0  0  0  0  0  0  0  0  0  0  0
  192.2260  176.7670  140.0620 C   0  0  0  0  0  3  0  0  0  0  0  0
  192.1280  176.0440  145.9240 N   0  0  0  0  0  0  0  0  0  0  0  0
  189.9470  177.4660  139.6410 C   0  0  0  0  0  0  0  0  0  0  0  0
  190.1460  177.2310  138.2800 C   0  0  0  0  0  3  0  0  0  0  0  0
  189.6760  179.1940  143.4230 C   0  0  0  0  0  2  0  0  0  0  0  0
  191.4860  176.6530  144.9890 C   0  0  0  0  0  0  0  0  0  0  0  0
  191.1830  178.1140  145.0660 C   0  0  0  0  0  2  0  0  0  0  0  0
  187.2150  178.9390  141.7510 C   0  0  0  0  0  2  0  0  0  0  0  0
  187.0970  176.9780  143.0840 O   0  0  0  0  0  0  0  0  0  0  0  0
  186.4900  178.0000  142.6640 C   0  0  0  0  0  0  0  0  0  0  0  0
  182.4130  178.8190  143.7480 C   0  0  0  0  0  0  0  0  0  0  0  0
  184.1000  178.3330  142.0900 C   0  0  0  0  0  3  0  0  0  0  0  0
  185.8560  178.4050  145.7690 Cl  0  0  0  0  0  0  0  0  0  0  0  0
  180.7470  179.1510  144.1640 Cl  0  0  0  0  0  0  0  0  0  0  0  0
  182.7700  178.5980  142.4180 C   0  0  0  0  0  3  0  0  0  0  0  0
  184.7210  178.5020  144.4300 C   0  0  0  0  0  0  0  0  0  0  0  0
  185.0940  178.2820  143.0800 C   0  0  0  0  0  0  0  0  0  0  0  0
  183.3850  178.7660  144.7480 C   0  0  0  0  0  3  0  0  0  0  0  0
  1 14  1  0  0  0  0
  2 13  1  0  0  0  0
  2  3  1  6  0  0  0
  3  7  1  0  0  0  0
  4 11  1  0  0  0  0
  5  2  1  0  0  0  0
  6 17  1  0  0  0  0
  6  1  2  0  0  0  0
  7  4  2  0  0  0  0
  7 19  1  0  0  0  0
  8 21  1  0  0  0  0
  8 13  1  0  0  0  0
  9  1  1  0  0  0  0
 10 20  1  0  0  0  0
 11 15  1  0  0  0  0
 12  8  2  0  0  0  0
 13 18  1  0  0  0  0
 14  5  2  0  0  0  0
 16 12  1  0  0  0  0
 16  5  1  0  0  0  0
 17 16  2  0  0  0  0
 18 10  1  0  0  0  0
 19 20  1  0  0  0  0
 19 15  2  0  0  0  0
 21 23  1  0  0  0  0
 23 30  1  0  0  0  0
 23 22  2  0  0  0  0
 24 27  1  0  0  0  0
 24 31  1  0  0  0  0
 25 28  1  0  0  0  0
 25 30  2  0  0  0  0
 28 24  2  0  0  0  0
 29 31  2  0  0  0  0
 29 26  1  0  0  0  0
 30 29  1  0  0  0  0
M  END
>  <MODEL>
5

>  <REMARK>
 VINA RESULT:      -8.1      2.985      5.727
  Name = 
  3 active torsions:
  status: ('A' for Active; 'I' for Inactive)
    1  A    between atoms: C_9  and  C_22
    2  A    between atoms: C_9  and  C_23
    3  A    between atoms: C_15  and  C_23
                            x       y       z     vdW  Elec       q    Type
                         _______ _______ _______ _____ _____    ______ ____

>  <TORSDO>
F 3

$$$$
=
 OpenBabel10272400243D

 31 35  0  0  1  0  0  0  0  0999 V2000
  191.1980  177.5680  141.4300 C   0  0  0  0  0  0  0  0  0  0  0  0
  189.7660  177.6140  144.9400 C   0  0  1  0  0  3  0  0  0  0  0  0
  190.1120  176.2360  145.4910 C   0  0  0  0  0  2  0  0  0  0  0  0
  192.0480  175.4200  146.8020 C   0  0  0  0  0  3  0  0  0  0  0  0
  189.8740  177.5830  143.4440 C   0  0  0  0  0  0  0  0  0  0  0  0
  190.0700  177.3610  140.6980 N   0  0  0  0  0  0  0  0  0  0  0  0
  191.0890  176.3090  146.6200 C   0  0  0  0  0  0  0  0  0  0  0  0
  187.2720  177.5750  144.5510 C   0  0  0  0  0  0  0  0  0  0  0  0
  192.4590  177.6640  140.7810 N   0  0  0  0  0  1  0  0  0  0  0  0
  188.7280  178.0590  147.7950 C   0  0  0  0  0  2  0  0  0  0  0  0
  192.7320  175.7340  148.0960 C   0  0  0  0  0  2  0  0  0  0  0  0
  187.4360  177.3060  143.2900 N   0  0  0  0  0  0  0  0  0  0  0  0
  188.4030  177.9660  145.3580 N   0  0  0  0  0  0  0  0  0  0  0  0
  191.1210  177.6760  142.8210 C   0  0  0  0  0  3  0  0  0  0  0  0
  192.0010  176.8860  148.6090 N   0  0  0  0  0  0  0  0  0  0  0  0
  188.7250  177.3710  142.6690 C   0  0  0  0  0  0  0  0  0  0  0  0
  188.8460  177.2620  141.2830 C   0  0  0  0  0  3  0  0  0  0  0  0
  188.2020  178.7710  146.5590 C   0  0  0  0  0  2  0  0  0  0  0  0
  191.0630  177.1880  147.7800 C   0  0  0  0  0  0  0  0  0  0  0  0
  190.1980  178.3890  147.9760 C   0  0  0  0  0  2  0  0  0  0  0  0
  185.8900  177.5440  145.1230 C   0  0  0  0  0  2  0  0  0  0  0  0
  185.5850  179.8900  145.3120 O   0  0  0  0  0  0  0  0  0  0  0  0
  185.1600  178.8130  144.8140 C   0  0  0  0  0  0  0  0  0  0  0  0
  181.6530  178.7690  142.3310 C   0  0  0  0  0  0  0  0  0  0  0  0
  182.6990  178.7880  144.5080 C   0  0  0  0  0  3  0  0  0  0  0  0
  185.6070  178.8820  141.6520 Cl  0  0  0  0  0  0  0  0  0  0  0  0
  180.2100  178.7500  141.3420 Cl  0  0  0  0  0  0  0  0  0  0  0  0
  181.5460  178.7720  143.7220 C   0  0  0  0  0  3  0  0  0  0  0  0
  184.0730  178.8040  142.5080 C   0  0  0  0  0  0  0  0  0  0  0  0
  183.9750  178.8020  143.9220 C   0  0  0  0  0  0  0  0  0  0  0  0
  182.9110  178.7890  141.7290 C   0  0  0  0  0  3  0  0  0  0  0  0
  1 14  1  0  0  0  0
  2 13  1  0  0  0  0
  2  3  1  1  0  0  0
  3  7  1  0  0  0  0
  4 11  1  0  0  0  0
  5  2  1  0  0  0  0
  6 17  1  0  0  0  0
  6  1  2  0  0  0  0
  7  4  2  0  0  0  0
  7 19  1  0  0  0  0
  8 21  1  0  0  0  0
  8 13  1  0  0  0  0
  9  1  1  0  0  0  0
 10 20  1  0  0  0  0
 11 15  1  0  0  0  0
 12  8  2  0  0  0  0
 13 18  1  0  0  0  0
 14  5  2  0  0  0  0
 16 12  1  0  0  0  0
 16  5  1  0  0  0  0
 17 16  2  0  0  0  0
 18 10  1  0  0  0  0
 19 20  1  0  0  0  0
 19 15  2  0  0  0  0
 23 21  1  0  0  0  0
 23 22  2  0  0  0  0
 24 28  1  0  0  0  0
 26 29  1  0  0  0  0
 27 24  1  0  0  0  0
 28 25  2  0  0  0  0
 29 30  2  0  0  0  0
 30 25  1  0  0  0  0
 30 23  1  0  0  0  0
 31 24  2  0  0  0  0
 31 29  1  0  0  0  0
M  END
>  <MODEL>
6

>  <REMARK>
 VINA RESULT:      -8.1      4.061      7.666
  Name = 
  3 active torsions:
  status: ('A' for Active; 'I' for Inactive)
    1  A    between atoms: C_9  and  C_22
    2  A    between atoms: C_9  and  C_23
    3  A    between atoms: C_15  and  C_23
                            x       y       z     vdW  Elec       q    Type
                         _______ _______ _______ _____ _____    ______ ____

>  <TORSDO>
F 3

$$$$
=
 OpenBabel10272400243D

 31 35  0  0  1  0  0  0  0  0999 V2000
  184.7450  178.4140  143.7460 C   0  0  0  0  0  0  0  0  0  0  0  0
  188.3030  177.4920  142.8160 C   0  0  1  0  0  3  0  0  0  0  0  0
  189.1540  178.4430  143.6480 C   0  0  0  0  0  2  0  0  0  0  0  0
  190.1820  178.2090  145.8890 C   0  0  0  0  0  3  0  0  0  0  0  0
  186.9020  178.0250  142.7440 C   0  0  0  0  0  0  0  0  0  0  0  0
  184.3820  179.1530  142.6630 N   0  0  0  0  0  0  0  0  0  0  0  0
  189.9590  177.7230  144.6810 C   0  0  0  0  0  0  0  0  0  0  0  0
  188.5120  178.3100  140.4370 C   0  0  0  0  0  0  0  0  0  0  0  0
  183.8320  178.2340  144.8220 N   0  0  0  0  0  1  0  0  0  0  0  0
  191.0450  176.3430  142.0480 C   0  0  0  0  0  2  0  0  0  0  0  0
  191.1330  177.2880  146.5900 C   0  0  0  0  0  2  0  0  0  0  0  0
  187.3890  178.9580  140.5230 N   0  0  0  0  0  0  0  0  0  0  0  0
  188.8880  177.3790  141.4740 N   0  0  0  0  0  0  0  0  0  0  0  0
  186.0180  177.8420  143.8100 C   0  0  0  0  0  3  0  0  0  0  0  0
  191.4220  176.2600  145.5980 N   0  0  0  0  0  0  0  0  0  0  0  0
  186.5060  178.7880  141.6370 C   0  0  0  0  0  0  0  0  0  0  0  0
  185.2280  179.3500  141.6160 C   0  0  0  0  0  3  0  0  0  0  0  0
  189.8010  176.2800  141.1750 C   0  0  0  0  0  2  0  0  0  0  0  0
  190.7730  176.5270  144.5190 C   0  0  0  0  0  0  0  0  0  0  0  0
  190.7830  175.6020  143.3460 C   0  0  0  0  0  2  0  0  0  0  0  0
  189.3610  178.4910  139.2190 C   0  0  0  0  0  2  0  0  0  0  0  0
  188.3270  179.4350  137.3020 O   0  0  0  0  0  0  0  0  0  0  0  0
  188.5320  178.3910  137.9760 C   0  0  0  0  0  0  0  0  0  0  0  0
  187.0630  174.5600  136.6980 C   0  0  0  0  0  0  0  0  0  0  0  0
  188.8840  176.0400  137.2670 C   0  0  0  0  0  3  0  0  0  0  0  0
  185.3640  178.0380  137.7570 Cl  0  0  0  0  0  0  0  0  0  0  0  0
  186.4900  172.9910  136.1760 Cl  0  0  0  0  0  0  0  0  0  0  0  0
  188.4310  174.7880  136.8500 C   0  0  0  0  0  3  0  0  0  0  0  0
  186.5960  176.8390  137.3880 C   0  0  0  0  0  0  0  0  0  0  0  0
  187.9840  177.0820  137.5400 C   0  0  0  0  0  0  0  0  0  0  0  0
  186.1520  175.5800  136.9710 C   0  0  0  0  0  3  0  0  0  0  0  0
  1 14  1  0  0  0  0
  1  9  1  0  0  0  0
  2  3  1  1  0  0  0
  3  7  1  0  0  0  0
  4 11  1  0  0  0  0
  5  2  1  0  0  0  0
  5 14  2  0  0  0  0
  6  1  2  0  0  0  0
  7  4  2  0  0  0  0
  8 12  2  0  0  0  0
  8 13  1  0  0  0  0
 10 20  1  0  0  0  0
 12 16  1  0  0  0  0
 13  2  1  0  0  0  0
 15 11  1  0  0  0  0
 16  5  1  0  0  0  0
 17 16  2  0  0  0  0
 17  6  1  0  0  0  0
 18 13  1  0  0  0  0
 18 10  1  0  0  0  0
 19  7  1  0  0  0  0
 19 15  2  0  0  0  0
 20 19  1  0  0  0  0
 21  8  1  0  0  0  0
 22 23  2  0  0  0  0
 23 21  1  0  0  0  0
 24 28  2  0  0  0  0
 24 31  1  0  0  0  0
 25 30  2  0  0  0  0
 27 24  1  0  0  0  0
 28 25  1  0  0  0  0
 29 30  1  0  0  0  0
 29 26  1  0  0  0  0
 30 23  1  0  0  0  0
 31 29  2  0  0  0  0
M  END
>  <MODEL>
7

>  <REMARK>
 VINA RESULT:      -8.0      3.992      7.410
  Name = 
  3 active torsions:
  status: ('A' for Active; 'I' for Inactive)
    1  A    between atoms: C_9  and  C_22
    2  A    between atoms: C_9  and  C_23
    3  A    between atoms: C_15  and  C_23
                            x       y       z     vdW  Elec       q    Type
                         _______ _______ _______ _____ _____    ______ ____

>  <TORSDO>
F 3

$$$$
=
 OpenBabel10272400243D

 31 35  0  0  1  0  0  0  0  0999 V2000
  182.5540  178.5150  141.2660 C   0  0  0  0  0  0  0  0  0  0  0  0
  185.9700  177.9740  142.8220 C   0  0  1  0  0  3  0  0  0  0  0  0
  186.1320  179.1600  143.7630 C   0  0  0  0  0  2  0  0  0  0  0  0
  185.6070  179.4450  146.1670 C   0  0  0  0  0  3  0  0  0  0  0  0
  184.8860  178.2810  141.8300 C   0  0  0  0  0  0  0  0  0  0  0  0
  182.9060  179.0070  140.0470 N   0  0  0  0  0  0  0  0  0  0  0  0
  186.1640  178.7420  145.1980 C   0  0  0  0  0  0  0  0  0  0  0  0
  187.5560  178.4130  140.9070 C   0  0  0  0  0  0  0  0  0  0  0  0
  181.1820  178.3840  141.6110 N   0  0  0  0  0  1  0  0  0  0  0  0
  188.6400  177.1200  144.0750 C   0  0  0  0  0  2  0  0  0  0  0  0
  185.9580  178.7980  147.4710 C   0  0  0  0  0  2  0  0  0  0  0  0
  186.5980  178.8990  140.1770 N   0  0  0  0  0  0  0  0  0  0  0  0
  187.2470  177.7280  142.1390 N   0  0  0  0  0  0  0  0  0  0  0  0
  183.5420  178.1500  142.1860 C   0  0  0  0  0  3  0  0  0  0  0  0
  186.8040  177.6740  147.0880 N   0  0  0  0  0  0  0  0  0  0  0  0
  185.2250  178.7890  140.5670 C   0  0  0  0  0  0  0  0  0  0  0  0
  184.2080  179.1500  139.6810 C   0  0  0  0  0  3  0  0  0  0  0  0
  188.1740  176.7380  142.6790 C   0  0  0  0  0  2  0  0  0  0  0  0
  186.9310  177.6650  145.8060 C   0  0  0  0  0  0  0  0  0  0  0  0
  187.6610  176.5720  145.0970 C   0  0  0  0  0  2  0  0  0  0  0  0
  188.9640  178.5140  140.4130 C   0  0  0  0  0  2  0  0  0  0  0  0
  188.9820  179.5370  138.2710 O   0  0  0  0  0  0  0  0  0  0  0  0
  189.0060  178.4550  138.9170 C   0  0  0  0  0  0  0  0  0  0  0  0
  189.3840  174.6650  136.9280 C   0  0  0  0  0  0  0  0  0  0  0  0
  190.2710  176.3970  138.3580 C   0  0  0  0  0  3  0  0  0  0  0  0
  186.5040  177.4470  137.2060 Cl  0  0  0  0  0  0  0  0  0  0  0  0
  189.5620  173.1190  136.1280 Cl  0  0  0  0  0  0  0  0  0  0  0  0
  190.4170  175.1640  137.7210 C   0  0  0  0  0  3  0  0  0  0  0  0
  188.0480  176.6330  137.4140 C   0  0  0  0  0  0  0  0  0  0  0  0
  189.0950  177.1510  138.2170 C   0  0  0  0  0  0  0  0  0  0  0  0
  188.2040  175.3960  136.7810 C   0  0  0  0  0  3  0  0  0  0  0  0
  1  9  1  0  0  0  0
  1 14  1  0  0  0  0
  2  3  1  1  0  0  0
  3  7  1  0  0  0  0
  4 11  1  0  0  0  0
  5 14  2  0  0  0  0
  5  2  1  0  0  0  0
  6  1  2  0  0  0  0
  7 19  1  0  0  0  0
  7  4  2  0  0  0  0
  8 13  1  0  0  0  0
 10 20  1  0  0  0  0
 12 16  1  0  0  0  0
 12  8  2  0  0  0  0
 13 18  1  0  0  0  0
 13  2  1  0  0  0  0
 15 11  1  0  0  0  0
 16  5  1  0  0  0  0
 17  6  1  0  0  0  0
 17 16  2  0  0  0  0
 18 10  1  0  0  0  0
 19 15  2  0  0  0  0
 20 19  1  0  0  0  0
 21  8  1  0  0  0  0
 22 23  2  0  0  0  0
 23 21  1  0  0  0  0
 24 28  1  0  0  0  0
 26 29  1  0  0  0  0
 27 24  1  0  0  0  0
 28 25  2  0  0  0  0
 29 30  2  0  0  0  0
 30 25  1  0  0  0  0
 30 23  1  0  0  0  0
 31 24  2  0  0  0  0
 31 29  1  0  0  0  0
M  END
>  <MODEL>
8

>  <REMARK>
 VINA RESULT:      -8.0      4.030      8.174
  Name = 
  3 active torsions:
  status: ('A' for Active; 'I' for Inactive)
    1  A    between atoms: C_9  and  C_22
    2  A    between atoms: C_9  and  C_23
    3  A    between atoms: C_15  and  C_23
                            x       y       z     vdW  Elec       q    Type
                         _______ _______ _______ _____ _____    ______ ____

>  <TORSDO>
F 3

$$$$
=
 OpenBabel10272400243D

 31 35  0  0  1  0  0  0  0  0999 V2000
  191.1660  177.0570  145.8410 C   0  0  0  0  0  0  0  0  0  0  0  0
  188.2490  177.9770  143.5990 C   0  0  1  0  0  3  0  0  0  0  0  0
  187.1230  177.0710  144.0800 C   0  0  0  0  0  2  0  0  0  0  0  0
  185.3290  177.4110  145.7530 C   0  0  0  0  0  3  0  0  0  0  0  0
  189.5590  177.4270  144.0820 C   0  0  0  0  0  0  0  0  0  0  0  0
  191.8920  176.2690  145.0020 N   0  0  0  0  0  0  0  0  0  0  0  0
  186.0050  177.8430  144.7040 C   0  0  0  0  0  0  0  0  0  0  0  0
  188.9350  177.0610  141.3490 C   0  0  0  0  0  0  0  0  0  0  0  0
  191.6080  177.2730  147.1740 N   0  0  0  0  0  1  0  0  0  0  0  0
  186.0330  179.1210  141.8080 C   0  0  0  0  0  2  0  0  0  0  0  0
  184.2080  178.3710  146.0090 C   0  0  0  0  0  2  0  0  0  0  0  0
  189.9240  176.4050  141.8770 N   0  0  0  0  0  0  0  0  0  0  0  0
  188.2190  178.0390  142.1320 N   0  0  0  0  0  0  0  0  0  0  0  0
  189.9780  177.6450  145.3970 C   0  0  0  0  0  3  0  0  0  0  0  0
  184.3430  179.3590  144.9460 N   0  0  0  0  0  0  0  0  0  0  0  0
  190.3240  176.6120  143.2350 C   0  0  0  0  0  0  0  0  0  0  0  0
  191.5000  176.0370  143.7200 C   0  0  0  0  0  3  0  0  0  0  0  0
  187.5150  179.1340  141.4710 C   0  0  0  0  0  2  0  0  0  0  0  0
  185.3450  179.0390  144.2030 C   0  0  0  0  0  0  0  0  0  0  0  0
  185.8030  179.9140  143.0820 C   0  0  0  0  0  2  0  0  0  0  0  0
  188.6060  176.8370  139.9070 C   0  0  0  0  0  2  0  0  0  0  0  0
  189.3570  178.8540  138.9060 O   0  0  0  0  0  0  0  0  0  0  0  0
  189.5350  177.6120  139.0250 C   0  0  0  0  0  0  0  0  0  0  0  0
  192.6900  175.6010  136.9110 C   0  0  0  0  0  0  0  0  0  0  0  0
  190.3900  176.3130  137.0930 C   0  0  0  0  0  3  0  0  0  0  0  0
  192.4430  177.6630  140.3460 Cl  0  0  0  0  0  0  0  0  0  0  0  0
  193.9570  174.7760  136.0320 Cl  0  0  0  0  0  0  0  0  0  0  0  0
  191.3980  175.6530  136.3890 C   0  0  0  0  0  3  0  0  0  0  0  0
  191.9690  176.8780  138.8460 C   0  0  0  0  0  0  0  0  0  0  0  0
  190.6520  176.9310  138.3260 C   0  0  0  0  0  0  0  0  0  0  0  0
  192.9730  176.2150  138.1320 C   0  0  0  0  0  3  0  0  0  0  0  0
  1  9  1  0  0  0  0
  2  3  1  6  0  0  0
  2  5  1  0  0  0  0
  3  7  1  0  0  0  0
  4 11  1  0  0  0  0
  5 14  2  0  0  0  0
  6  1  2  0  0  0  0
  7  4  2  0  0  0  0
  8 12  2  0  0  0  0
  8 13  1  0  0  0  0
 10 20  1  0  0  0  0
 12 16  1  0  0  0  0
 13  2  1  0  0  0  0
 14  1  1  0  0  0  0
 15 11  1  0  0  0  0
 16 17  2  0  0  0  0
 16  5  1  0  0  0  0
 17  6  1  0  0  0  0
 18 10  1  0  0  0  0
 18 13  1  0  0  0  0
 19  7  1  0  0  0  0
 19 15  2  0  0  0  0
 20 19  1  0  0  0  0
 21  8  1  0  0  0  0
 22 23  2  0  0  0  0
 23 21  1  0  0  0  0
 24 31  1  0  0  0  0
 25 30  2  0  0  0  0
 27 24  1  0  0  0  0
 28 24  2  0  0  0  0
 28 25  1  0  0  0  0
 29 26  1  0  0  0  0
 30 29  1  0  0  0  0
 30 23  1  0  0  0  0
 31 29  2  0  0  0  0
M  END
>  <MODEL>
9

>  <REMARK>
 VINA RESULT:      -7.5      3.417      8.546
  Name = 
  3 active torsions:
  status: ('A' for Active; 'I' for Inactive)
    1  A    between atoms: C_9  and  C_22
    2  A    between atoms: C_9  and  C_23
    3  A    between atoms: C_15  and  C_23
                            x       y       z     vdW  Elec       q    Type
                         _______ _______ _______ _____ _____    ______ ____

>  <TORSDO>
F 3

$$$$
