=
 OpenBabel10272401493D

 28 31  0  0  1  0  0  0  0  0999 V2000
  189.2700  178.0660  145.2750 C   0  0  2  0  0  3  0  0  0  0  0  0
  187.8150  177.7780  149.3220 C   0  0  0  0  0  1  0  0  0  0  0  0
  185.5060  178.5650  144.8320 C   0  0  0  0  0  0  0  0  0  0  0  0
  187.2940  177.7440  146.8620 C   0  0  0  0  0  0  0  0  0  0  0  0
  186.8850  178.5070  144.5910 C   0  0  0  0  0  3  0  0  0  0  0  0
  189.6750  177.6580  147.7020 C   0  0  0  0  0  2  0  0  0  0  0  0
  185.9110  177.7600  147.0900 C   0  0  0  0  0  3  0  0  0  0  0  0
  188.2250  177.2560  147.9540 C   0  0  1  0  0  3  0  0  0  0  0  0
  185.0280  178.1670  146.0890 C   0  0  0  0  0  3  0  0  0  0  0  0
  190.0830  177.2660  146.2930 C   0  0  0  0  0  2  0  0  0  0  0  0
  187.7840  178.0720  145.5750 C   0  0  0  0  0  0  0  0  0  0  0  0
  183.2790  179.1930  144.0820 C   0  0  0  0  0  3  0  0  0  0  0  0
  184.4170  177.9500  141.4860 C   0  0  0  0  0  2  0  0  0  0  0  0
  181.9900  178.3070  142.1510 C   0  0  2  0  0  3  0  0  0  0  0  0
  184.5640  178.9870  143.7610 C   0  0  0  0  0  0  0  0  0  0  0  0
  186.3630  179.1900  142.1460 O   0  0  0  0  0  1  0  0  0  0  0  0
  183.0070  178.2860  141.0100 C   0  0  0  0  0  2  0  0  0  0  0  0
  184.9800  179.1000  142.3080 C   0  0  1  0  0  3  0  0  0  0  0  0
  180.5990  178.3940  141.5640 C   0  0  0  0  0  1  0  0  0  0  0  0
  182.2150  179.5020  143.0730 C   0  0  0  0  0  2  0  0  0  0  0  0
  189.5850  177.6120  143.8730 C   0  0  0  0  0  0  0  0  0  0  0  0
  188.8040  176.7140  143.2600 C   0  0  0  0  0  3  0  0  0  0  0  0
  191.1260  177.6920  141.7890 C   0  0  1  0  0  3  0  0  0  0  0  0
  189.0660  176.2880  141.8760 C   0  0  0  0  0  3  0  0  0  0  0  0
  191.4030  179.1260  143.6770 O   0  0  0  0  0  0  0  0  0  0  0  0
  190.7310  178.2000  143.1490 C   0  0  0  0  0  0  0  0  0  0  0  0
  192.3540  177.0630  141.8670 F   0  0  0  0  0  0  0  0  0  0  0  0
  190.1190  176.7440  141.1940 C   0  0  0  0  0  3  0  0  0  0  0  0
  1 21  1  6  0  0  0
  1 11  1  0  0  0  0
  1 10  1  0  0  0  0
  3  9  1  0  0  0  0
  4  7  1  0  0  0  0
  4  8  1  0  0  0  0
  5  3  2  0  0  0  0
  5 11  1  0  0  0  0
  6  8  1  0  0  0  0
  8  2  1  1  0  0  0
  9  7  2  0  0  0  0
 10  6  1  0  0  0  0
 11  4  2  0  0  0  0
 13 18  1  0  0  0  0
 14 19  1  6  0  0  0
 14 20  1  0  0  0  0
 15 12  2  0  0  0  0
 15  3  1  0  0  0  0
 17 13  1  0  0  0  0
 17 14  1  0  0  0  0
 18 16  1  1  0  0  0
 18 15  1  0  0  0  0
 20 12  1  0  0  0  0
 22 21  2  0  0  0  0
 23 27  1  1  0  0  0
 23 26  1  0  0  0  0
 24 22  1  0  0  0  0
 26 25  2  0  0  0  0
 26 21  1  0  0  0  0
 28 23  1  0  0  0  0
 28 24  2  0  0  0  0
M  END
>  <MODEL>
1

>  <REMARK>
 VINA RESULT:     -10.0      0.000      0.000
  Name = 
  2 active torsions:
  status: ('A' for Active; 'I' for Inactive)
    1  A    between atoms: C_1  and  C_2
    2  A    between atoms: C_10  and  C_13
                            x       y       z     vdW  Elec       q    Type
                         _______ _______ _______ _____ _____    ______ ____

>  <TORSDO>
F 2

$$$$
=
 OpenBabel10272401493D

 28 31  0  0  1  0  0  0  0  0999 V2000
  188.6580  176.7680  144.4480 C   0  0  2  0  0  3  0  0  0  0  0  0
  190.5810  176.6810  140.5910 C   0  0  0  0  0  1  0  0  0  0  0  0
  186.1060  178.5330  142.2160 C   0  0  0  0  0  0  0  0  0  0  0  0
  188.7900  177.6620  142.0580 C   0  0  0  0  0  0  0  0  0  0  0  0
  186.7170  177.8980  143.3040 C   0  0  0  0  0  3  0  0  0  0  0  0
  190.6220  176.2100  143.0140 C   0  0  0  0  0  2  0  0  0  0  0  0
  188.1920  178.3370  140.9840 C   0  0  0  0  0  3  0  0  0  0  0  0
  190.2450  177.2470  141.9620 C   0  0  1  0  0  3  0  0  0  0  0  0
  186.8660  178.7660  141.0610 C   0  0  0  0  0  3  0  0  0  0  0  0
  190.1840  176.6850  144.3890 C   0  0  0  0  0  2  0  0  0  0  0  0
  188.0570  177.4870  143.2560 C   0  0  0  0  0  0  0  0  0  0  0  0
  184.1180  179.0750  143.5100 C   0  0  0  0  0  3  0  0  0  0  0  0
  182.8280  178.2130  140.8320 C   0  0  0  0  0  2  0  0  0  0  0  0
  181.7810  178.3160  143.1450 C   0  0  2  0  0  3  0  0  0  0  0  0
  184.6960  179.0010  142.3020 C   0  0  0  0  0  0  0  0  0  0  0  0
  184.6340  179.5110  139.9310 O   0  0  0  0  0  1  0  0  0  0  0  0
  181.5670  178.4950  141.6430 C   0  0  0  0  0  2  0  0  0  0  0  0
  183.8610  179.3030  141.0740 C   0  0  1  0  0  3  0  0  0  0  0  0
  180.4370  178.3650  143.8390 C   0  0  0  0  0  1  0  0  0  0  0  0
  182.6730  179.4150  143.7140 C   0  0  0  0  0  2  0  0  0  0  0  0
  188.2110  177.3410  145.7670 C   0  0  0  0  0  0  0  0  0  0  0  0
  187.0620  178.0220  145.8560 C   0  0  0  0  0  3  0  0  0  0  0  0
  188.6460  177.7500  148.2910 C   0  0  1  0  0  3  0  0  0  0  0  0
  186.5820  178.5540  147.1420 C   0  0  0  0  0  3  0  0  0  0  0  0
  190.0410  176.3720  146.9280 O   0  0  0  0  0  0  0  0  0  0  0  0
  189.0170  177.1060  146.9820 C   0  0  0  0  0  0  0  0  0  0  0  0
  189.6080  178.6790  148.6390 F   0  0  0  0  0  0  0  0  0  0  0  0
  187.2970  178.4190  148.2610 C   0  0  0  0  0  3  0  0  0  0  0  0
  1 21  1  1  0  0  0
  3 15  1  0  0  0  0
  3  5  1  0  0  0  0
  4 11  1  0  0  0  0
  6 10  1  0  0  0  0
  7  9  1  0  0  0  0
  7  4  2  0  0  0  0
  8  2  1  6  0  0  0
  8  4  1  0  0  0  0
  8  6  1  0  0  0  0
  9  3  2  0  0  0  0
 10  1  1  0  0  0  0
 11  5  2  0  0  0  0
 11  1  1  0  0  0  0
 12 20  1  0  0  0  0
 13 18  1  0  0  0  0
 13 17  1  0  0  0  0
 14 20  1  0  0  0  0
 14 19  1  1  0  0  0
 15 12  2  0  0  0  0
 17 14  1  0  0  0  0
 18 16  1  6  0  0  0
 18 15  1  0  0  0  0
 21 22  2  0  0  0  0
 21 26  1  0  0  0  0
 22 24  1  0  0  0  0
 23 27  1  6  0  0  0
 24 28  2  0  0  0  0
 25 26  2  0  0  0  0
 26 23  1  0  0  0  0
 28 23  1  0  0  0  0
M  END
>  <MODEL>
2

>  <REMARK>
 VINA RESULT:      -9.9      2.114      4.454
  Name = 
  2 active torsions:
  status: ('A' for Active; 'I' for Inactive)
    1  A    between atoms: C_1  and  C_2
    2  A    between atoms: C_10  and  C_13
                            x       y       z     vdW  Elec       q    Type
                         _______ _______ _______ _____ _____    ______ ____

>  <TORSDO>
F 2

$$$$
=
 OpenBabel10272401493D

 28 31  0  0  1  0  0  0  0  0999 V2000
  187.1040  177.2480  145.0440 C   0  0  2  0  0  3  0  0  0  0  0  0
  190.8270  177.0110  147.2030 C   0  0  0  0  0  1  0  0  0  0  0  0
  189.6910  177.8250  142.2900 C   0  0  0  0  0  0  0  0  0  0  0  0
  189.6160  177.7080  145.1130 C   0  0  0  0  0  0  0  0  0  0  0  0
  188.4870  177.5840  142.9640 C   0  0  0  0  0  3  0  0  0  0  0  0
  188.3580  177.0050  147.1870 C   0  0  0  0  0  2  0  0  0  0  0  0
  190.8130  177.9930  144.4390 C   0  0  0  0  0  3  0  0  0  0  0  0
  189.5970  177.6960  146.6280 C   0  0  1  0  0  3  0  0  0  0  0  0
  190.8510  178.0490  143.0450 C   0  0  0  0  0  3  0  0  0  0  0  0
  187.1100  177.5770  146.5370 C   0  0  0  0  0  2  0  0  0  0  0  0
  188.4250  177.5530  144.3650 C   0  0  0  0  0  0  0  0  0  0  0  0
  188.6100  178.2430  140.1500 C   0  0  0  0  0  3  0  0  0  0  0  0
  190.7420  176.1630  139.3070 C   0  0  0  0  0  2  0  0  0  0  0  0
  188.5870  176.8070  138.1220 C   0  0  2  0  0  3  0  0  0  0  0  0
  189.7280  177.8970  140.8040 C   0  0  0  0  0  0  0  0  0  0  0  0
  192.1190  177.4830  140.7630 O   0  0  0  0  0  1  0  0  0  0  0  0
  190.0430  176.3700  137.9660 C   0  0  0  0  0  2  0  0  0  0  0  0
  190.9510  177.5010  140.0000 C   0  0  1  0  0  3  0  0  0  0  0  0
  187.9090  176.7410  136.7710 C   0  0  0  0  0  1  0  0  0  0  0  0
  188.4900  178.2340  138.6560 C   0  0  0  0  0  2  0  0  0  0  0  0
  185.9290  177.9010  144.3640 C   0  0  0  0  0  0  0  0  0  0  0  0
  185.6190  177.5910  143.0990 C   0  0  0  0  0  3  0  0  0  0  0  0
  183.9600  179.5890  144.4300 C   0  0  1  0  0  3  0  0  0  0  0  0
  184.4500  178.1820  142.4280 C   0  0  0  0  0  3  0  0  0  0  0  0
  185.2960  179.0600  146.3370 O   0  0  0  0  0  0  0  0  0  0  0  0
  185.0790  178.8480  145.1140 C   0  0  0  0  0  0  0  0  0  0  0  0
  184.2620  180.9360  144.3760 F   0  0  0  0  0  0  0  0  0  0  0  0
  183.6800  179.0860  143.0390 C   0  0  0  0  0  3  0  0  0  0  0  0
  1 21  1  6  0  0  0
  1 10  1  0  0  0  0
  3  5  2  0  0  0  0
  3  9  1  0  0  0  0
  4  8  1  0  0  0  0
  5 11  1  0  0  0  0
  7  4  1  0  0  0  0
  8  6  1  0  0  0  0
  8  2  1  6  0  0  0
  9  7  2  0  0  0  0
 10  6  1  0  0  0  0
 11  1  1  0  0  0  0
 11  4  2  0  0  0  0
 12 15  2  0  0  0  0
 13 18  1  0  0  0  0
 14 19  1  6  0  0  0
 14 20  1  0  0  0  0
 15  3  1  0  0  0  0
 17 14  1  0  0  0  0
 17 13  1  0  0  0  0
 18 16  1  1  0  0  0
 18 15  1  0  0  0  0
 20 12  1  0  0  0  0
 21 26  1  0  0  0  0
 22 21  2  0  0  0  0
 23 27  1  6  0  0  0
 23 26  1  0  0  0  0
 24 28  2  0  0  0  0
 24 22  1  0  0  0  0
 26 25  2  0  0  0  0
 28 23  1  0  0  0  0
M  END
>  <MODEL>
3

>  <REMARK>
 VINA RESULT:      -9.5      2.724      5.839
  Name = 
  2 active torsions:
  status: ('A' for Active; 'I' for Inactive)
    1  A    between atoms: C_1  and  C_2
    2  A    between atoms: C_10  and  C_13
                            x       y       z     vdW  Elec       q    Type
                         _______ _______ _______ _____ _____    ______ ____

>  <TORSDO>
F 2

$$$$
=
 OpenBabel10272401493D

 28 31  0  0  1  0  0  0  0  0999 V2000
  187.6890  178.2490  144.2090 C   0  0  2  0  0  3  0  0  0  0  0  0
  183.5180  179.1370  144.8420 C   0  0  0  0  0  1  0  0  0  0  0  0
  186.3120  178.3180  140.6440 C   0  0  0  0  0  0  0  0  0  0  0  0
  185.3070  178.3000  143.2860 C   0  0  0  0  0  0  0  0  0  0  0  0
  187.1830  178.2850  141.7410 C   0  0  0  0  0  3  0  0  0  0  0  0
  185.7640  178.6490  145.7450 C   0  0  0  0  0  2  0  0  0  0  0  0
  184.4350  178.2890  142.1870 C   0  0  0  0  0  3  0  0  0  0  0  0
  184.7400  178.2440  144.6900 C   0  0  1  0  0  3  0  0  0  0  0  0
  184.9310  178.3000  140.8830 C   0  0  0  0  0  3  0  0  0  0  0  0
  187.0500  177.8660  145.5450 C   0  0  0  0  0  2  0  0  0  0  0  0
  186.7030  178.2440  143.0570 C   0  0  0  0  0  0  0  0  0  0  0  0
  185.9690  178.2870  138.2350 C   0  0  0  0  0  3  0  0  0  0  0  0
  188.7170  176.8760  138.4300 C   0  0  0  0  0  2  0  0  0  0  0  0
  187.0160  176.8000  136.5430 C   0  0  2  0  0  3  0  0  0  0  0  0
  186.8410  178.3180  139.2530 C   0  0  0  0  0  0  0  0  0  0  0  0
  189.1190  178.6170  140.0330 O   0  0  0  0  0  1  0  0  0  0  0  0
  188.4960  176.7970  136.9220 C   0  0  0  0  0  2  0  0  0  0  0  0
  188.3240  178.2520  138.9460 C   0  0  1  0  0  3  0  0  0  0  0  0
  186.8880  176.4660  135.0730 C   0  0  0  0  0  1  0  0  0  0  0  0
  186.3790  178.1630  136.7990 C   0  0  0  0  0  2  0  0  0  0  0  0
  188.9070  177.4030  143.9450 C   0  0  0  0  0  0  0  0  0  0  0  0
  188.7890  176.2150  143.3390 C   0  0  0  0  0  3  0  0  0  0  0  0
  191.4680  177.0440  144.1450 C   0  0  1  0  0  3  0  0  0  0  0  0
  189.9680  175.3900  143.0300 C   0  0  0  0  0  3  0  0  0  0  0  0
  190.3770  179.0730  144.7740 O   0  0  0  0  0  0  0  0  0  0  0  0
  190.2460  177.9090  144.3060 C   0  0  0  0  0  0  0  0  0  0  0  0
  191.9820  176.7310  145.3880 F   0  0  0  0  0  0  0  0  0  0  0  0
  191.1970  175.7730  143.3840 C   0  0  0  0  0  3  0  0  0  0  0  0
  1 21  1  6  0  0  0
  1 10  1  0  0  0  0
  3  9  2  0  0  0  0
  3  5  1  0  0  0  0
  4  8  1  0  0  0  0
  5 11  2  0  0  0  0
  7  4  2  0  0  0  0
  8  2  1  6  0  0  0
  8  6  1  0  0  0  0
  9  7  1  0  0  0  0
 10  6  1  0  0  0  0
 11  4  1  0  0  0  0
 11  1  1  0  0  0  0
 12 15  2  0  0  0  0
 13 18  1  0  0  0  0
 14 19  1  6  0  0  0
 14 20  1  0  0  0  0
 14 17  1  0  0  0  0
 15  3  1  0  0  0  0
 17 13  1  0  0  0  0
 18 15  1  0  0  0  0
 18 16  1  1  0  0  0
 20 12  1  0  0  0  0
 21 26  1  0  0  0  0
 22 21  2  0  0  0  0
 23 26  1  0  0  0  0
 23 27  1  1  0  0  0
 24 22  1  0  0  0  0
 24 28  2  0  0  0  0
 26 25  2  0  0  0  0
 28 23  1  0  0  0  0
M  END
>  <MODEL>
4

>  <REMARK>
 VINA RESULT:      -9.4      2.866      4.709
  Name = 
  2 active torsions:
  status: ('A' for Active; 'I' for Inactive)
    1  A    between atoms: C_1  and  C_2
    2  A    between atoms: C_10  and  C_13
                            x       y       z     vdW  Elec       q    Type
                         _______ _______ _______ _____ _____    ______ ____

>  <TORSDO>
F 2

$$$$
=
 OpenBabel10272401493D

 28 31  0  0  1  0  0  0  0  0999 V2000
  189.5620  177.9480  139.7360 C   0  0  2  0  0  3  0  0  0  0  0  0
  191.6070  177.1940  143.4550 C   0  0  0  0  0  1  0  0  0  0  0  0
  186.7800  178.4210  142.3150 C   0  0  0  0  0  0  0  0  0  0  0  0
  189.4220  177.4170  142.2310 C   0  0  0  0  0  0  0  0  0  0  0  0
  187.5060  178.4150  141.1170 C   0  0  0  0  0  3  0  0  0  0  0  0
  191.6160  177.2850  140.9880 C   0  0  0  0  0  2  0  0  0  0  0  0
  188.6790  177.3830  143.4210 C   0  0  0  0  0  3  0  0  0  0  0  0
  190.8190  176.8310  142.2060 C   0  0  1  0  0  3  0  0  0  0  0  0
  187.3760  177.8800  143.4630 C   0  0  0  0  0  3  0  0  0  0  0  0
  190.8040  177.0560  139.7250 C   0  0  0  0  0  2  0  0  0  0  0  0
  188.8060  177.8930  141.0490 C   0  0  0  0  0  0  0  0  0  0  0  0
  184.8110  179.1350  143.5520 C   0  0  0  0  0  3  0  0  0  0  0  0
  183.4940  178.0890  140.9540 C   0  0  0  0  0  2  0  0  0  0  0  0
  182.4500  178.4230  143.2460 C   0  0  2  0  0  3  0  0  0  0  0  0
  185.3860  178.9390  142.3570 C   0  0  0  0  0  0  0  0  0  0  0  0
  185.3420  179.2460  139.9500 O   0  0  0  0  0  1  0  0  0  0  0  0
  182.2420  178.4800  141.7340 C   0  0  0  0  0  2  0  0  0  0  0  0
  184.5620  179.1620  141.1040 C   0  0  1  0  0  3  0  0  0  0  0  0
  181.1090  178.5750  143.9300 C   0  0  0  0  0  1  0  0  0  0  0  0
  183.3770  179.5380  143.7220 C   0  0  0  0  0  2  0  0  0  0  0  0
  188.6910  177.6540  138.5430 C   0  0  0  0  0  0  0  0  0  0  0  0
  188.0620  176.4780  138.4350 C   0  0  0  0  0  3  0  0  0  0  0  0
  187.7010  178.3890  136.2610 C   0  0  1  0  0  3  0  0  0  0  0  0
  187.1700  176.1840  137.3010 C   0  0  0  0  0  3  0  0  0  0  0  0
  188.9820  179.8390  137.6600 O   0  0  0  0  0  0  0  0  0  0  0  0
  188.4840  178.6910  137.5110 C   0  0  0  0  0  0  0  0  0  0  0  0
  188.5450  178.4140  135.1670 F   0  0  0  0  0  0  0  0  0  0  0  0
  186.9910  177.0620  136.3120 C   0  0  0  0  0  3  0  0  0  0  0  0
  1 21  1  6  0  0  0
  1 11  1  0  0  0  0
  3 15  1  0  0  0  0
  3  9  1  0  0  0  0
  4  7  1  0  0  0  0
  5  3  2  0  0  0  0
  6  8  1  0  0  0  0
  7  9  2  0  0  0  0
  8  4  1  0  0  0  0
  8  2  1  1  0  0  0
 10  1  1  0  0  0  0
 10  6  1  0  0  0  0
 11  5  1  0  0  0  0
 11  4  2  0  0  0  0
 12 20  1  0  0  0  0
 13 18  1  0  0  0  0
 13 17  1  0  0  0  0
 14 20  1  0  0  0  0
 14 19  1  1  0  0  0
 15 12  2  0  0  0  0
 17 14  1  0  0  0  0
 18 16  1  6  0  0  0
 18 15  1  0  0  0  0
 22 21  2  0  0  0  0
 23 27  1  6  0  0  0
 23 28  1  0  0  0  0
 23 26  1  0  0  0  0
 24 22  1  0  0  0  0
 26 25  2  0  0  0  0
 26 21  1  0  0  0  0
 28 24  2  0  0  0  0
M  END
>  <MODEL>
5

>  <REMARK>
 VINA RESULT:      -9.3      3.063      4.757
  Name = 
  2 active torsions:
  status: ('A' for Active; 'I' for Inactive)
    1  A    between atoms: C_1  and  C_2
    2  A    between atoms: C_10  and  C_13
                            x       y       z     vdW  Elec       q    Type
                         _______ _______ _______ _____ _____    ______ ____

>  <TORSDO>
F 2

$$$$
=
 OpenBabel10272401493D

 28 31  0  0  1  0  0  0  0  0999 V2000
  188.1600  176.9500  144.1920 C   0  0  2  0  0  3  0  0  0  0  0  0
  190.5500  176.7140  140.6120 C   0  0  0  0  0  1  0  0  0  0  0  0
  185.8410  178.4560  141.5530 C   0  0  0  0  0  0  0  0  0  0  0  0
  188.5550  177.7010  141.7820 C   0  0  0  0  0  0  0  0  0  0  0  0
  186.3350  177.9180  142.7480 C   0  0  0  0  0  3  0  0  0  0  0  0
  190.3070  176.3950  143.0490 C   0  0  0  0  0  2  0  0  0  0  0  0
  188.0700  178.2800  140.6000 C   0  0  0  0  0  3  0  0  0  0  0  0
  190.0240  177.3470  141.8910 C   0  0  1  0  0  3  0  0  0  0  0  0
  186.7290  178.6520  140.4860 C   0  0  0  0  0  3  0  0  0  0  0  0
  189.6830  176.9340  144.3250 C   0  0  0  0  0  2  0  0  0  0  0  0
  187.6850  177.5660  142.8900 C   0  0  0  0  0  0  0  0  0  0  0  0
  183.6090  178.6900  142.4940 C   0  0  0  0  0  3  0  0  0  0  0  0
  182.9220  178.3270  139.4980 C   0  0  0  0  0  2  0  0  0  0  0  0
  181.4400  177.9580  141.5290 C   0  0  2  0  0  3  0  0  0  0  0  0
  184.4140  178.8640  141.4360 C   0  0  0  0  0  0  0  0  0  0  0  0
  184.7830  179.8180  139.2360 O   0  0  0  0  0  1  0  0  0  0  0  0
  181.5110  178.4160  140.0730 C   0  0  0  0  0  2  0  0  0  0  0  0
  183.8170  179.3750  140.1400 C   0  0  1  0  0  3  0  0  0  0  0  0
  179.9860  177.8390  141.9330 C   0  0  0  0  0  1  0  0  0  0  0  0
  182.1330  178.9490  142.4590 C   0  0  0  0  0  2  0  0  0  0  0  0
  187.5310  177.5820  145.4060 C   0  0  0  0  0  0  0  0  0  0  0  0
  186.4240  178.3260  145.2860 C   0  0  0  0  0  3  0  0  0  0  0  0
  187.5580  178.0370  147.9590 C   0  0  1  0  0  3  0  0  0  0  0  0
  185.7660  178.9180  146.4630 C   0  0  0  0  0  3  0  0  0  0  0  0
  189.0810  176.5490  146.8780 O   0  0  0  0  0  0  0  0  0  0  0  0
  188.1060  177.3380  146.7440 C   0  0  0  0  0  0  0  0  0  0  0  0
  188.4990  178.9230  148.4490 F   0  0  0  0  0  0  0  0  0  0  0  0
  186.2740  178.7760  147.6890 C   0  0  0  0  0  3  0  0  0  0  0  0
  1 10  1  0  0  0  0
  1 21  1  1  0  0  0
  3  5  1  0  0  0  0
  4  8  1  0  0  0  0
  4 11  1  0  0  0  0
  5 11  2  0  0  0  0
  6 10  1  0  0  0  0
  7  4  2  0  0  0  0
  8  2  1  6  0  0  0
  8  6  1  0  0  0  0
  9  7  1  0  0  0  0
  9  3  2  0  0  0  0
 11  1  1  0  0  0  0
 13 17  1  0  0  0  0
 13 18  1  0  0  0  0
 14 19  1  1  0  0  0
 14 20  1  0  0  0  0
 15  3  1  0  0  0  0
 15 12  2  0  0  0  0
 17 14  1  0  0  0  0
 18 16  1  6  0  0  0
 18 15  1  0  0  0  0
 20 12  1  0  0  0  0
 21 26  1  0  0  0  0
 22 21  2  0  0  0  0
 22 24  1  0  0  0  0
 23 27  1  6  0  0  0
 24 28  2  0  0  0  0
 26 25  2  0  0  0  0
 26 23  1  0  0  0  0
 28 23  1  0  0  0  0
M  END
>  <MODEL>
6

>  <REMARK>
 VINA RESULT:      -9.3      2.256      4.626
  Name = 
  2 active torsions:
  status: ('A' for Active; 'I' for Inactive)
    1  A    between atoms: C_1  and  C_2
    2  A    between atoms: C_10  and  C_13
                            x       y       z     vdW  Elec       q    Type
                         _______ _______ _______ _____ _____    ______ ____

>  <TORSDO>
F 2

$$$$
=
 OpenBabel10272401493D

 28 31  0  0  1  0  0  0  0  0999 V2000
  188.6940  177.9470  145.9880 C   0  0  2  0  0  3  0  0  0  0  0  0
  184.4730  178.7890  145.7440 C   0  0  0  0  0  1  0  0  0  0  0  0
  188.1060  178.1220  142.2150 C   0  0  0  0  0  0  0  0  0  0  0  0
  186.5630  178.0130  144.5800 C   0  0  0  0  0  0  0  0  0  0  0  0
  188.7240  178.0590  143.4700 C   0  0  0  0  0  3  0  0  0  0  0  0
  186.4810  178.2850  147.0900 C   0  0  0  0  0  2  0  0  0  0  0  0
  185.9440  178.0320  143.3220 C   0  0  0  0  0  3  0  0  0  0  0  0
  185.7110  177.9090  145.8290 C   0  0  1  0  0  3  0  0  0  0  0  0
  186.7060  178.0880  142.1540 C   0  0  0  0  0  3  0  0  0  0  0  0
  187.7910  177.5170  147.1440 C   0  0  0  0  0  2  0  0  0  0  0  0
  187.9750  177.9730  144.6530 C   0  0  0  0  0  0  0  0  0  0  0  0
  188.2910  178.3700  139.8010 C   0  0  0  0  0  3  0  0  0  0  0  0
  190.7210  176.5390  140.3670 C   0  0  0  0  0  2  0  0  0  0  0  0
  189.4740  176.9030  138.1830 C   0  0  2  0  0  3  0  0  0  0  0  0
  188.9190  178.1700  140.9690 C   0  0  0  0  0  0  0  0  0  0  0  0
  190.9930  178.0380  142.2200 O   0  0  0  0  0  1  0  0  0  0  0  0
  190.8240  176.6360  138.8470 C   0  0  0  0  0  2  0  0  0  0  0  0
  190.4110  177.9050  140.9590 C   0  0  1  0  0  3  0  0  0  0  0  0
  189.6240  176.7320  136.6870 C   0  0  0  0  0  1  0  0  0  0  0  0
  188.9820  178.3180  138.4730 C   0  0  0  0  0  2  0  0  0  0  0  0
  189.9510  177.1180  145.9630 C   0  0  0  0  0  0  0  0  0  0  0  0
  190.3520  176.5280  144.8310 C   0  0  0  0  0  3  0  0  0  0  0  0
  191.9820  176.0950  147.2120 C   0  0  1  0  0  3  0  0  0  0  0  0
  191.6000  175.7490  144.7710 C   0  0  0  0  0  3  0  0  0  0  0  0
  190.4660  177.6400  148.2210 O   0  0  0  0  0  0  0  0  0  0  0  0
  190.7770  176.9970  147.1820 C   0  0  0  0  0  0  0  0  0  0  0  0
  191.7480  175.0380  148.0700 F   0  0  0  0  0  0  0  0  0  0  0  0
  192.3560  175.5610  145.8550 C   0  0  0  0  0  3  0  0  0  0  0  0
  1 21  1  6  0  0  0
  1 10  1  0  0  0  0
  3  5  1  0  0  0  0
  4 11  1  0  0  0  0
  4  8  1  0  0  0  0
  5 11  2  0  0  0  0
  6 10  1  0  0  0  0
  7  4  2  0  0  0  0
  8  2  1  6  0  0  0
  8  6  1  0  0  0  0
  9  3  2  0  0  0  0
  9  7  1  0  0  0  0
 11  1  1  0  0  0  0
 12 15  2  0  0  0  0
 13 18  1  0  0  0  0
 14 19  1  6  0  0  0
 14 20  1  0  0  0  0
 14 17  1  0  0  0  0
 15  3  1  0  0  0  0
 17 13  1  0  0  0  0
 18 15  1  0  0  0  0
 18 16  1  1  0  0  0
 20 12  1  0  0  0  0
 21 26  1  0  0  0  0
 22 21  2  0  0  0  0
 23 27  1  1  0  0  0
 24 22  1  0  0  0  0
 24 28  2  0  0  0  0
 26 23  1  0  0  0  0
 26 25  2  0  0  0  0
 28 23  1  0  0  0  0
M  END
>  <MODEL>
7

>  <REMARK>
 VINA RESULT:      -9.2      2.590      5.246
  Name = 
  2 active torsions:
  status: ('A' for Active; 'I' for Inactive)
    1  A    between atoms: C_1  and  C_2
    2  A    between atoms: C_10  and  C_13
                            x       y       z     vdW  Elec       q    Type
                         _______ _______ _______ _____ _____    ______ ____

>  <TORSDO>
F 2

$$$$
=
 OpenBabel10272401493D

 28 31  0  0  1  0  0  0  0  0999 V2000
  185.2500  179.0140  144.8720 C   0  0  2  0  0  3  0  0  0  0  0  0
  181.6720  179.1260  142.4700 C   0  0  0  0  0  1  0  0  0  0  0  0
  186.6110  178.4610  141.3430 C   0  0  0  0  0  0  0  0  0  0  0  0
  184.1030  178.5060  142.6470 C   0  0  0  0  0  0  0  0  0  0  0  0
  186.5240  178.7070  142.7190 C   0  0  0  0  0  3  0  0  0  0  0  0
  182.7680  179.1790  144.6830 C   0  0  0  0  0  2  0  0  0  0  0  0
  184.1930  178.2170  141.2770 C   0  0  0  0  0  3  0  0  0  0  0  0
  182.7490  178.4800  143.3280 C   0  0  1  0  0  3  0  0  0  0  0  0
  185.4310  178.1960  140.6330 C   0  0  0  0  0  3  0  0  0  0  0  0
  183.9160  178.6470  145.5230 C   0  0  0  0  0  2  0  0  0  0  0  0
  185.2920  178.7020  143.3890 C   0  0  0  0  0  0  0  0  0  0  0  0
  187.9610  178.4730  139.3190 C   0  0  0  0  0  3  0  0  0  0  0  0
  189.7930  176.8440  141.2080 C   0  0  0  0  0  2  0  0  0  0  0  0
  189.7850  176.9170  138.6680 C   0  0  2  0  0  3  0  0  0  0  0  0
  187.9310  178.4260  140.6590 C   0  0  0  0  0  0  0  0  0  0  0  0
  189.1200  178.5350  142.7710 O   0  0  0  0  0  1  0  0  0  0  0  0
  190.6310  176.7920  139.9340 C   0  0  0  0  0  2  0  0  0  0  0  0
  189.2340  178.2430  141.4120 C   0  0  1  0  0  3  0  0  0  0  0  0
  190.6520  176.6040  137.4680 C   0  0  0  0  0  1  0  0  0  0  0  0
  189.2170  178.3250  138.5150 C   0  0  0  0  0  2  0  0  0  0  0  0
  186.3960  178.4020  145.6340 C   0  0  0  0  0  0  0  0  0  0  0  0
  187.1840  177.4870  145.0550 C   0  0  0  0  0  3  0  0  0  0  0  0
  187.7610  178.1840  147.8290 C   0  0  1  0  0  3  0  0  0  0  0  0
  188.3360  176.9070  145.7640 C   0  0  0  0  0  3  0  0  0  0  0  0
  186.0200  179.7890  147.5230 O   0  0  0  0  0  0  0  0  0  0  0  0
  186.6870  178.8500  147.0110 C   0  0  0  0  0  0  0  0  0  0  0  0
  187.1850  177.5030  148.8840 F   0  0  0  0  0  0  0  0  0  0  0  0
  188.6120  177.2340  147.0280 C   0  0  0  0  0  3  0  0  0  0  0  0
  1 10  1  0  0  0  0
  1 21  1  1  0  0  0
  3  5  1  0  0  0  0
  4  8  1  0  0  0  0
  4 11  1  0  0  0  0
  5 11  2  0  0  0  0
  6 10  1  0  0  0  0
  7  4  2  0  0  0  0
  8  2  1  6  0  0  0
  8  6  1  0  0  0  0
  9  7  1  0  0  0  0
  9  3  2  0  0  0  0
 11  1  1  0  0  0  0
 12 15  2  0  0  0  0
 13 18  1  0  0  0  0
 14 19  1  6  0  0  0
 14 17  1  0  0  0  0
 15  3  1  0  0  0  0
 15 18  1  0  0  0  0
 17 13  1  0  0  0  0
 18 16  1  1  0  0  0
 20 14  1  0  0  0  0
 20 12  1  0  0  0  0
 21 26  1  0  0  0  0
 22 21  2  0  0  0  0
 22 24  1  0  0  0  0
 23 27  1  1  0  0  0
 24 28  2  0  0  0  0
 26 25  2  0  0  0  0
 26 23  1  0  0  0  0
 28 23  1  0  0  0  0
M  END
>  <MODEL>
8

>  <REMARK>
 VINA RESULT:      -9.1      2.604      6.286
  Name = 
  2 active torsions:
  status: ('A' for Active; 'I' for Inactive)
    1  A    between atoms: C_1  and  C_2
    2  A    between atoms: C_10  and  C_13
                            x       y       z     vdW  Elec       q    Type
                         _______ _______ _______ _____ _____    ______ ____

>  <TORSDO>
F 2

$$$$
=
 OpenBabel10272401493D

 28 31  0  0  1  0  0  0  0  0999 V2000
  187.4870  177.2840  144.3290 C   0  0  2  0  0  3  0  0  0  0  0  0
  191.6070  177.2890  145.5980 C   0  0  0  0  0  1  0  0  0  0  0  0
  189.3720  177.2680  141.0030 C   0  0  0  0  0  0  0  0  0  0  0  0
  189.9470  177.6530  143.7440 C   0  0  0  0  0  0  0  0  0  0  0  0
  188.3570  177.1960  141.9650 C   0  0  0  0  0  3  0  0  0  0  0  0
  189.2000  177.3740  146.1410 C   0  0  0  0  0  2  0  0  0  0  0  0
  190.9570  177.7680  142.7780 C   0  0  0  0  0  3  0  0  0  0  0  0
  190.2760  177.9080  145.2020 C   0  0  1  0  0  3  0  0  0  0  0  0
  190.6740  177.5770  141.4250 C   0  0  0  0  0  3  0  0  0  0  0  0
  187.8340  177.8700  145.6980 C   0  0  0  0  0  2  0  0  0  0  0  0
  188.6160  177.4140  143.3250 C   0  0  0  0  0  0  0  0  0  0  0  0
  189.6810  176.0800  138.9020 C   0  0  0  0  0  3  0  0  0  0  0  0
  188.9820  178.9070  137.8540 C   0  0  0  0  0  2  0  0  0  0  0  0
  190.1860  177.0160  136.6570 C   0  0  2  0  0  3  0  0  0  0  0  0
  189.0680  177.0760  139.5600 C   0  0  0  0  0  0  0  0  0  0  0  0
  187.3510  178.7880  139.6100 O   0  0  0  0  0  1  0  0  0  0  0  0
  189.2240  178.1960  136.5260 C   0  0  0  0  0  2  0  0  0  0  0  0
  188.1700  178.0190  138.7840 C   0  0  1  0  0  3  0  0  0  0  0  0
  190.5630  176.5360  135.2720 C   0  0  0  0  0  1  0  0  0  0  0  0
  189.5490  175.8620  137.4260 C   0  0  0  0  0  2  0  0  0  0  0  0
  186.1860  177.8510  143.8260 C   0  0  0  0  0  0  0  0  0  0  0  0
  185.9890  178.0380  142.5150 C   0  0  0  0  0  3  0  0  0  0  0  0
  183.8270  178.8130  144.3150 C   0  0  1  0  0  3  0  0  0  0  0  0
  184.7100  178.5500  141.9960 C   0  0  0  0  0  3  0  0  0  0  0  0
  185.2340  177.8760  146.0010 O   0  0  0  0  0  0  0  0  0  0  0  0
  185.0980  178.1540  144.7790 C   0  0  0  0  0  0  0  0  0  0  0  0
  183.7450  180.0860  144.8460 F   0  0  0  0  0  0  0  0  0  0  0  0
  183.7130  178.8920  142.8150 C   0  0  0  0  0  3  0  0  0  0  0  0
  1 21  1  6  0  0  0
  1 10  1  0  0  0  0
  3  9  2  0  0  0  0
  3  5  1  0  0  0  0
  4  8  1  0  0  0  0
  5 11  2  0  0  0  0
  7  4  2  0  0  0  0
  8  2  1  1  0  0  0
  8  6  1  0  0  0  0
  9  7  1  0  0  0  0
 10  6  1  0  0  0  0
 11  4  1  0  0  0  0
 11  1  1  0  0  0  0
 12 15  2  0  0  0  0
 13 18  1  0  0  0  0
 14 19  1  6  0  0  0
 14 20  1  0  0  0  0
 15  3  1  0  0  0  0
 17 14  1  0  0  0  0
 17 13  1  0  0  0  0
 18 15  1  0  0  0  0
 18 16  1  1  0  0  0
 20 12  1  0  0  0  0
 21 26  1  0  0  0  0
 22 21  2  0  0  0  0
 23 26  1  0  0  0  0
 23 27  1  1  0  0  0
 24 22  1  0  0  0  0
 24 28  2  0  0  0  0
 26 25  2  0  0  0  0
 28 23  1  0  0  0  0
M  END
>  <MODEL>
9

>  <REMARK>
 VINA RESULT:      -9.0      3.097      6.347
  Name = 
  2 active torsions:
  status: ('A' for Active; 'I' for Inactive)
    1  A    between atoms: C_1  and  C_2
    2  A    between atoms: C_10  and  C_13
                            x       y       z     vdW  Elec       q    Type
                         _______ _______ _______ _____ _____    ______ ____

>  <TORSDO>
F 2

$$$$
