=
 OpenBabel10272400513D

 25 28  0  0  1  0  0  0  0  0999 V2000
  186.2230  178.1340  145.2330 C   0  0  0  0  0  0  0  0  0  0  0  0
  185.9750  177.8730  143.8800 C   0  0  0  0  0  0  0  0  0  0  0  0
  184.0380  179.1190  145.5620 C   0  0  0  0  0  3  0  0  0  0  0  0
  187.3090  177.9040  146.0500 C   0  0  0  0  0  0  0  0  0  0  0  0
  187.3970  178.6040  141.8050 C   0  0  2  0  0  3  0  0  0  0  0  0
  189.0830  177.7320  148.1690 C   0  0  0  0  0  3  0  0  0  0  0  0
  183.7660  178.8900  144.2040 C   0  0  0  0  0  3  0  0  0  0  0  0
  186.9470  178.3740  147.2960 C   0  0  0  0  0  0  0  0  0  0  0  0
  187.8150  178.3030  148.3820 C   0  0  0  0  0  3  0  0  0  0  0  0
  184.4510  178.1360  141.8710 C   0  0  1  0  0  3  0  0  0  0  0  0
  182.9900  178.3260  141.4910 C   0  0  0  0  0  1  0  0  0  0  0  0
  187.2310  177.1100  142.8400 S   0  0  0  0  0  0  0  0  0  0  0  0
  189.4510  177.2510  146.8930 C   0  0  0  0  0  3  0  0  0  0  0  0
  185.2800  178.7300  146.0480 C   0  0  0  0  0  0  0  0  0  0  0  0
  185.7260  178.8680  147.2810 O   0  0  0  0  0  0  0  0  0  0  0  0
  185.3240  179.1260  141.1040 C   0  0  0  0  0  2  0  0  0  0  0  0
  188.5570  177.3330  145.8110 C   0  0  0  0  0  3  0  0  0  0  0  0
  186.5250  178.5170  140.7090 O   0  0  0  0  0  0  0  0  0  0  0  0
  184.7140  178.2630  143.3540 C   0  0  0  0  0  0  0  0  0  0  0  0
  188.8370  178.8090  141.3370 C   0  0  0  0  0  2  0  0  0  0  0  0
  189.3780  177.6280  140.5380 C   0  0  2  0  0  3  0  0  0  0  0  0
  190.5820  177.1820  141.0870 O   0  0  0  0  0  1  0  0  0  0  0  0
  189.5880  178.0270  139.1170 C   0  0  0  0  0  0  0  0  0  0  0  0
  189.0100  179.1950  138.6380 O   0  0  0  0  0  1  0  0  0  0  0  0
  190.3020  177.3240  138.3540 O   0  0  0  0  0  0  0  0  0  0  0  0
  1 14  2  0  0  0  0
  1  4  1  0  0  0  0
  2  1  1  0  0  0  0
  3 14  1  0  0  0  0
  4  8  1  0  0  0  0
  5 20  1  6  0  0  0
  5 12  1  0  0  0  0
  6  9  1  0  0  0  0
  7  3  2  0  0  0  0
  8  9  2  0  0  0  0
 10 11  1  1  0  0  0
 10 19  1  0  0  0  0
 12  2  1  0  0  0  0
 13  6  2  0  0  0  0
 14 15  1  0  0  0  0
 15  8  1  0  0  0  0
 16 10  1  0  0  0  0
 17  4  2  0  0  0  0
 17 13  1  0  0  0  0
 18 16  1  0  0  0  0
 18  5  1  0  0  0  0
 19  2  2  0  0  0  0
 19  7  1  0  0  0  0
 21 22  1  1  0  0  0
 21 20  1  0  0  0  0
 23 21  1  0  0  0  0
 24 23  1  0  0  0  0
 25 23  2  0  0  0  0
M  END
>  <MODEL>
1

>  <REMARK>
 VINA RESULT:     -10.0      0.000      0.000
  Name = 
  3 active torsions:
  status: ('A' for Active; 'I' for Inactive)
    1  A    between atoms: C_2  and  C_21
    2  A    between atoms: C_6  and  C_15
    3  A    between atoms: C_15  and  C_21
                            x       y       z     vdW  Elec       q    Type
                         _______ _______ _______ _____ _____    ______ ____

>  <TORSDO>
F 3

$$$$
=
 OpenBabel10272400513D

 25 28  0  0  1  0  0  0  0  0999 V2000
  186.2150  178.1370  145.2120 C   0  0  0  0  0  0  0  0  0  0  0  0
  186.0420  177.8550  143.8510 C   0  0  0  0  0  0  0  0  0  0  0  0
  184.0070  179.1070  145.4090 C   0  0  0  0  0  3  0  0  0  0  0  0
  187.2570  177.9290  146.0890 C   0  0  0  0  0  0  0  0  0  0  0  0
  187.5670  178.5680  141.8440 C   0  0  2  0  0  3  0  0  0  0  0  0
  188.9170  177.8040  148.3020 C   0  0  0  0  0  3  0  0  0  0  0  0
  183.8110  178.8560  144.0410 C   0  0  0  0  0  3  0  0  0  0  0  0
  186.8260  178.4140  147.3060 C   0  0  0  0  0  0  0  0  0  0  0  0
  187.6350  178.3660  148.4380 C   0  0  0  0  0  3  0  0  0  0  0  0
  184.6250  178.0750  141.7600 C   0  0  1  0  0  3  0  0  0  0  0  0
  183.1840  178.2460  141.3000 C   0  0  0  0  0  1  0  0  0  0  0  0
  187.3580  177.0870  142.8910 S   0  0  0  0  0  0  0  0  0  0  0  0
  189.3570  177.3080  147.0540 C   0  0  0  0  0  3  0  0  0  0  0  0
  185.2250  178.7370  145.9660 C   0  0  0  0  0  0  0  0  0  0  0  0
  185.6030  178.8970  147.2190 O   0  0  0  0  0  0  0  0  0  0  0  0
  185.5290  179.0610  141.0260 C   0  0  0  0  0  2  0  0  0  0  0  0
  188.5210  177.3660  145.9240 C   0  0  0  0  0  3  0  0  0  0  0  0
  186.7550  178.4570  140.7050 O   0  0  0  0  0  0  0  0  0  0  0  0
  184.8080  178.2250  143.2530 C   0  0  0  0  0  0  0  0  0  0  0  0
  189.0270  178.7790  141.4510 C   0  0  0  0  0  2  0  0  0  0  0  0
  189.9560  177.7040  142.0080 C   0  0  2  0  0  3  0  0  0  0  0  0
  190.7340  178.2260  143.0430 O   0  0  0  0  0  1  0  0  0  0  0  0
  190.8390  177.1820  140.9260 C   0  0  0  0  0  0  0  0  0  0  0  0
  190.3530  176.2260  140.0440 O   0  0  0  0  0  0  0  0  0  0  0  0
  192.0140  177.6160  140.7930 O   0  0  0  0  0  1  0  0  0  0  0  0
  1 14  2  0  0  0  0
  1  4  1  0  0  0  0
  2  1  1  0  0  0  0
  3 14  1  0  0  0  0
  4  8  1  0  0  0  0
  5 20  1  6  0  0  0
  5 12  1  0  0  0  0
  6  9  1  0  0  0  0
  7  3  2  0  0  0  0
  8  9  2  0  0  0  0
 10 11  1  1  0  0  0
 10 19  1  0  0  0  0
 12  2  1  0  0  0  0
 13  6  2  0  0  0  0
 14 15  1  0  0  0  0
 15  8  1  0  0  0  0
 16 10  1  0  0  0  0
 17  4  2  0  0  0  0
 17 13  1  0  0  0  0
 18 16  1  0  0  0  0
 18  5  1  0  0  0  0
 19  2  2  0  0  0  0
 19  7  1  0  0  0  0
 20 21  1  0  0  0  0
 21 22  1  1  0  0  0
 23 21  1  0  0  0  0
 24 23  2  0  0  0  0
 25 23  1  0  0  0  0
M  END
>  <MODEL>
2

>  <REMARK>
 VINA RESULT:     -10.0      0.989      1.186
  Name = 
  3 active torsions:
  status: ('A' for Active; 'I' for Inactive)
    1  A    between atoms: C_2  and  C_21
    2  A    between atoms: C_6  and  C_15
    3  A    between atoms: C_15  and  C_21
                            x       y       z     vdW  Elec       q    Type
                         _______ _______ _______ _____ _____    ______ ____

>  <TORSDO>
F 3

$$$$
=
 OpenBabel10272400513D

 25 28  0  0  1  0  0  0  0  0999 V2000
  187.7070  177.7060  145.6460 C   0  0  0  0  0  0  0  0  0  0  0  0
  186.8970  177.6670  144.5050 C   0  0  0  0  0  0  0  0  0  0  0  0
  185.9730  178.7380  146.9810 C   0  0  0  0  0  3  0  0  0  0  0  0
  189.0010  177.3010  145.8940 C   0  0  0  0  0  0  0  0  0  0  0  0
  187.4090  178.6310  142.1240 C   0  0  2  0  0  3  0  0  0  0  0  0
  191.4600  176.7220  147.0280 C   0  0  0  0  0  3  0  0  0  0  0  0
  185.1430  178.7320  145.8480 C   0  0  0  0  0  3  0  0  0  0  0  0
  189.2380  177.5950  147.2220 C   0  0  0  0  0  0  0  0  0  0  0  0
  190.4630  177.3170  147.8220 C   0  0  0  0  0  3  0  0  0  0  0  0
  184.7200  178.3060  143.3750 C   0  0  1  0  0  3  0  0  0  0  0  0
  183.2620  178.6250  143.6740 C   0  0  0  0  0  1  0  0  0  0  0  0
  187.5220  177.0070  142.9500 S   0  0  0  0  0  0  0  0  0  0  0  0
  191.2150  176.4220  145.6700 C   0  0  0  0  0  3  0  0  0  0  0  0
  187.2550  178.2190  146.8470 C   0  0  0  0  0  0  0  0  0  0  0  0
  188.1810  178.1460  147.7820 O   0  0  0  0  0  0  0  0  0  0  0  0
  185.3010  179.3560  142.4310 C   0  0  0  0  0  2  0  0  0  0  0  0
  189.9700  176.7120  145.0840 C   0  0  0  0  0  3  0  0  0  0  0  0
  186.1590  178.7550  141.4980 O   0  0  0  0  0  0  0  0  0  0  0  0
  185.5830  178.1940  144.6110 C   0  0  0  0  0  0  0  0  0  0  0  0
  188.5410  178.8320  141.1180 C   0  0  0  0  0  2  0  0  0  0  0  0
  188.7370  177.6340  140.1930 C   0  0  2  0  0  3  0  0  0  0  0  0
  190.0390  177.1440  140.3060 O   0  0  0  0  0  1  0  0  0  0  0  0
  188.4660  178.0310  138.7820 C   0  0  0  0  0  0  0  0  0  0  0  0
  188.9390  179.2460  138.3060 O   0  0  0  0  0  1  0  0  0  0  0  0
  187.8300  177.2630  138.0120 O   0  0  0  0  0  0  0  0  0  0  0  0
  1  4  1  0  0  0  0
  1 14  2  0  0  0  0
  2 19  2  0  0  0  0
  2  1  1  0  0  0  0
  4  8  1  0  0  0  0
  5 20  1  6  0  0  0
  5 12  1  0  0  0  0
  6  9  1  0  0  0  0
  7  3  2  0  0  0  0
  8 15  1  0  0  0  0
  8  9  2  0  0  0  0
 10 11  1  1  0  0  0
 10 19  1  0  0  0  0
 12  2  1  0  0  0  0
 13  6  2  0  0  0  0
 14  3  1  0  0  0  0
 14 15  1  0  0  0  0
 16 10  1  0  0  0  0
 17 13  1  0  0  0  0
 17  4  2  0  0  0  0
 18  5  1  0  0  0  0
 18 16  1  0  0  0  0
 19  7  1  0  0  0  0
 21 22  1  6  0  0  0
 21 20  1  0  0  0  0
 23 21  1  0  0  0  0
 24 23  1  0  0  0  0
 25 23  2  0  0  0  0
M  END
>  <MODEL>
3

>  <REMARK>
 VINA RESULT:      -9.8      1.227      1.804
  Name = 
  3 active torsions:
  status: ('A' for Active; 'I' for Inactive)
    1  A    between atoms: C_2  and  C_21
    2  A    between atoms: C_6  and  C_15
    3  A    between atoms: C_15  and  C_21
                            x       y       z     vdW  Elec       q    Type
                         _______ _______ _______ _____ _____    ______ ____

>  <TORSDO>
F 3

$$$$
=
 OpenBabel10272400513D

 25 28  0  0  1  0  0  0  0  0999 V2000
  187.2430  177.8950  142.6420 C   0  0  0  0  0  0  0  0  0  0  0  0
  188.4520  177.2310  142.3950 C   0  0  0  0  0  0  0  0  0  0  0  0
  187.0480  178.6330  140.3450 C   0  0  0  0  0  3  0  0  0  0  0  0
  186.4720  178.0530  143.7730 C   0  0  0  0  0  0  0  0  0  0  0  0
  190.7410  177.5270  143.6330 C   0  0  2  0  0  3  0  0  0  0  0  0
  184.5170  178.7270  145.6140 C   0  0  0  0  0  3  0  0  0  0  0  0
  188.2680  177.9940  140.0710 C   0  0  0  0  0  3  0  0  0  0  0  0
  185.3830  178.8040  143.3820 C   0  0  0  0  0  0  0  0  0  0  0  0
  184.3820  179.1600  144.2830 C   0  0  0  0  0  3  0  0  0  0  0  0
  190.3430  176.7090  140.7910 C   0  0  1  0  0  3  0  0  0  0  0  0
  190.6580  176.5870  139.3070 C   0  0  0  0  0  1  0  0  0  0  0  0
  189.3250  176.3790  143.7190 S   0  0  0  0  0  0  0  0  0  0  0  0
  185.6330  177.9580  146.0120 C   0  0  0  0  0  3  0  0  0  0  0  0
  186.5610  178.5670  141.6460 C   0  0  0  0  0  0  0  0  0  0  0  0
  185.4480  179.1070  142.1020 O   0  0  0  0  0  0  0  0  0  0  0  0
  191.4130  177.5480  141.4850 C   0  0  0  0  0  2  0  0  0  0  0  0
  186.6310  177.6090  145.0840 C   0  0  0  0  0  3  0  0  0  0  0  0
  191.7070  177.0180  142.7510 O   0  0  0  0  0  0  0  0  0  0  0  0
  188.9750  177.2840  141.0760 C   0  0  0  0  0  0  0  0  0  0  0  0
  191.3460  177.7810  145.0120 C   0  0  0  0  0  2  0  0  0  0  0  0
  190.7350  176.9050  146.1020 C   0  0  2  0  0  3  0  0  0  0  0  0
  189.8850  177.6610  146.9100 O   0  0  0  0  0  1  0  0  0  0  0  0
  191.8140  176.2970  146.9320 C   0  0  0  0  0  0  0  0  0  0  0  0
  192.1870  176.9020  148.1250 O   0  0  0  0  0  1  0  0  0  0  0  0
  192.3760  175.2300  146.5690 O   0  0  0  0  0  0  0  0  0  0  0  0
  1  4  1  0  0  0  0
  2  1  1  0  0  0  0
  2 12  1  0  0  0  0
  3 14  1  0  0  0  0
  4 17  1  0  0  0  0
  5 12  1  0  0  0  0
  5 20  1  1  0  0  0
  6 13  1  0  0  0  0
  7  3  2  0  0  0  0
  7 19  1  0  0  0  0
  8  4  2  0  0  0  0
  8  9  1  0  0  0  0
  9  6  2  0  0  0  0
 10 11  1  6  0  0  0
 10 19  1  0  0  0  0
 10 16  1  0  0  0  0
 14 15  1  0  0  0  0
 14  1  2  0  0  0  0
 15  8  1  0  0  0  0
 16 18  1  0  0  0  0
 17 13  2  0  0  0  0
 18  5  1  0  0  0  0
 19  2  2  0  0  0  0
 20 21  1  0  0  0  0
 21 22  1  1  0  0  0
 21 23  1  0  0  0  0
 23 24  1  0  0  0  0
 25 23  2  0  0  0  0
M  END
>  <MODEL>
4

>  <REMARK>
 VINA RESULT:      -9.5      2.563      5.669
  Name = 
  3 active torsions:
  status: ('A' for Active; 'I' for Inactive)
    1  A    between atoms: C_2  and  C_21
    2  A    between atoms: C_6  and  C_15
    3  A    between atoms: C_15  and  C_21
                            x       y       z     vdW  Elec       q    Type
                         _______ _______ _______ _____ _____    ______ ____

>  <TORSDO>
F 3

$$$$
=
 OpenBabel10272400513D

 25 28  0  0  1  0  0  0  0  0999 V2000
  189.5530  177.3320  143.7650 C   0  0  0  0  0  0  0  0  0  0  0  0
  188.4740  177.1980  144.6470 C   0  0  0  0  0  0  0  0  0  0  0  0
  191.1460  177.5780  145.5700 C   0  0  0  0  0  3  0  0  0  0  0  0
  189.6500  177.3200  142.3900 C   0  0  0  0  0  0  0  0  0  0  0  0
  186.2560  178.5900  144.7120 C   0  0  2  0  0  3  0  0  0  0  0  0
  190.5160  177.3870  139.7610 C   0  0  0  0  0  3  0  0  0  0  0  0
  190.0820  177.4690  146.4790 C   0  0  0  0  0  3  0  0  0  0  0  0
  190.9900  177.4890  142.1070 C   0  0  0  0  0  0  0  0  0  0  0  0
  191.4580  177.5280  140.7960 C   0  0  0  0  0  3  0  0  0  0  0  0
  187.6040  177.2750  147.0260 C   0  0  1  0  0  3  0  0  0  0  0  0
  188.0420  177.0790  148.4710 C   0  0  0  0  0  1  0  0  0  0  0  0
  186.7960  176.9850  144.0290 S   0  0  0  0  0  0  0  0  0  0  0  0
  189.1450  177.2150  140.0540 C   0  0  0  0  0  3  0  0  0  0  0  0
  190.8480  177.5080  144.2140 C   0  0  0  0  0  0  0  0  0  0  0  0
  191.6980  177.6010  143.2110 O   0  0  0  0  0  0  0  0  0  0  0  0
  186.8100  178.5720  146.8930 C   0  0  0  0  0  2  0  0  0  0  0  0
  188.6950  177.1790  141.3850 C   0  0  0  0  0  3  0  0  0  0  0  0
  185.7390  178.4020  146.0030 O   0  0  0  0  0  0  0  0  0  0  0  0
  188.7480  177.2690  146.0390 C   0  0  0  0  0  0  0  0  0  0  0  0
  185.2280  179.2690  143.8090 C   0  0  0  0  0  2  0  0  0  0  0  0
  185.1970  178.6890  142.3990 C   0  0  2  0  0  3  0  0  0  0  0  0
  185.7750  179.5840  141.4950 O   0  0  0  0  0  1  0  0  0  0  0  0
  183.7910  178.4020  141.9960 C   0  0  0  0  0  0  0  0  0  0  0  0
  183.5420  177.6480  140.8570 O   0  0  0  0  0  0  0  0  0  0  0  0
  182.8280  178.8200  142.6920 O   0  0  0  0  0  1  0  0  0  0  0  0
  1 14  1  0  0  0  0
  1  2  2  0  0  0  0
  2 19  1  0  0  0  0
  3  7  1  0  0  0  0
  4  1  1  0  0  0  0
  5 20  1  6  0  0  0
  5 18  1  0  0  0  0
  6 13  2  0  0  0  0
  6  9  1  0  0  0  0
  8  4  1  0  0  0  0
  8 15  1  0  0  0  0
  9  8  2  0  0  0  0
 10 11  1  1  0  0  0
 12  2  1  0  0  0  0
 12  5  1  0  0  0  0
 13 17  1  0  0  0  0
 14  3  2  0  0  0  0
 15 14  1  0  0  0  0
 16 10  1  0  0  0  0
 17  4  2  0  0  0  0
 18 16  1  0  0  0  0
 19  7  2  0  0  0  0
 19 10  1  0  0  0  0
 21 22  1  6  0  0  0
 21 20  1  0  0  0  0
 23 21  1  0  0  0  0
 23 25  1  0  0  0  0
 24 23  2  0  0  0  0
M  END
>  <MODEL>
5

>  <REMARK>
 VINA RESULT:      -8.5      1.859      6.083
  Name = 
  3 active torsions:
  status: ('A' for Active; 'I' for Inactive)
    1  A    between atoms: C_2  and  C_21
    2  A    between atoms: C_6  and  C_15
    3  A    between atoms: C_15  and  C_21
                            x       y       z     vdW  Elec       q    Type
                         _______ _______ _______ _____ _____    ______ ____

>  <TORSDO>
F 3

$$$$
=
 OpenBabel10272400513D

 25 28  0  0  1  0  0  0  0  0999 V2000
  187.5700  177.9840  145.7280 C   0  0  0  0  0  0  0  0  0  0  0  0
  188.9500  177.8610  145.5210 C   0  0  0  0  0  0  0  0  0  0  0  0
  187.7310  177.2390  148.0240 C   0  0  0  0  0  3  0  0  0  0  0  0
  186.5310  178.3840  144.9160 C   0  0  0  0  0  0  0  0  0  0  0  0
  190.1920  176.5050  143.6570 C   0  0  2  0  0  3  0  0  0  0  0  0
  184.0670  179.0660  143.8520 C   0  0  0  0  0  3  0  0  0  0  0  0
  189.1150  177.0850  147.8420 C   0  0  0  0  0  3  0  0  0  0  0  0
  185.3940  178.3050  145.6950 C   0  0  0  0  0  0  0  0  0  0  0  0
  184.1410  178.6390  145.1900 C   0  0  0  0  0  3  0  0  0  0  0  0
  191.2080  177.1120  146.3950 C   0  0  1  0  0  3  0  0  0  0  0  0
  191.9820  176.8920  147.6870 C   0  0  0  0  0  1  0  0  0  0  0  0
  189.6820  178.2380  143.9200 S   0  0  0  0  0  0  0  0  0  0  0  0
  185.2310  179.1460  143.0570 C   0  0  0  0  0  3  0  0  0  0  0  0
  186.9830  177.6900  146.9430 C   0  0  0  0  0  0  0  0  0  0  0  0
  185.6800  177.8860  146.9100 O   0  0  0  0  0  0  0  0  0  0  0  0
  191.3730  175.9050  145.4750 C   0  0  0  0  0  2  0  0  0  0  0  0
  186.4880  178.8030  143.5880 C   0  0  0  0  0  3  0  0  0  0  0  0
  191.4960  176.3190  144.1400 O   0  0  0  0  0  0  0  0  0  0  0  0
  189.7400  177.3990  146.6080 C   0  0  0  0  0  0  0  0  0  0  0  0
  190.0970  176.1070  142.1850 C   0  0  0  0  0  2  0  0  0  0  0  0
  190.0420  177.3070  141.2450 C   0  0  2  0  0  3  0  0  0  0  0  0
  188.8580  177.2890  140.5050 O   0  0  0  0  0  1  0  0  0  0  0  0
  191.2140  177.2880  140.3230 C   0  0  0  0  0  0  0  0  0  0  0  0
  191.0480  176.8730  139.0090 O   0  0  0  0  0  0  0  0  0  0  0  0
  192.3480  177.6630  140.7220 O   0  0  0  0  0  1  0  0  0  0  0  0
  1 14  1  0  0  0  0
  2  1  2  0  0  0  0
  2 19  1  0  0  0  0
  4  8  1  0  0  0  0
  4  1  1  0  0  0  0
  5 20  1  6  0  0  0
  5 12  1  0  0  0  0
  5 18  1  0  0  0  0
  6  9  1  0  0  0  0
  7  3  1  0  0  0  0
  8 15  1  0  0  0  0
  9  8  2  0  0  0  0
 10 19  1  0  0  0  0
 10 11  1  1  0  0  0
 12  2  1  0  0  0  0
 13 17  1  0  0  0  0
 13  6  2  0  0  0  0
 14  3  2  0  0  0  0
 15 14  1  0  0  0  0
 16 10  1  0  0  0  0
 17  4  2  0  0  0  0
 18 16  1  0  0  0  0
 19  7  2  0  0  0  0
 21 22  1  6  0  0  0
 21 20  1  0  0  0  0
 23 25  1  0  0  0  0
 23 21  1  0  0  0  0
 24 23  2  0  0  0  0
M  END
>  <MODEL>
6

>  <REMARK>
 VINA RESULT:      -8.5      1.690      4.926
  Name = 
  3 active torsions:
  status: ('A' for Active; 'I' for Inactive)
    1  A    between atoms: C_2  and  C_21
    2  A    between atoms: C_6  and  C_15
    3  A    between atoms: C_15  and  C_21
                            x       y       z     vdW  Elec       q    Type
                         _______ _______ _______ _____ _____    ______ ____

>  <TORSDO>
F 3

$$$$
=
 OpenBabel10272400513D

 25 28  0  0  1  0  0  0  0  0999 V2000
  185.9910  178.4260  144.3360 C   0  0  0  0  0  0  0  0  0  0  0  0
  187.2740  178.3640  144.8940 C   0  0  0  0  0  0  0  0  0  0  0  0
  184.9160  178.2330  146.4950 C   0  0  0  0  0  3  0  0  0  0  0  0
  185.5350  178.5520  143.0410 C   0  0  0  0  0  0  0  0  0  0  0  0
  189.2210  176.7180  144.2940 C   0  0  2  0  0  3  0  0  0  0  0  0
  184.0010  178.7880  140.7480 C   0  0  0  0  0  3  0  0  0  0  0  0
  186.1890  178.1470  147.0830 C   0  0  0  0  0  3  0  0  0  0  0  0
  184.1580  178.5660  143.1280 C   0  0  0  0  0  0  0  0  0  0  0  0
  183.3580  178.6820  141.9940 C   0  0  0  0  0  3  0  0  0  0  0  0
  188.7260  178.0040  146.9400 C   0  0  1  0  0  3  0  0  0  0  0  0
  188.7170  178.1410  148.4560 C   0  0  0  0  0  1  0  0  0  0  0  0
  188.7400  178.4220  143.8510 S   0  0  0  0  0  0  0  0  0  0  0  0
  185.4110  178.7740  140.6620 C   0  0  0  0  0  3  0  0  0  0  0  0
  184.8510  178.3700  145.1130 C   0  0  0  0  0  0  0  0  0  0  0  0
  183.7600  178.4550  144.3780 O   0  0  0  0  0  0  0  0  0  0  0  0
  189.2730  176.6360  146.5420 C   0  0  0  0  0  2  0  0  0  0  0  0
  186.1990  178.6560  141.8200 C   0  0  0  0  0  3  0  0  0  0  0  0
  190.0830  176.7450  145.4020 O   0  0  0  0  0  0  0  0  0  0  0  0
  187.3720  178.2200  146.3040 C   0  0  0  0  0  0  0  0  0  0  0  0
  189.8710  175.9920  143.1180 C   0  0  0  0  0  2  0  0  0  0  0  0
  190.1350  176.9050  141.9250 C   0  0  2  0  0  3  0  0  0  0  0  0
  189.8280  176.2460  140.7330 O   0  0  0  0  0  1  0  0  0  0  0  0
  191.5640  177.3300  141.9140 C   0  0  0  0  0  0  0  0  0  0  0  0
  192.2190  177.5070  140.7030 O   0  0  0  0  0  0  0  0  0  0  0  0
  192.1750  177.5490  142.9930 O   0  0  0  0  0  1  0  0  0  0  0  0
  1  2  2  0  0  0  0
  1 14  1  0  0  0  0
  2 19  1  0  0  0  0
  3  7  1  0  0  0  0
  4  8  1  0  0  0  0
  4  1  1  0  0  0  0
  5 20  1  6  0  0  0
  5 18  1  0  0  0  0
  6  9  1  0  0  0  0
  8 15  1  0  0  0  0
  9  8  2  0  0  0  0
 10 11  1  1  0  0  0
 12  5  1  0  0  0  0
 12  2  1  0  0  0  0
 13  6  2  0  0  0  0
 13 17  1  0  0  0  0
 14  3  2  0  0  0  0
 15 14  1  0  0  0  0
 16 10  1  0  0  0  0
 17  4  2  0  0  0  0
 18 16  1  0  0  0  0
 19 10  1  0  0  0  0
 19  7  2  0  0  0  0
 21 22  1  6  0  0  0
 21 20  1  0  0  0  0
 23 21  1  0  0  0  0
 23 25  1  0  0  0  0
 24 23  2  0  0  0  0
M  END
>  <MODEL>
7

>  <REMARK>
 VINA RESULT:      -8.2      1.869      4.963
  Name = 
  3 active torsions:
  status: ('A' for Active; 'I' for Inactive)
    1  A    between atoms: C_2  and  C_21
    2  A    between atoms: C_6  and  C_15
    3  A    between atoms: C_15  and  C_21
                            x       y       z     vdW  Elec       q    Type
                         _______ _______ _______ _____ _____    ______ ____

>  <TORSDO>
F 3

$$$$
=
 OpenBabel10272400513D

 25 28  0  0  1  0  0  0  0  0999 V2000
  186.7360  178.0970  142.9550 C   0  0  0  0  0  0  0  0  0  0  0  0
  187.5780  177.5850  141.9600 C   0  0  0  0  0  0  0  0  0  0  0  0
  185.3480  179.2550  141.3470 C   0  0  0  0  0  3  0  0  0  0  0  0
  186.7200  177.9720  144.3280 C   0  0  0  0  0  0  0  0  0  0  0  0
  190.1820  177.7990  141.7770 C   0  0  2  0  0  3  0  0  0  0  0  0
  186.1300  178.1250  147.0280 C   0  0  0  0  0  3  0  0  0  0  0  0
  186.1870  178.7750  140.3270 C   0  0  0  0  0  3  0  0  0  0  0  0
  185.6320  178.7040  144.7580 C   0  0  0  0  0  0  0  0  0  0  0  0
  185.3080  178.8010  146.1090 C   0  0  0  0  0  3  0  0  0  0  0  0
  188.2530  177.5290  139.5170 C   0  0  1  0  0  3  0  0  0  0  0  0
  187.6960  177.7250  138.1140 C   0  0  0  0  0  1  0  0  0  0  0  0
  188.9930  176.5560  142.3850 S   0  0  0  0  0  0  0  0  0  0  0  0
  187.2430  177.3770  146.5850 C   0  0  0  0  0  3  0  0  0  0  0  0
  185.6520  178.8990  142.6550 C   0  0  0  0  0  0  0  0  0  0  0  0
  184.9990  179.2560  143.7440 O   0  0  0  0  0  0  0  0  0  0  0  0
  189.5670  178.2920  139.6690 C   0  0  0  0  0  2  0  0  0  0  0  0
  187.5510  177.2920  145.2160 C   0  0  0  0  0  3  0  0  0  0  0  0
  190.4810  177.5460  140.4290 O   0  0  0  0  0  0  0  0  0  0  0  0
  187.2940  177.9350  140.6130 C   0  0  0  0  0  0  0  0  0  0  0  0
  191.4560  177.8210  142.6200 C   0  0  0  0  0  2  0  0  0  0  0  0
  191.2020  178.2100  144.0730 C   0  0  2  0  0  3  0  0  0  0  0  0
  191.9630  179.3300  144.4140 O   0  0  0  0  0  1  0  0  0  0  0  0
  191.5470  177.0720  144.9730 C   0  0  0  0  0  0  0  0  0  0  0  0
  191.6530  177.2840  146.3400 O   0  0  0  0  0  1  0  0  0  0  0  0
  191.7230  175.9160  144.5040 O   0  0  0  0  0  0  0  0  0  0  0  0
  1  4  1  0  0  0  0
  2 12  1  0  0  0  0
  2  1  1  0  0  0  0
  3 14  1  0  0  0  0
  4  8  2  0  0  0  0
  4 17  1  0  0  0  0
  5 12  1  0  0  0  0
  5 20  1  1  0  0  0
  7 19  1  0  0  0  0
  7  3  2  0  0  0  0
  8  9  1  0  0  0  0
  9  6  2  0  0  0  0
 10 11  1  6  0  0  0
 10 16  1  0  0  0  0
 10 19  1  0  0  0  0
 13  6  1  0  0  0  0
 14  1  2  0  0  0  0
 14 15  1  0  0  0  0
 15  8  1  0  0  0  0
 16 18  1  0  0  0  0
 17 13  2  0  0  0  0
 18  5  1  0  0  0  0
 19  2  2  0  0  0  0
 20 21  1  0  0  0  0
 21 22  1  1  0  0  0
 21 23  1  0  0  0  0
 23 24  1  0  0  0  0
 25 23  2  0  0  0  0
M  END
>  <MODEL>
8

>  <REMARK>
 VINA RESULT:      -8.1      2.247      4.142
  Name = 
  3 active torsions:
  status: ('A' for Active; 'I' for Inactive)
    1  A    between atoms: C_2  and  C_21
    2  A    between atoms: C_6  and  C_15
    3  A    between atoms: C_15  and  C_21
                            x       y       z     vdW  Elec       q    Type
                         _______ _______ _______ _____ _____    ______ ____

>  <TORSDO>
F 3

$$$$
=
 OpenBabel10272400513D

 25 28  0  0  1  0  0  0  0  0999 V2000
  184.6180  178.6470  142.4820 C   0  0  0  0  0  0  0  0  0  0  0  0
  185.6540  178.6660  143.4250 C   0  0  0  0  0  0  0  0  0  0  0  0
  182.9080  178.7760  144.1890 C   0  0  0  0  0  3  0  0  0  0  0  0
  184.6030  178.5820  141.1060 C   0  0  0  0  0  0  0  0  0  0  0  0
  187.6090  176.9480  143.7150 C   0  0  2  0  0  3  0  0  0  0  0  0
  183.8860  178.4790  138.4330 C   0  0  0  0  0  3  0  0  0  0  0  0
  183.9230  178.7760  145.1590 C   0  0  0  0  0  3  0  0  0  0  0  0
  183.2710  178.6100  140.7440 C   0  0  0  0  0  0  0  0  0  0  0  0
  182.8770  178.5590  139.4100 C   0  0  0  0  0  3  0  0  0  0  0  0
  186.3650  178.6100  145.8570 C   0  0  1  0  0  3  0  0  0  0  0  0
  185.8840  178.9690  147.2560 C   0  0  0  0  0  1  0  0  0  0  0  0
  187.3760  178.5680  142.9080 S   0  0  0  0  0  0  0  0  0  0  0  0
  185.2480  178.4510  138.8050 C   0  0  0  0  0  3  0  0  0  0  0  0
  183.2890  178.7080  142.8540 C   0  0  0  0  0  0  0  0  0  0  0  0
  182.4930  178.6850  141.8040 O   0  0  0  0  0  0  0  0  0  0  0  0
  186.9430  177.1970  145.8500 C   0  0  0  0  0  2  0  0  0  0  0  0
  185.6230  178.5030  140.1600 C   0  0  0  0  0  3  0  0  0  0  0  0
  188.0760  177.1360  145.0250 O   0  0  0  0  0  0  0  0  0  0  0  0
  185.2940  178.7320  144.7970 C   0  0  0  0  0  0  0  0  0  0  0  0
  188.5620  176.0550  142.9220 C   0  0  0  0  0  2  0  0  0  0  0  0
  189.7160  176.8280  142.2910 C   0  0  2  0  0  3  0  0  0  0  0  0
  190.0280  176.2940  141.0390 O   0  0  0  0  0  1  0  0  0  0  0  0
  190.9140  176.7700  143.1780 C   0  0  0  0  0  0  0  0  0  0  0  0
  191.6060  177.9350  143.4750 O   0  0  0  0  0  0  0  0  0  0  0  0
  191.2900  175.6750  143.6750 O   0  0  0  0  0  1  0  0  0  0  0  0
  1 14  1  0  0  0  0
  1  2  2  0  0  0  0
  2 19  1  0  0  0  0
  3  7  1  0  0  0  0
  4  1  1  0  0  0  0
  5 20  1  6  0  0  0
  5 18  1  0  0  0  0
  6 13  2  0  0  0  0
  6  9  1  0  0  0  0
  8  4  1  0  0  0  0
  8 15  1  0  0  0  0
  9  8  2  0  0  0  0
 10 11  1  1  0  0  0
 12  2  1  0  0  0  0
 12  5  1  0  0  0  0
 13 17  1  0  0  0  0
 14  3  2  0  0  0  0
 15 14  1  0  0  0  0
 16 10  1  0  0  0  0
 17  4  2  0  0  0  0
 18 16  1  0  0  0  0
 19  7  2  0  0  0  0
 19 10  1  0  0  0  0
 21 22  1  6  0  0  0
 21 20  1  0  0  0  0
 21 23  1  0  0  0  0
 23 24  2  0  0  0  0
 23 25  1  0  0  0  0
M  END
>  <MODEL>
9

>  <REMARK>
 VINA RESULT:      -8.0      2.184      5.427
  Name = 
  3 active torsions:
  status: ('A' for Active; 'I' for Inactive)
    1  A    between atoms: C_2  and  C_21
    2  A    between atoms: C_6  and  C_15
    3  A    between atoms: C_15  and  C_21
                            x       y       z     vdW  Elec       q    Type
                         _______ _______ _______ _____ _____    ______ ____

>  <TORSDO>
F 3

$$$$
