=
 OpenBabel10272400513D

 25 28  0  0  1  0  0  0  0  0999 V2000
  186.9320  177.7650  145.3830 C   0  0  0  0  0  0  0  0  0  0  0  0
  188.2300  177.4110  145.0090 C   0  0  0  0  0  0  0  0  0  0  0  0
  187.5630  177.8750  147.6960 C   0  0  0  0  0  3  0  0  0  0  0  0
  185.6850  177.8690  144.5800 C   0  0  1  0  0  3  0  0  0  0  0  0
  190.4520  176.7550  142.1090 C   0  0  0  0  0  0  0  0  0  0  0  0
  183.4300  179.6090  144.1490 C   0  0  0  0  0  3  0  0  0  0  0  0
  188.8380  177.5460  147.3400 N   0  0  0  0  0  0  0  0  0  0  0  0
  184.7250  178.2790  145.6680 C   0  0  0  0  0  0  0  0  0  0  0  0
  183.4740  178.9550  145.3180 C   0  0  0  0  0  3  0  0  0  0  0  0
  190.5960  176.9590  145.7100 C   0  0  0  0  0  0  0  0  0  0  0  0
  191.6140  176.8170  146.7880 C   0  0  0  0  0  1  0  0  0  0  0  0
  190.8740  176.6030  140.8840 C   0  0  0  0  0  3  0  0  0  0  0  0
  188.5560  177.1010  143.5720 C   0  0  0  0  0  2  0  0  0  0  0  0
  184.6290  179.6840  143.2710 C   0  0  0  0  0  3  0  0  0  0  0  0
  186.6020  177.9670  146.6970 C   0  0  0  0  0  0  0  0  0  0  0  0
  185.2400  178.3260  146.8580 N   0  0  0  0  0  0  0  0  0  0  0  0
  190.9760  176.7820  144.4450 C   0  0  0  0  0  3  0  0  0  0  0  0
  185.7110  178.9230  143.5030 C   0  0  0  0  0  3  0  0  0  0  0  0
  190.0250  176.9080  143.3300 C   0  0  0  0  0  0  0  0  0  0  0  0
  189.1980  177.3100  146.0380 C   0  0  0  0  0  0  0  0  0  0  0  0
  190.1460  177.2330  139.7450 C   0  0  2  0  0  3  0  0  0  0  0  0
  188.7690  177.2080  139.9770 O   0  0  0  0  0  1  0  0  0  0  0  0
  190.4620  176.5170  138.4740 C   0  0  0  0  0  0  0  0  0  0  0  0
  190.9030  175.2010  138.5190 O   0  0  0  0  0  1  0  0  0  0  0  0
  190.3130  177.0890  137.3620 O   0  0  0  0  0  0  0  0  0  0  0  0
  1 15  1  0  0  0  0
  2  1  2  0  0  0  0
  2 20  1  0  0  0  0
  4 18  1  6  0  0  0
  4  1  1  0  0  0  0
  4  8  1  0  0  0  0
  5 19  2  0  0  0  0
  6  9  2  0  0  0  0
  7  3  1  0  0  0  0
  8 16  2  0  0  0  0
  9  8  1  0  0  0  0
 10 20  1  0  0  0  0
 10 11  1  0  0  0  0
 12  5  2  0  0  0  0
 13  2  1  0  0  0  0
 14 18  2  0  0  0  0
 14  6  1  0  0  0  0
 15 16  1  0  0  0  0
 15  3  2  0  0  0  0
 17 10  2  0  0  0  0
 19 13  1  0  0  0  0
 19 17  1  0  0  0  0
 20  7  2  0  0  0  0
 21 22  1  1  0  0  0
 21 12  1  0  0  0  0
 23 24  1  0  0  0  0
 23 21  1  0  0  0  0
 25 23  2  0  0  0  0
M  END
>  <MODEL>
1

>  <REMARK>
 VINA RESULT:     -10.1      0.000      0.000
  Name = 
  2 active torsions:
  status: ('A' for Active; 'I' for Inactive)
    1  A    between atoms: C_2  and  C_21
    2  A    between atoms: C_15  and  C_21
                            x       y       z     vdW  Elec       q    Type
                         _______ _______ _______ _____ _____    ______ ____

>  <TORSDO>
F 2

$$$$
=
 OpenBabel10272400513D

 25 28  0  0  1  0  0  0  0  0999 V2000
  185.5350  178.1170  144.4030 C   0  0  0  0  0  0  0  0  0  0  0  0
  186.6740  177.9100  145.1830 C   0  0  0  0  0  0  0  0  0  0  0  0
  184.2780  178.8330  146.3180 C   0  0  0  0  0  3  0  0  0  0  0  0
  185.2780  177.8330  142.9660 C   0  0  1  0  0  3  0  0  0  0  0  0
  190.2750  177.0170  145.0710 C   0  0  0  0  0  0  0  0  0  0  0  0
  184.1420  179.0350  140.6080 C   0  0  0  0  0  3  0  0  0  0  0  0
  185.3910  178.6520  147.0870 N   0  0  0  0  0  0  0  0  0  0  0  0
  183.8490  178.3050  142.8740 C   0  0  0  0  0  0  0  0  0  0  0  0
  183.2860  178.6700  141.5720 C   0  0  0  0  0  3  0  0  0  0  0  0
  187.7500  178.0240  147.4460 C   0  0  0  0  0  0  0  0  0  0  0  0
  187.6480  178.2930  148.9070 C   0  0  0  0  0  1  0  0  0  0  0  0
  191.4500  176.6720  144.6220 C   0  0  0  0  0  3  0  0  0  0  0  0
  187.9310  177.3530  144.5700 C   0  0  0  0  0  2  0  0  0  0  0  0
  185.6030  179.1150  140.8750 C   0  0  0  0  0  3  0  0  0  0  0  0
  184.3590  178.5430  144.9620 C   0  0  0  0  0  0  0  0  0  0  0  0
  183.3310  178.6960  143.9980 N   0  0  0  0  0  0  0  0  0  0  0  0
  188.9260  177.6410  146.9480 C   0  0  0  0  0  3  0  0  0  0  0  0
  186.1340  178.6150  142.0030 C   0  0  0  0  0  3  0  0  0  0  0  0
  189.0990  177.3600  145.5150 C   0  0  0  0  0  0  0  0  0  0  0  0
  186.5760  178.2000  146.5650 C   0  0  0  0  0  0  0  0  0  0  0  0
  191.8180  176.9070  143.1950 C   0  0  2  0  0  3  0  0  0  0  0  0
  191.9230  178.2770  142.9420 O   0  0  0  0  0  1  0  0  0  0  0  0
  190.7950  176.2990  142.2950 C   0  0  0  0  0  0  0  0  0  0  0  0
  190.4920  176.9130  141.0870 O   0  0  0  0  0  0  0  0  0  0  0  0
  190.2210  175.2240  142.6110 O   0  0  0  0  0  1  0  0  0  0  0  0
  1 15  2  0  0  0  0
  1  2  1  0  0  0  0
  2 20  2  0  0  0  0
  3  7  2  0  0  0  0
  4 18  1  6  0  0  0
  4  1  1  0  0  0  0
  5 19  2  0  0  0  0
  6 14  1  0  0  0  0
  6  9  2  0  0  0  0
  8  4  1  0  0  0  0
  8 16  2  0  0  0  0
  9  8  1  0  0  0  0
 10 11  1  0  0  0  0
 12  5  2  0  0  0  0
 13  2  1  0  0  0  0
 13 19  1  0  0  0  0
 14 18  2  0  0  0  0
 15  3  1  0  0  0  0
 16 15  1  0  0  0  0
 17 10  2  0  0  0  0
 19 17  1  0  0  0  0
 20  7  1  0  0  0  0
 20 10  1  0  0  0  0
 21 22  1  1  0  0  0
 21 12  1  0  0  0  0
 23 25  1  0  0  0  0
 23 21  1  0  0  0  0
 24 23  2  0  0  0  0
M  END
>  <MODEL>
2

>  <REMARK>
 VINA RESULT:     -10.0      1.847      3.321
  Name = 
  2 active torsions:
  status: ('A' for Active; 'I' for Inactive)
    1  A    between atoms: C_2  and  C_21
    2  A    between atoms: C_15  and  C_21
                            x       y       z     vdW  Elec       q    Type
                         _______ _______ _______ _____ _____    ______ ____

>  <TORSDO>
F 2

$$$$
=
 OpenBabel10272400513D

 25 28  0  0  1  0  0  0  0  0999 V2000
  188.6110  177.6500  145.5630 C   0  0  0  0  0  0  0  0  0  0  0  0
  187.7290  177.9280  144.5170 C   0  0  0  0  0  0  0  0  0  0  0  0
  186.8240  177.6950  147.1640 C   0  0  0  0  0  3  0  0  0  0  0  0
  190.0930  177.5300  145.5760 C   0  0  1  0  0  3  0  0  0  0  0  0
  187.4460  178.2780  140.8330 C   0  0  0  0  0  0  0  0  0  0  0  0
  192.2000  175.8450  146.5850 C   0  0  0  0  0  3  0  0  0  0  0  0
  185.9510  177.9500  146.1470 N   0  0  0  0  0  0  0  0  0  0  0  0
  190.3030  177.2400  147.0410 C   0  0  0  0  0  0  0  0  0  0  0  0
  191.5360  176.5840  147.4830 C   0  0  0  0  0  3  0  0  0  0  0  0
  185.3670  178.3460  143.7830 C   0  0  0  0  0  0  0  0  0  0  0  0
  183.9280  178.5330  144.1200 C   0  0  0  0  0  1  0  0  0  0  0  0
  187.7580  178.3210  139.5670 C   0  0  0  0  0  3  0  0  0  0  0  0
  188.2390  178.1140  143.1130 C   0  0  0  0  0  2  0  0  0  0  0  0
  191.6700  175.6590  145.2070 C   0  0  0  0  0  3  0  0  0  0  0  0
  188.1720  177.5610  146.8580 C   0  0  0  0  0  0  0  0  0  0  0  0
  189.2240  177.2650  147.7610 N   0  0  0  0  0  0  0  0  0  0  0  0
  185.7360  178.4120  142.5040 C   0  0  0  0  0  3  0  0  0  0  0  0
  190.6440  176.3970  144.7500 C   0  0  0  0  0  3  0  0  0  0  0  0
  187.1390  178.2350  142.0980 C   0  0  0  0  0  0  0  0  0  0  0  0
  186.3590  178.0720  144.8440 C   0  0  0  0  0  0  0  0  0  0  0  0
  188.9820  177.6330  139.0620 C   0  0  2  0  0  3  0  0  0  0  0  0
  190.0350  177.7920  139.9650 O   0  0  0  0  0  1  0  0  0  0  0  0
  189.3660  178.1800  137.7280 C   0  0  0  0  0  0  0  0  0  0  0  0
  189.0530  179.4950  137.4100 O   0  0  0  0  0  1  0  0  0  0  0  0
  189.9890  177.4670  136.8980 O   0  0  0  0  0  0  0  0  0  0  0  0
  1  4  1  0  0  0  0
  1 15  1  0  0  0  0
  2 20  1  0  0  0  0
  2  1  2  0  0  0  0
  4 18  1  6  0  0  0
  4  8  1  0  0  0  0
  5 19  2  0  0  0  0
  6  9  2  0  0  0  0
  7  3  1  0  0  0  0
  8  9  1  0  0  0  0
  8 16  2  0  0  0  0
 10 11  1  0  0  0  0
 10 20  1  0  0  0  0
 12  5  2  0  0  0  0
 13  2  1  0  0  0  0
 14  6  1  0  0  0  0
 15  3  2  0  0  0  0
 15 16  1  0  0  0  0
 17 10  2  0  0  0  0
 18 14  2  0  0  0  0
 19 17  1  0  0  0  0
 19 13  1  0  0  0  0
 20  7  2  0  0  0  0
 21 12  1  0  0  0  0
 21 22  1  1  0  0  0
 23 21  1  0  0  0  0
 24 23  1  0  0  0  0
 25 23  2  0  0  0  0
M  END
>  <MODEL>
3

>  <REMARK>
 VINA RESULT:      -9.7      1.467      4.825
  Name = 
  2 active torsions:
  status: ('A' for Active; 'I' for Inactive)
    1  A    between atoms: C_2  and  C_21
    2  A    between atoms: C_15  and  C_21
                            x       y       z     vdW  Elec       q    Type
                         _______ _______ _______ _____ _____    ______ ____

>  <TORSDO>
F 2

$$$$
=
 OpenBabel10272400513D

 25 28  0  0  1  0  0  0  0  0999 V2000
  187.8700  177.8080  144.4760 C   0  0  0  0  0  0  0  0  0  0  0  0
  186.6820  178.1500  143.8280 C   0  0  0  0  0  0  0  0  0  0  0  0
  186.7750  177.8040  146.6120 C   0  0  0  0  0  3  0  0  0  0  0  0
  189.2530  177.6630  143.9530 C   0  0  1  0  0  3  0  0  0  0  0  0
  185.1120  178.6820  140.5060 C   0  0  0  0  0  0  0  0  0  0  0  0
  191.5260  175.8980  144.0720 C   0  0  0  0  0  3  0  0  0  0  0  0
  185.6050  178.1220  145.9870 N   0  0  0  0  0  0  0  0  0  0  0  0
  189.9640  177.2990  145.2320 C   0  0  0  0  0  0  0  0  0  0  0  0
  191.2510  176.6030  145.1770 C   0  0  0  0  0  3  0  0  0  0  0  0
  184.2280  178.6410  144.0060 C   0  0  0  0  0  0  0  0  0  0  0  0
  183.0120  178.8350  144.8440 C   0  0  0  0  0  1  0  0  0  0  0  0
  184.9530  178.7810  139.2150 C   0  0  0  0  0  3  0  0  0  0  0  0
  186.6620  178.3960  142.3430 C   0  0  0  0  0  2  0  0  0  0  0  0
  190.5340  175.7870  142.9700 C   0  0  0  0  0  3  0  0  0  0  0  0
  187.9200  177.6640  145.8380 C   0  0  0  0  0  0  0  0  0  0  0  0
  189.2140  177.3070  146.2920 N   0  0  0  0  0  0  0  0  0  0  0  0
  184.1180  178.7620  142.6830 C   0  0  0  0  0  3  0  0  0  0  0  0
  189.4360  176.5620  142.9400 C   0  0  0  0  0  3  0  0  0  0  0  0
  185.2770  178.5830  141.7950 C   0  0  0  0  0  0  0  0  0  0  0  0
  185.5240  178.3000  144.6300 C   0  0  0  0  0  0  0  0  0  0  0  0
  185.8920  178.0980  138.2790 C   0  0  2  0  0  3  0  0  0  0  0  0
  186.6520  179.0400  137.5830 O   0  0  0  0  0  1  0  0  0  0  0  0
  185.1310  177.2460  137.3190 C   0  0  0  0  0  0  0  0  0  0  0  0
  183.9760  176.6000  137.7410 O   0  0  0  0  0  1  0  0  0  0  0  0
  185.5150  177.1230  136.1260 O   0  0  0  0  0  0  0  0  0  0  0  0
  1 15  1  0  0  0  0
  2  1  2  0  0  0  0
  2 20  1  0  0  0  0
  4 18  1  6  0  0  0
  4  1  1  0  0  0  0
  4  8  1  0  0  0  0
  5 19  2  0  0  0  0
  6  9  2  0  0  0  0
  7  3  1  0  0  0  0
  8 16  2  0  0  0  0
  9  8  1  0  0  0  0
 10 20  1  0  0  0  0
 10 11  1  0  0  0  0
 12  5  2  0  0  0  0
 13  2  1  0  0  0  0
 14  6  1  0  0  0  0
 15 16  1  0  0  0  0
 15  3  2  0  0  0  0
 17 10  2  0  0  0  0
 18 14  2  0  0  0  0
 19 13  1  0  0  0  0
 19 17  1  0  0  0  0
 20  7  2  0  0  0  0
 21 22  1  6  0  0  0
 21 12  1  0  0  0  0
 23 24  1  0  0  0  0
 23 21  1  0  0  0  0
 25 23  2  0  0  0  0
M  END
>  <MODEL>
4

>  <REMARK>
 VINA RESULT:      -9.6      2.566      5.469
  Name = 
  2 active torsions:
  status: ('A' for Active; 'I' for Inactive)
    1  A    between atoms: C_2  and  C_21
    2  A    between atoms: C_15  and  C_21
                            x       y       z     vdW  Elec       q    Type
                         _______ _______ _______ _____ _____    ______ ____

>  <TORSDO>
F 2

$$$$
=
 OpenBabel10272400513D

 25 28  0  0  1  0  0  0  0  0999 V2000
  189.7800  177.7310  143.9310 C   0  0  0  0  0  0  0  0  0  0  0  0
  188.6940  177.8540  144.8000 C   0  0  0  0  0  0  0  0  0  0  0  0
  191.2340  177.1090  145.7360 C   0  0  0  0  0  3  0  0  0  0  0  0
  189.9000  178.0310  142.4800 C   0  0  1  0  0  3  0  0  0  0  0  0
  185.0400  178.4820  144.9790 C   0  0  0  0  0  0  0  0  0  0  0  0
  190.9290  176.9130  140.0330 C   0  0  0  0  0  3  0  0  0  0  0  0
  190.1760  177.2090  146.5920 N   0  0  0  0  0  0  0  0  0  0  0  0
  191.3480  177.6650  142.2710 C   0  0  0  0  0  0  0  0  0  0  0  0
  191.8300  177.3410  140.9270 C   0  0  0  0  0  3  0  0  0  0  0  0
  187.8130  177.6630  147.1410 C   0  0  0  0  0  0  0  0  0  0  0  0
  188.0510  177.4040  148.5880 C   0  0  0  0  0  1  0  0  0  0  0  0
  183.8110  178.7400  144.6270 C   0  0  0  0  0  3  0  0  0  0  0  0
  187.3550  178.3170  144.2920 C   0  0  0  0  0  2  0  0  0  0  0  0
  189.5030  176.7270  140.4140 C   0  0  0  0  0  3  0  0  0  0  0  0
  191.0240  177.3910  144.3920 C   0  0  0  0  0  0  0  0  0  0  0  0
  191.9800  177.3130  143.3480 N   0  0  0  0  0  0  0  0  0  0  0  0
  186.5770  177.9600  146.7400 C   0  0  0  0  0  3  0  0  0  0  0  0
  189.0290  177.1880  141.5840 C   0  0  0  0  0  3  0  0  0  0  0  0
  186.2700  178.2260  145.3260 C   0  0  0  0  0  0  0  0  0  0  0  0
  188.9230  177.5730  146.1690 C   0  0  0  0  0  0  0  0  0  0  0  0
  183.3490  178.4770  143.2330 C   0  0  2  0  0  3  0  0  0  0  0  0
  184.1070  179.2190  142.3240 O   0  0  0  0  0  1  0  0  0  0  0  0
  181.9040  178.8250  143.0970 C   0  0  0  0  0  0  0  0  0  0  0  0
  181.3960  179.1700  141.8510 O   0  0  0  0  0  0  0  0  0  0  0  0
  181.1390  178.7890  144.0960 O   0  0  0  0  0  1  0  0  0  0  0  0
  1 15  2  0  0  0  0
  1  2  1  0  0  0  0
  2 20  2  0  0  0  0
  3  7  2  0  0  0  0
  4 18  1  6  0  0  0
  4  1  1  0  0  0  0
  5 19  2  0  0  0  0
  6 14  1  0  0  0  0
  6  9  2  0  0  0  0
  8  4  1  0  0  0  0
  8 16  2  0  0  0  0
  9  8  1  0  0  0  0
 10 11  1  0  0  0  0
 12  5  2  0  0  0  0
 13  2  1  0  0  0  0
 13 19  1  0  0  0  0
 14 18  2  0  0  0  0
 15  3  1  0  0  0  0
 16 15  1  0  0  0  0
 17 10  2  0  0  0  0
 19 17  1  0  0  0  0
 20  7  1  0  0  0  0
 20 10  1  0  0  0  0
 21 22  1  6  0  0  0
 21 12  1  0  0  0  0
 23 21  1  0  0  0  0
 23 25  1  0  0  0  0
 24 23  2  0  0  0  0
M  END
>  <MODEL>
5

>  <REMARK>
 VINA RESULT:      -9.5      3.008      6.478
  Name = 
  2 active torsions:
  status: ('A' for Active; 'I' for Inactive)
    1  A    between atoms: C_2  and  C_21
    2  A    between atoms: C_15  and  C_21
                            x       y       z     vdW  Elec       q    Type
                         _______ _______ _______ _____ _____    ______ ____

>  <TORSDO>
F 2

$$$$
=
 OpenBabel10272400513D

 25 28  0  0  1  0  0  0  0  0999 V2000
  188.8760  177.5320  145.4240 C   0  0  0  0  0  0  0  0  0  0  0  0
  188.1310  177.8230  144.2800 C   0  0  0  0  0  0  0  0  0  0  0  0
  186.9040  177.5640  146.7910 C   0  0  0  0  0  3  0  0  0  0  0  0
  190.3440  177.4070  145.6210 C   0  0  1  0  0  3  0  0  0  0  0  0
  188.3090  178.2160  140.5930 C   0  0  0  0  0  0  0  0  0  0  0  0
  192.3070  175.7050  146.8640 C   0  0  0  0  0  3  0  0  0  0  0  0
  186.1640  177.8320  145.6770 N   0  0  0  0  0  0  0  0  0  0  0  0
  190.3700  177.1000  147.0960 C   0  0  0  0  0  0  0  0  0  0  0  0
  191.5380  176.4360  147.6810 C   0  0  0  0  0  3  0  0  0  0  0  0
  185.8790  178.2570  143.2630 C   0  0  0  0  0  0  0  0  0  0  0  0
  184.4100  178.4440  143.4210 C   0  0  0  0  0  1  0  0  0  0  0  0
  188.7770  178.2720  139.3770 C   0  0  0  0  0  3  0  0  0  0  0  0
  188.8120  178.0240  142.9530 C   0  0  0  0  0  2  0  0  0  0  0  0
  191.9530  175.5360  145.4290 C   0  0  0  0  0  3  0  0  0  0  0  0
  188.2790  177.4300  146.6530 C   0  0  0  0  0  0  0  0  0  0  0  0
  189.2100  177.1210  147.6770 N   0  0  0  0  0  0  0  0  0  0  0  0
  186.4050  178.3350  142.0400 C   0  0  0  0  0  3  0  0  0  0  0  0
  190.9930  176.2810  144.8560 C   0  0  0  0  0  3  0  0  0  0  0  0
  187.8470  178.1590  141.8100 C   0  0  0  0  0  0  0  0  0  0  0  0
  186.7310  177.9680  144.4360 C   0  0  0  0  0  0  0  0  0  0  0  0
  190.0520  177.5850  139.0200 C   0  0  2  0  0  3  0  0  0  0  0  0
  189.7930  176.4600  138.2340 O   0  0  0  0  0  1  0  0  0  0  0  0
  190.7830  177.1850  140.2580 C   0  0  0  0  0  0  0  0  0  0  0  0
  190.4620  175.9900  140.8890 O   0  0  0  0  0  1  0  0  0  0  0  0
  191.7010  177.9110  140.7230 O   0  0  0  0  0  0  0  0  0  0  0  0
  1  4  1  0  0  0  0
  1 15  1  0  0  0  0
  2 20  1  0  0  0  0
  2  1  2  0  0  0  0
  4 18  1  6  0  0  0
  4  8  1  0  0  0  0
  5 19  2  0  0  0  0
  6  9  2  0  0  0  0
  7  3  1  0  0  0  0
  8 16  2  0  0  0  0
  8  9  1  0  0  0  0
 10 11  1  0  0  0  0
 10 20  1  0  0  0  0
 12  5  2  0  0  0  0
 13  2  1  0  0  0  0
 14  6  1  0  0  0  0
 15  3  2  0  0  0  0
 15 16  1  0  0  0  0
 17 10  2  0  0  0  0
 18 14  2  0  0  0  0
 19 17  1  0  0  0  0
 19 13  1  0  0  0  0
 20  7  2  0  0  0  0
 21 22  1  6  0  0  0
 21 12  1  0  0  0  0
 21 23  1  0  0  0  0
 23 25  2  0  0  0  0
 23 24  1  0  0  0  0
M  END
>  <MODEL>
6

>  <REMARK>
 VINA RESULT:      -9.5      1.443      4.806
  Name = 
  2 active torsions:
  status: ('A' for Active; 'I' for Inactive)
    1  A    between atoms: C_2  and  C_21
    2  A    between atoms: C_15  and  C_21
                            x       y       z     vdW  Elec       q    Type
                         _______ _______ _______ _____ _____    ______ ____

>  <TORSDO>
F 2

$$$$
=
 OpenBabel10272400513D

 25 28  0  0  1  0  0  0  0  0999 V2000
  188.1420  177.5840  144.5070 C   0  0  0  0  0  0  0  0  0  0  0  0
  187.4090  177.8390  143.3470 C   0  0  0  0  0  0  0  0  0  0  0  0
  190.2060  177.6090  143.2820 C   0  0  0  0  0  3  0  0  0  0  0  0
  187.6940  177.2890  145.8930 C   0  0  1  0  0  3  0  0  0  0  0  0
  184.0130  178.5540  142.0310 C   0  0  0  0  0  0  0  0  0  0  0  0
  188.2290  178.0140  148.6290 C   0  0  0  0  0  3  0  0  0  0  0  0
  189.5010  177.8760  142.1460 N   0  0  0  0  0  0  0  0  0  0  0  0
  189.0370  177.1180  146.5560 C   0  0  0  0  0  0  0  0  0  0  0  0
  189.1570  177.2750  148.0080 C   0  0  0  0  0  3  0  0  0  0  0  0
  187.4240  178.2850  140.8780 C   0  0  0  0  0  0  0  0  0  0  0  0
  188.1740  178.4140  139.5980 C   0  0  0  0  0  1  0  0  0  0  0  0
  182.7260  178.7600  141.9760 C   0  0  0  0  0  3  0  0  0  0  0  0
  185.9060  177.8950  143.3870 C   0  0  0  0  0  2  0  0  0  0  0  0
  187.1500  178.6900  147.8600 C   0  0  0  0  0  3  0  0  0  0  0  0
  189.5050  177.4470  144.4710 C   0  0  0  0  0  0  0  0  0  0  0  0
  190.0540  177.1990  145.7540 N   0  0  0  0  0  0  0  0  0  0  0  0
  186.1020  178.4580  140.8640 C   0  0  0  0  0  3  0  0  0  0  0  0
  186.9350  178.4050  146.5650 C   0  0  0  0  0  3  0  0  0  0  0  0
  185.2980  178.3470  142.0910 C   0  0  0  0  0  0  0  0  0  0  0  0
  188.1350  177.9920  142.1410 C   0  0  0  0  0  0  0  0  0  0  0  0
  181.9740  179.1980  143.1870 C   0  0  2  0  0  3  0  0  0  0  0  0
  182.6390  178.7880  144.3450 O   0  0  0  0  0  1  0  0  0  0  0  0
  180.5920  178.6340  143.1660 C   0  0  0  0  0  0  0  0  0  0  0  0
  179.9850  178.3530  141.9490 O   0  0  0  0  0  0  0  0  0  0  0  0
  179.9820  178.3920  144.2400 O   0  0  0  0  0  1  0  0  0  0  0  0
  1  4  1  0  0  0  0
  2 13  1  0  0  0  0
  2  1  2  0  0  0  0
  3 15  2  0  0  0  0
  4  8  1  0  0  0  0
  4 18  1  1  0  0  0
  5 19  2  0  0  0  0
  7  3  1  0  0  0  0
  8  9  1  0  0  0  0
  9  6  2  0  0  0  0
 10 20  1  0  0  0  0
 11 10  1  0  0  0  0
 12  5  2  0  0  0  0
 12 21  1  0  0  0  0
 14  6  1  0  0  0  0
 15  1  1  0  0  0  0
 15 16  1  0  0  0  0
 16  8  2  0  0  0  0
 17 10  2  0  0  0  0
 17 19  1  0  0  0  0
 18 14  2  0  0  0  0
 19 13  1  0  0  0  0
 20  7  2  0  0  0  0
 20  2  1  0  0  0  0
 21 22  1  1  0  0  0
 23 21  1  0  0  0  0
 23 25  1  0  0  0  0
 24 23  2  0  0  0  0
M  END
>  <MODEL>
7

>  <REMARK>
 VINA RESULT:      -9.5      3.888      6.705
  Name = 
  2 active torsions:
  status: ('A' for Active; 'I' for Inactive)
    1  A    between atoms: C_2  and  C_21
    2  A    between atoms: C_15  and  C_21
                            x       y       z     vdW  Elec       q    Type
                         _______ _______ _______ _____ _____    ______ ____

>  <TORSDO>
F 2

$$$$
=
 OpenBabel10272400513D

 25 28  0  0  1  0  0  0  0  0999 V2000
  184.2510  178.8230  143.5010 C   0  0  0  0  0  0  0  0  0  0  0  0
  183.9570  178.7640  142.1380 C   0  0  0  0  0  0  0  0  0  0  0  0
  181.9180  178.8540  144.0640 C   0  0  0  0  0  3  0  0  0  0  0  0
  185.5510  178.9520  144.2090 C   0  0  1  0  0  3  0  0  0  0  0  0
  185.4410  178.4120  138.7540 C   0  0  0  0  0  0  0  0  0  0  0  0
  187.0250  177.8400  146.4200 C   0  0  0  0  0  3  0  0  0  0  0  0
  181.6200  178.7790  142.7350 N   0  0  0  0  0  0  0  0  0  0  0  0
  185.0570  178.9620  145.6340 C   0  0  0  0  0  0  0  0  0  0  0  0
  185.9690  178.6060  146.7230 C   0  0  0  0  0  3  0  0  0  0  0  0
  182.2080  178.6530  140.3420 C   0  0  0  0  0  0  0  0  0  0  0  0
  180.7740  178.6570  139.9410 C   0  0  0  0  0  1  0  0  0  0  0  0
  186.3150  178.2830  137.7940 C   0  0  0  0  0  3  0  0  0  0  0  0
  185.0610  178.7830  141.1150 C   0  0  0  0  0  2  0  0  0  0  0  0
  187.2280  177.3310  145.0370 C   0  0  0  0  0  3  0  0  0  0  0  0
  183.2550  178.8920  144.4400 C   0  0  0  0  0  0  0  0  0  0  0  0
  183.7660  178.9360  145.7610 N   0  0  0  0  0  0  0  0  0  0  0  0
  183.1380  178.5530  139.3910 C   0  0  0  0  0  3  0  0  0  0  0  0
  186.4990  177.7980  144.0090 C   0  0  0  0  0  3  0  0  0  0  0  0
  184.5720  178.5410  139.7160 C   0  0  0  0  0  0  0  0  0  0  0  0
  182.5910  178.7360  141.7680 C   0  0  0  0  0  0  0  0  0  0  0  0
  187.6720  177.7270  138.0700 C   0  0  2  0  0  3  0  0  0  0  0  0
  187.9960  177.8900  139.4190 O   0  0  0  0  0  1  0  0  0  0  0  0
  188.6890  178.4050  137.2150 C   0  0  0  0  0  0  0  0  0  0  0  0
  188.9660  179.7510  137.4140 O   0  0  0  0  0  1  0  0  0  0  0  0
  189.3130  177.7630  136.3290 O   0  0  0  0  0  0  0  0  0  0  0  0
  1  4  1  0  0  0  0
  1 15  1  0  0  0  0
  2  1  2  0  0  0  0
  3 15  2  0  0  0  0
  4 18  1  1  0  0  0
  4  8  1  0  0  0  0
  5 19  2  0  0  0  0
  6  9  2  0  0  0  0
  7  3  1  0  0  0  0
  8 16  2  0  0  0  0
  8  9  1  0  0  0  0
 10 20  1  0  0  0  0
 11 10  1  0  0  0  0
 12 21  1  0  0  0  0
 12  5  2  0  0  0  0
 13  2  1  0  0  0  0
 14  6  1  0  0  0  0
 15 16  1  0  0  0  0
 17 19  1  0  0  0  0
 17 10  2  0  0  0  0
 18 14  2  0  0  0  0
 19 13  1  0  0  0  0
 20  2  1  0  0  0  0
 20  7  2  0  0  0  0
 21 22  1  1  0  0  0
 23 24  1  0  0  0  0
 23 21  1  0  0  0  0
 25 23  2  0  0  0  0
M  END
>  <MODEL>
8

>  <REMARK>
 VINA RESULT:      -9.5      2.854      5.799
  Name = 
  2 active torsions:
  status: ('A' for Active; 'I' for Inactive)
    1  A    between atoms: C_2  and  C_21
    2  A    between atoms: C_15  and  C_21
                            x       y       z     vdW  Elec       q    Type
                         _______ _______ _______ _____ _____    ______ ____

>  <TORSDO>
F 2

$$$$
=
 OpenBabel10272400513D

 25 28  0  0  1  0  0  0  0  0999 V2000
  187.9200  177.7900  144.1780 C   0  0  0  0  0  0  0  0  0  0  0  0
  186.8070  178.1220  143.4050 C   0  0  0  0  0  0  0  0  0  0  0  0
  186.6050  177.7960  146.1860 C   0  0  0  0  0  3  0  0  0  0  0  0
  189.3530  177.6480  143.8070 C   0  0  1  0  0  3  0  0  0  0  0  0
  185.5980  178.6260  139.9320 C   0  0  0  0  0  0  0  0  0  0  0  0
  191.6070  175.8940  144.1790 C   0  0  0  0  0  3  0  0  0  0  0  0
  185.5070  178.1030  145.4370 N   0  0  0  0  0  0  0  0  0  0  0  0
  189.9240  177.2960  145.1570 C   0  0  0  0  0  0  0  0  0  0  0  0
  191.2130  176.6060  145.2430 C   0  0  0  0  0  3  0  0  0  0  0  0
  184.3460  178.6030  143.3180 C   0  0  0  0  0  0  0  0  0  0  0  0
  183.0470  178.7970  144.0200 C   0  0  0  0  0  1  0  0  0  0  0  0
  185.5760  178.7150  138.6310 C   0  0  0  0  0  3  0  0  0  0  0  0
  186.9440  178.3580  141.9250 C   0  0  0  0  0  2  0  0  0  0  0  0
  190.7370  175.7720  142.9780 C   0  0  0  0  0  3  0  0  0  0  0  0
  187.8260  177.6550  145.5390 C   0  0  0  0  0  0  0  0  0  0  0  0
  189.0660  177.3080  146.1300 N   0  0  0  0  0  0  0  0  0  0  0  0
  184.3770  178.7150  141.9900 C   0  0  0  0  0  3  0  0  0  0  0  0
  189.6460  176.5420  142.8260 C   0  0  0  0  0  3  0  0  0  0  0  0
  185.6240  178.5350  141.2310 C   0  0  0  0  0  0  0  0  0  0  0  0
  185.5700  178.2730  144.0780 C   0  0  0  0  0  0  0  0  0  0  0  0
  186.6120  178.0300  137.8040 C   0  0  2  0  0  3  0  0  0  0  0  0
  186.2530  176.6980  137.5850 O   0  0  0  0  0  1  0  0  0  0  0  0
  187.9380  178.0960  138.4860 C   0  0  0  0  0  0  0  0  0  0  0  0
  188.4480  176.9630  139.1050 O   0  0  0  0  0  1  0  0  0  0  0  0
  188.6070  179.1630  138.4850 O   0  0  0  0  0  0  0  0  0  0  0  0
  1 15  1  0  0  0  0
  2 20  1  0  0  0  0
  2  1  2  0  0  0  0
  4 18  1  6  0  0  0
  4  1  1  0  0  0  0
  4  8  1  0  0  0  0
  5 19  2  0  0  0  0
  6  9  2  0  0  0  0
  7  3  1  0  0  0  0
  8  9  1  0  0  0  0
  8 16  2  0  0  0  0
 10 11  1  0  0  0  0
 10 20  1  0  0  0  0
 12  5  2  0  0  0  0
 13  2  1  0  0  0  0
 14  6  1  0  0  0  0
 15 16  1  0  0  0  0
 15  3  2  0  0  0  0
 17 10  2  0  0  0  0
 18 14  2  0  0  0  0
 19 13  1  0  0  0  0
 19 17  1  0  0  0  0
 20  7  2  0  0  0  0
 21 22  1  1  0  0  0
 21 23  1  0  0  0  0
 21 12  1  0  0  0  0
 23 24  1  0  0  0  0
 25 23  2  0  0  0  0
M  END
>  <MODEL>
9

>  <REMARK>
 VINA RESULT:      -9.4      2.077      5.177
  Name = 
  2 active torsions:
  status: ('A' for Active; 'I' for Inactive)
    1  A    between atoms: C_2  and  C_21
    2  A    between atoms: C_15  and  C_21
                            x       y       z     vdW  Elec       q    Type
                         _______ _______ _______ _____ _____    ______ ____

>  <TORSDO>
F 2

$$$$
