=
 OpenBabel10262423423D

 34 39  0  0  1  0  0  0  0  0999 V2000
  189.4150  177.2870  146.5270 C   0  0  0  0  0  0  0  0  0  0  0  0
  191.2360  176.3340  145.2940 C   0  0  0  0  0  0  0  0  0  0  0  0
  189.0450  176.9630  144.0350 C   0  0  1  0  0  3  0  0  0  0  0  0
  188.7150  177.4990  141.7740 C   0  0  2  0  0  3  0  0  0  0  0  0
  191.4920  176.9110  147.5760 C   0  0  0  0  0  3  0  0  0  0  0  0
  191.9850  176.3870  146.4260 N   0  0  0  0  0  0  0  0  0  0  0  0
  190.8840  177.5550  142.4640 C   0  0  0  0  0  2  0  0  0  0  0  0
  189.9460  176.9090  145.2770 C   0  0  0  0  0  0  0  0  0  0  0  0
  189.4410  178.0320  140.5650 C   0  0  0  0  0  2  0  0  0  0  0  0
  190.2030  177.3280  147.6310 N   0  0  0  0  0  0  0  0  0  0  0  0
  187.6650  177.5700  144.3920 C   0  0  1  0  0  3  0  0  0  0  0  0
  188.0070  177.4970  146.6530 N   0  0  0  0  0  2  0  0  0  0  0  0
  191.7260  175.5830  144.1890 N   0  0  0  0  0  1  0  0  0  0  0  0
  187.3020  178.0470  141.9480 C   0  0  0  0  0  2  0  0  0  0  0  0
  186.6850  177.4360  143.2160 C   0  0  2  0  0  3  0  0  0  0  0  0
  190.8990  177.9330  140.9860 C   0  0  2  0  0  3  0  0  0  0  0  0
  189.5360  177.8200  142.9390 N   0  0  2  0  0  0  0  0  0  0  0  0
  187.1430  177.0400  145.6420 N   0  0  0  0  0  2  0  0  0  0  0  0
  183.1630  178.7540  142.7510 C   0  0  0  0  0  0  0  0  0  0  0  0
  182.8790  179.2680  144.0200 C   0  0  0  0  0  3  0  0  0  0  0  0
  185.3650  178.0790  143.5120 C   0  0  0  0  0  0  0  0  0  0  0  0
  183.8350  179.1910  145.0370 C   0  0  0  0  0  3  0  0  0  0  0  0
  184.4030  178.1600  142.4990 C   0  0  0  0  0  3  0  0  0  0  0  0
  185.0750  178.5970  144.7840 C   0  0  0  0  0  3  0  0  0  0  0  0
  181.9660  178.8520  141.4790 Cl  0  0  0  0  0  0  0  0  0  0  0  0
  191.6560  176.9740  140.1740 N   0  0  0  0  0  2  0  0  0  0  0  0
  190.9130  176.5890  138.9760 C   0  0  0  0  0  2  0  0  0  0  0  0
  190.1510  174.1990  137.6070 F   0  0  0  0  0  0  0  0  0  0  0  0
  191.8150  175.8700  138.0330 C   0  0  0  0  0  0  0  0  0  0  0  0
  191.3880  174.7050  137.3780 C   0  0  0  0  0  0  0  0  0  0  0  0
  193.5190  174.5700  136.2320 C   0  0  0  0  0  3  0  0  0  0  0  0
  193.9430  175.7330  136.8790 C   0  0  0  0  0  3  0  0  0  0  0  0
  193.0910  176.3850  137.7770 C   0  0  0  0  0  3  0  0  0  0  0  0
  192.2420  174.0570  136.4810 C   0  0  0  0  0  3  0  0  0  0  0  0
  1 12  1  0  0  0  0
  1 10  2  0  0  0  0
  2  6  1  0  0  0  0
  3 11  1  0  0  0  0
  3  8  1  1  0  0  0
  4  9  1  6  0  0  0
  4 14  1  0  0  0  0
  4 17  1  0  0  0  0
  5 10  1  0  0  0  0
  6  5  2  0  0  0  0
  8  2  2  0  0  0  0
  8  1  1  0  0  0  0
  9 16  1  0  0  0  0
 11 18  1  1  0  0  0
 13  2  1  0  0  0  0
 14 15  1  0  0  0  0
 15 21  1  1  0  0  0
 15 11  1  0  0  0  0
 16 26  1  6  0  0  0
 16  7  1  0  0  0  0
 17  7  1  6  0  0  0
 17  3  1  0  0  0  0
 18 12  1  0  0  0  0
 19 20  1  0  0  0  0
 20 22  2  0  0  0  0
 21 24  2  0  0  0  0
 23 19  2  0  0  0  0
 23 21  1  0  0  0  0
 24 22  1  0  0  0  0
 25 19  1  0  0  0  0
 27 26  1  0  0  0  0
 29 27  1  0  0  0  0
 30 28  1  0  0  0  0
 30 29  2  0  0  0  0
 31 34  2  0  0  0  0
 31 32  1  0  0  0  0
 32 33  2  0  0  0  0
 33 29  1  0  0  0  0
 34 30  1  0  0  0  0
M  END
>  <MODEL>
1

>  <REMARK>
 VINA RESULT:     -10.3      0.000      0.000
  Name = 
  4 active torsions:
  status: ('A' for Active; 'I' for Inactive)
    1  A    between atoms: C_3  and  C_13
    2  A    between atoms: C_3  and  N_17
    3  A    between atoms: C_12  and  C_28
    4  A    between atoms: N_17  and  C_29
                            x       y       z     vdW  Elec       q    Type
                         _______ _______ _______ _____ _____    ______ ____

>  <TORSDO>
F 4

$$$$
=
 OpenBabel10262423423D

 34 39  0  0  1  0  0  0  0  0999 V2000
  190.8940  177.3210  141.4250 C   0  0  0  0  0  0  0  0  0  0  0  0
  189.4840  177.0680  139.5030 C   0  0  0  0  0  0  0  0  0  0  0  0
  188.3930  177.2360  141.8610 C   0  0  1  0  0  3  0  0  0  0  0  0
  186.2430  177.9510  142.4720 C   0  0  2  0  0  3  0  0  0  0  0  0
  191.8180  177.3910  139.2580 C   0  0  0  0  0  3  0  0  0  0  0  0
  190.5910  177.1750  138.7210 N   0  0  0  0  0  0  0  0  0  0  0  0
  186.8710  178.5050  140.3540 C   0  0  0  0  0  2  0  0  0  0  0  0
  189.5880  177.2680  140.8970 C   0  0  0  0  0  0  0  0  0  0  0  0
  185.1030  178.8140  141.9950 C   0  0  0  0  0  2  0  0  0  0  0  0
  191.9690  177.4310  140.6040 N   0  0  0  0  0  0  0  0  0  0  0  0
  188.8740  177.3920  143.3260 C   0  0  1  0  0  3  0  0  0  0  0  0
  191.0890  177.1210  142.8270 N   0  0  0  0  0  2  0  0  0  0  0  0
  188.2700  176.6290  138.9060 N   0  0  0  0  0  1  0  0  0  0  0  0
  186.5340  178.0670  143.9640 C   0  0  0  0  0  2  0  0  0  0  0  0
  187.7190  177.1500  144.3120 C   0  0  2  0  0  3  0  0  0  0  0  0
  185.4620  179.0610  140.5380 C   0  0  2  0  0  3  0  0  0  0  0  0
  187.4170  178.3290  141.6900 N   0  0  2  0  0  0  0  0  0  0  0  0
  190.0490  176.5830  143.6040 N   0  0  0  0  0  2  0  0  0  0  0  0
  189.8710  177.2410  147.4280 C   0  0  0  0  0  0  0  0  0  0  0  0
  188.9830  177.7580  148.3760 C   0  0  0  0  0  3  0  0  0  0  0  0
  188.1430  177.3660  145.7320 C   0  0  0  0  0  0  0  0  0  0  0  0
  187.6740  178.0800  148.0060 C   0  0  0  0  0  3  0  0  0  0  0  0
  189.4520  177.0460  146.1100 C   0  0  0  0  0  3  0  0  0  0  0  0
  187.2540  177.8860  146.6860 C   0  0  0  0  0  3  0  0  0  0  0  0
  191.5090  176.8380  147.8930 Cl  0  0  0  0  0  0  0  0  0  0  0  0
  184.5000  178.4580  139.6100 N   0  0  0  0  0  2  0  0  0  0  0  0
  183.2580  178.0990  140.2910 C   0  0  0  0  0  2  0  0  0  0  0  0
  180.9860  178.5190  141.9730 F   0  0  0  0  0  0  0  0  0  0  0  0
  182.2110  179.1170  140.0020 C   0  0  0  0  0  0  0  0  0  0  0  0
  181.1190  179.2910  140.8670 C   0  0  0  0  0  0  0  0  0  0  0  0
  180.2840  181.0740  139.4530 C   0  0  0  0  0  3  0  0  0  0  0  0
  181.3740  180.9060  138.5940 C   0  0  0  0  0  3  0  0  0  0  0  0
  182.3380  179.9310  138.8700 C   0  0  0  0  0  3  0  0  0  0  0  0
  180.1570  180.2670  140.5880 C   0  0  0  0  0  3  0  0  0  0  0  0
  1 12  1  0  0  0  0
  2  8  2  0  0  0  0
  3  8  1  6  0  0  0
  3 11  1  0  0  0  0
  4  9  1  6  0  0  0
  4 14  1  0  0  0  0
  5 10  1  0  0  0  0
  6  5  2  0  0  0  0
  6  2  1  0  0  0  0
  7 16  1  0  0  0  0
  8  1  1  0  0  0  0
 10  1  2  0  0  0  0
 11 18  1  1  0  0  0
 11 15  1  0  0  0  0
 12 18  1  0  0  0  0
 13  2  1  0  0  0  0
 14 15  1  0  0  0  0
 15 21  1  1  0  0  0
 16 26  1  6  0  0  0
 16  9  1  0  0  0  0
 17  7  1  6  0  0  0
 17  3  1  0  0  0  0
 17  4  1  0  0  0  0
 19 25  1  0  0  0  0
 19 20  1  0  0  0  0
 21 23  1  0  0  0  0
 21 24  2  0  0  0  0
 22 20  2  0  0  0  0
 23 19  2  0  0  0  0
 24 22  1  0  0  0  0
 26 27  1  0  0  0  0
 29 27  1  0  0  0  0
 29 30  1  0  0  0  0
 30 28  1  0  0  0  0
 31 34  1  0  0  0  0
 32 33  1  0  0  0  0
 32 31  2  0  0  0  0
 33 29  2  0  0  0  0
 34 30  2  0  0  0  0
M  END
>  <MODEL>
2

>  <REMARK>
 VINA RESULT:      -9.9      3.697      7.725
  Name = 
  4 active torsions:
  status: ('A' for Active; 'I' for Inactive)
    1  A    between atoms: C_3  and  C_13
    2  A    between atoms: C_3  and  N_17
    3  A    between atoms: C_12  and  C_28
    4  A    between atoms: N_17  and  C_29
                            x       y       z     vdW  Elec       q    Type
                         _______ _______ _______ _____ _____    ______ ____

>  <TORSDO>
F 4

$$$$
=
 OpenBabel10262423423D

 34 39  0  0  1  0  0  0  0  0999 V2000
  188.2070  177.3950  138.9900 C   0  0  0  0  0  0  0  0  0  0  0  0
  189.3110  177.8200  141.0740 C   0  0  0  0  0  0  0  0  0  0  0  0
  186.8200  178.5230  140.7950 C   0  0  1  0  0  3  0  0  0  0  0  0
  185.1540  178.8240  142.4200 C   0  0  2  0  0  3  0  0  0  0  0  0
  190.3850  176.5770  139.3680 C   0  0  0  0  0  3  0  0  0  0  0  0
  190.3940  177.1510  140.5970 N   0  0  0  0  0  0  0  0  0  0  0  0
  186.9970  177.6930  143.1350 C   0  0  0  0  0  2  0  0  0  0  0  0
  188.1180  177.8540  140.3200 C   0  0  0  0  0  0  0  0  0  0  0  0
  184.7720  178.4010  143.8150 C   0  0  0  0  0  2  0  0  0  0  0  0
  189.3070  176.7280  138.5590 N   0  0  0  0  0  0  0  0  0  0  0  0
  185.7410  178.4620  139.6840 C   0  0  1  0  0  3  0  0  0  0  0  0
  187.1850  177.7550  138.0570 N   0  0  0  0  0  2  0  0  0  0  0  0
  189.4540  178.5790  142.2690 N   0  0  0  0  0  1  0  0  0  0  0  0
  183.9870  178.8790  141.4400 C   0  0  0  0  0  2  0  0  0  0  0  0
  184.5150  179.3100  140.0620 C   0  0  2  0  0  3  0  0  0  0  0  0
  186.0550  177.7720  144.3340 C   0  0  2  0  0  3  0  0  0  0  0  0
  186.1700  177.8840  141.9550 N   0  0  2  0  0  0  0  0  0  0  0  0
  186.2870  178.7880  138.3750 N   0  0  0  0  0  2  0  0  0  0  0  0
  181.6490  180.2770  137.7810 C   0  0  0  0  0  0  0  0  0  0  0  0
  181.3900  179.0730  137.1190 C   0  0  0  0  0  3  0  0  0  0  0  0
  183.4290  179.2090  139.0350 C   0  0  0  0  0  0  0  0  0  0  0  0
  182.1470  177.9360  137.4130 C   0  0  0  0  0  3  0  0  0  0  0  0
  182.6670  180.3450  138.7360 C   0  0  0  0  0  3  0  0  0  0  0  0
  183.1650  178.0030  138.3690 C   0  0  0  0  0  3  0  0  0  0  0  0
  180.7010  181.7000  137.4120 Cl  0  0  0  0  0  0  0  0  0  0  0  0
  186.6390  178.5210  145.4510 N   0  0  0  0  0  2  0  0  0  0  0  0
  186.9730  177.6380  146.5670 C   0  0  0  0  0  2  0  0  0  0  0  0
  188.4850  177.8510  148.9820 F   0  0  0  0  0  0  0  0  0  0  0  0
  188.4460  177.4300  146.6220 C   0  0  0  0  0  0  0  0  0  0  0  0
  189.1410  177.5360  147.8370 C   0  0  0  0  0  0  0  0  0  0  0  0
  191.2100  176.9890  146.7000 C   0  0  0  0  0  3  0  0  0  0  0  0
  190.5190  176.8770  145.4910 C   0  0  0  0  0  3  0  0  0  0  0  0
  189.1380  177.0940  145.4530 C   0  0  0  0  0  3  0  0  0  0  0  0
  190.5220  177.3180  147.8720 C   0  0  0  0  0  3  0  0  0  0  0  0
  1  8  1  0  0  0  0
  2 13  1  0  0  0  0
  3  8  1  6  0  0  0
  3 17  1  0  0  0  0
  4 14  1  6  0  0  0
  4  9  1  0  0  0  0
  5  6  2  0  0  0  0
  6  2  1  0  0  0  0
  7 16  1  0  0  0  0
  8  2  2  0  0  0  0
  9 16  1  0  0  0  0
 10  1  2  0  0  0  0
 10  5  1  0  0  0  0
 11 18  1  6  0  0  0
 11 15  1  0  0  0  0
 11  3  1  0  0  0  0
 12 18  1  0  0  0  0
 12  1  1  0  0  0  0
 15 21  1  6  0  0  0
 15 14  1  0  0  0  0
 16 26  1  1  0  0  0
 17  4  1  0  0  0  0
 17  7  1  1  0  0  0
 19 23  1  0  0  0  0
 20 22  1  0  0  0  0
 20 19  2  0  0  0  0
 22 24  2  0  0  0  0
 23 21  2  0  0  0  0
 24 21  1  0  0  0  0
 25 19  1  0  0  0  0
 26 27  1  0  0  0  0
 27 29  1  0  0  0  0
 29 30  1  0  0  0  0
 30 34  2  0  0  0  0
 30 28  1  0  0  0  0
 31 34  1  0  0  0  0
 32 31  2  0  0  0  0
 33 32  1  0  0  0  0
 33 29  2  0  0  0  0
M  END
>  <MODEL>
3

>  <REMARK>
 VINA RESULT:      -9.9      3.600      7.287
  Name = 
  4 active torsions:
  status: ('A' for Active; 'I' for Inactive)
    1  A    between atoms: C_3  and  C_13
    2  A    between atoms: C_3  and  N_17
    3  A    between atoms: C_12  and  C_28
    4  A    between atoms: N_17  and  C_29
                            x       y       z     vdW  Elec       q    Type
                         _______ _______ _______ _____ _____    ______ ____

>  <TORSDO>
F 4

$$$$
=
 OpenBabel10262423423D

 34 39  0  0  1  0  0  0  0  0999 V2000
  192.0270  175.5910  136.8650 C   0  0  0  0  0  0  0  0  0  0  0  0
  193.1750  176.5000  138.7630 C   0  0  0  0  0  0  0  0  0  0  0  0
  190.6940  177.1700  138.3440 C   0  0  1  0  0  3  0  0  0  0  0  0
  189.0620  177.9080  139.8590 C   0  0  2  0  0  3  0  0  0  0  0  0
  194.1940  174.8430  137.4130 C   0  0  0  0  0  3  0  0  0  0  0  0
  194.2350  175.7070  138.4580 N   0  0  0  0  0  0  0  0  0  0  0  0
  190.8930  176.9500  140.8160 C   0  0  0  0  0  2  0  0  0  0  0  0
  191.9700  176.3710  138.0380 C   0  0  0  0  0  0  0  0  0  0  0  0
  188.6940  177.8580  141.3200 C   0  0  0  0  0  2  0  0  0  0  0  0
  193.1070  174.8120  136.6040 N   0  0  0  0  0  0  0  0  0  0  0  0
  189.5960  176.8570  137.2960 C   0  0  1  0  0  3  0  0  0  0  0  0
  190.9980  175.7300  135.8830 N   0  0  0  0  0  2  0  0  0  0  0  0
  193.3530  177.5320  139.7270 N   0  0  0  0  0  1  0  0  0  0  0  0
  187.8800  177.7430  138.9100 C   0  0  0  0  0  2  0  0  0  0  0  0
  188.3940  177.8010  137.4620 C   0  0  2  0  0  3  0  0  0  0  0  0
  189.9730  177.3490  141.9660 C   0  0  2  0  0  3  0  0  0  0  0  0
  190.0510  176.8570  139.6340 N   0  0  2  0  0  0  0  0  0  0  0  0
  190.1260  176.8300  135.9420 N   0  0  0  0  0  2  0  0  0  0  0  0
  185.3330  176.1420  135.9660 C   0  0  0  0  0  0  0  0  0  0  0  0
  185.2010  176.8250  134.7530 C   0  0  0  0  0  3  0  0  0  0  0  0
  187.2880  177.4720  136.5060 C   0  0  0  0  0  0  0  0  0  0  0  0
  186.1100  177.8310  134.4130 C   0  0  0  0  0  3  0  0  0  0  0  0
  186.3750  176.4660  136.8400 C   0  0  0  0  0  3  0  0  0  0  0  0
  187.1520  178.1550  135.2880 C   0  0  0  0  0  3  0  0  0  0  0  0
  184.1950  174.8840  136.3910 Cl  0  0  0  0  0  0  0  0  0  0  0  0
  190.5900  178.3410  142.8530 N   0  0  0  0  0  2  0  0  0  0  0  0
  191.3840  177.6990  143.8980 C   0  0  0  0  0  2  0  0  0  0  0  0
  192.3290  176.3360  146.2260 F   0  0  0  0  0  0  0  0  0  0  0  0
  190.5440  177.4810  145.1080 C   0  0  0  0  0  0  0  0  0  0  0  0
  191.0590  176.8140  146.2300 C   0  0  0  0  0  0  0  0  0  0  0  0
  188.9510  177.1280  147.3830 C   0  0  0  0  0  3  0  0  0  0  0  0
  188.4390  177.7970  146.2690 C   0  0  0  0  0  3  0  0  0  0  0  0
  189.2350  177.9760  145.1340 C   0  0  0  0  0  3  0  0  0  0  0  0
  190.2600  176.6370  147.3640 C   0  0  0  0  0  3  0  0  0  0  0  0
  1  8  1  0  0  0  0
  2 13  1  0  0  0  0
  3  8  1  6  0  0  0
  3 17  1  0  0  0  0
  4 14  1  6  0  0  0
  4  9  1  0  0  0  0
  5  6  2  0  0  0  0
  6  2  1  0  0  0  0
  7 16  1  0  0  0  0
  8  2  2  0  0  0  0
  9 16  1  0  0  0  0
 10  1  2  0  0  0  0
 10  5  1  0  0  0  0
 11 18  1  6  0  0  0
 11 15  1  0  0  0  0
 11  3  1  0  0  0  0
 12 18  1  0  0  0  0
 12  1  1  0  0  0  0
 15 21  1  6  0  0  0
 15 14  1  0  0  0  0
 16 26  1  6  0  0  0
 17  4  1  0  0  0  0
 17  7  1  1  0  0  0
 19 25  1  0  0  0  0
 19 23  1  0  0  0  0
 20 19  2  0  0  0  0
 21 23  2  0  0  0  0
 22 20  1  0  0  0  0
 22 24  2  0  0  0  0
 24 21  1  0  0  0  0
 26 27  1  0  0  0  0
 27 29  1  0  0  0  0
 28 30  1  0  0  0  0
 29 33  2  0  0  0  0
 29 30  1  0  0  0  0
 30 34  2  0  0  0  0
 32 31  2  0  0  0  0
 33 32  1  0  0  0  0
 34 31  1  0  0  0  0
M  END
>  <MODEL>
4

>  <REMARK>
 VINA RESULT:      -9.7      3.669      8.010
  Name = 
  4 active torsions:
  status: ('A' for Active; 'I' for Inactive)
    1  A    between atoms: C_3  and  C_13
    2  A    between atoms: C_3  and  N_17
    3  A    between atoms: C_12  and  C_28
    4  A    between atoms: N_17  and  C_29
                            x       y       z     vdW  Elec       q    Type
                         _______ _______ _______ _____ _____    ______ ____

>  <TORSDO>
F 4

$$$$
=
 OpenBabel10262423423D

 34 39  0  0  1  0  0  0  0  0999 V2000
  190.7090  177.3620  141.3040 C   0  0  0  0  0  0  0  0  0  0  0  0
  189.2010  177.1610  139.4520 C   0  0  0  0  0  0  0  0  0  0  0  0
  188.2320  177.2870  141.8650 C   0  0  1  0  0  3  0  0  0  0  0  0
  186.1230  178.0060  142.6000 C   0  0  2  0  0  3  0  0  0  0  0  0
  191.5210  177.4710  139.0940 C   0  0  0  0  0  3  0  0  0  0  0  0
  190.2670  177.2760  138.6160 N   0  0  0  0  0  0  0  0  0  0  0  0
  186.6460  178.6000  140.4640 C   0  0  0  0  0  2  0  0  0  0  0  0
  189.3770  177.3300  140.8420 C   0  0  0  0  0  0  0  0  0  0  0  0
  184.9670  178.8880  142.2000 C   0  0  0  0  0  2  0  0  0  0  0  0
  191.7410  177.4810  140.4320 N   0  0  0  0  0  0  0  0  0  0  0  0
  188.7880  177.4090  143.3060 C   0  0  1  0  0  3  0  0  0  0  0  0
  190.9730  177.1310  142.6900 N   0  0  0  0  0  2  0  0  0  0  0  0
  187.9530  176.7440  138.9080 N   0  0  0  0  0  1  0  0  0  0  0  0
  186.4910  178.0870  144.0770 C   0  0  0  0  0  2  0  0  0  0  0  0
  187.6830  177.1550  144.3450 C   0  0  2  0  0  3  0  0  0  0  0  0
  185.2540  179.1630  140.7320 C   0  0  2  0  0  3  0  0  0  0  0  0
  187.2590  178.3910  141.7670 N   0  0  2  0  0  0  0  0  0  0  0  0
  189.9690  176.5840  143.5070 N   0  0  0  0  0  2  0  0  0  0  0  0
  189.9700  177.0950  147.3650 C   0  0  0  0  0  0  0  0  0  0  0  0
  189.1580  177.6630  148.3510 C   0  0  0  0  0  3  0  0  0  0  0  0
  188.1810  177.3370  145.7460 C   0  0  0  0  0  0  0  0  0  0  0  0
  187.8570  178.0680  148.0390 C   0  0  0  0  0  3  0  0  0  0  0  0
  189.4820  176.9340  146.0650 C   0  0  0  0  0  3  0  0  0  0  0  0
  187.3690  177.9070  146.7390 C   0  0  0  0  0  3  0  0  0  0  0  0
  191.5980  176.5880  147.7570 Cl  0  0  0  0  0  0  0  0  0  0  0  0
  184.2400  178.5880  139.8420 N   0  0  0  0  0  2  0  0  0  0  0  0
  184.7230  178.5130  138.4650 C   0  0  0  0  0  2  0  0  0  0  0  0
  185.9810  177.4480  136.1310 F   0  0  0  0  0  0  0  0  0  0  0  0
  184.3510  177.1990  137.8710 C   0  0  0  0  0  0  0  0  0  0  0  0
  185.0080  176.7160  136.7290 C   0  0  0  0  0  0  0  0  0  0  0  0
  183.6600  174.7040  136.8060 C   0  0  0  0  0  3  0  0  0  0  0  0
  183.0100  175.1810  137.9470 C   0  0  0  0  0  3  0  0  0  0  0  0
  183.3570  176.4260  138.4810 C   0  0  0  0  0  3  0  0  0  0  0  0
  184.6580  175.4710  136.1980 C   0  0  0  0  0  3  0  0  0  0  0  0
  1 12  1  0  0  0  0
  2  8  2  0  0  0  0
  3  8  1  6  0  0  0
  3 11  1  0  0  0  0
  4  9  1  1  0  0  0
  4 14  1  0  0  0  0
  5 10  1  0  0  0  0
  6  5  2  0  0  0  0
  6  2  1  0  0  0  0
  7 16  1  0  0  0  0
  8  1  1  0  0  0  0
 10  1  2  0  0  0  0
 11 18  1  6  0  0  0
 11 15  1  0  0  0  0
 12 18  1  0  0  0  0
 13  2  1  0  0  0  0
 14 15  1  0  0  0  0
 15 21  1  1  0  0  0
 16 26  1  6  0  0  0
 16  9  1  0  0  0  0
 17  7  1  6  0  0  0
 17  3  1  0  0  0  0
 17  4  1  0  0  0  0
 19 25  1  0  0  0  0
 19 20  1  0  0  0  0
 21 23  1  0  0  0  0
 21 24  2  0  0  0  0
 22 20  2  0  0  0  0
 23 19  2  0  0  0  0
 24 22  1  0  0  0  0
 27 26  1  0  0  0  0
 28 30  1  0  0  0  0
 29 27  1  0  0  0  0
 29 33  1  0  0  0  0
 30 29  2  0  0  0  0
 31 32  1  0  0  0  0
 32 33  2  0  0  0  0
 34 30  1  0  0  0  0
 34 31  2  0  0  0  0
M  END
>  <MODEL>
5

>  <REMARK>
 VINA RESULT:      -9.7      3.786      6.495
  Name = 
  4 active torsions:
  status: ('A' for Active; 'I' for Inactive)
    1  A    between atoms: C_3  and  C_13
    2  A    between atoms: C_3  and  N_17
    3  A    between atoms: C_12  and  C_28
    4  A    between atoms: N_17  and  C_29
                            x       y       z     vdW  Elec       q    Type
                         _______ _______ _______ _____ _____    ______ ____

>  <TORSDO>
F 4

$$$$
=
 OpenBabel10262423423D

 34 39  0  0  1  0  0  0  0  0999 V2000
  188.4190  177.4210  139.1410 C   0  0  0  0  0  0  0  0  0  0  0  0
  189.8610  177.7180  141.0330 C   0  0  0  0  0  0  0  0  0  0  0  0
  187.3450  178.3500  141.2480 C   0  0  1  0  0  3  0  0  0  0  0  0
  185.9820  178.4590  143.1550 C   0  0  2  0  0  3  0  0  0  0  0  0
  190.6470  176.6550  139.0670 C   0  0  0  0  0  3  0  0  0  0  0  0
  190.8580  177.1280  140.3210 N   0  0  0  0  0  0  0  0  0  0  0  0
  187.9460  177.3420  143.4430 C   0  0  0  0  0  2  0  0  0  0  0  0
  188.5540  177.7680  140.5000 C   0  0  0  0  0  0  0  0  0  0  0  0
  185.8580  177.9120  144.5540 C   0  0  0  0  0  2  0  0  0  0  0  0
  189.4420  176.8310  138.4720 N   0  0  0  0  0  0  0  0  0  0  0  0
  186.0900  178.3390  140.3380 C   0  0  1  0  0  3  0  0  0  0  0  0
  187.2430  177.8180  138.4320 N   0  0  0  0  0  2  0  0  0  0  0  0
  190.1940  178.3830  142.2460 N   0  0  0  0  0  1  0  0  0  0  0  0
  184.6610  178.5500  142.3990 C   0  0  0  0  0  2  0  0  0  0  0  0
  184.9310  179.1080  140.9920 C   0  0  2  0  0  3  0  0  0  0  0  0
  187.2260  177.2900  144.7880 C   0  0  2  0  0  3  0  0  0  0  0  0
  186.9220  177.5960  142.4430 N   0  0  2  0  0  0  0  0  0  0  0  0
  186.3910  178.7880  138.9870 N   0  0  0  0  0  2  0  0  0  0  0  0
  181.6270  177.9080  139.5790 C   0  0  0  0  0  0  0  0  0  0  0  0
  181.3360  178.9040  138.6410 C   0  0  0  0  0  3  0  0  0  0  0  0
  183.6840  179.0510  140.1630 C   0  0  0  0  0  0  0  0  0  0  0  0
  182.2180  179.9740  138.4610 C   0  0  0  0  0  3  0  0  0  0  0  0
  182.7970  177.9830  140.3380 C   0  0  0  0  0  3  0  0  0  0  0  0
  183.3890  180.0490  139.2210 C   0  0  0  0  0  3  0  0  0  0  0  0
  180.5230  176.5700  139.8030 Cl  0  0  0  0  0  0  0  0  0  0  0  0
  187.9790  177.9670  145.8480 N   0  0  0  0  0  2  0  0  0  0  0  0
  189.3220  178.3290  145.3990 C   0  0  0  0  0  2  0  0  0  0  0  0
  189.7730  178.0070  148.2020 F   0  0  0  0  0  0  0  0  0  0  0  0
  190.3160  177.3710  145.9560 C   0  0  0  0  0  0  0  0  0  0  0  0
  190.4910  177.2430  147.3420 C   0  0  0  0  0  0  0  0  0  0  0  0
  192.1600  175.5250  146.9720 C   0  0  0  0  0  3  0  0  0  0  0  0
  191.9820  175.6460  145.5920 C   0  0  0  0  0  3  0  0  0  0  0  0
  191.0580  176.5660  145.0840 C   0  0  0  0  0  3  0  0  0  0  0  0
  191.4160  176.3230  147.8460 C   0  0  0  0  0  3  0  0  0  0  0  0
  1  8  1  0  0  0  0
  2 13  1  0  0  0  0
  3  8  1  6  0  0  0
  3 17  1  0  0  0  0
  4 14  1  6  0  0  0
  4  9  1  0  0  0  0
  5  6  2  0  0  0  0
  6  2  1  0  0  0  0
  7 16  1  0  0  0  0
  8  2  2  0  0  0  0
  9 16  1  0  0  0  0
 10  5  1  0  0  0  0
 10  1  2  0  0  0  0
 11 18  1  6  0  0  0
 11 15  1  0  0  0  0
 11  3  1  0  0  0  0
 12 18  1  0  0  0  0
 12  1  1  0  0  0  0
 15 21  1  6  0  0  0
 15 14  1  0  0  0  0
 16 26  1  1  0  0  0
 17  4  1  0  0  0  0
 17  7  1  1  0  0  0
 19 25  1  0  0  0  0
 19 23  1  0  0  0  0
 20 19  2  0  0  0  0
 21 23  2  0  0  0  0
 22 20  1  0  0  0  0
 22 24  2  0  0  0  0
 24 21  1  0  0  0  0
 27 26  1  0  0  0  0
 27 29  1  0  0  0  0
 29 30  1  0  0  0  0
 30 34  2  0  0  0  0
 30 28  1  0  0  0  0
 31 34  1  0  0  0  0
 32 31  2  0  0  0  0
 33 32  1  0  0  0  0
 33 29  2  0  0  0  0
M  END
>  <MODEL>
6

>  <REMARK>
 VINA RESULT:      -9.6      3.026      6.661
  Name = 
  4 active torsions:
  status: ('A' for Active; 'I' for Inactive)
    1  A    between atoms: C_3  and  C_13
    2  A    between atoms: C_3  and  N_17
    3  A    between atoms: C_12  and  C_28
    4  A    between atoms: N_17  and  C_29
                            x       y       z     vdW  Elec       q    Type
                         _______ _______ _______ _____ _____    ______ ____

>  <TORSDO>
F 4

$$$$
=
 OpenBabel10262423423D

 34 39  0  0  1  0  0  0  0  0999 V2000
  190.8690  177.3390  141.3940 C   0  0  0  0  0  0  0  0  0  0  0  0
  189.4730  177.0740  139.4640 C   0  0  0  0  0  0  0  0  0  0  0  0
  188.3650  177.2530  141.8130 C   0  0  1  0  0  3  0  0  0  0  0  0
  186.2110  177.9700  142.4060 C   0  0  2  0  0  3  0  0  0  0  0  0
  191.8080  177.3990  139.2320 C   0  0  0  0  0  3  0  0  0  0  0  0
  190.5850  177.1790  138.6890 N   0  0  0  0  0  0  0  0  0  0  0  0
  186.8520  178.5130  140.2890 C   0  0  0  0  0  2  0  0  0  0  0  0
  189.5670  177.2820  140.8570 C   0  0  0  0  0  0  0  0  0  0  0  0
  185.0720  178.8280  141.9170 C   0  0  0  0  0  2  0  0  0  0  0  0
  191.9490  177.4460  140.5790 N   0  0  0  0  0  0  0  0  0  0  0  0
  188.8360  177.4190  143.2800 C   0  0  1  0  0  3  0  0  0  0  0  0
  191.0560  177.1480  142.7980 N   0  0  0  0  0  2  0  0  0  0  0  0
  188.2630  176.6310  138.8600 N   0  0  0  0  0  1  0  0  0  0  0  0
  186.4920  178.0930  143.8990 C   0  0  0  0  0  2  0  0  0  0  0  0
  187.6750  177.1810  144.2600 C   0  0  2  0  0  3  0  0  0  0  0  0
  185.4410  179.0690  140.4610 C   0  0  2  0  0  3  0  0  0  0  0  0
  187.3890  178.3450  141.6290 N   0  0  2  0  0  0  0  0  0  0  0  0
  190.0110  176.6120  143.5700 N   0  0  0  0  0  2  0  0  0  0  0  0
  189.8040  177.2810  147.3920 C   0  0  0  0  0  0  0  0  0  0  0  0
  188.9110  177.8110  148.3290 C   0  0  0  0  0  3  0  0  0  0  0  0
  188.0890  177.4050  145.6820 C   0  0  0  0  0  0  0  0  0  0  0  0
  187.6070  178.1380  147.9470 C   0  0  0  0  0  3  0  0  0  0  0  0
  189.3930  177.0800  146.0720 C   0  0  0  0  0  3  0  0  0  0  0  0
  187.1960  177.9360  146.6250 C   0  0  0  0  0  3  0  0  0  0  0  0
  191.4360  176.8730  147.8720 Cl  0  0  0  0  0  0  0  0  0  0  0  0
  184.4860  178.4600  139.5300 N   0  0  0  0  0  2  0  0  0  0  0  0
  183.1070  178.7180  139.9370 C   0  0  0  0  0  2  0  0  0  0  0  0
  182.1690  177.0960  137.7800 F   0  0  0  0  0  0  0  0  0  0  0  0
  182.3350  179.2650  138.7870 C   0  0  0  0  0  0  0  0  0  0  0  0
  181.8880  178.4220  137.7570 C   0  0  0  0  0  0  0  0  0  0  0  0
  180.8470  180.3170  136.6610 C   0  0  0  0  0  3  0  0  0  0  0  0
  181.2860  181.1550  137.6880 C   0  0  0  0  0  3  0  0  0  0  0  0
  182.0270  180.6290  138.7520 C   0  0  0  0  0  3  0  0  0  0  0  0
  181.1480  178.9520  136.6950 C   0  0  0  0  0  3  0  0  0  0  0  0
  1 12  1  0  0  0  0
  2  8  2  0  0  0  0
  3  8  1  6  0  0  0
  3 11  1  0  0  0  0
  4  9  1  6  0  0  0
  4 14  1  0  0  0  0
  5 10  1  0  0  0  0
  6  5  2  0  0  0  0
  6  2  1  0  0  0  0
  7 16  1  0  0  0  0
  8  1  1  0  0  0  0
 10  1  2  0  0  0  0
 11 18  1  1  0  0  0
 11 15  1  0  0  0  0
 12 18  1  0  0  0  0
 13  2  1  0  0  0  0
 14 15  1  0  0  0  0
 15 21  1  1  0  0  0
 16 26  1  6  0  0  0
 16  9  1  0  0  0  0
 17  7  1  6  0  0  0
 17  3  1  0  0  0  0
 17  4  1  0  0  0  0
 19 25  1  0  0  0  0
 19 20  1  0  0  0  0
 21 23  1  0  0  0  0
 21 24  2  0  0  0  0
 22 20  2  0  0  0  0
 23 19  2  0  0  0  0
 24 22  1  0  0  0  0
 26 27  1  0  0  0  0
 29 27  1  0  0  0  0
 30 28  1  0  0  0  0
 30 29  2  0  0  0  0
 31 34  2  0  0  0  0
 31 32  1  0  0  0  0
 32 33  2  0  0  0  0
 33 29  1  0  0  0  0
 34 30  1  0  0  0  0
M  END
>  <MODEL>
7

>  <REMARK>
 VINA RESULT:      -9.6      3.843      7.410
  Name = 
  4 active torsions:
  status: ('A' for Active; 'I' for Inactive)
    1  A    between atoms: C_3  and  C_13
    2  A    between atoms: C_3  and  N_17
    3  A    between atoms: C_12  and  C_28
    4  A    between atoms: N_17  and  C_29
                            x       y       z     vdW  Elec       q    Type
                         _______ _______ _______ _____ _____    ______ ____

>  <TORSDO>
F 4

$$$$
=
 OpenBabel10262423423D

 34 39  0  0  1  0  0  0  0  0999 V2000
  185.0040  178.8760  145.5620 C   0  0  0  0  0  0  0  0  0  0  0  0
  187.1130  177.7400  145.4700 C   0  0  0  0  0  0  0  0  0  0  0  0
  185.7400  178.0380  143.2780 C   0  0  1  0  0  3  0  0  0  0  0  0
  186.4660  178.0910  141.0480 C   0  0  2  0  0  3  0  0  0  0  0  0
  186.3840  178.7800  147.4700 C   0  0  0  0  0  3  0  0  0  0  0  0
  187.2940  178.0450  146.7830 N   0  0  0  0  0  0  0  0  0  0  0  0
  188.1150  178.3460  142.5980 C   0  0  0  0  0  2  0  0  0  0  0  0
  186.0010  178.2650  144.7750 C   0  0  0  0  0  0  0  0  0  0  0  0
  187.6810  178.3850  140.2050 C   0  0  0  0  0  2  0  0  0  0  0  0
  185.2320  179.1630  146.8680 N   0  0  0  0  0  0  0  0  0  0  0  0
  184.3860  178.6680  142.8640 C   0  0  1  0  0  3  0  0  0  0  0  0
  183.6990  179.0680  145.0090 N   0  0  0  0  0  2  0  0  0  0  0  0
  187.9860  176.7930  144.8660 N   0  0  0  0  0  1  0  0  0  0  0  0
  185.1590  178.6240  140.4700 C   0  0  0  0  0  2  0  0  0  0  0  0
  184.0110  178.2690  141.4280 C   0  0  2  0  0  3  0  0  0  0  0  0
  188.7990  178.4140  141.2360 C   0  0  2  0  0  3  0  0  0  0  0  0
  186.7150  178.6660  142.3670 N   0  0  2  0  0  0  0  0  0  0  0  0
  183.3360  178.3910  143.8330 N   0  0  0  0  0  2  0  0  0  0  0  0
  181.5250  180.1630  139.2860 C   0  0  0  0  0  0  0  0  0  0  0  0
  180.3850  180.1550  140.0940 C   0  0  0  0  0  3  0  0  0  0  0  0
  182.7400  178.9230  140.9790 C   0  0  0  0  0  0  0  0  0  0  0  0
  180.4180  179.5330  141.3460 C   0  0  0  0  0  3  0  0  0  0  0  0
  182.6990  179.5470  139.7270 C   0  0  0  0  0  3  0  0  0  0  0  0
  181.5930  178.9180  141.7880 C   0  0  0  0  0  3  0  0  0  0  0  0
  181.4820  180.9410  137.7190 Cl  0  0  0  0  0  0  0  0  0  0  0  0
  189.7680  177.3300  141.0460 N   0  0  0  0  0  2  0  0  0  0  0  0
  191.1010  177.7240  141.4960 C   0  0  0  0  0  2  0  0  0  0  0  0
  191.1270  179.6030  143.6490 F   0  0  0  0  0  0  0  0  0  0  0  0
  191.2920  177.3260  142.9180 C   0  0  0  0  0  0  0  0  0  0  0  0
  191.2860  178.2880  143.9400 C   0  0  0  0  0  0  0  0  0  0  0  0
  191.6070  176.5390  145.5870 C   0  0  0  0  0  3  0  0  0  0  0  0
  191.6070  175.5790  144.5710 C   0  0  0  0  0  3  0  0  0  0  0  0
  191.4470  175.9720  143.2380 C   0  0  0  0  0  3  0  0  0  0  0  0
  191.4460  177.8910  145.2720 C   0  0  0  0  0  3  0  0  0  0  0  0
  1 10  2  0  0  0  0
  2  6  1  0  0  0  0
  3  8  1  1  0  0  0
  4  9  1  6  0  0  0
  4 17  1  0  0  0  0
  6  5  2  0  0  0  0
  8  2  2  0  0  0  0
  8  1  1  0  0  0  0
  9 16  1  0  0  0  0
 10  5  1  0  0  0  0
 11  3  1  0  0  0  0
 11 18  1  1  0  0  0
 12  1  1  0  0  0  0
 13  2  1  0  0  0  0
 14  4  1  0  0  0  0
 14 15  1  0  0  0  0
 15 21  1  6  0  0  0
 15 11  1  0  0  0  0
 16 26  1  6  0  0  0
 16  7  1  0  0  0  0
 17  7  1  1  0  0  0
 17  3  1  0  0  0  0
 18 12  1  0  0  0  0
 19 23  2  0  0  0  0
 19 20  1  0  0  0  0
 20 22  2  0  0  0  0
 21 24  2  0  0  0  0
 22 24  1  0  0  0  0
 23 21  1  0  0  0  0
 25 19  1  0  0  0  0
 26 27  1  0  0  0  0
 27 29  1  0  0  0  0
 28 30  1  0  0  0  0
 29 33  2  0  0  0  0
 29 30  1  0  0  0  0
 30 34  2  0  0  0  0
 32 31  2  0  0  0  0
 33 32  1  0  0  0  0
 34 31  1  0  0  0  0
M  END
>  <MODEL>
8

>  <REMARK>
 VINA RESULT:      -9.5      3.253      5.016
  Name = 
  4 active torsions:
  status: ('A' for Active; 'I' for Inactive)
    1  A    between atoms: C_3  and  C_13
    2  A    between atoms: C_3  and  N_17
    3  A    between atoms: C_12  and  C_28
    4  A    between atoms: N_17  and  C_29
                            x       y       z     vdW  Elec       q    Type
                         _______ _______ _______ _____ _____    ______ ____

>  <TORSDO>
F 4

$$$$
=
 OpenBabel10262423423D

 34 39  0  0  1  0  0  0  0  0999 V2000
  186.4970  178.3440  138.1890 C   0  0  0  0  0  0  0  0  0  0  0  0
  188.8760  178.1750  138.4350 C   0  0  0  0  0  0  0  0  0  0  0  0
  187.3910  178.3430  140.5680 C   0  0  1  0  0  3  0  0  0  0  0  0
  187.8170  177.6070  142.7550 C   0  0  2  0  0  3  0  0  0  0  0  0
  187.8620  177.9630  136.3050 C   0  0  0  0  0  3  0  0  0  0  0  0
  188.9670  178.0060  137.0900 N   0  0  0  0  0  0  0  0  0  0  0  0
  189.2000  176.7410  141.1670 C   0  0  0  0  0  2  0  0  0  0  0  0
  187.6060  178.2220  139.0520 C   0  0  0  0  0  0  0  0  0  0  0  0
  188.6350  176.6050  143.5280 C   0  0  0  0  0  2  0  0  0  0  0  0
  186.6380  178.1630  136.8520 N   0  0  0  0  0  0  0  0  0  0  0  0
  185.8810  178.4690  140.8920 C   0  0  1  0  0  3  0  0  0  0  0  0
  185.2470  178.7910  138.7180 N   0  0  0  0  0  2  0  0  0  0  0  0
  190.0670  178.4270  139.1720 N   0  0  0  0  0  1  0  0  0  0  0  0
  186.3850  177.7670  143.2560 C   0  0  0  0  0  2  0  0  0  0  0  0
  185.6640  178.8020  142.3770 C   0  0  2  0  0  3  0  0  0  0  0  0
  189.6470  176.1360  142.4940 C   0  0  2  0  0  3  0  0  0  0  0  0
  187.8270  177.1770  141.3590 N   0  0  2  0  0  0  0  0  0  0  0  0
  185.2040  179.3880  139.9900 N   0  0  0  0  0  2  0  0  0  0  0  0
  181.8930  178.6870  142.0350 C   0  0  0  0  0  0  0  0  0  0  0  0
  181.4780  178.9500  143.3450 C   0  0  0  0  0  3  0  0  0  0  0  0
  184.2090  178.8590  142.7310 C   0  0  0  0  0  0  0  0  0  0  0  0
  182.4250  179.1690  144.3490 C   0  0  0  0  0  3  0  0  0  0  0  0
  183.2560  178.6410  141.7300 C   0  0  0  0  0  3  0  0  0  0  0  0
  183.7890  179.1230  144.0430 C   0  0  0  0  0  3  0  0  0  0  0  0
  180.7060  178.4130  140.7800 Cl  0  0  0  0  0  0  0  0  0  0  0  0
  191.0220  176.5090  142.8410 N   0  0  0  0  0  2  0  0  0  0  0  0
  191.0470  177.5900  143.8240 C   0  0  0  0  0  2  0  0  0  0  0  0
  189.5150  178.4910  146.0620 F   0  0  0  0  0  0  0  0  0  0  0  0
  191.2010  177.0240  145.1930 C   0  0  0  0  0  0  0  0  0  0  0  0
  190.4150  177.4950  146.2570 C   0  0  0  0  0  0  0  0  0  0  0  0
  191.4810  175.9060  147.7440 C   0  0  0  0  0  3  0  0  0  0  0  0
  192.2590  175.4320  146.6850 C   0  0  0  0  0  3  0  0  0  0  0  0
  192.1170  175.9890  145.4100 C   0  0  0  0  0  3  0  0  0  0  0  0
  190.5600  176.9360  147.5300 C   0  0  0  0  0  3  0  0  0  0  0  0
  1 12  1  0  0  0  0
  1  8  1  0  0  0  0
  2  8  2  0  0  0  0
  2 13  1  0  0  0  0
  3  8  1  6  0  0  0
  3 11  1  0  0  0  0
  3 17  1  0  0  0  0
  4 14  1  1  0  0  0
  4  9  1  0  0  0  0
  5 10  1  0  0  0  0
  5  6  2  0  0  0  0
  6  2  1  0  0  0  0
  7 16  1  0  0  0  0
 10  1  2  0  0  0  0
 11 18  1  6  0  0  0
 11 15  1  0  0  0  0
 12 18  1  0  0  0  0
 15 21  1  1  0  0  0
 15 14  1  0  0  0  0
 16 26  1  1  0  0  0
 16  9  1  0  0  0  0
 17  7  1  6  0  0  0
 17  4  1  0  0  0  0
 19 20  1  0  0  0  0
 20 22  2  0  0  0  0
 21 24  2  0  0  0  0
 23 19  2  0  0  0  0
 23 21  1  0  0  0  0
 24 22  1  0  0  0  0
 25 19  1  0  0  0  0
 26 27  1  0  0  0  0
 27 29  1  0  0  0  0
 28 30  1  0  0  0  0
 29 33  2  0  0  0  0
 29 30  1  0  0  0  0
 30 34  2  0  0  0  0
 32 31  2  0  0  0  0
 33 32  1  0  0  0  0
 34 31  1  0  0  0  0
M  END
>  <MODEL>
9

>  <REMARK>
 VINA RESULT:      -9.4      3.339      6.599
  Name = 
  4 active torsions:
  status: ('A' for Active; 'I' for Inactive)
    1  A    between atoms: C_3  and  C_13
    2  A    between atoms: C_3  and  N_17
    3  A    between atoms: C_12  and  C_28
    4  A    between atoms: N_17  and  C_29
                            x       y       z     vdW  Elec       q    Type
                         _______ _______ _______ _____ _____    ______ ____

>  <TORSDO>
F 4

$$$$
