=
 OpenBabel10272415213D

 34 37  0  0  1  0  0  0  0  0999 V2000
  185.3900  178.1170  143.1390 C   0  0  2  0  0  3  0  0  0  0  0  0
  185.5070  179.1630  146.7950 C   0  0  0  0  0  3  0  0  0  0  0  0
  183.5640  178.7390  145.3810 C   0  0  0  0  0  2  0  0  0  0  0  0
  183.3050  178.4430  141.7870 C   0  0  0  0  0  0  0  0  0  0  0  0
  183.8890  177.6320  140.6710 C   0  0  0  0  0  1  0  0  0  0  0  0
  183.3180  179.4290  144.0550 C   0  0  0  0  0  2  0  0  0  0  0  0
  183.9730  178.6460  142.9480 C   0  0  0  0  0  0  0  0  0  0  0  0
  181.9180  178.9710  141.5810 C   0  0  0  0  0  1  0  0  0  0  0  0
  186.9850  179.2670  147.0430 C   0  0  0  0  0  2  0  0  0  0  0  0
  187.7090  177.9400  147.0830 C   0  0  0  0  0  0  0  0  0  0  0  0
  187.5790  176.9810  146.1430 C   0  0  0  0  0  3  0  0  0  0  0  0
  185.0340  178.7230  145.6280 C   0  0  0  0  0  0  0  0  0  0  0  0
  186.6070  176.9140  144.9830 C   0  0  0  0  0  2  0  0  0  0  0  0
  185.9870  178.2460  144.5590 C   0  0  1  0  0  3  0  0  0  0  0  0
  188.7100  177.7650  148.1530 C   0  0  0  0  0  0  0  0  0  0  0  0
  189.9820  177.2920  147.8470 O   0  0  0  0  0  0  0  0  0  0  0  0
  188.4340  178.0380  149.3450 O   0  0  0  0  0  1  0  0  0  0  0  0
  187.5210  178.1490  141.7760 C   0  0  0  0  0  0  0  0  0  0  0  0
  186.2920  178.7540  142.1900 N   0  0  0  0  0  2  0  0  0  0  0  0
  187.8450  177.0090  142.1900 O   0  0  0  0  0  0  0  0  0  0  0  0
  188.4370  178.8900  140.8740 C   0  0  0  0  0  2  0  0  0  0  0  0
  188.0600  178.6870  139.5430 O   0  0  0  0  0  0  0  0  0  0  0  0
  190.2150  177.6610  139.4130 C   0  0  0  0  0  2  0  0  0  0  0  0
  188.9970  178.2270  137.3910 C   0  0  0  0  0  2  0  0  0  0  0  0
  191.2410  174.6770  137.2140 C   0  0  1  0  0  3  0  0  0  0  0  0
  191.4660  175.7410  138.3040 C   0  0  0  0  0  2  0  0  0  0  0  0
  190.2110  176.5820  138.3650 C   0  0  2  0  0  3  0  0  0  0  0  0
  189.5860  176.2750  136.1320 C   0  0  0  0  0  2  0  0  0  0  0  0
  190.0360  177.2640  137.1000 N   0  0  1  0  0  0  0  0  0  0  0  0
  190.7320  175.2840  135.8890 C   0  0  0  0  0  2  0  0  0  0  0  0
  189.2580  178.6920  138.8280 C   0  0  1  0  0  3  0  0  0  0  0  0
  192.4890  173.8850  136.9800 C   0  0  0  0  0  0  0  0  0  0  0  0
  192.4910  172.9030  136.1890 O   0  0  0  0  0  0  0  0  0  0  0  0
  193.6590  174.2430  137.6330 O   0  0  0  0  0  1  0  0  0  0  0  0
  1 19  1  6  0  0  0
  1 14  1  0  0  0  0
  2  9  1  0  0  0  0
  3 12  1  0  0  0  0
  4  7  2  0  0  0  0
  5  4  1  0  0  0  0
  6  3  1  0  0  0  0
  7  1  1  0  0  0  0
  7  6  1  0  0  0  0
  8  4  1  0  0  0  0
  9 10  1  0  0  0  0
 10 15  1  0  0  0  0
 11 10  2  0  0  0  0
 12  2  2  0  0  0  0
 13 11  1  0  0  0  0
 14 13  1  1  0  0  0
 14 12  1  0  0  0  0
 15 17  1  0  0  0  0
 16 15  2  0  0  0  0
 18 19  1  0  0  0  0
 18 20  2  0  0  0  0
 21 18  1  0  0  0  0
 22 21  1  0  0  0  0
 24 31  1  0  0  0  0
 25 32  1  6  0  0  0
 25 26  1  0  0  0  0
 27 26  1  6  0  0  0
 27 23  1  0  0  0  0
 29 28  1  6  0  0  0
 29 24  1  0  0  0  0
 29 27  1  0  0  0  0
 30 28  1  0  0  0  0
 30 25  1  0  0  0  0
 31 23  1  0  0  0  0
 31 22  1  1  0  0  0
 32 34  1  0  0  0  0
 33 32  2  0  0  0  0
M  END
>  <MODEL>
1

>  <REMARK>
 VINA RESULT:      -8.8      0.000      0.000
  Name = 
  6 active torsions:
  status: ('A' for Active; 'I' for Inactive)
    1  A    between atoms: C_1  and  N_9
    2  A    between atoms: C_3  and  C_25
    3  A    between atoms: C_7  and  C_11
    4  A    between atoms: C_8  and  C_18
    5  A    between atoms: C_18  and  O_30
    6  A    between atoms: O_30  and  C_31
                            x       y       z     vdW  Elec       q    Type
                         _______ _______ _______ _____ _____    ______ ____

>  <TORSDO>
F 6

$$$$
=
 OpenBabel10272415213D

 34 37  0  0  1  0  0  0  0  0999 V2000
  184.3610  178.3190  138.4360 C   0  0  2  0  0  3  0  0  0  0  0  0
  186.1460  175.7310  136.2930 C   0  0  0  0  0  3  0  0  0  0  0  0
  184.2290  177.1320  135.7300 C   0  0  0  0  0  2  0  0  0  0  0  0
  182.0410  179.0690  137.8590 C   0  0  0  0  0  0  0  0  0  0  0  0
  182.1280  180.1610  138.8810 C   0  0  0  0  0  1  0  0  0  0  0  0
  182.9520  177.1830  136.5440 C   0  0  0  0  0  2  0  0  0  0  0  0
  183.0780  178.2320  137.6170 C   0  0  0  0  0  0  0  0  0  0  0  0
  180.7680  178.9850  137.0720 C   0  0  0  0  0  1  0  0  0  0  0  0
  187.2090  175.2290  137.2290 C   0  0  0  0  0  2  0  0  0  0  0  0
  188.3200  176.2170  137.5020 C   0  0  0  0  0  0  0  0  0  0  0  0
  188.1170  177.5010  137.8600 C   0  0  0  0  0  3  0  0  0  0  0  0
  185.3410  176.7370  136.6400 C   0  0  0  0  0  0  0  0  0  0  0  0
  186.8190  178.2820  137.9020 C   0  0  0  0  0  2  0  0  0  0  0  0
  185.5420  177.4430  137.9600 C   0  0  1  0  0  3  0  0  0  0  0  0
  189.6950  175.6810  137.4990 C   0  0  0  0  0  0  0  0  0  0  0  0
  190.7800  176.5460  137.3910 O   0  0  0  0  0  0  0  0  0  0  0  0
  189.9080  174.4490  137.5920 O   0  0  0  0  0  1  0  0  0  0  0  0
  184.7100  178.7140  140.9100 C   0  0  0  0  0  0  0  0  0  0  0  0
  184.0830  178.0130  139.8330 N   0  0  0  0  0  2  0  0  0  0  0  0
  185.5020  179.6620  140.6840 O   0  0  0  0  0  0  0  0  0  0  0  0
  184.4500  178.2940  142.3100 C   0  0  0  0  0  2  0  0  0  0  0  0
  185.4900  178.7290  143.1370 O   0  0  0  0  0  0  0  0  0  0  0  0
  187.4380  177.3590  143.3470 C   0  0  0  0  0  2  0  0  0  0  0  0
  185.9890  177.7410  145.2580 C   0  0  0  0  0  2  0  0  0  0  0  0
  190.0950  177.5070  146.1240 C   0  0  1  0  0  3  0  0  0  0  0  0
  189.5040  177.0070  144.7940 C   0  0  0  0  0  2  0  0  0  0  0  0
  188.1630  177.6850  144.6250 C   0  0  2  0  0  3  0  0  0  0  0  0
  187.7170  177.9420  146.9070 C   0  0  0  0  0  2  0  0  0  0  0  0
  187.2830  177.2640  145.6940 N   0  0  1  0  0  0  0  0  0  0  0  0
  189.0960  177.3960  147.2960 C   0  0  0  0  0  2  0  0  0  0  0  0
  185.9790  177.5670  143.7350 C   0  0  1  0  0  3  0  0  0  0  0  0
  191.3620  176.7790  146.4480 C   0  0  0  0  0  0  0  0  0  0  0  0
  191.9400  176.0720  145.5780 O   0  0  0  0  0  0  0  0  0  0  0  0
  191.9120  176.8920  147.7160 O   0  0  0  0  0  1  0  0  0  0  0  0
  1 19  1  1  0  0  0
  2 12  2  0  0  0  0
  2  9  1  0  0  0  0
  3  6  1  0  0  0  0
  3 12  1  0  0  0  0
  4  5  1  0  0  0  0
  6  7  1  0  0  0  0
  7  4  2  0  0  0  0
  7  1  1  0  0  0  0
  8  4  1  0  0  0  0
  9 10  1  0  0  0  0
 10 11  2  0  0  0  0
 11 13  1  0  0  0  0
 12 14  1  0  0  0  0
 14 13  1  6  0  0  0
 14  1  1  0  0  0  0
 15 10  1  0  0  0  0
 15 17  1  0  0  0  0
 16 15  2  0  0  0  0
 18 21  1  0  0  0  0
 19 18  1  0  0  0  0
 20 18  2  0  0  0  0
 21 22  1  0  0  0  0
 23 31  1  0  0  0  0
 25 32  1  1  0  0  0
 25 30  1  0  0  0  0
 26 25  1  0  0  0  0
 27 23  1  6  0  0  0
 27 26  1  0  0  0  0
 27 29  1  0  0  0  0
 28 30  1  0  0  0  0
 29 24  1  6  0  0  0
 29 28  1  0  0  0  0
 31 22  1  6  0  0  0
 31 24  1  0  0  0  0
 32 34  1  0  0  0  0
 33 32  2  0  0  0  0
M  END
>  <MODEL>
2

>  <REMARK>
 VINA RESULT:      -8.8      2.864      8.153
  Name = 
  6 active torsions:
  status: ('A' for Active; 'I' for Inactive)
    1  A    between atoms: C_1  and  N_9
    2  A    between atoms: C_3  and  C_25
    3  A    between atoms: C_7  and  C_11
    4  A    between atoms: C_8  and  C_18
    5  A    between atoms: C_18  and  O_30
    6  A    between atoms: O_30  and  C_31
                            x       y       z     vdW  Elec       q    Type
                         _______ _______ _______ _____ _____    ______ ____

>  <TORSDO>
F 6

$$$$
=
 OpenBabel10272415213D

 34 37  0  0  1  0  0  0  0  0999 V2000
  190.7490  176.7900  138.0620 C   0  0  2  0  0  3  0  0  0  0  0  0
  192.2510  174.0960  135.8350 C   0  0  0  0  0  3  0  0  0  0  0  0
  190.8740  176.0120  135.2110 C   0  0  0  0  0  2  0  0  0  0  0  0
  188.8350  178.1910  137.2520 C   0  0  0  0  0  0  0  0  0  0  0  0
  188.9760  179.0910  138.4410 C   0  0  0  0  0  1  0  0  0  0  0  0
  189.5110  176.3020  135.8060 C   0  0  0  0  0  2  0  0  0  0  0  0
  189.6690  177.1440  137.0450 C   0  0  0  0  0  0  0  0  0  0  0  0
  187.7600  178.5410  136.2680 C   0  0  0  0  0  1  0  0  0  0  0  0
  192.9580  173.2240  136.8330 C   0  0  0  0  0  2  0  0  0  0  0  0
  194.1960  173.8420  137.4400 C   0  0  0  0  0  0  0  0  0  0  0  0
  194.2380  175.0820  137.9690 C   0  0  0  0  0  3  0  0  0  0  0  0
  191.6580  175.2310  136.2100 C   0  0  0  0  0  0  0  0  0  0  0  0
  193.1830  176.1680  137.9310 C   0  0  0  0  0  2  0  0  0  0  0  0
  191.7570  175.6960  137.6430 C   0  0  1  0  0  3  0  0  0  0  0  0
  195.3770  172.9660  137.5690 C   0  0  0  0  0  0  0  0  0  0  0  0
  196.1770  172.7070  136.4610 O   0  0  0  0  0  0  0  0  0  0  0  0
  195.6770  172.4460  138.6690 O   0  0  0  0  0  1  0  0  0  0  0  0
  190.6470  176.8380  140.5890 C   0  0  0  0  0  0  0  0  0  0  0  0
  190.1350  176.4040  139.3250 N   0  0  0  0  0  2  0  0  0  0  0  0
  191.6310  177.6150  140.6500 O   0  0  0  0  0  0  0  0  0  0  0  0
  190.0290  176.3380  141.8430 C   0  0  0  0  0  2  0  0  0  0  0  0
  190.9640  176.3780  142.8810 O   0  0  0  0  0  0  0  0  0  0  0  0
  189.1840  177.8970  143.3720 C   0  0  0  0  0  2  0  0  0  0  0  0
  190.7470  177.2280  145.1060 C   0  0  0  0  0  2  0  0  0  0  0  0
  186.7730  177.7610  146.3650 C   0  0  1  0  0  3  0  0  0  0  0  0
  187.2930  178.3130  145.0260 C   0  0  0  0  0  2  0  0  0  0  0  0
  188.5430  177.5330  144.6840 C   0  0  2  0  0  3  0  0  0  0  0  0
  189.1550  177.0500  146.8890 C   0  0  0  0  0  2  0  0  0  0  0  0
  189.5480  177.7830  145.6950 N   0  0  1  0  0  0  0  0  0  0  0  0
  187.8740  177.6840  147.4440 C   0  0  0  0  0  2  0  0  0  0  0  0
  190.6430  177.5260  143.6060 C   0  0  1  0  0  3  0  0  0  0  0  0
  185.6150  178.5720  146.8580 C   0  0  0  0  0  0  0  0  0  0  0  0
  184.4310  178.2380  146.5840 O   0  0  0  0  0  0  0  0  0  0  0  0
  185.8480  179.6970  147.6350 O   0  0  0  0  0  1  0  0  0  0  0  0
  1 19  1  1  0  0  0
  2 12  2  0  0  0  0
  2  9  1  0  0  0  0
  3  6  1  0  0  0  0
  3 12  1  0  0  0  0
  4  5  1  0  0  0  0
  6  7  1  0  0  0  0
  7  4  2  0  0  0  0
  7  1  1  0  0  0  0
  8  4  1  0  0  0  0
  9 10  1  0  0  0  0
 10 15  1  0  0  0  0
 10 11  2  0  0  0  0
 12 14  1  0  0  0  0
 13 11  1  0  0  0  0
 14 13  1  6  0  0  0
 14  1  1  0  0  0  0
 15 17  1  0  0  0  0
 16 15  2  0  0  0  0
 18 20  2  0  0  0  0
 18 21  1  0  0  0  0
 19 18  1  0  0  0  0
 21 22  1  0  0  0  0
 23 31  1  0  0  0  0
 25 32  1  1  0  0  0
 25 30  1  0  0  0  0
 26 25  1  0  0  0  0
 27 23  1  6  0  0  0
 27 26  1  0  0  0  0
 27 29  1  0  0  0  0
 28 30  1  0  0  0  0
 29 24  1  6  0  0  0
 29 28  1  0  0  0  0
 31 22  1  6  0  0  0
 31 24  1  0  0  0  0
 32 34  1  0  0  0  0
 33 32  2  0  0  0  0
M  END
>  <MODEL>
3

>  <REMARK>
 VINA RESULT:      -8.7      2.892     10.004
  Name = 
  6 active torsions:
  status: ('A' for Active; 'I' for Inactive)
    1  A    between atoms: C_1  and  N_9
    2  A    between atoms: C_3  and  C_25
    3  A    between atoms: C_7  and  C_11
    4  A    between atoms: C_8  and  C_18
    5  A    between atoms: C_18  and  O_30
    6  A    between atoms: O_30  and  C_31
                            x       y       z     vdW  Elec       q    Type
                         _______ _______ _______ _____ _____    ______ ____

>  <TORSDO>
F 6

$$$$
=
 OpenBabel10272415213D

 34 37  0  0  1  0  0  0  0  0999 V2000
  184.2140  177.9470  137.7120 C   0  0  2  0  0  3  0  0  0  0  0  0
  186.7400  175.4990  136.2650 C   0  0  0  0  0  3  0  0  0  0  0  0
  184.6900  176.3610  135.2620 C   0  0  0  0  0  2  0  0  0  0  0  0
  181.8960  178.0930  136.7680 C   0  0  0  0  0  0  0  0  0  0  0  0
  181.6300  179.3210  137.5830 C   0  0  0  0  0  1  0  0  0  0  0  0
  183.3250  176.2640  135.9140 C   0  0  0  0  0  2  0  0  0  0  0  0
  183.0970  177.4670  136.7900 C   0  0  0  0  0  0  0  0  0  0  0  0
  180.7860  177.6220  135.8790 C   0  0  0  0  0  1  0  0  0  0  0  0
  187.7390  175.3830  137.3810 C   0  0  0  0  0  2  0  0  0  0  0  0
  188.5910  176.6130  137.5900 C   0  0  0  0  0  0  0  0  0  0  0  0
  188.0990  177.8650  137.6910 C   0  0  0  0  0  3  0  0  0  0  0  0
  185.7190  176.3540  136.3400 C   0  0  0  0  0  0  0  0  0  0  0  0
  186.6840  178.3500  137.4560 C   0  0  0  0  0  2  0  0  0  0  0  0
  185.5950  177.2790  137.5260 C   0  0  1  0  0  3  0  0  0  0  0  0
  190.0310  176.3870  137.8270 C   0  0  0  0  0  0  0  0  0  0  0  0
  190.4510  175.7080  138.9670 O   0  0  0  0  0  1  0  0  0  0  0  0
  190.8910  176.7980  137.0130 O   0  0  0  0  0  0  0  0  0  0  0  0
  184.0220  178.8360  140.0720 C   0  0  0  0  0  0  0  0  0  0  0  0
  183.8070  177.8070  139.1030 N   0  0  0  0  0  2  0  0  0  0  0  0
  184.5380  179.9320  139.7400 O   0  0  0  0  0  0  0  0  0  0  0  0
  183.6630  178.5950  141.4920 C   0  0  0  0  0  2  0  0  0  0  0  0
  184.5960  177.7340  142.0770 O   0  0  0  0  0  0  0  0  0  0  0  0
  185.3230  178.5310  144.2110 C   0  0  0  0  0  2  0  0  0  0  0  0
  186.9360  178.0460  142.4620 C   0  0  0  0  0  2  0  0  0  0  0  0
  188.1770  177.1210  146.3700 C   0  0  1  0  0  3  0  0  0  0  0  0
  186.9800  178.0460  146.0830 C   0  0  0  0  0  2  0  0  0  0  0  0
  186.5260  177.7530  144.6700 C   0  0  2  0  0  3  0  0  0  0  0  0
  188.6140  177.0680  143.8670 C   0  0  0  0  0  2  0  0  0  0  0  0
  187.5900  178.0970  143.7510 N   0  0  1  0  0  0  0  0  0  0  0  0
  189.2480  177.1760  145.2590 C   0  0  0  0  0  2  0  0  0  0  0  0
  185.5180  178.5760  142.7000 C   0  0  1  0  0  3  0  0  0  0  0  0
  188.7860  177.4420  147.6990 C   0  0  0  0  0  0  0  0  0  0  0  0
  188.0660  177.8070  148.6670 O   0  0  0  0  0  1  0  0  0  0  0  0
  190.1580  177.3240  147.8700 O   0  0  0  0  0  0  0  0  0  0  0  0
  1 19  1  1  0  0  0
  2 12  2  0  0  0  0
  2  9  1  0  0  0  0
  3  6  1  0  0  0  0
  3 12  1  0  0  0  0
  4  7  2  0  0  0  0
  4  5  1  0  0  0  0
  6  7  1  0  0  0  0
  7  1  1  0  0  0  0
  8  4  1  0  0  0  0
  9 10  1  0  0  0  0
 10 11  2  0  0  0  0
 10 15  1  0  0  0  0
 12 14  1  0  0  0  0
 13 11  1  0  0  0  0
 14 13  1  6  0  0  0
 14  1  1  0  0  0  0
 15 16  1  0  0  0  0
 17 15  2  0  0  0  0
 18 21  1  0  0  0  0
 19 18  1  0  0  0  0
 20 18  2  0  0  0  0
 21 22  1  0  0  0  0
 24 31  1  0  0  0  0
 25 32  1  1  0  0  0
 26 25  1  0  0  0  0
 27 23  1  6  0  0  0
 27 26  1  0  0  0  0
 28 30  1  0  0  0  0
 29 24  1  6  0  0  0
 29 28  1  0  0  0  0
 29 27  1  0  0  0  0
 30 25  1  0  0  0  0
 31 22  1  6  0  0  0
 31 23  1  0  0  0  0
 32 34  2  0  0  0  0
 32 33  1  0  0  0  0
M  END
>  <MODEL>
4

>  <REMARK>
 VINA RESULT:      -8.6      2.897      8.419
  Name = 
  6 active torsions:
  status: ('A' for Active; 'I' for Inactive)
    1  A    between atoms: C_1  and  N_9
    2  A    between atoms: C_3  and  C_25
    3  A    between atoms: C_7  and  C_11
    4  A    between atoms: C_8  and  C_18
    5  A    between atoms: C_18  and  O_30
    6  A    between atoms: O_30  and  C_31
                            x       y       z     vdW  Elec       q    Type
                         _______ _______ _______ _____ _____    ______ ____

>  <TORSDO>
F 6

$$$$
=
 OpenBabel10272415213D

 34 37  0  0  1  0  0  0  0  0999 V2000
  190.2920  175.4490  137.4490 C   0  0  2  0  0  3  0  0  0  0  0  0
  193.0870  173.0450  136.5110 C   0  0  0  0  0  3  0  0  0  0  0  0
  190.8520  173.2480  135.5550 C   0  0  0  0  0  2  0  0  0  0  0  0
  187.9210  174.9620  136.7980 C   0  0  0  0  0  0  0  0  0  0  0  0
  187.5090  176.3360  137.2300 C   0  0  0  0  0  1  0  0  0  0  0  0
  189.5750  173.1740  136.3680 C   0  0  0  0  0  2  0  0  0  0  0  0
  189.2100  174.5500  136.8610 C   0  0  0  0  0  0  0  0  0  0  0  0
  186.8450  174.0820  136.2360 C   0  0  0  0  0  1  0  0  0  0  0  0
  194.1690  173.4310  137.4790 C   0  0  0  0  0  2  0  0  0  0  0  0
  194.8120  174.7700  137.1990 C   0  0  0  0  0  0  0  0  0  0  0  0
  194.1220  175.9070  136.9760 C   0  0  0  0  0  3  0  0  0  0  0  0
  191.9430  173.7280  136.4490 C   0  0  0  0  0  0  0  0  0  0  0  0
  192.6310  176.0900  136.7810 C   0  0  0  0  0  2  0  0  0  0  0  0
  191.7500  174.9560  137.3060 C   0  0  1  0  0  3  0  0  0  0  0  0
  196.2830  174.8340  137.3150 C   0  0  0  0  0  0  0  0  0  0  0  0
  197.0110  175.6810  136.4860 O   0  0  0  0  0  0  0  0  0  0  0  0
  196.8940  174.1330  138.1550 O   0  0  0  0  0  1  0  0  0  0  0  0
  190.0000  177.0230  139.4080 C   0  0  0  0  0  0  0  0  0  0  0  0
  190.0180  175.7030  138.8570 N   0  0  0  0  0  2  0  0  0  0  0  0
  190.1800  178.0270  138.6740 O   0  0  0  0  0  0  0  0  0  0  0  0
  189.8010  177.2070  140.8670 C   0  0  0  0  0  2  0  0  0  0  0  0
  190.9110  176.7180  141.5630 O   0  0  0  0  0  0  0  0  0  0  0  0
  191.0680  176.3660  143.9220 C   0  0  0  0  0  2  0  0  0  0  0  0
  188.9050  176.3770  142.8200 C   0  0  0  0  0  2  0  0  0  0  0  0
  188.9780  178.0640  146.6690 C   0  0  1  0  0  3  0  0  0  0  0  0
  190.1090  177.1610  146.1430 C   0  0  0  0  0  2  0  0  0  0  0  0
  190.0090  177.1640  144.6340 C   0  0  2  0  0  3  0  0  0  0  0  0
  187.7040  177.5490  144.5310 C   0  0  0  0  0  2  0  0  0  0  0  0
  188.7460  176.5740  144.2440 N   0  0  1  0  0  0  0  0  0  0  0  0
  187.6060  177.7150  146.0520 C   0  0  0  0  0  2  0  0  0  0  0  0
  190.3730  175.9850  142.6210 C   0  0  1  0  0  3  0  0  0  0  0  0
  188.9080  178.0090  148.1630 C   0  0  0  0  0  0  0  0  0  0  0  0
  189.8800  178.3940  148.8690 O   0  0  0  0  0  1  0  0  0  0  0  0
  187.7570  177.5400  148.7780 O   0  0  0  0  0  0  0  0  0  0  0  0
  1 19  1  1  0  0  0
  2  9  1  0  0  0  0
  3  6  1  0  0  0  0
  3 12  1  0  0  0  0
  4  7  2  0  0  0  0
  4  5  1  0  0  0  0
  6  7  1  0  0  0  0
  7  1  1  0  0  0  0
  8  4  1  0  0  0  0
 10 15  1  0  0  0  0
 10  9  1  0  0  0  0
 11 10  2  0  0  0  0
 12  2  2  0  0  0  0
 12 14  1  0  0  0  0
 13 11  1  0  0  0  0
 14 13  1  6  0  0  0
 14  1  1  0  0  0  0
 15 17  1  0  0  0  0
 16 15  2  0  0  0  0
 18 21  1  0  0  0  0
 19 18  1  0  0  0  0
 20 18  2  0  0  0  0
 21 22  1  0  0  0  0
 25 32  1  1  0  0  0
 26 25  1  0  0  0  0
 27 23  1  6  0  0  0
 27 26  1  0  0  0  0
 28 30  1  0  0  0  0
 29 24  1  6  0  0  0
 29 28  1  0  0  0  0
 29 27  1  0  0  0  0
 30 25  1  0  0  0  0
 31 22  1  6  0  0  0
 31 24  1  0  0  0  0
 31 23  1  0  0  0  0
 32 34  2  0  0  0  0
 32 33  1  0  0  0  0
M  END
>  <MODEL>
5

>  <REMARK>
 VINA RESULT:      -8.3      2.948      9.954
  Name = 
  6 active torsions:
  status: ('A' for Active; 'I' for Inactive)
    1  A    between atoms: C_1  and  N_9
    2  A    between atoms: C_3  and  C_25
    3  A    between atoms: C_7  and  C_11
    4  A    between atoms: C_8  and  C_18
    5  A    between atoms: C_18  and  O_30
    6  A    between atoms: O_30  and  C_31
                            x       y       z     vdW  Elec       q    Type
                         _______ _______ _______ _____ _____    ______ ____

>  <TORSDO>
F 6

$$$$
=
 OpenBabel10272415213D

 34 37  0  0  1  0  0  0  0  0999 V2000
  188.1250  176.2480  137.1020 C   0  0  2  0  0  3  0  0  0  0  0  0
  190.7690  173.5810  136.4930 C   0  0  0  0  0  3  0  0  0  0  0  0
  188.5620  173.8140  135.4800 C   0  0  0  0  0  2  0  0  0  0  0  0
  185.7350  175.8410  136.4680 C   0  0  0  0  0  0  0  0  0  0  0  0
  185.4080  177.2780  136.7330 C   0  0  0  0  0  1  0  0  0  0  0  0
  187.2740  173.9150  136.2730 C   0  0  0  0  0  2  0  0  0  0  0  0
  186.9940  175.3580  136.6000 C   0  0  0  0  0  0  0  0  0  0  0  0
  184.6110  174.9720  135.9900 C   0  0  0  0  0  1  0  0  0  0  0  0
  191.8630  174.0060  137.4300 C   0  0  0  0  0  2  0  0  0  0  0  0
  192.5950  175.2600  137.0120 C   0  0  0  0  0  0  0  0  0  0  0  0
  191.9820  176.4060  136.6490 C   0  0  0  0  0  3  0  0  0  0  0  0
  189.6720  174.3230  136.3340 C   0  0  0  0  0  0  0  0  0  0  0  0
  190.5080  176.6600  136.4080 C   0  0  0  0  0  2  0  0  0  0  0  0
  189.5500  175.6510  137.0420 C   0  0  1  0  0  3  0  0  0  0  0  0
  194.0650  175.2440  137.1470 C   0  0  0  0  0  0  0  0  0  0  0  0
  194.6720  174.3870  138.0580 O   0  0  0  0  0  1  0  0  0  0  0  0
  194.7840  175.9960  136.4480 O   0  0  0  0  0  0  0  0  0  0  0  0
  188.0630  178.0250  138.9020 C   0  0  0  0  0  0  0  0  0  0  0  0
  187.8530  176.6780  138.4670 N   0  0  0  0  0  2  0  0  0  0  0  0
  188.4530  178.9060  138.0960 O   0  0  0  0  0  0  0  0  0  0  0  0
  187.8500  178.3770  140.3280 C   0  0  0  0  0  2  0  0  0  0  0  0
  189.0730  178.3790  141.0040 O   0  0  0  0  0  0  0  0  0  0  0  0
  190.4610  176.8910  142.2590 C   0  0  0  0  0  2  0  0  0  0  0  0
  188.2440  177.4740  143.0570 C   0  0  0  0  0  2  0  0  0  0  0  0
  191.1700  177.0040  146.0380 C   0  0  1  0  0  3  0  0  0  0  0  0
  191.3610  176.4750  144.6040 C   0  0  0  0  0  2  0  0  0  0  0  0
  190.3960  177.2350  143.7220 C   0  0  2  0  0  3  0  0  0  0  0  0
  188.7990  177.6440  145.3820 C   0  0  0  0  0  2  0  0  0  0  0  0
  189.0410  176.9330  144.1350 N   0  0  1  0  0  0  0  0  0  0  0  0
  189.6880  177.0250  146.4690 C   0  0  0  0  0  2  0  0  0  0  0  0
  189.0530  177.2200  141.7800 C   0  0  1  0  0  3  0  0  0  0  0  0
  191.9850  176.2090  147.0090 C   0  0  0  0  0  0  0  0  0  0  0  0
  192.3550  175.0360  146.7310 O   0  0  0  0  0  0  0  0  0  0  0  0
  192.3460  176.7730  148.2230 O   0  0  0  0  0  1  0  0  0  0  0  0
  1 19  1  1  0  0  0
  2  9  1  0  0  0  0
  3  6  1  0  0  0  0
  3 12  1  0  0  0  0
  4  7  2  0  0  0  0
  4  5  1  0  0  0  0
  6  7  1  0  0  0  0
  7  1  1  0  0  0  0
  8  4  1  0  0  0  0
 10 15  1  0  0  0  0
 10  9  1  0  0  0  0
 11 10  2  0  0  0  0
 12  2  2  0  0  0  0
 12 14  1  0  0  0  0
 13 11  1  0  0  0  0
 14 13  1  6  0  0  0
 14  1  1  0  0  0  0
 15 16  1  0  0  0  0
 17 15  2  0  0  0  0
 18 21  1  0  0  0  0
 19 18  1  0  0  0  0
 20 18  2  0  0  0  0
 21 22  1  0  0  0  0
 25 30  1  0  0  0  0
 25 32  1  1  0  0  0
 26 25  1  0  0  0  0
 27 23  1  6  0  0  0
 27 29  1  0  0  0  0
 27 26  1  0  0  0  0
 28 30  1  0  0  0  0
 29 24  1  6  0  0  0
 29 28  1  0  0  0  0
 31 22  1  6  0  0  0
 31 23  1  0  0  0  0
 31 24  1  0  0  0  0
 32 34  1  0  0  0  0
 33 32  2  0  0  0  0
M  END
>  <MODEL>
6

>  <REMARK>
 VINA RESULT:      -8.2      3.042      8.858
  Name = 
  6 active torsions:
  status: ('A' for Active; 'I' for Inactive)
    1  A    between atoms: C_1  and  N_9
    2  A    between atoms: C_3  and  C_25
    3  A    between atoms: C_7  and  C_11
    4  A    between atoms: C_8  and  C_18
    5  A    between atoms: C_18  and  O_30
    6  A    between atoms: O_30  and  C_31
                            x       y       z     vdW  Elec       q    Type
                         _______ _______ _______ _____ _____    ______ ____

>  <TORSDO>
F 6

$$$$
=
 OpenBabel10272415213D

 34 37  0  0  1  0  0  0  0  0999 V2000
  186.3420  177.8380  142.8380 C   0  0  2  0  0  3  0  0  0  0  0  0
  188.2990  178.1980  146.0800 C   0  0  0  0  0  3  0  0  0  0  0  0
  185.8830  178.1510  145.7430 C   0  0  0  0  0  2  0  0  0  0  0  0
  183.9350  178.5240  142.7210 C   0  0  0  0  0  0  0  0  0  0  0  0
  183.8100  177.8950  141.3670 C   0  0  0  0  0  1  0  0  0  0  0  0
  185.1430  179.0830  144.8050 C   0  0  0  0  0  2  0  0  0  0  0  0
  185.0890  178.4750  143.4280 C   0  0  0  0  0  0  0  0  0  0  0  0
  182.7000  179.1620  143.2820 C   0  0  0  0  0  1  0  0  0  0  0  0
  189.7200  178.1690  145.5930 C   0  0  0  0  0  2  0  0  0  0  0  0
  190.1870  176.8160  145.1050 C   0  0  0  0  0  0  0  0  0  0  0  0
  189.5010  176.0520  144.2290 C   0  0  0  0  0  3  0  0  0  0  0  0
  187.2790  178.0050  145.2430 C   0  0  0  0  0  0  0  0  0  0  0  0
  188.1010  176.2520  143.6880 C   0  0  0  0  0  2  0  0  0  0  0  0
  187.5460  177.6730  143.7940 C   0  0  1  0  0  3  0  0  0  0  0  0
  191.5370  176.3930  145.5230 C   0  0  0  0  0  0  0  0  0  0  0  0
  192.0730  176.8540  146.7210 O   0  0  0  0  0  1  0  0  0  0  0  0
  192.2190  175.6170  144.8120 O   0  0  0  0  0  0  0  0  0  0  0  0
  187.7450  178.0690  140.7460 C   0  0  0  0  0  0  0  0  0  0  0  0
  186.7740  178.5810  141.6630 N   0  0  0  0  0  2  0  0  0  0  0  0
  188.2330  176.9230  140.9030 O   0  0  0  0  0  0  0  0  0  0  0  0
  188.2070  178.9140  139.6160 C   0  0  0  0  0  2  0  0  0  0  0  0
  187.4630  178.6200  138.4700 O   0  0  0  0  0  0  0  0  0  0  0  0
  189.8100  178.3750  138.0860 C   0  0  0  0  0  2  0  0  0  0  0  0
  188.2140  177.0140  136.8640 C   0  0  0  0  0  2  0  0  0  0  0  0
  191.8040  175.0910  137.9020 C   0  0  1  0  0  3  0  0  0  0  0  0
  191.6510  176.6230  137.9320 C   0  0  0  0  0  2  0  0  0  0  0  0
  190.1690  176.9160  138.0020 C   0  0  2  0  0  3  0  0  0  0  0  0
  189.4710  174.9730  136.9020 C   0  0  0  0  0  2  0  0  0  0  0  0
  189.5330  176.4240  136.7990 N   0  0  1  0  0  0  0  0  0  0  0  0
  190.9020  174.4250  136.8410 C   0  0  0  0  0  2  0  0  0  0  0  0
  188.4160  178.4060  137.4730 C   0  0  1  0  0  3  0  0  0  0  0  0
  193.2340  174.7050  137.6870 C   0  0  0  0  0  0  0  0  0  0  0  0
  193.5400  173.5370  137.3260 O   0  0  0  0  0  0  0  0  0  0  0  0
  194.2340  175.6480  137.8760 O   0  0  0  0  0  1  0  0  0  0  0  0
  1 19  1  6  0  0  0
  1  7  1  0  0  0  0
  1 14  1  0  0  0  0
  4  8  1  0  0  0  0
  4  7  2  0  0  0  0
  5  4  1  0  0  0  0
  6  3  1  0  0  0  0
  7  6  1  0  0  0  0
  9  2  1  0  0  0  0
 10 15  1  0  0  0  0
 10  9  1  0  0  0  0
 11 10  2  0  0  0  0
 12  3  1  0  0  0  0
 12  2  2  0  0  0  0
 13 11  1  0  0  0  0
 14 13  1  1  0  0  0
 14 12  1  0  0  0  0
 15 16  1  0  0  0  0
 17 15  2  0  0  0  0
 18 20  2  0  0  0  0
 18 19  1  0  0  0  0
 21 18  1  0  0  0  0
 22 21  1  0  0  0  0
 24 31  1  0  0  0  0
 25 32  1  6  0  0  0
 25 26  1  0  0  0  0
 27 26  1  6  0  0  0
 27 23  1  0  0  0  0
 29 24  1  1  0  0  0
 29 28  1  0  0  0  0
 29 27  1  0  0  0  0
 30 28  1  0  0  0  0
 30 25  1  0  0  0  0
 31 23  1  0  0  0  0
 31 22  1  1  0  0  0
 32 34  1  0  0  0  0
 33 32  2  0  0  0  0
M  END
>  <MODEL>
7

>  <REMARK>
 VINA RESULT:      -8.1      1.694      2.184
  Name = 
  6 active torsions:
  status: ('A' for Active; 'I' for Inactive)
    1  A    between atoms: C_1  and  N_9
    2  A    between atoms: C_3  and  C_25
    3  A    between atoms: C_7  and  C_11
    4  A    between atoms: C_8  and  C_18
    5  A    between atoms: C_18  and  O_30
    6  A    between atoms: O_30  and  C_31
                            x       y       z     vdW  Elec       q    Type
                         _______ _______ _______ _____ _____    ______ ____

>  <TORSDO>
F 6

$$$$
=
 OpenBabel10272415213D

 34 37  0  0  1  0  0  0  0  0999 V2000
  190.6820  174.5890  137.1300 C   0  0  2  0  0  3  0  0  0  0  0  0
  187.3430  175.3670  135.4810 C   0  0  0  0  0  3  0  0  0  0  0  0
  189.5800  175.3960  134.5070 C   0  0  0  0  0  2  0  0  0  0  0  0
  192.8260  175.3770  136.0990 C   0  0  0  0  0  0  0  0  0  0  0  0
  193.6100  174.5440  137.0670 C   0  0  0  0  0  1  0  0  0  0  0  0
  190.7350  176.2010  135.0680 C   0  0  0  0  0  2  0  0  0  0  0  0
  191.4710  175.3810  136.0940 C   0  0  0  0  0  0  0  0  0  0  0  0
  193.6140  176.1630  135.0960 C   0  0  0  0  0  1  0  0  0  0  0  0
  186.3810  175.1810  136.6190 C   0  0  0  0  0  2  0  0  0  0  0  0
  186.1830  173.7450  137.0450 C   0  0  0  0  0  0  0  0  0  0  0  0
  187.1920  172.8860  137.2970 C   0  0  0  0  0  3  0  0  0  0  0  0
  188.6410  175.0950  135.6240 C   0  0  0  0  0  0  0  0  0  0  0  0
  188.6770  173.0710  137.0610 C   0  0  0  0  0  2  0  0  0  0  0  0
  189.1520  174.5180  136.9230 C   0  0  1  0  0  3  0  0  0  0  0  0
  184.7960  173.3230  137.3210 C   0  0  0  0  0  0  0  0  0  0  0  0
  183.8660  174.2460  137.7890 O   0  0  0  0  0  1  0  0  0  0  0  0
  184.4350  172.1350  137.1400 O   0  0  0  0  0  0  0  0  0  0  0  0
  190.4740  176.3830  138.9020 C   0  0  0  0  0  0  0  0  0  0  0  0
  190.9510  175.1070  138.4650 N   0  0  0  0  0  2  0  0  0  0  0  0
  189.7570  177.0910  138.1520 O   0  0  0  0  0  0  0  0  0  0  0  0
  190.8570  176.8900  140.2430 C   0  0  0  0  0  2  0  0  0  0  0  0
  189.9110  176.4880  141.1910 O   0  0  0  0  0  0  0  0  0  0  0  0
  188.0310  177.8100  141.8520 C   0  0  0  0  0  2  0  0  0  0  0  0
  189.9410  177.5590  143.3300 C   0  0  0  0  0  2  0  0  0  0  0  0
  186.1950  177.7140  145.2300 C   0  0  1  0  0  3  0  0  0  0  0  0
  186.3990  178.1680  143.7730 C   0  0  0  0  0  2  0  0  0  0  0  0
  187.6770  177.5220  143.2850 C   0  0  2  0  0  3  0  0  0  0  0  0
  188.7110  177.3860  145.3790 C   0  0  0  0  0  2  0  0  0  0  0  0
  188.7870  178.0190  144.0710 N   0  0  1  0  0  0  0  0  0  0  0  0
  187.4590  177.9090  146.0950 C   0  0  0  0  0  2  0  0  0  0  0  0
  189.5480  177.6620  141.8520 C   0  0  1  0  0  3  0  0  0  0  0  0
  185.0280  178.4200  145.8460 C   0  0  0  0  0  0  0  0  0  0  0  0
  184.8570  178.4130  147.0950 O   0  0  0  0  0  1  0  0  0  0  0  0
  184.1310  179.0970  145.0340 O   0  0  0  0  0  0  0  0  0  0  0  0
  1 19  1  1  0  0  0
  2 12  2  0  0  0  0
  2  9  1  0  0  0  0
  3  6  1  0  0  0  0
  3 12  1  0  0  0  0
  4  5  1  0  0  0  0
  6  7  1  0  0  0  0
  7  4  2  0  0  0  0
  7  1  1  0  0  0  0
  8  4  1  0  0  0  0
  9 10  1  0  0  0  0
 10 11  2  0  0  0  0
 10 15  1  0  0  0  0
 12 14  1  0  0  0  0
 13 11  1  0  0  0  0
 14 13  1  6  0  0  0
 14  1  1  0  0  0  0
 15 16  1  0  0  0  0
 17 15  2  0  0  0  0
 18 21  1  0  0  0  0
 19 18  1  0  0  0  0
 20 18  2  0  0  0  0
 21 22  1  0  0  0  0
 23 31  1  0  0  0  0
 25 32  1  1  0  0  0
 25 30  1  0  0  0  0
 26 25  1  0  0  0  0
 27 23  1  6  0  0  0
 27 26  1  0  0  0  0
 27 29  1  0  0  0  0
 28 30  1  0  0  0  0
 29 24  1  6  0  0  0
 29 28  1  0  0  0  0
 31 22  1  6  0  0  0
 31 24  1  0  0  0  0
 32 33  1  0  0  0  0
 34 32  2  0  0  0  0
M  END
>  <MODEL>
8

>  <REMARK>
 VINA RESULT:      -8.0      3.068      9.952
  Name = 
  6 active torsions:
  status: ('A' for Active; 'I' for Inactive)
    1  A    between atoms: C_1  and  N_9
    2  A    between atoms: C_3  and  C_25
    3  A    between atoms: C_7  and  C_11
    4  A    between atoms: C_8  and  C_18
    5  A    between atoms: C_18  and  O_30
    6  A    between atoms: O_30  and  C_31
                            x       y       z     vdW  Elec       q    Type
                         _______ _______ _______ _____ _____    ______ ____

>  <TORSDO>
F 6

$$$$
=
 OpenBabel10272415213D

 34 37  0  0  1  0  0  0  0  0999 V2000
  183.3580  178.4550  141.3370 C   0  0  2  0  0  3  0  0  0  0  0  0
  182.3600  176.9510  137.9880 C   0  0  0  0  0  3  0  0  0  0  0  0
  180.9700  178.1070  139.6270 C   0  0  0  0  0  2  0  0  0  0  0  0
  181.6270  178.9330  143.0850 C   0  0  0  0  0  0  0  0  0  0  0  0
  182.6390  179.6760  143.9010 C   0  0  0  0  0  1  0  0  0  0  0  0
  180.8640  177.6980  141.0830 C   0  0  0  0  0  2  0  0  0  0  0  0
  181.9350  178.3930  141.8820 C   0  0  0  0  0  0  0  0  0  0  0  0
  180.2360  178.8650  143.6390 C   0  0  0  0  0  1  0  0  0  0  0  0
  183.6640  176.3880  137.4970 C   0  0  0  0  0  2  0  0  0  0  0  0
  184.6760  177.4280  137.0750 C   0  0  0  0  0  0  0  0  0  0  0  0
  185.0180  178.4970  137.8230 C   0  0  0  0  0  3  0  0  0  0  0  0
  182.2970  177.6590  139.1170 C   0  0  0  0  0  0  0  0  0  0  0  0
  184.3880  178.9970  139.1070 C   0  0  0  0  0  2  0  0  0  0  0  0
  183.5600  177.9720  139.8830 C   0  0  1  0  0  3  0  0  0  0  0  0
  185.4160  177.1610  135.8260 C   0  0  0  0  0  0  0  0  0  0  0  0
  186.8000  177.0180  135.8520 O   0  0  0  0  0  1  0  0  0  0  0  0
  184.8160  177.0580  134.7300 O   0  0  0  0  0  0  0  0  0  0  0  0
  185.5470  178.2070  142.5790 C   0  0  0  0  0  0  0  0  0  0  0  0
  184.2580  177.7120  142.2080 N   0  0  0  0  0  2  0  0  0  0  0  0
  185.9350  179.3380  142.1950 O   0  0  0  0  0  0  0  0  0  0  0  0
  186.4510  177.3610  143.3990 C   0  0  0  0  0  2  0  0  0  0  0  0
  186.1550  177.5260  144.7550 O   0  0  0  0  0  0  0  0  0  0  0  0
  187.6610  177.7070  146.6030 C   0  0  0  0  0  2  0  0  0  0  0  0
  188.4320  178.1320  144.3410 C   0  0  0  0  0  2  0  0  0  0  0  0
  191.2050  176.2370  146.8660 C   0  0  1  0  0  3  0  0  0  0  0  0
  189.9590  176.9600  147.4070 C   0  0  0  0  0  2  0  0  0  0  0  0
  188.9770  177.0630  146.2610 C   0  0  2  0  0  3  0  0  0  0  0  0
  190.5770  177.0860  144.5550 C   0  0  0  0  0  2  0  0  0  0  0  0
  189.5550  177.8830  145.2170 N   0  0  1  0  0  0  0  0  0  0  0  0
  191.7220  176.8510  145.5480 C   0  0  0  0  0  2  0  0  0  0  0  0
  187.2160  178.2770  145.2620 C   0  0  1  0  0  3  0  0  0  0  0  0
  192.2930  176.2150  147.8940 C   0  0  0  0  0  0  0  0  0  0  0  0
  193.0890  175.2410  147.9700 O   0  0  0  0  0  0  0  0  0  0  0  0
  192.4330  177.2860  148.7650 O   0  0  0  0  0  1  0  0  0  0  0  0
  1  7  1  0  0  0  0
  1 19  1  1  0  0  0
  2 12  2  0  0  0  0
  3  6  1  0  0  0  0
  4  8  1  0  0  0  0
  4  5  1  0  0  0  0
  6  7  1  0  0  0  0
  7  4  2  0  0  0  0
  9  2  1  0  0  0  0
 10  9  1  0  0  0  0
 10 11  2  0  0  0  0
 11 13  1  0  0  0  0
 12  3  1  0  0  0  0
 12 14  1  0  0  0  0
 14 13  1  6  0  0  0
 14  1  1  0  0  0  0
 15 16  1  0  0  0  0
 15 10  1  0  0  0  0
 17 15  2  0  0  0  0
 18 21  1  0  0  0  0
 19 18  1  0  0  0  0
 20 18  2  0  0  0  0
 21 22  1  0  0  0  0
 24 31  1  0  0  0  0
 25 26  1  0  0  0  0
 25 32  1  1  0  0  0
 27 23  1  1  0  0  0
 27 26  1  0  0  0  0
 28 29  1  0  0  0  0
 28 30  1  0  0  0  0
 29 24  1  6  0  0  0
 29 27  1  0  0  0  0
 30 25  1  0  0  0  0
 31 22  1  6  0  0  0
 31 23  1  0  0  0  0
 32 33  2  0  0  0  0
 32 34  1  0  0  0  0
M  END
>  <MODEL>
9

>  <REMARK>
 VINA RESULT:      -7.9      4.030      8.152
  Name = 
  6 active torsions:
  status: ('A' for Active; 'I' for Inactive)
    1  A    between atoms: C_1  and  N_9
    2  A    between atoms: C_3  and  C_25
    3  A    between atoms: C_7  and  C_11
    4  A    between atoms: C_8  and  C_18
    5  A    between atoms: C_18  and  O_30
    6  A    between atoms: O_30  and  C_31
                            x       y       z     vdW  Elec       q    Type
                         _______ _______ _______ _____ _____    ______ ____

>  <TORSDO>
F 6

$$$$
