=
 OpenBabel10272400563D

 25 28  0  0  1  0  0  0  0  0999 V2000
  190.2900  177.1520  140.9920 C   0  0  2  0  0  0  0  0  0  0  0  0
  189.2360  178.1880  140.9530 C   0  0  2  0  0  3  0  0  0  0  0  0
  189.5380  177.9900  138.0870 C   0  0  2  0  0  3  0  0  0  0  0  0
  190.6800  176.5390  139.6220 C   0  0  0  0  0  2  0  0  0  0  0  0
  188.0980  177.5030  142.7510 C   0  0  1  0  0  3  0  0  0  0  0  0
  188.3320  178.7320  138.6950 C   0  0  0  0  0  2  0  0  0  0  0  0
  190.1210  176.6540  136.2170 C   0  0  0  0  0  2  0  0  0  0  0  0
  190.0860  175.7900  137.4650 C   0  0  1  0  0  3  0  0  0  0  0  0
  186.9120  178.7460  140.8230 N   0  0  0  0  0  0  0  0  0  0  0  0
  185.6860  178.4920  140.0810 C   0  0  0  0  0  1  0  0  0  0  0  0
  188.9380  176.8530  141.6400 C   0  0  2  0  0  3  0  0  0  0  0  0
  191.4090  177.4580  141.9650 C   0  0  0  0  0  1  0  0  0  0  0  0
  189.4130  177.9280  136.5880 C   0  0  0  0  0  2  0  0  0  0  0  0
  186.7530  178.0510  142.1370 C   0  0  2  0  0  3  0  0  0  0  0  0
  189.6370  176.6090  138.5880 N   0  0  2  0  0  0  0  0  0  0  0  0
  186.1380  178.9080  143.0510 O   0  0  0  0  0  1  0  0  0  0  0  0
  188.0250  178.1480  140.0680 C   0  0  2  0  0  3  0  0  0  0  0  0
  189.1250  174.6340  137.2520 C   0  0  0  0  0  2  0  0  0  0  0  0
  189.8090  173.4210  137.3490 O   0  0  0  0  0  1  0  0  0  0  0  0
  187.8990  176.6510  143.8630 O   0  0  0  0  0  0  0  0  0  0  0  0
  188.3350  177.3030  145.0290 C   0  0  0  0  0  2  0  0  0  0  0  0
  190.5410  177.0210  146.1950 C   0  0  0  0  0  0  0  0  0  0  0  0
  189.9010  176.6110  147.3580 O   0  0  0  0  0  1  0  0  0  0  0  0
  191.7970  177.0870  146.1640 O   0  0  0  0  0  0  0  0  0  0  0  0
  189.7870  177.3650  145.0350 N   0  0  0  0  0  2  0  0  0  0  0  0
  1 11  1  0  0  0  0
  1 12  1  1  0  0  0
  2  1  1  0  0  0  0
  2 11  1  0  0  0  0
  3 15  1  0  0  0  0
  3  6  1  0  0  0  0
  4  1  1  0  0  0  0
  5 20  1  0  0  0  0
  6 17  1  0  0  0  0
  7 13  1  0  0  0  0
  7  8  1  0  0  0  0
  8 15  1  0  0  0  0
  9 14  1  0  0  0  0
 10  9  1  0  0  0  0
 11  5  1  0  0  0  0
 13  3  1  0  0  0  0
 14  5  1  0  0  0  0
 14 16  1  0  0  0  0
 15  4  1  0  0  0  0
 17  9  1  0  0  0  0
 17  2  1  0  0  0  0
 18 19  1  0  0  0  0
 18  8  1  0  0  0  0
 20 21  1  0  0  0  0
 21 25  1  0  0  0  0
 22 23  1  0  0  0  0
 24 22  2  0  0  0  0
 25 22  1  0  0  0  0
M  END
>  <MODEL>
1

>  <REMARK>
 VINA RESULT:      -6.7      0.000      0.000
  Name = 
  4 active torsions:
  status: ('A' for Active; 'I' for Inactive)
    1  A    between atoms: C_6  and  O_15
    2  A    between atoms: C_8  and  C_11
    3  A    between atoms: O_15  and  C_25
    4  A    between atoms: N_21  and  C_25
                            x       y       z     vdW  Elec       q    Type
                         _______ _______ _______ _____ _____    ______ ____

>  <TORSDO>
F 4

$$$$
=
 OpenBabel10272400563D

 25 28  0  0  1  0  0  0  0  0999 V2000
  190.5330  177.0840  139.8900 C   0  0  2  0  0  0  0  0  0  0  0  0
  189.5250  178.0900  139.4910 C   0  0  2  0  0  3  0  0  0  0  0  0
  189.9900  177.0860  136.8230 C   0  0  2  0  0  3  0  0  0  0  0  0
  190.9790  176.1020  138.7770 C   0  0  0  0  0  2  0  0  0  0  0  0
  188.2560  177.9640  141.3270 C   0  0  1  0  0  3  0  0  0  0  0  0
  188.7800  177.9950  137.1140 C   0  0  0  0  0  2  0  0  0  0  0  0
  190.6300  175.2650  135.4450 C   0  0  0  0  0  2  0  0  0  0  0  0
  190.4860  174.7880  136.8790 C   0  0  1  0  0  3  0  0  0  0  0  0
  187.2370  178.6390  139.0510 N   0  0  0  0  0  0  0  0  0  0  0  0
  186.0490  178.2120  138.3280 C   0  0  0  0  0  1  0  0  0  0  0  0
  189.1340  177.0100  140.5020 C   0  0  2  0  0  3  0  0  0  0  0  0
  191.6030  177.6280  140.8130 C   0  0  0  0  0  1  0  0  0  0  0  0
  189.9520  176.6070  135.3960 C   0  0  0  0  0  2  0  0  0  0  0  0
  186.9730  178.3460  140.4930 C   0  0  2  0  0  3  0  0  0  0  0  0
  190.0030  175.9000  137.6950 N   0  0  2  0  0  0  0  0  0  0  0  0
  186.3390  179.4390  141.0860 O   0  0  0  0  0  1  0  0  0  0  0  0
  188.3690  177.8280  138.5720 C   0  0  2  0  0  3  0  0  0  0  0  0
  189.4930  173.6400  136.9340 C   0  0  0  0  0  2  0  0  0  0  0  0
  188.1910  174.1380  136.9890 O   0  0  0  0  0  1  0  0  0  0  0  0
  187.9570  177.4640  142.6160 O   0  0  0  0  0  0  0  0  0  0  0  0
  188.9680  176.5710  143.0110 C   0  0  0  0  0  2  0  0  0  0  0  0
  191.0270  176.6750  144.4440 C   0  0  0  0  0  0  0  0  0  0  0  0
  191.6090  175.6370  143.7250 O   0  0  0  0  0  0  0  0  0  0  0  0
  191.6540  177.2000  145.3990 O   0  0  0  0  0  1  0  0  0  0  0  0
  189.7270  177.1500  144.1060 N   0  0  0  0  0  2  0  0  0  0  0  0
  1 11  1  0  0  0  0
  1 12  1  1  0  0  0
  2  1  1  0  0  0  0
  2 11  1  0  0  0  0
  3  6  1  0  0  0  0
  3 15  1  0  0  0  0
  4  1  1  0  0  0  0
  5 20  1  0  0  0  0
  6 17  1  0  0  0  0
  7  8  1  0  0  0  0
  8 18  1  0  0  0  0
  8 15  1  0  0  0  0
  9 14  1  0  0  0  0
 10  9  1  0  0  0  0
 11  5  1  0  0  0  0
 13  7  1  0  0  0  0
 13  3  1  0  0  0  0
 14 16  1  0  0  0  0
 14  5  1  0  0  0  0
 15  4  1  0  0  0  0
 17  9  1  0  0  0  0
 17  2  1  0  0  0  0
 18 19  1  0  0  0  0
 20 21  1  0  0  0  0
 21 25  1  0  0  0  0
 22 24  1  0  0  0  0
 23 22  2  0  0  0  0
 25 22  1  0  0  0  0
M  END
>  <MODEL>
2

>  <REMARK>
 VINA RESULT:      -6.6      1.431      1.724
  Name = 
  4 active torsions:
  status: ('A' for Active; 'I' for Inactive)
    1  A    between atoms: C_6  and  O_15
    2  A    between atoms: C_8  and  C_11
    3  A    between atoms: O_15  and  C_25
    4  A    between atoms: N_21  and  C_25
                            x       y       z     vdW  Elec       q    Type
                         _______ _______ _______ _____ _____    ______ ____

>  <TORSDO>
F 4

$$$$
=
 OpenBabel10272400563D

 25 28  0  0  1  0  0  0  0  0999 V2000
  190.4930  177.1110  139.9800 C   0  0  2  0  0  0  0  0  0  0  0  0
  189.4830  178.1150  139.5830 C   0  0  2  0  0  3  0  0  0  0  0  0
  189.9780  177.1440  136.9080 C   0  0  2  0  0  3  0  0  0  0  0  0
  190.9550  176.1440  138.8600 C   0  0  0  0  0  2  0  0  0  0  0  0
  188.1980  177.9600  141.4060 C   0  0  1  0  0  3  0  0  0  0  0  0
  188.7600  178.0430  137.1990 C   0  0  0  0  0  2  0  0  0  0  0  0
  190.6410  175.3430  135.5160 C   0  0  0  0  0  2  0  0  0  0  0  0
  190.4870  174.8490  136.9430 C   0  0  1  0  0  3  0  0  0  0  0  0
  187.1960  178.6560  139.1290 N   0  0  0  0  0  0  0  0  0  0  0  0
  186.0170  178.2310  138.3900 C   0  0  0  0  0  1  0  0  0  0  0  0
  189.0890  177.0210  140.5780 C   0  0  2  0  0  3  0  0  0  0  0  0
  191.5510  177.6500  140.9190 C   0  0  0  0  0  1  0  0  0  0  0  0
  189.9560  176.6820  135.4760 C   0  0  0  0  0  2  0  0  0  0  0  0
  186.9200  178.3450  140.5650 C   0  0  2  0  0  3  0  0  0  0  0  0
  189.9900  175.9490  137.7670 N   0  0  2  0  0  0  0  0  0  0  0  0
  186.2740  179.4270  141.1650 O   0  0  0  0  0  1  0  0  0  0  0  0
  188.3360  177.8570  138.6510 C   0  0  2  0  0  3  0  0  0  0  0  0
  189.5010  173.6950  136.9750 C   0  0  0  0  0  2  0  0  0  0  0  0
  188.1940  174.1850  136.9750 O   0  0  0  0  0  1  0  0  0  0  0  0
  187.8900  177.4440  142.6870 O   0  0  0  0  0  0  0  0  0  0  0  0
  188.8740  177.8590  143.6000 C   0  0  0  0  0  2  0  0  0  0  0  0
  189.3300  177.1580  145.9680 C   0  0  0  0  0  0  0  0  0  0  0  0
  190.6800  176.9890  145.6840 O   0  0  0  0  0  0  0  0  0  0  0  0
  188.9040  176.9320  147.1300 O   0  0  0  0  0  1  0  0  0  0  0  0
  188.4240  177.5870  144.9550 N   0  0  0  0  0  2  0  0  0  0  0  0
  1 11  1  0  0  0  0
  1 12  1  1  0  0  0
  2  1  1  0  0  0  0
  2 11  1  0  0  0  0
  3  6  1  0  0  0  0
  3 15  1  0  0  0  0
  4  1  1  0  0  0  0
  5 20  1  0  0  0  0
  6 17  1  0  0  0  0
  7  8  1  0  0  0  0
  8 18  1  0  0  0  0
  8 15  1  0  0  0  0
  9 14  1  0  0  0  0
 10  9  1  0  0  0  0
 11  5  1  0  0  0  0
 13  7  1  0  0  0  0
 13  3  1  0  0  0  0
 14 16  1  0  0  0  0
 14  5  1  0  0  0  0
 15  4  1  0  0  0  0
 17  9  1  0  0  0  0
 17  2  1  0  0  0  0
 19 18  1  0  0  0  0
 20 21  1  0  0  0  0
 21 25  1  0  0  0  0
 22 24  1  0  0  0  0
 23 22  2  0  0  0  0
 25 22  1  0  0  0  0
M  END
>  <MODEL>
3

>  <REMARK>
 VINA RESULT:      -6.5      1.267      1.569
  Name = 
  4 active torsions:
  status: ('A' for Active; 'I' for Inactive)
    1  A    between atoms: C_6  and  O_15
    2  A    between atoms: C_8  and  C_11
    3  A    between atoms: O_15  and  C_25
    4  A    between atoms: N_21  and  C_25
                            x       y       z     vdW  Elec       q    Type
                         _______ _______ _______ _____ _____    ______ ____

>  <TORSDO>
F 4

$$$$
=
 OpenBabel10272400563D

 25 28  0  0  1  0  0  0  0  0999 V2000
  191.3270  176.9230  139.5860 C   0  0  2  0  0  0  0  0  0  0  0  0
  190.4230  177.9550  140.1380 C   0  0  2  0  0  3  0  0  0  0  0  0
  189.4780  178.1810  137.4180 C   0  0  2  0  0  3  0  0  0  0  0  0
  191.0640  176.5190  138.1130 C   0  0  0  0  0  2  0  0  0  0  0  0
  190.1070  177.0120  142.1410 C   0  0  1  0  0  3  0  0  0  0  0  0
  188.6890  178.8270  138.5740 C   0  0  0  0  0  2  0  0  0  0  0  0
  189.1340  177.1360  135.3180 C   0  0  0  0  0  2  0  0  0  0  0  0
  189.5720  176.0970  136.3340 C   0  0  1  0  0  3  0  0  0  0  0  0
  188.3010  178.5280  141.0860 N   0  0  0  0  0  0  0  0  0  0  0  0
  186.8630  178.3880  140.9090 C   0  0  0  0  0  1  0  0  0  0  0  0
  190.3570  176.5340  140.7020 C   0  0  2  0  0  3  0  0  0  0  0  0
  192.7680  177.0820  140.0220 C   0  0  0  0  0  1  0  0  0  0  0  0
  188.7300  178.3420  136.1210 C   0  0  0  0  0  2  0  0  0  0  0  0
  188.6650  177.6470  142.2360 C   0  0  2  0  0  3  0  0  0  0  0  0
  189.6900  176.7420  137.6400 N   0  0  2  0  0  0  0  0  0  0  0  0
  188.5480  178.3600  143.4300 O   0  0  0  0  0  1  0  0  0  0  0  0
  188.9520  178.0470  139.8560 C   0  0  2  0  0  3  0  0  0  0  0  0
  188.5390  174.9860  136.3990 C   0  0  0  0  0  2  0  0  0  0  0  0
  187.6760  175.2000  137.4750 O   0  0  0  0  0  1  0  0  0  0  0  0
  190.3400  176.0060  143.1070 O   0  0  0  0  0  0  0  0  0  0  0  0
  191.4600  176.3580  143.8790 C   0  0  0  0  0  2  0  0  0  0  0  0
  191.4830  176.4930  146.3860 C   0  0  0  0  0  0  0  0  0  0  0  0
  192.3780  175.4320  146.4600 O   0  0  0  0  0  0  0  0  0  0  0  0
  191.0800  177.0430  147.4430 O   0  0  0  0  0  1  0  0  0  0  0  0
  191.0200  176.9650  145.1230 N   0  0  0  0  0  2  0  0  0  0  0  0
  1 12  1  1  0  0  0
  1  2  1  0  0  0  0
  1 11  1  0  0  0  0
  2 11  1  0  0  0  0
  3 15  1  0  0  0  0
  3  6  1  0  0  0  0
  4  1  1  0  0  0  0
  5 14  1  0  0  0  0
  5 20  1  0  0  0  0
  6 17  1  0  0  0  0
  7 13  1  0  0  0  0
  7  8  1  0  0  0  0
  8 18  1  0  0  0  0
  8 15  1  0  0  0  0
  9 14  1  0  0  0  0
 10  9  1  0  0  0  0
 11  5  1  0  0  0  0
 13  3  1  0  0  0  0
 14 16  1  0  0  0  0
 15  4  1  0  0  0  0
 17  2  1  0  0  0  0
 17  9  1  0  0  0  0
 18 19  1  0  0  0  0
 20 21  1  0  0  0  0
 21 25  1  0  0  0  0
 22 23  2  0  0  0  0
 22 24  1  0  0  0  0
 25 22  1  0  0  0  0
M  END
>  <MODEL>
4

>  <REMARK>
 VINA RESULT:      -6.2      1.452      1.827
  Name = 
  4 active torsions:
  status: ('A' for Active; 'I' for Inactive)
    1  A    between atoms: C_6  and  O_15
    2  A    between atoms: C_8  and  C_11
    3  A    between atoms: O_15  and  C_25
    4  A    between atoms: N_21  and  C_25
                            x       y       z     vdW  Elec       q    Type
                         _______ _______ _______ _____ _____    ______ ____

>  <TORSDO>
F 4

$$$$
=
 OpenBabel10272400563D

 25 28  0  0  1  0  0  0  0  0999 V2000
  190.4340  177.0200  140.3430 C   0  0  2  0  0  0  0  0  0  0  0  0
  188.9770  176.9320  140.5820 C   0  0  2  0  0  3  0  0  0  0  0  0
  189.7340  176.5730  143.3460 C   0  0  2  0  0  3  0  0  0  0  0  0
  191.3200  177.0760  141.6150 C   0  0  0  0  0  2  0  0  0  0  0  0
  188.3430  178.3830  139.0040 C   0  0  1  0  0  3  0  0  0  0  0  0
  188.2700  176.8740  142.9710 C   0  0  0  0  0  2  0  0  0  0  0  0
  191.3130  176.9880  145.0660 C   0  0  0  0  0  2  0  0  0  0  0  0
  191.6850  177.7920  143.8330 C   0  0  1  0  0  3  0  0  0  0  0  0
  186.9180  178.0230  141.1280 N   0  0  0  0  0  0  0  0  0  0  0  0
  186.2910  178.9350  142.0720 C   0  0  0  0  0  1  0  0  0  0  0  0
  189.5470  178.1990  139.9410 C   0  0  2  0  0  3  0  0  0  0  0  0
  190.9150  176.1630  139.1920 C   0  0  0  0  0  1  0  0  0  0  0  0
  189.8950  176.5390  144.8430 C   0  0  0  0  0  2  0  0  0  0  0  0
  187.0770  178.7880  139.8540 C   0  0  2  0  0  3  0  0  0  0  0  0
  190.6530  177.5950  142.8180 N   0  0  2  0  0  0  0  0  0  0  0  0
  185.9280  178.6490  139.0750 O   0  0  0  0  0  1  0  0  0  0  0  0
  188.2390  177.6590  141.6660 C   0  0  2  0  0  3  0  0  0  0  0  0
  191.7760  179.2640  144.1970 C   0  0  0  0  0  2  0  0  0  0  0  0
  190.6520  179.9420  143.7240 O   0  0  0  0  0  1  0  0  0  0  0  0
  188.6060  179.2710  137.9340 O   0  0  0  0  0  0  0  0  0  0  0  0
  188.9820  178.5300  136.8010 C   0  0  0  0  0  2  0  0  0  0  0  0
  188.6980  176.1200  136.1530 C   0  0  0  0  0  0  0  0  0  0  0  0
  189.9930  176.0780  135.6500 O   0  0  0  0  0  0  0  0  0  0  0  0
  187.9760  175.0910  136.1050 O   0  0  0  0  0  1  0  0  0  0  0  0
  188.1820  177.3190  136.7260 N   0  0  0  0  0  2  0  0  0  0  0  0
  1 12  1  6  0  0  0
  1  2  1  0  0  0  0
  1  4  1  0  0  0  0
  2 17  1  0  0  0  0
  3 13  1  0  0  0  0
  4 15  1  0  0  0  0
  5 14  1  0  0  0  0
  5 11  1  0  0  0  0
  6  3  1  0  0  0  0
  8 18  1  0  0  0  0
  8  7  1  0  0  0  0
  9 17  1  0  0  0  0
  9 10  1  0  0  0  0
 11  1  1  0  0  0  0
 11  2  1  0  0  0  0
 13  7  1  0  0  0  0
 14  9  1  0  0  0  0
 15  3  1  0  0  0  0
 15  8  1  0  0  0  0
 16 14  1  0  0  0  0
 17  6  1  0  0  0  0
 19 18  1  0  0  0  0
 20  5  1  0  0  0  0
 21 20  1  0  0  0  0
 22 25  1  0  0  0  0
 23 22  2  0  0  0  0
 24 22  1  0  0  0  0
 25 21  1  0  0  0  0
M  END
>  <MODEL>
5

>  <REMARK>
 VINA RESULT:      -6.0      2.230      6.454
  Name = 
  4 active torsions:
  status: ('A' for Active; 'I' for Inactive)
    1  A    between atoms: C_6  and  O_15
    2  A    between atoms: C_8  and  C_11
    3  A    between atoms: O_15  and  C_25
    4  A    between atoms: N_21  and  C_25
                            x       y       z     vdW  Elec       q    Type
                         _______ _______ _______ _____ _____    ______ ____

>  <TORSDO>
F 4

$$$$
=
 OpenBabel10272400563D

 25 28  0  0  1  0  0  0  0  0999 V2000
  188.6570  177.6140  141.4870 C   0  0  2  0  0  0  0  0  0  0  0  0
  187.5730  177.2190  142.4130 C   0  0  2  0  0  3  0  0  0  0  0  0
  189.7270  176.7030  144.2680 C   0  0  2  0  0  3  0  0  0  0  0  0
  190.0740  177.6950  142.1090 C   0  0  0  0  0  2  0  0  0  0  0  0
  186.0460  178.6910  141.7050 C   0  0  1  0  0  3  0  0  0  0  0  0
  188.2680  176.7560  144.7610 C   0  0  0  0  0  2  0  0  0  0  0  0
  191.9280  177.2180  144.9830 C   0  0  0  0  0  2  0  0  0  0  0  0
  191.4960  178.2130  143.9210 C   0  0  1  0  0  3  0  0  0  0  0  0
  186.0270  177.8230  144.1380 N   0  0  0  0  0  0  0  0  0  0  0  0
  185.9130  178.4840  145.4290 C   0  0  0  0  0  1  0  0  0  0  0  0
  187.5760  178.6370  141.8370 C   0  0  2  0  0  3  0  0  0  0  0  0
  188.5320  177.0020  140.1080 C   0  0  0  0  0  1  0  0  0  0  0  0
  190.6660  176.5320  145.4310 C   0  0  0  0  0  2  0  0  0  0  0  0
  185.3990  178.7440  143.1430 C   0  0  2  0  0  3  0  0  0  0  0  0
  190.1070  177.9360  143.5600 N   0  0  2  0  0  0  0  0  0  0  0  0
  184.0320  178.4750  143.0500 O   0  0  0  0  0  1  0  0  0  0  0  0
  187.4600  177.6630  143.8420 C   0  0  2  0  0  3  0  0  0  0  0  0
  191.6140  179.6230  144.4710 C   0  0  0  0  0  2  0  0  0  0  0  0
  190.7980  180.4890  143.7410 O   0  0  0  0  0  1  0  0  0  0  0  0
  185.6010  179.7270  140.8520 O   0  0  0  0  0  0  0  0  0  0  0  0
  184.8660  179.1690  139.7920 C   0  0  0  0  0  2  0  0  0  0  0  0
  185.3560  177.8610  137.7050 C   0  0  0  0  0  0  0  0  0  0  0  0
  184.0500  177.3860  137.6670 O   0  0  0  0  0  1  0  0  0  0  0  0
  186.1720  177.5120  136.8140 O   0  0  0  0  0  0  0  0  0  0  0  0
  185.7770  178.7420  138.7430 N   0  0  0  0  0  2  0  0  0  0  0  0
  1 12  1  6  0  0  0
  1 11  1  0  0  0  0
  1  4  1  0  0  0  0
  1  2  1  0  0  0  0
  2 17  1  0  0  0  0
  3  6  1  0  0  0  0
  3 13  1  0  0  0  0
  4 15  1  0  0  0  0
  5 11  1  0  0  0  0
  5 14  1  0  0  0  0
  7 13  1  0  0  0  0
  8 18  1  0  0  0  0
  8  7  1  0  0  0  0
  9 10  1  0  0  0  0
 11  2  1  0  0  0  0
 14  9  1  0  0  0  0
 15  8  1  0  0  0  0
 15  3  1  0  0  0  0
 16 14  1  0  0  0  0
 17  9  1  0  0  0  0
 17  6  1  0  0  0  0
 19 18  1  0  0  0  0
 20  5  1  0  0  0  0
 21 20  1  0  0  0  0
 22 25  1  0  0  0  0
 23 22  1  0  0  0  0
 24 22  2  0  0  0  0
 25 21  1  0  0  0  0
M  END
>  <MODEL>
6

>  <REMARK>
 VINA RESULT:      -5.8      2.915      6.544
  Name = 
  4 active torsions:
  status: ('A' for Active; 'I' for Inactive)
    1  A    between atoms: C_6  and  O_15
    2  A    between atoms: C_8  and  C_11
    3  A    between atoms: O_15  and  C_25
    4  A    between atoms: N_21  and  C_25
                            x       y       z     vdW  Elec       q    Type
                         _______ _______ _______ _____ _____    ______ ____

>  <TORSDO>
F 4

$$$$
=
 OpenBabel10272400563D

 25 28  0  0  1  0  0  0  0  0999 V2000
  189.3540  176.2830  136.1200 C   0  0  2  0  0  0  0  0  0  0  0  0
  189.5400  177.2230  137.2470 C   0  0  2  0  0  3  0  0  0  0  0  0
  186.6600  177.4370  137.1750 C   0  0  2  0  0  3  0  0  0  0  0  0
  187.8870  175.8950  135.8040 C   0  0  0  0  0  2  0  0  0  0  0  0
  191.3020  176.2080  138.1750 C   0  0  1  0  0  3  0  0  0  0  0  0
  187.4530  177.9870  138.3760 C   0  0  0  0  0  2  0  0  0  0  0  0
  184.5820  176.4190  136.6550 C   0  0  0  0  0  2  0  0  0  0  0  0
  185.6950  175.3950  136.5210 C   0  0  1  0  0  3  0  0  0  0  0  0
  189.6610  177.5950  139.6080 N   0  0  0  0  0  0  0  0  0  0  0  0
  188.9830  177.3410  140.8700 C   0  0  0  0  0  1  0  0  0  0  0  0
  190.0520  175.7870  137.3870 C   0  0  2  0  0  3  0  0  0  0  0  0
  190.2760  176.5490  134.9490 C   0  0  0  0  0  1  0  0  0  0  0  0
  185.1800  177.5680  137.4210 C   0  0  0  0  0  2  0  0  0  0  0  0
  190.8720  176.7190  139.6040 C   0  0  2  0  0  3  0  0  0  0  0  0
  186.9520  176.0160  136.9330 N   0  0  2  0  0  0  0  0  0  0  0  0
  191.9400  177.3900  140.2010 O   0  0  0  0  0  1  0  0  0  0  0  0
  188.7490  177.2000  138.5220 C   0  0  2  0  0  3  0  0  0  0  0  0
  185.3930  174.2010  137.4100 C   0  0  0  0  0  2  0  0  0  0  0  0
  184.0670  174.2520  137.8420 O   0  0  0  0  0  1  0  0  0  0  0  0
  192.2940  175.2000  138.2170 O   0  0  0  0  0  0  0  0  0  0  0  0
  193.4630  175.6780  137.5990 C   0  0  0  0  0  2  0  0  0  0  0  0
  195.1800  174.1370  138.5910 C   0  0  0  0  0  0  0  0  0  0  0  0
  194.6620  173.0620  137.8770 O   0  0  0  0  0  0  0  0  0  0  0  0
  196.1670  173.9630  139.3510 O   0  0  0  0  0  1  0  0  0  0  0  0
  194.6030  175.4340  138.4660 N   0  0  0  0  0  2  0  0  0  0  0  0
  1 12  1  6  0  0  0
  1  2  1  0  0  0  0
  1 11  1  0  0  0  0
  2 11  1  0  0  0  0
  2 17  1  0  0  0  0
  3 13  1  0  0  0  0
  3  6  1  0  0  0  0
  4  1  1  0  0  0  0
  4 15  1  0  0  0  0
  5 20  1  0  0  0  0
  5 14  1  0  0  0  0
  6 17  1  0  0  0  0
  7 13  1  0  0  0  0
  8  7  1  0  0  0  0
  8 15  1  0  0  0  0
  8 18  1  0  0  0  0
  9 10  1  0  0  0  0
 11  5  1  0  0  0  0
 14  9  1  0  0  0  0
 14 16  1  0  0  0  0
 15  3  1  0  0  0  0
 17  9  1  0  0  0  0
 18 19  1  0  0  0  0
 21 20  1  0  0  0  0
 21 25  1  0  0  0  0
 22 24  1  0  0  0  0
 23 22  2  0  0  0  0
 25 22  1  0  0  0  0
M  END
>  <MODEL>
7

>  <REMARK>
 VINA RESULT:      -5.6      3.481      5.995
  Name = 
  4 active torsions:
  status: ('A' for Active; 'I' for Inactive)
    1  A    between atoms: C_6  and  O_15
    2  A    between atoms: C_8  and  C_11
    3  A    between atoms: O_15  and  C_25
    4  A    between atoms: N_21  and  C_25
                            x       y       z     vdW  Elec       q    Type
                         _______ _______ _______ _____ _____    ______ ____

>  <TORSDO>
F 4

$$$$
=
 OpenBabel10272400563D

 25 28  0  0  1  0  0  0  0  0999 V2000
  185.5980  178.5140  141.3430 C   0  0  2  0  0  0  0  0  0  0  0  0
  184.6200  179.2390  142.1840 C   0  0  2  0  0  3  0  0  0  0  0  0
  182.9320  179.1050  139.8440 C   0  0  2  0  0  3  0  0  0  0  0  0
  185.0670  178.0140  139.9750 C   0  0  0  0  0  2  0  0  0  0  0  0
  185.1670  178.2930  144.1340 C   0  0  1  0  0  3  0  0  0  0  0  0
  182.3430  179.5110  141.2080 C   0  0  0  0  0  2  0  0  0  0  0  0
  182.3420  177.9540  137.8560 C   0  0  0  0  0  2  0  0  0  0  0  0
  183.3320  177.1200  138.6480 C   0  0  1  0  0  3  0  0  0  0  0  0
  182.7750  179.1690  143.7070 N   0  0  0  0  0  0  0  0  0  0  0  0
  181.4540  178.5990  143.9200 C   0  0  0  0  0  1  0  0  0  0  0  0
  185.1370  177.8770  142.6550 C   0  0  2  0  0  3  0  0  0  0  0  0
  186.9900  179.1090  141.3790 C   0  0  0  0  0  1  0  0  0  0  0  0
  181.8400  179.0020  138.8120 C   0  0  0  0  0  2  0  0  0  0  0  0
  183.6890  178.4660  144.6580 C   0  0  2  0  0  3  0  0  0  0  0  0
  183.6130  177.8020  139.9100 N   0  0  2  0  0  0  0  0  0  0  0  0
  183.7040  179.1400  145.8810 O   0  0  0  0  0  1  0  0  0  0  0  0
  183.1700  178.8770  142.3190 C   0  0  2  0  0  3  0  0  0  0  0  0
  182.7340  175.7520  138.9240 C   0  0  0  0  0  2  0  0  0  0  0  0
  183.3170  174.8000  138.0860 O   0  0  0  0  0  1  0  0  0  0  0  0
  185.9470  177.4260  144.9360 O   0  0  0  0  0  0  0  0  0  0  0  0
  187.0820  178.1170  145.3920 C   0  0  0  0  0  2  0  0  0  0  0  0
  188.0690  177.5420  147.6280 C   0  0  0  0  0  0  0  0  0  0  0  0
  189.1060  176.8450  147.0190 O   0  0  0  0  0  0  0  0  0  0  0  0
  188.0200  177.6150  148.8830 O   0  0  0  0  0  1  0  0  0  0  0  0
  187.0630  178.1770  146.8430 N   0  0  0  0  0  2  0  0  0  0  0  0
  1 12  1  6  0  0  0
  1  2  1  0  0  0  0
  1 11  1  0  0  0  0
  2 17  1  0  0  0  0
  2 11  1  0  0  0  0
  3 15  1  0  0  0  0
  3  6  1  0  0  0  0
  4  1  1  0  0  0  0
  5 14  1  0  0  0  0
  5 20  1  0  0  0  0
  6 17  1  0  0  0  0
  7  8  1  0  0  0  0
  7 13  1  0  0  0  0
  8 18  1  0  0  0  0
  8 15  1  0  0  0  0
  9 10  1  0  0  0  0
  9 14  1  0  0  0  0
 11  5  1  0  0  0  0
 13  3  1  0  0  0  0
 14 16  1  0  0  0  0
 15  4  1  0  0  0  0
 17  9  1  0  0  0  0
 19 18  1  0  0  0  0
 20 21  1  0  0  0  0
 21 25  1  0  0  0  0
 22 24  1  0  0  0  0
 23 22  2  0  0  0  0
 25 22  1  0  0  0  0
M  END
>  <MODEL>
8

>  <REMARK>
 VINA RESULT:      -5.6      3.986      5.279
  Name = 
  4 active torsions:
  status: ('A' for Active; 'I' for Inactive)
    1  A    between atoms: C_6  and  O_15
    2  A    between atoms: C_8  and  C_11
    3  A    between atoms: O_15  and  C_25
    4  A    between atoms: N_21  and  C_25
                            x       y       z     vdW  Elec       q    Type
                         _______ _______ _______ _____ _____    ______ ____

>  <TORSDO>
F 4

$$$$
=
 OpenBabel10272400563D

 25 28  0  0  1  0  0  0  0  0999 V2000
  189.7970  176.4840  138.0700 C   0  0  2  0  0  0  0  0  0  0  0  0
  189.1370  177.6920  138.6110 C   0  0  2  0  0  3  0  0  0  0  0  0
  187.0460  177.0530  136.7240 C   0  0  2  0  0  3  0  0  0  0  0  0
  188.9400  175.6280  137.1030 C   0  0  0  0  0  2  0  0  0  0  0  0
  189.8620  177.4920  140.7160 C   0  0  1  0  0  3  0  0  0  0  0  0
  186.8030  178.0930  137.8350 C   0  0  0  0  0  2  0  0  0  0  0  0
  185.9010  175.3890  135.4820 C   0  0  0  0  0  2  0  0  0  0  0  0
  186.8580  174.7250  136.4560 C   0  0  1  0  0  3  0  0  0  0  0  0
  187.6260  178.6720  140.1870 N   0  0  0  0  0  0  0  0  0  0  0  0
  186.2880  178.5660  140.7490 C   0  0  0  0  0  1  0  0  0  0  0  0
  189.4840  176.5470  139.5650 C   0  0  2  0  0  3  0  0  0  0  0  0
  191.2540  176.6940  137.7150 C   0  0  0  0  0  1  0  0  0  0  0  0
  185.7800  176.8150  135.9440 C   0  0  0  0  0  2  0  0  0  0  0  0
  188.5630  178.2060  141.2550 C   0  0  2  0  0  3  0  0  0  0  0  0
  187.4850  175.7610  137.2730 N   0  0  2  0  0  0  0  0  0  0  0  0
  188.9240  179.2830  142.0670 O   0  0  0  0  0  1  0  0  0  0  0  0
  187.6980  177.7710  139.0260 C   0  0  2  0  0  3  0  0  0  0  0  0
  186.0900  173.7620  137.3430 C   0  0  0  0  0  2  0  0  0  0  0  0
  184.7170  173.9480  137.1720 O   0  0  0  0  0  1  0  0  0  0  0  0
  190.6120  176.8540  141.7320 O   0  0  0  0  0  0  0  0  0  0  0  0
  189.7340  176.1780  142.5970 C   0  0  0  0  0  2  0  0  0  0  0  0
  189.0150  176.9480  144.8760 C   0  0  0  0  0  0  0  0  0  0  0  0
  187.6900  177.0150  144.4620 O   0  0  0  0  0  0  0  0  0  0  0  0
  189.3140  177.2500  146.0600 O   0  0  0  0  0  1  0  0  0  0  0  0
  190.0370  176.5360  143.9720 N   0  0  0  0  0  2  0  0  0  0  0  0
  1 12  1  6  0  0  0
  1  2  1  0  0  0  0
  1 11  1  0  0  0  0
  2 17  1  0  0  0  0
  2 11  1  0  0  0  0
  3 15  1  0  0  0  0
  3  6  1  0  0  0  0
  4 15  1  0  0  0  0
  4  1  1  0  0  0  0
  5 14  1  0  0  0  0
  5 20  1  0  0  0  0
  6 17  1  0  0  0  0
  7 13  1  0  0  0  0
  7  8  1  0  0  0  0
  8 15  1  0  0  0  0
  8 18  1  0  0  0  0
  9 10  1  0  0  0  0
  9 14  1  0  0  0  0
 11  5  1  0  0  0  0
 13  3  1  0  0  0  0
 14 16  1  0  0  0  0
 17  9  1  0  0  0  0
 19 18  1  0  0  0  0
 20 21  1  0  0  0  0
 21 25  1  0  0  0  0
 22 24  1  0  0  0  0
 23 22  2  0  0  0  0
 25 22  1  0  0  0  0
M  END
>  <MODEL>
9

>  <REMARK>
 VINA RESULT:      -5.5      2.248      2.977
  Name = 
  4 active torsions:
  status: ('A' for Active; 'I' for Inactive)
    1  A    between atoms: C_6  and  O_15
    2  A    between atoms: C_8  and  C_11
    3  A    between atoms: O_15  and  C_25
    4  A    between atoms: N_21  and  C_25
                            x       y       z     vdW  Elec       q    Type
                         _______ _______ _______ _____ _____    ______ ____

>  <TORSDO>
F 4

$$$$
