=
 OpenBabel10272414323D

 43 49  0  0  1  0  0  0  0  0999 V2000
  191.4130  176.4770  146.9010 C   0  0  0  0  0  0  0  0  0  0  0  0
  186.9730  177.9610  144.9880 C   0  0  0  0  0  0  0  0  0  0  0  0
  187.3570  178.1400  142.2600 C   0  0  0  0  0  0  0  0  0  0  0  0
  189.1110  177.1840  146.6320 C   0  0  0  0  0  0  0  0  0  0  0  0
  191.6100  176.5780  145.5230 C   0  0  0  0  0  3  0  0  0  0  0  0
  192.4310  176.0780  147.7020 F   0  0  0  0  0  0  0  0  0  0  0  0
  189.3050  177.2910  145.2320 C   0  0  0  0  0  0  0  0  0  0  0  0
  190.1660  176.7790  147.4560 C   0  0  0  0  0  3  0  0  0  0  0  0
  190.5620  176.9850  144.6900 C   0  0  0  0  0  3  0  0  0  0  0  0
  188.3910  177.7860  143.0660 N   0  0  0  0  0  0  0  0  0  0  0  0
  188.2350  177.6900  144.4130 C   0  0  0  0  0  0  0  0  0  0  0  0
  186.8000  177.8560  146.3750 C   0  0  0  0  0  3  0  0  0  0  0  0
  185.9180  178.3240  144.1350 C   0  0  0  0  0  0  0  0  0  0  0  0
  186.1340  178.3930  142.7940 N   0  0  0  0  0  0  0  0  0  0  0  0
  187.8650  177.4710  147.1910 C   0  0  0  0  0  3  0  0  0  0  0  0
  184.5330  178.5610  144.6530 C   0  0  0  0  0  2  0  0  0  0  0  0
  181.3260  179.0880  142.7030 C   0  0  0  0  0  3  0  0  0  0  0  0
  181.7330  178.7530  141.4050 C   0  0  0  0  0  0  0  0  0  0  0  0
  183.9740  178.3250  142.2190 C   0  0  0  0  0  3  0  0  0  0  0  0
  182.2410  179.0320  143.7580 C   0  0  0  0  0  3  0  0  0  0  0  0
  183.5650  178.6520  143.5190 C   0  0  0  0  0  0  0  0  0  0  0  0
  183.0600  178.3750  141.1630 C   0  0  0  0  0  3  0  0  0  0  0  0
  180.6620  180.1530  139.8340 O   0  0  0  0  0  1  0  0  0  0  0  0
  180.7620  178.8330  140.2790 C   0  0  0  0  0  2  0  0  0  0  0  0
  187.5440  178.1570  140.7810 C   0  0  0  0  0  2  0  0  0  0  0  0
  188.9850  178.4980  140.4090 C   0  0  0  0  0  2  0  0  0  0  0  0
  189.4120  177.7350  139.2440 N   0  0  0  0  0  2  0  0  0  0  0  0
  189.2620  178.2150  137.9050 C   0  0  0  0  0  0  0  0  0  0  0  0
  188.9130  179.4430  137.6790 N   0  0  0  0  0  2  0  0  0  0  0  0
  189.6230  177.3070  136.7660 C   0  0  1  0  0  3  0  0  0  0  0  0
  190.7460  176.5230  137.0890 O   0  0  0  0  0  0  0  0  0  0  0  0
  188.8700  175.4490  135.1190 C   0  0  0  0  0  2  0  0  0  0  0  0
  187.0420  176.8930  136.3620 C   0  0  2  0  0  3  0  0  0  0  0  0
  191.2140  175.9640  135.8810 C   0  0  0  0  0  2  0  0  0  0  0  0
  188.4810  176.4090  136.2400 C   0  0  2  0  0  0  0  0  0  0  0  0
  187.5710  175.7850  137.2750 C   0  0  0  0  0  2  0  0  0  0  0  0
  190.2580  174.8660  135.3980 C   0  0  0  0  0  2  0  0  0  0  0  0
  186.2300  176.3380  135.3690 O   0  0  0  0  0  0  0  0  0  0  0  0
  185.1720  177.2400  135.2450 C   0  0  0  0  0  2  0  0  0  0  0  0
  183.8880  176.5960  135.7300 C   0  0  0  0  0  2  0  0  0  0  0  0
  183.5740  176.2400  138.1560 C   0  0  0  0  0  2  0  0  0  0  0  0
  183.4640  177.2470  137.0310 C   0  0  0  0  0  3  0  0  0  0  0  0
  182.2230  176.5530  137.5520 C   0  0  0  0  0  2  0  0  0  0  0  0
  1  8  1  0  0  0  0
  1  6  1  0  0  0  0
  2 12  1  0  0  0  0
  3 14  1  0  0  0  0
  3 10  2  0  0  0  0
  4 15  1  0  0  0  0
  4  8  2  0  0  0  0
  5  1  2  0  0  0  0
  7  4  1  0  0  0  0
  9  7  2  0  0  0  0
  9  5  1  0  0  0  0
 10 11  1  0  0  0  0
 11  2  2  0  0  0  0
 11  7  1  0  0  0  0
 12 15  2  0  0  0  0
 13 16  1  0  0  0  0
 13  2  1  0  0  0  0
 14 13  2  0  0  0  0
 17 20  1  0  0  0  0
 18 17  2  0  0  0  0
 19 21  1  0  0  0  0
 21 20  2  0  0  0  0
 21 16  1  0  0  0  0
 22 18  1  0  0  0  0
 22 19  2  0  0  0  0
 23 24  1  0  0  0  0
 24 18  1  0  0  0  0
 25  3  1  0  0  0  0
 26 25  1  0  0  0  0
 27 26  1  0  0  0  0
 28 27  1  0  0  0  0
 29 28  2  0  0  0  0
 30 31  1  0  0  0  0
 30 28  1  1  0  0  0
 32 37  1  0  0  0  0
 33 38  1  6  0  0  0
 33 36  1  0  0  0  0
 34 31  1  0  0  0  0
 35 32  1  6  0  0  0
 35 33  1  0  0  0  0
 35 30  1  0  0  0  0
 35 36  1  0  0  0  0
 37 34  1  0  0  0  0
 39 38  1  0  0  0  0
 39 40  1  0  0  0  0
 40 42  1  0  0  0  0
 42 43  1  0  0  0  0
 42 41  1  0  0  0  0
 43 41  1  0  0  0  0
M  END
>  <MODEL>
1

>  <REMARK>
 VINA RESULT:      -9.7      0.000      0.000
  Name = 
  11 active torsions:
  status: ('A' for Active; 'I' for Inactive)
    1  A    between atoms: C_1  and  C_34
    2  A    between atoms: C_1  and  C_35
    3  A    between atoms: C_2  and  N_6
    4  A    between atoms: C_2  and  C_7
    5  A    between atoms: C_3  and  C_12
    6  A    between atoms: C_7  and  C_13
    7  A    between atoms: O_11  and  C_14
    8  A    between atoms: O_11  and  C_36
    9  A    between atoms: C_19  and  C_37
   10  A    between atoms: C_29  and  C_31
   11  A    between atoms: C_29  and  C_36
                            x       y       z     vdW  Elec       q    Type
                         _______ _______ _______ _____ _____    ______ ____

>  <TORSDO>
F 11

$$$$
=
 OpenBabel10272414323D

 43 49  0  0  1  0  0  0  0  0999 V2000
  184.6420  178.6260  145.4500 C   0  0  0  0  0  0  0  0  0  0  0  0
  182.6560  178.8780  140.8050 C   0  0  0  0  0  0  0  0  0  0  0  0
  184.7800  178.5840  139.0670 C   0  0  0  0  0  0  0  0  0  0  0  0
  183.1250  178.8380  143.5730 C   0  0  0  0  0  0  0  0  0  0  0  0
  185.7180  178.4880  144.5710 C   0  0  0  0  0  3  0  0  0  0  0  0
  184.8530  178.5830  146.7880 F   0  0  0  0  0  0  0  0  0  0  0  0
  184.2130  178.7020  142.6750 C   0  0  0  0  0  0  0  0  0  0  0  0
  183.3480  178.8010  144.9530 C   0  0  0  0  0  3  0  0  0  0  0  0
  185.5060  178.5270  143.1890 C   0  0  0  0  0  3  0  0  0  0  0  0
  185.0000  178.5880  140.4080 N   0  0  0  0  0  0  0  0  0  0  0  0
  183.9760  178.7310  141.2900 C   0  0  0  0  0  0  0  0  0  0  0  0
  181.5930  179.0180  141.7080 C   0  0  0  0  0  3  0  0  0  0  0  0
  182.4530  178.8690  139.4160 C   0  0  0  0  0  0  0  0  0  0  0  0
  183.5180  178.7120  138.5840 N   0  0  0  0  0  0  0  0  0  0  0  0
  181.8270  179.0000  143.0840 C   0  0  0  0  0  3  0  0  0  0  0  0
  181.0810  178.9500  138.8210 C   0  0  0  0  0  2  0  0  0  0  0  0
  180.7550  182.6220  137.9420 C   0  0  0  0  0  3  0  0  0  0  0  0
  180.5860  182.5600  136.5520 C   0  0  0  0  0  0  0  0  0  0  0  0
  180.7730  180.1470  136.6380 C   0  0  0  0  0  3  0  0  0  0  0  0
  180.9240  181.4460  138.6780 C   0  0  0  0  0  3  0  0  0  0  0  0
  180.9340  180.2070  138.0280 C   0  0  0  0  0  0  0  0  0  0  0  0
  180.5980  181.3200  135.9000 C   0  0  0  0  0  3  0  0  0  0  0  0
  181.4600  184.7020  136.0810 O   0  0  0  0  0  1  0  0  0  0  0  0
  180.4270  183.8150  135.7670 C   0  0  0  0  0  2  0  0  0  0  0  0
  185.9170  178.3440  138.1330 C   0  0  0  0  0  2  0  0  0  0  0  0
  185.6660  177.1180  137.2580 C   0  0  0  0  0  2  0  0  0  0  0  0
  186.7820  176.1850  137.3430 N   0  0  0  0  0  2  0  0  0  0  0  0
  187.7790  176.0730  136.3240 C   0  0  0  0  0  0  0  0  0  0  0  0
  187.8400  176.9400  135.3620 N   0  0  0  0  0  2  0  0  0  0  0  0
  188.8210  175.0000  136.4470 C   0  0  1  0  0  3  0  0  0  0  0  0
  189.2580  174.5810  135.1770 O   0  0  0  0  0  0  0  0  0  0  0  0
  191.1140  174.2700  137.4160 C   0  0  0  0  0  2  0  0  0  0  0  0
  189.8500  176.3210  138.4940 C   0  0  2  0  0  3  0  0  0  0  0  0
  189.9600  173.3710  135.3660 C   0  0  0  0  0  2  0  0  0  0  0  0
  190.0340  175.3450  137.3400 C   0  0  2  0  0  0  0  0  0  0  0  0
  190.5890  176.7480  137.2240 C   0  0  0  0  0  2  0  0  0  0  0  0
  191.3140  173.6420  136.0330 C   0  0  0  0  0  2  0  0  0  0  0  0
  190.7700  176.0820  139.5180 O   0  0  0  0  0  0  0  0  0  0  0  0
  190.5350  177.1050  140.4380 C   0  0  0  0  0  2  0  0  0  0  0  0
  190.2970  176.5140  141.8130 C   0  0  0  0  0  2  0  0  0  0  0  0
  189.2040  177.1690  143.9320 C   0  0  0  0  0  2  0  0  0  0  0  0
  189.0670  177.1530  142.4250 C   0  0  0  0  0  3  0  0  0  0  0  0
  188.3360  176.1250  143.2630 C   0  0  0  0  0  2  0  0  0  0  0  0
  1  6  1  0  0  0  0
  2 11  2  0  0  0  0
  2 12  1  0  0  0  0
  3 10  2  0  0  0  0
  4  8  2  0  0  0  0
  5  1  2  0  0  0  0
  7  9  2  0  0  0  0
  7  4  1  0  0  0  0
  8  1  1  0  0  0  0
  9  5  1  0  0  0  0
 10 11  1  0  0  0  0
 11  7  1  0  0  0  0
 12 15  2  0  0  0  0
 13  2  1  0  0  0  0
 14  3  1  0  0  0  0
 14 13  2  0  0  0  0
 15  4  1  0  0  0  0
 16 13  1  0  0  0  0
 17 20  1  0  0  0  0
 18 17  2  0  0  0  0
 19 21  1  0  0  0  0
 21 20  2  0  0  0  0
 21 16  1  0  0  0  0
 22 18  1  0  0  0  0
 22 19  2  0  0  0  0
 24 23  1  0  0  0  0
 24 18  1  0  0  0  0
 25  3  1  0  0  0  0
 26 27  1  0  0  0  0
 26 25  1  0  0  0  0
 28 27  1  0  0  0  0
 29 28  2  0  0  0  0
 30 28  1  6  0  0  0
 30 35  1  0  0  0  0
 31 34  1  0  0  0  0
 31 30  1  0  0  0  0
 33 38  1  1  0  0  0
 34 37  1  0  0  0  0
 35 36  1  6  0  0  0
 35 32  1  0  0  0  0
 35 33  1  0  0  0  0
 36 33  1  0  0  0  0
 37 32  1  0  0  0  0
 38 39  1  0  0  0  0
 39 40  1  0  0  0  0
 40 42  1  0  0  0  0
 42 43  1  0  0  0  0
 42 41  1  0  0  0  0
 43 41  1  0  0  0  0
M  END
>  <MODEL>
2

>  <REMARK>
 VINA RESULT:      -9.7      3.032      5.821
  Name = 
  11 active torsions:
  status: ('A' for Active; 'I' for Inactive)
    1  A    between atoms: C_1  and  C_34
    2  A    between atoms: C_1  and  C_35
    3  A    between atoms: C_2  and  N_6
    4  A    between atoms: C_2  and  C_7
    5  A    between atoms: C_3  and  C_12
    6  A    between atoms: C_7  and  C_13
    7  A    between atoms: O_11  and  C_14
    8  A    between atoms: O_11  and  C_36
    9  A    between atoms: C_19  and  C_37
   10  A    between atoms: C_29  and  C_31
   11  A    between atoms: C_29  and  C_36
                            x       y       z     vdW  Elec       q    Type
                         _______ _______ _______ _____ _____    ______ ____

>  <TORSDO>
F 11

$$$$
=
 OpenBabel10272414323D

 43 49  0  0  1  0  0  0  0  0999 V2000
  187.8810  177.2210  146.3930 C   0  0  0  0  0  0  0  0  0  0  0  0
  185.9610  178.5080  141.8950 C   0  0  0  0  0  0  0  0  0  0  0  0
  188.0680  178.3700  140.1160 C   0  0  0  0  0  0  0  0  0  0  0  0
  186.4020  177.9090  144.6020 C   0  0  0  0  0  0  0  0  0  0  0  0
  188.9490  177.1620  145.4960 C   0  0  0  0  0  3  0  0  0  0  0  0
  188.0770  176.9100  147.6980 F   0  0  0  0  0  0  0  0  0  0  0  0
  187.4830  177.8540  143.6860 C   0  0  0  0  0  0  0  0  0  0  0  0
  186.6100  177.5940  145.9490 C   0  0  0  0  0  3  0  0  0  0  0  0
  188.7530  177.4780  144.1480 C   0  0  0  0  0  3  0  0  0  0  0  0
  188.2770  178.1030  141.4310 N   0  0  0  0  0  0  0  0  0  0  0  0
  187.2600  178.1630  142.3330 C   0  0  0  0  0  0  0  0  0  0  0  0
  184.9060  178.5640  142.8150 C   0  0  0  0  0  3  0  0  0  0  0  0
  185.7700  178.7780  140.5300 C   0  0  0  0  0  0  0  0  0  0  0  0
  186.8250  178.6920  139.6760 N   0  0  0  0  0  0  0  0  0  0  0  0
  185.1270  178.2680  144.1610 C   0  0  0  0  0  3  0  0  0  0  0  0
  184.4140  179.0830  139.9710 C   0  0  0  0  0  2  0  0  0  0  0  0
  182.4600  175.8870  139.3940 C   0  0  0  0  0  3  0  0  0  0  0  0
  182.8370  175.5660  138.0840 C   0  0  0  0  0  0  0  0  0  0  0  0
  184.2160  177.5540  137.9920 C   0  0  0  0  0  3  0  0  0  0  0  0
  182.9690  177.0370  140.0040 C   0  0  0  0  0  3  0  0  0  0  0  0
  183.8460  177.8730  139.3050 C   0  0  0  0  0  0  0  0  0  0  0  0
  183.7130  176.4020  137.3810 C   0  0  0  0  0  3  0  0  0  0  0  0
  183.2890  173.6840  136.7320 O   0  0  0  0  0  1  0  0  0  0  0  0
  182.2780  174.3500  137.4280 C   0  0  0  0  0  2  0  0  0  0  0  0
  189.1890  178.2160  139.1440 C   0  0  0  0  0  2  0  0  0  0  0  0
  189.9770  176.9350  139.4060 C   0  0  0  0  0  2  0  0  0  0  0  0
  190.7090  176.5260  138.2150 N   0  0  0  0  0  2  0  0  0  0  0  0
  192.1350  176.5820  138.1220 C   0  0  0  0  0  0  0  0  0  0  0  0
  192.8560  176.8200  139.1740 N   0  0  0  0  0  2  0  0  0  0  0  0
  192.7890  176.2530  136.8130 C   0  0  1  0  0  3  0  0  0  0  0  0
  194.1250  176.6920  136.7970 O   0  0  0  0  0  0  0  0  0  0  0  0
  193.4240  174.4350  135.0740 C   0  0  0  0  0  2  0  0  0  0  0  0
  191.5300  173.9270  136.8410 C   0  0  2  0  0  3  0  0  0  0  0  0
  194.5510  176.6550  135.4520 C   0  0  0  0  0  2  0  0  0  0  0  0
  192.7100  174.7720  136.3790 C   0  0  2  0  0  0  0  0  0  0  0  0
  192.9160  173.7330  137.4610 C   0  0  0  0  0  2  0  0  0  0  0  0
  194.7470  175.2040  134.9970 C   0  0  0  0  0  2  0  0  0  0  0  0
  191.2640  172.8870  135.9450 O   0  0  0  0  0  0  0  0  0  0  0  0
  189.9350  173.0860  135.5720 C   0  0  0  0  0  2  0  0  0  0  0  0
  189.1630  173.6980  136.7240 C   0  0  0  0  0  2  0  0  0  0  0  0
  187.4090  175.3740  137.2040 C   0  0  0  0  0  2  0  0  0  0  0  0
  187.9170  174.3730  136.1870 C   0  0  0  0  0  3  0  0  0  0  0  0
  186.7400  174.0230  137.0740 C   0  0  0  0  0  2  0  0  0  0  0  0
  1  6  1  0  0  0  0
  2 11  2  0  0  0  0
  2 12  1  0  0  0  0
  3 10  2  0  0  0  0
  4  8  2  0  0  0  0
  5  1  2  0  0  0  0
  7  9  2  0  0  0  0
  7  4  1  0  0  0  0
  8  1  1  0  0  0  0
  9  5  1  0  0  0  0
 10 11  1  0  0  0  0
 11  7  1  0  0  0  0
 12 15  2  0  0  0  0
 13  2  1  0  0  0  0
 14  3  1  0  0  0  0
 14 13  2  0  0  0  0
 15  4  1  0  0  0  0
 16 13  1  0  0  0  0
 17 20  1  0  0  0  0
 18 17  2  0  0  0  0
 19 21  1  0  0  0  0
 21 16  1  0  0  0  0
 21 20  2  0  0  0  0
 22 19  2  0  0  0  0
 22 18  1  0  0  0  0
 23 24  1  0  0  0  0
 24 18  1  0  0  0  0
 25 26  1  0  0  0  0
 25  3  1  0  0  0  0
 27 26  1  0  0  0  0
 28 27  1  0  0  0  0
 28 29  2  0  0  0  0
 30 28  1  1  0  0  0
 31 30  1  0  0  0  0
 33 38  1  6  0  0  0
 33 36  1  0  0  0  0
 34 31  1  0  0  0  0
 35 32  1  6  0  0  0
 35 30  1  0  0  0  0
 35 33  1  0  0  0  0
 35 36  1  0  0  0  0
 37 32  1  0  0  0  0
 37 34  1  0  0  0  0
 39 38  1  0  0  0  0
 39 40  1  0  0  0  0
 42 40  1  0  0  0  0
 42 43  1  0  0  0  0
 42 41  1  0  0  0  0
 43 41  1  0  0  0  0
M  END
>  <MODEL>
3

>  <REMARK>
 VINA RESULT:      -9.6      2.369      4.275
  Name = 
  11 active torsions:
  status: ('A' for Active; 'I' for Inactive)
    1  A    between atoms: C_1  and  C_34
    2  A    between atoms: C_1  and  C_35
    3  A    between atoms: C_2  and  N_6
    4  A    between atoms: C_2  and  C_7
    5  A    between atoms: C_3  and  C_12
    6  A    between atoms: C_7  and  C_13
    7  A    between atoms: O_11  and  C_14
    8  A    between atoms: O_11  and  C_36
    9  A    between atoms: C_19  and  C_37
   10  A    between atoms: C_29  and  C_31
   11  A    between atoms: C_29  and  C_36
                            x       y       z     vdW  Elec       q    Type
                         _______ _______ _______ _____ _____    ______ ____

>  <TORSDO>
F 11

$$$$
=
 OpenBabel10272414323D

 43 49  0  0  1  0  0  0  0  0999 V2000
  181.4780  179.1040  141.6590 C   0  0  0  0  0  0  0  0  0  0  0  0
  185.6320  178.2860  144.4250 C   0  0  0  0  0  0  0  0  0  0  0  0
  187.5990  177.5680  142.6250 C   0  0  0  0  0  0  0  0  0  0  0  0
  183.0500  178.8630  143.4860 C   0  0  0  0  0  0  0  0  0  0  0  0
  182.4690  178.7290  140.7500 C   0  0  0  0  0  3  0  0  0  0  0  0
  180.2340  179.4090  141.2150 F   0  0  0  0  0  0  0  0  0  0  0  0
  184.0610  178.4800  142.5690 C   0  0  0  0  0  0  0  0  0  0  0  0
  181.7660  179.1710  143.0250 C   0  0  0  0  0  3  0  0  0  0  0  0
  183.7560  178.4180  141.2020 C   0  0  0  0  0  3  0  0  0  0  0  0
  186.3410  177.8280  142.1830 N   0  0  0  0  0  0  0  0  0  0  0  0
  185.3500  178.1830  143.0440 C   0  0  0  0  0  0  0  0  0  0  0  0
  184.6190  178.6600  145.3180 C   0  0  0  0  0  3  0  0  0  0  0  0
  186.9400  178.0140  144.8580 C   0  0  0  0  0  0  0  0  0  0  0  0
  187.8910  177.6730  143.9470 N   0  0  0  0  0  0  0  0  0  0  0  0
  183.3350  178.9450  144.8510 C   0  0  0  0  0  3  0  0  0  0  0  0
  187.3410  178.1660  146.2930 C   0  0  0  0  0  2  0  0  0  0  0  0
  190.1250  176.1170  147.8480 C   0  0  0  0  0  3  0  0  0  0  0  0
  191.1990  176.4250  147.0040 C   0  0  0  0  0  0  0  0  0  0  0  0
  189.7510  177.8420  145.6770 C   0  0  0  0  0  3  0  0  0  0  0  0
  188.8670  176.6790  147.6110 C   0  0  0  0  0  3  0  0  0  0  0  0
  188.6770  177.5410  146.5250 C   0  0  0  0  0  0  0  0  0  0  0  0
  191.0110  177.2860  145.9150 C   0  0  0  0  0  3  0  0  0  0  0  0
  192.9740  176.1320  148.5330 O   0  0  0  0  0  1  0  0  0  0  0  0
  192.5340  175.8100  147.2470 C   0  0  0  0  0  2  0  0  0  0  0  0
  188.6780  177.2590  141.6430 C   0  0  0  0  0  2  0  0  0  0  0  0
  188.6470  178.2270  140.4640 C   0  0  0  0  0  2  0  0  0  0  0  0
  189.0310  177.5520  139.2310 N   0  0  0  0  0  2  0  0  0  0  0  0
  189.0530  178.2080  137.9600 C   0  0  0  0  0  0  0  0  0  0  0  0
  188.9140  179.4940  137.8800 N   0  0  0  0  0  2  0  0  0  0  0  0
  189.3470  177.3970  136.7330 C   0  0  1  0  0  3  0  0  0  0  0  0
  190.4570  176.5580  136.9420 O   0  0  0  0  0  0  0  0  0  0  0  0
  188.4850  175.7170  134.9540 C   0  0  0  0  0  2  0  0  0  0  0  0
  186.7430  177.0890  136.3870 C   0  0  2  0  0  3  0  0  0  0  0  0
  190.8670  176.1000  135.6730 C   0  0  0  0  0  2  0  0  0  0  0  0
  188.1620  176.5810  136.1700 C   0  0  2  0  0  0  0  0  0  0  0  0
  187.2710  175.8890  137.1780 C   0  0  0  0  0  2  0  0  0  0  0  0
  189.8640  175.0750  135.1290 C   0  0  0  0  0  2  0  0  0  0  0  0
  185.8820  176.6480  135.3790 O   0  0  0  0  0  0  0  0  0  0  0  0
  184.6240  177.1030  135.7770 C   0  0  0  0  0  2  0  0  0  0  0  0
  183.7680  175.9310  136.2140 C   0  0  0  0  0  2  0  0  0  0  0  0
  182.9460  175.6460  138.5280 C   0  0  0  0  0  2  0  0  0  0  0  0
  182.7530  176.4070  137.2340 C   0  0  0  0  0  3  0  0  0  0  0  0
  181.8260  175.2620  137.5850 C   0  0  0  0  0  2  0  0  0  0  0  0
  1  8  1  0  0  0  0
  2 13  1  0  0  0  0
  2 12  1  0  0  0  0
  3 14  1  0  0  0  0
  4 15  1  0  0  0  0
  5  9  1  0  0  0  0
  5  1  2  0  0  0  0
  6  1  1  0  0  0  0
  7 11  1  0  0  0  0
  7  4  1  0  0  0  0
  8  4  2  0  0  0  0
  9  7  2  0  0  0  0
 10  3  2  0  0  0  0
 10 11  1  0  0  0  0
 11  2  2  0  0  0  0
 13 16  1  0  0  0  0
 14 13  2  0  0  0  0
 15 12  2  0  0  0  0
 16 21  1  0  0  0  0
 18 24  1  0  0  0  0
 18 17  2  0  0  0  0
 19 22  2  0  0  0  0
 19 21  1  0  0  0  0
 20 17  1  0  0  0  0
 21 20  2  0  0  0  0
 22 18  1  0  0  0  0
 24 23  1  0  0  0  0
 25  3  1  0  0  0  0
 26 25  1  0  0  0  0
 27 26  1  0  0  0  0
 28 27  1  0  0  0  0
 29 28  2  0  0  0  0
 30 31  1  0  0  0  0
 30 28  1  1  0  0  0
 32 37  1  0  0  0  0
 33 38  1  6  0  0  0
 33 36  1  0  0  0  0
 34 31  1  0  0  0  0
 35 32  1  6  0  0  0
 35 33  1  0  0  0  0
 35 30  1  0  0  0  0
 35 36  1  0  0  0  0
 37 34  1  0  0  0  0
 38 39  1  0  0  0  0
 39 40  1  0  0  0  0
 40 42  1  0  0  0  0
 42 43  1  0  0  0  0
 42 41  1  0  0  0  0
 43 41  1  0  0  0  0
M  END
>  <MODEL>
4

>  <REMARK>
 VINA RESULT:      -9.5      2.900      6.251
  Name = 
  11 active torsions:
  status: ('A' for Active; 'I' for Inactive)
    1  A    between atoms: C_1  and  C_34
    2  A    between atoms: C_1  and  C_35
    3  A    between atoms: C_2  and  N_6
    4  A    between atoms: C_2  and  C_7
    5  A    between atoms: C_3  and  C_12
    6  A    between atoms: C_7  and  C_13
    7  A    between atoms: O_11  and  C_14
    8  A    between atoms: O_11  and  C_36
    9  A    between atoms: C_19  and  C_37
   10  A    between atoms: C_29  and  C_31
   11  A    between atoms: C_29  and  C_36
                            x       y       z     vdW  Elec       q    Type
                         _______ _______ _______ _____ _____    ______ ____

>  <TORSDO>
F 11

$$$$
=
 OpenBabel10272414323D

 43 49  0  0  1  0  0  0  0  0999 V2000
  187.4220  177.5630  147.0970 C   0  0  0  0  0  0  0  0  0  0  0  0
  185.9790  178.6550  142.3740 C   0  0  0  0  0  0  0  0  0  0  0  0
  188.1460  178.0540  140.7730 C   0  0  0  0  0  0  0  0  0  0  0  0
  186.1670  178.2690  145.1490 C   0  0  0  0  0  0  0  0  0  0  0  0
  188.5220  177.2700  146.2890 C   0  0  0  0  0  3  0  0  0  0  0  0
  187.4930  177.3570  148.4350 F   0  0  0  0  0  0  0  0  0  0  0  0
  187.2810  177.9760  144.3220 C   0  0  0  0  0  0  0  0  0  0  0  0
  186.2470  178.0620  146.5300 C   0  0  0  0  0  3  0  0  0  0  0  0
  188.4540  177.4770  144.9070 C   0  0  0  0  0  3  0  0  0  0  0  0
  188.2350  177.8920  142.1190 N   0  0  0  0  0  0  0  0  0  0  0  0
  187.1860  178.1790  142.9350 C   0  0  0  0  0  0  0  0  0  0  0  0
  184.8900  178.9450  143.2070 C   0  0  0  0  0  3  0  0  0  0  0  0
  185.9100  178.8130  140.9810 C   0  0  0  0  0  0  0  0  0  0  0  0
  186.9900  178.4990  140.2160 N   0  0  0  0  0  0  0  0  0  0  0  0
  184.9850  178.7550  144.5870 C   0  0  0  0  0  3  0  0  0  0  0  0
  184.6480  179.2450  140.3000 C   0  0  0  0  0  2  0  0  0  0  0  0
  183.6700  176.6710  137.6960 C   0  0  0  0  0  3  0  0  0  0  0  0
  182.7010  175.9320  138.3880 C   0  0  0  0  0  0  0  0  0  0  0  0
  183.0250  177.3330  140.3370 C   0  0  0  0  0  3  0  0  0  0  0  0
  184.3080  177.7450  138.3230 C   0  0  0  0  0  3  0  0  0  0  0  0
  183.9890  178.0770  139.6430 C   0  0  0  0  0  0  0  0  0  0  0  0
  182.3810  176.2620  139.7120 C   0  0  0  0  0  3  0  0  0  0  0  0
  181.5270  175.1720  136.4860 O   0  0  0  0  0  1  0  0  0  0  0  0
  182.0360  174.7760  137.7260 C   0  0  0  0  0  2  0  0  0  0  0  0
  189.2890  177.6530  139.9030 C   0  0  0  0  0  2  0  0  0  0  0  0
  188.9890  177.9300  138.4320 C   0  0  0  0  0  2  0  0  0  0  0  0
  189.8700  177.1530  137.5700 N   0  0  0  0  0  2  0  0  0  0  0  0
  189.5720  176.8810  136.1990 C   0  0  0  0  0  0  0  0  0  0  0  0
  188.5880  177.4810  135.6050 N   0  0  0  0  0  2  0  0  0  0  0  0
  190.4830  175.9720  135.4270 C   0  0  1  0  0  3  0  0  0  0  0  0
  191.8210  176.1510  135.8230 O   0  0  0  0  0  0  0  0  0  0  0  0
  191.0770  173.5480  134.7180 C   0  0  0  0  0  2  0  0  0  0  0  0
  188.6560  174.0700  135.6320 C   0  0  2  0  0  3  0  0  0  0  0  0
  192.6230  175.5310  134.8430 C   0  0  0  0  0  2  0  0  0  0  0  0
  190.1150  174.4710  135.4600 C   0  0  2  0  0  0  0  0  0  0  0  0
  189.6490  173.9120  136.7870 C   0  0  0  0  0  2  0  0  0  0  0  0
  192.5190  174.0060  134.9580 C   0  0  0  0  0  2  0  0  0  0  0  0
  188.3970  172.8220  135.0580 O   0  0  0  0  0  0  0  0  0  0  0  0
  187.0580  172.8900  134.6750 C   0  0  0  0  0  2  0  0  0  0  0  0
  186.2120  172.0490  135.6100 C   0  0  0  0  0  2  0  0  0  0  0  0
  185.3100  173.1590  137.6260 C   0  0  0  0  0  2  0  0  0  0  0  0
  185.0780  172.8940  136.1540 C   0  0  0  0  0  3  0  0  0  0  0  0
  184.3200  172.0990  137.1960 C   0  0  0  0  0  2  0  0  0  0  0  0
  1  6  1  0  0  0  0
  2 11  2  0  0  0  0
  2 12  1  0  0  0  0
  3 10  2  0  0  0  0
  4  8  2  0  0  0  0
  5  1  2  0  0  0  0
  7  9  2  0  0  0  0
  7  4  1  0  0  0  0
  8  1  1  0  0  0  0
  9  5  1  0  0  0  0
 10 11  1  0  0  0  0
 11  7  1  0  0  0  0
 12 15  2  0  0  0  0
 13  2  1  0  0  0  0
 14  3  1  0  0  0  0
 14 13  2  0  0  0  0
 15  4  1  0  0  0  0
 16 13  1  0  0  0  0
 17 20  2  0  0  0  0
 17 18  1  0  0  0  0
 18 22  2  0  0  0  0
 20 21  1  0  0  0  0
 21 16  1  0  0  0  0
 21 19  2  0  0  0  0
 22 19  1  0  0  0  0
 23 24  1  0  0  0  0
 24 18  1  0  0  0  0
 25  3  1  0  0  0  0
 26 25  1  0  0  0  0
 27 26  1  0  0  0  0
 28 27  1  0  0  0  0
 29 28  2  0  0  0  0
 30 35  1  0  0  0  0
 30 31  1  0  0  0  0
 30 28  1  1  0  0  0
 32 37  1  0  0  0  0
 33 38  1  6  0  0  0
 33 36  1  0  0  0  0
 34 37  1  0  0  0  0
 34 31  1  0  0  0  0
 35 32  1  6  0  0  0
 35 33  1  0  0  0  0
 35 36  1  0  0  0  0
 39 38  1  0  0  0  0
 39 40  1  0  0  0  0
 40 42  1  0  0  0  0
 42 43  1  0  0  0  0
 42 41  1  0  0  0  0
 43 41  1  0  0  0  0
M  END
>  <MODEL>
5

>  <REMARK>
 VINA RESULT:      -9.4      2.249      3.607
  Name = 
  11 active torsions:
  status: ('A' for Active; 'I' for Inactive)
    1  A    between atoms: C_1  and  C_34
    2  A    between atoms: C_1  and  C_35
    3  A    between atoms: C_2  and  N_6
    4  A    between atoms: C_2  and  C_7
    5  A    between atoms: C_3  and  C_12
    6  A    between atoms: C_7  and  C_13
    7  A    between atoms: O_11  and  C_14
    8  A    between atoms: O_11  and  C_36
    9  A    between atoms: C_19  and  C_37
   10  A    between atoms: C_29  and  C_31
   11  A    between atoms: C_29  and  C_36
                            x       y       z     vdW  Elec       q    Type
                         _______ _______ _______ _____ _____    ______ ____

>  <TORSDO>
F 11

$$$$
=
 OpenBabel10272414323D

 43 49  0  0  1  0  0  0  0  0999 V2000
  193.7200  174.1240  135.7330 C   0  0  0  0  0  0  0  0  0  0  0  0
  189.7510  177.0140  136.9450 C   0  0  0  0  0  0  0  0  0  0  0  0
  189.9890  177.5120  139.6500 C   0  0  0  0  0  0  0  0  0  0  0  0
  191.6790  175.4260  135.6630 C   0  0  0  0  0  0  0  0  0  0  0  0
  193.8340  174.3660  137.1030 C   0  0  0  0  0  3  0  0  0  0  0  0
  194.6590  173.3790  135.0980 F   0  0  0  0  0  0  0  0  0  0  0  0
  191.7870  175.6740  137.0540 C   0  0  0  0  0  0  0  0  0  0  0  0
  192.6450  174.6520  135.0120 C   0  0  0  0  0  3  0  0  0  0  0  0
  192.8720  175.1370  137.7620 C   0  0  0  0  0  3  0  0  0  0  0  0
  190.9040  176.7270  139.0250 N   0  0  0  0  0  0  0  0  0  0  0  0
  190.8150  176.4620  137.6940 C   0  0  0  0  0  0  0  0  0  0  0  0
  189.6570  176.7530  135.5710 C   0  0  0  0  0  3  0  0  0  0  0  0
  188.8180  177.8240  137.6120 C   0  0  0  0  0  0  0  0  0  0  0  0
  188.9670  178.0600  138.9430 N   0  0  0  0  0  0  0  0  0  0  0  0
  190.6150  175.9620  134.9350 C   0  0  0  0  0  3  0  0  0  0  0  0
  187.7010  178.5030  136.8810 C   0  0  0  0  0  2  0  0  0  0  0  0
  184.7960  176.0760  137.0640 C   0  0  0  0  0  3  0  0  0  0  0  0
  183.9060  176.7720  137.8930 C   0  0  0  0  0  0  0  0  0  0  0  0
  185.5040  178.5810  138.0890 C   0  0  0  0  0  3  0  0  0  0  0  0
  186.0340  176.6380  136.7410 C   0  0  0  0  0  3  0  0  0  0  0  0
  186.3920  177.8900  137.2540 C   0  0  0  0  0  0  0  0  0  0  0  0
  184.2630  178.0240  138.4090 C   0  0  0  0  0  3  0  0  0  0  0  0
  182.5980  175.7970  139.6000 O   0  0  0  0  0  1  0  0  0  0  0  0
  182.5950  176.1630  138.2510 C   0  0  0  0  0  2  0  0  0  0  0  0
  190.1630  177.8470  141.0930 C   0  0  0  0  0  2  0  0  0  0  0  0
  191.5440  177.4300  141.5940 C   0  0  0  0  0  2  0  0  0  0  0  0
  191.5310  177.2340  143.0380 N   0  0  0  0  0  2  0  0  0  0  0  0
  190.8420  176.1510  143.6680 C   0  0  0  0  0  0  0  0  0  0  0  0
  190.3540  175.1800  142.9620 N   0  0  0  0  0  2  0  0  0  0  0  0
  190.7880  176.1030  145.1670 C   0  0  1  0  0  3  0  0  0  0  0  0
  192.0640  176.3160  145.7200 O   0  0  0  0  0  0  0  0  0  0  0  0
  189.7470  177.0270  147.3560 C   0  0  0  0  0  2  0  0  0  0  0  0
  188.4940  177.4150  145.0650 C   0  0  2  0  0  3  0  0  0  0  0  0
  191.9930  175.9240  147.0730 C   0  0  0  0  0  2  0  0  0  0  0  0
  189.7570  177.0430  145.8300 C   0  0  2  0  0  0  0  0  0  0  0  0
  189.6240  178.4320  145.2430 C   0  0  0  0  0  2  0  0  0  0  0  0
  191.1840  176.9470  147.8800 C   0  0  0  0  0  2  0  0  0  0  0  0
  187.4420  177.7220  145.9320 O   0  0  0  0  0  0  0  0  0  0  0  0
  186.2940  177.3910  145.2110 C   0  0  0  0  0  2  0  0  0  0  0  0
  186.4970  177.7140  143.7440 C   0  0  0  0  0  2  0  0  0  0  0  0
  184.4760  178.1390  142.3840 C   0  0  0  0  0  2  0  0  0  0  0  0
  185.4890  178.7640  143.3210 C   0  0  0  0  0  3  0  0  0  0  0  0
  185.6000  178.9860  141.8270 C   0  0  0  0  0  2  0  0  0  0  0  0
  1  5  1  0  0  0  0
  2 13  1  0  0  0  0
  2 11  1  0  0  0  0
  3 25  1  0  0  0  0
  4  7  1  0  0  0  0
  5  9  2  0  0  0  0
  6  1  1  0  0  0  0
  7 11  2  0  0  0  0
  7  9  1  0  0  0  0
  8  4  1  0  0  0  0
  8  1  2  0  0  0  0
 10  3  2  0  0  0  0
 11 10  1  0  0  0  0
 12  2  2  0  0  0  0
 13 14  2  0  0  0  0
 14  3  1  0  0  0  0
 15 12  1  0  0  0  0
 15  4  2  0  0  0  0
 16 21  1  0  0  0  0
 16 13  1  0  0  0  0
 17 18  1  0  0  0  0
 18 24  1  0  0  0  0
 18 22  2  0  0  0  0
 19 22  1  0  0  0  0
 20 17  2  0  0  0  0
 20 21  1  0  0  0  0
 21 19  2  0  0  0  0
 24 23  1  0  0  0  0
 25 26  1  0  0  0  0
 26 27  1  0  0  0  0
 27 28  1  0  0  0  0
 29 28  2  0  0  0  0
 30 28  1  6  0  0  0
 30 31  1  0  0  0  0
 30 35  1  0  0  0  0
 31 34  1  0  0  0  0
 32 37  1  0  0  0  0
 33 36  1  0  0  0  0
 33 35  1  0  0  0  0
 33 38  1  1  0  0  0
 34 37  1  0  0  0  0
 35 36  1  6  0  0  0
 35 32  1  0  0  0  0
 39 38  1  0  0  0  0
 40 39  1  0  0  0  0
 41 42  1  0  0  0  0
 42 40  1  0  0  0  0
 43 41  1  0  0  0  0
 43 42  1  0  0  0  0
M  END
>  <MODEL>
6

>  <REMARK>
 VINA RESULT:      -9.4      3.318      8.379
  Name = 
  11 active torsions:
  status: ('A' for Active; 'I' for Inactive)
    1  A    between atoms: C_1  and  C_34
    2  A    between atoms: C_1  and  C_35
    3  A    between atoms: C_2  and  N_6
    4  A    between atoms: C_2  and  C_7
    5  A    between atoms: C_3  and  C_12
    6  A    between atoms: C_7  and  C_13
    7  A    between atoms: O_11  and  C_14
    8  A    between atoms: O_11  and  C_36
    9  A    between atoms: C_19  and  C_37
   10  A    between atoms: C_29  and  C_31
   11  A    between atoms: C_29  and  C_36
                            x       y       z     vdW  Elec       q    Type
                         _______ _______ _______ _____ _____    ______ ____

>  <TORSDO>
F 11

$$$$
=
 OpenBabel10272414323D

 43 49  0  0  1  0  0  0  0  0999 V2000
  187.8650  177.4900  147.5470 C   0  0  0  0  0  0  0  0  0  0  0  0
  188.7000  177.7890  142.5680 C   0  0  0  0  0  0  0  0  0  0  0  0
  186.3150  178.6300  141.4600 C   0  0  0  0  0  0  0  0  0  0  0  0
  188.8730  177.4160  145.3450 C   0  0  0  0  0  0  0  0  0  0  0  0
  186.6560  177.9040  146.9860 C   0  0  0  0  0  3  0  0  0  0  0  0
  187.9680  177.3310  148.8890 F   0  0  0  0  0  0  0  0  0  0  0  0
  187.6470  177.8330  144.7680 C   0  0  0  0  0  0  0  0  0  0  0  0
  188.9720  177.2460  146.7300 C   0  0  0  0  0  3  0  0  0  0  0  0
  186.5450  178.0740  145.6020 C   0  0  0  0  0  3  0  0  0  0  0  0
  186.4020  178.4250  142.8000 N   0  0  0  0  0  0  0  0  0  0  0  0
  187.5620  178.0110  143.3760 C   0  0  0  0  0  0  0  0  0  0  0  0
  189.9020  177.3700  143.1550 C   0  0  0  0  0  3  0  0  0  0  0  0
  188.5860  178.0090  141.1860 C   0  0  0  0  0  0  0  0  0  0  0  0
  187.4020  178.4330  140.6700 N   0  0  0  0  0  0  0  0  0  0  0  0
  189.9860  177.1830  144.5350 C   0  0  0  0  0  3  0  0  0  0  0  0
  189.7610  177.8650  140.2670 C   0  0  0  0  0  2  0  0  0  0  0  0
  188.6000  176.3140  137.0100 C   0  0  0  0  0  3  0  0  0  0  0  0
  188.4980  177.4430  136.1870 C   0  0  0  0  0  0  0  0  0  0  0  0
  189.1880  178.8510  138.0330 C   0  0  0  0  0  3  0  0  0  0  0  0
  189.0040  176.4540  138.3400 C   0  0  0  0  0  3  0  0  0  0  0  0
  189.2970  177.7210  138.8550 C   0  0  0  0  0  0  0  0  0  0  0  0
  188.7890  178.7130  136.7010 C   0  0  0  0  0  3  0  0  0  0  0  0
  187.1100  178.2830  134.4720 O   0  0  0  0  0  1  0  0  0  0  0  0
  188.0490  177.2940  134.7750 C   0  0  0  0  0  2  0  0  0  0  0  0
  185.0510  179.1610  140.8740 C   0  0  0  0  0  2  0  0  0  0  0  0
  183.9780  178.0780  140.7970 C   0  0  0  0  0  2  0  0  0  0  0  0
  183.4640  177.9560  139.4390 N   0  0  0  0  0  2  0  0  0  0  0  0
  182.8740  176.7540  138.9370 C   0  0  0  0  0  0  0  0  0  0  0  0
  182.5930  175.7730  139.7370 N   0  0  0  0  0  2  0  0  0  0  0  0
  182.4830  176.6890  137.4900 C   0  0  1  0  0  3  0  0  0  0  0  0
  181.7940  177.8540  137.1060 O   0  0  0  0  0  0  0  0  0  0  0  0
  183.2370  176.3890  135.0260 C   0  0  0  0  0  2  0  0  0  0  0  0
  184.8290  175.5840  136.9710 C   0  0  2  0  0  3  0  0  0  0  0  0
  181.1810  177.5750  135.8670 C   0  0  0  0  0  2  0  0  0  0  0  0
  183.6330  176.3990  136.4990 C   0  0  2  0  0  0  0  0  0  0  0  0
  184.9510  177.0950  136.7620 C   0  0  0  0  0  2  0  0  0  0  0  0
  182.2340  177.5150  134.7540 C   0  0  0  0  0  2  0  0  0  0  0  0
  185.4400  174.9100  135.9100 O   0  0  0  0  0  0  0  0  0  0  0  0
  185.6380  173.6160  136.3920 C   0  0  0  0  0  2  0  0  0  0  0  0
  184.4630  173.2040  137.2580 C   0  0  0  0  0  2  0  0  0  0  0  0
  182.7120  172.2220  135.8150 C   0  0  0  0  0  2  0  0  0  0  0  0
  183.8810  171.9100  136.7260 C   0  0  0  0  0  3  0  0  0  0  0  0
  182.4620  171.7580  137.2330 C   0  0  0  0  0  2  0  0  0  0  0  0
  1  6  1  0  0  0  0
  2 12  2  0  0  0  0
  2 11  1  0  0  0  0
  3 10  2  0  0  0  0
  4  8  1  0  0  0  0
  5  1  1  0  0  0  0
  7  4  1  0  0  0  0
  7  9  1  0  0  0  0
  8  1  2  0  0  0  0
  9  5  2  0  0  0  0
 10 11  1  0  0  0  0
 11  7  2  0  0  0  0
 12 15  1  0  0  0  0
 13  2  1  0  0  0  0
 14 13  2  0  0  0  0
 14  3  1  0  0  0  0
 15  4  2  0  0  0  0
 16 13  1  0  0  0  0
 17 20  1  0  0  0  0
 18 22  1  0  0  0  0
 18 17  2  0  0  0  0
 19 21  1  0  0  0  0
 20 21  2  0  0  0  0
 21 16  1  0  0  0  0
 22 19  2  0  0  0  0
 23 24  1  0  0  0  0
 24 18  1  0  0  0  0
 25  3  1  0  0  0  0
 26 25  1  0  0  0  0
 27 26  1  0  0  0  0
 28 27  1  0  0  0  0
 28 29  2  0  0  0  0
 30 28  1  1  0  0  0
 31 30  1  0  0  0  0
 33 38  1  6  0  0  0
 34 31  1  0  0  0  0
 35 32  1  6  0  0  0
 35 36  1  0  0  0  0
 35 33  1  0  0  0  0
 35 30  1  0  0  0  0
 36 33  1  0  0  0  0
 37 32  1  0  0  0  0
 37 34  1  0  0  0  0
 38 39  1  0  0  0  0
 39 40  1  0  0  0  0
 41 42  1  0  0  0  0
 41 43  1  0  0  0  0
 42 43  1  0  0  0  0
 42 40  1  0  0  0  0
M  END
>  <MODEL>
7

>  <REMARK>
 VINA RESULT:      -9.3      2.311      5.762
  Name = 
  11 active torsions:
  status: ('A' for Active; 'I' for Inactive)
    1  A    between atoms: C_1  and  C_34
    2  A    between atoms: C_1  and  C_35
    3  A    between atoms: C_2  and  N_6
    4  A    between atoms: C_2  and  C_7
    5  A    between atoms: C_3  and  C_12
    6  A    between atoms: C_7  and  C_13
    7  A    between atoms: O_11  and  C_14
    8  A    between atoms: O_11  and  C_36
    9  A    between atoms: C_19  and  C_37
   10  A    between atoms: C_29  and  C_31
   11  A    between atoms: C_29  and  C_36
                            x       y       z     vdW  Elec       q    Type
                         _______ _______ _______ _____ _____    ______ ____

>  <TORSDO>
F 11

$$$$
=
 OpenBabel10272414323D

 43 49  0  0  1  0  0  0  0  0999 V2000
  191.4400  176.3900  146.8830 C   0  0  0  0  0  0  0  0  0  0  0  0
  187.0250  178.0400  145.0490 C   0  0  0  0  0  0  0  0  0  0  0  0
  187.3670  178.2060  142.3140 C   0  0  0  0  0  0  0  0  0  0  0  0
  189.1620  177.1830  146.6550 C   0  0  0  0  0  0  0  0  0  0  0  0
  191.6170  176.4850  145.5010 C   0  0  0  0  0  3  0  0  0  0  0  0
  192.4560  175.9540  147.6660 F   0  0  0  0  0  0  0  0  0  0  0  0
  189.3350  177.2840  145.2520 C   0  0  0  0  0  0  0  0  0  0  0  0
  190.2160  176.7380  147.4600 C   0  0  0  0  0  3  0  0  0  0  0  0
  190.5700  176.9310  144.6880 C   0  0  0  0  0  3  0  0  0  0  0  0
  188.4020  177.8130  143.1020 N   0  0  0  0  0  0  0  0  0  0  0  0
  188.2660  177.7220  144.4510 C   0  0  0  0  0  0  0  0  0  0  0  0
  186.8740  177.9410  146.4380 C   0  0  0  0  0  3  0  0  0  0  0  0
  185.9690  178.4420  144.2140 C   0  0  0  0  0  0  0  0  0  0  0  0
  186.1640  178.5040  142.8700 N   0  0  0  0  0  0  0  0  0  0  0  0
  187.9370  177.5160  147.2360 C   0  0  0  0  0  3  0  0  0  0  0  0
  184.6040  178.7310  144.7570 C   0  0  0  0  0  2  0  0  0  0  0  0
  183.0520  178.4060  141.3140 C   0  0  0  0  0  3  0  0  0  0  0  0
  181.7300  178.7940  141.5690 C   0  0  0  0  0  0  0  0  0  0  0  0
  182.2740  179.1100  143.9080 C   0  0  0  0  0  3  0  0  0  0  0  0
  183.9850  178.3790  142.3550 C   0  0  0  0  0  3  0  0  0  0  0  0
  183.5980  178.7290  143.6530 C   0  0  0  0  0  0  0  0  0  0  0  0
  181.3410  179.1430  142.8680 C   0  0  0  0  0  3  0  0  0  0  0  0
  180.7090  177.5540  139.8400 O   0  0  0  0  0  1  0  0  0  0  0  0
  180.7340  178.8040  140.4620 C   0  0  0  0  0  2  0  0  0  0  0  0
  187.5290  178.2170  140.8320 C   0  0  0  0  0  2  0  0  0  0  0  0
  188.9600  177.8680  140.4290 C   0  0  0  0  0  2  0  0  0  0  0  0
  189.0380  177.5780  139.0030 N   0  0  0  0  0  2  0  0  0  0  0  0
  189.9300  176.6020  138.4570 C   0  0  0  0  0  0  0  0  0  0  0  0
  190.5750  175.7900  139.2350 N   0  0  0  0  0  2  0  0  0  0  0  0
  190.0220  176.4600  136.9660 C   0  0  1  0  0  3  0  0  0  0  0  0
  191.2770  175.9470  136.5900 O   0  0  0  0  0  0  0  0  0  0  0  0
  189.0230  175.4560  134.7920 C   0  0  0  0  0  2  0  0  0  0  0  0
  187.5170  175.6100  136.9550 C   0  0  2  0  0  3  0  0  0  0  0  0
  191.4060  176.1620  135.2020 C   0  0  0  0  0  2  0  0  0  0  0  0
  188.8920  175.6420  136.3010 C   0  0  2  0  0  0  0  0  0  0  0  0
  188.4400  174.3910  137.0230 C   0  0  0  0  0  2  0  0  0  0  0  0
  190.4900  175.2040  134.4300 C   0  0  0  0  0  2  0  0  0  0  0  0
  186.5080  175.3870  136.0140 O   0  0  0  0  0  0  0  0  0  0  0  0
  185.3950  176.0420  136.5410 C   0  0  0  0  0  2  0  0  0  0  0  0
  184.3490  175.0260  136.9540 C   0  0  0  0  0  2  0  0  0  0  0  0
  183.7720  172.6220  136.9610 C   0  0  0  0  0  2  0  0  0  0  0  0
  184.7870  173.6470  136.5030 C   0  0  0  0  0  3  0  0  0  0  0  0
  185.0690  172.7910  137.7200 C   0  0  0  0  0  2  0  0  0  0  0  0
  1  8  1  0  0  0  0
  1  6  1  0  0  0  0
  2 12  1  0  0  0  0
  3 14  1  0  0  0  0
  3 10  2  0  0  0  0
  4 15  1  0  0  0  0
  4  8  2  0  0  0  0
  5  1  2  0  0  0  0
  7  4  1  0  0  0  0
  9  7  2  0  0  0  0
  9  5  1  0  0  0  0
 10 11  1  0  0  0  0
 11  2  2  0  0  0  0
 11  7  1  0  0  0  0
 12 15  2  0  0  0  0
 13 16  1  0  0  0  0
 13  2  1  0  0  0  0
 14 13  2  0  0  0  0
 17 18  2  0  0  0  0
 17 20  1  0  0  0  0
 18 22  1  0  0  0  0
 20 21  2  0  0  0  0
 21 19  1  0  0  0  0
 21 16  1  0  0  0  0
 22 19  2  0  0  0  0
 23 24  1  0  0  0  0
 24 18  1  0  0  0  0
 25  3  1  0  0  0  0
 26 25  1  0  0  0  0
 27 26  1  0  0  0  0
 28 27  1  0  0  0  0
 28 29  2  0  0  0  0
 30 28  1  1  0  0  0
 31 30  1  0  0  0  0
 33 38  1  6  0  0  0
 33 36  1  0  0  0  0
 34 31  1  0  0  0  0
 35 32  1  6  0  0  0
 35 33  1  0  0  0  0
 35 30  1  0  0  0  0
 35 36  1  0  0  0  0
 37 32  1  0  0  0  0
 37 34  1  0  0  0  0
 38 39  1  0  0  0  0
 39 40  1  0  0  0  0
 41 43  1  0  0  0  0
 42 40  1  0  0  0  0
 42 41  1  0  0  0  0
 42 43  1  0  0  0  0
M  END
>  <MODEL>
8

>  <REMARK>
 VINA RESULT:      -9.2      1.281      1.692
  Name = 
  11 active torsions:
  status: ('A' for Active; 'I' for Inactive)
    1  A    between atoms: C_1  and  C_34
    2  A    between atoms: C_1  and  C_35
    3  A    between atoms: C_2  and  N_6
    4  A    between atoms: C_2  and  C_7
    5  A    between atoms: C_3  and  C_12
    6  A    between atoms: C_7  and  C_13
    7  A    between atoms: O_11  and  C_14
    8  A    between atoms: O_11  and  C_36
    9  A    between atoms: C_19  and  C_37
   10  A    between atoms: C_29  and  C_31
   11  A    between atoms: C_29  and  C_36
                            x       y       z     vdW  Elec       q    Type
                         _______ _______ _______ _____ _____    ______ ____

>  <TORSDO>
F 11

$$$$
=
 OpenBabel10272414323D

 43 49  0  0  1  0  0  0  0  0999 V2000
  188.6140  177.4110  145.7650 C   0  0  0  0  0  0  0  0  0  0  0  0
  190.8270  177.1620  141.2250 C   0  0  0  0  0  0  0  0  0  0  0  0
  188.7790  177.3460  139.3840 C   0  0  0  0  0  0  0  0  0  0  0  0
  190.2260  177.2270  143.9660 C   0  0  0  0  0  0  0  0  0  0  0  0
  187.5770  177.4920  144.8350 C   0  0  0  0  0  3  0  0  0  0  0  0
  188.3380  177.4670  147.0910 F   0  0  0  0  0  0  0  0  0  0  0  0
  189.1780  177.3070  143.0160 C   0  0  0  0  0  0  0  0  0  0  0  0
  189.9370  177.2780  145.3340 C   0  0  0  0  0  3  0  0  0  0  0  0
  187.8560  177.4400  143.4650 C   0  0  0  0  0  3  0  0  0  0  0  0
  188.4950  177.3550  140.7120 N   0  0  0  0  0  0  0  0  0  0  0  0
  189.4820  177.2650  141.6440 C   0  0  0  0  0  0  0  0  0  0  0  0
  191.8510  177.0770  142.1790 C   0  0  0  0  0  3  0  0  0  0  0  0
  191.0960  177.1560  139.8470 C   0  0  0  0  0  0  0  0  0  0  0  0
  190.0670  177.2590  138.9630 N   0  0  0  0  0  0  0  0  0  0  0  0
  191.5510  177.1080  143.5420 C   0  0  0  0  0  3  0  0  0  0  0  0
  192.4970  177.1200  139.3180 C   0  0  0  0  0  2  0  0  0  0  0  0
  193.5370  175.6720  135.9730 C   0  0  0  0  0  3  0  0  0  0  0  0
  192.6780  174.5700  135.8710 C   0  0  0  0  0  0  0  0  0  0  0  0
  191.7240  175.1110  138.0300 C   0  0  0  0  0  3  0  0  0  0  0  0
  193.4810  176.4970  137.1000 C   0  0  0  0  0  3  0  0  0  0  0  0
  192.5770  176.2180  138.1310 C   0  0  0  0  0  0  0  0  0  0  0  0
  191.7740  174.2870  136.9020 C   0  0  0  0  0  3  0  0  0  0  0  0
  194.0760  173.2890  134.4630 O   0  0  0  0  0  1  0  0  0  0  0  0
  192.7530  173.6810  134.6780 C   0  0  0  0  0  2  0  0  0  0  0  0
  187.6790  177.5270  138.3930 C   0  0  0  0  0  2  0  0  0  0  0  0
  186.6550  178.5480  138.8820 C   0  0  0  0  0  2  0  0  0  0  0  0
  185.3150  178.1890  138.4390 N   0  0  0  0  0  2  0  0  0  0  0  0
  184.1770  179.0290  138.6460 C   0  0  0  0  0  0  0  0  0  0  0  0
  184.3230  180.2450  139.0710 N   0  0  0  0  0  2  0  0  0  0  0  0
  182.8200  178.5180  138.2600 C   0  0  1  0  0  3  0  0  0  0  0  0
  182.9170  177.5900  137.2070 O   0  0  0  0  0  0  0  0  0  0  0  0
  180.6190  177.3620  139.0010 C   0  0  0  0  0  2  0  0  0  0  0  0
  182.1830  178.4520  140.8260 C   0  0  2  0  0  3  0  0  0  0  0  0
  181.6150  177.4240  136.6890 C   0  0  0  0  0  2  0  0  0  0  0  0
  181.9740  177.9290  139.4120 C   0  0  2  0  0  0  0  0  0  0  0  0
  182.7030  177.0710  140.4230 C   0  0  0  0  0  2  0  0  0  0  0  0
  180.7530  176.6180  137.6690 C   0  0  0  0  0  2  0  0  0  0  0  0
  181.0270  178.3150  141.5990 O   0  0  0  0  0  0  0  0  0  0  0  0
  181.1570  179.2870  142.5910 C   0  0  0  0  0  2  0  0  0  0  0  0
  181.8700  178.7010  143.7940 C   0  0  0  0  0  2  0  0  0  0  0  0
  184.3400  178.5980  143.7680 C   0  0  0  0  0  2  0  0  0  0  0  0
  183.1430  179.4820  144.0480 C   0  0  0  0  0  3  0  0  0  0  0  0
  183.8980  178.8440  145.1950 C   0  0  0  0  0  2  0  0  0  0  0  0
  1  6  1  0  0  0  0
  2 11  2  0  0  0  0
  2 12  1  0  0  0  0
  3 10  2  0  0  0  0
  4  8  2  0  0  0  0
  5  1  2  0  0  0  0
  7  9  2  0  0  0  0
  7  4  1  0  0  0  0
  8  1  1  0  0  0  0
  9  5  1  0  0  0  0
 10 11  1  0  0  0  0
 11  7  1  0  0  0  0
 12 15  2  0  0  0  0
 13  2  1  0  0  0  0
 14  3  1  0  0  0  0
 14 13  2  0  0  0  0
 15  4  1  0  0  0  0
 16 13  1  0  0  0  0
 17 20  1  0  0  0  0
 18 17  2  0  0  0  0
 18 22  1  0  0  0  0
 19 21  1  0  0  0  0
 20 21  2  0  0  0  0
 21 16  1  0  0  0  0
 22 19  2  0  0  0  0
 23 24  1  0  0  0  0
 24 18  1  0  0  0  0
 25 26  1  0  0  0  0
 25  3  1  0  0  0  0
 27 28  1  0  0  0  0
 27 26  1  0  0  0  0
 28 29  2  0  0  0  0
 30 28  1  1  0  0  0
 30 35  1  0  0  0  0
 31 30  1  0  0  0  0
 33 38  1  1  0  0  0
 34 31  1  0  0  0  0
 34 37  1  0  0  0  0
 35 32  1  6  0  0  0
 35 36  1  0  0  0  0
 35 33  1  0  0  0  0
 36 33  1  0  0  0  0
 37 32  1  0  0  0  0
 38 39  1  0  0  0  0
 39 40  1  0  0  0  0
 40 42  1  0  0  0  0
 41 42  1  0  0  0  0
 41 43  1  0  0  0  0
 42 43  1  0  0  0  0
M  END
>  <MODEL>
9

>  <REMARK>
 VINA RESULT:      -9.2      2.333      7.899
  Name = 
  11 active torsions:
  status: ('A' for Active; 'I' for Inactive)
    1  A    between atoms: C_1  and  C_34
    2  A    between atoms: C_1  and  C_35
    3  A    between atoms: C_2  and  N_6
    4  A    between atoms: C_2  and  C_7
    5  A    between atoms: C_3  and  C_12
    6  A    between atoms: C_7  and  C_13
    7  A    between atoms: O_11  and  C_14
    8  A    between atoms: O_11  and  C_36
    9  A    between atoms: C_19  and  C_37
   10  A    between atoms: C_29  and  C_31
   11  A    between atoms: C_29  and  C_36
                            x       y       z     vdW  Elec       q    Type
                         _______ _______ _______ _____ _____    ______ ____

>  <TORSDO>
F 11

$$$$
