=
 OpenBabel10272401503D

 28 31  0  0  1  0  0  0  0  0999 V2000
  184.8340  179.2720  142.5340 C   0  0  1  0  0  3  0  0  0  0  0  0
  187.4730  177.0670  146.0240 C   0  0  0  0  0  1  0  0  0  0  0  0
  188.1720  177.6290  141.6800 C   0  0  2  0  0  3  0  0  0  0  0  0
  187.5300  177.6760  144.6370 C   0  0  1  0  0  3  0  0  0  0  0  0
  187.1740  178.7600  141.9040 C   0  0  0  0  0  2  0  0  0  0  0  0
  185.3950  179.0080  144.8600 C   0  0  0  0  0  2  0  0  0  0  0  0
  188.3290  176.7470  143.7320 C   0  0  0  0  0  2  0  0  0  0  0  0
  186.1040  177.9000  144.1060 C   0  0  1  0  0  3  0  0  0  0  0  0
  189.0260  177.5050  142.7840 O   0  0  0  0  0  0  0  0  0  0  0  0
  184.2880  179.4640  143.9360 C   0  0  0  0  0  2  0  0  0  0  0  0
  185.9330  178.2230  142.6090 C   0  0  1  0  0  3  0  0  0  0  0  0
  188.3680  178.4520  139.3730 C   0  0  0  0  0  3  0  0  0  0  0  0
  190.6040  176.2880  139.3540 C   0  0  0  0  0  2  0  0  0  0  0  0
  189.5190  177.4560  137.4330 C   0  0  0  0  0  0  0  0  0  0  0  0
  188.9700  177.8600  140.4230 C   0  0  0  0  0  0  0  0  0  0  0  0
  190.9960  177.0220  141.6940 C   0  0  0  0  0  1  0  0  0  0  0  0
  190.7750  176.8130  137.9320 C   0  0  0  0  0  2  0  0  0  0  0  0
  190.4250  177.4330  140.3450 C   0  0  1  0  0  3  0  0  0  0  0  0
  188.7150  176.7840  136.6960 N   0  0  0  0  0  2  0  0  0  0  0  0
  189.0530  178.7300  138.0660 C   0  0  0  0  0  2  0  0  0  0  0  0
  183.7620  178.9000  141.5520 C   0  0  0  0  0  0  0  0  0  0  0  0
  182.5780  178.3480  142.0520 C   0  0  0  0  0  3  0  0  0  0  0  0
  182.8570  178.7360  139.2980 C   0  0  0  0  0  0  0  0  0  0  0  0
  181.5410  177.9910  141.1880 C   0  0  0  0  0  3  0  0  0  0  0  0
  185.0640  179.6460  139.6330 O   0  0  0  0  0  1  0  0  0  0  0  0
  183.9000  179.0960  140.1600 C   0  0  0  0  0  0  0  0  0  0  0  0
  182.9810  178.9200  137.9610 F   0  0  0  0  0  0  0  0  0  0  0  0
  181.6810  178.1840  139.8120 C   0  0  0  0  0  3  0  0  0  0  0  0
  1 21  1  6  0  0  0
  1 11  1  0  0  0  0
  1 10  1  0  0  0  0
  3 15  1  6  0  0  0
  3  5  1  0  0  0  0
  3  9  1  0  0  0  0
  4  2  1  1  0  0  0
  7  4  1  0  0  0  0
  8  4  1  0  0  0  0
  8  6  1  1  0  0  0
  9  7  1  0  0  0  0
 10  6  1  0  0  0  0
 11  5  1  1  0  0  0
 11  8  1  0  0  0  0
 12 15  2  0  0  0  0
 13 18  1  0  0  0  0
 14 17  1  0  0  0  0
 14 20  1  0  0  0  0
 17 13  1  0  0  0  0
 18 15  1  0  0  0  0
 18 16  1  1  0  0  0
 19 14  2  0  0  0  0
 20 12  1  0  0  0  0
 21 22  1  0  0  0  0
 23 28  2  0  0  0  0
 23 26  1  0  0  0  0
 24 22  2  0  0  0  0
 25 26  1  0  0  0  0
 26 21  2  0  0  0  0
 27 23  1  0  0  0  0
 28 24  1  0  0  0  0
M  END
>  <MODEL>
1

>  <REMARK>
 VINA RESULT:      -9.4      0.000      0.000
  Name = 
  2 active torsions:
  status: ('A' for Active; 'I' for Inactive)
    1  A    between atoms: C_1  and  C_2
    2  A    between atoms: C_10  and  C_13
                            x       y       z     vdW  Elec       q    Type
                         _______ _______ _______ _____ _____    ______ ____

>  <TORSDO>
F 2

$$$$
=
 OpenBabel10272401503D

 28 31  0  0  1  0  0  0  0  0999 V2000
  184.6480  179.2710  142.8040 C   0  0  1  0  0  3  0  0  0  0  0  0
  186.6000  177.3470  146.8660 C   0  0  0  0  0  1  0  0  0  0  0  0
  188.1220  177.6910  142.7130 C   0  0  2  0  0  3  0  0  0  0  0  0
  186.9140  177.8800  145.4810 C   0  0  1  0  0  3  0  0  0  0  0  0
  187.0750  178.8010  142.6710 C   0  0  0  0  0  2  0  0  0  0  0  0
  184.7490  179.1530  145.2060 C   0  0  0  0  0  2  0  0  0  0  0  0
  187.8930  176.9290  144.8060 C   0  0  0  0  0  2  0  0  0  0  0  0
  185.6150  178.0290  144.6720 C   0  0  1  0  0  3  0  0  0  0  0  0
  188.7460  177.6560  143.9670 O   0  0  0  0  0  0  0  0  0  0  0  0
  183.8350  179.5220  144.0600 C   0  0  0  0  0  2  0  0  0  0  0  0
  185.7320  178.2640  143.1530 C   0  0  1  0  0  3  0  0  0  0  0  0
  188.7740  177.6710  140.3440 C   0  0  0  0  0  3  0  0  0  0  0  0
  191.5480  177.1660  141.6600 C   0  0  0  0  0  2  0  0  0  0  0  0
  190.8470  176.8630  139.2830 C   0  0  0  0  0  0  0  0  0  0  0  0
  189.1440  177.8780  141.6230 C   0  0  0  0  0  0  0  0  0  0  0  0
  190.7270  178.7230  143.4120 C   0  0  0  0  0  1  0  0  0  0  0  0
  191.9840  177.1950  140.1980 C   0  0  0  0  0  2  0  0  0  0  0  0
  190.5650  178.2930  141.9620 C   0  0  1  0  0  3  0  0  0  0  0  0
  190.7210  175.6680  138.8400 N   0  0  0  0  0  2  0  0  0  0  0  0
  189.7000  177.8180  139.1720 C   0  0  0  0  0  2  0  0  0  0  0  0
  183.7960  178.8110  141.6570 C   0  0  0  0  0  0  0  0  0  0  0  0
  182.5320  178.2880  141.9490 C   0  0  0  0  0  3  0  0  0  0  0  0
  183.3670  178.4610  139.2880 C   0  0  0  0  0  0  0  0  0  0  0  0
  181.6900  177.8530  140.9230 C   0  0  0  0  0  3  0  0  0  0  0  0
  185.4650  179.4180  139.9900 O   0  0  0  0  0  1  0  0  0  0  0  0
  184.2150  178.8990  140.3120 C   0  0  0  0  0  0  0  0  0  0  0  0
  183.7620  178.5410  137.9930 F   0  0  0  0  0  0  0  0  0  0  0  0
  182.1080  177.9390  139.5940 C   0  0  0  0  0  3  0  0  0  0  0  0
  1 21  1  6  0  0  0
  1 11  1  0  0  0  0
  1 10  1  0  0  0  0
  3 15  1  6  0  0  0
  3  9  1  0  0  0  0
  4  2  1  1  0  0  0
  5  3  1  0  0  0  0
  7  4  1  0  0  0  0
  8  6  1  1  0  0  0
  8  4  1  0  0  0  0
  9  7  1  0  0  0  0
 10  6  1  0  0  0  0
 11  5  1  1  0  0  0
 11  8  1  0  0  0  0
 12 15  2  0  0  0  0
 13 18  1  0  0  0  0
 14 17  1  0  0  0  0
 15 18  1  0  0  0  0
 17 13  1  0  0  0  0
 18 16  1  1  0  0  0
 19 14  2  0  0  0  0
 20 14  1  0  0  0  0
 20 12  1  0  0  0  0
 21 22  1  0  0  0  0
 23 28  2  0  0  0  0
 23 26  1  0  0  0  0
 24 22  2  0  0  0  0
 25 26  1  0  0  0  0
 26 21  2  0  0  0  0
 27 23  1  0  0  0  0
 28 24  1  0  0  0  0
M  END
>  <MODEL>
2

>  <REMARK>
 VINA RESULT:      -9.0      1.109      1.403
  Name = 
  2 active torsions:
  status: ('A' for Active; 'I' for Inactive)
    1  A    between atoms: C_1  and  C_2
    2  A    between atoms: C_10  and  C_13
                            x       y       z     vdW  Elec       q    Type
                         _______ _______ _______ _____ _____    ______ ____

>  <TORSDO>
F 2

$$$$
=
 OpenBabel10272401503D

 28 31  0  0  1  0  0  0  0  0999 V2000
  187.4650  176.9860  142.8260 C   0  0  1  0  0  3  0  0  0  0  0  0
  185.6240  179.2350  146.7710 C   0  0  0  0  0  1  0  0  0  0  0  0
  184.1120  178.7990  142.6230 C   0  0  2  0  0  3  0  0  0  0  0  0
  185.2830  178.6590  145.4100 C   0  0  1  0  0  3  0  0  0  0  0  0
  185.0780  177.6190  142.6450 C   0  0  0  0  0  2  0  0  0  0  0  0
  187.3550  177.2260  145.2190 C   0  0  0  0  0  2  0  0  0  0  0  0
  184.3780  179.6430  144.6800 C   0  0  0  0  0  2  0  0  0  0  0  0
  186.5740  178.3820  144.6230 C   0  0  1  0  0  3  0  0  0  0  0  0
  183.4830  178.9380  143.8670 O   0  0  0  0  0  0  0  0  0  0  0  0
  188.2500  176.7390  144.1020 C   0  0  0  0  0  2  0  0  0  0  0  0
  186.4520  178.0820  143.1160 C   0  0  1  0  0  3  0  0  0  0  0  0
  181.8080  178.3890  141.8750 C   0  0  0  0  0  3  0  0  0  0  0  0
  183.3620  177.3900  139.3720 C   0  0  0  0  0  2  0  0  0  0  0  0
  180.9750  177.0190  140.0020 C   0  0  0  0  0  0  0  0  0  0  0  0
  183.0880  178.6320  141.5320 C   0  0  0  0  0  0  0  0  0  0  0  0
  184.9090  179.2630  139.8860 C   0  0  0  0  0  1  0  0  0  0  0  0
  181.9390  177.1690  138.8670 C   0  0  0  0  0  2  0  0  0  0  0  0
  183.4930  178.7380  140.0730 C   0  0  1  0  0  3  0  0  0  0  0  0
  180.6290  175.8470  140.3860 N   0  0  0  0  0  2  0  0  0  0  0  0
  180.6980  178.1980  140.8820 C   0  0  0  0  0  2  0  0  0  0  0  0
  188.3560  177.3300  141.6680 C   0  0  0  0  0  0  0  0  0  0  0  0
  187.9080  178.2950  140.7610 C   0  0  0  0  0  3  0  0  0  0  0  0
  190.4060  177.1020  140.3770 C   0  0  0  0  0  0  0  0  0  0  0  0
  188.6970  178.6630  139.6690 C   0  0  0  0  0  3  0  0  0  0  0  0
  190.0940  175.7700  142.3620 O   0  0  0  0  0  1  0  0  0  0  0  0
  189.6190  176.7300  141.4740 C   0  0  0  0  0  0  0  0  0  0  0  0
  191.6210  176.5310  140.1820 F   0  0  0  0  0  0  0  0  0  0  0  0
  189.9450  178.0660  139.4770 C   0  0  0  0  0  3  0  0  0  0  0  0
  1 21  1  6  0  0  0
  1 11  1  0  0  0  0
  1 10  1  0  0  0  0
  3 15  1  6  0  0  0
  3  5  1  0  0  0  0
  3  9  1  0  0  0  0
  4  2  1  1  0  0  0
  7  4  1  0  0  0  0
  8  6  1  1  0  0  0
  8  4  1  0  0  0  0
  9  7  1  0  0  0  0
 10  6  1  0  0  0  0
 11  5  1  1  0  0  0
 11  8  1  0  0  0  0
 13 18  1  0  0  0  0
 14 19  2  0  0  0  0
 14 20  1  0  0  0  0
 15 12  2  0  0  0  0
 17 13  1  0  0  0  0
 17 14  1  0  0  0  0
 18 16  1  1  0  0  0
 18 15  1  0  0  0  0
 20 12  1  0  0  0  0
 22 21  2  0  0  0  0
 23 26  2  0  0  0  0
 24 22  1  0  0  0  0
 26 21  1  0  0  0  0
 26 25  1  0  0  0  0
 27 23  1  0  0  0  0
 28 24  2  0  0  0  0
 28 23  1  0  0  0  0
M  END
>  <MODEL>
3

>  <REMARK>
 VINA RESULT:      -9.0      2.800      6.280
  Name = 
  2 active torsions:
  status: ('A' for Active; 'I' for Inactive)
    1  A    between atoms: C_1  and  C_2
    2  A    between atoms: C_10  and  C_13
                            x       y       z     vdW  Elec       q    Type
                         _______ _______ _______ _____ _____    ______ ____

>  <TORSDO>
F 2

$$$$
=
 OpenBabel10272401503D

 28 31  0  0  1  0  0  0  0  0999 V2000
  184.6930  179.0580  142.9360 C   0  0  1  0  0  3  0  0  0  0  0  0
  187.6130  177.2650  146.4380 C   0  0  0  0  0  1  0  0  0  0  0  0
  188.1250  177.6420  142.0480 C   0  0  2  0  0  3  0  0  0  0  0  0
  187.5760  177.7990  145.0190 C   0  0  1  0  0  3  0  0  0  0  0  0
  187.0450  178.7010  142.2490 C   0  0  0  0  0  2  0  0  0  0  0  0
  185.3480  178.9670  145.2510 C   0  0  0  0  0  2  0  0  0  0  0  0
  188.4180  176.8880  144.1350 C   0  0  0  0  0  2  0  0  0  0  0  0
  186.1210  177.8790  144.5300 C   0  0  1  0  0  3  0  0  0  0  0  0
  189.0210  177.6470  143.1250 O   0  0  0  0  0  0  0  0  0  0  0  0
  184.1780  179.2830  144.3460 C   0  0  0  0  0  2  0  0  0  0  0  0
  185.8750  178.1060  143.0260 C   0  0  1  0  0  3  0  0  0  0  0  0
  188.1820  178.3660  139.7000 C   0  0  0  0  0  3  0  0  0  0  0  0
  190.5590  176.3580  139.6930 C   0  0  0  0  0  2  0  0  0  0  0  0
  189.3300  177.3600  137.7650 C   0  0  0  0  0  0  0  0  0  0  0  0
  188.8590  177.8660  140.7520 C   0  0  0  0  0  0  0  0  0  0  0  0
  190.9820  177.2260  141.9810 C   0  0  0  0  0  1  0  0  0  0  0  0
  190.6440  176.8260  138.2430 C   0  0  0  0  0  2  0  0  0  0  0  0
  190.3370  177.5340  140.6380 C   0  0  1  0  0  3  0  0  0  0  0  0
  188.5490  176.6010  137.0890 N   0  0  0  0  0  2  0  0  0  0  0  0
  188.8000  178.6280  138.3570 C   0  0  0  0  0  2  0  0  0  0  0  0
  183.6240  178.5490  142.0150 C   0  0  0  0  0  0  0  0  0  0  0  0
  184.0180  177.7790  140.9150 C   0  0  0  0  0  3  0  0  0  0  0  0
  181.3020  178.2930  141.3310 C   0  0  0  0  0  0  0  0  0  0  0  0
  183.0670  177.2700  140.0280 C   0  0  0  0  0  3  0  0  0  0  0  0
  181.8280  179.5650  143.3100 O   0  0  0  0  0  1  0  0  0  0  0  0
  182.2510  178.8060  142.2240 C   0  0  0  0  0  0  0  0  0  0  0  0
  179.9820  178.5350  141.5230 F   0  0  0  0  0  0  0  0  0  0  0  0
  181.7110  177.5270  140.2360 C   0  0  0  0  0  3  0  0  0  0  0  0
  1 21  1  6  0  0  0
  1 11  1  0  0  0  0
  1 10  1  0  0  0  0
  3 15  1  6  0  0  0
  3  5  1  0  0  0  0
  3  9  1  0  0  0  0
  4  2  1  1  0  0  0
  7  4  1  0  0  0  0
  8  4  1  0  0  0  0
  8  6  1  1  0  0  0
  9  7  1  0  0  0  0
 10  6  1  0  0  0  0
 11  5  1  1  0  0  0
 11  8  1  0  0  0  0
 12 15  2  0  0  0  0
 13 18  1  0  0  0  0
 14 17  1  0  0  0  0
 14 20  1  0  0  0  0
 17 13  1  0  0  0  0
 18 15  1  0  0  0  0
 18 16  1  1  0  0  0
 19 14  2  0  0  0  0
 20 12  1  0  0  0  0
 21 26  1  0  0  0  0
 22 21  2  0  0  0  0
 23 27  1  0  0  0  0
 23 26  2  0  0  0  0
 24 28  2  0  0  0  0
 24 22  1  0  0  0  0
 26 25  1  0  0  0  0
 28 23  1  0  0  0  0
M  END
>  <MODEL>
4

>  <REMARK>
 VINA RESULT:      -8.8      1.409      1.600
  Name = 
  2 active torsions:
  status: ('A' for Active; 'I' for Inactive)
    1  A    between atoms: C_1  and  C_2
    2  A    between atoms: C_10  and  C_13
                            x       y       z     vdW  Elec       q    Type
                         _______ _______ _______ _____ _____    ______ ____

>  <TORSDO>
F 2

$$$$
=
 OpenBabel10272401503D

 28 31  0  0  1  0  0  0  0  0999 V2000
  188.0000  178.5170  139.3690 C   0  0  1  0  0  3  0  0  0  0  0  0
  188.4600  176.9730  134.7410 C   0  0  0  0  0  1  0  0  0  0  0  0
  184.9840  177.1170  137.4940 C   0  0  2  0  0  3  0  0  0  0  0  0
  187.4690  177.4280  135.7960 C   0  0  1  0  0  3  0  0  0  0  0  0
  185.8620  178.1650  138.1710 C   0  0  0  0  0  2  0  0  0  0  0  0
  189.1770  178.5660  137.2690 C   0  0  0  0  0  2  0  0  0  0  0  0
  186.2720  176.4850  135.7750 C   0  0  0  0  0  2  0  0  0  0  0  0
  188.1490  177.4540  137.1740 C   0  0  1  0  0  3  0  0  0  0  0  0
  185.1130  177.1970  136.1010 O   0  0  0  0  0  0  0  0  0  0  0  0
  189.3550  178.8090  138.7510 C   0  0  0  0  0  2  0  0  0  0  0  0
  187.2530  177.5930  138.4200 C   0  0  1  0  0  3  0  0  0  0  0  0
  183.0350  178.5270  137.9960 C   0  0  0  0  0  3  0  0  0  0  0  0
  182.3090  176.0050  139.6690 C   0  0  0  0  0  2  0  0  0  0  0  0
  181.3410  178.3040  139.7730 C   0  0  0  0  0  0  0  0  0  0  0  0
  183.5430  177.2830  137.8990 C   0  0  0  0  0  0  0  0  0  0  0  0
  183.3420  174.7590  137.7860 C   0  0  0  0  0  1  0  0  0  0  0  0
  181.0680  176.8440  139.9590 C   0  0  0  0  0  2  0  0  0  0  0  0
  182.6800  176.0680  138.1910 C   0  0  1  0  0  3  0  0  0  0  0  0
  181.6190  179.0290  140.7910 N   0  0  0  0  0  2  0  0  0  0  0  0
  181.6190  178.8220  138.3970 C   0  0  0  0  0  2  0  0  0  0  0  0
  188.1180  177.9380  140.7480 C   0  0  0  0  0  0  0  0  0  0  0  0
  189.1990  177.0900  141.0130 C   0  0  0  0  0  3  0  0  0  0  0  0
  187.3670  177.6590  143.0470 C   0  0  0  0  0  0  0  0  0  0  0  0
  189.3650  176.5290  142.2810 C   0  0  0  0  0  3  0  0  0  0  0  0
  186.1120  179.0680  141.5450 O   0  0  0  0  0  1  0  0  0  0  0  0
  187.1950  178.2250  141.7770 C   0  0  0  0  0  0  0  0  0  0  0  0
  186.4850  177.9290  144.0410 F   0  0  0  0  0  0  0  0  0  0  0  0
  188.4500  176.8130  143.2960 C   0  0  0  0  0  3  0  0  0  0  0  0
  1 21  1  1  0  0  0
  3 15  1  6  0  0  0
  3  5  1  0  0  0  0
  4  2  1  6  0  0  0
  4  8  1  0  0  0  0
  6 10  1  0  0  0  0
  7  4  1  0  0  0  0
  7  9  1  0  0  0  0
  8  6  1  6  0  0  0
  8 11  1  0  0  0  0
  9  3  1  0  0  0  0
 10  1  1  0  0  0  0
 11  5  1  6  0  0  0
 11  1  1  0  0  0  0
 12 20  1  0  0  0  0
 13 17  1  0  0  0  0
 14 17  1  0  0  0  0
 14 19  2  0  0  0  0
 15 12  2  0  0  0  0
 15 18  1  0  0  0  0
 18 16  1  1  0  0  0
 18 13  1  0  0  0  0
 20 14  1  0  0  0  0
 21 22  2  0  0  0  0
 21 26  1  0  0  0  0
 22 24  1  0  0  0  0
 23 28  1  0  0  0  0
 23 27  1  0  0  0  0
 24 28  2  0  0  0  0
 25 26  1  0  0  0  0
 26 23  2  0  0  0  0
M  END
>  <MODEL>
5

>  <REMARK>
 VINA RESULT:      -8.6      2.990      7.252
  Name = 
  2 active torsions:
  status: ('A' for Active; 'I' for Inactive)
    1  A    between atoms: C_1  and  C_2
    2  A    between atoms: C_10  and  C_13
                            x       y       z     vdW  Elec       q    Type
                         _______ _______ _______ _____ _____    ______ ____

>  <TORSDO>
F 2

$$$$
=
 OpenBabel10272401503D

 28 31  0  0  1  0  0  0  0  0999 V2000
  182.8510  178.1740  139.3940 C   0  0  1  0  0  3  0  0  0  0  0  0
  180.8630  179.2570  143.7390 C   0  0  0  0  0  1  0  0  0  0  0  0
  185.0020  178.1940  142.5470 C   0  0  2  0  0  3  0  0  0  0  0  0
  182.1670  179.1630  142.9690 C   0  0  1  0  0  3  0  0  0  0  0  0
  184.4820  178.6620  141.1920 C   0  0  0  0  0  2  0  0  0  0  0  0
  181.1090  179.2290  140.6760 C   0  0  0  0  0  2  0  0  0  0  0  0
  183.1980  178.4630  143.8460 C   0  0  0  0  0  2  0  0  0  0  0  0
  181.9400  178.4130  141.6470 C   0  0  1  0  0  3  0  0  0  0  0  0
  184.4690  178.9830  143.5750 O   0  0  0  0  0  0  0  0  0  0  0  0
  181.4110  178.6460  139.3150 C   0  0  0  0  0  2  0  0  0  0  0  0
  183.1790  177.9430  140.8600 C   0  0  1  0  0  3  0  0  0  0  0  0
  187.1690  178.7910  141.5540 C   0  0  0  0  0  3  0  0  0  0  0  0
  188.0480  176.4040  143.3460 C   0  0  0  0  0  2  0  0  0  0  0  0
  189.2760  177.5150  141.4780 C   0  0  0  0  0  0  0  0  0  0  0  0
  186.5070  178.2290  142.5840 C   0  0  0  0  0  0  0  0  0  0  0  0
  186.3550  177.2880  144.9330 C   0  0  0  0  0  1  0  0  0  0  0  0
  189.4120  176.7840  142.7770 C   0  0  0  0  0  2  0  0  0  0  0  0
  187.2620  177.6420  143.7640 C   0  0  1  0  0  3  0  0  0  0  0  0
  189.4060  176.8730  140.3770 N   0  0  0  0  0  2  0  0  0  0  0  0
  188.6650  178.8810  141.4710 C   0  0  0  0  0  2  0  0  0  0  0  0
  183.0960  176.9510  138.5590 C   0  0  0  0  0  0  0  0  0  0  0  0
  182.1350  175.9350  138.5890 C   0  0  0  0  0  3  0  0  0  0  0  0
  184.4030  175.6350  136.9840 C   0  0  0  0  0  0  0  0  0  0  0  0
  182.3030  174.7770  137.8270 C   0  0  0  0  0  3  0  0  0  0  0  0
  185.2100  177.7930  137.6920 O   0  0  0  0  0  1  0  0  0  0  0  0
  184.2400  176.7980  137.7460 C   0  0  0  0  0  0  0  0  0  0  0  0
  185.4980  175.4790  136.2000 F   0  0  0  0  0  0  0  0  0  0  0  0
  183.4360  174.6270  137.0250 C   0  0  0  0  0  3  0  0  0  0  0  0
  1 21  1  6  0  0  0
  1 11  1  0  0  0  0
  3 15  1  6  0  0  0
  3  9  1  0  0  0  0
  4  2  1  1  0  0  0
  4  7  1  0  0  0  0
  5  3  1  0  0  0  0
  8  6  1  6  0  0  0
  8  4  1  0  0  0  0
  9  7  1  0  0  0  0
 10  1  1  0  0  0  0
 10  6  1  0  0  0  0
 11  5  1  1  0  0  0
 11  8  1  0  0  0  0
 12 15  2  0  0  0  0
 13 18  1  0  0  0  0
 14 17  1  0  0  0  0
 15 18  1  0  0  0  0
 17 13  1  0  0  0  0
 18 16  1  1  0  0  0
 19 14  2  0  0  0  0
 20 14  1  0  0  0  0
 20 12  1  0  0  0  0
 21 22  1  0  0  0  0
 23 28  2  0  0  0  0
 23 26  1  0  0  0  0
 24 22  2  0  0  0  0
 25 26  1  0  0  0  0
 26 21  2  0  0  0  0
 27 23  1  0  0  0  0
 28 24  1  0  0  0  0
M  END
>  <MODEL>
6

>  <REMARK>
 VINA RESULT:      -8.5      2.378      4.511
  Name = 
  2 active torsions:
  status: ('A' for Active; 'I' for Inactive)
    1  A    between atoms: C_1  and  C_2
    2  A    between atoms: C_10  and  C_13
                            x       y       z     vdW  Elec       q    Type
                         _______ _______ _______ _____ _____    ______ ____

>  <TORSDO>
F 2

$$$$
=
 OpenBabel10272401503D

 28 31  0  0  1  0  0  0  0  0999 V2000
  188.0380  177.1120  143.9010 C   0  0  1  0  0  3  0  0  0  0  0  0
  183.7060  179.1270  144.9860 C   0  0  0  0  0  1  0  0  0  0  0  0
  185.8700  178.6220  141.1470 C   0  0  2  0  0  3  0  0  0  0  0  0
  184.5480  178.5440  143.8680 C   0  0  1  0  0  3  0  0  0  0  0  0
  186.5690  177.5320  141.9530 C   0  0  0  0  0  2  0  0  0  0  0  0
  186.1480  177.3040  145.3790 C   0  0  0  0  0  2  0  0  0  0  0  0
  184.4360  179.4550  142.6510 C   0  0  0  0  0  2  0  0  0  0  0  0
  186.0050  178.3950  144.3350 C   0  0  1  0  0  3  0  0  0  0  0  0
  184.5110  178.6860  141.4840 O   0  0  0  0  0  0  0  0  0  0  0  0
  187.6090  176.9170  145.3440 C   0  0  0  0  0  2  0  0  0  0  0  0
  187.0800  178.1090  143.2690 C   0  0  1  0  0  3  0  0  0  0  0  0
  184.9300  178.2190  138.9120 C   0  0  0  0  0  3  0  0  0  0  0  0
  187.7330  176.9170  138.5490 C   0  0  0  0  0  2  0  0  0  0  0  0
  185.6910  176.6960  137.1290 C   0  0  0  0  0  0  0  0  0  0  0  0
  186.0320  178.3810  139.6690 C   0  0  0  0  0  0  0  0  0  0  0  0
  188.5140  178.7780  139.9960 C   0  0  0  0  0  1  0  0  0  0  0  0
  187.1880  176.6960  137.1420 C   0  0  0  0  0  2  0  0  0  0  0  0
  187.4160  178.3240  139.0460 C   0  0  1  0  0  3  0  0  0  0  0  0
  185.0600  175.5810  137.1530 N   0  0  0  0  0  2  0  0  0  0  0  0
  184.9610  177.9670  137.4320 C   0  0  0  0  0  2  0  0  0  0  0  0
  189.4690  177.5510  143.7890 C   0  0  0  0  0  0  0  0  0  0  0  0
  189.9460  178.4750  144.7250 C   0  0  0  0  0  3  0  0  0  0  0  0
  191.6690  177.5050  142.7480 C   0  0  0  0  0  0  0  0  0  0  0  0
  191.2710  178.9140  144.6760 C   0  0  0  0  0  3  0  0  0  0  0  0
  189.8970  176.1390  141.8500 O   0  0  0  0  0  1  0  0  0  0  0  0
  190.3410  177.0610  142.7930 C   0  0  0  0  0  0  0  0  0  0  0  0
  192.5130  177.0400  141.7950 F   0  0  0  0  0  0  0  0  0  0  0  0
  192.1310  178.4290  143.6880 C   0  0  0  0  0  3  0  0  0  0  0  0
  1 21  1  1  0  0  0
  1 10  1  0  0  0  0
  3 15  1  6  0  0  0
  3  9  1  0  0  0  0
  3  5  1  0  0  0  0
  4  8  1  0  0  0  0
  4  2  1  1  0  0  0
  7  4  1  0  0  0  0
  8  6  1  1  0  0  0
  9  7  1  0  0  0  0
 10  6  1  0  0  0  0
 11  5  1  6  0  0  0
 11  1  1  0  0  0  0
 11  8  1  0  0  0  0
 12 15  2  0  0  0  0
 13 18  1  0  0  0  0
 14 17  1  0  0  0  0
 14 19  2  0  0  0  0
 14 20  1  0  0  0  0
 17 13  1  0  0  0  0
 18 15  1  0  0  0  0
 18 16  1  1  0  0  0
 20 12  1  0  0  0  0
 21 22  1  0  0  0  0
 23 26  1  0  0  0  0
 23 28  2  0  0  0  0
 24 22  2  0  0  0  0
 25 26  1  0  0  0  0
 26 21  2  0  0  0  0
 27 23  1  0  0  0  0
 28 24  1  0  0  0  0
M  END
>  <MODEL>
7

>  <REMARK>
 VINA RESULT:      -8.5      2.793      5.573
  Name = 
  2 active torsions:
  status: ('A' for Active; 'I' for Inactive)
    1  A    between atoms: C_1  and  C_2
    2  A    between atoms: C_10  and  C_13
                            x       y       z     vdW  Elec       q    Type
                         _______ _______ _______ _____ _____    ______ ____

>  <TORSDO>
F 2

$$$$
=
 OpenBabel10272401503D

 28 31  0  0  1  0  0  0  0  0999 V2000
  190.6570  177.3130  139.8990 C   0  0  1  0  0  3  0  0  0  0  0  0
  193.5330  174.7770  136.8470 C   0  0  0  0  0  1  0  0  0  0  0  0
  189.1500  175.4610  136.9210 C   0  0  2  0  0  3  0  0  0  0  0  0
  192.1750  175.4360  136.9990 C   0  0  1  0  0  3  0  0  0  0  0  0
  189.5860  176.6530  137.7660 C   0  0  0  0  0  2  0  0  0  0  0  0
  192.8290  176.9140  138.9410 C   0  0  0  0  0  2  0  0  0  0  0  0
  191.1120  174.4870  136.4590 C   0  0  0  0  0  2  0  0  0  0  0  0
  191.9270  175.7870  138.4750 C   0  0  1  0  0  3  0  0  0  0  0  0
  190.0710  175.2290  135.8910 O   0  0  0  0  0  0  0  0  0  0  0  0
  192.1420  177.4880  140.1590 C   0  0  0  0  0  2  0  0  0  0  0  0
  190.4980  176.1830  138.8950 C   0  0  1  0  0  3  0  0  0  0  0  0
  187.3830  176.9390  136.0660 C   0  0  0  0  0  3  0  0  0  0  0  0
  185.6450  174.5550  137.0570 C   0  0  0  0  0  2  0  0  0  0  0  0
  184.9480  176.8740  136.4460 C   0  0  0  0  0  0  0  0  0  0  0  0
  187.7720  175.6820  136.3540 C   0  0  0  0  0  0  0  0  0  0  0  0
  187.5360  173.1600  136.2540 C   0  0  0  0  0  1  0  0  0  0  0  0
  184.5350  175.4360  136.4920 C   0  0  0  0  0  2  0  0  0  0  0  0
  186.8410  174.5070  136.1120 C   0  0  1  0  0  3  0  0  0  0  0  0
  184.5920  177.6630  137.3900 N   0  0  0  0  0  2  0  0  0  0  0  0
  186.0350  177.2880  135.5050 C   0  0  0  0  0  2  0  0  0  0  0  0
  189.8850  177.0620  141.1610 C   0  0  0  0  0  0  0  0  0  0  0  0
  190.4730  176.2530  142.1400 C   0  0  0  0  0  3  0  0  0  0  0  0
  187.9440  177.3500  142.6010 C   0  0  0  0  0  0  0  0  0  0  0  0
  189.8060  175.9920  143.3380 C   0  0  0  0  0  3  0  0  0  0  0  0
  187.9990  178.4270  140.4450 O   0  0  0  0  0  1  0  0  0  0  0  0
  188.6080  177.6160  141.3970 C   0  0  0  0  0  0  0  0  0  0  0  0
  186.7180  177.8780  142.8360 F   0  0  0  0  0  0  0  0  0  0  0  0
  188.5430  176.5400  143.5680 C   0  0  0  0  0  3  0  0  0  0  0  0
  1 10  1  0  0  0  0
  1 21  1  1  0  0  0
  3 15  1  6  0  0  0
  3  5  1  0  0  0  0
  4  2  1  1  0  0  0
  4  8  1  0  0  0  0
  6 10  1  0  0  0  0
  7  4  1  0  0  0  0
  8 11  1  0  0  0  0
  8  6  1  6  0  0  0
  9  7  1  0  0  0  0
  9  3  1  0  0  0  0
 11  5  1  6  0  0  0
 11  1  1  0  0  0  0
 12 15  2  0  0  0  0
 14 17  1  0  0  0  0
 14 19  2  0  0  0  0
 17 13  1  0  0  0  0
 18 16  1  1  0  0  0
 18 15  1  0  0  0  0
 18 13  1  0  0  0  0
 20 12  1  0  0  0  0
 20 14  1  0  0  0  0
 21 26  2  0  0  0  0
 21 22  1  0  0  0  0
 22 24  2  0  0  0  0
 23 27  1  0  0  0  0
 23 28  2  0  0  0  0
 24 28  1  0  0  0  0
 25 26  1  0  0  0  0
 26 23  1  0  0  0  0
M  END
>  <MODEL>
8

>  <REMARK>
 VINA RESULT:      -8.4      3.317      6.928
  Name = 
  2 active torsions:
  status: ('A' for Active; 'I' for Inactive)
    1  A    between atoms: C_1  and  C_2
    2  A    between atoms: C_10  and  C_13
                            x       y       z     vdW  Elec       q    Type
                         _______ _______ _______ _____ _____    ______ ____

>  <TORSDO>
F 2

$$$$
=
 OpenBabel10272401503D

 28 31  0  0  1  0  0  0  0  0999 V2000
  188.4220  178.4120  145.5750 C   0  0  1  0  0  3  0  0  0  0  0  0
  192.0440  175.1390  145.9880 C   0  0  0  0  0  1  0  0  0  0  0  0
  189.9800  176.8550  142.4570 C   0  0  2  0  0  3  0  0  0  0  0  0
  191.3620  176.1090  145.0430 C   0  0  1  0  0  3  0  0  0  0  0  0
  189.6450  177.9420  143.4740 C   0  0  0  0  0  2  0  0  0  0  0  0
  190.2310  177.4650  146.8490 C   0  0  0  0  0  2  0  0  0  0  0  0
  191.1700  175.4220  143.6970 C   0  0  0  0  0  2  0  0  0  0  0  0
  190.0240  176.5700  145.6430 C   0  0  1  0  0  3  0  0  0  0  0  0
  191.2760  176.3670  142.6710 O   0  0  0  0  0  0  0  0  0  0  0  0
  188.9390  178.2370  146.9910 C   0  0  0  0  0  2  0  0  0  0  0  0
  189.0370  177.3140  144.7230 C   0  0  1  0  0  3  0  0  0  0  0  0
  188.6050  177.5850  140.5550 C   0  0  0  0  0  3  0  0  0  0  0  0
  191.1710  176.6900  139.0400 C   0  0  0  0  0  2  0  0  0  0  0  0
  188.8880  177.1540  138.1450 C   0  0  0  0  0  0  0  0  0  0  0  0
  189.8410  177.3770  141.0510 C   0  0  0  0  0  0  0  0  0  0  0  0
  192.3640  177.6130  141.0130 C   0  0  0  0  0  1  0  0  0  0  0  0
  190.3550  177.1790  137.8480 C   0  0  0  0  0  2  0  0  0  0  0  0
  191.0720  177.6630  140.2100 C   0  0  1  0  0  3  0  0  0  0  0  0
  188.1820  176.1590  137.7530 N   0  0  0  0  0  2  0  0  0  0  0  0
  188.3370  178.0950  139.1690 C   0  0  0  0  0  2  0  0  0  0  0  0
  186.9220  178.4060  145.5120 C   0  0  0  0  0  0  0  0  0  0  0  0
  186.2160  178.4090  146.7190 C   0  0  0  0  0  3  0  0  0  0  0  0
  184.8100  178.4130  144.3040 C   0  0  0  0  0  0  0  0  0  0  0  0
  184.8190  178.4120  146.7240 C   0  0  0  0  0  3  0  0  0  0  0  0
  186.8850  178.4120  143.0760 O   0  0  0  0  0  1  0  0  0  0  0  0
  186.2100  178.4100  144.2930 C   0  0  0  0  0  0  0  0  0  0  0  0
  184.1170  178.4170  143.1380 F   0  0  0  0  0  0  0  0  0  0  0  0
  184.1170  178.4140  145.5170 C   0  0  0  0  0  3  0  0  0  0  0  0
  1 21  1  1  0  0  0
  1 10  1  0  0  0  0
  3 15  1  6  0  0  0
  3  9  1  0  0  0  0
  3  5  1  0  0  0  0
  4  8  1  0  0  0  0
  4  2  1  1  0  0  0
  6 10  1  0  0  0  0
  7  4  1  0  0  0  0
  8  6  1  1  0  0  0
  9  7  1  0  0  0  0
 11  5  1  6  0  0  0
 11  1  1  0  0  0  0
 11  8  1  0  0  0  0
 12 15  2  0  0  0  0
 13 18  1  0  0  0  0
 14 20  1  0  0  0  0
 17 14  1  0  0  0  0
 17 13  1  0  0  0  0
 18 16  1  1  0  0  0
 18 15  1  0  0  0  0
 19 14  2  0  0  0  0
 20 12  1  0  0  0  0
 21 22  1  0  0  0  0
 22 24  2  0  0  0  0
 23 28  2  0  0  0  0
 25 26  1  0  0  0  0
 26 23  1  0  0  0  0
 26 21  2  0  0  0  0
 27 23  1  0  0  0  0
 28 24  1  0  0  0  0
M  END
>  <MODEL>
9

>  <REMARK>
 VINA RESULT:      -8.2      2.659      3.972
  Name = 
  2 active torsions:
  status: ('A' for Active; 'I' for Inactive)
    1  A    between atoms: C_1  and  C_2
    2  A    between atoms: C_10  and  C_13
                            x       y       z     vdW  Elec       q    Type
                         _______ _______ _______ _____ _____    ______ ____

>  <TORSDO>
F 2

$$$$
