=
 OpenBabel10272400213D

 31 36  0  0  1  0  0  0  0  0999 V2000
  185.2460  178.3530  145.1800 C   0  0  0  0  0  0  0  0  0  0  0  0
  188.7250  177.7170  143.9230 C   0  0  0  0  0  0  0  0  0  0  0  0
  189.5370  177.3370  145.1290 C   0  0  0  0  0  0  0  0  0  0  0  0
  189.8200  177.3490  147.6990 C   0  0  0  0  0  3  0  0  0  0  0  0
  187.3430  178.0450  143.9730 C   0  0  0  0  0  0  0  0  0  0  0  0
  184.5970  178.6810  143.9900 C   0  0  0  0  0  3  0  0  0  0  0  0
  189.1010  177.6720  146.4930 C   0  0  0  0  0  3  0  0  0  0  0  0
  188.6470  178.0470  141.5010 C   0  0  0  0  0  0  0  0  0  0  0  0
  184.5230  178.3400  146.4040 N   0  0  0  0  0  1  0  0  0  0  0  0
  191.2640  176.2960  143.5240 C   0  0  0  0  0  2  0  0  0  0  0  0
  190.9690  176.6910  147.3810 C   0  0  0  0  0  0  0  0  0  0  0  0
  187.3310  178.3630  141.5900 N   0  0  0  0  0  0  0  0  0  0  0  0
  189.3690  177.7000  142.6570 C   0  0  0  0  0  0  0  0  0  0  0  0
  186.6070  178.0360  145.1690 C   0  0  0  0  0  3  0  0  0  0  0  0
  192.1760  176.0080  147.1780 C   0  0  0  0  0  2  0  0  0  0  0  0
  186.6690  178.3710  142.7720 C   0  0  0  0  0  0  0  0  0  0  0  0
  185.3060  178.6880  142.7880 C   0  0  0  0  0  3  0  0  0  0  0  0
  190.8450  177.3910  142.5500 C   0  0  0  0  0  2  0  0  0  0  0  0
  190.7850  176.6550  144.8880 C   0  0  0  0  0  0  0  0  0  0  0  0
  191.4330  176.3590  146.0420 C   0  0  0  0  0  0  0  0  0  0  0  0
  189.2920  178.0430  140.1530 C   0  0  0  0  0  2  0  0  0  0  0  0
  190.6640  176.3610  138.9400 C   0  0  0  0  0  2  0  0  0  0  0  0
  189.3180  176.6250  139.5900 C   0  0  2  0  0  3  0  0  0  0  0  0
  189.4410  176.5370  138.0640 C   0  0  1  0  0  3  0  0  0  0  0  0
  189.5170  177.8780  137.3410 C   0  0  0  0  0  2  0  0  0  0  0  0
  188.4850  177.4840  134.8880 S   0  0  0  0  0  0  0  0  0  0  0  0
  188.3510  178.0300  136.4280 C   0  0  0  0  0  0  0  0  0  0  0  0
  187.1930  178.7410  136.8950 N   0  0  0  0  0  2  0  0  0  0  0  0
  186.1010  178.2190  137.6610 C   0  0  0  0  0  0  0  0  0  0  0  0
  185.5530  178.9400  138.7590 N   0  0  0  0  0  1  0  0  0  0  0  0
  185.3400  176.8730  137.1370 S   0  0  0  0  0  0  0  0  0  0  0  0
  1  9  1  0  0  0  0
  2  5  1  0  0  0  0
  2  3  1  0  0  0  0
  3  7  1  0  0  0  0
  5 14  2  0  0  0  0
  6  1  2  0  0  0  0
  7  4  2  0  0  0  0
  8 12  2  0  0  0  0
  8 13  1  0  0  0  0
 10 19  1  0  0  0  0
 11  4  1  0  0  0  0
 12 16  1  0  0  0  0
 13  2  2  0  0  0  0
 14  1  1  0  0  0  0
 15 11  1  0  0  0  0
 16 17  2  0  0  0  0
 16  5  1  0  0  0  0
 17  6  1  0  0  0  0
 18 13  1  0  0  0  0
 18 10  1  0  0  0  0
 19  3  2  0  0  0  0
 19 20  1  0  0  0  0
 20 15  1  0  0  0  0
 20 11  2  0  0  0  0
 21  8  1  0  0  0  0
 22 23  1  0  0  0  0
 23 21  1  6  0  0  0
 24 25  1  6  0  0  0
 24 22  1  0  0  0  0
 24 23  1  0  0  0  0
 26 27  2  0  0  0  0
 27 28  1  0  0  0  0
 27 25  1  0  0  0  0
 28 29  1  0  0  0  0
 29 30  1  0  0  0  0
 31 29  2  0  0  0  0
M  END
>  <MODEL>
1

>  <REMARK>
 VINA RESULT:     -10.1      0.000      0.000
  Name = 
  6 active torsions:
  status: ('A' for Active; 'I' for Inactive)
    1  A    between atoms: C_1  and  N_24
    2  A    between atoms: C_3  and  C_19
    3  A    between atoms: C_3  and  C_22
    4  A    between atoms: C_9  and  C_23
    5  A    between atoms: C_15  and  C_23
    6  A    between atoms: C_19  and  N_24
                            x       y       z     vdW  Elec       q    Type
                         _______ _______ _______ _____ _____    ______ ____

>  <TORSDO>
F 6

$$$$
=
 OpenBabel10272400213D

 31 36  0  0  1  0  0  0  0  0999 V2000
  185.0580  178.4200  145.3340 C   0  0  0  0  0  0  0  0  0  0  0  0
  188.3960  177.7510  143.7520 C   0  0  0  0  0  0  0  0  0  0  0  0
  189.3110  177.3480  144.8730 C   0  0  0  0  0  0  0  0  0  0  0  0
  189.8330  177.3330  147.4060 C   0  0  0  0  0  3  0  0  0  0  0  0
  187.0290  178.0960  143.9340 C   0  0  0  0  0  0  0  0  0  0  0  0
  184.3050  178.7670  144.2120 C   0  0  0  0  0  3  0  0  0  0  0  0
  189.0100  177.6760  146.2750 C   0  0  0  0  0  3  0  0  0  0  0  0
  188.0970  178.1040  141.3500 C   0  0  0  0  0  0  0  0  0  0  0  0
  184.4530  178.4050  146.6200 N   0  0  0  0  0  1  0  0  0  0  0  0
  190.8670  176.3000  143.1060 C   0  0  0  0  0  2  0  0  0  0  0  0
  190.9380  176.6630  146.9760 C   0  0  0  0  0  0  0  0  0  0  0  0
  186.7990  178.4370  141.5650 N   0  0  0  0  0  0  0  0  0  0  0  0
  188.9180  177.7370  142.4310 C   0  0  0  0  0  0  0  0  0  0  0  0
  186.4070  178.0850  145.1930 C   0  0  0  0  0  3  0  0  0  0  0  0
  192.1120  175.9660  146.6560 C   0  0  0  0  0  2  0  0  0  0  0  0
  186.2500  178.4420  142.8030 C   0  0  0  0  0  0  0  0  0  0  0  0
  184.8990  178.7770  142.9500 C   0  0  0  0  0  3  0  0  0  0  0  0
  190.3740  177.4090  142.1840 C   0  0  0  0  0  2  0  0  0  0  0  0
  190.5220  176.6530  144.5110 C   0  0  0  0  0  0  0  0  0  0  0  0
  191.2700  176.3370  145.5970 C   0  0  0  0  0  0  0  0  0  0  0  0
  188.6120  178.1040  139.9480 C   0  0  0  0  0  2  0  0  0  0  0  0
  187.5190  176.8330  138.1120 C   0  0  0  0  0  2  0  0  0  0  0  0
  187.4470  178.0880  138.9630 C   0  0  2  0  0  3  0  0  0  0  0  0
  187.8480  178.1730  137.4850 C   0  0  1  0  0  3  0  0  0  0  0  0
  189.3480  178.2610  137.2240 C   0  0  0  0  0  2  0  0  0  0  0  0
  188.9750  177.4310  134.6930 S   0  0  0  0  0  0  0  0  0  0  0  0
  189.7330  177.3140  136.1410 C   0  0  0  0  0  0  0  0  0  0  0  0
  190.6730  176.2690  136.4370 N   0  0  0  0  0  2  0  0  0  0  0  0
  191.4550  176.1120  137.6270 C   0  0  0  0  0  0  0  0  0  0  0  0
  190.8800  175.6160  138.8320 N   0  0  0  0  0  1  0  0  0  0  0  0
  193.0730  176.3080  137.5420 S   0  0  0  0  0  0  0  0  0  0  0  0
  1  9  1  0  0  0  0
  2  5  1  0  0  0  0
  2  3  1  0  0  0  0
  3  7  1  0  0  0  0
  5 14  2  0  0  0  0
  6  1  2  0  0  0  0
  7  4  2  0  0  0  0
  8 12  2  0  0  0  0
  8 13  1  0  0  0  0
 10 19  1  0  0  0  0
 11  4  1  0  0  0  0
 12 16  1  0  0  0  0
 13  2  2  0  0  0  0
 14  1  1  0  0  0  0
 15 11  1  0  0  0  0
 16 17  2  0  0  0  0
 16  5  1  0  0  0  0
 17  6  1  0  0  0  0
 18 13  1  0  0  0  0
 18 10  1  0  0  0  0
 19  3  2  0  0  0  0
 19 20  1  0  0  0  0
 20 15  1  0  0  0  0
 20 11  2  0  0  0  0
 21  8  1  0  0  0  0
 22 23  1  0  0  0  0
 23 21  1  1  0  0  0
 24 25  1  1  0  0  0
 24 22  1  0  0  0  0
 24 23  1  0  0  0  0
 26 27  2  0  0  0  0
 27 28  1  0  0  0  0
 27 25  1  0  0  0  0
 28 29  1  0  0  0  0
 29 30  1  0  0  0  0
 31 29  2  0  0  0  0
M  END
>  <MODEL>
2

>  <REMARK>
 VINA RESULT:      -9.9      1.728      2.415
  Name = 
  6 active torsions:
  status: ('A' for Active; 'I' for Inactive)
    1  A    between atoms: C_1  and  N_24
    2  A    between atoms: C_3  and  C_19
    3  A    between atoms: C_3  and  C_22
    4  A    between atoms: C_9  and  C_23
    5  A    between atoms: C_15  and  C_23
    6  A    between atoms: C_19  and  N_24
                            x       y       z     vdW  Elec       q    Type
                         _______ _______ _______ _____ _____    ______ ____

>  <TORSDO>
F 6

$$$$
=
 OpenBabel10272400213D

 31 36  0  0  1  0  0  0  0  0999 V2000
  190.5050  177.0260  146.0350 C   0  0  0  0  0  0  0  0  0  0  0  0
  187.9480  177.8680  143.4190 C   0  0  0  0  0  0  0  0  0  0  0  0
  186.6590  178.0890  144.1580 C   0  0  0  0  0  0  0  0  0  0  0  0
  185.2400  177.7260  146.2900 C   0  0  0  0  0  3  0  0  0  0  0  0
  189.1720  177.5210  144.0530 C   0  0  0  0  0  0  0  0  0  0  0  0
  191.6410  176.8580  145.2420 C   0  0  0  0  0  3  0  0  0  0  0  0
  186.4440  177.5640  145.5150 C   0  0  0  0  0  3  0  0  0  0  0  0
  189.1350  177.8750  141.2800 C   0  0  0  0  0  0  0  0  0  0  0  0
  190.5910  176.8620  147.4440 N   0  0  0  0  0  1  0  0  0  0  0  0
  185.7960  179.3600  142.0890 C   0  0  0  0  0  2  0  0  0  0  0  0
  184.3280  178.4340  145.5690 C   0  0  0  0  0  0  0  0  0  0  0  0
  190.2810  177.5340  141.9200 N   0  0  0  0  0  0  0  0  0  0  0  0
  187.9500  178.0670  142.0130 C   0  0  0  0  0  0  0  0  0  0  0  0
  189.2830  177.3570  145.4440 C   0  0  0  0  0  3  0  0  0  0  0  0
  183.3100  179.1520  144.9250 C   0  0  0  0  0  2  0  0  0  0  0  0
  190.3350  177.3560  143.2620 C   0  0  0  0  0  0  0  0  0  0  0  0
  191.5560  177.0240  143.8590 C   0  0  0  0  0  3  0  0  0  0  0  0
  186.6690  178.4050  141.2830 C   0  0  0  0  0  2  0  0  0  0  0  0
  185.6220  178.8110  143.4620 C   0  0  0  0  0  0  0  0  0  0  0  0
  184.5060  178.9530  144.2200 C   0  0  0  0  0  0  0  0  0  0  0  0
  189.1730  178.0710  139.8000 C   0  0  0  0  0  2  0  0  0  0  0  0
  189.7390  176.9400  137.6590 C   0  0  0  0  0  2  0  0  0  0  0  0
  189.3070  176.7230  139.0980 C   0  0  2  0  0  3  0  0  0  0  0  0
  188.3200  176.4930  137.9460 C   0  0  1  0  0  3  0  0  0  0  0  0
  187.3560  177.6450  137.6780 C   0  0  0  0  0  2  0  0  0  0  0  0
  185.8330  175.5500  136.9510 S   0  0  0  0  0  0  0  0  0  0  0  0
  185.9900  177.1140  137.4180 C   0  0  0  0  0  0  0  0  0  0  0  0
  184.8730  178.0150  137.4820 N   0  0  0  0  0  2  0  0  0  0  0  0
  184.2540  178.5540  138.6560 C   0  0  0  0  0  0  0  0  0  0  0  0
  184.3770  179.9320  138.9930 N   0  0  0  0  0  1  0  0  0  0  0  0
  183.2230  177.6180  139.5070 S   0  0  0  0  0  0  0  0  0  0  0  0
  1  9  1  0  0  0  0
  2  5  1  0  0  0  0
  2  3  1  0  0  0  0
  3  7  1  0  0  0  0
  5 14  2  0  0  0  0
  6  1  2  0  0  0  0
  7  4  2  0  0  0  0
  8 12  2  0  0  0  0
  8 13  1  0  0  0  0
 10 19  1  0  0  0  0
 11  4  1  0  0  0  0
 12 16  1  0  0  0  0
 13  2  2  0  0  0  0
 14  1  1  0  0  0  0
 15 11  1  0  0  0  0
 16 17  2  0  0  0  0
 16  5  1  0  0  0  0
 17  6  1  0  0  0  0
 18 13  1  0  0  0  0
 18 10  1  0  0  0  0
 19  3  2  0  0  0  0
 19 20  1  0  0  0  0
 20 15  1  0  0  0  0
 20 11  2  0  0  0  0
 21  8  1  0  0  0  0
 22 24  1  0  0  0  0
 22 23  1  0  0  0  0
 23 21  1  1  0  0  0
 24 25  1  1  0  0  0
 24 23  1  0  0  0  0
 26 27  2  0  0  0  0
 27 28  1  0  0  0  0
 27 25  1  0  0  0  0
 28 29  1  0  0  0  0
 29 30  1  0  0  0  0
 29 31  2  0  0  0  0
M  END
>  <MODEL>
3

>  <REMARK>
 VINA RESULT:      -9.5      1.836      4.401
  Name = 
  6 active torsions:
  status: ('A' for Active; 'I' for Inactive)
    1  A    between atoms: C_1  and  N_24
    2  A    between atoms: C_3  and  C_19
    3  A    between atoms: C_3  and  C_22
    4  A    between atoms: C_9  and  C_23
    5  A    between atoms: C_15  and  C_23
    6  A    between atoms: C_19  and  N_24
                            x       y       z     vdW  Elec       q    Type
                         _______ _______ _______ _____ _____    ______ ____

>  <TORSDO>
F 6

$$$$
=
 OpenBabel10272400213D

 31 36  0  0  1  0  0  0  0  0999 V2000
  185.4600  178.3440  145.3090 C   0  0  0  0  0  0  0  0  0  0  0  0
  188.8910  177.5130  144.0330 C   0  0  0  0  0  0  0  0  0  0  0  0
  189.7170  177.1930  145.2470 C   0  0  0  0  0  0  0  0  0  0  0  0
  190.0560  177.3790  147.8040 C   0  0  0  0  0  3  0  0  0  0  0  0
  187.5210  177.8860  144.0870 C   0  0  0  0  0  0  0  0  0  0  0  0
  184.7950  178.6070  144.1110 C   0  0  0  0  0  3  0  0  0  0  0  0
  189.3210  177.6370  146.5920 C   0  0  0  0  0  3  0  0  0  0  0  0
  188.7710  177.6720  141.5960 C   0  0  0  0  0  0  0  0  0  0  0  0
  184.7640  178.4400  146.5440 N   0  0  0  0  0  1  0  0  0  0  0  0
  191.3780  175.9890  143.6880 C   0  0  0  0  0  2  0  0  0  0  0  0
  191.1770  176.6640  147.5120 C   0  0  0  0  0  0  0  0  0  0  0  0
  187.4680  178.0350  141.6870 N   0  0  0  0  0  0  0  0  0  0  0  0
  189.5070  177.3860  142.7600 C   0  0  0  0  0  0  0  0  0  0  0  0
  186.8100  177.9850  145.2940 C   0  0  0  0  0  3  0  0  0  0  0  0
  192.3590  175.9310  147.3350 C   0  0  0  0  0  2  0  0  0  0  0  0
  186.8310  178.1470  142.8780 C   0  0  0  0  0  0  0  0  0  0  0  0
  185.4790  178.5070  142.8980 C   0  0  0  0  0  3  0  0  0  0  0  0
  190.9710  177.0240  142.6460 C   0  0  0  0  0  2  0  0  0  0  0  0
  190.9390  176.4580  145.0310 C   0  0  0  0  0  0  0  0  0  0  0  0
  191.6020  176.2240  146.1910 C   0  0  0  0  0  0  0  0  0  0  0  0
  189.3860  177.5540  140.2390 C   0  0  0  0  0  2  0  0  0  0  0  0
  187.8210  177.3690  138.3160 C   0  0  0  0  0  2  0  0  0  0  0  0
  188.5620  178.3360  139.2210 C   0  0  2  0  0  3  0  0  0  0  0  0
  188.9930  178.1520  137.7610 C   0  0  1  0  0  3  0  0  0  0  0  0
  190.1790  177.2170  137.5470 C   0  0  0  0  0  2  0  0  0  0  0  0
  191.2350  175.5230  135.7450 S   0  0  0  0  0  0  0  0  0  0  0  0
  190.1870  176.7190  136.1440 C   0  0  0  0  0  0  0  0  0  0  0  0
  189.3570  177.3730  135.1720 N   0  0  0  0  0  2  0  0  0  0  0  0
  188.1290  176.8930  134.6110 C   0  0  0  0  0  0  0  0  0  0  0  0
  187.9260  175.5090  134.3460 N   0  0  0  0  0  1  0  0  0  0  0  0
  186.8700  177.9210  134.4670 S   0  0  0  0  0  0  0  0  0  0  0  0
  1  9  1  0  0  0  0
  2  5  1  0  0  0  0
  2  3  1  0  0  0  0
  3  7  1  0  0  0  0
  5 14  2  0  0  0  0
  6  1  2  0  0  0  0
  7  4  2  0  0  0  0
  8 12  2  0  0  0  0
  8 13  1  0  0  0  0
 10 19  1  0  0  0  0
 11  4  1  0  0  0  0
 12 16  1  0  0  0  0
 13  2  2  0  0  0  0
 14  1  1  0  0  0  0
 15 11  1  0  0  0  0
 16 17  2  0  0  0  0
 16  5  1  0  0  0  0
 17  6  1  0  0  0  0
 18 13  1  0  0  0  0
 18 10  1  0  0  0  0
 19  3  2  0  0  0  0
 19 20  1  0  0  0  0
 20 15  1  0  0  0  0
 20 11  2  0  0  0  0
 21  8  1  0  0  0  0
 22 23  1  0  0  0  0
 23 21  1  1  0  0  0
 24 25  1  1  0  0  0
 24 22  1  0  0  0  0
 24 23  1  0  0  0  0
 26 27  2  0  0  0  0
 27 25  1  0  0  0  0
 28 27  1  0  0  0  0
 29 28  1  0  0  0  0
 30 29  1  0  0  0  0
 31 29  2  0  0  0  0
M  END
>  <MODEL>
4

>  <REMARK>
 VINA RESULT:      -9.5      1.372      1.870
  Name = 
  6 active torsions:
  status: ('A' for Active; 'I' for Inactive)
    1  A    between atoms: C_1  and  N_24
    2  A    between atoms: C_3  and  C_19
    3  A    between atoms: C_3  and  C_22
    4  A    between atoms: C_9  and  C_23
    5  A    between atoms: C_15  and  C_23
    6  A    between atoms: C_19  and  N_24
                            x       y       z     vdW  Elec       q    Type
                         _______ _______ _______ _____ _____    ______ ____

>  <TORSDO>
F 6

$$$$
=
 OpenBabel10272400213D

 31 36  0  0  1  0  0  0  0  0999 V2000
  190.2020  177.2890  146.4180 C   0  0  0  0  0  0  0  0  0  0  0  0
  187.8990  177.8470  143.5070 C   0  0  0  0  0  0  0  0  0  0  0  0
  186.5490  178.1350  144.0970 C   0  0  0  0  0  0  0  0  0  0  0  0
  184.9390  177.9840  146.1150 C   0  0  0  0  0  3  0  0  0  0  0  0
  189.0580  177.5720  144.2820 C   0  0  0  0  0  0  0  0  0  0  0  0
  191.4050  177.0460  145.7540 C   0  0  0  0  0  3  0  0  0  0  0  0
  186.2080  177.7500  145.4760 C   0  0  0  0  0  3  0  0  0  0  0  0
  189.2780  177.6410  141.4960 C   0  0  0  0  0  0  0  0  0  0  0  0
  190.1570  177.2700  147.8390 N   0  0  0  0  0  1  0  0  0  0  0  0
  185.8850  179.1840  141.8390 C   0  0  0  0  0  2  0  0  0  0  0  0
  184.1000  178.6110  145.2450 C   0  0  0  0  0  0  0  0  0  0  0  0
  190.3590  177.3730  142.2700 N   0  0  0  0  0  0  0  0  0  0  0  0
  188.0310  177.9010  142.0930 C   0  0  0  0  0  0  0  0  0  0  0  0
  189.0410  177.5510  145.6870 C   0  0  0  0  0  3  0  0  0  0  0  0
  183.1480  179.2540  144.4410 C   0  0  0  0  0  2  0  0  0  0  0  0
  190.2880  177.3330  143.6230 C   0  0  0  0  0  0  0  0  0  0  0  0
  191.4480  177.0700  144.3600 C   0  0  0  0  0  3  0  0  0  0  0  0
  186.8250  178.1560  141.2180 C   0  0  0  0  0  2  0  0  0  0  0  0
  185.5830  178.7770  143.2390 C   0  0  0  0  0  0  0  0  0  0  0  0
  184.4030  178.9900  143.8730 C   0  0  0  0  0  0  0  0  0  0  0  0
  189.4540  177.6860  140.0140 C   0  0  0  0  0  2  0  0  0  0  0  0
  191.4360  176.7180  138.8660 C   0  0  0  0  0  2  0  0  0  0  0  0
  190.1080  176.3960  139.5260 C   0  0  2  0  0  3  0  0  0  0  0  0
  190.2670  176.2860  138.0040 C   0  0  1  0  0  3  0  0  0  0  0  0
  189.7470  177.4800  137.2100 C   0  0  0  0  0  2  0  0  0  0  0  0
  188.7880  177.2230  134.7110 S   0  0  0  0  0  0  0  0  0  0  0  0
  188.6210  177.0560  136.3330 C   0  0  0  0  0  0  0  0  0  0  0  0
  187.3960  176.6180  136.9410 N   0  0  0  0  0  2  0  0  0  0  0  0
  186.3230  177.4330  137.4250 C   0  0  0  0  0  0  0  0  0  0  0  0
  186.5370  178.7870  137.8140 N   0  0  0  0  0  1  0  0  0  0  0  0
  184.7950  176.8670  137.3330 S   0  0  0  0  0  0  0  0  0  0  0  0
  1  9  1  0  0  0  0
  2  3  1  0  0  0  0
  2  5  1  0  0  0  0
  3  7  1  0  0  0  0
  5 14  1  0  0  0  0
  6  1  1  0  0  0  0
  7  4  2  0  0  0  0
  8 13  1  0  0  0  0
  8 12  2  0  0  0  0
 10 19  1  0  0  0  0
 11  4  1  0  0  0  0
 12 16  1  0  0  0  0
 13  2  2  0  0  0  0
 14  1  2  0  0  0  0
 15 11  1  0  0  0  0
 16  5  2  0  0  0  0
 16 17  1  0  0  0  0
 17  6  2  0  0  0  0
 18 10  1  0  0  0  0
 18 13  1  0  0  0  0
 19 20  1  0  0  0  0
 19  3  2  0  0  0  0
 20 15  1  0  0  0  0
 20 11  2  0  0  0  0
 21  8  1  0  0  0  0
 22 23  1  0  0  0  0
 23 21  1  6  0  0  0
 24 25  1  6  0  0  0
 24 22  1  0  0  0  0
 24 23  1  0  0  0  0
 26 27  2  0  0  0  0
 27 28  1  0  0  0  0
 27 25  1  0  0  0  0
 28 29  1  0  0  0  0
 29 30  1  0  0  0  0
 31 29  2  0  0  0  0
M  END
>  <MODEL>
5

>  <REMARK>
 VINA RESULT:      -9.3      1.542      4.261
  Name = 
  6 active torsions:
  status: ('A' for Active; 'I' for Inactive)
    1  A    between atoms: C_1  and  N_24
    2  A    between atoms: C_3  and  C_19
    3  A    between atoms: C_3  and  C_22
    4  A    between atoms: C_9  and  C_23
    5  A    between atoms: C_15  and  C_23
    6  A    between atoms: C_19  and  N_24
                            x       y       z     vdW  Elec       q    Type
                         _______ _______ _______ _____ _____    ______ ____

>  <TORSDO>
F 6

$$$$
=
 OpenBabel10272400213D

 31 36  0  0  1  0  0  0  0  0999 V2000
  182.8980  178.7560  142.7860 C   0  0  0  0  0  0  0  0  0  0  0  0
  186.6080  178.3230  143.1560 C   0  0  0  0  0  0  0  0  0  0  0  0
  186.8580  178.1360  144.6250 C   0  0  0  0  0  0  0  0  0  0  0  0
  186.0410  178.4240  147.0620 C   0  0  0  0  0  3  0  0  0  0  0  0
  185.3190  178.5260  142.5930 C   0  0  0  0  0  0  0  0  0  0  0  0
  182.7920  178.9060  141.4030 C   0  0  0  0  0  3  0  0  0  0  0  0
  185.8780  178.5610  145.6370 C   0  0  0  0  0  3  0  0  0  0  0  0
  187.5350  178.4070  140.8940 C   0  0  0  0  0  0  0  0  0  0  0  0
  181.7320  178.7960  143.5970 N   0  0  0  0  0  1  0  0  0  0  0  0
  189.1400  177.1080  144.0150 C   0  0  0  0  0  2  0  0  0  0  0  0
  187.2440  177.8460  147.3290 C   0  0  0  0  0  0  0  0  0  0  0  0
  186.2900  178.6090  140.3950 N   0  0  0  0  0  0  0  0  0  0  0  0
  187.7220  178.2420  142.2780 C   0  0  0  0  0  0  0  0  0  0  0  0
  184.1510  178.5650  143.3730 C   0  0  0  0  0  3  0  0  0  0  0  0
  188.4550  177.2600  147.7270 C   0  0  0  0  0  2  0  0  0  0  0  0
  185.1940  178.6700  141.1910 C   0  0  0  0  0  0  0  0  0  0  0  0
  183.9370  178.8620  140.6070 C   0  0  0  0  0  3  0  0  0  0  0  0
  189.1200  178.0600  142.8250 C   0  0  0  0  0  2  0  0  0  0  0  0
  188.1210  177.5520  145.0060 C   0  0  0  0  0  0  0  0  0  0  0  0
  188.2390  177.4290  146.3510 C   0  0  0  0  0  0  0  0  0  0  0  0
  188.6830  178.3320  139.9410 C   0  0  0  0  0  2  0  0  0  0  0  0
  188.0450  176.6170  138.2570 C   0  0  0  0  0  2  0  0  0  0  0  0
  188.1700  178.1060  138.5220 C   0  0  2  0  0  3  0  0  0  0  0  0
  189.1540  177.3970  137.5830 C   0  0  1  0  0  3  0  0  0  0  0  0
  190.4950  177.0260  138.2090 C   0  0  0  0  0  2  0  0  0  0  0  0
  190.7100  175.9850  135.7380 S   0  0  0  0  0  0  0  0  0  0  0  0
  191.2950  176.2120  137.2520 C   0  0  0  0  0  0  0  0  0  0  0  0
  192.4920  175.5720  137.7200 N   0  0  0  0  0  2  0  0  0  0  0  0
  193.7280  175.4130  137.0140 C   0  0  0  0  0  0  0  0  0  0  0  0
  194.4020  176.5290  136.4380 N   0  0  0  0  0  1  0  0  0  0  0  0
  194.4800  173.9650  137.0490 S   0  0  0  0  0  0  0  0  0  0  0  0
  1 14  1  0  0  0  0
  1  9  1  0  0  0  0
  2  3  1  0  0  0  0
  3 19  2  0  0  0  0
  3  7  1  0  0  0  0
  4 11  1  0  0  0  0
  5  2  1  0  0  0  0
  5 14  2  0  0  0  0
  6  1  2  0  0  0  0
  7  4  2  0  0  0  0
  8 13  1  0  0  0  0
 10 19  1  0  0  0  0
 11 15  1  0  0  0  0
 12  8  2  0  0  0  0
 12 16  1  0  0  0  0
 13 18  1  0  0  0  0
 13  2  2  0  0  0  0
 16  5  1  0  0  0  0
 17 16  2  0  0  0  0
 17  6  1  0  0  0  0
 18 10  1  0  0  0  0
 19 20  1  0  0  0  0
 20 11  2  0  0  0  0
 20 15  1  0  0  0  0
 21  8  1  0  0  0  0
 22 23  1  0  0  0  0
 23 21  1  1  0  0  0
 24 25  1  1  0  0  0
 24 22  1  0  0  0  0
 24 23  1  0  0  0  0
 26 27  2  0  0  0  0
 27 28  1  0  0  0  0
 27 25  1  0  0  0  0
 29 31  2  0  0  0  0
 29 28  1  0  0  0  0
 30 29  1  0  0  0  0
M  END
>  <MODEL>
6

>  <REMARK>
 VINA RESULT:      -9.0      2.781      3.999
  Name = 
  6 active torsions:
  status: ('A' for Active; 'I' for Inactive)
    1  A    between atoms: C_1  and  N_24
    2  A    between atoms: C_3  and  C_19
    3  A    between atoms: C_3  and  C_22
    4  A    between atoms: C_9  and  C_23
    5  A    between atoms: C_15  and  C_23
    6  A    between atoms: C_19  and  N_24
                            x       y       z     vdW  Elec       q    Type
                         _______ _______ _______ _____ _____    ______ ____

>  <TORSDO>
F 6

$$$$
=
 OpenBabel10272400213D

 31 36  0  0  1  0  0  0  0  0999 V2000
  189.5710  177.6250  147.7070 C   0  0  0  0  0  0  0  0  0  0  0  0
  187.8540  177.5270  144.3710 C   0  0  0  0  0  0  0  0  0  0  0  0
  186.4580  178.0280  144.6110 C   0  0  0  0  0  0  0  0  0  0  0  0
  184.5260  178.4880  146.2670 C   0  0  0  0  0  3  0  0  0  0  0  0
  188.8340  177.4040  145.3930 C   0  0  0  0  0  0  0  0  0  0  0  0
  190.8390  177.1580  147.3600 C   0  0  0  0  0  3  0  0  0  0  0  0
  185.8560  178.0320  145.9530 C   0  0  0  0  0  3  0  0  0  0  0  0
  189.5220  176.7370  142.7670 C   0  0  0  0  0  0  0  0  0  0  0  0
  189.2880  177.9780  149.0550 N   0  0  0  0  0  1  0  0  0  0  0  0
  186.2860  178.4880  142.0810 C   0  0  0  0  0  2  0  0  0  0  0  0
  183.9100  178.9100  145.1290 C   0  0  0  0  0  0  0  0  0  0  0  0
  190.4280  176.6240  143.7700 N   0  0  0  0  0  0  0  0  0  0  0  0
  188.2250  177.2070  143.0380 C   0  0  0  0  0  0  0  0  0  0  0  0
  188.5800  177.7490  146.7310 C   0  0  0  0  0  3  0  0  0  0  0  0
  183.1730  179.3710  144.0280 C   0  0  0  0  0  2  0  0  0  0  0  0
  190.1280  176.9400  145.0530 C   0  0  0  0  0  0  0  0  0  0  0  0
  191.1170  176.8170  146.0360 C   0  0  0  0  0  3  0  0  0  0  0  0
  187.2120  177.2880  141.9180 C   0  0  0  0  0  2  0  0  0  0  0  0
  185.7160  178.4740  143.4570 C   0  0  0  0  0  0  0  0  0  0  0  0
  184.4740  178.9050  143.7870 C   0  0  0  0  0  0  0  0  0  0  0  0
  189.9470  176.3870  141.3780 C   0  0  0  0  0  2  0  0  0  0  0  0
  189.6770  178.1070  139.6030 C   0  0  0  0  0  2  0  0  0  0  0  0
  190.5870  177.5980  140.7060 C   0  0  2  0  0  3  0  0  0  0  0  0
  190.9630  177.3970  139.2320 C   0  0  1  0  0  3  0  0  0  0  0  0
  190.6410  176.0190  138.6630 C   0  0  0  0  0  2  0  0  0  0  0  0
  189.9760  176.5510  136.1120 S   0  0  0  0  0  0  0  0  0  0  0  0
  191.0240  175.9610  137.2250 C   0  0  0  0  0  0  0  0  0  0  0  0
  192.2440  175.2970  136.8600 N   0  0  0  0  0  2  0  0  0  0  0  0
  193.5820  175.7870  137.0140 C   0  0  0  0  0  0  0  0  0  0  0  0
  194.2010  175.8610  138.2940 N   0  0  0  0  0  1  0  0  0  0  0  0
  194.4800  176.0680  135.6800 S   0  0  0  0  0  0  0  0  0  0  0  0
  1  9  1  0  0  0  0
  2  3  1  0  0  0  0
  2  5  1  0  0  0  0
  3  7  1  0  0  0  0
  5 14  1  0  0  0  0
  6  1  1  0  0  0  0
  7  4  2  0  0  0  0
  8 13  1  0  0  0  0
  8 12  2  0  0  0  0
 10 19  1  0  0  0  0
 11  4  1  0  0  0  0
 12 16  1  0  0  0  0
 13  2  2  0  0  0  0
 14  1  2  0  0  0  0
 15 11  1  0  0  0  0
 16  5  2  0  0  0  0
 16 17  1  0  0  0  0
 17  6  2  0  0  0  0
 18 10  1  0  0  0  0
 18 13  1  0  0  0  0
 19 20  1  0  0  0  0
 19  3  2  0  0  0  0
 20 15  1  0  0  0  0
 20 11  2  0  0  0  0
 21  8  1  0  0  0  0
 22 23  1  0  0  0  0
 23 21  1  6  0  0  0
 24 25  1  6  0  0  0
 24 22  1  0  0  0  0
 24 23  1  0  0  0  0
 26 27  2  0  0  0  0
 27 25  1  0  0  0  0
 28 29  1  0  0  0  0
 28 27  1  0  0  0  0
 29 30  1  0  0  0  0
 31 29  2  0  0  0  0
M  END
>  <MODEL>
7

>  <REMARK>
 VINA RESULT:      -9.0      2.702      5.305
  Name = 
  6 active torsions:
  status: ('A' for Active; 'I' for Inactive)
    1  A    between atoms: C_1  and  N_24
    2  A    between atoms: C_3  and  C_19
    3  A    between atoms: C_3  and  C_22
    4  A    between atoms: C_9  and  C_23
    5  A    between atoms: C_15  and  C_23
    6  A    between atoms: C_19  and  N_24
                            x       y       z     vdW  Elec       q    Type
                         _______ _______ _______ _____ _____    ______ ____

>  <TORSDO>
F 6

$$$$
=
 OpenBabel10272400213D

 31 36  0  0  1  0  0  0  0  0999 V2000
  190.2610  177.2800  146.3590 C   0  0  0  0  0  0  0  0  0  0  0  0
  187.9130  177.8390  143.4840 C   0  0  0  0  0  0  0  0  0  0  0  0
  186.5680  178.1080  144.0960 C   0  0  0  0  0  0  0  0  0  0  0  0
  184.9870  177.9220  146.1340 C   0  0  0  0  0  3  0  0  0  0  0  0
  189.0860  177.5700  144.2420 C   0  0  0  0  0  0  0  0  0  0  0  0
  191.4570  177.0560  145.6770 C   0  0  0  0  0  3  0  0  0  0  0  0
  186.2500  177.7080  145.4750 C   0  0  0  0  0  3  0  0  0  0  0  0
  189.2660  177.6660  141.4540 C   0  0  0  0  0  0  0  0  0  0  0  0
  190.2360  177.2480  147.7800 N   0  0  0  0  0  1  0  0  0  0  0  0
  185.8630  179.1690  141.8560 C   0  0  0  0  0  2  0  0  0  0  0  0
  184.1300  178.5480  145.2810 C   0  0  0  0  0  0  0  0  0  0  0  0
  190.3610  177.4020  142.2100 N   0  0  0  0  0  0  0  0  0  0  0  0
  188.0250  177.9070  142.0700 C   0  0  0  0  0  0  0  0  0  0  0  0
  189.0870  177.5370  145.6460 C   0  0  0  0  0  3  0  0  0  0  0  0
  183.1610  179.1880  144.4960 C   0  0  0  0  0  2  0  0  0  0  0  0
  190.3090  177.3500  143.5630 C   0  0  0  0  0  0  0  0  0  0  0  0
  191.4810  177.0920  144.2820 C   0  0  0  0  0  3  0  0  0  0  0  0
  186.8040  178.1570  141.2140 C   0  0  0  0  0  2  0  0  0  0  0  0
  185.5840  178.7470  143.2560 C   0  0  0  0  0  0  0  0  0  0  0  0
  184.4110  178.9420  143.9080 C   0  0  0  0  0  0  0  0  0  0  0  0
  189.4210  177.7250  139.9690 C   0  0  0  0  0  2  0  0  0  0  0  0
  190.9300  176.9040  138.1720 C   0  0  0  0  0  2  0  0  0  0  0  0
  190.2570  176.5440  139.4830 C   0  0  2  0  0  3  0  0  0  0  0  0
  189.7830  175.9140  138.1670 C   0  0  1  0  0  3  0  0  0  0  0  0
  188.5510  176.5620  137.5450 C   0  0  0  0  0  2  0  0  0  0  0  0
  188.9270  176.1630  134.9120 S   0  0  0  0  0  0  0  0  0  0  0  0
  188.1540  175.8210  136.3160 C   0  0  0  0  0  0  0  0  0  0  0  0
  187.0410  174.9150  136.3820 N   0  0  0  0  0  2  0  0  0  0  0  0
  187.0170  173.6060  136.9640 C   0  0  0  0  0  0  0  0  0  0  0  0
  185.9050  173.1570  137.7320 N   0  0  0  0  0  1  0  0  0  0  0  0
  188.1910  172.5430  136.5690 S   0  0  0  0  0  0  0  0  0  0  0  0
  1  9  1  0  0  0  0
  2  3  1  0  0  0  0
  2  5  1  0  0  0  0
  3  7  1  0  0  0  0
  5 14  1  0  0  0  0
  6  1  1  0  0  0  0
  7  4  2  0  0  0  0
  8 13  1  0  0  0  0
  8 12  2  0  0  0  0
 10 19  1  0  0  0  0
 11  4  1  0  0  0  0
 12 16  1  0  0  0  0
 13  2  2  0  0  0  0
 14  1  2  0  0  0  0
 15 11  1  0  0  0  0
 16  5  2  0  0  0  0
 16 17  1  0  0  0  0
 17  6  2  0  0  0  0
 18 10  1  0  0  0  0
 18 13  1  0  0  0  0
 19 20  1  0  0  0  0
 19  3  2  0  0  0  0
 20 15  1  0  0  0  0
 20 11  2  0  0  0  0
 21  8  1  0  0  0  0
 22 23  1  0  0  0  0
 23 21  1  6  0  0  0
 24 25  1  6  0  0  0
 24 22  1  0  0  0  0
 24 23  1  0  0  0  0
 26 27  2  0  0  0  0
 27 28  1  0  0  0  0
 27 25  1  0  0  0  0
 28 29  1  0  0  0  0
 29 30  1  0  0  0  0
 31 29  2  0  0  0  0
M  END
>  <MODEL>
8

>  <REMARK>
 VINA RESULT:      -8.9      2.307      4.621
  Name = 
  6 active torsions:
  status: ('A' for Active; 'I' for Inactive)
    1  A    between atoms: C_1  and  N_24
    2  A    between atoms: C_3  and  C_19
    3  A    between atoms: C_3  and  C_22
    4  A    between atoms: C_9  and  C_23
    5  A    between atoms: C_15  and  C_23
    6  A    between atoms: C_19  and  N_24
                            x       y       z     vdW  Elec       q    Type
                         _______ _______ _______ _____ _____    ______ ____

>  <TORSDO>
F 6

$$$$
=
 OpenBabel10272400213D

 31 36  0  0  1  0  0  0  0  0999 V2000
  190.6300  177.5330  141.6200 C   0  0  0  0  0  0  0  0  0  0  0  0
  187.4830  177.9300  143.6280 C   0  0  0  0  0  0  0  0  0  0  0  0
  187.8870  177.7640  145.0650 C   0  0  0  0  0  0  0  0  0  0  0  0
  189.5970  176.8880  146.7960 C   0  0  0  0  0  3  0  0  0  0  0  0
  188.3910  177.8450  142.5380 C   0  0  0  0  0  0  0  0  0  0  0  0
  190.1370  177.7160  140.3280 C   0  0  0  0  0  3  0  0  0  0  0  0
  189.1390  177.0930  145.4460 C   0  0  0  0  0  3  0  0  0  0  0  0
  185.7020  178.4060  142.0200 C   0  0  0  0  0  0  0  0  0  0  0  0
  192.0130  177.2800  141.8240 N   0  0  0  0  0  1  0  0  0  0  0  0
  185.6950  178.9480  145.7230 C   0  0  0  0  0  2  0  0  0  0  0  0
  188.6880  177.4060  147.6670 C   0  0  0  0  0  0  0  0  0  0  0  0
  186.5970  178.3070  141.0060 N   0  0  0  0  0  0  0  0  0  0  0  0
  186.1240  178.2380  143.3510 C   0  0  0  0  0  0  0  0  0  0  0  0
  189.7630  177.5990  142.7140 C   0  0  0  0  0  3  0  0  0  0  0  0
  187.8290  177.9010  148.6590 C   0  0  0  0  0  2  0  0  0  0  0  0
  187.9070  178.0380  141.2210 C   0  0  0  0  0  0  0  0  0  0  0  0
  188.7790  177.9690  140.1290 C   0  0  0  0  0  3  0  0  0  0  0  0
  185.1090  178.3080  144.4700 C   0  0  0  0  0  2  0  0  0  0  0  0
  186.9720  178.2620  146.0630 C   0  0  0  0  0  0  0  0  0  0  0  0
  187.4350  178.0620  147.3220 C   0  0  0  0  0  0  0  0  0  0  0  0
  184.2810  178.7270  141.6910 C   0  0  0  0  0  2  0  0  0  0  0  0
  182.7020  179.3230  139.8650 C   0  0  0  0  0  2  0  0  0  0  0  0
  184.1640  179.1410  140.2270 C   0  0  2  0  0  3  0  0  0  0  0  0
  183.4550  178.1260  139.3220 C   0  0  1  0  0  3  0  0  0  0  0  0
  182.9740  176.8580  140.0210 C   0  0  0  0  0  2  0  0  0  0  0  0
  180.6980  175.4910  139.5920 S   0  0  0  0  0  0  0  0  0  0  0  0
  182.1560  176.0400  139.0840 C   0  0  0  0  0  0  0  0  0  0  0  0
  182.7170  175.6740  137.8130 N   0  0  0  0  0  2  0  0  0  0  0  0
  183.1910  174.3840  137.4090 C   0  0  0  0  0  0  0  0  0  0  0  0
  182.2970  173.3790  136.9420 N   0  0  0  0  0  1  0  0  0  0  0  0
  184.7990  174.1350  137.2860 S   0  0  0  0  0  0  0  0  0  0  0  0
  1  9  1  0  0  0  0
  1 14  1  0  0  0  0
  2  3  1  0  0  0  0
  3  7  2  0  0  0  0
  3 19  1  0  0  0  0
  4 11  2  0  0  0  0
  5 14  2  0  0  0  0
  5  2  1  0  0  0  0
  6  1  2  0  0  0  0
  7  4  1  0  0  0  0
  8 13  1  0  0  0  0
 10 19  1  0  0  0  0
 11 15  1  0  0  0  0
 12 16  1  0  0  0  0
 12  8  2  0  0  0  0
 13  2  2  0  0  0  0
 13 18  1  0  0  0  0
 16  5  1  0  0  0  0
 17  6  1  0  0  0  0
 17 16  2  0  0  0  0
 18 10  1  0  0  0  0
 19 20  2  0  0  0  0
 20 11  1  0  0  0  0
 20 15  1  0  0  0  0
 21  8  1  0  0  0  0
 22 23  1  0  0  0  0
 23 21  1  1  0  0  0
 24 22  1  0  0  0  0
 24 25  1  1  0  0  0
 24 23  1  0  0  0  0
 27 26  2  0  0  0  0
 27 25  1  0  0  0  0
 28 27  1  0  0  0  0
 29 28  1  0  0  0  0
 30 29  1  0  0  0  0
 31 29  2  0  0  0  0
M  END
>  <MODEL>
9

>  <REMARK>
 VINA RESULT:      -8.9      2.808      5.250
  Name = 
  6 active torsions:
  status: ('A' for Active; 'I' for Inactive)
    1  A    between atoms: C_1  and  N_24
    2  A    between atoms: C_3  and  C_19
    3  A    between atoms: C_3  and  C_22
    4  A    between atoms: C_9  and  C_23
    5  A    between atoms: C_15  and  C_23
    6  A    between atoms: C_19  and  N_24
                            x       y       z     vdW  Elec       q    Type
                         _______ _______ _______ _____ _____    ______ ____

>  <TORSDO>
F 6

$$$$
