=
 OpenBabel10272400573D

 27 31  0  0  1  0  0  0  0  0999 V2000
  187.6880  176.6100  142.9130 C   0  0  0  0  0  2  0  0  0  0  0  0
  188.9770  177.5400  141.0240 C   0  0  0  0  0  0  0  0  0  0  0  0
  186.7510  178.6350  140.9360 N   0  0  0  0  0  2  0  0  0  0  0  0
  189.3110  177.9000  136.9270 N   0  0  0  0  0  0  0  0  0  0  0  0
  187.4900  177.3460  135.4950 N   0  0  0  0  0  1  0  0  0  0  0  0
  190.1480  177.0760  140.3080 N   0  0  0  0  0  0  0  0  0  0  0  0
  187.2680  178.0120  137.9400 C   0  0  1  0  0  3  0  0  0  0  0  0
  184.6700  179.4750  143.9040 C   0  0  0  0  0  0  0  0  0  0  0  0
  185.8350  177.6490  138.1360 C   0  0  0  0  0  1  0  0  0  0  0  0
  183.7020  180.3650  144.2260 F   0  0  0  0  0  0  0  0  0  0  0  0
  188.1490  178.2780  138.8930 C   0  0  2  0  0  3  0  0  0  0  0  0
  188.8890  177.2710  142.4270 N   0  0  0  0  0  0  0  0  0  0  0  0
  188.0390  177.7860  136.7310 C   0  0  0  0  0  0  0  0  0  0  0  0
  189.5200  178.3200  138.3080 C   0  0  1  0  0  3  0  0  0  0  0  0
  186.6660  177.6330  143.2320 C   0  0  0  0  0  0  0  0  0  0  0  0
  187.9540  178.1110  140.3410 C   0  0  0  0  0  0  0  0  0  0  0  0
  185.2310  179.4840  142.6250 C   0  0  0  0  0  3  0  0  0  0  0  0
  190.4020  177.3730  139.0640 C   0  0  0  0  0  3  0  0  0  0  0  0
  185.1070  178.5460  144.8490 C   0  0  0  0  0  3  0  0  0  0  0  0
  186.1000  177.6250  144.5120 C   0  0  0  0  0  3  0  0  0  0  0  0
  186.2390  178.5770  142.2780 C   0  0  0  0  0  0  0  0  0  0  0  0
  192.0420  178.1540  145.0900 N   0  0  0  0  0  0  0  0  0  0  0  0
  189.9760  177.5710  143.3290 C   0  0  0  0  0  0  0  0  0  0  0  0
  190.5760  178.8390  143.3340 C   0  0  0  0  0  3  0  0  0  0  0  0
  191.6150  179.1130  144.2250 C   0  0  0  0  0  3  0  0  0  0  0  0
  191.4770  176.9180  145.1150 C   0  0  0  0  0  3  0  0  0  0  0  0
  190.4360  176.6050  144.2380 C   0  0  0  0  0  3  0  0  0  0  0  0
  1 15  1  0  0  0  0
  2 12  1  0  0  0  0
  3 21  1  0  0  0  0
  4 14  1  0  0  0  0
  5 13  1  0  0  0  0
  6  2  1  0  0  0  0
  7  9  1  1  0  0  0
  7 11  1  0  0  0  0
  8 10  1  0  0  0  0
  8 19  1  0  0  0  0
 11 16  1  1  0  0  0
 12  1  1  0  0  0  0
 12 23  1  0  0  0  0
 13  4  2  0  0  0  0
 13  7  1  0  0  0  0
 14 11  1  0  0  0  0
 14 18  1  1  0  0  0
 15 20  1  0  0  0  0
 16  3  1  0  0  0  0
 16  2  2  0  0  0  0
 17  8  2  0  0  0  0
 18  6  2  0  0  0  0
 20 19  2  0  0  0  0
 21 17  1  0  0  0  0
 21 15  2  0  0  0  0
 22 26  1  0  0  0  0
 23 24  2  0  0  0  0
 23 27  1  0  0  0  0
 24 25  1  0  0  0  0
 25 22  2  0  0  0  0
 27 26  2  0  0  0  0
M  END
>  <MODEL>
1

>  <REMARK>
 VINA RESULT:      -9.0      0.000      0.000
  Name = 
  1 active torsions:
  status: ('A' for Active; 'I' for Inactive)
    1  A    between atoms: C_9  and  N_15
                            x       y       z     vdW  Elec       q    Type
                         _______ _______ _______ _____ _____    ______ ____

>  <TORSDO>
F 1

$$$$
=
 OpenBabel10272400573D

 27 31  0  0  1  0  0  0  0  0999 V2000
  190.4950  178.7080  144.0590 C   0  0  0  0  0  2  0  0  0  0  0  0
  188.5640  177.8560  145.3400 C   0  0  0  0  0  0  0  0  0  0  0  0
  188.0020  177.5110  142.9470 N   0  0  0  0  0  2  0  0  0  0  0  0
  184.5550  178.2820  146.2170 N   0  0  0  0  0  0  0  0  0  0  0  0
  183.1400  179.6360  144.8610 N   0  0  0  0  0  1  0  0  0  0  0  0
  188.0980  178.0940  146.6910 N   0  0  0  0  0  0  0  0  0  0  0  0
  185.3140  178.5680  144.0830 C   0  0  1  0  0  3  0  0  0  0  0  0
  190.4630  176.7190  140.2710 C   0  0  0  0  0  0  0  0  0  0  0  0
  185.4580  179.2880  142.7850 C   0  0  0  0  0  1  0  0  0  0  0  0
  190.4640  176.1080  139.0640 F   0  0  0  0  0  0  0  0  0  0  0  0
  186.2490  177.8600  144.6970 C   0  0  2  0  0  3  0  0  0  0  0  0
  189.9760  177.8390  145.1040 N   0  0  0  0  0  0  0  0  0  0  0  0
  184.2750  178.8040  145.0690 C   0  0  0  0  0  0  0  0  0  0  0  0
  185.8030  177.5390  146.0830 C   0  0  1  0  0  3  0  0  0  0  0  0
  190.4550  177.9880  142.7640 C   0  0  0  0  0  0  0  0  0  0  0  0
  187.6690  177.7690  144.3250 C   0  0  0  0  0  0  0  0  0  0  0  0
  189.2790  176.8140  141.0070 C   0  0  0  0  0  3  0  0  0  0  0  0
  186.8480  178.0030  147.0530 C   0  0  0  0  0  3  0  0  0  0  0  0
  191.6450  177.2580  140.7820 C   0  0  0  0  0  3  0  0  0  0  0  0
  191.6390  177.8940  142.0240 C   0  0  0  0  0  3  0  0  0  0  0  0
  189.2620  177.4340  142.2610 C   0  0  0  0  0  0  0  0  0  0  0  0
  192.5740  175.5050  147.4730 N   0  0  0  0  0  0  0  0  0  0  0  0
  190.8730  177.0500  145.9130 C   0  0  0  0  0  0  0  0  0  0  0  0
  191.0200  177.3070  147.2850 C   0  0  0  0  0  3  0  0  0  0  0  0
  191.8810  176.5220  148.0520 C   0  0  0  0  0  3  0  0  0  0  0  0
  192.4500  175.2250  146.1480 C   0  0  0  0  0  3  0  0  0  0  0  0
  191.5980  175.9890  145.3480 C   0  0  0  0  0  3  0  0  0  0  0  0
  1 12  1  0  0  0  0
  2  6  1  0  0  0  0
  3 16  1  0  0  0  0
  5 13  1  0  0  0  0
  6 18  2  0  0  0  0
  7  9  1  1  0  0  0
  7 11  1  0  0  0  0
  7 13  1  0  0  0  0
  8 19  2  0  0  0  0
  8 17  1  0  0  0  0
 10  8  1  0  0  0  0
 11 16  1  1  0  0  0
 11 14  1  0  0  0  0
 12  2  1  0  0  0  0
 12 23  1  0  0  0  0
 13  4  2  0  0  0  0
 14  4  1  0  0  0  0
 14 18  1  1  0  0  0
 15  1  1  0  0  0  0
 16  2  2  0  0  0  0
 17 21  2  0  0  0  0
 19 20  1  0  0  0  0
 20 15  2  0  0  0  0
 21 15  1  0  0  0  0
 21  3  1  0  0  0  0
 22 25  1  0  0  0  0
 23 24  1  0  0  0  0
 24 25  2  0  0  0  0
 26 22  2  0  0  0  0
 27 23  2  0  0  0  0
 27 26  1  0  0  0  0
M  END
>  <MODEL>
2

>  <REMARK>
 VINA RESULT:      -8.7      3.339      6.187
  Name = 
  1 active torsions:
  status: ('A' for Active; 'I' for Inactive)
    1  A    between atoms: C_9  and  N_15
                            x       y       z     vdW  Elec       q    Type
                         _______ _______ _______ _____ _____    ______ ____

>  <TORSDO>
F 1

$$$$
=
 OpenBabel10272400573D

 27 31  0  0  1  0  0  0  0  0999 V2000
  187.3760  176.3470  143.3410 C   0  0  0  0  0  2  0  0  0  0  0  0
  189.0800  177.1060  141.7230 C   0  0  0  0  0  0  0  0  0  0  0  0
  187.0940  178.5470  141.3490 N   0  0  0  0  0  2  0  0  0  0  0  0
  190.1170  177.5110  137.7500 N   0  0  0  0  0  0  0  0  0  0  0  0
  188.4850  177.2960  136.0280 N   0  0  0  0  0  1  0  0  0  0  0  0
  190.2630  176.4770  141.1730 N   0  0  0  0  0  0  0  0  0  0  0  0
  187.9810  177.9250  138.4410 C   0  0  1  0  0  3  0  0  0  0  0  0
  184.7210  179.6360  144.0000 C   0  0  0  0  0  0  0  0  0  0  0  0
  186.4960  177.7940  138.3950 C   0  0  0  0  0  1  0  0  0  0  0  0
  183.8640  180.6620  144.2140 F   0  0  0  0  0  0  0  0  0  0  0  0
  188.7280  178.0220  139.5300 C   0  0  2  0  0  3  0  0  0  0  0  0
  188.7280  176.8180  143.0810 N   0  0  0  0  0  0  0  0  0  0  0  0
  188.8910  177.6100  137.3550 C   0  0  0  0  0  0  0  0  0  0  0  0
  190.1640  177.8570  139.1660 C   0  0  1  0  0  3  0  0  0  0  0  0
  186.4870  177.5140  143.5500 C   0  0  0  0  0  0  0  0  0  0  0  0
  188.2810  177.8510  140.9200 C   0  0  0  0  0  0  0  0  0  0  0  0
  185.4740  179.5870  142.8250 C   0  0  0  0  0  3  0  0  0  0  0  0
  190.7570  176.7610  140.0000 C   0  0  0  0  0  3  0  0  0  0  0  0
  184.8510  178.6250  144.9530 C   0  0  0  0  0  3  0  0  0  0  0  0
  185.7300  177.5640  144.7260 C   0  0  0  0  0  3  0  0  0  0  0  0
  186.3710  178.5390  142.5910 C   0  0  0  0  0  0  0  0  0  0  0  0
  191.5300  177.0700  146.2260 N   0  0  0  0  0  0  0  0  0  0  0  0
  189.6890  176.9150  144.1530 C   0  0  0  0  0  0  0  0  0  0  0  0
  189.3650  177.5670  145.3520 C   0  0  0  0  0  3  0  0  0  0  0  0
  190.3040  177.6370  146.3820 C   0  0  0  0  0  3  0  0  0  0  0  0
  191.8740  176.4250  145.0790 C   0  0  0  0  0  3  0  0  0  0  0  0
  190.9610  176.3350  144.0260 C   0  0  0  0  0  3  0  0  0  0  0  0
  1 15  1  0  0  0  0
  2 12  1  0  0  0  0
  3 21  1  0  0  0  0
  4 14  1  0  0  0  0
  5 13  1  0  0  0  0
  6  2  1  0  0  0  0
  7  9  1  1  0  0  0
  7 11  1  0  0  0  0
  8 10  1  0  0  0  0
  8 19  1  0  0  0  0
 11 16  1  1  0  0  0
 12  1  1  0  0  0  0
 12 23  1  0  0  0  0
 13  4  2  0  0  0  0
 13  7  1  0  0  0  0
 14 11  1  0  0  0  0
 14 18  1  1  0  0  0
 15 20  1  0  0  0  0
 16  3  1  0  0  0  0
 16  2  2  0  0  0  0
 17  8  2  0  0  0  0
 18  6  2  0  0  0  0
 20 19  2  0  0  0  0
 21 17  1  0  0  0  0
 21 15  2  0  0  0  0
 22 25  1  0  0  0  0
 23 24  1  0  0  0  0
 24 25  2  0  0  0  0
 26 22  2  0  0  0  0
 27 23  2  0  0  0  0
 27 26  1  0  0  0  0
M  END
>  <MODEL>
3

>  <REMARK>
 VINA RESULT:      -8.1      1.044      1.115
  Name = 
  1 active torsions:
  status: ('A' for Active; 'I' for Inactive)
    1  A    between atoms: C_9  and  N_15
                            x       y       z     vdW  Elec       q    Type
                         _______ _______ _______ _____ _____    ______ ____

>  <TORSDO>
F 1

$$$$
=
 OpenBabel10272400573D

 27 31  0  0  1  0  0  0  0  0999 V2000
  189.3960  178.9920  142.2260 C   0  0  0  0  0  2  0  0  0  0  0  0
  188.5240  177.7290  140.2930 C   0  0  0  0  0  0  0  0  0  0  0  0
  190.4700  176.4360  141.1320 N   0  0  0  0  0  2  0  0  0  0  0  0
  189.2520  176.3370  136.4770 N   0  0  0  0  0  0  0  0  0  0  0  0
  191.4580  176.3120  135.5800 N   0  0  0  0  0  1  0  0  0  0  0  0
  187.6870  178.1010  139.1710 N   0  0  0  0  0  0  0  0  0  0  0  0
  190.8950  176.2960  138.0610 C   0  0  1  0  0  3  0  0  0  0  0  0
  191.4990  176.2080  144.7010 C   0  0  0  0  0  0  0  0  0  0  0  0
  192.2620  176.5550  138.5970 C   0  0  0  0  0  1  0  0  0  0  0  0
  192.1770  175.3430  145.4920 F   0  0  0  0  0  0  0  0  0  0  0  0
  189.7580  176.3780  138.7350 C   0  0  2  0  0  3  0  0  0  0  0  0
  188.2750  178.3490  141.5590 N   0  0  0  0  0  0  0  0  0  0  0  0
  190.5290  176.2690  136.6570 C   0  0  0  0  0  0  0  0  0  0  0  0
  188.6090  176.3180  137.7870 C   0  0  1  0  0  3  0  0  0  0  0  0
  190.1040  177.9940  143.0610 C   0  0  0  0  0  0  0  0  0  0  0  0
  189.5800  176.9000  140.0980 C   0  0  0  0  0  0  0  0  0  0  0  0
  191.3100  175.9170  143.3480 C   0  0  0  0  0  3  0  0  0  0  0  0
  187.7310  177.5130  138.0070 C   0  0  0  0  0  3  0  0  0  0  0  0
  190.9890  177.3910  145.2360 C   0  0  0  0  0  3  0  0  0  0  0  0
  190.2960  178.2840  144.4170 C   0  0  0  0  0  3  0  0  0  0  0  0
  190.6040  176.7950  142.5170 C   0  0  0  0  0  0  0  0  0  0  0  0
  184.4100  178.5470  143.2420 N   0  0  0  0  0  0  0  0  0  0  0  0
  186.9510  178.4050  142.1310 C   0  0  0  0  0  0  0  0  0  0  0  0
  186.6930  177.8670  143.4020 C   0  0  0  0  0  3  0  0  0  0  0  0
  185.4090  177.9460  143.9430 C   0  0  0  0  0  3  0  0  0  0  0  0
  184.6280  179.0830  142.0120 C   0  0  0  0  0  3  0  0  0  0  0  0
  185.8990  179.0230  141.4370 C   0  0  0  0  0  3  0  0  0  0  0  0
  1 15  1  0  0  0  0
  2 12  1  0  0  0  0
  3 21  1  0  0  0  0
  4 13  2  0  0  0  0
  4 14  1  0  0  0  0
  5 13  1  0  0  0  0
  6  2  1  0  0  0  0
  7  9  1  6  0  0  0
  7 11  1  0  0  0  0
  8 19  1  0  0  0  0
  8 10  1  0  0  0  0
 11 16  1  6  0  0  0
 12 23  1  0  0  0  0
 12  1  1  0  0  0  0
 13  7  1  0  0  0  0
 14 18  1  6  0  0  0
 14 11  1  0  0  0  0
 15 20  1  0  0  0  0
 16  2  2  0  0  0  0
 16  3  1  0  0  0  0
 17  8  2  0  0  0  0
 18  6  2  0  0  0  0
 20 19  2  0  0  0  0
 21 15  2  0  0  0  0
 21 17  1  0  0  0  0
 22 25  1  0  0  0  0
 23 24  1  0  0  0  0
 24 25  2  0  0  0  0
 26 22  2  0  0  0  0
 27 26  1  0  0  0  0
 27 23  2  0  0  0  0
M  END
>  <MODEL>
4

>  <REMARK>
 VINA RESULT:      -8.0      2.457      4.980
  Name = 
  1 active torsions:
  status: ('A' for Active; 'I' for Inactive)
    1  A    between atoms: C_9  and  N_15
                            x       y       z     vdW  Elec       q    Type
                         _______ _______ _______ _____ _____    ______ ____

>  <TORSDO>
F 1

$$$$
=
 OpenBabel10272400573D

 27 31  0  0  1  0  0  0  0  0999 V2000
  186.9920  179.5070  141.2590 C   0  0  0  0  0  2  0  0  0  0  0  0
  188.1580  178.0010  142.8300 C   0  0  0  0  0  0  0  0  0  0  0  0
  185.7440  177.8210  143.3770 N   0  0  0  0  0  2  0  0  0  0  0  0
  189.1070  177.1910  146.7630 N   0  0  0  0  0  0  0  0  0  0  0  0
  187.9520  178.2630  148.5490 N   0  0  0  0  0  1  0  0  0  0  0  0
  189.5310  177.9270  143.2860 N   0  0  0  0  0  0  0  0  0  0  0  0
  187.0260  177.9440  146.2010 C   0  0  1  0  0  3  0  0  0  0  0  0
  182.9730  178.0850  140.9090 C   0  0  0  0  0  0  0  0  0  0  0  0
  185.8350  178.8350  146.3130 C   0  0  0  0  0  1  0  0  0  0  0  0
  181.6940  177.6560  140.7920 F   0  0  0  0  0  0  0  0  0  0  0  0
  187.5350  177.4480  145.0830 C   0  0  2  0  0  3  0  0  0  0  0  0
  187.9140  178.4040  141.4780 N   0  0  0  0  0  0  0  0  0  0  0  0
  188.0410  177.7570  147.2230 C   0  0  0  0  0  0  0  0  0  0  0  0
  188.8680  176.8430  145.3660 C   0  0  1  0  0  3  0  0  0  0  0  0
  185.6130  178.9750  141.1570 C   0  0  0  0  0  0  0  0  0  0  0  0
  187.1460  177.8000  143.7100 C   0  0  0  0  0  0  0  0  0  0  0  0
  183.7210  177.7550  142.0420 C   0  0  0  0  0  3  0  0  0  0  0  0
  189.8850  177.4500  144.4470 C   0  0  0  0  0  3  0  0  0  0  0  0
  183.5440  178.8590  139.8980 C   0  0  0  0  0  3  0  0  0  0  0  0
  184.8610  179.3060  140.0240 C   0  0  0  0  0  3  0  0  0  0  0  0
  185.0470  178.1830  142.1740 C   0  0  0  0  0  0  0  0  0  0  0  0
  189.9600  176.6520  138.2280 N   0  0  0  0  0  0  0  0  0  0  0  0
  188.6060  177.7950  140.3660 C   0  0  0  0  0  0  0  0  0  0  0  0
  188.1450  177.9670  139.0520 C   0  0  0  0  0  3  0  0  0  0  0  0
  188.8380  177.3830  137.9900 C   0  0  0  0  0  3  0  0  0  0  0  0
  190.4360  176.4720  139.4890 C   0  0  0  0  0  3  0  0  0  0  0  0
  189.7710  177.0400  140.5770 C   0  0  0  0  0  3  0  0  0  0  0  0
  1 12  1  0  0  0  0
  2  6  1  0  0  0  0
  2 16  2  0  0  0  0
  3 16  1  0  0  0  0
  4 13  2  0  0  0  0
  6 18  2  0  0  0  0
  7  9  1  6  0  0  0
  7 13  1  0  0  0  0
  8 17  1  0  0  0  0
 10  8  1  0  0  0  0
 11 16  1  6  0  0  0
 11 14  1  0  0  0  0
 11  7  1  0  0  0  0
 12  2  1  0  0  0  0
 13  5  1  0  0  0  0
 14 18  1  6  0  0  0
 14  4  1  0  0  0  0
 15  1  1  0  0  0  0
 15 21  1  0  0  0  0
 17 21  2  0  0  0  0
 19 20  1  0  0  0  0
 19  8  2  0  0  0  0
 20 15  2  0  0  0  0
 21  3  1  0  0  0  0
 22 26  1  0  0  0  0
 23 27  1  0  0  0  0
 23 12  1  0  0  0  0
 24 23  2  0  0  0  0
 25 22  2  0  0  0  0
 25 24  1  0  0  0  0
 26 27  2  0  0  0  0
M  END
>  <MODEL>
5

>  <REMARK>
 VINA RESULT:      -7.8      2.348      6.006
  Name = 
  1 active torsions:
  status: ('A' for Active; 'I' for Inactive)
    1  A    between atoms: C_9  and  N_15
                            x       y       z     vdW  Elec       q    Type
                         _______ _______ _______ _____ _____    ______ ____

>  <TORSDO>
F 1

$$$$
=
 OpenBabel10272400573D

 27 31  0  0  1  0  0  0  0  0999 V2000
  188.2810  179.1320  141.4310 C   0  0  0  0  0  2  0  0  0  0  0  0
  189.7050  177.3870  142.4430 C   0  0  0  0  0  0  0  0  0  0  0  0
  187.6500  177.4800  143.8310 N   0  0  0  0  0  2  0  0  0  0  0  0
  191.8760  176.2000  145.7440 N   0  0  0  0  0  0  0  0  0  0  0  0
  191.6070  177.2880  147.8460 N   0  0  0  0  0  1  0  0  0  0  0  0
  191.1250  177.1080  142.3650 N   0  0  0  0  0  0  0  0  0  0  0  0
  189.8640  177.2480  145.9940 C   0  0  1  0  0  3  0  0  0  0  0  0
  184.2450  178.2610  142.5490 C   0  0  0  0  0  0  0  0  0  0  0  0
  188.9340  178.2740  146.5470 C   0  0  0  0  0  1  0  0  0  0  0  0
  182.9620  178.0070  142.9010 F   0  0  0  0  0  0  0  0  0  0  0  0
  189.8610  176.7680  144.7590 C   0  0  2  0  0  3  0  0  0  0  0  0
  189.0520  177.9080  141.2800 N   0  0  0  0  0  0  0  0  0  0  0  0
  191.1400  176.8650  146.5710 C   0  0  0  0  0  0  0  0  0  0  0  0
  191.1050  175.9800  144.5260 C   0  0  1  0  0  3  0  0  0  0  0  0
  186.8970  178.7880  141.8310 C   0  0  0  0  0  0  0  0  0  0  0  0
  189.0590  177.2580  143.6280 C   0  0  0  0  0  0  0  0  0  0  0  0
  185.2950  177.7630  143.3250 C   0  0  0  0  0  3  0  0  0  0  0  0
  191.7990  176.5130  143.3090 C   0  0  0  0  0  3  0  0  0  0  0  0
  184.5190  179.0220  141.4130 C   0  0  0  0  0  3  0  0  0  0  0  0
  185.8430  179.2880  141.0570 C   0  0  0  0  0  3  0  0  0  0  0  0
  186.6260  178.0080  142.9710 C   0  0  0  0  0  0  0  0  0  0  0  0
  189.5160  176.1360  137.4780 N   0  0  0  0  0  0  0  0  0  0  0  0
  189.2030  177.2920  139.9830 C   0  0  0  0  0  0  0  0  0  0  0  0
  188.2240  177.4560  138.9910 C   0  0  0  0  0  3  0  0  0  0  0  0
  188.3980  176.8650  137.7380 C   0  0  0  0  0  3  0  0  0  0  0  0
  190.4860  175.9640  138.4150 C   0  0  0  0  0  3  0  0  0  0  0  0
  190.3480  176.5390  139.6800 C   0  0  0  0  0  3  0  0  0  0  0  0
  1 15  1  0  0  0  0
  2 16  2  0  0  0  0
  4 13  2  0  0  0  0
  6  2  1  0  0  0  0
  6 18  2  0  0  0  0
  7  9  1  6  0  0  0
  7 13  1  0  0  0  0
  8 10  1  0  0  0  0
  8 17  1  0  0  0  0
 11 16  1  6  0  0  0
 11  7  1  0  0  0  0
 12  1  1  0  0  0  0
 12  2  1  0  0  0  0
 13  5  1  0  0  0  0
 14 18  1  6  0  0  0
 14 11  1  0  0  0  0
 14  4  1  0  0  0  0
 15 21  1  0  0  0  0
 16  3  1  0  0  0  0
 19  8  2  0  0  0  0
 20 19  1  0  0  0  0
 20 15  2  0  0  0  0
 21 17  2  0  0  0  0
 21  3  1  0  0  0  0
 22 25  2  0  0  0  0
 22 26  1  0  0  0  0
 23 12  1  0  0  0  0
 24 23  2  0  0  0  0
 25 24  1  0  0  0  0
 26 27  2  0  0  0  0
 27 23  1  0  0  0  0
M  END
>  <MODEL>
6

>  <REMARK>
 VINA RESULT:      -7.6      1.756      5.911
  Name = 
  1 active torsions:
  status: ('A' for Active; 'I' for Inactive)
    1  A    between atoms: C_9  and  N_15
                            x       y       z     vdW  Elec       q    Type
                         _______ _______ _______ _____ _____    ______ ____

>  <TORSDO>
F 1

$$$$
=
 OpenBabel10272400573D

 27 31  0  0  1  0  0  0  0  0999 V2000
  185.6150  179.9130  142.1400 C   0  0  0  0  0  2  0  0  0  0  0  0
  186.8890  178.3580  140.7080 C   0  0  0  0  0  0  0  0  0  0  0  0
  187.4350  177.7340  143.0480 N   0  0  0  0  0  2  0  0  0  0  0  0
  190.6120  177.0560  139.4970 N   0  0  0  0  0  0  0  0  0  0  0  0
  192.5720  177.6340  140.7210 N   0  0  0  0  0  1  0  0  0  0  0  0
  187.3050  178.4130  139.3220 N   0  0  0  0  0  0  0  0  0  0  0  0
  190.2180  177.5750  141.6850 C   0  0  1  0  0  3  0  0  0  0  0  0
  185.0890  177.9900  145.9250 C   0  0  0  0  0  0  0  0  0  0  0  0
  190.4980  178.2480  142.9860 C   0  0  0  0  0  1  0  0  0  0  0  0
  184.9210  177.4010  147.1330 F   0  0  0  0  0  0  0  0  0  0  0  0
  189.0250  177.3530  141.1550 C   0  0  2  0  0  3  0  0  0  0  0  0
  185.6290  178.9380  141.0620 N   0  0  0  0  0  0  0  0  0  0  0  0
  191.1770  177.3740  140.6140 C   0  0  0  0  0  0  0  0  0  0  0  0
  189.1810  176.9130  139.7390 C   0  0  1  0  0  3  0  0  0  0  0  0
  185.4440  179.2080  143.4320 C   0  0  0  0  0  0  0  0  0  0  0  0
  187.7370  177.8660  141.6450 C   0  0  0  0  0  0  0  0  0  0  0  0
  186.1380  177.5910  145.0920 C   0  0  0  0  0  3  0  0  0  0  0  0
  188.3630  177.8080  138.8570 C   0  0  0  0  0  3  0  0  0  0  0  0
  184.2160  178.9970  145.5120 C   0  0  0  0  0  3  0  0  0  0  0  0
  184.3960  179.6060  144.2690 C   0  0  0  0  0  3  0  0  0  0  0  0
  186.3210  178.1830  143.8370 C   0  0  0  0  0  0  0  0  0  0  0  0
  182.0760  178.0690  138.9560 N   0  0  0  0  0  0  0  0  0  0  0  0
  184.4200  178.6320  140.3350 C   0  0  0  0  0  0  0  0  0  0  0  0
  183.6020  177.5580  140.7190 C   0  0  0  0  0  3  0  0  0  0  0  0
  182.4290  177.2890  140.0120 C   0  0  0  0  0  3  0  0  0  0  0  0
  182.8420  179.1210  138.5620 C   0  0  0  0  0  3  0  0  0  0  0  0
  184.0230  179.4220  139.2440 C   0  0  0  0  0  3  0  0  0  0  0  0
  1 15  1  0  0  0  0
  2 12  1  0  0  0  0
  2 16  2  0  0  0  0
  3 21  1  0  0  0  0
  4 14  1  0  0  0  0
  4 13  2  0  0  0  0
  6  2  1  0  0  0  0
  7  9  1  6  0  0  0
  8 10  1  0  0  0  0
 11 16  1  6  0  0  0
 11  7  1  0  0  0  0
 12  1  1  0  0  0  0
 13  5  1  0  0  0  0
 13  7  1  0  0  0  0
 14 18  1  6  0  0  0
 14 11  1  0  0  0  0
 15 21  2  0  0  0  0
 15 20  1  0  0  0  0
 16  3  1  0  0  0  0
 17  8  2  0  0  0  0
 18  6  2  0  0  0  0
 19  8  1  0  0  0  0
 20 19  2  0  0  0  0
 21 17  1  0  0  0  0
 22 25  1  0  0  0  0
 23 24  1  0  0  0  0
 23 12  1  0  0  0  0
 25 24  2  0  0  0  0
 26 22  2  0  0  0  0
 26 27  1  0  0  0  0
 27 23  2  0  0  0  0
M  END
>  <MODEL>
7

>  <REMARK>
 VINA RESULT:      -7.5      2.165      5.488
  Name = 
  1 active torsions:
  status: ('A' for Active; 'I' for Inactive)
    1  A    between atoms: C_9  and  N_15
                            x       y       z     vdW  Elec       q    Type
                         _______ _______ _______ _____ _____    ______ ____

>  <TORSDO>
F 1

$$$$
=
 OpenBabel10272400573D

 27 31  0  0  1  0  0  0  0  0999 V2000
  190.0070  178.4550  144.4120 C   0  0  0  0  0  2  0  0  0  0  0  0
  188.4120  178.0580  142.5700 C   0  0  0  0  0  0  0  0  0  0  0  0
  190.2450  176.4150  142.2510 N   0  0  0  0  0  2  0  0  0  0  0  0
  187.7710  178.1280  138.4950 N   0  0  0  0  0  0  0  0  0  0  0  0
  189.5930  178.2820  136.9680 N   0  0  0  0  0  1  0  0  0  0  0  0
  187.3760  178.8760  141.9720 N   0  0  0  0  0  0  0  0  0  0  0  0
  189.7570  177.3900  139.3450 C   0  0  1  0  0  3  0  0  0  0  0  0
  192.1750  174.8130  145.0000 C   0  0  0  0  0  0  0  0  0  0  0  0
  191.2430  177.3370  139.4570 C   0  0  0  0  0  1  0  0  0  0  0  0
  192.8780  173.6730  145.1940 F   0  0  0  0  0  0  0  0  0  0  0  0
  188.8900  177.2960  140.3420 C   0  0  2  0  0  3  0  0  0  0  0  0
  188.6470  178.1820  143.9770 N   0  0  0  0  0  0  0  0  0  0  0  0
  189.0130  177.9100  138.2130 C   0  0  0  0  0  0  0  0  0  0  0  0
  187.5300  177.6710  139.8590 C   0  0  1  0  0  3  0  0  0  0  0  0
  190.7260  177.1720  144.5910 C   0  0  0  0  0  0  0  0  0  0  0  0
  189.2010  177.2890  141.7790 C   0  0  0  0  0  0  0  0  0  0  0  0
  191.5640  175.0570  143.7670 C   0  0  0  0  0  3  0  0  0  0  0  0
  186.9830  178.7580  140.7340 C   0  0  0  0  0  3  0  0  0  0  0  0
  192.0610  175.7480  146.0300 C   0  0  0  0  0  3  0  0  0  0  0  0
  191.3410  176.9260  145.8240 C   0  0  0  0  0  3  0  0  0  0  0  0
  190.8250  176.2270  143.5520 C   0  0  0  0  0  0  0  0  0  0  0  0
  185.4950  178.0220  146.7790 N   0  0  0  0  0  0  0  0  0  0  0  0
  187.5700  178.1150  144.9360 C   0  0  0  0  0  0  0  0  0  0  0  0
  187.8360  178.0240  146.3110 C   0  0  0  0  0  3  0  0  0  0  0  0
  186.7800  177.9760  147.2220 C   0  0  0  0  0  3  0  0  0  0  0  0
  185.2030  178.1180  145.4550 C   0  0  0  0  0  3  0  0  0  0  0  0
  186.2320  178.1670  144.5130 C   0  0  0  0  0  3  0  0  0  0  0  0
  1 15  1  0  0  0  0
  2 12  1  0  0  0  0
  3 21  1  0  0  0  0
  4 14  1  0  0  0  0
  5 13  1  0  0  0  0
  6  2  1  0  0  0  0
  7  9  1  1  0  0  0
  7 11  1  0  0  0  0
  8 10  1  0  0  0  0
  8 19  1  0  0  0  0
 11 16  1  1  0  0  0
 12  1  1  0  0  0  0
 12 23  1  0  0  0  0
 13  4  2  0  0  0  0
 13  7  1  0  0  0  0
 14 11  1  0  0  0  0
 14 18  1  1  0  0  0
 15 20  1  0  0  0  0
 16  3  1  0  0  0  0
 16  2  2  0  0  0  0
 17  8  2  0  0  0  0
 18  6  2  0  0  0  0
 20 19  2  0  0  0  0
 21 17  1  0  0  0  0
 21 15  2  0  0  0  0
 22 25  1  0  0  0  0
 23 24  1  0  0  0  0
 24 25  2  0  0  0  0
 26 22  2  0  0  0  0
 27 23  2  0  0  0  0
 27 26  1  0  0  0  0
M  END
>  <MODEL>
8

>  <REMARK>
 VINA RESULT:      -7.4      2.815      5.115
  Name = 
  1 active torsions:
  status: ('A' for Active; 'I' for Inactive)
    1  A    between atoms: C_9  and  N_15
                            x       y       z     vdW  Elec       q    Type
                         _______ _______ _______ _____ _____    ______ ____

>  <TORSDO>
F 1

$$$$
=
 OpenBabel10272400573D

 27 31  0  0  1  0  0  0  0  0999 V2000
  189.9740  175.5280  142.5860 C   0  0  0  0  0  2  0  0  0  0  0  0
  188.7270  177.3850  141.5420 C   0  0  0  0  0  0  0  0  0  0  0  0
  188.6340  177.7910  143.9890 N   0  0  0  0  0  2  0  0  0  0  0  0
  185.0800  179.2640  141.0970 N   0  0  0  0  0  0  0  0  0  0  0  0
  183.2670  178.7880  142.5660 N   0  0  0  0  0  1  0  0  0  0  0  0
  188.1020  177.5450  140.2450 N   0  0  0  0  0  0  0  0  0  0  0  0
  185.7250  178.4460  143.1280 C   0  0  1  0  0  3  0  0  0  0  0  0
  191.3300  176.9140  146.4000 C   0  0  0  0  0  0  0  0  0  0  0  0
  185.5550  177.6630  144.3860 C   0  0  0  0  0  1  0  0  0  0  0  0
  191.7580  177.3310  147.6140 F   0  0  0  0  0  0  0  0  0  0  0  0
  186.8440  178.5830  142.4320 C   0  0  2  0  0  3  0  0  0  0  0  0
  189.9330  176.6180  141.6240 N   0  0  0  0  0  0  0  0  0  0  0  0
  184.6520  178.8870  142.2560 C   0  0  0  0  0  0  0  0  0  0  0  0
  186.5380  179.2020  141.1110 C   0  0  1  0  0  3  0  0  0  0  0  0
  190.4350  176.0510  143.8930 C   0  0  0  0  0  0  0  0  0  0  0  0
  188.1070  177.8620  142.6500 C   0  0  0  0  0  0  0  0  0  0  0  0
  190.2320  177.5320  145.7950 C   0  0  0  0  0  3  0  0  0  0  0  0
  187.0800  178.3240  140.0230 C   0  0  0  0  0  3  0  0  0  0  0  0
  191.9810  175.8640  145.7520 C   0  0  0  0  0  3  0  0  0  0  0  0
  191.5320  175.4320  144.5030 C   0  0  0  0  0  3  0  0  0  0  0  0
  189.7810  177.1200  144.5360 C   0  0  0  0  0  0  0  0  0  0  0  0
  193.2050  177.2870  139.0440 N   0  0  0  0  0  0  0  0  0  0  0  0
  191.0490  176.8590  140.7410 C   0  0  0  0  0  0  0  0  0  0  0  0
  192.2270  177.4550  141.2160 C   0  0  0  0  0  3  0  0  0  0  0  0
  193.3000  177.6640  140.3480 C   0  0  0  0  0  3  0  0  0  0  0  0
  192.0810  176.7010  138.5540 C   0  0  0  0  0  3  0  0  0  0  0  0
  190.9860  176.4750  139.3910 C   0  0  0  0  0  3  0  0  0  0  0  0
  1 15  1  0  0  0  0
  2 12  1  0  0  0  0
  2 16  2  0  0  0  0
  3 21  1  0  0  0  0
  4 14  1  0  0  0  0
  4 13  2  0  0  0  0
  6  2  1  0  0  0  0
  7  9  1  6  0  0  0
  8 10  1  0  0  0  0
 11 16  1  6  0  0  0
 11  7  1  0  0  0  0
 12  1  1  0  0  0  0
 13  5  1  0  0  0  0
 13  7  1  0  0  0  0
 14 18  1  6  0  0  0
 14 11  1  0  0  0  0
 15 20  2  0  0  0  0
 15 21  1  0  0  0  0
 16  3  1  0  0  0  0
 17  8  1  0  0  0  0
 18  6  2  0  0  0  0
 19  8  2  0  0  0  0
 20 19  1  0  0  0  0
 21 17  2  0  0  0  0
 22 25  1  0  0  0  0
 23 24  1  0  0  0  0
 23 12  1  0  0  0  0
 25 24  2  0  0  0  0
 26 22  2  0  0  0  0
 26 27  1  0  0  0  0
 27 23  2  0  0  0  0
M  END
>  <MODEL>
9

>  <REMARK>
 VINA RESULT:      -7.2      2.720      5.262
  Name = 
  1 active torsions:
  status: ('A' for Active; 'I' for Inactive)
    1  A    between atoms: C_9  and  N_15
                            x       y       z     vdW  Elec       q    Type
                         _______ _______ _______ _____ _____    ______ ____

>  <TORSDO>
F 1

$$$$
