=
 OpenBabel10272402013D

 28 31  0  0  1  0  0  0  0  0999 V2000
  186.6470  175.9480  136.1200 C   0  0  2  0  0  0  0  0  0  0  0  0
  186.2180  174.7590  135.2150 C   0  0  2  0  0  3  0  0  0  0  0  0
  187.3750  178.4140  135.7380 C   0  0  0  0  0  2  0  0  0  0  0  0
  183.8430  174.9060  136.0630 C   0  0  1  0  0  3  0  0  0  0  0  0
  184.2210  176.1090  136.9170 C   0  0  0  0  0  2  0  0  0  0  0  0
  188.3400  177.4590  138.4300 C   0  0  2  0  0  3  0  0  0  0  0  0
  185.6890  176.0200  137.3340 C   0  0  0  0  0  2  0  0  0  0  0  0
  188.9820  179.6900  137.7600 O   0  0  0  0  0  1  0  0  0  0  0  0
  189.1370  176.5490  135.7070 C   0  0  1  0  0  0  0  0  0  0  0  0
  188.4180  175.9700  138.0600 C   0  0  0  0  0  2  0  0  0  0  0  0
  190.5810  176.1830  136.0400 C   0  0  0  0  0  1  0  0  0  0  0  0
  188.8510  178.0350  136.0090 C   0  0  2  0  0  3  0  0  0  0  0  0
  188.9490  176.2890  134.3460 O   0  0  0  0  0  1  0  0  0  0  0  0
  182.3960  175.0240  135.6360 C   0  0  0  0  0  1  0  0  0  0  0  0
  189.1810  178.3350  137.4830 C   0  0  2  0  0  3  0  0  0  0  0  0
  186.4910  177.2450  135.2840 C   0  0  0  0  0  2  0  0  0  0  0  0
  188.1440  175.7290  136.5570 C   0  0  1  0  0  3  0  0  0  0  0  0
  184.7350  174.8380  134.8260 C   0  0  0  0  0  2  0  0  0  0  0  0
  189.9450  177.2000  140.3550 C   0  0  0  0  0  3  0  0  0  0  0  0
  187.8280  178.3200  140.7390 C   0  0  0  0  0  0  0  0  0  0  0  0
  189.4060  178.0440  142.5580 C   0  0  0  0  0  0  0  0  0  0  0  0
  188.7140  177.6650  139.8670 C   0  0  0  0  0  0  0  0  0  0  0  0
  188.1770  178.5070  142.0790 C   0  0  0  0  0  3  0  0  0  0  0  0
  186.6010  178.7870  140.2810 O   0  0  0  0  0  1  0  0  0  0  0  0
  189.7400  178.2280  143.8570 F   0  0  0  0  0  0  0  0  0  0  0  0
  190.2900  177.3900  141.6960 C   0  0  0  0  0  3  0  0  0  0  0  0
  186.5140  173.3870  135.8220 C   0  0  0  0  0  2  0  0  0  0  0  0
  186.2200  172.2970  134.8110 C   0  0  0  0  0  1  0  0  0  0  0  0
  1 16  1  6  0  0  0
  1 17  1  0  0  0  0
  1  7  1  0  0  0  0
  2 27  1  1  0  0  0
  2  1  1  0  0  0  0
  4 14  1  6  0  0  0
  4  5  1  0  0  0  0
  5  7  1  0  0  0  0
  6 22  1  1  0  0  0
  9 12  1  0  0  0  0
  9 11  1  1  0  0  0
  9 17  1  0  0  0  0
 10  6  1  0  0  0  0
 12  3  1  1  0  0  0
 12 15  1  0  0  0  0
 13  9  1  0  0  0  0
 15  8  1  1  0  0  0
 15  6  1  0  0  0  0
 16  3  1  0  0  0  0
 17 10  1  1  0  0  0
 18  2  1  0  0  0  0
 18  4  1  0  0  0  0
 19 26  1  0  0  0  0
 20 23  2  0  0  0  0
 21 25  1  0  0  0  0
 22 19  2  0  0  0  0
 22 20  1  0  0  0  0
 23 21  1  0  0  0  0
 24 20  1  0  0  0  0
 26 21  2  0  0  0  0
 28 27  1  0  0  0  0
M  END
>  <MODEL>
1

>  <REMARK>
 VINA RESULT:      -6.3      0.000      0.000
  Name = 
  2 active torsions:
  status: ('A' for Active; 'I' for Inactive)
    1  A    between atoms: C_2  and  C_3
    2  A    between atoms: C_10  and  C_13
                            x       y       z     vdW  Elec       q    Type
                         _______ _______ _______ _____ _____    ______ ____

>  <TORSDO>
F 2

$$$$
=
 OpenBabel10272402013D

 28 31  0  0  1  0  0  0  0  0999 V2000
  187.3880  175.3490  135.9700 C   0  0  2  0  0  0  0  0  0  0  0  0
  187.2210  174.0790  135.0900 C   0  0  2  0  0  3  0  0  0  0  0  0
  187.7460  177.8870  135.5310 C   0  0  0  0  0  2  0  0  0  0  0  0
  184.7960  173.8710  135.7620 C   0  0  1  0  0  3  0  0  0  0  0  0
  184.9140  175.1450  136.5870 C   0  0  0  0  0  2  0  0  0  0  0  0
  188.6420  177.1860  138.3230 C   0  0  2  0  0  3  0  0  0  0  0  0
  186.3420  175.3070  137.1090 C   0  0  0  0  0  2  0  0  0  0  0  0
  188.9740  179.4670  137.6040 O   0  0  0  0  0  1  0  0  0  0  0  0
  189.7770  176.3280  135.7050 C   0  0  1  0  0  0  0  0  0  0  0  0
  188.9800  175.7170  138.0250 C   0  0  0  0  0  2  0  0  0  0  0  0
  191.2300  176.2080  136.1550 C   0  0  0  0  0  1  0  0  0  0  0  0
  189.2380  177.7580  135.9210 C   0  0  2  0  0  3  0  0  0  0  0  0
  189.7360  175.9970  134.3470 O   0  0  0  0  0  1  0  0  0  0  0  0
  183.3850  173.7420  135.2300 C   0  0  0  0  0  1  0  0  0  0  0  0
  189.4040  178.1540  137.4000 C   0  0  2  0  0  3  0  0  0  0  0  0
  187.0940  176.5770  135.0680 C   0  0  0  0  0  2  0  0  0  0  0  0
  188.8640  175.3870  136.5190 C   0  0  1  0  0  3  0  0  0  0  0  0
  185.7790  173.9070  134.5940 C   0  0  0  0  0  2  0  0  0  0  0  0
  187.8500  178.0730  140.5450 C   0  0  0  0  0  3  0  0  0  0  0  0
  190.1110  177.2130  140.3670 C   0  0  0  0  0  0  0  0  0  0  0  0
  189.3020  178.0790  142.4810 C   0  0  0  0  0  0  0  0  0  0  0  0
  188.8690  177.4950  139.7730 C   0  0  0  0  0  0  0  0  0  0  0  0
  190.3220  177.5050  141.7170 C   0  0  0  0  0  3  0  0  0  0  0  0
  191.1380  176.6430  139.6220 O   0  0  0  0  0  1  0  0  0  0  0  0
  189.5110  178.3600  143.7890 F   0  0  0  0  0  0  0  0  0  0  0  0
  188.0660  178.3630  141.8950 C   0  0  0  0  0  3  0  0  0  0  0  0
  187.6830  172.7930  135.7750 C   0  0  0  0  0  2  0  0  0  0  0  0
  188.7360  172.1030  134.9310 C   0  0  0  0  0  1  0  0  0  0  0  0
  1 16  1  6  0  0  0
  1 17  1  0  0  0  0
  1  7  1  0  0  0  0
  2 27  1  1  0  0  0
  2  1  1  0  0  0  0
  4 14  1  6  0  0  0
  4  5  1  0  0  0  0
  5  7  1  0  0  0  0
  6 22  1  1  0  0  0
  9 12  1  0  0  0  0
  9 11  1  1  0  0  0
  9 17  1  0  0  0  0
 10  6  1  0  0  0  0
 12  3  1  1  0  0  0
 12 15  1  0  0  0  0
 13  9  1  0  0  0  0
 15  8  1  6  0  0  0
 15  6  1  0  0  0  0
 16  3  1  0  0  0  0
 17 10  1  1  0  0  0
 18  2  1  0  0  0  0
 18  4  1  0  0  0  0
 19 26  1  0  0  0  0
 20 23  2  0  0  0  0
 21 25  1  0  0  0  0
 22 20  1  0  0  0  0
 22 19  2  0  0  0  0
 23 21  1  0  0  0  0
 24 20  1  0  0  0  0
 26 21  2  0  0  0  0
 28 27  1  0  0  0  0
M  END
>  <MODEL>
2

>  <REMARK>
 VINA RESULT:      -5.5      1.205      1.621
  Name = 
  2 active torsions:
  status: ('A' for Active; 'I' for Inactive)
    1  A    between atoms: C_2  and  C_3
    2  A    between atoms: C_10  and  C_13
                            x       y       z     vdW  Elec       q    Type
                         _______ _______ _______ _____ _____    ______ ____

>  <TORSDO>
F 2

$$$$
=
 OpenBabel10272402013D

 28 31  0  0  1  0  0  0  0  0999 V2000
  189.9260  176.2990  137.2440 C   0  0  2  0  0  0  0  0  0  0  0  0
  191.0240  176.9200  138.1530 C   0  0  2  0  0  3  0  0  0  0  0  0
  188.8940  176.8520  134.9230 C   0  0  0  0  0  2  0  0  0  0  0  0
  192.5530  174.9540  137.7330 C   0  0  1  0  0  3  0  0  0  0  0  0
  191.5200  174.3500  136.7930 C   0  0  0  0  0  2  0  0  0  0  0  0
  187.0030  175.1190  136.5060 C   0  0  2  0  0  3  0  0  0  0  0  0
  190.1110  174.7630  137.2190 C   0  0  0  0  0  2  0  0  0  0  0  0
  186.2420  175.8860  134.3460 O   0  0  0  0  0  1  0  0  0  0  0  0
  187.9010  177.9090  137.0400 C   0  0  1  0  0  0  0  0  0  0  0  0
  187.4890  175.5660  137.8930 C   0  0  0  0  0  2  0  0  0  0  0  0
  186.6230  178.3980  137.7160 C   0  0  0  0  0  1  0  0  0  0  0  0
  187.6230  177.4120  135.6060 C   0  0  2  0  0  3  0  0  0  0  0  0
  188.7920  178.9870  137.0120 O   0  0  0  0  0  1  0  0  0  0  0  0
  193.9420  174.5590  137.2800 C   0  0  0  0  0  1  0  0  0  0  0  0
  186.5490  176.3090  135.6420 C   0  0  2  0  0  3  0  0  0  0  0  0
  190.1460  176.8510  135.8110 C   0  0  0  0  0  2  0  0  0  0  0  0
  188.5160  176.7190  137.8060 C   0  0  1  0  0  3  0  0  0  0  0  0
  192.4340  176.4760  137.7380 C   0  0  0  0  0  2  0  0  0  0  0  0
  184.7160  174.3800  137.2640 C   0  0  0  0  0  3  0  0  0  0  0  0
  186.1470  172.7820  136.1310 C   0  0  0  0  0  0  0  0  0  0  0  0
  183.9390  172.1200  136.8800 C   0  0  0  0  0  0  0  0  0  0  0  0
  185.9330  174.0760  136.6350 C   0  0  0  0  0  0  0  0  0  0  0  0
  185.1500  171.8100  136.2540 C   0  0  0  0  0  3  0  0  0  0  0  0
  187.3450  172.4550  135.5060 O   0  0  0  0  0  1  0  0  0  0  0  0
  182.9750  171.1750  136.9970 F   0  0  0  0  0  0  0  0  0  0  0  0
  183.7220  173.4050  137.3850 C   0  0  0  0  0  3  0  0  0  0  0  0
  190.8190  176.6420  139.6420 C   0  0  0  0  0  2  0  0  0  0  0  0
  191.8360  177.4130  140.4600 C   0  0  0  0  0  1  0  0  0  0  0  0
  1 16  1  6  0  0  0
  1 17  1  0  0  0  0
  1  2  1  0  0  0  0
  2 27  1  1  0  0  0
  3 16  1  0  0  0  0
  4 14  1  6  0  0  0
  4 18  1  0  0  0  0
  5  7  1  0  0  0  0
  5  4  1  0  0  0  0
  6 22  1  1  0  0  0
  6 10  1  0  0  0  0
  7  1  1  0  0  0  0
  9 11  1  1  0  0  0
  9 17  1  0  0  0  0
 12  3  1  1  0  0  0
 12 15  1  0  0  0  0
 12  9  1  0  0  0  0
 13  9  1  0  0  0  0
 15  8  1  6  0  0  0
 15  6  1  0  0  0  0
 17 10  1  6  0  0  0
 18  2  1  0  0  0  0
 19 26  1  0  0  0  0
 20 23  2  0  0  0  0
 20 22  1  0  0  0  0
 21 25  1  0  0  0  0
 21 26  2  0  0  0  0
 22 19  2  0  0  0  0
 23 21  1  0  0  0  0
 24 20  1  0  0  0  0
 27 28  1  0  0  0  0
M  END
>  <MODEL>
3

>  <REMARK>
 VINA RESULT:      -5.4      3.006      6.738
  Name = 
  2 active torsions:
  status: ('A' for Active; 'I' for Inactive)
    1  A    between atoms: C_2  and  C_3
    2  A    between atoms: C_10  and  C_13
                            x       y       z     vdW  Elec       q    Type
                         _______ _______ _______ _____ _____    ______ ____

>  <TORSDO>
F 2

$$$$
=
 OpenBabel10272402013D

 28 31  0  0  1  0  0  0  0  0999 V2000
  184.6760  176.4650  136.6100 C   0  0  2  0  0  0  0  0  0  0  0  0
  183.2910  175.7590  136.5950 C   0  0  2  0  0  3  0  0  0  0  0  0
  186.2090  177.6010  134.8430 C   0  0  0  0  0  2  0  0  0  0  0  0
  182.2480  177.6700  137.8760 C   0  0  1  0  0  3  0  0  0  0  0  0
  183.5790  178.4110  137.8560 C   0  0  0  0  0  2  0  0  0  0  0  0
  187.8320  176.7940  137.2520 C   0  0  2  0  0  3  0  0  0  0  0  0
  184.7380  177.4150  137.8300 C   0  0  0  0  0  2  0  0  0  0  0  0
  189.0310  177.7690  135.3960 O   0  0  0  0  0  1  0  0  0  0  0  0
  186.4140  175.0780  135.2710 C   0  0  1  0  0  0  0  0  0  0  0  0
  186.9230  175.6330  137.6840 C   0  0  0  0  0  2  0  0  0  0  0  0
  187.3700  173.8900  135.3250 C   0  0  0  0  0  1  0  0  0  0  0  0
  187.1450  176.3690  134.8430 C   0  0  2  0  0  3  0  0  0  0  0  0
  185.4140  174.7620  134.3470 O   0  0  0  0  0  1  0  0  0  0  0  0
  181.1120  178.6710  137.8720 C   0  0  0  0  0  1  0  0  0  0  0  0
  188.3220  176.6360  135.8010 C   0  0  2  0  0  3  0  0  0  0  0  0
  184.7770  177.3110  135.3130 C   0  0  0  0  0  2  0  0  0  0  0  0
  185.7990  175.3610  136.6580 C   0  0  1  0  0  3  0  0  0  0  0  0
  182.1320  176.7640  136.6520 C   0  0  0  0  0  2  0  0  0  0  0  0
  190.1850  176.2890  138.0000 C   0  0  0  0  0  3  0  0  0  0  0  0
  188.8230  177.7790  139.3460 C   0  0  0  0  0  0  0  0  0  0  0  0
  191.0920  177.2600  140.0230 C   0  0  0  0  0  0  0  0  0  0  0  0
  188.9700  176.9580  138.2150 C   0  0  0  0  0  0  0  0  0  0  0  0
  189.8840  177.9270  140.2440 C   0  0  0  0  0  3  0  0  0  0  0  0
  187.6280  178.4490  139.5830 O   0  0  0  0  0  1  0  0  0  0  0  0
  192.1170  177.4080  140.8960 F   0  0  0  0  0  0  0  0  0  0  0  0
  191.2430  176.4410  138.9010 C   0  0  0  0  0  3  0  0  0  0  0  0
  183.1200  174.7190  137.7020 C   0  0  0  0  0  2  0  0  0  0  0  0
  182.0090  173.7530  137.3410 C   0  0  0  0  0  1  0  0  0  0  0  0
  1 16  1  6  0  0  0
  1 17  1  0  0  0  0
  1  7  1  0  0  0  0
  2  1  1  0  0  0  0
  2 18  1  0  0  0  0
  2 27  1  1  0  0  0
  3 16  1  0  0  0  0
  4 14  1  6  0  0  0
  5  4  1  0  0  0  0
  6 10  1  0  0  0  0
  6 22  1  1  0  0  0
  7  5  1  0  0  0  0
  9 11  1  1  0  0  0
  9 17  1  0  0  0  0
 12  3  1  1  0  0  0
 12  9  1  0  0  0  0
 12 15  1  0  0  0  0
 13  9  1  0  0  0  0
 15  8  1  6  0  0  0
 15  6  1  0  0  0  0
 17 10  1  1  0  0  0
 18  4  1  0  0  0  0
 19 22  2  0  0  0  0
 19 26  1  0  0  0  0
 20 24  1  0  0  0  0
 20 23  2  0  0  0  0
 21 23  1  0  0  0  0
 21 25  1  0  0  0  0
 22 20  1  0  0  0  0
 26 21  2  0  0  0  0
 28 27  1  0  0  0  0
M  END
>  <MODEL>
4

>  <REMARK>
 VINA RESULT:      -4.9      1.927      2.995
  Name = 
  2 active torsions:
  status: ('A' for Active; 'I' for Inactive)
    1  A    between atoms: C_2  and  C_3
    2  A    between atoms: C_10  and  C_13
                            x       y       z     vdW  Elec       q    Type
                         _______ _______ _______ _____ _____    ______ ____

>  <TORSDO>
F 2

$$$$
=
 OpenBabel10272402013D

 28 31  0  0  1  0  0  0  0  0999 V2000
  182.3940  177.5680  137.6670 C   0  0  2  0  0  0  0  0  0  0  0  0
  181.0910  177.3100  138.4760 C   0  0  2  0  0  3  0  0  0  0  0  0
  183.0060  177.8290  135.1540 C   0  0  0  0  0  2  0  0  0  0  0  0
  181.1470  179.6570  139.4060 C   0  0  1  0  0  3  0  0  0  0  0  0
  182.3910  179.9560  138.5810 C   0  0  0  0  0  2  0  0  0  0  0  0
  185.4570  177.0780  136.7410 C   0  0  2  0  0  3  0  0  0  0  0  0
  183.2060  178.6800  138.3710 C   0  0  0  0  0  2  0  0  0  0  0  0
  185.7150  177.2690  134.3460 O   0  0  0  0  0  1  0  0  0  0  0  0
  182.9870  175.4950  136.2210 C   0  0  1  0  0  0  0  0  0  0  0  0
  184.7100  176.3450  137.8640 C   0  0  0  0  0  2  0  0  0  0  0  0
  183.6370  174.1150  136.2280 C   0  0  0  0  0  1  0  0  0  0  0  0
  183.6060  176.4020  135.1370 C   0  0  2  0  0  3  0  0  0  0  0  0
  181.6240  175.3090  135.9730 O   0  0  0  0  0  1  0  0  0  0  0  0
  180.3380  180.9250  139.5790 C   0  0  0  0  0  1  0  0  0  0  0  0
  185.1280  176.4980  135.3530 C   0  0  2  0  0  3  0  0  0  0  0  0
  181.9720  178.0710  136.2610 C   0  0  0  0  0  2  0  0  0  0  0  0
  183.1970  176.2160  137.5700 C   0  0  1  0  0  3  0  0  0  0  0  0
  180.2940  178.6010  138.7090 C   0  0  0  0  0  2  0  0  0  0  0  0
  187.6330  175.8860  137.1840 C   0  0  0  0  0  3  0  0  0  0  0  0
  187.6230  178.3110  137.0980 C   0  0  0  0  0  0  0  0  0  0  0  0
  189.6890  177.1170  137.5220 C   0  0  0  0  0  0  0  0  0  0  0  0
  186.9330  177.0900  137.0100 C   0  0  0  0  0  0  0  0  0  0  0  0
  188.9970  178.3200  137.3530 C   0  0  0  0  0  3  0  0  0  0  0  0
  186.9510  179.5170  136.9340 O   0  0  0  0  0  1  0  0  0  0  0  0
  191.0210  177.1310  137.7690 F   0  0  0  0  0  0  0  0  0  0  0  0
  189.0070  175.9010  137.4380 C   0  0  0  0  0  3  0  0  0  0  0  0
  181.3280  176.6080  139.8130 C   0  0  0  0  0  2  0  0  0  0  0  0
  180.4630  175.3670  139.9080 C   0  0  0  0  0  1  0  0  0  0  0  0
  1 16  1  6  0  0  0
  1  7  1  0  0  0  0
  1  2  1  0  0  0  0
  2 18  1  0  0  0  0
  2 27  1  1  0  0  0
  3 16  1  0  0  0  0
  4 14  1  6  0  0  0
  5  4  1  0  0  0  0
  6 22  1  1  0  0  0
  6 10  1  0  0  0  0
  7  5  1  0  0  0  0
  9 11  1  1  0  0  0
  9 17  1  0  0  0  0
 12  3  1  1  0  0  0
 12 15  1  0  0  0  0
 12  9  1  0  0  0  0
 13  9  1  0  0  0  0
 15  8  1  6  0  0  0
 15  6  1  0  0  0  0
 17  1  1  0  0  0  0
 17 10  1  6  0  0  0
 18  4  1  0  0  0  0
 19 26  1  0  0  0  0
 20 23  2  0  0  0  0
 21 25  1  0  0  0  0
 22 20  1  0  0  0  0
 22 19  2  0  0  0  0
 23 21  1  0  0  0  0
 24 20  1  0  0  0  0
 26 21  2  0  0  0  0
 27 28  1  0  0  0  0
M  END
>  <MODEL>
5

>  <REMARK>
 VINA RESULT:      -4.8      3.460      5.537
  Name = 
  2 active torsions:
  status: ('A' for Active; 'I' for Inactive)
    1  A    between atoms: C_2  and  C_3
    2  A    between atoms: C_10  and  C_13
                            x       y       z     vdW  Elec       q    Type
                         _______ _______ _______ _____ _____    ______ ____

>  <TORSDO>
F 2

$$$$
=
 OpenBabel10272402013D

 28 31  0  0  1  0  0  0  0  0999 V2000
  184.2910  174.0530  136.3040 C   0  0  2  0  0  0  0  0  0  0  0  0
  185.4450  173.0310  136.1010 C   0  0  2  0  0  3  0  0  0  0  0  0
  182.9930  175.7240  134.7940 C   0  0  0  0  0  2  0  0  0  0  0  0
  183.8570  171.0960  136.4440 C   0  0  1  0  0  3  0  0  0  0  0  0
  182.6980  172.0720  136.5910 C   0  0  0  0  0  2  0  0  0  0  0  0
  182.7310  176.5300  137.6870 C   0  0  2  0  0  3  0  0  0  0  0  0
  183.1920  173.3970  137.1730 C   0  0  0  0  0  2  0  0  0  0  0  0
  181.7170  177.9830  136.0450 O   0  0  0  0  0  1  0  0  0  0  0  0
  185.1540  176.4750  135.9550 C   0  0  1  0  0  0  0  0  0  0  0  0
  184.0510  175.9010  138.1550 C   0  0  0  0  0  2  0  0  0  0  0  0
  185.8850  177.6450  136.6070 C   0  0  0  0  0  1  0  0  0  0  0  0
  183.7790  176.9090  135.4040 C   0  0  2  0  0  3  0  0  0  0  0  0
  185.9660  176.0100  134.9150 O   0  0  0  0  0  1  0  0  0  0  0  0
  183.3560  169.8020  135.8400 C   0  0  0  0  0  1  0  0  0  0  0  0
  182.9440  177.5320  136.5370 C   0  0  2  0  0  3  0  0  0  0  0  0
  183.6990  174.3660  134.9050 C   0  0  0  0  0  2  0  0  0  0  0  0
  184.8840  175.3490  136.9750 C   0  0  1  0  0  3  0  0  0  0  0  0
  184.9370  171.6930  135.5450 C   0  0  0  0  0  2  0  0  0  0  0  0
  182.5730  178.2140  139.5560 C   0  0  0  0  0  3  0  0  0  0  0  0
  180.7430  176.6550  139.2270 C   0  0  0  0  0  0  0  0  0  0  0  0
  180.6410  178.2920  141.0110 C   0  0  0  0  0  0  0  0  0  0  0  0
  182.0020  177.1470  138.8430 C   0  0  0  0  0  0  0  0  0  0  0  0
  180.0680  177.2280  140.3070 C   0  0  0  0  0  3  0  0  0  0  0  0
  180.1590  175.5970  138.5390 O   0  0  0  0  0  1  0  0  0  0  0  0
  179.9820  178.8450  142.0570 F   0  0  0  0  0  0  0  0  0  0  0  0
  181.8930  178.7840  140.6350 C   0  0  0  0  0  3  0  0  0  0  0  0
  186.2710  172.7790  137.3610 C   0  0  0  0  0  2  0  0  0  0  0  0
  187.6880  172.3940  136.9860 C   0  0  0  0  0  1  0  0  0  0  0  0
  1 16  1  6  0  0  0
  1 17  1  0  0  0  0
  1  7  1  0  0  0  0
  2  1  1  0  0  0  0
  2 27  1  1  0  0  0
  3 16  1  0  0  0  0
  4 14  1  6  0  0  0
  4  5  1  0  0  0  0
  5  7  1  0  0  0  0
  6 10  1  0  0  0  0
  6 22  1  1  0  0  0
  9 11  1  1  0  0  0
  9 17  1  0  0  0  0
 12  3  1  1  0  0  0
 12  9  1  0  0  0  0
 12 15  1  0  0  0  0
 13  9  1  0  0  0  0
 15  8  1  6  0  0  0
 15  6  1  0  0  0  0
 17 10  1  1  0  0  0
 18  2  1  0  0  0  0
 18  4  1  0  0  0  0
 19 26  1  0  0  0  0
 20 23  2  0  0  0  0
 21 25  1  0  0  0  0
 22 20  1  0  0  0  0
 22 19  2  0  0  0  0
 23 21  1  0  0  0  0
 24 20  1  0  0  0  0
 26 21  2  0  0  0  0
 28 27  1  0  0  0  0
M  END
>  <MODEL>
6

>  <REMARK>
 VINA RESULT:      -4.5      4.164      5.750
  Name = 
  2 active torsions:
  status: ('A' for Active; 'I' for Inactive)
    1  A    between atoms: C_2  and  C_3
    2  A    between atoms: C_10  and  C_13
                            x       y       z     vdW  Elec       q    Type
                         _______ _______ _______ _____ _____    ______ ____

>  <TORSDO>
F 2

$$$$
=
 OpenBabel10272402013D

 28 31  0  0  1  0  0  0  0  0999 V2000
  195.1190  171.7070  136.0780 C   0  0  2  0  0  0  0  0  0  0  0  0
  195.8800  170.3650  136.2710 C   0  0  2  0  0  3  0  0  0  0  0  0
  195.2740  173.7210  134.4410 C   0  0  0  0  0  2  0  0  0  0  0  0
  193.8630  169.0540  135.5000 C   0  0  1  0  0  3  0  0  0  0  0  0
  193.1130  170.3550  135.2480 C   0  0  0  0  0  2  0  0  0  0  0  0
  193.8460  174.5490  136.9630 C   0  0  2  0  0  3  0  0  0  0  0  0
  193.6000  171.4410  136.2070 C   0  0  0  0  0  2  0  0  0  0  0  0
  194.2380  176.2650  135.3080 O   0  0  0  0  0  1  0  0  0  0  0  0
  196.6810  173.7160  136.5870 C   0  0  1  0  0  0  0  0  0  0  0  0
  194.5200  173.5190  137.8820 C   0  0  0  0  0  2  0  0  0  0  0  0
  197.2850  174.5780  137.6920 C   0  0  0  0  0  1  0  0  0  0  0  0
  195.9490  174.5790  135.5380 C   0  0  2  0  0  3  0  0  0  0  0  0
  197.7340  173.0180  135.9870 O   0  0  0  0  0  1  0  0  0  0  0  0
  193.3890  167.9990  134.5230 C   0  0  0  0  0  1  0  0  0  0  0  0
  194.8740  175.4340  136.2340 C   0  0  2  0  0  3  0  0  0  0  0  0
  195.4180  172.2060  134.6400 C   0  0  0  0  0  2  0  0  0  0  0  0
  195.6360  172.7330  137.1560 C   0  0  1  0  0  3  0  0  0  0  0  0
  195.3640  169.2710  135.3260 C   0  0  0  0  0  2  0  0  0  0  0  0
  193.2690  176.4160  138.5560 C   0  0  0  0  0  3  0  0  0  0  0  0
  191.4750  175.0710  137.6280 C   0  0  0  0  0  0  0  0  0  0  0  0
  190.9730  176.8770  139.1650 C   0  0  0  0  0  0  0  0  0  0  0  0
  192.8460  175.3640  137.7290 C   0  0  0  0  0  0  0  0  0  0  0  0
  190.5450  175.8290  138.3460 C   0  0  0  0  0  3  0  0  0  0  0  0
  191.0310  174.0320  136.8190 O   0  0  0  0  0  1  0  0  0  0  0  0
  190.0680  177.6080  139.8580 F   0  0  0  0  0  0  0  0  0  0  0  0
  192.3350  177.1700  139.2700 C   0  0  0  0  0  3  0  0  0  0  0  0
  195.8600  169.8480  137.7090 C   0  0  0  0  0  2  0  0  0  0  0  0
  196.7840  168.6550  137.8460 C   0  0  0  0  0  1  0  0  0  0  0  0
  1 16  1  6  0  0  0
  1  7  1  0  0  0  0
  1  2  1  0  0  0  0
  1 17  1  0  0  0  0
  2 27  1  1  0  0  0
  3 16  1  0  0  0  0
  4 14  1  6  0  0  0
  5  4  1  0  0  0  0
  5  7  1  0  0  0  0
  6 22  1  1  0  0  0
  6 10  1  0  0  0  0
  9 17  1  0  0  0  0
  9 11  1  1  0  0  0
 12  3  1  6  0  0  0
 12 15  1  0  0  0  0
 12  9  1  0  0  0  0
 13  9  1  0  0  0  0
 15  8  1  6  0  0  0
 15  6  1  0  0  0  0
 17 10  1  6  0  0  0
 18  4  1  0  0  0  0
 18  2  1  0  0  0  0
 19 26  1  0  0  0  0
 20 22  1  0  0  0  0
 20 23  2  0  0  0  0
 21 26  2  0  0  0  0
 21 25  1  0  0  0  0
 22 19  2  0  0  0  0
 23 21  1  0  0  0  0
 24 20  1  0  0  0  0
 27 28  1  0  0  0  0
M  END
>  <MODEL>
7

>  <REMARK>
 VINA RESULT:      -4.5      6.080      8.426
  Name = 
  2 active torsions:
  status: ('A' for Active; 'I' for Inactive)
    1  A    between atoms: C_2  and  C_3
    2  A    between atoms: C_10  and  C_13
                            x       y       z     vdW  Elec       q    Type
                         _______ _______ _______ _____ _____    ______ ____

>  <TORSDO>
F 2

$$$$
=
 OpenBabel10272402013D

 28 31  0  0  1  0  0  0  0  0999 V2000
  182.4430  178.2710  140.5810 C   0  0  2  0  0  0  0  0  0  0  0  0
  181.6090  178.8190  141.7730 C   0  0  2  0  0  3  0  0  0  0  0  0
  183.4610  179.2650  138.4050 C   0  0  0  0  0  2  0  0  0  0  0  0
  183.5700  178.5370  143.3390 C   0  0  1  0  0  3  0  0  0  0  0  0
  184.4280  178.0510  142.1780 C   0  0  0  0  0  2  0  0  0  0  0  0
  183.1700  176.2760  138.1360 C   0  0  2  0  0  3  0  0  0  0  0  0
  183.5580  177.3520  141.1340 C   0  0  0  0  0  2  0  0  0  0  0  0
  183.9840  177.4780  136.2060 O   0  0  0  0  0  1  0  0  0  0  0  0
  181.0580  178.3630  138.3870 C   0  0  1  0  0  0  0  0  0  0  0  0
  181.9980  176.1340  139.1200 C   0  0  0  0  0  2  0  0  0  0  0  0
  179.9900  177.6590  137.5570 C   0  0  0  0  0  1  0  0  0  0  0  0
  182.3400  178.6080  137.5640 C   0  0  2  0  0  3  0  0  0  0  0  0
  180.5170  179.5810  138.8090 O   0  0  0  0  0  1  0  0  0  0  0  0
  184.4430  179.2520  144.3480 C   0  0  0  0  0  1  0  0  0  0  0  0
  182.8560  177.2690  137.0030 C   0  0  2  0  0  3  0  0  0  0  0  0
  183.1020  179.4880  139.8800 C   0  0  0  0  0  2  0  0  0  0  0  0
  181.4740  177.5060  139.6020 C   0  0  1  0  0  3  0  0  0  0  0  0
  182.4920  179.4920  142.8320 C   0  0  0  0  0  2  0  0  0  0  0  0
  182.6170  173.9480  137.3450 C   0  0  0  0  0  3  0  0  0  0  0  0
  184.9390  174.6500  137.3860 C   0  0  0  0  0  0  0  0  0  0  0  0
  184.3550  172.4210  136.6340 C   0  0  0  0  0  0  0  0  0  0  0  0
  183.5810  174.9330  137.6100 C   0  0  0  0  0  0  0  0  0  0  0  0
  185.3200  173.3970  136.8990 C   0  0  0  0  0  3  0  0  0  0  0  0
  185.9130  175.6080  137.6440 O   0  0  0  0  0  1  0  0  0  0  0  0
  184.7290  171.2090  136.1620 F   0  0  0  0  0  0  0  0  0  0  0  0
  183.0040  172.6970  136.8580 C   0  0  0  0  0  3  0  0  0  0  0  0
  180.7250  177.7650  142.4400 C   0  0  0  0  0  2  0  0  0  0  0  0
  179.9830  178.3750  143.6120 C   0  0  0  0  0  1  0  0  0  0  0  0
  1 16  1  6  0  0  0
  1  7  1  0  0  0  0
  1  2  1  0  0  0  0
  2 27  1  1  0  0  0
  2 18  1  0  0  0  0
  3 16  1  0  0  0  0
  4 14  1  1  0  0  0
  5  4  1  0  0  0  0
  6 22  1  6  0  0  0
  6 10  1  0  0  0  0
  7  5  1  0  0  0  0
  9 11  1  6  0  0  0
  9 13  1  0  0  0  0
  9 17  1  0  0  0  0
 12  9  1  0  0  0  0
 12  3  1  1  0  0  0
 15  8  1  1  0  0  0
 15 12  1  0  0  0  0
 15  6  1  0  0  0  0
 17 10  1  6  0  0  0
 17  1  1  0  0  0  0
 18  4  1  0  0  0  0
 19 22  1  0  0  0  0
 20 22  2  0  0  0  0
 20 24  1  0  0  0  0
 21 26  1  0  0  0  0
 21 23  2  0  0  0  0
 23 20  1  0  0  0  0
 25 21  1  0  0  0  0
 26 19  2  0  0  0  0
 27 28  1  0  0  0  0
M  END
>  <MODEL>
8

>  <REMARK>
 VINA RESULT:      -4.5      4.751      8.085
  Name = 
  2 active torsions:
  status: ('A' for Active; 'I' for Inactive)
    1  A    between atoms: C_2  and  C_3
    2  A    between atoms: C_10  and  C_13
                            x       y       z     vdW  Elec       q    Type
                         _______ _______ _______ _____ _____    ______ ____

>  <TORSDO>
F 2

$$$$
=
 OpenBabel10272402013D

 28 31  0  0  1  0  0  0  0  0999 V2000
  187.2520  174.8300  135.9790 C   0  0  2  0  0  0  0  0  0  0  0  0
  188.7070  174.2950  135.8630 C   0  0  2  0  0  3  0  0  0  0  0  0
  185.5040  175.8490  134.3460 C   0  0  0  0  0  2  0  0  0  0  0  0
  187.9200  171.9280  136.2640 C   0  0  1  0  0  3  0  0  0  0  0  0
  186.4790  172.4170  136.3260 C   0  0  0  0  0  2  0  0  0  0  0  0
  184.8340  176.6150  137.1840 C   0  0  2  0  0  3  0  0  0  0  0  0
  186.4290  173.8510  136.8510 C   0  0  0  0  0  2  0  0  0  0  0  0
  183.4360  177.5300  135.4390 O   0  0  0  0  0  1  0  0  0  0  0  0
  187.1870  177.3850  135.5260 C   0  0  1  0  0  0  0  0  0  0  0  0
  186.2700  176.5320  137.7220 C   0  0  0  0  0  2  0  0  0  0  0  0
  187.4100  178.7660  136.1360 C   0  0  0  0  0  1  0  0  0  0  0  0
  185.7750  177.2620  134.9140 C   0  0  2  0  0  3  0  0  0  0  0  0
  188.1580  177.2090  134.5350 O   0  0  0  0  0  1  0  0  0  0  0  0
  187.9540  170.5180  135.7160 C   0  0  0  0  0  1  0  0  0  0  0  0
  184.7190  177.5800  135.9890 C   0  0  2  0  0  3  0  0  0  0  0  0
  186.6510  174.8500  134.5490 C   0  0  0  0  0  2  0  0  0  0  0  0
  187.3000  176.2790  136.5960 C   0  0  1  0  0  3  0  0  0  0  0  0
  188.7480  172.8440  135.3650 C   0  0  0  0  0  2  0  0  0  0  0  0
  183.9460  178.2220  138.9100 C   0  0  0  0  0  3  0  0  0  0  0  0
  182.9130  176.0370  138.7040 C   0  0  0  0  0  0  0  0  0  0  0  0
  182.0960  177.6180  140.3500 C   0  0  0  0  0  0  0  0  0  0  0  0
  183.8790  176.9680  138.2850 C   0  0  0  0  0  0  0  0  0  0  0  0
  182.0260  176.3650  139.7330 C   0  0  0  0  0  3  0  0  0  0  0  0
  182.8290  174.7860  138.1020 O   0  0  0  0  0  1  0  0  0  0  0  0
  181.2350  177.9320  141.3460 F   0  0  0  0  0  0  0  0  0  0  0  0
  183.0570  178.5460  139.9390 C   0  0  0  0  0  3  0  0  0  0  0  0
  189.5100  174.4130  137.1580 C   0  0  0  0  0  2  0  0  0  0  0  0
  190.9470  173.9960  136.9190 C   0  0  0  0  0  1  0  0  0  0  0  0
  1 16  1  6  0  0  0
  1 17  1  0  0  0  0
  1  7  1  0  0  0  0
  2  1  1  0  0  0  0
  2 27  1  1  0  0  0
  3 16  1  0  0  0  0
  4 14  1  6  0  0  0
  4  5  1  0  0  0  0
  5  7  1  0  0  0  0
  6 10  1  0  0  0  0
  6 22  1  1  0  0  0
  9 11  1  1  0  0  0
  9 17  1  0  0  0  0
 12  3  1  1  0  0  0
 12  9  1  0  0  0  0
 12 15  1  0  0  0  0
 13  9  1  0  0  0  0
 15  8  1  6  0  0  0
 15  6  1  0  0  0  0
 17 10  1  1  0  0  0
 18  2  1  0  0  0  0
 18  4  1  0  0  0  0
 19 26  1  0  0  0  0
 20 23  2  0  0  0  0
 21 25  1  0  0  0  0
 22 20  1  0  0  0  0
 22 19  2  0  0  0  0
 23 21  1  0  0  0  0
 24 20  1  0  0  0  0
 26 21  2  0  0  0  0
 28 27  1  0  0  0  0
M  END
>  <MODEL>
9

>  <REMARK>
 VINA RESULT:      -4.3      3.391      4.942
  Name = 
  2 active torsions:
  status: ('A' for Active; 'I' for Inactive)
    1  A    between atoms: C_2  and  C_3
    2  A    between atoms: C_10  and  C_13
                            x       y       z     vdW  Elec       q    Type
                         _______ _______ _______ _____ _____    ______ ____

>  <TORSDO>
F 2

$$$$
