=
 OpenBabel10272413483D

 30 35  0  0  1  0  0  0  0  0999 V2000
  188.0380  178.1220  139.8420 C   0  0  1  0  0  3  0  0  0  0  0  0
  185.9260  178.5600  138.4630 C   0  0  0  0  0  0  0  0  0  0  0  0
  185.7660  177.7080  143.2140 C   0  0  0  0  0  2  0  0  0  0  0  0
  188.4840  177.6470  141.2340 C   0  0  1  0  0  3  0  0  0  0  0  0
  188.4410  177.1430  138.8870 O   0  0  0  0  0  0  0  0  0  0  0  0
  191.8420  176.6370  140.0190 O   0  0  0  0  0  0  0  0  0  0  0  0
  190.6380  178.0430  143.7010 C   0  0  1  0  0  3  0  0  0  0  0  0
  190.6110  176.9080  140.0450 C   0  0  0  0  0  0  0  0  0  0  0  0
  190.0930  175.8680  137.8330 C   0  0  0  0  0  3  0  0  0  0  0  0
  189.3160  178.1940  144.4610 C   0  0  2  0  0  3  0  0  0  0  0  0
  186.8870  177.4210  144.1220 C   0  0  0  0  0  0  0  0  0  0  0  0
  189.7360  176.6210  138.8800 C   0  0  0  0  0  0  0  0  0  0  0  0
  190.0320  177.6050  141.2560 C   0  0  2  0  0  3  0  0  0  0  0  0
  184.6000  178.8540  138.3960 N   0  0  0  0  0  0  0  0  0  0  0  0
  189.4600  177.3000  145.6750 C   0  0  0  0  0  2  0  0  0  0  0  0
  191.6730  177.6350  144.7380 C   0  0  0  0  0  2  0  0  0  0  0  0
  186.8020  178.4420  136.9420 Cl  0  0  0  0  0  0  0  0  0  0  0  0
  186.3970  178.7120  142.2560 C   0  0  1  0  0  3  0  0  0  0  0  0
  183.8470  179.0550  139.5040 C   0  0  0  0  0  3  0  0  0  0  0  0
  186.5560  178.4110  139.7250 C   0  0  0  0  0  0  0  0  0  0  0  0
  187.9280  178.5390  142.3500 C   0  0  1  0  0  3  0  0  0  0  0  0
  186.7450  176.8140  145.2160 O   0  0  0  0  0  0  0  0  0  0  0  0
  188.1430  177.8830  143.6330 N   0  0  0  0  0  0  0  0  0  0  0  0
  190.9280  177.3640  146.0330 C   0  0  0  0  0  2  0  0  0  0  0  0
  190.0890  175.6440  142.9080 C   0  0  0  0  0  1  0  0  0  0  0  0
  184.4330  178.9830  140.7620 C   0  0  0  0  0  3  0  0  0  0  0  0
  185.7900  178.6730  140.8820 C   0  0  0  0  0  0  0  0  0  0  0  0
  190.6300  177.0270  142.5470 C   0  0  2  0  0  3  0  0  0  0  0  0
  191.2700  173.9150  136.8880 C   0  0  0  0  0  1  0  0  0  0  0  0
  191.4280  175.2250  137.6370 C   0  0  0  0  0  2  0  0  0  0  0  0
  1  5  1  6  0  0  0
  1  4  1  0  0  0  0
  2 20  1  0  0  0  0
  3 11  1  0  0  0  0
  4 13  1  0  0  0  0
  4 21  1  0  0  0  0
  6  8  2  0  0  0  0
  7 10  1  0  0  0  0
  7 16  1  0  0  0  0
  8 13  1  0  0  0  0
  9 12  2  0  0  0  0
 10 15  1  0  0  0  0
 11 22  2  0  0  0  0
 12  5  1  0  0  0  0
 12  8  1  0  0  0  0
 13 28  1  0  0  0  0
 14  2  2  0  0  0  0
 14 19  1  0  0  0  0
 15 24  1  0  0  0  0
 16 24  1  0  0  0  0
 17  2  1  0  0  0  0
 18 21  1  0  0  0  0
 18  3  1  0  0  0  0
 19 26  2  0  0  0  0
 20  1  1  0  0  0  0
 20 27  2  0  0  0  0
 21 23  1  0  0  0  0
 23 11  1  0  0  0  0
 23 10  1  0  0  0  0
 26 27  1  0  0  0  0
 27 18  1  0  0  0  0
 28 25  1  0  0  0  0
 28  7  1  0  0  0  0
 29 30  1  0  0  0  0
 30  9  1  0  0  0  0
M  END
>  <MODEL>
1

>  <REMARK>
 VINA RESULT:      -9.0      0.000      0.000
  Name = 
  1 active torsions:
  status: ('A' for Active; 'I' for Inactive)
    1  A    between atoms: C_9  and  C_21
                            x       y       z     vdW  Elec       q    Type
                         _______ _______ _______ _____ _____    ______ ____

>  <TORSDO>
F 1

$$$$
=
 OpenBabel10272413483D

 30 35  0  0  1  0  0  0  0  0999 V2000
  188.9670  176.9920  143.5590 C   0  0  1  0  0  3  0  0  0  0  0  0
  191.1640  176.4210  144.7440 C   0  0  0  0  0  0  0  0  0  0  0  0
  187.5230  178.6430  147.0080 C   0  0  0  0  0  2  0  0  0  0  0  0
  187.6740  177.7980  143.7560 C   0  0  1  0  0  3  0  0  0  0  0  0
  189.7100  177.5920  142.5010 O   0  0  0  0  0  0  0  0  0  0  0  0
  187.0260  178.0030  140.1070 O   0  0  0  0  0  0  0  0  0  0  0  0
  184.4100  177.8920  143.2890 C   0  0  1  0  0  3  0  0  0  0  0  0
  187.6250  177.8980  141.2120 C   0  0  0  0  0  0  0  0  0  0  0  0
  189.9100  178.2970  140.2800 C   0  0  0  0  0  3  0  0  0  0  0  0
  184.4800  178.1280  144.8000 C   0  0  2  0  0  3  0  0  0  0  0  0
  186.2230  179.0500  146.4510 C   0  0  0  0  0  0  0  0  0  0  0  0
  189.1080  177.9320  141.2890 C   0  0  0  0  0  0  0  0  0  0  0  0
  186.8210  177.6610  142.4700 C   0  0  2  0  0  3  0  0  0  0  0  0
  191.8860  176.2780  145.8860 N   0  0  0  0  0  0  0  0  0  0  0  0
  183.5740  179.3170  145.0530 C   0  0  0  0  0  2  0  0  0  0  0  0
  183.0730  178.4620  142.8370 C   0  0  0  0  0  2  0  0  0  0  0  0
  191.9520  175.9820  143.2330 Cl  0  0  0  0  0  0  0  0  0  0  0  0
  187.7760  177.3350  146.2670 C   0  0  1  0  0  3  0  0  0  0  0  0
  191.3520  176.5030  147.1110 C   0  0  0  0  0  3  0  0  0  0  0  0
  189.8160  176.8590  144.8060 C   0  0  0  0  0  0  0  0  0  0  0  0
  186.8980  177.3450  144.9980 C   0  0  1  0  0  3  0  0  0  0  0  0
  185.5180  179.9630  146.9560 O   0  0  0  0  0  0  0  0  0  0  0  0
  185.8530  178.3190  145.2850 N   0  0  0  0  0  0  0  0  0  0  0  0
  182.4690  179.1870  144.0270 C   0  0  0  0  0  2  0  0  0  0  0  0
  185.8020  180.0010  142.7370 C   0  0  0  0  0  1  0  0  0  0  0  0
  190.0170  176.8710  147.2290 C   0  0  0  0  0  3  0  0  0  0  0  0
  189.2380  177.0400  146.0810 C   0  0  0  0  0  0  0  0  0  0  0  0
  185.5460  178.5190  142.4640 C   0  0  2  0  0  3  0  0  0  0  0  0
  189.8070  177.6000  137.9160 C   0  0  0  0  0  1  0  0  0  0  0  0
  189.4620  178.6920  138.9100 C   0  0  0  0  0  2  0  0  0  0  0  0
  1  5  1  6  0  0  0
  1  4  1  0  0  0  0
  1 20  1  0  0  0  0
  2 20  2  0  0  0  0
  2 14  1  0  0  0  0
  4 21  1  0  0  0  0
  6  8  2  0  0  0  0
  7 10  1  0  0  0  0
  8 12  1  0  0  0  0
  8 13  1  0  0  0  0
  9 12  2  0  0  0  0
 10 15  1  0  0  0  0
 10 23  1  0  0  0  0
 11 22  2  0  0  0  0
 11  3  1  0  0  0  0
 12  5  1  0  0  0  0
 13  4  1  0  0  0  0
 14 19  2  0  0  0  0
 16  7  1  0  0  0  0
 16 24  1  0  0  0  0
 17  2  1  0  0  0  0
 18  3  1  0  0  0  0
 19 26  1  0  0  0  0
 20 27  1  0  0  0  0
 21 23  1  0  0  0  0
 21 18  1  0  0  0  0
 23 11  1  0  0  0  0
 24 15  1  0  0  0  0
 27 18  1  0  0  0  0
 27 26  2  0  0  0  0
 28 13  1  0  0  0  0
 28 25  1  0  0  0  0
 28  7  1  0  0  0  0
 29 30  1  0  0  0  0
 30  9  1  0  0  0  0
M  END
>  <MODEL>
2

>  <REMARK>
 VINA RESULT:      -8.8      2.892      6.003
  Name = 
  1 active torsions:
  status: ('A' for Active; 'I' for Inactive)
    1  A    between atoms: C_9  and  C_21
                            x       y       z     vdW  Elec       q    Type
                         _______ _______ _______ _____ _____    ______ ____

>  <TORSDO>
F 1

$$$$
=
 OpenBabel10272413483D

 30 35  0  0  1  0  0  0  0  0999 V2000
  187.6130  178.4130  141.2940 C   0  0  1  0  0  3  0  0  0  0  0  0
  190.0670  177.6860  141.2940 C   0  0  0  0  0  0  0  0  0  0  0  0
  187.0620  176.5960  137.6750 C   0  0  0  0  0  2  0  0  0  0  0  0
  186.2940  178.1820  140.5390 C   0  0  1  0  0  3  0  0  0  0  0  0
  187.4710  177.8870  142.6110 O   0  0  0  0  0  0  0  0  0  0  0  0
  184.2340  179.2900  143.4210 O   0  0  0  0  0  0  0  0  0  0  0  0
  183.5330  179.5560  139.3680 C   0  0  1  0  0  3  0  0  0  0  0  0
  185.1910  178.8280  142.7410 C   0  0  0  0  0  0  0  0  0  0  0  0
  186.3920  177.8160  144.6840 C   0  0  0  0  0  3  0  0  0  0  0  0
  184.0760  178.8980  138.0960 C   0  0  2  0  0  3  0  0  0  0  0  0
  185.6340  176.9260  137.5520 C   0  0  0  0  0  0  0  0  0  0  0  0
  186.3530  178.1750  143.3950 C   0  0  0  0  0  0  0  0  0  0  0  0
  185.1870  179.0080  141.2390 C   0  0  2  0  0  3  0  0  0  0  0  0
  191.1530  177.1960  140.6400 N   0  0  0  0  0  0  0  0  0  0  0  0
  182.8920  178.1610  137.5020 C   0  0  0  0  0  2  0  0  0  0  0  0
  182.0380  179.7290  139.1460 C   0  0  0  0  0  2  0  0  0  0  0  0
  190.2890  178.1710  142.9710 Cl  0  0  0  0  0  0  0  0  0  0  0  0
  187.6040  177.8390  138.3720 C   0  0  1  0  0  3  0  0  0  0  0  0
  191.1190  176.8740  139.3240 C   0  0  0  0  0  3  0  0  0  0  0  0
  188.8340  177.8350  140.6100 C   0  0  0  0  0  0  0  0  0  0  0  0
  186.4120  178.5420  139.0540 C   0  0  1  0  0  3  0  0  0  0  0  0
  184.8420  176.2760  136.8200 O   0  0  0  0  0  0  0  0  0  0  0  0
  185.2390  178.0380  138.3490 N   0  0  0  0  0  0  0  0  0  0  0  0
  181.6910  179.0100  137.8540 C   0  0  0  0  0  2  0  0  0  0  0  0
  183.3570  177.3120  140.6420 C   0  0  0  0  0  1  0  0  0  0  0  0
  189.9520  177.0630  138.5940 C   0  0  0  0  0  3  0  0  0  0  0  0
  188.8060  177.5540  139.2270 C   0  0  0  0  0  0  0  0  0  0  0  0
  183.7770  178.7810  140.6740 C   0  0  2  0  0  3  0  0  0  0  0  0
  185.8480  178.7880  146.8850 C   0  0  0  0  0  1  0  0  0  0  0  0
  185.3040  178.0380  145.6840 C   0  0  0  0  0  2  0  0  0  0  0  0
  1 20  1  6  0  0  0
  1  5  1  0  0  0  0
  2 17  1  0  0  0  0
  3 18  1  0  0  0  0
  4 13  1  0  0  0  0
  4  1  1  0  0  0  0
  5 12  1  0  0  0  0
  7 28  1  0  0  0  0
  8 12  1  0  0  0  0
  8  6  2  0  0  0  0
  9 30  1  0  0  0  0
 10 23  1  0  0  0  0
 10  7  1  0  0  0  0
 11  3  1  0  0  0  0
 11 23  1  0  0  0  0
 12  9  2  0  0  0  0
 13  8  1  0  0  0  0
 14  2  1  0  0  0  0
 15 24  1  0  0  0  0
 15 10  1  0  0  0  0
 16  7  1  0  0  0  0
 18 21  1  0  0  0  0
 18 27  1  0  0  0  0
 19 14  2  0  0  0  0
 20  2  2  0  0  0  0
 21  4  1  0  0  0  0
 22 11  2  0  0  0  0
 23 21  1  0  0  0  0
 24 16  1  0  0  0  0
 25 28  1  0  0  0  0
 26 27  2  0  0  0  0
 26 19  1  0  0  0  0
 27 20  1  0  0  0  0
 28 13  1  0  0  0  0
 30 29  1  0  0  0  0
M  END
>  <MODEL>
3

>  <REMARK>
 VINA RESULT:      -8.4      2.726      7.370
  Name = 
  1 active torsions:
  status: ('A' for Active; 'I' for Inactive)
    1  A    between atoms: C_9  and  C_21
                            x       y       z     vdW  Elec       q    Type
                         _______ _______ _______ _____ _____    ______ ____

>  <TORSDO>
F 1

$$$$
=
 OpenBabel10272413483D

 30 35  0  0  1  0  0  0  0  0999 V2000
  186.3270  178.7880  141.2470 C   0  0  1  0  0  3  0  0  0  0  0  0
  183.8000  179.0490  140.9360 C   0  0  0  0  0  0  0  0  0  0  0  0
  185.7320  177.4610  145.0660 C   0  0  0  0  0  2  0  0  0  0  0  0
  187.3600  178.1920  142.2160 C   0  0  1  0  0  3  0  0  0  0  0  0
  186.3880  178.0560  140.0250 O   0  0  0  0  0  0  0  0  0  0  0  0
  189.9820  177.9970  139.5960 O   0  0  0  0  0  0  0  0  0  0  0  0
  190.2990  178.5820  143.6620 C   0  0  1  0  0  3  0  0  0  0  0  0
  188.8540  178.0370  140.1600 C   0  0  0  0  0  0  0  0  0  0  0  0
  187.5630  177.2740  138.1610 C   0  0  0  0  0  3  0  0  0  0  0  0
  189.4100  178.3760  144.8930 C   0  0  2  0  0  3  0  0  0  0  0  0
  187.1530  177.2420  145.3770 C   0  0  0  0  0  0  0  0  0  0  0  0
  187.6050  177.7810  139.3990 C   0  0  0  0  0  0  0  0  0  0  0  0
  188.7710  178.4250  141.6190 C   0  0  2  0  0  3  0  0  0  0  0  0
  182.5460  179.1090  141.4580 N   0  0  0  0  0  0  0  0  0  0  0  0
  190.1380  177.3450  145.7320 C   0  0  0  0  0  2  0  0  0  0  0  0
  191.7090  178.2100  144.0970 C   0  0  0  0  0  2  0  0  0  0  0  0
  183.9640  179.3250  139.2060 Cl  0  0  0  0  0  0  0  0  0  0  0  0
  185.8000  178.6970  144.1760 C   0  0  1  0  0  3  0  0  0  0  0  0
  182.3110  178.9980  142.7880 C   0  0  0  0  0  3  0  0  0  0  0  0
  184.9120  178.8220  141.7860 C   0  0  0  0  0  0  0  0  0  0  0  0
  187.2380  178.7880  143.6230 C   0  0  1  0  0  3  0  0  0  0  0  0
  187.5440  176.4590  146.2820 O   0  0  0  0  0  0  0  0  0  0  0  0
  188.0360  177.9910  144.5460 N   0  0  0  0  0  0  0  0  0  0  0  0
  191.6070  177.6150  145.4900 C   0  0  0  0  0  2  0  0  0  0  0  0
  189.7100  176.2740  142.6560 C   0  0  0  0  0  1  0  0  0  0  0  0
  183.3750  178.8400  143.6690 C   0  0  0  0  0  3  0  0  0  0  0  0
  184.6800  178.7620  143.1770 C   0  0  0  0  0  0  0  0  0  0  0  0
  189.9090  177.7700  142.4160 C   0  0  2  0  0  3  0  0  0  0  0  0
  188.9570  177.9620  136.2450 C   0  0  0  0  0  1  0  0  0  0  0  0
  188.7500  176.9180  137.3250 C   0  0  0  0  0  2  0  0  0  0  0  0
  1  5  1  6  0  0  0
  1 20  1  0  0  0  0
  1  4  1  0  0  0  0
  2 14  2  0  0  0  0
  2 20  1  0  0  0  0
  3 11  1  0  0  0  0
  4 21  1  0  0  0  0
  6  8  2  0  0  0  0
  7 16  1  0  0  0  0
  7 10  1  0  0  0  0
  8 13  1  0  0  0  0
  9 12  2  0  0  0  0
 10 15  1  0  0  0  0
 11 22  2  0  0  0  0
 12  5  1  0  0  0  0
 12  8  1  0  0  0  0
 13  4  1  0  0  0  0
 13 28  1  0  0  0  0
 14 19  1  0  0  0  0
 16 24  1  0  0  0  0
 17  2  1  0  0  0  0
 18  3  1  0  0  0  0
 19 26  2  0  0  0  0
 20 27  2  0  0  0  0
 21 18  1  0  0  0  0
 21 23  1  0  0  0  0
 23 10  1  0  0  0  0
 23 11  1  0  0  0  0
 24 15  1  0  0  0  0
 27 26  1  0  0  0  0
 27 18  1  0  0  0  0
 28 25  1  0  0  0  0
 28  7  1  0  0  0  0
 29 30  1  0  0  0  0
 30  9  1  0  0  0  0
M  END
>  <MODEL>
4

>  <REMARK>
 VINA RESULT:      -8.1      1.797      2.358
  Name = 
  1 active torsions:
  status: ('A' for Active; 'I' for Inactive)
    1  A    between atoms: C_9  and  C_21
                            x       y       z     vdW  Elec       q    Type
                         _______ _______ _______ _____ _____    ______ ____

>  <TORSDO>
F 1

$$$$
=
 OpenBabel10272413483D

 30 35  0  0  1  0  0  0  0  0999 V2000
  185.8530  178.5310  142.0190 C   0  0  1  0  0  3  0  0  0  0  0  0
  185.6930  178.2790  144.5610 C   0  0  0  0  0  0  0  0  0  0  0  0
  189.4900  176.6670  142.0500 C   0  0  0  0  0  2  0  0  0  0  0  0
  186.6890  178.0600  140.8180 C   0  0  1  0  0  3  0  0  0  0  0  0
  184.5450  177.9780  141.8950 O   0  0  0  0  0  0  0  0  0  0  0  0
  183.9500  178.7410  138.4070 O   0  0  0  0  0  0  0  0  0  0  0  0
  188.0400  178.8980  137.9270 C   0  0  1  0  0  3  0  0  0  0  0  0
  184.5650  178.4720  139.4750 C   0  0  0  0  0  0  0  0  0  0  0  0
  182.5440  177.6910  140.7200 C   0  0  0  0  0  3  0  0  0  0  0  0
  189.2720  178.3620  138.6630 C   0  0  2  0  0  3  0  0  0  0  0  0
  189.7050  176.7230  140.5960 C   0  0  0  0  0  0  0  0  0  0  0  0
  183.8350  178.0460  140.6960 C   0  0  0  0  0  0  0  0  0  0  0  0
  186.0650  178.6580  139.5320 C   0  0  2  0  0  3  0  0  0  0  0  0
  186.2750  178.0070  145.7590 N   0  0  0  0  0  0  0  0  0  0  0  0
  189.9360  177.4200  137.6790 C   0  0  0  0  0  2  0  0  0  0  0  0
  188.3580  178.7880  136.4430 C   0  0  0  0  0  2  0  0  0  0  0  0
  184.0090  178.7860  144.5810 Cl  0  0  0  0  0  0  0  0  0  0  0  0
  188.7670  177.9850  142.3030 C   0  0  1  0  0  3  0  0  0  0  0  0
  187.5890  177.6930  145.8700 C   0  0  0  0  0  3  0  0  0  0  0  0
  186.4560  178.1970  143.3670 C   0  0  0  0  0  0  0  0  0  0  0  0
  188.1650  178.4460  140.9590 C   0  0  1  0  0  3  0  0  0  0  0  0
  190.4820  175.9400  139.9880 O   0  0  0  0  0  0  0  0  0  0  0  0
  188.9400  177.7360  139.9490 N   0  0  0  0  0  0  0  0  0  0  0  0
  189.6650  178.0250  136.3200 C   0  0  0  0  0  2  0  0  0  0  0  0
  186.7680  176.6520  138.0960 C   0  0  0  0  0  1  0  0  0  0  0  0
  188.3920  177.6630  144.7360 C   0  0  0  0  0  3  0  0  0  0  0  0
  187.8360  177.9260  143.4810 C   0  0  0  0  0  0  0  0  0  0  0  0
  186.7170  178.1740  138.2290 C   0  0  2  0  0  3  0  0  0  0  0  0
  181.3650  176.2790  139.0760 C   0  0  0  0  0  1  0  0  0  0  0  0
  181.6160  177.6980  139.5490 C   0  0  0  0  0  2  0  0  0  0  0  0
  1  5  1  1  0  0  0
  1 20  1  0  0  0  0
  2 17  1  0  0  0  0
  2 14  1  0  0  0  0
  3 18  1  0  0  0  0
  4 21  1  0  0  0  0
  4  1  1  0  0  0  0
  6  8  2  0  0  0  0
  7 28  1  0  0  0  0
  7 10  1  0  0  0  0
  8 13  1  0  0  0  0
  8 12  1  0  0  0  0
 10 23  1  0  0  0  0
 11  3  1  0  0  0  0
 12  9  2  0  0  0  0
 12  5  1  0  0  0  0
 13  4  1  0  0  0  0
 14 19  2  0  0  0  0
 15 10  1  0  0  0  0
 16  7  1  0  0  0  0
 18 27  1  0  0  0  0
 20 27  1  0  0  0  0
 20  2  2  0  0  0  0
 21 18  1  0  0  0  0
 22 11  2  0  0  0  0
 23 11  1  0  0  0  0
 23 21  1  0  0  0  0
 24 16  1  0  0  0  0
 24 15  1  0  0  0  0
 25 28  1  0  0  0  0
 26 19  1  0  0  0  0
 27 26  2  0  0  0  0
 28 13  1  0  0  0  0
 29 30  1  0  0  0  0
 30  9  1  0  0  0  0
M  END
>  <MODEL>
5

>  <REMARK>
 VINA RESULT:      -8.0      2.625      6.465
  Name = 
  1 active torsions:
  status: ('A' for Active; 'I' for Inactive)
    1  A    between atoms: C_9  and  C_21
                            x       y       z     vdW  Elec       q    Type
                         _______ _______ _______ _____ _____    ______ ____

>  <TORSDO>
F 1

$$$$
=
 OpenBabel10272413483D

 30 35  0  0  1  0  0  0  0  0999 V2000
  185.5140  178.8530  142.5150 C   0  0  1  0  0  3  0  0  0  0  0  0
  184.4830  178.7910  144.8570 C   0  0  0  0  0  0  0  0  0  0  0  0
  188.6090  176.5150  143.8030 C   0  0  0  0  0  2  0  0  0  0  0  0
  186.6200  178.1960  141.6750 C   0  0  1  0  0  3  0  0  0  0  0  0
  184.2540  178.4780  141.9650 O   0  0  0  0  0  0  0  0  0  0  0  0
  184.9740  179.0870  138.4700 O   0  0  0  0  0  0  0  0  0  0  0  0
  188.9650  178.6500  139.3990 C   0  0  1  0  0  3  0  0  0  0  0  0
  185.1510  178.8060  139.6860 C   0  0  0  0  0  0  0  0  0  0  0  0
  182.7380  178.3920  140.1870 C   0  0  0  0  0  3  0  0  0  0  0  0
  189.7870  178.0010  140.5160 C   0  0  2  0  0  3  0  0  0  0  0  0
  189.3010  176.4460  142.5060 C   0  0  0  0  0  0  0  0  0  0  0  0
  184.0010  178.5640  140.5950 C   0  0  0  0  0  0  0  0  0  0  0  0
  186.5560  178.7880  140.2450 C   0  0  2  0  0  3  0  0  0  0  0  0
  184.5860  178.5210  146.1850 N   0  0  0  0  0  0  0  0  0  0  0  0
  190.5900  176.9140  139.8300 C   0  0  0  0  0  2  0  0  0  0  0  0
  189.7370  178.4020  138.1120 C   0  0  0  0  0  2  0  0  0  0  0  0
  182.9840  179.5240  144.2990 Cl  0  0  0  0  0  0  0  0  0  0  0  0
  188.0500  177.9330  143.7760 C   0  0  1  0  0  3  0  0  0  0  0  0
  185.7240  178.0380  146.7380 C   0  0  0  0  0  3  0  0  0  0  0  0
  185.5770  178.5290  143.9930 C   0  0  0  0  0  0  0  0  0  0  0  0
  188.0060  178.3840  142.3010 C   0  0  1  0  0  3  0  0  0  0  0  0
  190.1080  175.5270  142.2090 O   0  0  0  0  0  0  0  0  0  0  0  0
  188.9560  177.5100  141.6240 N   0  0  0  0  0  0  0  0  0  0  0  0
  190.8800  177.4610  138.4490 C   0  0  0  0  0  2  0  0  0  0  0  0
  187.3860  176.6160  139.1620 C   0  0  0  0  0  1  0  0  0  0  0  0
  186.8450  177.8250  145.9440 C   0  0  0  0  0  3  0  0  0  0  0  0
  186.7830  178.0790  144.5710 C   0  0  0  0  0  0  0  0  0  0  0  0
  187.5240  178.1360  139.2460 C   0  0  2  0  0  3  0  0  0  0  0  0
  181.4740  179.7230  138.5390 C   0  0  0  0  0  1  0  0  0  0  0  0
  182.2640  178.4490  138.7710 C   0  0  0  0  0  2  0  0  0  0  0  0
  1  5  1  6  0  0  0
  1 20  1  0  0  0  0
  2 14  1  0  0  0  0
  4 21  1  0  0  0  0
  4  1  1  0  0  0  0
  6  8  2  0  0  0  0
  7 10  1  0  0  0  0
  8 13  1  0  0  0  0
  8 12  1  0  0  0  0
  9 12  2  0  0  0  0
 10 23  1  0  0  0  0
 11  3  1  0  0  0  0
 12  5  1  0  0  0  0
 13  4  1  0  0  0  0
 14 19  2  0  0  0  0
 15 10  1  0  0  0  0
 16 24  1  0  0  0  0
 16  7  1  0  0  0  0
 17  2  1  0  0  0  0
 18  3  1  0  0  0  0
 18 27  1  0  0  0  0
 20 27  1  0  0  0  0
 20  2  2  0  0  0  0
 21 18  1  0  0  0  0
 22 11  2  0  0  0  0
 23 21  1  0  0  0  0
 23 11  1  0  0  0  0
 24 15  1  0  0  0  0
 25 28  1  0  0  0  0
 26 19  1  0  0  0  0
 27 26  2  0  0  0  0
 28  7  1  0  0  0  0
 28 13  1  0  0  0  0
 29 30  1  0  0  0  0
 30  9  1  0  0  0  0
M  END
>  <MODEL>
6

>  <REMARK>
 VINA RESULT:      -7.5      2.751      5.937
  Name = 
  1 active torsions:
  status: ('A' for Active; 'I' for Inactive)
    1  A    between atoms: C_9  and  C_21
                            x       y       z     vdW  Elec       q    Type
                         _______ _______ _______ _____ _____    ______ ____

>  <TORSDO>
F 1

$$$$
=
 OpenBabel10272413483D

 30 35  0  0  1  0  0  0  0  0999 V2000
  188.8120  177.0890  144.3900 C   0  0  1  0  0  3  0  0  0  0  0  0
  190.1690  177.0040  146.5590 C   0  0  0  0  0  0  0  0  0  0  0  0
  185.9810  179.3870  146.2370 C   0  0  0  0  0  2  0  0  0  0  0  0
  187.6110  177.8070  143.7550 C   0  0  1  0  0  3  0  0  0  0  0  0
  189.9890  177.4800  143.6860 O   0  0  0  0  0  0  0  0  0  0  0  0
  188.7640  177.0810  140.3020 O   0  0  0  0  0  0  0  0  0  0  0  0
  184.9560  177.5120  141.8190 C   0  0  1  0  0  3  0  0  0  0  0  0
  188.7680  177.2940  141.5450 C   0  0  0  0  0  0  0  0  0  0  0  0
  191.2360  177.6490  141.7150 C   0  0  0  0  0  3  0  0  0  0  0  0
  184.3160  178.1060  143.0770 C   0  0  2  0  0  3  0  0  0  0  0  0
  185.1130  179.5380  145.0590 C   0  0  0  0  0  0  0  0  0  0  0  0
  190.0410  177.4690  142.2910 C   0  0  0  0  0  0  0  0  0  0  0  0
  187.4580  177.2960  142.3000 C   0  0  2  0  0  3  0  0  0  0  0  0
  190.2630  177.1990  147.9010 N   0  0  0  0  0  0  0  0  0  0  0  0
  183.4450  179.2400  142.5740 C   0  0  0  0  0  2  0  0  0  0  0  0
  184.0130  177.8430  140.6720 C   0  0  0  0  0  2  0  0  0  0  0  0
  191.5580  176.2860  145.7510 Cl  0  0  0  0  0  0  0  0  0  0  0  0
  186.5020  177.9660  146.0520 C   0  0  1  0  0  3  0  0  0  0  0  0
  189.2250  177.6630  148.6380 C   0  0  0  0  0  3  0  0  0  0  0  0
  188.9680  177.3290  145.8770 C   0  0  0  0  0  0  0  0  0  0  0  0
  186.3250  177.5990  144.5630 C   0  0  1  0  0  3  0  0  0  0  0  0
  184.2900  180.4830  144.9320 O   0  0  0  0  0  0  0  0  0  0  0  0
  185.3060  178.5230  144.0790 N   0  0  0  0  0  0  0  0  0  0  0  0
  182.9490  178.7770  141.2220 C   0  0  0  0  0  2  0  0  0  0  0  0
  186.5260  179.5380  141.4700 C   0  0  0  0  0  1  0  0  0  0  0  0
  188.0070  177.9350  148.0260 C   0  0  0  0  0  3  0  0  0  0  0  0
  187.8660  177.7600  146.6470 C   0  0  0  0  0  0  0  0  0  0  0  0
  186.3710  178.0170  141.4890 C   0  0  2  0  0  3  0  0  0  0  0  0
  192.9440  177.2880  139.9720 C   0  0  0  0  0  1  0  0  0  0  0  0
  191.5010  177.6670  140.2450 C   0  0  0  0  0  2  0  0  0  0  0  0
  1  5  1  6  0  0  0
  1 20  1  0  0  0  0
  2 14  1  0  0  0  0
  4  1  1  0  0  0  0
  4 21  1  0  0  0  0
  6  8  2  0  0  0  0
  7 10  1  0  0  0  0
  8 12  1  0  0  0  0
  8 13  1  0  0  0  0
  9 12  2  0  0  0  0
 10 23  1  0  0  0  0
 11  3  1  0  0  0  0
 12  5  1  0  0  0  0
 13  4  1  0  0  0  0
 14 19  2  0  0  0  0
 15 10  1  0  0  0  0
 16 24  1  0  0  0  0
 16  7  1  0  0  0  0
 17  2  1  0  0  0  0
 18  3  1  0  0  0  0
 18 27  1  0  0  0  0
 20  2  2  0  0  0  0
 20 27  1  0  0  0  0
 21 18  1  0  0  0  0
 22 11  2  0  0  0  0
 23 21  1  0  0  0  0
 23 11  1  0  0  0  0
 24 15  1  0  0  0  0
 25 28  1  0  0  0  0
 26 19  1  0  0  0  0
 27 26  2  0  0  0  0
 28  7  1  0  0  0  0
 28 13  1  0  0  0  0
 29 30  1  0  0  0  0
 30  9  1  0  0  0  0
M  END
>  <MODEL>
7

>  <REMARK>
 VINA RESULT:      -7.5      3.002      6.126
  Name = 
  1 active torsions:
  status: ('A' for Active; 'I' for Inactive)
    1  A    between atoms: C_9  and  C_21
                            x       y       z     vdW  Elec       q    Type
                         _______ _______ _______ _____ _____    ______ ____

>  <TORSDO>
F 1

$$$$
=
 OpenBabel10272413483D

 30 35  0  0  1  0  0  0  0  0999 V2000
  186.9640  178.4430  141.8350 C   0  0  1  0  0  3  0  0  0  0  0  0
  187.3760  178.1640  144.3450 C   0  0  0  0  0  0  0  0  0  0  0  0
  190.3710  176.3330  141.0290 C   0  0  0  0  0  2  0  0  0  0  0  0
  187.4650  177.9340  140.4740 C   0  0  1  0  0  3  0  0  0  0  0  0
  185.6270  177.9830  142.0170 O   0  0  0  0  0  0  0  0  0  0  0  0
  184.3000  178.8370  138.7600 O   0  0  0  0  0  0  0  0  0  0  0  0
  188.1700  178.7200  137.3480 C   0  0  1  0  0  3  0  0  0  0  0  0
  185.1230  178.5110  139.6570 C   0  0  0  0  0  0  0  0  0  0  0  0
  183.3940  177.8510  141.3360 C   0  0  0  0  0  3  0  0  0  0  0  0
  189.4980  178.0910  137.7810 C   0  0  2  0  0  3  0  0  0  0  0  0
  190.2490  176.3960  139.5640 C   0  0  0  0  0  0  0  0  0  0  0  0
  184.6660  178.1170  141.0140 C   0  0  0  0  0  0  0  0  0  0  0  0
  186.6060  178.5920  139.3660 C   0  0  2  0  0  3  0  0  0  0  0  0
  188.1980  177.8350  145.3780 N   0  0  0  0  0  0  0  0  0  0  0  0
  189.8500  177.1190  136.6720 C   0  0  0  0  0  2  0  0  0  0  0  0
  188.1290  178.6110  135.8310 C   0  0  0  0  0  2  0  0  0  0  0  0
  185.7810  178.7850  144.7530 Cl  0  0  0  0  0  0  0  0  0  0  0  0
  189.8190  177.6940  141.4400 C   0  0  1  0  0  3  0  0  0  0  0  0
  189.4760  177.4300  145.1830 C   0  0  0  0  0  3  0  0  0  0  0  0
  187.8360  178.0490  143.0090 C   0  0  0  0  0  0  0  0  0  0  0  0
  188.9580  178.2160  140.2700 C   0  0  1  0  0  3  0  0  0  0  0  0
  190.8080  175.5720  138.7950 O   0  0  0  0  0  0  0  0  0  0  0  0
  189.4280  177.4690  139.1100 N   0  0  0  0  0  0  0  0  0  0  0  0
  189.3160  177.7620  135.4110 C   0  0  0  0  0  2  0  0  0  0  0  0
  186.8170  176.5640  137.8090 C   0  0  0  0  0  1  0  0  0  0  0  0
  189.9930  177.3630  143.8940 C   0  0  0  0  0  3  0  0  0  0  0  0
  189.1830  177.6810  142.8010 C   0  0  0  0  0  0  0  0  0  0  0  0
  186.9050  178.0840  137.9480 C   0  0  2  0  0  3  0  0  0  0  0  0
  181.7920  176.5490  139.9860 C   0  0  0  0  0  1  0  0  0  0  0  0
  182.2240  177.9390  140.4100 C   0  0  0  0  0  2  0  0  0  0  0  0
  1  5  1  1  0  0  0
  1 20  1  0  0  0  0
  2 17  1  0  0  0  0
  2 14  1  0  0  0  0
  3 18  1  0  0  0  0
  4  1  1  0  0  0  0
  6  8  2  0  0  0  0
  7 10  1  0  0  0  0
  7 28  1  0  0  0  0
  8 12  1  0  0  0  0
 10 23  1  0  0  0  0
 11  3  1  0  0  0  0
 12  9  2  0  0  0  0
 12  5  1  0  0  0  0
 13  8  1  0  0  0  0
 13  4  1  0  0  0  0
 15 10  1  0  0  0  0
 16  7  1  0  0  0  0
 18 27  1  0  0  0  0
 19 14  2  0  0  0  0
 20  2  2  0  0  0  0
 21  4  1  0  0  0  0
 21 18  1  0  0  0  0
 22 11  2  0  0  0  0
 23 11  1  0  0  0  0
 23 21  1  0  0  0  0
 24 16  1  0  0  0  0
 24 15  1  0  0  0  0
 25 28  1  0  0  0  0
 26 19  1  0  0  0  0
 27 20  1  0  0  0  0
 27 26  2  0  0  0  0
 28 13  1  0  0  0  0
 29 30  1  0  0  0  0
 30  9  1  0  0  0  0
M  END
>  <MODEL>
8

>  <REMARK>
 VINA RESULT:      -7.2      2.556      6.719
  Name = 
  1 active torsions:
  status: ('A' for Active; 'I' for Inactive)
    1  A    between atoms: C_9  and  C_21
                            x       y       z     vdW  Elec       q    Type
                         _______ _______ _______ _____ _____    ______ ____

>  <TORSDO>
F 1

$$$$
=
 OpenBabel10272413483D

 30 35  0  0  1  0  0  0  0  0999 V2000
  187.4030  177.6660  141.8930 C   0  0  1  0  0  3  0  0  0  0  0  0
  187.3390  178.1940  139.3890 C   0  0  0  0  0  0  0  0  0  0  0  0
  191.4260  178.3860  141.9540 C   0  0  0  0  0  2  0  0  0  0  0  0
  188.3320  177.7570  143.1140 C   0  0  1  0  0  3  0  0  0  0  0  0
  186.3120  178.5620  142.0960 O   0  0  0  0  0  0  0  0  0  0  0  0
  185.5000  177.6770  145.5110 O   0  0  0  0  0  0  0  0  0  0  0  0
  189.3630  176.2920  145.8840 C   0  0  1  0  0  3  0  0  0  0  0  0
  186.1730  177.8560  144.4590 C   0  0  0  0  0  0  0  0  0  0  0  0
  184.4750  179.3060  143.3360 C   0  0  0  0  0  3  0  0  0  0  0  0
  190.7020  176.5130  145.1730 C   0  0  2  0  0  3  0  0  0  0  0  0
  191.6070  178.1320  143.3910 C   0  0  0  0  0  0  0  0  0  0  0  0
  185.6060  178.5900  143.2990 C   0  0  0  0  0  0  0  0  0  0  0  0
  187.5540  177.2470  144.3520 C   0  0  2  0  0  3  0  0  0  0  0  0
  187.9820  178.3980  138.2090 N   0  0  0  0  0  0  0  0  0  0  0  0
  191.6070  177.1240  146.2250 C   0  0  0  0  0  2  0  0  0  0  0  0
  189.6910  176.1630  147.3640 C   0  0  0  0  0  2  0  0  0  0  0  0
  185.5790  178.2040  139.3590 Cl  0  0  0  0  0  0  0  0  0  0  0  0
  190.3510  177.3660  141.5960 C   0  0  1  0  0  3  0  0  0  0  0  0
  189.3300  178.3250  138.0990 C   0  0  0  0  0  3  0  0  0  0  0  0
  188.0840  177.9370  140.5680 C   0  0  0  0  0  0  0  0  0  0  0  0
  189.6330  176.9730  142.9050 C   0  0  1  0  0  3  0  0  0  0  0  0
  192.5750  178.5930  144.0510 O   0  0  0  0  0  0  0  0  0  0  0  0
  190.5760  177.3290  143.9580 N   0  0  0  0  0  0  0  0  0  0  0  0
  191.1630  176.4970  147.5290 C   0  0  0  0  0  2  0  0  0  0  0  0
  188.8040  178.8160  145.9510 C   0  0  0  0  0  1  0  0  0  0  0  0
  190.1010  178.0120  139.2120 C   0  0  0  0  0  3  0  0  0  0  0  0
  189.4850  177.8050  140.4490 C   0  0  0  0  0  0  0  0  0  0  0  0
  188.3110  177.3950  145.6800 C   0  0  2  0  0  3  0  0  0  0  0  0
  182.2440  178.7880  144.2550 C   0  0  0  0  0  1  0  0  0  0  0  0
  183.5790  179.4580  144.5230 C   0  0  0  0  0  2  0  0  0  0  0  0
  1 20  1  6  0  0  0
  1  5  1  0  0  0  0
  1  4  1  0  0  0  0
  2 20  1  0  0  0  0
  3 11  1  0  0  0  0
  4 13  1  0  0  0  0
  5 12  1  0  0  0  0
  7 16  1  0  0  0  0
  8  6  2  0  0  0  0
  9 30  1  0  0  0  0
 10  7  1  0  0  0  0
 10 15  1  0  0  0  0
 11 23  1  0  0  0  0
 11 22  2  0  0  0  0
 12  9  2  0  0  0  0
 12  8  1  0  0  0  0
 13  8  1  0  0  0  0
 13 28  1  0  0  0  0
 14  2  2  0  0  0  0
 15 24  1  0  0  0  0
 16 24  1  0  0  0  0
 17  2  1  0  0  0  0
 18  3  1  0  0  0  0
 18 21  1  0  0  0  0
 19 14  1  0  0  0  0
 19 26  2  0  0  0  0
 21  4  1  0  0  0  0
 21 23  1  0  0  0  0
 23 10  1  0  0  0  0
 26 27  1  0  0  0  0
 27 20  2  0  0  0  0
 27 18  1  0  0  0  0
 28  7  1  0  0  0  0
 28 25  1  0  0  0  0
 29 30  1  0  0  0  0
M  END
>  <MODEL>
9

>  <REMARK>
 VINA RESULT:      -7.1      2.282      5.351
  Name = 
  1 active torsions:
  status: ('A' for Active; 'I' for Inactive)
    1  A    between atoms: C_9  and  C_21
                            x       y       z     vdW  Elec       q    Type
                         _______ _______ _______ _____ _____    ______ ____

>  <TORSDO>
F 1

$$$$
