=
 OpenBabel10272400233D

 31 35  0  0  1  0  0  0  0  0999 V2000
  184.8890  178.7860  144.2670 C   0  0  0  0  0  0  0  0  0  0  0  0
  188.4200  177.5740  143.7740 C   0  0  0  0  0  0  0  0  0  0  0  0
  189.0030  177.4340  145.0690 C   0  0  0  0  0  0  0  0  0  0  0  0
  188.0230  177.4620  138.5250 O   0  0  0  0  0  0  0  0  0  0  0  0
  189.1860  177.1000  138.8500 C   0  0  0  0  0  0  0  0  0  0  0  0
  189.0620  177.8910  147.5620 C   0  0  1  0  0  3  0  0  0  0  0  0
  187.0820  178.0050  143.5270 C   0  0  0  0  0  0  0  0  0  0  0  0
  184.4530  178.8580  142.9450 C   0  0  0  0  0  3  0  0  0  0  0  0
  188.1990  177.6140  146.3380 C   0  0  0  0  0  2  0  0  0  0  0  0
  188.7240  177.3660  141.3520 C   0  0  0  0  0  0  0  0  0  0  0  0
  184.0500  179.1230  145.2770 F   0  0  0  0  0  0  0  0  0  0  0  0
  191.0520  176.7370  144.0440 N   0  0  0  0  0  0  0  0  0  0  0  0
  188.1930  177.8830  148.8010 C   0  0  0  0  0  1  0  0  0  0  0  0
  187.4450  177.7740  141.1600 N   0  0  0  0  0  0  0  0  0  0  0  0
  189.2320  177.2620  142.6540 C   0  0  0  0  0  0  0  0  0  0  0  0
  189.5620  177.0420  140.2340 N   0  0  0  0  0  2  0  0  0  0  0  0
  186.1900  178.3650  144.5530 C   0  0  0  0  0  3  0  0  0  0  0  0
  190.1160  176.8070  147.6720 C   0  0  0  0  0  2  0  0  0  0  0  0
  186.6230  178.0920  142.1880 C   0  0  0  0  0  0  0  0  0  0  0  0
  185.3190  178.5130  141.9090 C   0  0  0  0  0  3  0  0  0  0  0  0
  190.5160  176.8580  142.8340 N   0  0  0  0  0  0  0  0  0  0  0  0
  190.3440  176.9950  145.1690 C   0  0  0  0  0  0  0  0  0  0  0  0
  191.0650  176.9100  146.4870 C   0  0  0  0  0  2  0  0  0  0  0  0
  192.1250  176.0310  135.9080 C   0  0  0  0  0  0  0  0  0  0  0  0
  191.5240  176.6020  138.1770 C   0  0  0  0  0  3  0  0  0  0  0  0
  188.4930  176.6120  136.0390 O   0  0  0  0  0  1  0  0  0  0  0  0
  193.3390  175.5960  134.7240 Cl  0  0  0  0  0  0  0  0  0  0  0  0
  192.4930  176.2540  137.2350 C   0  0  0  0  0  3  0  0  0  0  0  0
  189.8120  176.5000  136.4630 C   0  0  0  0  0  0  0  0  0  0  0  0
  190.1750  176.7300  137.8100 C   0  0  0  0  0  0  0  0  0  0  0  0
  190.7890  176.1540  135.5250 C   0  0  0  0  0  3  0  0  0  0  0  0
  1 17  1  0  0  0  0
  1 11  1  0  0  0  0
  2  3  1  0  0  0  0
  3 22  2  0  0  0  0
  3  9  1  0  0  0  0
  4  5  2  0  0  0  0
  5 16  1  0  0  0  0
  6 18  1  0  0  0  0
  6 13  1  1  0  0  0
  7  2  1  0  0  0  0
  7 17  2  0  0  0  0
  8  1  2  0  0  0  0
  9  6  1  0  0  0  0
 10 15  1  0  0  0  0
 12 22  1  0  0  0  0
 14 10  2  0  0  0  0
 14 19  1  0  0  0  0
 15 21  1  0  0  0  0
 15  2  2  0  0  0  0
 16 10  1  0  0  0  0
 19  7  1  0  0  0  0
 20 19  2  0  0  0  0
 20  8  1  0  0  0  0
 21 12  2  0  0  0  0
 22 23  1  0  0  0  0
 23 18  1  0  0  0  0
 24 28  1  0  0  0  0
 26 29  1  0  0  0  0
 27 24  1  0  0  0  0
 28 25  2  0  0  0  0
 29 30  2  0  0  0  0
 30 25  1  0  0  0  0
 30  5  1  0  0  0  0
 31 24  2  0  0  0  0
 31 29  1  0  0  0  0
M  END
>  <MODEL>
1

>  <REMARK>
 VINA RESULT:     -11.3      0.000      0.000
  Name = 
  1 active torsions:
  status: ('A' for Active; 'I' for Inactive)
    1  A    between atoms: C_9  and  C_22
                            x       y       z     vdW  Elec       q    Type
                         _______ _______ _______ _____ _____    ______ ____

>  <TORSDO>
F 1

$$$$
=
 OpenBabel10272400233D

 31 35  0  0  1  0  0  0  0  0999 V2000
  185.5210  179.0780  143.0430 C   0  0  0  0  0  0  0  0  0  0  0  0
  188.8850  177.4120  143.3390 C   0  0  0  0  0  0  0  0  0  0  0  0
  189.1900  177.3200  144.7300 C   0  0  0  0  0  0  0  0  0  0  0  0
  189.4710  176.8760  138.1340 O   0  0  0  0  0  0  0  0  0  0  0  0
  190.4930  176.4080  138.7060 C   0  0  0  0  0  0  0  0  0  0  0  0
  188.8400  177.9900  147.1510 C   0  0  1  0  0  3  0  0  0  0  0  0
  187.6880  177.9770  142.8050 C   0  0  0  0  0  0  0  0  0  0  0  0
  185.3550  179.0830  141.6590 C   0  0  0  0  0  3  0  0  0  0  0  0
  188.1940  177.7100  145.8010 C   0  0  0  0  0  2  0  0  0  0  0  0
  189.6090  176.9530  141.0440 C   0  0  0  0  0  0  0  0  0  0  0  0
  184.5610  179.6020  143.8430 F   0  0  0  0  0  0  0  0  0  0  0  0
  191.2820  176.2940  144.1790 N   0  0  0  0  0  0  0  0  0  0  0  0
  187.7610  178.1980  148.1910 C   0  0  0  0  0  1  0  0  0  0  0  0
  188.4550  177.4920  140.5760 N   0  0  0  0  0  0  0  0  0  0  0  0
  189.8440  176.9060  142.4250 C   0  0  0  0  0  0  0  0  0  0  0  0
  190.5900  176.4310  140.1370 N   0  0  0  0  0  2  0  0  0  0  0  0
  186.6760  178.5310  143.6070 C   0  0  0  0  0  3  0  0  0  0  0  0
  189.6990  176.8020  147.5370 C   0  0  0  0  0  2  0  0  0  0  0  0
  187.5060  177.9970  141.3980 C   0  0  0  0  0  0  0  0  0  0  0  0
  186.3460  178.5440  140.8400 C   0  0  0  0  0  3  0  0  0  0  0  0
  191.0040  176.3690  142.8820 N   0  0  0  0  0  0  0  0  0  0  0  0
  190.4170  176.7350  145.1220 C   0  0  0  0  0  0  0  0  0  0  0  0
  190.8590  176.6840  146.5600 C   0  0  0  0  0  2  0  0  0  0  0  0
  193.7550  174.8200  136.4100 C   0  0  0  0  0  0  0  0  0  0  0  0
  192.7600  176.5970  137.7100 C   0  0  0  0  0  3  0  0  0  0  0  0
  190.4130  173.7310  137.5020 O   0  0  0  0  0  1  0  0  0  0  0  0
  195.0970  174.1910  135.4780 Cl  0  0  0  0  0  0  0  0  0  0  0  0
  193.8310  176.0970  136.9680 C   0  0  0  0  0  3  0  0  0  0  0  0
  191.5340  174.5370  137.3410 C   0  0  0  0  0  0  0  0  0  0  0  0
  191.6000  175.8300  137.9090 C   0  0  0  0  0  0  0  0  0  0  0  0
  192.6110  174.0440  136.5970 C   0  0  0  0  0  3  0  0  0  0  0  0
  1 17  1  0  0  0  0
  1 11  1  0  0  0  0
  2  3  1  0  0  0  0
  3 22  2  0  0  0  0
  3  9  1  0  0  0  0
  4  5  2  0  0  0  0
  5 16  1  0  0  0  0
  6 18  1  0  0  0  0
  6 13  1  1  0  0  0
  7  2  1  0  0  0  0
  7 17  2  0  0  0  0
  8  1  2  0  0  0  0
  9  6  1  0  0  0  0
 10 15  1  0  0  0  0
 12 22  1  0  0  0  0
 14 10  2  0  0  0  0
 14 19  1  0  0  0  0
 15 21  1  0  0  0  0
 15  2  2  0  0  0  0
 16 10  1  0  0  0  0
 19  7  1  0  0  0  0
 20 19  2  0  0  0  0
 20  8  1  0  0  0  0
 21 12  2  0  0  0  0
 22 23  1  0  0  0  0
 23 18  1  0  0  0  0
 24 31  2  0  0  0  0
 24 28  1  0  0  0  0
 25 30  1  0  0  0  0
 27 24  1  0  0  0  0
 28 25  2  0  0  0  0
 29 26  1  0  0  0  0
 29 30  2  0  0  0  0
 30  5  1  0  0  0  0
 31 29  1  0  0  0  0
M  END
>  <MODEL>
2

>  <REMARK>
 VINA RESULT:     -11.3      1.339      1.524
  Name = 
  1 active torsions:
  status: ('A' for Active; 'I' for Inactive)
    1  A    between atoms: C_9  and  C_22
                            x       y       z     vdW  Elec       q    Type
                         _______ _______ _______ _____ _____    ______ ____

>  <TORSDO>
F 1

$$$$
=
 OpenBabel10272400233D

 31 35  0  0  1  0  0  0  0  0999 V2000
  186.2770  178.1550  146.9130 C   0  0  0  0  0  0  0  0  0  0  0  0
  187.1860  177.9990  143.2620 C   0  0  0  0  0  0  0  0  0  0  0  0
  188.5850  177.7270  143.1860 C   0  0  0  0  0  0  0  0  0  0  0  0
  182.2700  178.9500  141.6350 O   0  0  0  0  0  0  0  0  0  0  0  0
  183.0140  178.8260  140.6240 C   0  0  0  0  0  0  0  0  0  0  0  0
  190.9070  177.6240  144.2010 C   0  0  1  0  0  3  0  0  0  0  0  0
  186.4470  178.1270  144.4760 C   0  0  0  0  0  0  0  0  0  0  0  0
  184.9090  178.4060  146.8290 C   0  0  0  0  0  3  0  0  0  0  0  0
  189.4140  177.4180  144.4150 C   0  0  0  0  0  2  0  0  0  0  0  0
  185.1060  178.4120  142.0360 C   0  0  0  0  0  0  0  0  0  0  0  0
  186.8720  178.0420  148.1250 F   0  0  0  0  0  0  0  0  0  0  0  0
  188.4470  177.8050  140.7970 N   0  0  0  0  0  0  0  0  0  0  0  0
  191.6610  177.1280  145.4150 C   0  0  0  0  0  1  0  0  0  0  0  0
  184.4380  178.5200  143.2120 N   0  0  0  0  0  0  0  0  0  0  0  0
  186.4830  178.1540  142.0400 C   0  0  0  0  0  0  0  0  0  0  0  0
  184.4140  178.5600  140.7880 N   0  0  0  0  0  2  0  0  0  0  0  0
  187.0360  178.0190  145.7480 C   0  0  0  0  0  3  0  0  0  0  0  0
  191.3380  176.8390  142.9770 C   0  0  0  0  0  2  0  0  0  0  0  0
  185.0550  178.3900  144.4100 C   0  0  0  0  0  0  0  0  0  0  0  0
  184.3000  178.5240  145.5800 C   0  0  0  0  0  3  0  0  0  0  0  0
  187.1420  178.0510  140.8570 N   0  0  0  0  0  0  0  0  0  0  0  0
  189.1920  177.6240  141.9130 C   0  0  0  0  0  0  0  0  0  0  0  0
  190.6750  177.4340  141.7430 C   0  0  0  0  0  2  0  0  0  0  0  0
  181.3630  179.2890  136.6870 C   0  0  0  0  0  0  0  0  0  0  0  0
  181.9500  180.1970  138.8480 C   0  0  0  0  0  3  0  0  0  0  0  0
  182.8790  176.6090  138.7030 O   0  0  0  0  0  1  0  0  0  0  0  0
  180.6860  179.4990  135.0870 Cl  0  0  0  0  0  0  0  0  0  0  0  0
  181.4100  180.3670  137.5710 C   0  0  0  0  0  3  0  0  0  0  0  0
  182.3990  177.8660  138.3540 C   0  0  0  0  0  0  0  0  0  0  0  0
  182.4510  178.9510  139.2580 C   0  0  0  0  0  0  0  0  0  0  0  0
  181.8560  178.0440  137.0780 C   0  0  0  0  0  3  0  0  0  0  0  0
  1 11  1  0  0  0  0
  2  7  1  0  0  0  0
  3  2  1  0  0  0  0
  3  9  1  0  0  0  0
  5 16  1  0  0  0  0
  5  4  2  0  0  0  0
  6  9  1  0  0  0  0
  6 13  1  1  0  0  0
  7 17  1  0  0  0  0
  8  1  1  0  0  0  0
 10 15  1  0  0  0  0
 10 14  2  0  0  0  0
 12 21  2  0  0  0  0
 12 22  1  0  0  0  0
 14 19  1  0  0  0  0
 15  2  2  0  0  0  0
 16 10  1  0  0  0  0
 17  1  2  0  0  0  0
 18  6  1  0  0  0  0
 19  7  2  0  0  0  0
 19 20  1  0  0  0  0
 20  8  2  0  0  0  0
 21 15  1  0  0  0  0
 22  3  2  0  0  0  0
 23 22  1  0  0  0  0
 23 18  1  0  0  0  0
 24 31  2  0  0  0  0
 24 28  1  0  0  0  0
 25 30  1  0  0  0  0
 27 24  1  0  0  0  0
 28 25  2  0  0  0  0
 29 26  1  0  0  0  0
 29 30  2  0  0  0  0
 30  5  1  0  0  0  0
 31 29  1  0  0  0  0
M  END
>  <MODEL>
3

>  <REMARK>
 VINA RESULT:     -10.8      4.025      6.133
  Name = 
  1 active torsions:
  status: ('A' for Active; 'I' for Inactive)
    1  A    between atoms: C_9  and  C_22
                            x       y       z     vdW  Elec       q    Type
                         _______ _______ _______ _____ _____    ______ ____

>  <TORSDO>
F 1

$$$$
=
 OpenBabel10272400233D

 31 35  0  0  1  0  0  0  0  0999 V2000
  190.9380  177.1820  143.1770 C   0  0  0  0  0  0  0  0  0  0  0  0
  187.3250  178.0750  143.7520 C   0  0  0  0  0  0  0  0  0  0  0  0
  187.1220  178.1230  145.1640 C   0  0  0  0  0  0  0  0  0  0  0  0
  186.2130  178.3730  138.6150 O   0  0  0  0  0  0  0  0  0  0  0  0
  185.1640  178.6160  139.2700 C   0  0  0  0  0  0  0  0  0  0  0  0
  187.8070  177.5910  147.5470 C   0  0  1  0  0  3  0  0  0  0  0  0
  188.5690  177.7760  143.1200 C   0  0  0  0  0  0  0  0  0  0  0  0
  190.9870  177.1880  141.7840 C   0  0  0  0  0  3  0  0  0  0  0  0
  188.2630  177.9810  146.1480 C   0  0  0  0  0  2  0  0  0  0  0  0
  186.3340  178.3220  141.5260 C   0  0  0  0  0  0  0  0  0  0  0  0
  192.0510  176.8950  143.8930 F   0  0  0  0  0  0  0  0  0  0  0  0
  184.8170  178.6560  144.7900 N   0  0  0  0  0  0  0  0  0  0  0  0
  188.9860  177.6440  148.4930 C   0  0  0  0  0  1  0  0  0  0  0  0
  187.5350  178.0400  140.9630 N   0  0  0  0  0  0  0  0  0  0  0  0
  186.2070  178.3410  142.9210 C   0  0  0  0  0  0  0  0  0  0  0  0
  185.1900  178.5990  140.7050 N   0  0  0  0  0  2  0  0  0  0  0  0
  189.7410  177.4720  143.8350 C   0  0  0  0  0  3  0  0  0  0  0  0
  186.7420  178.5700  148.0040 C   0  0  0  0  0  2  0  0  0  0  0  0
  188.6360  177.7710  141.7030 C   0  0  0  0  0  0  0  0  0  0  0  0
  189.8380  177.4800  141.0500 C   0  0  0  0  0  3  0  0  0  0  0  0
  184.9980  178.6200  143.4740 N   0  0  0  0  0  0  0  0  0  0  0  0
  185.8320  178.4330  145.6570 C   0  0  0  0  0  0  0  0  0  0  0  0
  185.5090  178.4120  147.1270 C   0  0  0  0  0  2  0  0  0  0  0  0
  181.4830  179.5930  137.2870 C   0  0  0  0  0  0  0  0  0  0  0  0
  183.2460  180.1360  138.8470 C   0  0  0  0  0  3  0  0  0  0  0  0
  183.9090  176.8250  137.3110 O   0  0  0  0  0  1  0  0  0  0  0  0
  179.9820  180.0110  136.4890 Cl  0  0  0  0  0  0  0  0  0  0  0  0
  182.0490  180.4710  138.2120 C   0  0  0  0  0  3  0  0  0  0  0  0
  183.3140  178.0410  137.6290 C   0  0  0  0  0  0  0  0  0  0  0  0
  183.8950  178.9230  138.5680 C   0  0  0  0  0  0  0  0  0  0  0  0
  182.1140  178.3830  136.9970 C   0  0  0  0  0  3  0  0  0  0  0  0
  1 17  1  0  0  0  0
  1 11  1  0  0  0  0
  2  3  1  0  0  0  0
  3 22  2  0  0  0  0
  3  9  1  0  0  0  0
  4  5  2  0  0  0  0
  5 16  1  0  0  0  0
  6 18  1  0  0  0  0
  6 13  1  1  0  0  0
  7  2  1  0  0  0  0
  7 17  2  0  0  0  0
  8  1  2  0  0  0  0
  9  6  1  0  0  0  0
 10 15  1  0  0  0  0
 12 22  1  0  0  0  0
 14 10  2  0  0  0  0
 14 19  1  0  0  0  0
 15 21  1  0  0  0  0
 15  2  2  0  0  0  0
 16 10  1  0  0  0  0
 19  7  1  0  0  0  0
 20 19  2  0  0  0  0
 20  8  1  0  0  0  0
 21 12  2  0  0  0  0
 22 23  1  0  0  0  0
 23 18  1  0  0  0  0
 24 28  1  0  0  0  0
 26 29  1  0  0  0  0
 27 24  1  0  0  0  0
 28 25  2  0  0  0  0
 29 30  2  0  0  0  0
 30 25  1  0  0  0  0
 30  5  1  0  0  0  0
 31 24  2  0  0  0  0
 31 29  1  0  0  0  0
M  END
>  <MODEL>
4

>  <REMARK>
 VINA RESULT:     -10.5      4.099      6.098
  Name = 
  1 active torsions:
  status: ('A' for Active; 'I' for Inactive)
    1  A    between atoms: C_9  and  C_22
                            x       y       z     vdW  Elec       q    Type
                         _______ _______ _______ _____ _____    ______ ____

>  <TORSDO>
F 1

$$$$
=
 OpenBabel10272400233D

 31 35  0  0  1  0  0  0  0  0999 V2000
  183.8400  179.1930  139.1430 C   0  0  0  0  0  0  0  0  0  0  0  0
  187.3990  178.0080  139.4700 C   0  0  0  0  0  0  0  0  0  0  0  0
  187.9170  177.8570  138.1490 C   0  0  0  0  0  0  0  0  0  0  0  0
  187.2790  177.9800  144.7330 O   0  0  0  0  0  0  0  0  0  0  0  0
  188.4170  177.5930  144.3530 C   0  0  0  0  0  0  0  0  0  0  0  0
  187.6270  177.6260  135.6400 C   0  0  1  0  0  3  0  0  0  0  0  0
  186.0780  178.4500  139.7800 C   0  0  0  0  0  0  0  0  0  0  0  0
  183.4810  179.3070  140.4850 C   0  0  0  0  0  3  0  0  0  0  0  0
  187.1360  178.2810  136.9240 C   0  0  0  0  0  2  0  0  0  0  0  0
  187.8260  177.8270  141.8750 C   0  0  0  0  0  0  0  0  0  0  0  0
  182.9430  179.4950  138.1730 F   0  0  0  0  0  0  0  0  0  0  0  0
  189.9970  177.1140  139.0740 N   0  0  0  0  0  0  0  0  0  0  0  0
  186.9080  178.2370  134.4570 C   0  0  0  0  0  1  0  0  0  0  0  0
  186.5650  178.2560  142.1280 N   0  0  0  0  0  0  0  0  0  0  0  0
  188.2630  177.6930  140.5500 C   0  0  0  0  0  0  0  0  0  0  0  0
  188.7180  177.5070  142.9530 N   0  0  0  0  0  2  0  0  0  0  0  0
  185.1240  178.7680  138.7960 C   0  0  0  0  0  3  0  0  0  0  0  0
  189.1190  177.8660  135.5090 C   0  0  0  0  0  2  0  0  0  0  0  0
  185.6930  178.5650  141.1400 C   0  0  0  0  0  0  0  0  0  0  0  0
  184.4050  178.9920  141.4800 C   0  0  0  0  0  3  0  0  0  0  0  0
  189.5260  177.2580  140.3080 N   0  0  0  0  0  0  0  0  0  0  0  0
  189.2490  177.4090  137.9850 C   0  0  0  0  0  0  0  0  0  0  0  0
  189.8430  177.1330  136.6300 C   0  0  0  0  0  2  0  0  0  0  0  0
  191.4880  176.5050  147.1510 C   0  0  0  0  0  0  0  0  0  0  0  0
  190.7140  176.8110  144.8820 C   0  0  0  0  0  3  0  0  0  0  0  0
  188.0000  177.6750  147.2580 O   0  0  0  0  0  1  0  0  0  0  0  0
  192.7530  176.0580  148.2740 Cl  0  0  0  0  0  0  0  0  0  0  0  0
  191.7240  176.4540  145.7770 C   0  0  0  0  0  3  0  0  0  0  0  0
  189.2250  177.2740  146.7390 C   0  0  0  0  0  0  0  0  0  0  0  0
  189.4550  177.2250  145.3450 C   0  0  0  0  0  0  0  0  0  0  0  0
  190.2420  176.9140  147.6290 C   0  0  0  0  0  3  0  0  0  0  0  0
  1  8  1  0  0  0  0
  2  7  1  0  0  0  0
  2 15  1  0  0  0  0
  3  2  2  0  0  0  0
  5  4  2  0  0  0  0
  5 30  1  0  0  0  0
  6 13  1  6  0  0  0
  6  9  1  0  0  0  0
  7 19  2  0  0  0  0
  8 20  2  0  0  0  0
  9  3  1  0  0  0  0
 10 14  2  0  0  0  0
 10 16  1  0  0  0  0
 11  1  1  0  0  0  0
 12 21  1  0  0  0  0
 15 10  1  0  0  0  0
 16  5  1  0  0  0  0
 17  1  2  0  0  0  0
 17  7  1  0  0  0  0
 18  6  1  0  0  0  0
 18 23  1  0  0  0  0
 19 20  1  0  0  0  0
 19 14  1  0  0  0  0
 21 15  2  0  0  0  0
 22  3  1  0  0  0  0
 22 12  2  0  0  0  0
 23 22  1  0  0  0  0
 24 31  1  0  0  0  0
 24 27  1  0  0  0  0
 25 30  2  0  0  0  0
 25 28  1  0  0  0  0
 28 24  2  0  0  0  0
 29 26  1  0  0  0  0
 29 31  2  0  0  0  0
 30 29  1  0  0  0  0
M  END
>  <MODEL>
5

>  <REMARK>
 VINA RESULT:      -9.9      3.773      7.916
  Name = 
  1 active torsions:
  status: ('A' for Active; 'I' for Inactive)
    1  A    between atoms: C_9  and  C_22
                            x       y       z     vdW  Elec       q    Type
                         _______ _______ _______ _____ _____    ______ ____

>  <TORSDO>
F 1

$$$$
=
 OpenBabel10272400233D

 31 35  0  0  1  0  0  0  0  0999 V2000
  185.3990  178.2430  146.4620 C   0  0  0  0  0  0  0  0  0  0  0  0
  185.4830  178.2900  142.6970 C   0  0  0  0  0  0  0  0  0  0  0  0
  184.1620  178.5930  142.2490 C   0  0  0  0  0  0  0  0  0  0  0  0
  190.6190  177.1620  142.4460 O   0  0  0  0  0  0  0  0  0  0  0  0
  190.1700  177.2670  141.2720 C   0  0  0  0  0  0  0  0  0  0  0  0
  181.6600  178.7880  142.6150 C   0  0  1  0  0  3  0  0  0  0  0  0
  185.8730  178.1870  144.0660 C   0  0  0  0  0  0  0  0  0  0  0  0
  186.7320  177.9560  146.7470 C   0  0  0  0  0  3  0  0  0  0  0  0
  183.0510  178.9660  143.2070 C   0  0  0  0  0  2  0  0  0  0  0  0
  187.7960  177.7820  142.0730 C   0  0  0  0  0  0  0  0  0  0  0  0
  184.5110  178.4140  147.4710 F   0  0  0  0  0  0  0  0  0  0  0  0
  184.9180  178.4250  139.9830 N   0  0  0  0  0  0  0  0  0  0  0  0
  180.6310  179.3460  143.5740 C   0  0  0  0  0  1  0  0  0  0  0  0
  188.1290  177.7000  143.3860 N   0  0  0  0  0  0  0  0  0  0  0  0
  186.4750  178.0740  141.7070 C   0  0  0  0  0  0  0  0  0  0  0  0
  188.7850  177.5720  141.0550 N   0  0  0  0  0  2  0  0  0  0  0  0
  184.9760  178.3560  145.1350 C   0  0  0  0  0  3  0  0  0  0  0  0
  181.5910  179.5390  141.2990 C   0  0  0  0  0  2  0  0  0  0  0  0
  187.2250  177.8890  144.3750 C   0  0  0  0  0  0  0  0  0  0  0  0
  187.6420  177.7780  145.7050 C   0  0  0  0  0  3  0  0  0  0  0  0
  186.1520  178.1490  140.3910 N   0  0  0  0  0  0  0  0  0  0  0  0
  183.9130  178.6640  140.8580 C   0  0  0  0  0  0  0  0  0  0  0  0
  182.5330  178.8840  140.3000 C   0  0  0  0  0  2  0  0  0  0  0  0
  192.8470  176.7460  137.9550 C   0  0  0  0  0  0  0  0  0  0  0  0
  192.4450  177.2880  140.2750 C   0  0  0  0  0  3  0  0  0  0  0  0
  189.2350  176.4730  138.6050 O   0  0  0  0  0  1  0  0  0  0  0  0
  193.9550  176.5390  136.6160 Cl  0  0  0  0  0  0  0  0  0  0  0  0
  193.3300  177.1230  139.2080 C   0  0  0  0  0  3  0  0  0  0  0  0
  190.5880  176.6950  138.8330 C   0  0  0  0  0  0  0  0  0  0  0  0
  191.0670  177.0780  140.1070 C   0  0  0  0  0  0  0  0  0  0  0  0
  191.4810  176.5330  137.7700 C   0  0  0  0  0  3  0  0  0  0  0  0
  1  8  1  0  0  0  0
  1 11  1  0  0  0  0
  2  7  1  0  0  0  0
  3  2  1  0  0  0  0
  3  9  1  0  0  0  0
  5  4  2  0  0  0  0
  6  9  1  0  0  0  0
  6 13  1  1  0  0  0
  7 19  2  0  0  0  0
  7 17  1  0  0  0  0
 10 14  2  0  0  0  0
 12 21  2  0  0  0  0
 12 22  1  0  0  0  0
 14 19  1  0  0  0  0
 15 10  1  0  0  0  0
 15  2  2  0  0  0  0
 16  5  1  0  0  0  0
 16 10  1  0  0  0  0
 17  1  2  0  0  0  0
 18  6  1  0  0  0  0
 19 20  1  0  0  0  0
 20  8  2  0  0  0  0
 21 15  1  0  0  0  0
 22  3  2  0  0  0  0
 23 22  1  0  0  0  0
 23 18  1  0  0  0  0
 24 28  1  0  0  0  0
 26 29  1  0  0  0  0
 27 24  1  0  0  0  0
 28 25  2  0  0  0  0
 29 30  2  0  0  0  0
 30 25  1  0  0  0  0
 30  5  1  0  0  0  0
 31 24  2  0  0  0  0
 31 29  1  0  0  0  0
M  END
>  <MODEL>
6

>  <REMARK>
 VINA RESULT:      -9.8      2.081      5.028
  Name = 
  1 active torsions:
  status: ('A' for Active; 'I' for Inactive)
    1  A    between atoms: C_9  and  C_22
                            x       y       z     vdW  Elec       q    Type
                         _______ _______ _______ _____ _____    ______ ____

>  <TORSDO>
F 1

$$$$
=
 OpenBabel10272400233D

 31 35  0  0  1  0  0  0  0  0999 V2000
  191.7440  175.9250  146.0790 C   0  0  0  0  0  0  0  0  0  0  0  0
  188.6040  177.3610  144.5770 C   0  0  0  0  0  0  0  0  0  0  0  0
  187.7880  177.8140  145.6570 C   0  0  0  0  0  0  0  0  0  0  0  0
  190.1040  176.3840  139.6260 O   0  0  0  0  0  0  0  0  0  0  0  0
  188.9620  176.9180  139.6040 C   0  0  0  0  0  0  0  0  0  0  0  0
  187.1440  177.8710  148.1090 C   0  0  1  0  0  3  0  0  0  0  0  0
  189.8880  176.7580  144.7260 C   0  0  0  0  0  0  0  0  0  0  0  0
  192.4330  175.5470  144.9270 C   0  0  0  0  0  3  0  0  0  0  0  0
  188.2740  177.8110  147.0900 C   0  0  0  0  0  2  0  0  0  0  0  0
  188.8460  177.1110  142.1520 C   0  0  0  0  0  0  0  0  0  0  0  0
  192.2960  175.7140  147.2980 F   0  0  0  0  0  0  0  0  0  0  0  0
  186.1190  178.4940  144.0800 N   0  0  0  0  0  0  0  0  0  0  0  0
  187.7260  178.0390  149.4950 C   0  0  0  0  0  1  0  0  0  0  0  0
  190.0670  176.5470  142.3360 N   0  0  0  0  0  0  0  0  0  0  0  0
  188.0970  177.5230  143.2620 C   0  0  0  0  0  0  0  0  0  0  0  0
  188.3160  177.2880  140.8310 N   0  0  0  0  0  2  0  0  0  0  0  0
  190.4860  176.5220  145.9770 C   0  0  0  0  0  3  0  0  0  0  0  0
  186.2550  179.0560  147.7820 C   0  0  0  0  0  2  0  0  0  0  0  0
  190.6010  176.3600  143.5660 C   0  0  0  0  0  0  0  0  0  0  0  0
  191.8610  175.7630  143.6740 C   0  0  0  0  0  3  0  0  0  0  0  0
  186.8750  178.0820  143.0670 N   0  0  0  0  0  0  0  0  0  0  0  0
  186.5320  178.3960  145.3650 C   0  0  0  0  0  0  0  0  0  0  0  0
  185.5700  178.8130  146.4450 C   0  0  0  0  0  2  0  0  0  0  0  0
  186.9420  177.5520  135.8680 C   0  0  0  0  0  0  0  0  0  0  0  0
  187.5660  176.1200  137.7120 C   0  0  0  0  0  3  0  0  0  0  0  0
  188.9940  179.5060  138.2170 O   0  0  0  0  0  1  0  0  0  0  0  0
  186.1110  177.7890  134.3460 Cl  0  0  0  0  0  0  0  0  0  0  0  0
  186.9020  176.3080  136.4980 C   0  0  0  0  0  3  0  0  0  0  0  0
  188.3080  178.4280  137.6700 C   0  0  0  0  0  0  0  0  0  0  0  0
  188.2750  177.1710  138.3150 C   0  0  0  0  0  0  0  0  0  0  0  0
  187.6420  178.6080  136.4530 C   0  0  0  0  0  3  0  0  0  0  0  0
  1 11  1  0  0  0  0
  2  7  1  0  0  0  0
  2  3  1  0  0  0  0
  3  9  1  0  0  0  0
  5  4  2  0  0  0  0
  5 16  1  0  0  0  0
  6 13  1  1  0  0  0
  7 17  2  0  0  0  0
  8  1  2  0  0  0  0
  9  6  1  0  0  0  0
 10 14  2  0  0  0  0
 10 15  1  0  0  0  0
 12 22  1  0  0  0  0
 14 19  1  0  0  0  0
 15  2  2  0  0  0  0
 16 10  1  0  0  0  0
 17  1  1  0  0  0  0
 18  6  1  0  0  0  0
 19 20  2  0  0  0  0
 19  7  1  0  0  0  0
 20  8  1  0  0  0  0
 21 15  1  0  0  0  0
 21 12  2  0  0  0  0
 22  3  2  0  0  0  0
 22 23  1  0  0  0  0
 23 18  1  0  0  0  0
 24 31  2  0  0  0  0
 24 28  1  0  0  0  0
 25 30  1  0  0  0  0
 27 24  1  0  0  0  0
 28 25  2  0  0  0  0
 29 26  1  0  0  0  0
 29 30  2  0  0  0  0
 30  5  1  0  0  0  0
 31 29  1  0  0  0  0
M  END
>  <MODEL>
7

>  <REMARK>
 VINA RESULT:      -9.8      3.013      4.571
  Name = 
  1 active torsions:
  status: ('A' for Active; 'I' for Inactive)
    1  A    between atoms: C_9  and  C_22
                            x       y       z     vdW  Elec       q    Type
                         _______ _______ _______ _____ _____    ______ ____

>  <TORSDO>
F 1

$$$$
=
 OpenBabel10272400233D

 31 35  0  0  1  0  0  0  0  0999 V2000
  184.7520  179.1560  140.1310 C   0  0  0  0  0  0  0  0  0  0  0  0
  187.7410  177.6130  141.8250 C   0  0  0  0  0  0  0  0  0  0  0  0
  187.5100  177.6800  143.2310 C   0  0  0  0  0  0  0  0  0  0  0  0
  190.1920  176.5310  137.2930 O   0  0  0  0  0  0  0  0  0  0  0  0
  190.9230  176.1520  138.2480 C   0  0  0  0  0  0  0  0  0  0  0  0
  186.3050  178.5990  145.2640 C   0  0  1  0  0  3  0  0  0  0  0  0
  186.8350  178.0880  140.8290 C   0  0  0  0  0  0  0  0  0  0  0  0
  185.1070  179.0070  138.7920 C   0  0  0  0  0  3  0  0  0  0  0  0
  186.1970  178.1590  143.8110 C   0  0  0  0  0  2  0  0  0  0  0  0
  189.2500  176.9250  140.0220 C   0  0  0  0  0  0  0  0  0  0  0  0
  183.5740  179.7410  140.4590 F   0  0  0  0  0  0  0  0  0  0  0  0
  189.6390  176.6500  143.6050 N   0  0  0  0  0  0  0  0  0  0  0  0
  184.9230  178.8930  145.8050 C   0  0  0  0  0  1  0  0  0  0  0  0
  188.3600  177.3820  139.1070 N   0  0  0  0  0  0  0  0  0  0  0  0
  188.9600  177.0340  141.3890 C   0  0  0  0  0  0  0  0  0  0  0  0
  190.4870  176.3310  139.6030 N   0  0  0  0  0  2  0  0  0  0  0  0
  185.6080  178.7020  141.1370 C   0  0  0  0  0  3  0  0  0  0  0  0
  186.9400  177.4800  146.0680 C   0  0  0  0  0  2  0  0  0  0  0  0
  187.1830  177.9510  139.4610 C   0  0  0  0  0  0  0  0  0  0  0  0
  186.3210  178.4070  138.4590 C   0  0  0  0  0  3  0  0  0  0  0  0
  189.8600  176.5770  142.2970 N   0  0  0  0  0  0  0  0  0  0  0  0
  188.4960  177.1690  144.1090 C   0  0  0  0  0  0  0  0  0  0  0  0
  188.3760  177.2850  145.6050 C   0  0  0  0  0  2  0  0  0  0  0  0
  194.6780  174.2390  137.4270 C   0  0  0  0  0  0  0  0  0  0  0  0
  192.2710  174.3280  137.2380 C   0  0  0  0  0  3  0  0  0  0  0  0
  193.4820  177.2380  139.1930 O   0  0  0  0  0  1  0  0  0  0  0  0
  196.1990  173.4430  137.0810 Cl  0  0  0  0  0  0  0  0  0  0  0  0
  193.4830  173.6920  136.9600 C   0  0  0  0  0  3  0  0  0  0  0  0
  193.4530  176.0630  138.4500 C   0  0  0  0  0  0  0  0  0  0  0  0
  192.2360  175.5170  137.9830 C   0  0  0  0  0  0  0  0  0  0  0  0
  194.6620  175.4200  138.1700 C   0  0  0  0  0  3  0  0  0  0  0  0
  1 11  1  0  0  0  0
  1 17  1  0  0  0  0
  2  3  1  0  0  0  0
  3  9  1  0  0  0  0
  3 22  2  0  0  0  0
  4  5  2  0  0  0  0
  5 16  1  0  0  0  0
  6 13  1  1  0  0  0
  6 18  1  0  0  0  0
  7 17  2  0  0  0  0
  7  2  1  0  0  0  0
  8  1  2  0  0  0  0
  9  6  1  0  0  0  0
 10 15  1  0  0  0  0
 12 22  1  0  0  0  0
 14 19  1  0  0  0  0
 14 10  2  0  0  0  0
 15  2  2  0  0  0  0
 15 21  1  0  0  0  0
 16 10  1  0  0  0  0
 19  7  1  0  0  0  0
 20  8  1  0  0  0  0
 20 19  2  0  0  0  0
 21 12  2  0  0  0  0
 22 23  1  0  0  0  0
 23 18  1  0  0  0  0
 24 31  1  0  0  0  0
 25 30  2  0  0  0  0
 27 24  1  0  0  0  0
 28 25  1  0  0  0  0
 28 24  2  0  0  0  0
 29 26  1  0  0  0  0
 30  5  1  0  0  0  0
 30 29  1  0  0  0  0
 31 29  2  0  0  0  0
M  END
>  <MODEL>
8

>  <REMARK>
 VINA RESULT:      -9.4      2.240      3.264
  Name = 
  1 active torsions:
  status: ('A' for Active; 'I' for Inactive)
    1  A    between atoms: C_9  and  C_22
                            x       y       z     vdW  Elec       q    Type
                         _______ _______ _______ _____ _____    ______ ____

>  <TORSDO>
F 1

$$$$
=
 OpenBabel10272400233D

 31 35  0  0  1  0  0  0  0  0999 V2000
  189.9990  177.3020  147.1890 C   0  0  0  0  0  0  0  0  0  0  0  0
  188.2520  177.6230  143.8680 C   0  0  0  0  0  0  0  0  0  0  0  0
  186.8920  177.9610  144.1380 C   0  0  0  0  0  0  0  0  0  0  0  0
  192.5790  176.5050  141.0850 O   0  0  0  0  0  0  0  0  0  0  0  0
  191.6230  176.6970  140.2860 C   0  0  0  0  0  0  0  0  0  0  0  0
  184.8890  178.1340  145.6840 C   0  0  1  0  0  3  0  0  0  0  0  0
  189.2520  177.4200  144.8660 C   0  0  0  0  0  0  0  0  0  0  0  0
  191.2930  176.9920  146.7720 C   0  0  0  0  0  3  0  0  0  0  0  0
  186.3990  178.2650  145.5360 C   0  0  0  0  0  2  0  0  0  0  0  0
  189.9540  177.1580  142.1690 C   0  0  0  0  0  0  0  0  0  0  0  0
  189.7180  177.4010  148.5110 F   0  0  0  0  0  0  0  0  0  0  0  0
  186.4500  177.9570  141.7850 N   0  0  0  0  0  0  0  0  0  0  0  0
  184.4740  178.6230  147.0540 C   0  0  0  0  0  1  0  0  0  0  0  0
  190.8770  176.9790  143.1470 N   0  0  0  0  0  0  0  0  0  0  0  0
  188.6330  177.4780  142.5100 C   0  0  0  0  0  0  0  0  0  0  0  0
  190.3180  177.0200  140.7880 N   0  0  0  0  0  2  0  0  0  0  0  0
  188.9920  177.5120  146.2450 C   0  0  0  0  0  3  0  0  0  0  0  0
  184.2200  178.9790  144.6170 C   0  0  0  0  0  2  0  0  0  0  0  0
  190.5730  177.0970  144.4610 C   0  0  0  0  0  0  0  0  0  0  0  0
  191.5770  176.8890  145.4110 C   0  0  0  0  0  3  0  0  0  0  0  0
  187.7160  177.6500  141.5230 N   0  0  0  0  0  0  0  0  0  0  0  0
  186.0040  178.1340  143.0500 C   0  0  0  0  0  0  0  0  0  0  0  0
  184.5360  178.3970  143.2470 C   0  0  0  0  0  2  0  0  0  0  0  0
  192.3400  176.3900  136.0630 C   0  0  0  0  0  0  0  0  0  0  0  0
  193.1500  176.5070  138.3370 C   0  0  0  0  0  3  0  0  0  0  0  0
  189.4430  176.6560  138.3190 O   0  0  0  0  0  1  0  0  0  0  0  0
  192.6540  176.2650  134.3460 Cl  0  0  0  0  0  0  0  0  0  0  0  0
  193.4020  176.4060  136.9670 C   0  0  0  0  0  3  0  0  0  0  0  0
  190.7660  176.5740  137.8990 C   0  0  0  0  0  0  0  0  0  0  0  0
  191.8350  176.5920  138.8230 C   0  0  0  0  0  0  0  0  0  0  0  0
  191.0270  176.4740  136.5280 C   0  0  0  0  0  3  0  0  0  0  0  0
  1 11  1  0  0  0  0
  2  3  1  0  0  0  0
  2  7  1  0  0  0  0
  3  9  1  0  0  0  0
  5 16  1  0  0  0  0
  5  4  2  0  0  0  0
  6 13  1  1  0  0  0
  7 17  1  0  0  0  0
  8  1  1  0  0  0  0
  9  6  1  0  0  0  0
 10 15  1  0  0  0  0
 10 14  2  0  0  0  0
 12 22  1  0  0  0  0
 14 19  1  0  0  0  0
 15  2  2  0  0  0  0
 16 10  1  0  0  0  0
 17  1  2  0  0  0  0
 18  6  1  0  0  0  0
 19  7  2  0  0  0  0
 19 20  1  0  0  0  0
 20  8  2  0  0  0  0
 21 12  2  0  0  0  0
 21 15  1  0  0  0  0
 22 23  1  0  0  0  0
 22  3  2  0  0  0  0
 23 18  1  0  0  0  0
 24 31  2  0  0  0  0
 24 28  1  0  0  0  0
 25 30  1  0  0  0  0
 27 24  1  0  0  0  0
 28 25  2  0  0  0  0
 29 26  1  0  0  0  0
 29 30  2  0  0  0  0
 30  5  1  0  0  0  0
 31 29  1  0  0  0  0
M  END
>  <MODEL>
9

>  <REMARK>
 VINA RESULT:      -9.2      1.868      4.142
  Name = 
  1 active torsions:
  status: ('A' for Active; 'I' for Inactive)
    1  A    between atoms: C_9  and  C_22
                            x       y       z     vdW  Elec       q    Type
                         _______ _______ _______ _____ _____    ______ ____

>  <TORSDO>
F 1

$$$$
