=
 OpenBabel10272413133D

 32 37  0  0  1  0  0  0  0  0999 V2000
  184.5190  178.7450  141.6020 C   0  0  0  0  0  0  0  0  0  0  0  0
  186.9310  178.5050  141.5390 C   0  0  0  0  0  0  0  0  0  0  0  0
  183.2310  178.7530  142.3890 C   0  0  0  0  0  2  0  0  0  0  0  0
  185.7510  178.5840  142.2730 C   0  0  0  0  0  0  0  0  0  0  0  0
  188.2420  178.4110  142.2770 C   0  0  2  0  0  3  0  0  0  0  0  0
  188.9090  176.2990  137.8820 C   0  0  0  0  0  2  0  0  0  0  0  0
  186.8780  178.4010  140.1510 C   0  0  0  0  0  0  0  0  0  0  0  0
  190.4750  177.1560  139.6470 C   0  0  0  0  0  2  0  0  0  0  0  0
  189.1540  177.4540  140.3600 C   0  0  1  0  0  3  0  0  0  0  0  0
  185.8590  178.5050  143.7830 C   0  0  2  0  0  3  0  0  0  0  0  0
  189.4000  178.3000  141.4620 O   0  0  0  0  0  0  0  0  0  0  0  0
  186.8440  177.3980  144.2030 C   0  0  0  0  0  2  0  0  0  0  0  0
  184.5120  178.2640  144.4600 C   0  0  0  0  0  2  0  0  0  0  0  0
  185.6870  178.5480  139.5120 N   0  0  0  0  0  0  0  0  0  0  0  0
  184.5150  178.7450  140.1830 C   0  0  0  0  0  0  0  0  0  0  0  0
  188.1370  178.1020  139.3930 C   0  0  1  0  0  3  0  0  0  0  0  0
  188.1790  177.3790  143.4150 C   0  0  2  0  0  3  0  0  0  0  0  0
  183.4460  179.1570  143.8440 C   0  0  0  0  0  2  0  0  0  0  0  0
  190.2940  176.8830  138.1530 C   0  0  0  0  0  2  0  0  0  0  0  0
  187.8370  177.2440  138.2300 N   0  0  0  0  0  2  0  0  0  0  0  0
  181.9890  177.6040  137.6710 C   0  0  0  0  0  0  0  0  0  0  0  0
  180.0640  180.3240  136.6410 O   0  0  0  0  0  1  0  0  0  0  0  0
  181.3060  176.3560  137.2090 C   0  0  0  0  0  1  0  0  0  0  0  0
  181.6230  180.5360  138.3840 C   0  0  0  0  0  3  0  0  0  0  0  0
  183.2770  178.9040  139.3800 C   0  0  0  0  0  0  0  0  0  0  0  0
  181.9900  178.7570  136.7230 C   0  0  0  0  0  2  0  0  0  0  0  0
  182.8010  180.1480  139.1850 C   0  0  0  0  0  3  0  0  0  0  0  0
  182.5990  177.6720  138.8710 C   0  0  0  0  0  0  0  0  0  0  0  0
  182.6180  176.4630  139.7580 C   0  0  0  0  0  1  0  0  0  0  0  0
  181.2150  179.8970  137.2890 C   0  0  0  0  0  0  0  0  0  0  0  0
  189.3770  177.4920  144.3550 C   0  0  0  0  0  2  0  0  0  0  0  0
  188.9540  177.7370  145.7950 C   0  0  0  0  0  1  0  0  0  0  0  0
  1  4  1  0  0  0  0
  1  3  1  0  0  0  0
  2  4  2  0  0  0  0
  2  5  1  0  0  0  0
  3 18  1  0  0  0  0
  4 10  1  0  0  0  0
  5 11  1  6  0  0  0
  5 17  1  0  0  0  0
  6 19  1  0  0  0  0
  6 20  1  0  0  0  0
  7  2  1  0  0  0  0
  9  8  1  6  0  0  0
  9 11  1  0  0  0  0
 10 12  1  6  0  0  0
 10 13  1  0  0  0  0
 14  7  2  0  0  0  0
 14 15  1  0  0  0  0
 15  1  2  0  0  0  0
 16 20  1  6  0  0  0
 16  7  1  0  0  0  0
 16  9  1  0  0  0  0
 17 12  1  0  0  0  0
 17 31  1  1  0  0  0
 18 13  1  0  0  0  0
 19  8  1  0  0  0  0
 21 28  2  0  0  0  0
 22 30  1  0  0  0  0
 23 21  1  0  0  0  0
 24 27  1  0  0  0  0
 25 15  1  0  0  0  0
 26 30  1  0  0  0  0
 26 21  1  0  0  0  0
 27 25  2  0  0  0  0
 28 25  1  0  0  0  0
 28 29  1  0  0  0  0
 30 24  2  0  0  0  0
 31 32  1  0  0  0  0
M  END
>  <MODEL>
1

>  <REMARK>
 VINA RESULT:      -9.6      0.000      0.000
  Name = 
  2 active torsions:
  status: ('A' for Active; 'I' for Inactive)
    1  A    between atoms: C_13  and  C_29
    2  A    between atoms: C_16  and  C_27
                            x       y       z     vdW  Elec       q    Type
                         _______ _______ _______ _____ _____    ______ ____

>  <TORSDO>
F 2

$$$$
=
 OpenBabel10272413133D

 32 37  0  0  1  0  0  0  0  0999 V2000
  189.3040  177.5970  141.7170 C   0  0  0  0  0  0  0  0  0  0  0  0
  187.9740  177.4270  143.7370 C   0  0  0  0  0  0  0  0  0  0  0  0
  190.6560  177.6660  141.0500 C   0  0  0  0  0  2  0  0  0  0  0  0
  189.2200  177.4180  143.1150 C   0  0  0  0  0  0  0  0  0  0  0  0
  187.8990  177.1580  145.2190 C   0  0  2  0  0  3  0  0  0  0  0  0
  183.9770  179.8920  144.0510 C   0  0  0  0  0  2  0  0  0  0  0  0
  186.8410  177.7900  143.0140 C   0  0  0  0  0  0  0  0  0  0  0  0
  184.5690  178.4710  146.0340 C   0  0  0  0  0  2  0  0  0  0  0  0
  185.8580  178.2790  145.2320 C   0  0  1  0  0  3  0  0  0  0  0  0
  190.4380  177.2000  143.9900 C   0  0  2  0  0  3  0  0  0  0  0  0
  186.6000  177.2160  145.7890 O   0  0  0  0  0  0  0  0  0  0  0  0
  190.3340  178.0260  145.2870 C   0  0  0  0  0  2  0  0  0  0  0  0
  191.7450  177.5410  143.2790 C   0  0  0  0  0  2  0  0  0  0  0  0
  186.9320  177.9690  141.6690 N   0  0  0  0  0  0  0  0  0  0  0  0
  188.1120  177.8570  140.9930 C   0  0  0  0  0  0  0  0  0  0  0  0
  185.5480  178.0030  143.7430 C   0  0  1  0  0  3  0  0  0  0  0  0
  188.9570  177.9600  145.9950 C   0  0  2  0  0  3  0  0  0  0  0  0
  191.7400  176.9710  141.8680 C   0  0  0  0  0  2  0  0  0  0  0  0
  183.4260  179.0400  145.1920 C   0  0  0  0  0  2  0  0  0  0  0  0
  184.7840  179.0970  143.1120 N   0  0  0  0  0  2  0  0  0  0  0  0
  186.6060  177.4880  137.5890 C   0  0  0  0  0  0  0  0  0  0  0  0
  189.0200  178.1810  135.1690 O   0  0  0  0  0  1  0  0  0  0  0  0
  185.2700  177.4740  136.9170 C   0  0  0  0  0  1  0  0  0  0  0  0
  189.4640  178.5130  137.4510 C   0  0  0  0  0  3  0  0  0  0  0  0
  188.0890  178.0620  139.5240 C   0  0  0  0  0  0  0  0  0  0  0  0
  187.7380  176.8660  136.8420 C   0  0  0  0  0  2  0  0  0  0  0  0
  189.2520  178.3260  138.9000 C   0  0  0  0  0  3  0  0  0  0  0  0
  186.7690  178.0100  138.8210 C   0  0  0  0  0  0  0  0  0  0  0  0
  185.5830  178.5680  139.5500 C   0  0  0  0  0  1  0  0  0  0  0  0
  188.7640  177.8930  136.5020 C   0  0  0  0  0  0  0  0  0  0  0  0
  189.1000  177.4730  147.4350 C   0  0  0  0  0  2  0  0  0  0  0  0
  188.3160  178.3370  148.4120 C   0  0  0  0  0  1  0  0  0  0  0  0
  1  4  1  0  0  0  0
  3  1  1  0  0  0  0
  3 18  1  0  0  0  0
  4  2  2  0  0  0  0
  4 10  1  0  0  0  0
  5  2  1  6  0  0  0
  5 11  1  0  0  0  0
  5 17  1  0  0  0  0
  6 19  1  0  0  0  0
  7  2  1  0  0  0  0
  9 11  1  0  0  0  0
  9  8  1  1  0  0  0
 10 13  1  6  0  0  0
 10 12  1  0  0  0  0
 12 17  1  0  0  0  0
 14  7  2  0  0  0  0
 15 14  1  0  0  0  0
 15  1  2  0  0  0  0
 16  7  1  6  0  0  0
 16  9  1  0  0  0  0
 17 31  1  1  0  0  0
 18 13  1  0  0  0  0
 19  8  1  0  0  0  0
 20 16  1  0  0  0  0
 20  6  1  0  0  0  0
 21 28  2  0  0  0  0
 22 30  1  0  0  0  0
 23 21  1  0  0  0  0
 24 27  1  0  0  0  0
 25 15  1  0  0  0  0
 26 21  1  0  0  0  0
 27 25  2  0  0  0  0
 28 25  1  0  0  0  0
 28 29  1  0  0  0  0
 30 26  1  0  0  0  0
 30 24  2  0  0  0  0
 31 32  1  0  0  0  0
M  END
>  <MODEL>
2

>  <REMARK>
 VINA RESULT:      -9.1      3.032      5.877
  Name = 
  2 active torsions:
  status: ('A' for Active; 'I' for Inactive)
    1  A    between atoms: C_13  and  C_29
    2  A    between atoms: C_16  and  C_27
                            x       y       z     vdW  Elec       q    Type
                         _______ _______ _______ _____ _____    ______ ____

>  <TORSDO>
F 2

$$$$
=
 OpenBabel10272413133D

 32 37  0  0  1  0  0  0  0  0999 V2000
  189.7840  176.9690  142.8940 C   0  0  0  0  0  0  0  0  0  0  0  0
  187.8380  177.1890  144.3240 C   0  0  0  0  0  0  0  0  0  0  0  0
  191.2820  176.8750  142.7400 C   0  0  0  0  0  2  0  0  0  0  0  0
  189.2140  177.0300  144.1840 C   0  0  0  0  0  0  0  0  0  0  0  0
  187.2400  177.1750  145.7080 C   0  0  2  0  0  3  0  0  0  0  0  0
  184.2190  179.8180  142.8610 C   0  0  0  0  0  2  0  0  0  0  0  0
  187.0560  177.4680  143.2050 C   0  0  0  0  0  0  0  0  0  0  0  0
  183.9680  178.7290  145.1080 C   0  0  0  0  0  2  0  0  0  0  0  0
  185.4290  178.3570  144.8440 C   0  0  1  0  0  3  0  0  0  0  0  0
  190.0370  176.9160  145.4520 C   0  0  2  0  0  3  0  0  0  0  0  0
  185.8360  177.3760  145.7730 O   0  0  0  0  0  0  0  0  0  0  0  0
  189.5770  177.9510  146.4970 C   0  0  0  0  0  2  0  0  0  0  0  0
  191.5340  177.0850  145.2010 C   0  0  0  0  0  2  0  0  0  0  0  0
  187.6140  177.4160  141.9670 N   0  0  0  0  0  0  0  0  0  0  0  0
  188.9380  177.1490  141.7690 C   0  0  0  0  0  0  0  0  0  0  0  0
  185.6180  177.8470  143.3970 C   0  0  1  0  0  3  0  0  0  0  0  0
  188.0420  178.0550  146.6800 C   0  0  2  0  0  3  0  0  0  0  0  0
  191.9550  176.2880  143.9760 C   0  0  0  0  0  2  0  0  0  0  0  0
  183.2370  179.1910  143.8460 C   0  0  0  0  0  2  0  0  0  0  0  0
  185.2190  178.8490  142.3890 N   0  0  0  0  0  2  0  0  0  0  0  0
  188.4990  176.7400  138.0770 C   0  0  0  0  0  0  0  0  0  0  0  0
  191.6070  176.1960  136.5910 O   0  0  0  0  0  1  0  0  0  0  0  0
  187.5190  177.0550  136.9930 C   0  0  0  0  0  1  0  0  0  0  0  0
  191.4330  176.7340  138.8700 C   0  0  0  0  0  3  0  0  0  0  0  0
  189.4340  177.1050  140.3720 C   0  0  0  0  0  0  0  0  0  0  0  0
  189.4960  175.6670  137.7890 C   0  0  0  0  0  2  0  0  0  0  0  0
  190.7430  176.8670  140.1680 C   0  0  0  0  0  3  0  0  0  0  0  0
  188.4630  177.3750  139.2660 C   0  0  0  0  0  0  0  0  0  0  0  0
  187.4010  178.4020  139.5220 C   0  0  0  0  0  1  0  0  0  0  0  0
  190.8760  176.2300  137.7700 C   0  0  0  0  0  0  0  0  0  0  0  0
  187.6410  177.8120  148.1340 C   0  0  0  0  0  2  0  0  0  0  0  0
  188.7380  178.2190  149.1060 C   0  0  0  0  0  1  0  0  0  0  0  0
  1  4  1  0  0  0  0
  3  1  1  0  0  0  0
  3 18  1  0  0  0  0
  4  2  2  0  0  0  0
  4 10  1  0  0  0  0
  5  2  1  6  0  0  0
  5 11  1  0  0  0  0
  5 17  1  0  0  0  0
  6 19  1  0  0  0  0
  7 16  1  0  0  0  0
  7  2  1  0  0  0  0
  9  8  1  1  0  0  0
  9 11  1  0  0  0  0
 10 13  1  6  0  0  0
 10 12  1  0  0  0  0
 12 17  1  0  0  0  0
 14  7  2  0  0  0  0
 15 14  1  0  0  0  0
 15  1  2  0  0  0  0
 16 20  1  6  0  0  0
 16  9  1  0  0  0  0
 17 31  1  1  0  0  0
 18 13  1  0  0  0  0
 19  8  1  0  0  0  0
 20  6  1  0  0  0  0
 21 28  2  0  0  0  0
 22 30  1  0  0  0  0
 23 21  1  0  0  0  0
 24 27  1  0  0  0  0
 25 15  1  0  0  0  0
 26 21  1  0  0  0  0
 27 25  2  0  0  0  0
 28 29  1  0  0  0  0
 28 25  1  0  0  0  0
 30 26  1  0  0  0  0
 30 24  2  0  0  0  0
 31 32  1  0  0  0  0
M  END
>  <MODEL>
3

>  <REMARK>
 VINA RESULT:      -8.5      3.780      6.686
  Name = 
  2 active torsions:
  status: ('A' for Active; 'I' for Inactive)
    1  A    between atoms: C_13  and  C_29
    2  A    between atoms: C_16  and  C_27
                            x       y       z     vdW  Elec       q    Type
                         _______ _______ _______ _____ _____    ______ ____

>  <TORSDO>
F 2

$$$$
=
 OpenBabel10272413133D

 32 37  0  0  1  0  0  0  0  0999 V2000
  185.5890  178.6510  140.8460 C   0  0  0  0  0  0  0  0  0  0  0  0
  187.8780  178.2050  140.1820 C   0  0  0  0  0  0  0  0  0  0  0  0
  184.5410  178.7440  141.9280 C   0  0  0  0  0  2  0  0  0  0  0  0
  186.9270  178.3610  141.1880 C   0  0  0  0  0  0  0  0  0  0  0  0
  189.3160  177.9720  140.5700 C   0  0  2  0  0  3  0  0  0  0  0  0
  188.6800  175.9600  136.1240 C   0  0  0  0  0  2  0  0  0  0  0  0
  187.4750  178.1530  138.8500 C   0  0  0  0  0  0  0  0  0  0  0  0
  190.7050  176.6170  137.4530 C   0  0  0  0  0  2  0  0  0  0  0  0
  189.6340  177.0050  138.4760 C   0  0  1  0  0  3  0  0  0  0  0  0
  187.3970  178.2220  142.6220 C   0  0  2  0  0  3  0  0  0  0  0  0
  190.2210  177.7890  139.4910 O   0  0  0  0  0  0  0  0  0  0  0  0
  188.3490  177.0200  142.7720 C   0  0  0  0  0  2  0  0  0  0  0  0
  186.2420  178.0760  143.6100 C   0  0  0  0  0  2  0  0  0  0  0  0
  186.1810  178.4240  138.5290 N   0  0  0  0  0  0  0  0  0  0  0  0
  185.2340  178.6990  139.4720 C   0  0  0  0  0  0  0  0  0  0  0  0
  188.4740  177.7710  137.8000 C   0  0  1  0  0  3  0  0  0  0  0  0
  189.4400  176.9120  141.6760 C   0  0  2  0  0  3  0  0  0  0  0  0
  185.1440  179.0790  143.2880 C   0  0  0  0  0  2  0  0  0  0  0  0
  190.1360  176.4110  136.0480 C   0  0  0  0  0  2  0  0  0  0  0  0
  187.8190  176.9820  136.7380 N   0  0  0  0  0  2  0  0  0  0  0  0
  182.0570  177.8500  137.6900 C   0  0  0  0  0  0  0  0  0  0  0  0
  180.2180  180.7630  137.1430 O   0  0  0  0  0  1  0  0  0  0  0  0
  181.1590  176.6830  137.4310 C   0  0  0  0  0  1  0  0  0  0  0  0
  182.1780  180.7940  138.4350 C   0  0  0  0  0  3  0  0  0  0  0  0
  183.8570  178.9920  139.0040 C   0  0  0  0  0  0  0  0  0  0  0  0
  181.9350  179.0080  136.7580 C   0  0  0  0  0  2  0  0  0  0  0  0
  183.4740  180.2790  138.9190 C   0  0  0  0  0  3  0  0  0  0  0  0
  182.9520  177.8410  138.6980 C   0  0  0  0  0  0  0  0  0  0  0  0
  183.0720  176.6240  139.5670 C   0  0  0  0  0  1  0  0  0  0  0  0
  181.4460  180.2140  137.4860 C   0  0  0  0  0  0  0  0  0  0  0  0
  190.8380  176.8880  142.2900 C   0  0  0  0  0  2  0  0  0  0  0  0
  190.8220  177.2580  143.7660 C   0  0  0  0  0  1  0  0  0  0  0  0
  1  4  1  0  0  0  0
  1  3  1  0  0  0  0
  2  5  1  0  0  0  0
  2  4  2  0  0  0  0
  3 18  1  0  0  0  0
  4 10  1  0  0  0  0
  5 11  1  6  0  0  0
  5 17  1  0  0  0  0
  6 20  1  0  0  0  0
  7  2  1  0  0  0  0
  9  8  1  6  0  0  0
  9 11  1  0  0  0  0
 10 12  1  6  0  0  0
 10 13  1  0  0  0  0
 14  7  2  0  0  0  0
 14 15  1  0  0  0  0
 15  1  2  0  0  0  0
 16 20  1  6  0  0  0
 16  9  1  0  0  0  0
 16  7  1  0  0  0  0
 17 31  1  1  0  0  0
 17 12  1  0  0  0  0
 18 13  1  0  0  0  0
 19  6  1  0  0  0  0
 19  8  1  0  0  0  0
 21 28  2  0  0  0  0
 22 30  1  0  0  0  0
 23 21  1  0  0  0  0
 24 27  1  0  0  0  0
 25 15  1  0  0  0  0
 26 30  1  0  0  0  0
 26 21  1  0  0  0  0
 27 25  2  0  0  0  0
 28 25  1  0  0  0  0
 28 29  1  0  0  0  0
 30 24  2  0  0  0  0
 31 32  1  0  0  0  0
M  END
>  <MODEL>
4

>  <REMARK>
 VINA RESULT:      -8.3      1.141      1.602
  Name = 
  2 active torsions:
  status: ('A' for Active; 'I' for Inactive)
    1  A    between atoms: C_13  and  C_29
    2  A    between atoms: C_16  and  C_27
                            x       y       z     vdW  Elec       q    Type
                         _______ _______ _______ _____ _____    ______ ____

>  <TORSDO>
F 2

$$$$
=
 OpenBabel10272413133D

 32 37  0  0  1  0  0  0  0  0999 V2000
  189.4750  177.2150  140.4300 C   0  0  0  0  0  0  0  0  0  0  0  0
  187.6070  178.1730  139.2160 C   0  0  0  0  0  0  0  0  0  0  0  0
  190.7720  176.4430  140.4280 C   0  0  0  0  0  2  0  0  0  0  0  0
  188.8390  177.5240  139.2080 C   0  0  0  0  0  0  0  0  0  0  0  0
  186.9820  178.5610  137.9000 C   0  0  2  0  0  3  0  0  0  0  0  0
  183.3110  178.0000  141.1300 C   0  0  0  0  0  2  0  0  0  0  0  0
  186.9250  178.3500  140.4170 C   0  0  0  0  0  0  0  0  0  0  0  0
  183.4860  179.1060  138.8840 C   0  0  0  0  0  2  0  0  0  0  0  0
  184.9210  178.5810  138.9840 C   0  0  1  0  0  3  0  0  0  0  0  0
  189.4470  177.1910  137.8600 C   0  0  2  0  0  3  0  0  0  0  0  0
  185.7110  179.1890  137.9860 O   0  0  0  0  0  0  0  0  0  0  0  0
  188.3790  176.6270  136.9040 C   0  0  0  0  0  2  0  0  0  0  0  0
  190.6040  176.2010  137.9620 C   0  0  0  0  0  2  0  0  0  0  0  0
  187.5410  178.0430  141.5900 N   0  0  0  0  0  0  0  0  0  0  0  0
  188.7970  177.5110  141.6410 C   0  0  0  0  0  0  0  0  0  0  0  0
  185.5130  178.8530  140.3860 C   0  0  1  0  0  3  0  0  0  0  0  0
  187.0420  177.4110  136.8820 C   0  0  2  0  0  3  0  0  0  0  0  0
  191.5260  176.5850  139.1100 C   0  0  0  0  0  2  0  0  0  0  0  0
  182.7580  179.1000  140.2290 C   0  0  0  0  0  2  0  0  0  0  0  0
  184.7260  178.2230  141.4640 N   0  0  0  0  0  2  0  0  0  0  0  0
  188.7940  177.6420  145.3800 C   0  0  0  0  0  0  0  0  0  0  0  0
  191.9870  176.9040  146.5710 O   0  0  0  0  0  1  0  0  0  0  0  0
  187.8440  177.5730  146.5330 C   0  0  0  0  0  1  0  0  0  0  0  0
  191.4730  176.7120  144.2880 C   0  0  0  0  0  3  0  0  0  0  0  0
  189.3730  177.2270  142.9790 C   0  0  0  0  0  0  0  0  0  0  0  0
  190.1250  178.2620  145.6440 C   0  0  0  0  0  2  0  0  0  0  0  0
  190.6910  176.9700  143.0630 C   0  0  0  0  0  3  0  0  0  0  0  0
  188.4500  177.1940  144.1560 C   0  0  0  0  0  0  0  0  0  0  0  0
  187.0750  176.6350  143.9340 C   0  0  0  0  0  1  0  0  0  0  0  0
  191.2110  177.2550  145.4750 C   0  0  0  0  0  0  0  0  0  0  0  0
  186.7000  177.8800  135.4690 C   0  0  0  0  0  2  0  0  0  0  0  0
  187.7750  177.4990  134.4630 C   0  0  0  0  0  1  0  0  0  0  0  0
  1 15  1  0  0  0  0
  2  7  2  0  0  0  0
  3  1  1  0  0  0  0
  4  2  1  0  0  0  0
  4  1  2  0  0  0  0
  5 11  1  1  0  0  0
  5  2  1  0  0  0  0
  6 20  1  0  0  0  0
  7 14  1  0  0  0  0
  8 19  1  0  0  0  0
  9  8  1  1  0  0  0
  9 16  1  0  0  0  0
 10 12  1  6  0  0  0
 10 13  1  0  0  0  0
 10  4  1  0  0  0  0
 11  9  1  0  0  0  0
 13 18  1  0  0  0  0
 14 15  2  0  0  0  0
 15 25  1  0  0  0  0
 16  7  1  6  0  0  0
 16 20  1  0  0  0  0
 17 31  1  6  0  0  0
 17 12  1  0  0  0  0
 17  5  1  0  0  0  0
 18  3  1  0  0  0  0
 19  6  1  0  0  0  0
 21 26  1  0  0  0  0
 21 23  1  0  0  0  0
 24 30  2  0  0  0  0
 25 27  2  0  0  0  0
 25 28  1  0  0  0  0
 27 24  1  0  0  0  0
 28 21  2  0  0  0  0
 29 28  1  0  0  0  0
 30 26  1  0  0  0  0
 30 22  1  0  0  0  0
 32 31  1  0  0  0  0
M  END
>  <MODEL>
5

>  <REMARK>
 VINA RESULT:      -8.3      2.313      8.201
  Name = 
  2 active torsions:
  status: ('A' for Active; 'I' for Inactive)
    1  A    between atoms: C_13  and  C_29
    2  A    between atoms: C_16  and  C_27
                            x       y       z     vdW  Elec       q    Type
                         _______ _______ _______ _____ _____    ______ ____

>  <TORSDO>
F 2

$$$$
=
 OpenBabel10272413133D

 32 37  0  0  1  0  0  0  0  0999 V2000
  187.1730  178.0490  141.7220 C   0  0  0  0  0  0  0  0  0  0  0  0
  188.2350  177.3190  143.7760 C   0  0  0  0  0  0  0  0  0  0  0  0
  187.2760  178.4130  140.2610 C   0  0  0  0  0  2  0  0  0  0  0  0
  188.3140  177.5870  142.4120 C   0  0  0  0  0  0  0  0  0  0  0  0
  189.4430  176.7540  144.4790 C   0  0  2  0  0  3  0  0  0  0  0  0
  186.8080  179.1680  147.8630 C   0  0  0  0  0  2  0  0  0  0  0  0
  187.0920  177.6790  144.4870 C   0  0  0  0  0  0  0  0  0  0  0  0
  188.6460  177.4640  147.9920 C   0  0  0  0  0  2  0  0  0  0  0  0
  188.5710  177.5930  146.4690 C   0  0  1  0  0  3  0  0  0  0  0  0
  189.6460  177.3480  141.7290 C   0  0  2  0  0  3  0  0  0  0  0  0
  189.2970  176.5380  145.8750 O   0  0  0  0  0  0  0  0  0  0  0  0
  190.8060  177.8790  142.5920 C   0  0  0  0  0  2  0  0  0  0  0  0
  189.7200  177.9800  140.3410 C   0  0  0  0  0  2  0  0  0  0  0  0
  186.0000  178.1320  143.8160 N   0  0  0  0  0  0  0  0  0  0  0  0
  185.9890  178.3020  142.4620 C   0  0  0  0  0  0  0  0  0  0  0  0
  187.1040  177.5840  145.9830 C   0  0  1  0  0  3  0  0  0  0  0  0
  190.7260  177.5070  144.0940 C   0  0  2  0  0  3  0  0  0  0  0  0
  188.4370  177.7070  139.5700 C   0  0  0  0  0  2  0  0  0  0  0  0
  187.4190  178.0460  148.6970 C   0  0  0  0  0  2  0  0  0  0  0  0
  186.3080  178.6810  146.5680 N   0  0  0  0  0  2  0  0  0  0  0  0
  182.2790  178.7630  142.3240 C   0  0  0  0  0  0  0  0  0  0  0  0
  181.3400  179.6630  139.0880 O   0  0  0  0  0  1  0  0  0  0  0  0
  181.1170  179.0190  143.2290 C   0  0  0  0  0  1  0  0  0  0  0  0
  183.6040  179.4940  139.6880 C   0  0  0  0  0  3  0  0  0  0  0  0
  184.7350  178.7910  141.8360 C   0  0  0  0  0  0  0  0  0  0  0  0
  181.9700  178.1850  140.9830 C   0  0  0  0  0  2  0  0  0  0  0  0
  184.7430  179.0510  140.5160 C   0  0  0  0  0  3  0  0  0  0  0  0
  183.5450  179.0140  142.7140 C   0  0  0  0  0  0  0  0  0  0  0  0
  183.8010  179.5380  144.0960 C   0  0  0  0  0  1  0  0  0  0  0  0
  182.3360  179.1470  139.9050 C   0  0  0  0  0  0  0  0  0  0  0  0
  191.9820  176.7640  144.5470 C   0  0  0  0  0  2  0  0  0  0  0  0
  191.9820  175.3110  144.0960 C   0  0  0  0  0  1  0  0  0  0  0  0
  1  4  2  0  0  0  0
  1 15  1  0  0  0  0
  2  7  2  0  0  0  0
  3  1  1  0  0  0  0
  4  2  1  0  0  0  0
  5  2  1  1  0  0  0
  5 11  1  0  0  0  0
  6 19  1  0  0  0  0
  8 19  1  0  0  0  0
  9  8  1  1  0  0  0
 10 13  1  6  0  0  0
 10  4  1  0  0  0  0
 10 12  1  0  0  0  0
 11  9  1  0  0  0  0
 12 17  1  0  0  0  0
 14  7  1  0  0  0  0
 15 14  2  0  0  0  0
 16  7  1  6  0  0  0
 16  9  1  0  0  0  0
 16 20  1  0  0  0  0
 17  5  1  0  0  0  0
 17 31  1  6  0  0  0
 18  3  1  0  0  0  0
 18 13  1  0  0  0  0
 20  6  1  0  0  0  0
 21 28  2  0  0  0  0
 21 23  1  0  0  0  0
 22 30  1  0  0  0  0
 24 30  2  0  0  0  0
 24 27  1  0  0  0  0
 25 15  1  0  0  0  0
 25 28  1  0  0  0  0
 26 21  1  0  0  0  0
 27 25  2  0  0  0  0
 28 29  1  0  0  0  0
 30 26  1  0  0  0  0
 32 31  1  0  0  0  0
M  END
>  <MODEL>
6

>  <REMARK>
 VINA RESULT:      -8.3      2.335      5.346
  Name = 
  2 active torsions:
  status: ('A' for Active; 'I' for Inactive)
    1  A    between atoms: C_13  and  C_29
    2  A    between atoms: C_16  and  C_27
                            x       y       z     vdW  Elec       q    Type
                         _______ _______ _______ _____ _____    ______ ____

>  <TORSDO>
F 2

$$$$
=
 OpenBabel10272413133D

 32 37  0  0  1  0  0  0  0  0999 V2000
  184.4300  178.7100  141.4280 C   0  0  0  0  0  0  0  0  0  0  0  0
  186.8350  178.5920  141.7150 C   0  0  0  0  0  0  0  0  0  0  0  0
  183.0450  178.7010  142.0270 C   0  0  0  0  0  2  0  0  0  0  0  0
  185.5600  178.6560  142.2720 C   0  0  0  0  0  0  0  0  0  0  0  0
  188.0310  178.6130  142.6320 C   0  0  2  0  0  3  0  0  0  0  0  0
  189.4010  176.2680  138.5270 C   0  0  0  0  0  2  0  0  0  0  0  0
  186.9820  178.4000  140.3440 C   0  0  0  0  0  0  0  0  0  0  0  0
  190.6650  177.3130  140.4280 C   0  0  0  0  0  2  0  0  0  0  0  0
  189.2450  177.5860  140.9300 C   0  0  1  0  0  3  0  0  0  0  0  0
  185.4580  178.6770  143.7840 C   0  0  2  0  0  3  0  0  0  0  0  0
  189.2960  178.5110  141.9940 O   0  0  0  0  0  0  0  0  0  0  0  0
  186.4200  177.6510  144.4120 C   0  0  0  0  0  2  0  0  0  0  0  0
  184.0400  178.4090  144.2830 C   0  0  0  0  0  2  0  0  0  0  0  0
  185.8880  178.4440  139.5380 N   0  0  0  0  0  0  0  0  0  0  0  0
  184.6260  178.6210  140.0250 C   0  0  0  0  0  0  0  0  0  0  0  0
  188.3470  178.1190  139.7890 C   0  0  1  0  0  3  0  0  0  0  0  0
  187.8520  177.6520  143.8190 C   0  0  2  0  0  3  0  0  0  0  0  0
  183.0350  179.2060  143.4660 C   0  0  0  0  0  2  0  0  0  0  0  0
  190.7080  176.9380  138.9450 C   0  0  0  0  0  2  0  0  0  0  0  0
  188.2520  177.1760  138.6580 N   0  0  0  0  0  2  0  0  0  0  0  0
  181.5000  180.0890  138.5860 C   0  0  0  0  0  0  0  0  0  0  0  0
  179.9820  177.7570  136.4840 O   0  0  0  0  0  1  0  0  0  0  0  0
  180.8610  181.4180  138.3380 C   0  0  0  0  0  1  0  0  0  0  0  0
  182.0930  177.3440  137.4250 C   0  0  0  0  0  3  0  0  0  0  0  0
  183.5080  178.6660  139.0500 C   0  0  0  0  0  0  0  0  0  0  0  0
  180.5950  178.9030  138.6020 C   0  0  0  0  0  2  0  0  0  0  0  0
  183.1910  177.5350  138.3930 C   0  0  0  0  0  3  0  0  0  0  0  0
  182.8240  179.9750  138.8150 C   0  0  0  0  0  0  0  0  0  0  0  0
  183.6760  181.2090  138.8480 C   0  0  0  0  0  1  0  0  0  0  0  0
  180.9250  177.9820  137.4770 C   0  0  0  0  0  0  0  0  0  0  0  0
  188.9000  177.8850  144.9050 C   0  0  0  0  0  2  0  0  0  0  0  0
  190.0650  176.9130  144.7960 C   0  0  0  0  0  1  0  0  0  0  0  0
  1  3  1  0  0  0  0
  1  4  1  0  0  0  0
  2  4  2  0  0  0  0
  3 18  1  0  0  0  0
  4 10  1  0  0  0  0
  5  2  1  6  0  0  0
  5 17  1  0  0  0  0
  6 20  1  0  0  0  0
  6 19  1  0  0  0  0
  7  2  1  0  0  0  0
  9  8  1  6  0  0  0
  9 11  1  0  0  0  0
 10 13  1  6  0  0  0
 10 12  1  0  0  0  0
 11  5  1  0  0  0  0
 14 15  1  0  0  0  0
 14  7  2  0  0  0  0
 15  1  2  0  0  0  0
 16 20  1  6  0  0  0
 16  7  1  0  0  0  0
 16  9  1  0  0  0  0
 17 12  1  0  0  0  0
 17 31  1  1  0  0  0
 18 13  1  0  0  0  0
 19  8  1  0  0  0  0
 21 26  1  0  0  0  0
 21 28  2  0  0  0  0
 22 30  1  0  0  0  0
 23 21  1  0  0  0  0
 24 30  2  0  0  0  0
 24 27  1  0  0  0  0
 25 15  1  0  0  0  0
 27 25  2  0  0  0  0
 28 29  1  0  0  0  0
 28 25  1  0  0  0  0
 30 26  1  0  0  0  0
 32 31  1  0  0  0  0
M  END
>  <MODEL>
7

>  <REMARK>
 VINA RESULT:      -8.2      0.865      1.840
  Name = 
  2 active torsions:
  status: ('A' for Active; 'I' for Inactive)
    1  A    between atoms: C_13  and  C_29
    2  A    between atoms: C_16  and  C_27
                            x       y       z     vdW  Elec       q    Type
                         _______ _______ _______ _____ _____    ______ ____

>  <TORSDO>
F 2

$$$$
=
 OpenBabel10272413133D

 32 37  0  0  1  0  0  0  0  0999 V2000
  186.3050  178.0400  142.3950 C   0  0  0  0  0  0  0  0  0  0  0  0
  187.7470  178.3110  140.4650 C   0  0  0  0  0  0  0  0  0  0  0  0
  186.1270  177.6590  143.8440 C   0  0  0  0  0  2  0  0  0  0  0  0
  187.5940  178.0290  141.8190 C   0  0  0  0  0  0  0  0  0  0  0  0
  189.1380  178.3700  139.8860 C   0  0  2  0  0  3  0  0  0  0  0  0
  186.0980  177.1700  136.2070 C   0  0  0  0  0  2  0  0  0  0  0  0
  186.6240  178.4220  139.6490 C   0  0  0  0  0  0  0  0  0  0  0  0
  188.4530  178.0350  136.2950 C   0  0  0  0  0  2  0  0  0  0  0  0
  188.1960  177.9390  137.8010 C   0  0  1  0  0  3  0  0  0  0  0  0
  188.8470  177.7340  142.6190 C   0  0  2  0  0  3  0  0  0  0  0  0
  189.2140  178.6300  138.4920 O   0  0  0  0  0  0  0  0  0  0  0  0
  189.7880  176.7990  141.8350 C   0  0  0  0  0  2  0  0  0  0  0  0
  188.5460  177.1170  143.9830 C   0  0  0  0  0  2  0  0  0  0  0  0
  185.3850  178.4230  140.2090 N   0  0  0  0  0  0  0  0  0  0  0  0
  185.1870  178.2660  141.5500 C   0  0  0  0  0  0  0  0  0  0  0  0
  186.8070  178.5110  138.1630 C   0  0  1  0  0  3  0  0  0  0  0  0
  189.9940  177.1790  140.3460 C   0  0  2  0  0  3  0  0  0  0  0  0
  187.4020  177.8610  144.6550 C   0  0  0  0  0  2  0  0  0  0  0  0
  187.1670  177.9730  135.4690 C   0  0  0  0  0  2  0  0  0  0  0  0
  185.7080  177.8080  137.4730 N   0  0  0  0  0  2  0  0  0  0  0  0
  181.4780  178.4710  141.1050 C   0  0  0  0  0  0  0  0  0  0  0  0
  179.9820  179.2410  144.1590 O   0  0  0  0  0  1  0  0  0  0  0  0
  180.4050  178.0190  140.1670 C   0  0  0  0  0  1  0  0  0  0  0  0
  182.2820  178.7880  144.0190 C   0  0  0  0  0  3  0  0  0  0  0  0
  183.7900  178.2950  142.0510 C   0  0  0  0  0  0  0  0  0  0  0  0
  181.1470  179.6200  141.9980 C   0  0  0  0  0  2  0  0  0  0  0  0
  183.5810  178.6470  143.3330 C   0  0  0  0  0  3  0  0  0  0  0  0
  182.6940  177.8880  141.1190 C   0  0  0  0  0  0  0  0  0  0  0  0
  182.9900  176.7770  140.1560 C   0  0  0  0  0  1  0  0  0  0  0  0
  181.1590  179.1890  143.4250 C   0  0  0  0  0  0  0  0  0  0  0  0
  191.4740  177.3820  140.0280 C   0  0  0  0  0  2  0  0  0  0  0  0
  191.9270  176.5370  138.8470 C   0  0  0  0  0  1  0  0  0  0  0  0
  1  3  1  0  0  0  0
  2  4  2  0  0  0  0
  3 18  1  0  0  0  0
  4  1  1  0  0  0  0
  4 10  1  0  0  0  0
  5 11  1  6  0  0  0
  5 17  1  0  0  0  0
  5  2  1  0  0  0  0
  6 20  1  0  0  0  0
  7 14  2  0  0  0  0
  7  2  1  0  0  0  0
  9  8  1  6  0  0  0
  9 16  1  0  0  0  0
  9 11  1  0  0  0  0
 10 12  1  6  0  0  0
 10 13  1  0  0  0  0
 13 18  1  0  0  0  0
 14 15  1  0  0  0  0
 15 25  1  0  0  0  0
 15  1  2  0  0  0  0
 16 20  1  6  0  0  0
 16  7  1  0  0  0  0
 17 31  1  1  0  0  0
 17 12  1  0  0  0  0
 19  6  1  0  0  0  0
 19  8  1  0  0  0  0
 21 28  2  0  0  0  0
 21 26  1  0  0  0  0
 23 21  1  0  0  0  0
 25 27  2  0  0  0  0
 26 30  1  0  0  0  0
 27 24  1  0  0  0  0
 28 25  1  0  0  0  0
 29 28  1  0  0  0  0
 30 24  2  0  0  0  0
 30 22  1  0  0  0  0
 32 31  1  0  0  0  0
M  END
>  <MODEL>
8

>  <REMARK>
 VINA RESULT:      -7.9      2.314      3.863
  Name = 
  2 active torsions:
  status: ('A' for Active; 'I' for Inactive)
    1  A    between atoms: C_13  and  C_29
    2  A    between atoms: C_16  and  C_27
                            x       y       z     vdW  Elec       q    Type
                         _______ _______ _______ _____ _____    ______ ____

>  <TORSDO>
F 2

$$$$
=
 OpenBabel10272413133D

 32 37  0  0  1  0  0  0  0  0999 V2000
  188.9560  177.6290  141.5710 C   0  0  0  0  0  0  0  0  0  0  0  0
  187.3760  178.2590  139.8430 C   0  0  0  0  0  0  0  0  0  0  0  0
  190.2540  176.9710  141.9720 C   0  0  0  0  0  2  0  0  0  0  0  0
  188.6050  177.7160  140.2060 C   0  0  0  0  0  0  0  0  0  0  0  0
  187.0530  178.4130  138.3780 C   0  0  2  0  0  3  0  0  0  0  0  0
  182.7670  178.0020  140.7630 C   0  0  0  0  0  2  0  0  0  0  0  0
  186.4270  178.5430  140.8230 C   0  0  0  0  0  0  0  0  0  0  0  0
  183.4030  178.8030  138.4710 C   0  0  0  0  0  2  0  0  0  0  0  0
  184.7990  178.4140  138.9640 C   0  0  1  0  0  3  0  0  0  0  0  0
  189.5230  177.2530  139.0920 C   0  0  2  0  0  3  0  0  0  0  0  0
  185.7680  178.9430  138.0850 O   0  0  0  0  0  0  0  0  0  0  0  0
  188.7320  176.4800  138.0190 C   0  0  0  0  0  2  0  0  0  0  0  0
  190.6710  176.3830  139.5960 C   0  0  0  0  0  2  0  0  0  0  0  0
  186.7690  178.4480  142.1350 N   0  0  0  0  0  0  0  0  0  0  0  0
  188.0030  178.0320  142.5430 C   0  0  0  0  0  0  0  0  0  0  0  0
  185.0380  178.9210  140.4050 C   0  0  1  0  0  3  0  0  0  0  0  0
  187.4010  177.1440  137.5840 C   0  0  2  0  0  3  0  0  0  0  0  0
  191.2840  176.9930  140.8470 C   0  0  0  0  0  2  0  0  0  0  0  0
  182.3850  178.9210  139.6060 C   0  0  0  0  0  2  0  0  0  0  0  0
  184.0550  178.3810  141.3640 N   0  0  0  0  0  2  0  0  0  0  0  0
  190.2020  177.5200  145.5260 C   0  0  0  0  0  0  0  0  0  0  0  0
  188.2250  177.0830  148.3650 O   0  0  0  0  0  1  0  0  0  0  0  0
  191.6070  177.7660  145.9760 C   0  0  0  0  0  1  0  0  0  0  0  0
  187.2670  177.6640  146.3020 C   0  0  0  0  0  3  0  0  0  0  0  0
  188.2680  177.9790  144.0020 C   0  0  0  0  0  0  0  0  0  0  0  0
  189.4300  176.4870  146.2750 C   0  0  0  0  0  2  0  0  0  0  0  0
  187.2250  177.7950  144.8320 C   0  0  0  0  0  3  0  0  0  0  0  0
  189.6730  178.1790  144.4750 C   0  0  0  0  0  0  0  0  0  0  0  0
  190.5170  179.1640  143.7210 C   0  0  0  0  0  1  0  0  0  0  0  0
  188.2720  177.1110  146.9780 C   0  0  0  0  0  0  0  0  0  0  0  0
  187.3720  177.3880  136.0770 C   0  0  0  0  0  2  0  0  0  0  0  0
  188.7680  177.5590  135.4970 C   0  0  0  0  0  1  0  0  0  0  0  0
  1  3  1  0  0  0  0
  1 15  1  0  0  0  0
  2  4  1  0  0  0  0
  2  7  2  0  0  0  0
  4  1  2  0  0  0  0
  5 11  1  1  0  0  0
  5  2  1  0  0  0  0
  6 20  1  0  0  0  0
  7 14  1  0  0  0  0
  8 19  1  0  0  0  0
  9  8  1  6  0  0  0
  9 16  1  0  0  0  0
 10 12  1  6  0  0  0
 10 13  1  0  0  0  0
 10  4  1  0  0  0  0
 11  9  1  0  0  0  0
 13 18  1  0  0  0  0
 14 15  2  0  0  0  0
 15 25  1  0  0  0  0
 16  7  1  1  0  0  0
 16 20  1  0  0  0  0
 17 31  1  6  0  0  0
 17 12  1  0  0  0  0
 17  5  1  0  0  0  0
 18  3  1  0  0  0  0
 19  6  1  0  0  0  0
 21 23  1  0  0  0  0
 21 26  1  0  0  0  0
 24 30  2  0  0  0  0
 25 28  1  0  0  0  0
 25 27  2  0  0  0  0
 26 30  1  0  0  0  0
 27 24  1  0  0  0  0
 28 21  2  0  0  0  0
 29 28  1  0  0  0  0
 30 22  1  0  0  0  0
 32 31  1  0  0  0  0
M  END
>  <MODEL>
9

>  <REMARK>
 VINA RESULT:      -7.7      2.278      7.961
  Name = 
  2 active torsions:
  status: ('A' for Active; 'I' for Inactive)
    1  A    between atoms: C_13  and  C_29
    2  A    between atoms: C_16  and  C_27
                            x       y       z     vdW  Elec       q    Type
                         _______ _______ _______ _____ _____    ______ ____

>  <TORSDO>
F 2

$$$$
