=
 OpenBabel10272414023D

 30 30  0  0  1  0  0  0  0  0999 V2000
  185.9850  178.8160  142.1710 C   0  0  2  0  0  3  0  0  0  0  0  0
  186.0180  178.8430  146.5900 O   0  0  0  0  0  1  0  0  0  0  0  0
  186.9420  176.0860  143.7640 O   0  0  0  0  0  1  0  0  0  0  0  0
  187.4350  178.2670  144.7280 C   0  0  2  0  0  3  0  0  0  0  0  0
  184.8690  178.3020  143.0640 C   0  0  0  0  0  2  0  0  0  0  0  0
  185.4450  178.9620  140.7610 C   0  0  0  0  0  1  0  0  0  0  0  0
  186.0150  178.2330  145.3300 C   0  0  2  0  0  3  0  0  0  0  0  0
  184.9780  178.9330  144.4420 C   0  0  2  0  0  3  0  0  0  0  0  0
  187.5930  177.3010  143.5420 C   0  0  2  0  0  3  0  0  0  0  0  0
  183.6080  178.8750  145.0950 C   0  0  0  0  0  1  0  0  0  0  0  0
  187.2050  177.8860  142.1710 C   0  0  2  0  0  3  0  0  0  0  0  0
  188.3950  178.5490  141.4580 C   0  0  1  0  0  3  0  0  0  0  0  0
  189.4480  178.8140  142.3370 O   0  0  0  0  0  1  0  0  0  0  0  0
  188.8840  177.8120  140.2020 C   0  0  2  0  0  3  0  0  0  0  0  0
  190.5120  175.8190  139.3970 O   0  0  0  0  0  0  0  0  0  0  0  0
  189.9200  175.8930  141.7730 O   0  0  0  0  0  0  0  0  0  0  0  0
  190.2570  176.7270  140.5680 S   0  0  0  0  0  0  0  0  0  0  0  0
  191.7240  177.6890  140.9010 C   0  0  0  0  0  3  0  0  0  0  0  0
  192.2310  177.4020  142.2990 C   0  0  0  0  0  1  0  0  0  0  0  0
  192.8050  177.3580  139.8920 C   0  0  0  0  0  1  0  0  0  0  0  0
  189.2330  178.7360  139.0420 C   0  0  0  0  0  2  0  0  0  0  0  0
  188.5990  178.2370  137.7590 C   0  0  0  0  0  2  0  0  0  0  0  0
  187.3450  176.2140  137.0920 C   0  0  0  0  0  1  0  0  0  0  0  0
  187.4210  177.3470  138.0940 C   0  0  0  0  0  2  0  0  0  0  0  0
  188.4790  177.9120  145.7810 C   0  0  0  0  0  2  0  0  0  0  0  0
  189.8710  177.9700  145.1830 C   0  0  0  0  0  2  0  0  0  0  0  0
  191.5220  176.4370  146.6110 C   0  0  0  0  0  0  0  0  0  0  0  0
  190.7750  177.1270  145.9640 C   0  0  0  0  0  0  0  0  0  0  0  0
  192.4300  175.6010  147.3950 C   0  0  0  0  0  2  0  0  0  0  0  0
  192.7680  176.2580  148.5630 F   0  0  0  0  0  0  0  0  0  0  0  0
  1  6  1  6  0  0  0
  1 11  1  0  0  0  0
  1  5  1  0  0  0  0
  4  7  1  0  0  0  0
  4 25  1  1  0  0  0
  5  8  1  0  0  0  0
  7  2  1  1  0  0  0
  8 10  1  1  0  0  0
  8  7  1  0  0  0  0
  9  3  1  1  0  0  0
  9  4  1  0  0  0  0
 11 12  1  1  0  0  0
 11  9  1  0  0  0  0
 12 13  1  1  0  0  0
 14 21  1  6  0  0  0
 14 17  1  0  0  0  0
 14 12  1  0  0  0  0
 15 17  2  0  0  0  0
 17 18  1  0  0  0  0
 17 16  2  0  0  0  0
 18 19  1  0  0  0  0
 20 18  1  0  0  0  0
 22 24  1  0  0  0  0
 22 21  1  0  0  0  0
 23 24  1  0  0  0  0
 26 25  1  0  0  0  0
 26 28  1  0  0  0  0
 27 29  1  0  0  0  0
 28 27  3  0  0  0  0
 29 30  1  0  0  0  0
M  END
>  <MODEL>
1

>  <REMARK>
 VINA RESULT:      -7.3      0.000      0.000
  Name = 
  11 active torsions:
  status: ('A' for Active; 'I' for Inactive)
    1  A    between atoms: C_1  and  C_4
    2  A    between atoms: C_1  and  C_29
    3  A    between atoms: C_4  and  C_5
    4  A    between atoms: C_4  and  S_12
    5  A    between atoms: C_5  and  C_21
    6  A    between atoms: C_10  and  C_16
    7  A    between atoms: C_11  and  C_24
    8  A    between atoms: S_12  and  C_13
    9  A    between atoms: C_15  and  C_24
   10  A    between atoms: C_15  and  C_25
   11  A    between atoms: C_17  and  C_21
                            x       y       z     vdW  Elec       q    Type
                         _______ _______ _______ _____ _____    ______ ____

>  <TORSDO>
F 11

$$$$
=
 OpenBabel10272414023D

 30 30  0  0  1  0  0  0  0  0999 V2000
  190.8780  175.9970  144.3170 C   0  0  2  0  0  3  0  0  0  0  0  0
  189.2230  177.3940  148.1690 O   0  0  0  0  0  1  0  0  0  0  0  0
  190.1290  179.1970  144.6520 O   0  0  0  0  0  1  0  0  0  0  0  0
  188.7830  177.5270  145.8040 C   0  0  2  0  0  3  0  0  0  0  0  0
  191.6810  176.6160  145.4480 C   0  0  0  0  0  2  0  0  0  0  0  0
  191.8410  175.3360  143.3490 C   0  0  0  0  0  1  0  0  0  0  0  0
  189.8420  177.5620  146.9250 C   0  0  2  0  0  3  0  0  0  0  0  0
  190.9180  176.4820  146.7560 C   0  0  2  0  0  3  0  0  0  0  0  0
  189.3190  178.0730  144.4700 C   0  0  2  0  0  3  0  0  0  0  0  0
  191.9210  176.5620  147.8940 C   0  0  0  0  0  1  0  0  0  0  0  0
  190.0210  177.0330  143.5780 C   0  0  2  0  0  3  0  0  0  0  0  0
  189.0490  176.3410  142.6080 C   0  0  1  0  0  3  0  0  0  0  0  0
  187.9080  175.8700  143.2610 O   0  0  0  0  0  1  0  0  0  0  0  0
  188.6820  177.1690  141.3660 C   0  0  2  0  0  3  0  0  0  0  0  0
  190.5300  175.7880  139.9690 O   0  0  0  0  0  0  0  0  0  0  0  0
  191.1260  178.0540  140.6820 O   0  0  0  0  0  0  0  0  0  0  0  0
  190.0120  177.1850  140.1700 S   0  0  0  0  0  0  0  0  0  0  0  0
  189.4240  177.8280  138.6120 C   0  0  0  0  0  3  0  0  0  0  0  0
  190.2890  177.3190  137.4770 C   0  0  0  0  0  1  0  0  0  0  0  0
  187.9860  177.4050  138.3830 C   0  0  0  0  0  1  0  0  0  0  0  0
  188.2360  178.5900  141.6830 C   0  0  0  0  0  2  0  0  0  0  0  0
  186.7770  178.6070  142.0900 C   0  0  0  0  0  2  0  0  0  0  0  0
  184.5240  178.3670  141.1010 C   0  0  0  0  0  1  0  0  0  0  0  0
  185.9200  178.9080  140.8780 C   0  0  0  0  0  2  0  0  0  0  0  0
  187.5520  178.3370  146.1960 C   0  0  0  0  0  2  0  0  0  0  0  0
  186.3110  177.4680  146.1440 C   0  0  0  0  0  2  0  0  0  0  0  0
  184.3510  178.7890  144.9070 C   0  0  0  0  0  0  0  0  0  0  0  0
  185.2360  178.1890  145.4650 C   0  0  0  0  0  0  0  0  0  0  0  0
  183.2780  179.5180  144.2320 C   0  0  0  0  0  2  0  0  0  0  0  0
  182.1070  178.7880  144.3100 F   0  0  0  0  0  0  0  0  0  0  0  0
  1  6  1  6  0  0  0
  1  5  1  0  0  0  0
  4 25  1  1  0  0  0
  4  7  1  0  0  0  0
  5  8  1  0  0  0  0
  7  2  1  1  0  0  0
  8  7  1  0  0  0  0
  8 10  1  1  0  0  0
  9  3  1  1  0  0  0
  9  4  1  0  0  0  0
 11 12  1  1  0  0  0
 11  1  1  0  0  0  0
 11  9  1  0  0  0  0
 12 13  1  1  0  0  0
 14 21  1  1  0  0  0
 14 12  1  0  0  0  0
 15 17  2  0  0  0  0
 17 16  2  0  0  0  0
 17 14  1  0  0  0  0
 18 17  1  0  0  0  0
 19 18  1  0  0  0  0
 20 18  1  0  0  0  0
 21 22  1  0  0  0  0
 24 23  1  0  0  0  0
 24 22  1  0  0  0  0
 26 25  1  0  0  0  0
 27 28  3  0  0  0  0
 28 26  1  0  0  0  0
 29 30  1  0  0  0  0
 29 27  1  0  0  0  0
M  END
>  <MODEL>
2

>  <REMARK>
 VINA RESULT:      -7.1      2.694      5.385
  Name = 
  11 active torsions:
  status: ('A' for Active; 'I' for Inactive)
    1  A    between atoms: C_1  and  C_4
    2  A    between atoms: C_1  and  C_29
    3  A    between atoms: C_4  and  C_5
    4  A    between atoms: C_4  and  S_12
    5  A    between atoms: C_5  and  C_21
    6  A    between atoms: C_10  and  C_16
    7  A    between atoms: C_11  and  C_24
    8  A    between atoms: S_12  and  C_13
    9  A    between atoms: C_15  and  C_24
   10  A    between atoms: C_15  and  C_25
   11  A    between atoms: C_17  and  C_21
                            x       y       z     vdW  Elec       q    Type
                         _______ _______ _______ _____ _____    ______ ____

>  <TORSDO>
F 11

$$$$
=
 OpenBabel10272414023D

 30 30  0  0  1  0  0  0  0  0999 V2000
  186.3640  178.3160  144.8900 C   0  0  2  0  0  3  0  0  0  0  0  0
  190.7720  178.0120  144.8270 O   0  0  0  0  0  1  0  0  0  0  0  0
  187.7530  175.7670  143.3140 O   0  0  0  0  0  1  0  0  0  0  0  0
  188.8850  177.9230  143.3310 C   0  0  2  0  0  3  0  0  0  0  0  0
  187.2030  177.4910  145.8490 C   0  0  0  0  0  2  0  0  0  0  0  0
  184.9630  178.4400  145.4610 C   0  0  0  0  0  1  0  0  0  0  0  0
  189.4690  177.5160  144.6990 C   0  0  2  0  0  3  0  0  0  0  0  0
  188.6270  178.0230  145.8770 C   0  0  2  0  0  3  0  0  0  0  0  0
  187.6300  177.1140  142.9630 C   0  0  2  0  0  3  0  0  0  0  0  0
  189.2600  177.5990  147.1910 C   0  0  0  0  0  1  0  0  0  0  0  0
  186.3040  177.6960  143.4880 C   0  0  2  0  0  3  0  0  0  0  0  0
  185.6550  178.6690  142.4900 C   0  0  1  0  0  3  0  0  0  0  0  0
  186.6030  179.4780  141.8580 O   0  0  0  0  0  1  0  0  0  0  0  0
  184.7110  178.0110  141.4710 C   0  0  2  0  0  3  0  0  0  0  0  0
  186.4570  178.5780  139.4960 O   0  0  0  0  0  0  0  0  0  0  0  0
  184.5240  180.0610  139.7430 O   0  0  0  0  0  0  0  0  0  0  0  0
  184.9900  178.6340  139.8180 S   0  0  0  0  0  0  0  0  0  0  0  0
  184.0860  177.6490  138.6340 C   0  0  0  0  0  3  0  0  0  0  0  0
  182.8800  178.4150  138.1300 C   0  0  0  0  0  1  0  0  0  0  0  0
  184.9810  177.2860  137.4660 C   0  0  0  0  0  1  0  0  0  0  0  0
  183.2370  178.1200  141.8380 C   0  0  0  0  0  2  0  0  0  0  0  0
  183.0330  179.1850  142.8960 C   0  0  0  0  0  2  0  0  0  0  0  0
  180.5640  179.2780  142.9590 C   0  0  0  0  0  1  0  0  0  0  0  0
  181.8040  178.8520  143.7150 C   0  0  0  0  0  2  0  0  0  0  0  0
  189.9170  177.7400  142.2240 C   0  0  0  0  0  2  0  0  0  0  0  0
  189.2310  177.6200  140.8780 C   0  0  0  0  0  2  0  0  0  0  0  0
  190.9990  176.8410  139.0380 C   0  0  0  0  0  0  0  0  0  0  0  0
  190.2000  177.1900  139.8710 C   0  0  0  0  0  0  0  0  0  0  0  0
  191.9670  176.4190  138.0270 C   0  0  0  0  0  2  0  0  0  0  0  0
  193.2000  176.9740  138.3090 F   0  0  0  0  0  0  0  0  0  0  0  0
  1  6  1  1  0  0  0
  1  5  1  0  0  0  0
  4 25  1  6  0  0  0
  4  7  1  0  0  0  0
  5  8  1  0  0  0  0
  7  2  1  1  0  0  0
  7  8  1  0  0  0  0
  8 10  1  1  0  0  0
  9  3  1  1  0  0  0
  9  4  1  0  0  0  0
  9 11  1  0  0  0  0
 11 12  1  6  0  0  0
 11  1  1  0  0  0  0
 12 13  1  6  0  0  0
 14 21  1  1  0  0  0
 14 12  1  0  0  0  0
 15 17  2  0  0  0  0
 16 17  2  0  0  0  0
 17 14  1  0  0  0  0
 18 17  1  0  0  0  0
 19 18  1  0  0  0  0
 20 18  1  0  0  0  0
 21 22  1  0  0  0  0
 22 24  1  0  0  0  0
 23 24  1  0  0  0  0
 26 25  1  0  0  0  0
 27 28  3  0  0  0  0
 28 26  1  0  0  0  0
 29 30  1  0  0  0  0
 29 27  1  0  0  0  0
M  END
>  <MODEL>
3

>  <REMARK>
 VINA RESULT:      -7.0      3.111      6.073
  Name = 
  11 active torsions:
  status: ('A' for Active; 'I' for Inactive)
    1  A    between atoms: C_1  and  C_4
    2  A    between atoms: C_1  and  C_29
    3  A    between atoms: C_4  and  C_5
    4  A    between atoms: C_4  and  S_12
    5  A    between atoms: C_5  and  C_21
    6  A    between atoms: C_10  and  C_16
    7  A    between atoms: C_11  and  C_24
    8  A    between atoms: S_12  and  C_13
    9  A    between atoms: C_15  and  C_24
   10  A    between atoms: C_15  and  C_25
   11  A    between atoms: C_17  and  C_21
                            x       y       z     vdW  Elec       q    Type
                         _______ _______ _______ _____ _____    ______ ____

>  <TORSDO>
F 11

$$$$
=
 OpenBabel10272414023D

 30 30  0  0  1  0  0  0  0  0999 V2000
  186.4920  178.3760  143.8890 C   0  0  2  0  0  3  0  0  0  0  0  0
  190.1450  177.3640  146.1610 O   0  0  0  0  0  1  0  0  0  0  0  0
  187.9920  175.4990  143.2740 O   0  0  0  0  0  1  0  0  0  0  0  0
  189.3310  177.4360  143.8940 C   0  0  2  0  0  3  0  0  0  0  0  0
  186.5400  177.5230  145.1440 C   0  0  0  0  0  2  0  0  0  0  0  0
  185.0520  178.7780  143.6350 C   0  0  0  0  0  1  0  0  0  0  0  0
  189.0320  177.0730  145.3630 C   0  0  2  0  0  3  0  0  0  0  0  0
  187.8130  177.8190  145.9210 C   0  0  2  0  0  3  0  0  0  0  0  0
  188.3240  176.8080  142.9160 C   0  0  2  0  0  3  0  0  0  0  0  0
  187.5800  177.4270  147.3700 C   0  0  0  0  0  1  0  0  0  0  0  0
  187.0550  177.6420  142.6650 C   0  0  2  0  0  3  0  0  0  0  0  0
  187.2140  178.6070  141.4780 C   0  0  1  0  0  3  0  0  0  0  0  0
  188.5260  179.0680  141.3520 O   0  0  0  0  0  1  0  0  0  0  0  0
  186.6760  178.0750  140.1400 C   0  0  2  0  0  3  0  0  0  0  0  0
  188.9390  176.8070  139.4060 O   0  0  0  0  0  0  0  0  0  0  0  0
  188.7280  179.1690  138.7920 O   0  0  0  0  0  0  0  0  0  0  0  0
  187.9850  177.8710  138.9390 S   0  0  0  0  0  0  0  0  0  0  0  0
  187.2970  177.3960  137.3610 C   0  0  0  0  0  3  0  0  0  0  0  0
  188.0870  178.0310  136.2350 C   0  0  0  0  0  1  0  0  0  0  0  0
  187.3230  175.8880  137.2130 C   0  0  0  0  0  1  0  0  0  0  0  0
  185.5450  178.9110  139.5550 C   0  0  0  0  0  2  0  0  0  0  0  0
  184.2020  178.3810  140.0170 C   0  0  0  0  0  2  0  0  0  0  0  0
  181.7960  178.9110  140.2080 C   0  0  0  0  0  1  0  0  0  0  0  0
  183.1100  179.3380  139.5910 C   0  0  0  0  0  2  0  0  0  0  0  0
  190.7320  176.9840  143.4980 C   0  0  0  0  0  2  0  0  0  0  0  0
  191.4700  178.1080  142.7990 C   0  0  0  0  0  2  0  0  0  0  0  0
  192.2420  177.3050  140.3750 C   0  0  0  0  0  0  0  0  0  0  0  0
  191.8930  177.6650  141.4710 C   0  0  0  0  0  0  0  0  0  0  0  0
  192.6650  176.8690  139.0450 C   0  0  0  0  0  2  0  0  0  0  0  0
  191.6130  177.0040  138.1600 F   0  0  0  0  0  0  0  0  0  0  0  0
  1  6  1  6  0  0  0
  1  5  1  0  0  0  0
  4 25  1  6  0  0  0
  4  7  1  0  0  0  0
  5  8  1  0  0  0  0
  7  8  1  0  0  0  0
  7  2  1  1  0  0  0
  8 10  1  1  0  0  0
  9  3  1  1  0  0  0
  9  4  1  0  0  0  0
 11 12  1  6  0  0  0
 11  9  1  0  0  0  0
 11  1  1  0  0  0  0
 12 13  1  6  0  0  0
 14 21  1  6  0  0  0
 14 12  1  0  0  0  0
 16 17  2  0  0  0  0
 17 15  2  0  0  0  0
 17 14  1  0  0  0  0
 18 17  1  0  0  0  0
 19 18  1  0  0  0  0
 20 18  1  0  0  0  0
 21 22  1  0  0  0  0
 24 22  1  0  0  0  0
 24 23  1  0  0  0  0
 26 25  1  0  0  0  0
 27 28  3  0  0  0  0
 28 26  1  0  0  0  0
 29 27  1  0  0  0  0
 30 29  1  0  0  0  0
M  END
>  <MODEL>
4

>  <REMARK>
 VINA RESULT:      -6.4      2.681      4.596
  Name = 
  11 active torsions:
  status: ('A' for Active; 'I' for Inactive)
    1  A    between atoms: C_1  and  C_4
    2  A    between atoms: C_1  and  C_29
    3  A    between atoms: C_4  and  C_5
    4  A    between atoms: C_4  and  S_12
    5  A    between atoms: C_5  and  C_21
    6  A    between atoms: C_10  and  C_16
    7  A    between atoms: C_11  and  C_24
    8  A    between atoms: S_12  and  C_13
    9  A    between atoms: C_15  and  C_24
   10  A    between atoms: C_15  and  C_25
   11  A    between atoms: C_17  and  C_21
                            x       y       z     vdW  Elec       q    Type
                         _______ _______ _______ _____ _____    ______ ____

>  <TORSDO>
F 11

$$$$
=
 OpenBabel10272414023D

 30 30  0  0  1  0  0  0  0  0999 V2000
  184.8540  178.1880  144.8980 C   0  0  2  0  0  3  0  0  0  0  0  0
  182.0730  178.2780  141.4660 O   0  0  0  0  0  1  0  0  0  0  0  0
  185.4030  180.3610  142.4720 O   0  0  0  0  0  1  0  0  0  0  0  0
  184.4340  178.1920  141.9380 C   0  0  2  0  0  3  0  0  0  0  0  0
  183.6710  179.1280  144.7480 C   0  0  0  0  0  2  0  0  0  0  0  0
  185.3200  178.2270  146.3420 C   0  0  0  0  0  1  0  0  0  0  0  0
  183.0660  178.8030  142.3020 C   0  0  2  0  0  3  0  0  0  0  0  0
  182.6720  178.5460  143.7620 C   0  0  2  0  0  3  0  0  0  0  0  0
  185.6090  178.9810  142.5400 C   0  0  2  0  0  3  0  0  0  0  0  0
  181.3140  179.1610  144.0520 C   0  0  0  0  0  1  0  0  0  0  0  0
  186.0140  178.5590  143.9640 C   0  0  2  0  0  3  0  0  0  0  0  0
  187.0870  177.4580  143.9660 C   0  0  1  0  0  3  0  0  0  0  0  0
  187.2010  176.8370  142.7200 O   0  0  0  0  0  1  0  0  0  0  0  0
  188.4590  177.8990  144.5010 C   0  0  2  0  0  3  0  0  0  0  0  0
  190.7560  179.0290  143.6540 O   0  0  0  0  0  0  0  0  0  0  0  0
  188.9370  178.8310  142.0250 O   0  0  0  0  0  0  0  0  0  0  0  0
  189.6310  178.1540  143.1740 S   0  0  0  0  0  0  0  0  0  0  0  0
  190.2910  176.5870  142.6320 C   0  0  0  0  0  3  0  0  0  0  0  0
  190.4810  176.5920  141.1290 C   0  0  0  0  0  1  0  0  0  0  0  0
  191.6190  176.3170  143.3100 C   0  0  0  0  0  1  0  0  0  0  0  0
  189.0420  176.9600  145.5500 C   0  0  0  0  0  2  0  0  0  0  0  0
  189.3170  177.7120  146.8360 C   0  0  0  0  0  2  0  0  0  0  0  0
  187.9930  178.1590  148.8740 C   0  0  0  0  0  1  0  0  0  0  0  0
  188.5370  177.0770  147.9670 C   0  0  0  0  0  2  0  0  0  0  0  0
  184.6170  178.1350  140.4250 C   0  0  0  0  0  2  0  0  0  0  0  0
  186.0220  178.5610  140.0480 C   0  0  0  0  0  2  0  0  0  0  0  0
  186.5160  177.8830  137.5160 C   0  0  0  0  0  0  0  0  0  0  0  0
  186.2910  178.1870  138.6600 C   0  0  0  0  0  0  0  0  0  0  0  0
  186.7910  177.5150  136.1270 C   0  0  0  0  0  2  0  0  0  0  0  0
  186.9340  178.6610  135.3670 F   0  0  0  0  0  0  0  0  0  0  0  0
  1  6  1  1  0  0  0
  4 25  1  6  0  0  0
  4  7  1  0  0  0  0
  4  9  1  0  0  0  0
  5  1  1  0  0  0  0
  7  2  1  6  0  0  0
  7  8  1  0  0  0  0
  8 10  1  1  0  0  0
  8  5  1  0  0  0  0
  9  3  1  1  0  0  0
  9 11  1  0  0  0  0
 11 12  1  6  0  0  0
 11  1  1  0  0  0  0
 12 13  1  6  0  0  0
 12 14  1  0  0  0  0
 14 21  1  1  0  0  0
 16 17  2  0  0  0  0
 17 15  2  0  0  0  0
 17 14  1  0  0  0  0
 18 17  1  0  0  0  0
 18 20  1  0  0  0  0
 19 18  1  0  0  0  0
 21 22  1  0  0  0  0
 22 24  1  0  0  0  0
 24 23  1  0  0  0  0
 26 25  1  0  0  0  0
 27 28  3  0  0  0  0
 28 26  1  0  0  0  0
 29 27  1  0  0  0  0
 30 29  1  0  0  0  0
M  END
>  <MODEL>
5

>  <REMARK>
 VINA RESULT:      -6.4      3.432      6.575
  Name = 
  11 active torsions:
  status: ('A' for Active; 'I' for Inactive)
    1  A    between atoms: C_1  and  C_4
    2  A    between atoms: C_1  and  C_29
    3  A    between atoms: C_4  and  C_5
    4  A    between atoms: C_4  and  S_12
    5  A    between atoms: C_5  and  C_21
    6  A    between atoms: C_10  and  C_16
    7  A    between atoms: C_11  and  C_24
    8  A    between atoms: S_12  and  C_13
    9  A    between atoms: C_15  and  C_24
   10  A    between atoms: C_15  and  C_25
   11  A    between atoms: C_17  and  C_21
                            x       y       z     vdW  Elec       q    Type
                         _______ _______ _______ _____ _____    ______ ____

>  <TORSDO>
F 11

$$$$
=
 OpenBabel10272414023D

 30 30  0  0  1  0  0  0  0  0999 V2000
  186.0600  178.2880  143.2760 C   0  0  2  0  0  3  0  0  0  0  0  0
  189.3380  178.2500  146.2390 O   0  0  0  0  0  1  0  0  0  0  0  0
  188.3150  175.8810  143.1110 O   0  0  0  0  0  1  0  0  0  0  0  0
  188.9870  178.0980  143.8600 C   0  0  2  0  0  3  0  0  0  0  0  0
  186.0740  177.4830  144.5640 C   0  0  0  0  0  2  0  0  0  0  0  0
  184.6420  178.3100  142.7370 C   0  0  0  0  0  1  0  0  0  0  0  0
  188.5080  177.6810  145.2660 C   0  0  2  0  0  3  0  0  0  0  0  0
  187.0580  178.0980  145.5460 C   0  0  2  0  0  3  0  0  0  0  0  0
  188.3750  177.2290  142.7490 C   0  0  2  0  0  3  0  0  0  0  0  0
  186.6530  177.6690  146.9450 C   0  0  0  0  0  1  0  0  0  0  0  0
  187.0130  177.7120  142.2200 C   0  0  2  0  0  3  0  0  0  0  0  0
  187.1550  178.6780  141.0310 C   0  0  1  0  0  3  0  0  0  0  0  0
  188.3910  179.3280  141.0310 O   0  0  0  0  0  1  0  0  0  0  0  0
  186.8470  178.0590  139.6590 C   0  0  2  0  0  3  0  0  0  0  0  0
  189.2690  176.9010  139.4040 O   0  0  0  0  0  0  0  0  0  0  0  0
  189.0090  179.1660  138.5090 O   0  0  0  0  0  0  0  0  0  0  0  0
  188.3330  177.8360  138.6890 S   0  0  0  0  0  0  0  0  0  0  0  0
  187.9220  177.1550  137.0910 C   0  0  0  0  0  3  0  0  0  0  0  0
  188.8670  177.6910  136.0360 C   0  0  0  0  0  1  0  0  0  0  0  0
  188.0120  175.6420  137.1300 C   0  0  0  0  0  1  0  0  0  0  0  0
  185.8010  178.8240  138.8590 C   0  0  0  0  0  2  0  0  0  0  0  0
  184.4220  178.2440  139.1010 C   0  0  0  0  0  2  0  0  0  0  0  0
  182.2190  179.0030  139.9270 C   0  0  0  0  0  1  0  0  0  0  0  0
  183.3920  179.3520  139.0360 C   0  0  0  0  0  2  0  0  0  0  0  0
  190.5060  178.0140  143.7570 C   0  0  0  0  0  2  0  0  0  0  0  0
  190.9550  176.5670  143.7630 C   0  0  0  0  0  2  0  0  0  0  0  0
  191.9560  175.9530  146.1570 C   0  0  0  0  0  0  0  0  0  0  0  0
  191.5070  176.2300  145.0740 C   0  0  0  0  0  0  0  0  0  0  0  0
  192.5000  175.6170  147.4730 C   0  0  0  0  0  2  0  0  0  0  0  0
  192.3230  176.6850  148.3310 F   0  0  0  0  0  0  0  0  0  0  0  0
  1  6  1  6  0  0  0
  1  5  1  0  0  0  0
  4 25  1  1  0  0  0
  4  7  1  0  0  0  0
  5  8  1  0  0  0  0
  7  8  1  0  0  0  0
  7  2  1  1  0  0  0
  8 10  1  1  0  0  0
  9  3  1  1  0  0  0
  9  4  1  0  0  0  0
 11 12  1  6  0  0  0
 11  9  1  0  0  0  0
 11  1  1  0  0  0  0
 12 13  1  6  0  0  0
 14 21  1  6  0  0  0
 14 12  1  0  0  0  0
 16 17  2  0  0  0  0
 17 15  2  0  0  0  0
 17 14  1  0  0  0  0
 18 20  1  0  0  0  0
 18 17  1  0  0  0  0
 19 18  1  0  0  0  0
 21 22  1  0  0  0  0
 24 22  1  0  0  0  0
 24 23  1  0  0  0  0
 25 26  1  0  0  0  0
 26 28  1  0  0  0  0
 27 29  1  0  0  0  0
 28 27  3  0  0  0  0
 29 30  1  0  0  0  0
M  END
>  <MODEL>
6

>  <REMARK>
 VINA RESULT:      -6.4      1.880      3.282
  Name = 
  11 active torsions:
  status: ('A' for Active; 'I' for Inactive)
    1  A    between atoms: C_1  and  C_4
    2  A    between atoms: C_1  and  C_29
    3  A    between atoms: C_4  and  C_5
    4  A    between atoms: C_4  and  S_12
    5  A    between atoms: C_5  and  C_21
    6  A    between atoms: C_10  and  C_16
    7  A    between atoms: C_11  and  C_24
    8  A    between atoms: S_12  and  C_13
    9  A    between atoms: C_15  and  C_24
   10  A    between atoms: C_15  and  C_25
   11  A    between atoms: C_17  and  C_21
                            x       y       z     vdW  Elec       q    Type
                         _______ _______ _______ _____ _____    ______ ____

>  <TORSDO>
F 11

$$$$
=
 OpenBabel10272414023D

 30 30  0  0  1  0  0  0  0  0999 V2000
  184.9170  178.2510  144.9250 C   0  0  2  0  0  3  0  0  0  0  0  0
  181.9650  178.1050  141.6400 O   0  0  0  0  0  1  0  0  0  0  0  0
  185.3570  180.2230  142.3130 O   0  0  0  0  0  1  0  0  0  0  0  0
  184.3470  178.0300  141.9980 C   0  0  2  0  0  3  0  0  0  0  0  0
  183.7340  179.1900  144.7620 C   0  0  0  0  0  2  0  0  0  0  0  0
  185.4560  178.3970  146.3360 C   0  0  0  0  0  1  0  0  0  0  0  0
  183.0030  178.6830  142.3820 C   0  0  2  0  0  3  0  0  0  0  0  0
  182.6820  178.5440  143.8760 C   0  0  2  0  0  3  0  0  0  0  0  0
  185.5560  178.8500  142.4770 C   0  0  2  0  0  3  0  0  0  0  0  0
  181.3450  179.1940  144.1840 C   0  0  0  0  0  1  0  0  0  0  0  0
  186.0300  178.5350  143.9080 C   0  0  2  0  0  3  0  0  0  0  0  0
  187.0940  177.4260  143.9430 C   0  0  1  0  0  3  0  0  0  0  0  0
  187.2320  176.7960  142.7030 O   0  0  0  0  0  1  0  0  0  0  0  0
  188.4570  177.8590  144.5060 C   0  0  2  0  0  3  0  0  0  0  0  0
  190.7540  179.0180  143.7000 O   0  0  0  0  0  0  0  0  0  0  0  0
  188.9770  178.7740  142.0330 O   0  0  0  0  0  0  0  0  0  0  0  0
  189.6550  178.1200  143.2040 S   0  0  0  0  0  0  0  0  0  0  0  0
  190.3510  176.5580  142.6940 C   0  0  0  0  0  3  0  0  0  0  0  0
  190.6760  176.5890  141.2150 C   0  0  0  0  0  1  0  0  0  0  0  0
  191.6120  176.2660  143.4840 C   0  0  0  0  0  1  0  0  0  0  0  0
  189.0160  176.9120  145.5600 C   0  0  0  0  0  2  0  0  0  0  0  0
  189.3550  177.6720  146.8270 C   0  0  0  0  0  2  0  0  0  0  0  0
  188.1860  178.1720  148.9460 C   0  0  0  0  0  1  0  0  0  0  0  0
  188.5970  177.0720  147.9910 C   0  0  0  0  0  2  0  0  0  0  0  0
  184.4520  177.8530  140.4880 C   0  0  0  0  0  2  0  0  0  0  0  0
  184.8390  179.1620  139.8290 C   0  0  0  0  0  2  0  0  0  0  0  0
  182.6730  180.3020  138.7690 C   0  0  0  0  0  0  0  0  0  0  0  0
  183.6530  179.7860  139.2450 C   0  0  0  0  0  0  0  0  0  0  0  0
  181.4830  180.9270  138.1930 C   0  0  0  0  0  2  0  0  0  0  0  0
  181.6800  182.2910  138.0970 F   0  0  0  0  0  0  0  0  0  0  0  0
  1  6  1  1  0  0  0
  4 25  1  6  0  0  0
  4  7  1  0  0  0  0
  4  9  1  0  0  0  0
  5  1  1  0  0  0  0
  7  2  1  6  0  0  0
  7  8  1  0  0  0  0
  8 10  1  6  0  0  0
  8  5  1  0  0  0  0
  9  3  1  1  0  0  0
  9 11  1  0  0  0  0
 11 12  1  6  0  0  0
 11  1  1  0  0  0  0
 12 13  1  6  0  0  0
 12 14  1  0  0  0  0
 14 21  1  1  0  0  0
 16 17  2  0  0  0  0
 17 15  2  0  0  0  0
 17 14  1  0  0  0  0
 18 17  1  0  0  0  0
 18 20  1  0  0  0  0
 19 18  1  0  0  0  0
 21 22  1  0  0  0  0
 22 24  1  0  0  0  0
 24 23  1  0  0  0  0
 26 25  1  0  0  0  0
 27 28  3  0  0  0  0
 28 26  1  0  0  0  0
 29 27  1  0  0  0  0
 30 29  1  0  0  0  0
M  END
>  <MODEL>
7

>  <REMARK>
 VINA RESULT:      -6.4      3.905      7.097
  Name = 
  11 active torsions:
  status: ('A' for Active; 'I' for Inactive)
    1  A    between atoms: C_1  and  C_4
    2  A    between atoms: C_1  and  C_29
    3  A    between atoms: C_4  and  C_5
    4  A    between atoms: C_4  and  S_12
    5  A    between atoms: C_5  and  C_21
    6  A    between atoms: C_10  and  C_16
    7  A    between atoms: C_11  and  C_24
    8  A    between atoms: S_12  and  C_13
    9  A    between atoms: C_15  and  C_24
   10  A    between atoms: C_15  and  C_25
   11  A    between atoms: C_17  and  C_21
                            x       y       z     vdW  Elec       q    Type
                         _______ _______ _______ _____ _____    ______ ____

>  <TORSDO>
F 11

$$$$
=
 OpenBabel10272414023D

 30 30  0  0  1  0  0  0  0  0999 V2000
  185.7440  178.1330  142.5190 C   0  0  2  0  0  3  0  0  0  0  0  0
  186.4110  177.8620  138.1600 O   0  0  0  0  0  1  0  0  0  0  0  0
  188.3690  179.6600  141.2210 O   0  0  0  0  0  1  0  0  0  0  0  0
  187.5950  177.5720  140.2380 C   0  0  2  0  0  3  0  0  0  0  0  0
  185.3070  179.1650  141.4960 C   0  0  0  0  0  2  0  0  0  0  0  0
  185.0230  178.4120  143.8240 C   0  0  0  0  0  1  0  0  0  0  0  0
  186.5870  178.4170  139.4330 C   0  0  2  0  0  3  0  0  0  0  0  0
  185.2200  178.5240  140.1200 C   0  0  2  0  0  3  0  0  0  0  0  0
  188.1210  178.3100  141.4800 C   0  0  2  0  0  3  0  0  0  0  0  0
  184.2740  179.3570  139.2730 C   0  0  0  0  0  1  0  0  0  0  0  0
  187.2620  178.1470  142.7470 C   0  0  2  0  0  3  0  0  0  0  0  0
  187.6950  176.9410  143.5980 C   0  0  1  0  0  3  0  0  0  0  0  0
  188.2580  175.9270  142.8180 O   0  0  0  0  0  1  0  0  0  0  0  0
  188.5900  177.2890  144.7970 C   0  0  2  0  0  3  0  0  0  0  0  0
  186.3430  176.8370  146.2190 O   0  0  0  0  0  0  0  0  0  0  0  0
  187.2970  179.0910  146.3160 O   0  0  0  0  0  0  0  0  0  0  0  0
  187.6230  177.6250  146.2640 S   0  0  0  0  0  0  0  0  0  0  0  0
  188.5480  177.1680  147.7220 C   0  0  0  0  0  3  0  0  0  0  0  0
  189.7730  176.3670  147.3330 C   0  0  0  0  0  1  0  0  0  0  0  0
  188.9730  178.4100  148.4800 C   0  0  0  0  0  1  0  0  0  0  0  0
  189.5620  178.4300  144.5300 C   0  0  0  0  0  2  0  0  0  0  0  0
  190.9910  177.9610  144.7120 C   0  0  0  0  0  2  0  0  0  0  0  0
  191.6070  175.7830  143.7180 C   0  0  0  0  0  1  0  0  0  0  0  0
  191.4570  177.2650  143.4510 C   0  0  0  0  0  2  0  0  0  0  0  0
  188.7850  177.1750  139.3720 C   0  0  0  0  0  2  0  0  0  0  0  0
  190.0570  177.1660  140.1970 C   0  0  0  0  0  2  0  0  0  0  0  0
  192.1310  176.5440  138.6400 C   0  0  0  0  0  0  0  0  0  0  0  0
  191.1920  176.8230  139.3420 C   0  0  0  0  0  0  0  0  0  0  0  0
  193.2710  176.2070  137.7880 C   0  0  0  0  0  2  0  0  0  0  0  0
  194.1330  175.3760  138.4780 F   0  0  0  0  0  0  0  0  0  0  0  0
  1 11  1  0  0  0  0
  1  6  1  1  0  0  0
  4 25  1  6  0  0  0
  4  9  1  0  0  0  0
  5  1  1  0  0  0  0
  7  2  1  6  0  0  0
  7  8  1  0  0  0  0
  7  4  1  0  0  0  0
  8 10  1  6  0  0  0
  8  5  1  0  0  0  0
  9  3  1  6  0  0  0
  9 11  1  0  0  0  0
 11 12  1  6  0  0  0
 12 13  1  6  0  0  0
 12 14  1  0  0  0  0
 14 21  1  6  0  0  0
 14 17  1  0  0  0  0
 15 17  2  0  0  0  0
 17 16  2  0  0  0  0
 17 18  1  0  0  0  0
 18 20  1  0  0  0  0
 19 18  1  0  0  0  0
 21 22  1  0  0  0  0
 24 23  1  0  0  0  0
 24 22  1  0  0  0  0
 25 26  1  0  0  0  0
 27 28  3  0  0  0  0
 28 26  1  0  0  0  0
 29 30  1  0  0  0  0
 29 27  1  0  0  0  0
M  END
>  <MODEL>
8

>  <REMARK>
 VINA RESULT:      -6.1      2.779      6.186
  Name = 
  11 active torsions:
  status: ('A' for Active; 'I' for Inactive)
    1  A    between atoms: C_1  and  C_4
    2  A    between atoms: C_1  and  C_29
    3  A    between atoms: C_4  and  C_5
    4  A    between atoms: C_4  and  S_12
    5  A    between atoms: C_5  and  C_21
    6  A    between atoms: C_10  and  C_16
    7  A    between atoms: C_11  and  C_24
    8  A    between atoms: S_12  and  C_13
    9  A    between atoms: C_15  and  C_24
   10  A    between atoms: C_15  and  C_25
   11  A    between atoms: C_17  and  C_21
                            x       y       z     vdW  Elec       q    Type
                         _______ _______ _______ _____ _____    ______ ____

>  <TORSDO>
F 11

$$$$
=
 OpenBabel10272414023D

 30 30  0  0  1  0  0  0  0  0999 V2000
  185.9220  178.0320  142.7290 C   0  0  2  0  0  3  0  0  0  0  0  0
  186.3830  178.3650  138.3470 O   0  0  0  0  0  1  0  0  0  0  0  0
  188.2510  180.0430  141.5310 O   0  0  0  0  0  1  0  0  0  0  0  0
  187.7040  177.9980  140.3280 C   0  0  2  0  0  3  0  0  0  0  0  0
  185.2990  179.1080  141.8580 C   0  0  0  0  0  2  0  0  0  0  0  0
  185.2420  178.0560  144.0850 C   0  0  0  0  0  1  0  0  0  0  0  0
  186.5530  178.7870  139.6710 C   0  0  2  0  0  3  0  0  0  0  0  0
  185.2230  178.6260  140.4180 C   0  0  2  0  0  3  0  0  0  0  0  0
  188.1960  178.6510  141.6310 C   0  0  2  0  0  3  0  0  0  0  0  0
  184.1310  179.4150  139.7160 C   0  0  0  0  0  1  0  0  0  0  0  0
  187.4350  178.2250  142.8990 C   0  0  2  0  0  3  0  0  0  0  0  0
  188.0670  176.9980  143.5780 C   0  0  1  0  0  3  0  0  0  0  0  0
  188.5510  176.0770  142.6460 O   0  0  0  0  0  1  0  0  0  0  0  0
  189.1260  177.3270  144.6420 C   0  0  2  0  0  3  0  0  0  0  0  0
  190.5370  175.4450  143.3240 O   0  0  0  0  0  0  0  0  0  0  0  0
  191.4240  176.2080  145.4750 O   0  0  0  0  0  0  0  0  0  0  0  0
  190.7210  176.6390  144.2180 S   0  0  0  0  0  0  0  0  0  0  0  0
  191.7090  177.8640  143.3740 C   0  0  0  0  0  3  0  0  0  0  0  0
  191.6210  177.6620  141.8750 C   0  0  0  0  0  1  0  0  0  0  0  0
  191.2260  179.2570  143.7270 C   0  0  0  0  0  1  0  0  0  0  0  0
  188.7290  176.9140  146.0540 C   0  0  0  0  0  2  0  0  0  0  0  0
  189.2020  177.9450  147.0590 C   0  0  0  0  0  2  0  0  0  0  0  0
  186.7700  178.2350  147.3890 C   0  0  0  0  0  1  0  0  0  0  0  0
  188.1140  178.1850  148.0830 C   0  0  0  0  0  2  0  0  0  0  0  0
  188.8880  177.8720  139.3750 C   0  0  0  0  0  2  0  0  0  0  0  0
  189.0880  176.4240  138.9730 C   0  0  0  0  0  2  0  0  0  0  0  0
  191.5750  176.0770  138.0720 C   0  0  0  0  0  0  0  0  0  0  0  0
  190.4520  176.2370  138.4790 C   0  0  0  0  0  0  0  0  0  0  0  0
  192.9380  175.8810  137.5790 C   0  0  0  0  0  2  0  0  0  0  0  0
  193.8320  176.0470  138.6190 F   0  0  0  0  0  0  0  0  0  0  0  0
  1 11  1  0  0  0  0
  1  6  1  1  0  0  0
  4 25  1  6  0  0  0
  4  9  1  0  0  0  0
  5  1  1  0  0  0  0
  7  2  1  6  0  0  0
  7  4  1  0  0  0  0
  7  8  1  0  0  0  0
  8 10  1  6  0  0  0
  8  5  1  0  0  0  0
  9  3  1  6  0  0  0
  9 11  1  0  0  0  0
 11 12  1  6  0  0  0
 12 13  1  6  0  0  0
 12 14  1  0  0  0  0
 14 21  1  1  0  0  0
 15 17  2  0  0  0  0
 17 14  1  0  0  0  0
 17 16  2  0  0  0  0
 18 20  1  0  0  0  0
 18 17  1  0  0  0  0
 19 18  1  0  0  0  0
 21 22  1  0  0  0  0
 22 24  1  0  0  0  0
 23 24  1  0  0  0  0
 26 25  1  0  0  0  0
 27 28  3  0  0  0  0
 28 26  1  0  0  0  0
 29 27  1  0  0  0  0
 29 30  1  0  0  0  0
M  END
>  <MODEL>
9

>  <REMARK>
 VINA RESULT:      -5.8      2.797      5.997
  Name = 
  11 active torsions:
  status: ('A' for Active; 'I' for Inactive)
    1  A    between atoms: C_1  and  C_4
    2  A    between atoms: C_1  and  C_29
    3  A    between atoms: C_4  and  C_5
    4  A    between atoms: C_4  and  S_12
    5  A    between atoms: C_5  and  C_21
    6  A    between atoms: C_10  and  C_16
    7  A    between atoms: C_11  and  C_24
    8  A    between atoms: S_12  and  C_13
    9  A    between atoms: C_15  and  C_24
   10  A    between atoms: C_15  and  C_25
   11  A    between atoms: C_17  and  C_21
                            x       y       z     vdW  Elec       q    Type
                         _______ _______ _______ _____ _____    ______ ____

>  <TORSDO>
F 11

$$$$
