=
 OpenBabel10272400143D

 31 34  0  0  1  0  0  0  0  0999 V2000
  183.6800  178.6690  143.2350 C   0  0  0  0  0  0  0  0  0  0  0  0
  187.3490  177.8690  143.5240 C   0  0  0  0  0  0  0  0  0  0  0  0
  187.6040  177.5610  144.8970 C   0  0  0  0  0  0  0  0  0  0  0  0
  186.5830  178.4010  146.9890 C   0  0  0  0  0  3  0  0  0  0  0  0
  186.0680  178.2150  142.9940 C   0  0  0  0  0  0  0  0  0  0  0  0
  183.5750  178.9180  141.8680 C   0  0  0  0  0  3  0  0  0  0  0  0
  186.4950  177.3950  145.8940 C   0  0  0  0  0  2  0  0  0  0  0  0
  188.2580  178.0970  141.2610 C   0  0  0  0  0  0  0  0  0  0  0  0
  182.2650  178.7890  144.2590 Cl  0  0  0  0  0  0  0  0  0  0  0  0
  189.9440  177.2460  144.3750 C   0  0  0  0  0  3  0  0  0  0  0  0
  187.5820  178.4130  147.8690 C   0  0  0  0  0  3  0  0  0  0  0  0
  187.0250  178.4130  140.7950 N   0  0  0  0  0  0  0  0  0  0  0  0
  188.4480  177.8250  142.6240 C   0  0  0  0  0  0  0  0  0  0  0  0
  184.9130  178.3230  143.7900 C   0  0  0  0  0  3  0  0  0  0  0  0
  188.7440  177.5060  147.8230 C   0  0  0  0  0  3  0  0  0  0  0  0
  185.9430  178.4810  141.6060 C   0  0  0  0  0  0  0  0  0  0  0  0
  184.7050  178.8250  141.0560 C   0  0  0  0  0  3  0  0  0  0  0  0
  189.6910  177.5100  143.0730 N   0  0  0  0  0  0  0  0  0  0  0  0
  188.9240  177.2840  145.3180 C   0  0  0  0  0  0  0  0  0  0  0  0
  189.3160  177.0120  146.7180 C   0  0  0  0  0  3  0  0  0  0  0  0
  189.4050  178.0650  140.2990 C   0  0  0  0  0  2  0  0  0  0  0  0
  189.3310  178.7910  137.9000 C   0  0  0  0  0  1  0  0  0  0  0  0
  188.9270  177.7150  138.8950 C   0  0  1  0  0  3  0  0  0  0  0  0
  190.4600  175.8980  139.0910 O   0  0  0  0  0  0  0  0  0  0  0  0
  189.4730  176.3860  138.4750 C   0  0  0  0  0  0  0  0  0  0  0  0
  189.5710  175.2760  136.3920 O   0  0  0  0  0  0  0  0  0  0  0  0
  188.8430  175.6590  137.3460 C   0  0  0  0  0  0  0  0  0  0  0  0
  186.9430  174.2180  136.9510 C   0  0  0  0  0  3  0  0  0  0  0  0
  187.4390  175.3660  137.2850 N   0  0  0  0  0  0  0  0  0  0  0  0
  185.4670  174.0150  136.9160 C   0  0  0  0  0  2  0  0  0  0  0  0
  185.0870  172.7890  137.7210 C   0  0  0  0  0  1  0  0  0  0  0  0
  1 14  1  0  0  0  0
  1  9  1  0  0  0  0
  2  3  1  0  0  0  0
  3 19  2  0  0  0  0
  3  7  1  0  0  0  0
  4 11  2  0  0  0  0
  5  2  1  0  0  0  0
  5 14  2  0  0  0  0
  6  1  2  0  0  0  0
  7  4  1  0  0  0  0
  8 13  1  0  0  0  0
 10 19  1  0  0  0  0
 12  8  2  0  0  0  0
 12 16  1  0  0  0  0
 13 18  1  0  0  0  0
 13  2  2  0  0  0  0
 15 11  1  0  0  0  0
 16  5  1  0  0  0  0
 17 16  2  0  0  0  0
 17  6  1  0  0  0  0
 18 10  2  0  0  0  0
 19 20  1  0  0  0  0
 20 15  2  0  0  0  0
 21  8  1  0  0  0  0
 23 22  1  6  0  0  0
 23 21  1  0  0  0  0
 25 23  1  0  0  0  0
 25 24  2  0  0  0  0
 26 27  2  0  0  0  0
 27 25  1  0  0  0  0
 28 29  2  0  0  0  0
 29 27  1  0  0  0  0
 30 28  1  0  0  0  0
 30 31  1  0  0  0  0
M  END
>  <MODEL>
1

>  <REMARK>
 VINA RESULT:      -9.8      0.000      0.000
  Name = 
  6 active torsions:
  status: ('A' for Active; 'I' for Inactive)
    1  A    between atoms: C_1  and  C_11
    2  A    between atoms: C_9  and  C_22
    3  A    between atoms: C_9  and  C_23
    4  A    between atoms: C_15  and  C_23
    5  A    between atoms: C_19  and  C_22
    6  A    between atoms: C_19  and  N_24
                            x       y       z     vdW  Elec       q    Type
                         _______ _______ _______ _____ _____    ______ ____

>  <TORSDO>
F 6

$$$$
=
 OpenBabel10272400143D

 31 34  0  0  1  0  0  0  0  0999 V2000
  184.0310  178.6120  143.4360 C   0  0  0  0  0  0  0  0  0  0  0  0
  187.6730  177.7490  143.8580 C   0  0  0  0  0  0  0  0  0  0  0  0
  187.8820  177.4840  145.2490 C   0  0  0  0  0  0  0  0  0  0  0  0
  186.8210  178.4180  147.2790 C   0  0  0  0  0  3  0  0  0  0  0  0
  186.4150  178.1020  143.2810 C   0  0  0  0  0  0  0  0  0  0  0  0
  183.9700  178.8150  142.0590 C   0  0  0  0  0  3  0  0  0  0  0  0
  186.7430  177.3750  146.2170 C   0  0  0  0  0  2  0  0  0  0  0  0
  188.6500  177.8800  141.6160 C   0  0  0  0  0  0  0  0  0  0  0  0
  182.5910  178.7950  144.4140 Cl  0  0  0  0  0  0  0  0  0  0  0  0
  190.2290  177.1050  144.8050 C   0  0  0  0  0  3  0  0  0  0  0  0
  187.7940  178.4400  148.1870 C   0  0  0  0  0  3  0  0  0  0  0  0
  187.4380  178.2040  141.1040 N   0  0  0  0  0  0  0  0  0  0  0  0
  188.7960  177.6520  142.9920 C   0  0  0  0  0  0  0  0  0  0  0  0
  185.2410  178.2610  144.0380 C   0  0  0  0  0  3  0  0  0  0  0  0
  188.9380  177.5090  148.2060 C   0  0  0  0  0  3  0  0  0  0  0  0
  186.3350  178.3220  141.8810 C   0  0  0  0  0  0  0  0  0  0  0  0
  185.1200  178.6710  141.2840 C   0  0  0  0  0  3  0  0  0  0  0  0
  190.0180  177.3280  143.4880 N   0  0  0  0  0  0  0  0  0  0  0  0
  189.1850  177.1960  145.7160 C   0  0  0  0  0  0  0  0  0  0  0  0
  189.5300  176.9650  147.1360 C   0  0  0  0  0  3  0  0  0  0  0  0
  189.8220  177.7910  140.6890 C   0  0  0  0  0  2  0  0  0  0  0  0
  189.2050  178.6650  138.4220 C   0  0  0  0  0  1  0  0  0  0  0  0
  189.3750  177.4220  139.2810 C   0  0  1  0  0  3  0  0  0  0  0  0
  191.5890  176.6260  138.8880 O   0  0  0  0  0  0  0  0  0  0  0  0
  190.3580  176.4850  138.6510 C   0  0  0  0  0  0  0  0  0  0  0  0
  190.5030  174.3120  137.7370 O   0  0  0  0  0  0  0  0  0  0  0  0
  189.8720  175.4010  137.7630 C   0  0  0  0  0  0  0  0  0  0  0  0
  188.7040  176.1120  135.7690 C   0  0  0  0  0  3  0  0  0  0  0  0
  188.7120  175.5310  136.9260 N   0  0  0  0  0  0  0  0  0  0  0  0
  187.4460  176.1960  134.9760 C   0  0  0  0  0  2  0  0  0  0  0  0
  186.6990  177.4720  135.3110 C   0  0  0  0  0  1  0  0  0  0  0  0
  1 14  1  0  0  0  0
  1  9  1  0  0  0  0
  2  3  1  0  0  0  0
  3 19  2  0  0  0  0
  3  7  1  0  0  0  0
  4 11  2  0  0  0  0
  5  2  1  0  0  0  0
  5 14  2  0  0  0  0
  6  1  2  0  0  0  0
  7  4  1  0  0  0  0
  8 13  1  0  0  0  0
 10 19  1  0  0  0  0
 11 15  1  0  0  0  0
 12  8  2  0  0  0  0
 12 16  1  0  0  0  0
 13 18  1  0  0  0  0
 13  2  2  0  0  0  0
 16  5  1  0  0  0  0
 17 16  2  0  0  0  0
 17  6  1  0  0  0  0
 18 10  2  0  0  0  0
 19 20  1  0  0  0  0
 20 15  2  0  0  0  0
 21  8  1  0  0  0  0
 23 22  1  6  0  0  0
 23 21  1  0  0  0  0
 25 24  2  0  0  0  0
 25 23  1  0  0  0  0
 26 27  2  0  0  0  0
 27 25  1  0  0  0  0
 28 29  2  0  0  0  0
 29 27  1  0  0  0  0
 30 31  1  0  0  0  0
 30 28  1  0  0  0  0
M  END
>  <MODEL>
2

>  <REMARK>
 VINA RESULT:      -9.7      1.393      1.457
  Name = 
  6 active torsions:
  status: ('A' for Active; 'I' for Inactive)
    1  A    between atoms: C_1  and  C_11
    2  A    between atoms: C_9  and  C_22
    3  A    between atoms: C_9  and  C_23
    4  A    between atoms: C_15  and  C_23
    5  A    between atoms: C_19  and  C_22
    6  A    between atoms: C_19  and  N_24
                            x       y       z     vdW  Elec       q    Type
                         _______ _______ _______ _____ _____    ______ ____

>  <TORSDO>
F 6

$$$$
=
 OpenBabel10272400143D

 31 34  0  0  1  0  0  0  0  0999 V2000
  184.0200  178.6460  143.2020 C   0  0  0  0  0  0  0  0  0  0  0  0
  187.6440  177.7820  143.7590 C   0  0  0  0  0  0  0  0  0  0  0  0
  187.7950  177.4850  145.1510 C   0  0  0  0  0  0  0  0  0  0  0  0
  186.6450  178.3690  147.1560 C   0  0  0  0  0  3  0  0  0  0  0  0
  186.4100  178.1450  143.1370 C   0  0  0  0  0  0  0  0  0  0  0  0
  184.0180  178.8800  141.8290 C   0  0  0  0  0  3  0  0  0  0  0  0
  186.6150  177.3510  146.0670 C   0  0  0  0  0  2  0  0  0  0  0  0
  188.7150  177.9670  141.5640 C   0  0  0  0  0  0  0  0  0  0  0  0
  182.5390  178.8030  144.1220 Cl  0  0  0  0  0  0  0  0  0  0  0  0
  190.1600  177.1220  144.7990 C   0  0  0  0  0  3  0  0  0  0  0  0
  187.5790  178.3720  148.1040 C   0  0  0  0  0  3  0  0  0  0  0  0
  187.5250  178.3000  141.0090 N   0  0  0  0  0  0  0  0  0  0  0  0
  188.8030  177.7070  142.9400 C   0  0  0  0  0  0  0  0  0  0  0  0
  185.2050  178.2830  143.8470 C   0  0  0  0  0  3  0  0  0  0  0  0
  188.7230  177.4440  148.1510 C   0  0  0  0  0  3  0  0  0  0  0  0
  186.3890  178.3970  141.7410 C   0  0  0  0  0  0  0  0  0  0  0  0
  185.2000  178.7570  141.1000 C   0  0  0  0  0  3  0  0  0  0  0  0
  190.0040  177.3750  143.4800 N   0  0  0  0  0  0  0  0  0  0  0  0
  189.0770  177.1890  145.6670 C   0  0  0  0  0  0  0  0  0  0  0  0
  189.3630  176.9270  147.0940 C   0  0  0  0  0  3  0  0  0  0  0  0
  189.9260  177.9020  140.6870 C   0  0  0  0  0  2  0  0  0  0  0  0
  189.2390  178.4670  138.3430 C   0  0  0  0  0  1  0  0  0  0  0  0
  189.5730  177.3460  139.3140 C   0  0  1  0  0  3  0  0  0  0  0  0
  191.8880  176.8210  139.0790 O   0  0  0  0  0  0  0  0  0  0  0  0
  190.7000  176.5170  138.7820 C   0  0  0  0  0  0  0  0  0  0  0  0
  189.2510  175.2290  137.4320 O   0  0  0  0  0  0  0  0  0  0  0  0
  190.4060  175.3450  137.9210 C   0  0  0  0  0  0  0  0  0  0  0  0
  192.1210  174.3250  136.5570 C   0  0  0  0  0  3  0  0  0  0  0  0
  191.3750  174.3310  137.6150 N   0  0  0  0  0  0  0  0  0  0  0  0
  193.0980  173.2240  136.3280 C   0  0  0  0  0  2  0  0  0  0  0  0
  194.2190  173.2980  137.3460 C   0  0  0  0  0  1  0  0  0  0  0  0
  1 14  1  0  0  0  0
  1  9  1  0  0  0  0
  2  3  1  0  0  0  0
  3 19  2  0  0  0  0
  3  7  1  0  0  0  0
  4 11  2  0  0  0  0
  5  2  1  0  0  0  0
  5 14  2  0  0  0  0
  6  1  2  0  0  0  0
  7  4  1  0  0  0  0
  8 13  1  0  0  0  0
 10 19  1  0  0  0  0
 11 15  1  0  0  0  0
 12  8  2  0  0  0  0
 12 16  1  0  0  0  0
 13 18  1  0  0  0  0
 13  2  2  0  0  0  0
 16  5  1  0  0  0  0
 17 16  2  0  0  0  0
 17  6  1  0  0  0  0
 18 10  2  0  0  0  0
 19 20  1  0  0  0  0
 20 15  2  0  0  0  0
 21  8  1  0  0  0  0
 23 22  1  6  0  0  0
 23 21  1  0  0  0  0
 25 24  2  0  0  0  0
 25 23  1  0  0  0  0
 26 27  2  0  0  0  0
 27 25  1  0  0  0  0
 28 29  2  0  0  0  0
 29 27  1  0  0  0  0
 30 28  1  0  0  0  0
 30 31  1  0  0  0  0
M  END
>  <MODEL>
3

>  <REMARK>
 VINA RESULT:      -9.4      1.852      2.540
  Name = 
  6 active torsions:
  status: ('A' for Active; 'I' for Inactive)
    1  A    between atoms: C_1  and  C_11
    2  A    between atoms: C_9  and  C_22
    3  A    between atoms: C_9  and  C_23
    4  A    between atoms: C_15  and  C_23
    5  A    between atoms: C_19  and  C_22
    6  A    between atoms: C_19  and  N_24
                            x       y       z     vdW  Elec       q    Type
                         _______ _______ _______ _____ _____    ______ ____

>  <TORSDO>
F 6

$$$$
=
 OpenBabel10272400143D

 31 34  0  0  1  0  0  0  0  0999 V2000
  184.2920  178.6410  143.5790 C   0  0  0  0  0  0  0  0  0  0  0  0
  187.9140  177.7810  143.0060 C   0  0  0  0  0  0  0  0  0  0  0  0
  188.4420  177.3360  144.2590 C   0  0  0  0  0  0  0  0  0  0  0  0
  187.9100  177.9760  146.5890 C   0  0  0  0  0  3  0  0  0  0  0  0
  186.5610  178.1900  142.7950 C   0  0  0  0  0  0  0  0  0  0  0  0
  183.9100  179.0250  142.2950 C   0  0  0  0  0  3  0  0  0  0  0  0
  187.5630  177.0830  145.4470 C   0  0  0  0  0  2  0  0  0  0  0  0
  188.3330  178.2220  140.6330 C   0  0  0  0  0  0  0  0  0  0  0  0
  183.1280  178.6730  144.8860 Cl  0  0  0  0  0  0  0  0  0  0  0  0
  190.6100  177.0520  143.2250 C   0  0  0  0  0  3  0  0  0  0  0  0
  189.0710  177.8910  147.2340 C   0  0  0  0  0  3  0  0  0  0  0  0
  187.0410  178.5950  140.4720 N   0  0  0  0  0  0  0  0  0  0  0  0
  188.7980  177.8150  141.8930 C   0  0  0  0  0  0  0  0  0  0  0  0
  185.6030  178.2300  143.8240 C   0  0  0  0  0  3  0  0  0  0  0  0
  190.1690  176.9820  146.8580 C   0  0  0  0  0  3  0  0  0  0  0  0
  186.1560  178.5930  141.4970 C   0  0  0  0  0  0  0  0  0  0  0  0
  184.8410  179.0010  141.2560 C   0  0  0  0  0  3  0  0  0  0  0  0
  190.0970  177.4450  142.0370 N   0  0  0  0  0  0  0  0  0  0  0  0
  189.8120  177.0060  144.3610 C   0  0  0  0  0  0  0  0  0  0  0  0
  190.4810  176.5930  145.6150 C   0  0  0  0  0  3  0  0  0  0  0  0
  189.2510  178.2730  139.4520 C   0  0  0  0  0  2  0  0  0  0  0  0
  189.0220  179.0660  137.0840 C   0  0  0  0  0  1  0  0  0  0  0  0
  188.4700  178.1340  138.1510 C   0  0  1  0  0  3  0  0  0  0  0  0
  189.6090  176.1090  137.6090 O   0  0  0  0  0  0  0  0  0  0  0  0
  188.5040  176.7160  137.6720 C   0  0  0  0  0  0  0  0  0  0  0  0
  187.1900  174.7840  137.3250 O   0  0  0  0  0  0  0  0  0  0  0  0
  187.2410  176.0420  137.2870 C   0  0  0  0  0  0  0  0  0  0  0  0
  184.9020  176.6380  137.4290 C   0  0  0  0  0  3  0  0  0  0  0  0
  186.0650  176.7530  136.8710 N   0  0  0  0  0  0  0  0  0  0  0  0
  183.7410  177.4200  136.9220 C   0  0  0  0  0  2  0  0  0  0  0  0
  183.0960  178.1960  138.0530 C   0  0  0  0  0  1  0  0  0  0  0  0
  1 14  1  0  0  0  0
  1  9  1  0  0  0  0
  2  3  1  0  0  0  0
  3 19  2  0  0  0  0
  3  7  1  0  0  0  0
  4 11  2  0  0  0  0
  5  2  1  0  0  0  0
  5 14  2  0  0  0  0
  6  1  2  0  0  0  0
  7  4  1  0  0  0  0
  8 13  1  0  0  0  0
 10 19  1  0  0  0  0
 12  8  2  0  0  0  0
 12 16  1  0  0  0  0
 13 18  1  0  0  0  0
 13  2  2  0  0  0  0
 15 11  1  0  0  0  0
 16  5  1  0  0  0  0
 17 16  2  0  0  0  0
 17  6  1  0  0  0  0
 18 10  2  0  0  0  0
 19 20  1  0  0  0  0
 20 15  2  0  0  0  0
 21  8  1  0  0  0  0
 23 22  1  6  0  0  0
 23 21  1  0  0  0  0
 24 25  2  0  0  0  0
 25 23  1  0  0  0  0
 27 26  2  0  0  0  0
 27 25  1  0  0  0  0
 29 27  1  0  0  0  0
 29 28  2  0  0  0  0
 30 28  1  0  0  0  0
 30 31  1  0  0  0  0
M  END
>  <MODEL>
4

>  <REMARK>
 VINA RESULT:      -9.4      1.486      1.813
  Name = 
  6 active torsions:
  status: ('A' for Active; 'I' for Inactive)
    1  A    between atoms: C_1  and  C_11
    2  A    between atoms: C_9  and  C_22
    3  A    between atoms: C_9  and  C_23
    4  A    between atoms: C_15  and  C_23
    5  A    between atoms: C_19  and  C_22
    6  A    between atoms: C_19  and  N_24
                            x       y       z     vdW  Elec       q    Type
                         _______ _______ _______ _____ _____    ______ ____

>  <TORSDO>
F 6

$$$$
=
 OpenBabel10272400143D

 31 34  0  0  1  0  0  0  0  0999 V2000
  188.8870  177.6500  147.6340 C   0  0  0  0  0  0  0  0  0  0  0  0
  187.5440  177.8720  144.1220 C   0  0  0  0  0  0  0  0  0  0  0  0
  186.2570  178.4920  144.2040 C   0  0  0  0  0  0  0  0  0  0  0  0
  184.5090  178.4280  145.9540 C   0  0  0  0  0  3  0  0  0  0  0  0
  188.3940  177.6160  145.2420 C   0  0  0  0  0  0  0  0  0  0  0  0
  190.1290  177.0640  147.4000 C   0  0  0  0  0  3  0  0  0  0  0  0
  185.7490  179.1030  145.4760 C   0  0  0  0  0  2  0  0  0  0  0  0
  189.2730  176.8950  142.6880 C   0  0  0  0  0  0  0  0  0  0  0  0
  188.3990  178.0490  149.2670 Cl  0  0  0  0  0  0  0  0  0  0  0  0
  186.0110  178.2570  141.8100 C   0  0  0  0  0  3  0  0  0  0  0  0
  183.3610  178.4870  145.2840 C   0  0  0  0  0  3  0  0  0  0  0  0
  190.0530  176.6760  143.7740 N   0  0  0  0  0  0  0  0  0  0  0  0
  188.0100  177.4880  142.8350 C   0  0  0  0  0  0  0  0  0  0  0  0
  188.0300  177.9210  146.5660 C   0  0  0  0  0  3  0  0  0  0  0  0
  183.1930  179.1400  143.9730 C   0  0  0  0  0  3  0  0  0  0  0  0
  189.6580  177.0110  145.0250 C   0  0  0  0  0  0  0  0  0  0  0  0
  190.5130  176.7440  146.0980 C   0  0  0  0  0  3  0  0  0  0  0  0
  187.2410  177.7000  141.7360 N   0  0  0  0  0  0  0  0  0  0  0  0
  185.4810  178.6460  143.0330 C   0  0  0  0  0  0  0  0  0  0  0  0
  184.1150  179.2160  143.0050 C   0  0  0  0  0  3  0  0  0  0  0  0
  189.7760  176.4750  141.3420 C   0  0  0  0  0  2  0  0  0  0  0  0
  191.9250  177.6630  140.8350 C   0  0  0  0  0  1  0  0  0  0  0  0
  190.4210  177.6470  140.6140 C   0  0  1  0  0  3  0  0  0  0  0  0
  190.8700  176.9280  138.3830 O   0  0  0  0  0  0  0  0  0  0  0  0
  190.1110  177.5840  139.1500 C   0  0  0  0  0  0  0  0  0  0  0  0
  188.9880  179.5240  138.4060 O   0  0  0  0  0  0  0  0  0  0  0  0
  188.9160  178.2850  138.6230 C   0  0  0  0  0  0  0  0  0  0  0  0
  186.6280  178.2000  137.8470 C   0  0  0  0  0  3  0  0  0  0  0  0
  187.6730  177.6220  138.3460 N   0  0  0  0  0  0  0  0  0  0  0  0
  185.3820  177.4230  137.5970 C   0  0  0  0  0  2  0  0  0  0  0  0
  184.2570  177.9390  138.4720 C   0  0  0  0  0  1  0  0  0  0  0  0
  1  9  1  0  0  0  0
  2  3  1  0  0  0  0
  2  5  1  0  0  0  0
  3  7  1  0  0  0  0
  5 14  1  0  0  0  0
  6  1  1  0  0  0  0
  7  4  1  0  0  0  0
  8 13  1  0  0  0  0
  8 12  2  0  0  0  0
 10 19  1  0  0  0  0
 11  4  2  0  0  0  0
 12 16  1  0  0  0  0
 13  2  2  0  0  0  0
 14  1  2  0  0  0  0
 15 11  1  0  0  0  0
 16  5  2  0  0  0  0
 16 17  1  0  0  0  0
 17  6  2  0  0  0  0
 18 10  2  0  0  0  0
 18 13  1  0  0  0  0
 19  3  2  0  0  0  0
 20 19  1  0  0  0  0
 20 15  2  0  0  0  0
 21  8  1  0  0  0  0
 23 22  1  6  0  0  0
 23 21  1  0  0  0  0
 24 25  2  0  0  0  0
 25 23  1  0  0  0  0
 26 27  2  0  0  0  0
 27 25  1  0  0  0  0
 28 29  2  0  0  0  0
 29 27  1  0  0  0  0
 30 28  1  0  0  0  0
 30 31  1  0  0  0  0
M  END
>  <MODEL>
5

>  <REMARK>
 VINA RESULT:      -9.2      2.296      4.535
  Name = 
  6 active torsions:
  status: ('A' for Active; 'I' for Inactive)
    1  A    between atoms: C_1  and  C_11
    2  A    between atoms: C_9  and  C_22
    3  A    between atoms: C_9  and  C_23
    4  A    between atoms: C_15  and  C_23
    5  A    between atoms: C_19  and  C_22
    6  A    between atoms: C_19  and  N_24
                            x       y       z     vdW  Elec       q    Type
                         _______ _______ _______ _____ _____    ______ ____

>  <TORSDO>
F 6

$$$$
=
 OpenBabel10272400143D

 31 34  0  0  1  0  0  0  0  0999 V2000
  185.0870  178.5100  144.3710 C   0  0  0  0  0  0  0  0  0  0  0  0
  188.3540  177.6750  142.6930 C   0  0  0  0  0  0  0  0  0  0  0  0
  189.2090  177.1160  143.6960 C   0  0  0  0  0  0  0  0  0  0  0  0
  189.4000  177.5490  146.1240 C   0  0  0  0  0  3  0  0  0  0  0  0
  187.0130  178.1120  142.9230 C   0  0  0  0  0  0  0  0  0  0  0  0
  184.3610  179.0100  143.2910 C   0  0  0  0  0  3  0  0  0  0  0  0
  188.7050  176.7650  145.0640 C   0  0  0  0  0  2  0  0  0  0  0  0
  188.0800  178.3230  140.3470 C   0  0  0  0  0  0  0  0  0  0  0  0
  184.3560  178.4340  145.9590 Cl  0  0  0  0  0  0  0  0  0  0  0  0
  190.9700  176.9070  142.0520 C   0  0  0  0  0  3  0  0  0  0  0  0
  190.6940  177.3970  146.3910 C   0  0  0  0  0  3  0  0  0  0  0  0
  186.8090  178.7190  140.6030 N   0  0  0  0  0  0  0  0  0  0  0  0
  188.8760  177.8010  141.3780 C   0  0  0  0  0  0  0  0  0  0  0  0
  186.3980  178.0680  144.1860 C   0  0  0  0  0  3  0  0  0  0  0  0
  191.6040  176.5170  145.6360 C   0  0  0  0  0  3  0  0  0  0  0  0
  186.2620  178.6320  141.8380 C   0  0  0  0  0  0  0  0  0  0  0  0
  184.9480  179.0720  142.0280 C   0  0  0  0  0  3  0  0  0  0  0  0
  190.1480  177.4090  141.1030 N   0  0  0  0  0  0  0  0  0  0  0  0
  190.5380  176.7670  143.3640 C   0  0  0  0  0  0  0  0  0  0  0  0
  191.5270  176.2380  144.3290 C   0  0  0  0  0  3  0  0  0  0  0  0
  188.6150  178.4720  138.9570 C   0  0  0  0  0  2  0  0  0  0  0  0
  187.1590  177.6580  137.0860 C   0  0  0  0  0  1  0  0  0  0  0  0
  188.2300  177.2770  138.0950 C   0  0  1  0  0  3  0  0  0  0  0  0
  190.1040  177.4820  136.6340 O   0  0  0  0  0  0  0  0  0  0  0  0
  189.4340  176.7300  137.3940 C   0  0  0  0  0  0  0  0  0  0  0  0
  190.7850  175.0670  138.3900 O   0  0  0  0  0  0  0  0  0  0  0  0
  189.8290  175.3170  137.6090 C   0  0  0  0  0  0  0  0  0  0  0  0
  188.5030  174.2960  135.8640 C   0  0  0  0  0  3  0  0  0  0  0  0
  189.1730  174.2110  136.9680 N   0  0  0  0  0  0  0  0  0  0  0  0
  187.8560  173.0880  135.2790 C   0  0  0  0  0  2  0  0  0  0  0  0
  187.9120  171.9360  136.2610 C   0  0  0  0  0  1  0  0  0  0  0  0
  1  9  1  0  0  0  0
  2  5  1  0  0  0  0
  2  3  1  0  0  0  0
  3  7  1  0  0  0  0
  4 11  2  0  0  0  0
  5 14  2  0  0  0  0
  6  1  2  0  0  0  0
  7  4  1  0  0  0  0
  8 12  2  0  0  0  0
  8 13  1  0  0  0  0
 10 19  1  0  0  0  0
 12 16  1  0  0  0  0
 13  2  2  0  0  0  0
 14  1  1  0  0  0  0
 15 11  1  0  0  0  0
 16 17  2  0  0  0  0
 16  5  1  0  0  0  0
 17  6  1  0  0  0  0
 18 13  1  0  0  0  0
 18 10  2  0  0  0  0
 19  3  2  0  0  0  0
 19 20  1  0  0  0  0
 20 15  2  0  0  0  0
 21  8  1  0  0  0  0
 23 22  1  6  0  0  0
 23 21  1  0  0  0  0
 24 25  2  0  0  0  0
 25 27  1  0  0  0  0
 25 23  1  0  0  0  0
 27 26  2  0  0  0  0
 28 29  2  0  0  0  0
 29 27  1  0  0  0  0
 30 28  1  0  0  0  0
 30 31  1  0  0  0  0
M  END
>  <MODEL>
6

>  <REMARK>
 VINA RESULT:      -9.1      1.651      2.220
  Name = 
  6 active torsions:
  status: ('A' for Active; 'I' for Inactive)
    1  A    between atoms: C_1  and  C_11
    2  A    between atoms: C_9  and  C_22
    3  A    between atoms: C_9  and  C_23
    4  A    between atoms: C_15  and  C_23
    5  A    between atoms: C_19  and  C_22
    6  A    between atoms: C_19  and  N_24
                            x       y       z     vdW  Elec       q    Type
                         _______ _______ _______ _____ _____    ______ ____

>  <TORSDO>
F 6

$$$$
=
 OpenBabel10272400143D

 31 34  0  0  1  0  0  0  0  0999 V2000
  186.6250  178.0410  146.8470 C   0  0  0  0  0  0  0  0  0  0  0  0
  187.2330  178.0440  143.1300 C   0  0  0  0  0  0  0  0  0  0  0  0
  188.5920  177.6470  142.9270 C   0  0  0  0  0  0  0  0  0  0  0  0
  190.6300  178.0010  144.2850 C   0  0  0  0  0  3  0  0  0  0  0  0
  186.6030  178.1550  144.4070 C   0  0  0  0  0  0  0  0  0  0  0  0
  185.2830  178.4130  146.8910 C   0  0  0  0  0  3  0  0  0  0  0  0
  189.4450  177.1290  144.0470 C   0  0  0  0  0  2  0  0  0  0  0  0
  185.1100  178.7200  142.1110 C   0  0  0  0  0  0  0  0  0  0  0  0
  187.4980  177.7290  148.3320 Cl  0  0  0  0  0  0  0  0  0  0  0  0
  188.2970  177.9180  140.5420 C   0  0  0  0  0  3  0  0  0  0  0  0
  191.6090  178.1330  143.3940 C   0  0  0  0  0  3  0  0  0  0  0  0
  184.5450  178.8060  143.3400 N   0  0  0  0  0  0  0  0  0  0  0  0
  186.4560  178.3450  141.9780 C   0  0  0  0  0  0  0  0  0  0  0  0
  187.2760  177.9160  145.6180 C   0  0  0  0  0  3  0  0  0  0  0  0
  191.6070  177.5170  142.0550 C   0  0  0  0  0  3  0  0  0  0  0  0
  185.2390  178.5420  144.4720 C   0  0  0  0  0  0  0  0  0  0  0  0
  184.5920  178.6640  145.7060 C   0  0  0  0  0  3  0  0  0  0  0  0
  187.0050  178.2630  140.7390 N   0  0  0  0  0  0  0  0  0  0  0  0
  189.1250  177.6230  141.6180 C   0  0  0  0  0  0  0  0  0  0  0  0
  190.5290  177.2880  141.2940 C   0  0  0  0  0  3  0  0  0  0  0  0
  184.2780  179.0490  140.9110 C   0  0  0  0  0  2  0  0  0  0  0  0
  181.7870  178.7890  140.8010 C   0  0  0  0  0  1  0  0  0  0  0  0
  183.1240  178.0660  140.7630 C   0  0  1  0  0  3  0  0  0  0  0  0
  182.9820  176.0600  139.4810 O   0  0  0  0  0  0  0  0  0  0  0  0
  183.2610  177.2910  139.4900 C   0  0  0  0  0  0  0  0  0  0  0  0
  182.8550  178.5410  137.5280 O   0  0  0  0  0  0  0  0  0  0  0  0
  183.7140  177.9790  138.2570 C   0  0  0  0  0  0  0  0  0  0  0  0
  185.7490  177.0440  137.3460 C   0  0  0  0  0  3  0  0  0  0  0  0
  185.0900  178.0380  137.8500 N   0  0  0  0  0  0  0  0  0  0  0  0
  187.1770  177.2070  136.9550 C   0  0  0  0  0  2  0  0  0  0  0  0
  187.4820  178.6650  136.6750 C   0  0  0  0  0  1  0  0  0  0  0  0
  1  6  1  0  0  0  0
  1  9  1  0  0  0  0
  2  5  1  0  0  0  0
  3  2  1  0  0  0  0
  3  7  1  0  0  0  0
  5 16  2  0  0  0  0
  5 14  1  0  0  0  0
  7  4  1  0  0  0  0
  8 12  2  0  0  0  0
 10 18  2  0  0  0  0
 10 19  1  0  0  0  0
 11  4  2  0  0  0  0
 12 16  1  0  0  0  0
 13  8  1  0  0  0  0
 13  2  2  0  0  0  0
 14  1  2  0  0  0  0
 15 11  1  0  0  0  0
 16 17  1  0  0  0  0
 17  6  2  0  0  0  0
 18 13  1  0  0  0  0
 19  3  2  0  0  0  0
 20 19  1  0  0  0  0
 20 15  2  0  0  0  0
 21  8  1  0  0  0  0
 23 22  1  6  0  0  0
 23 21  1  0  0  0  0
 24 25  2  0  0  0  0
 25 23  1  0  0  0  0
 26 27  2  0  0  0  0
 27 25  1  0  0  0  0
 28 29  2  0  0  0  0
 29 27  1  0  0  0  0
 30 28  1  0  0  0  0
 31 30  1  0  0  0  0
M  END
>  <MODEL>
7

>  <REMARK>
 VINA RESULT:      -9.1      2.935      4.932
  Name = 
  6 active torsions:
  status: ('A' for Active; 'I' for Inactive)
    1  A    between atoms: C_1  and  C_11
    2  A    between atoms: C_9  and  C_22
    3  A    between atoms: C_9  and  C_23
    4  A    between atoms: C_15  and  C_23
    5  A    between atoms: C_19  and  C_22
    6  A    between atoms: C_19  and  N_24
                            x       y       z     vdW  Elec       q    Type
                         _______ _______ _______ _____ _____    ______ ____

>  <TORSDO>
F 6

$$$$
=
 OpenBabel10272400143D

 31 34  0  0  1  0  0  0  0  0999 V2000
  183.8780  178.6490  144.1220 C   0  0  0  0  0  0  0  0  0  0  0  0
  186.5920  178.2880  141.5360 C   0  0  0  0  0  0  0  0  0  0  0  0
  185.9700  178.4200  140.2540 C   0  0  0  0  0  0  0  0  0  0  0  0
  183.7150  177.7990  139.4480 C   0  0  0  0  0  3  0  0  0  0  0  0
  185.9040  178.3770  142.7850 C   0  0  0  0  0  0  0  0  0  0  0  0
  184.6200  178.5270  145.2960 C   0  0  0  0  0  3  0  0  0  0  0  0
  184.5420  178.8510  140.1050 C   0  0  0  0  0  2  0  0  0  0  0  0
  188.6650  177.9360  142.7940 C   0  0  0  0  0  0  0  0  0  0  0  0
  182.1470  178.8980  144.2010 Cl  0  0  0  0  0  0  0  0  0  0  0  0
  188.1130  178.0470  139.1960 C   0  0  0  0  0  3  0  0  0  0  0  0
  183.9000  177.4340  138.1820 C   0  0  0  0  0  3  0  0  0  0  0  0
  187.9780  178.0350  143.9580 N   0  0  0  0  0  0  0  0  0  0  0  0
  187.9940  178.0540  141.5670 C   0  0  0  0  0  0  0  0  0  0  0  0
  184.5150  178.5730  142.8820 C   0  0  0  0  0  3  0  0  0  0  0  0
  184.9740  177.9500  137.3130 C   0  0  0  0  0  3  0  0  0  0  0  0
  186.6400  178.2460  143.9900 C   0  0  0  0  0  0  0  0  0  0  0  0
  185.9980  178.3250  145.2290 C   0  0  0  0  0  3  0  0  0  0  0  0
  188.6990  177.9530  140.4100 N   0  0  0  0  0  0  0  0  0  0  0  0
  186.7440  178.2610  139.0830 C   0  0  0  0  0  0  0  0  0  0  0  0
  186.2000  178.3160  137.7080 C   0  0  0  0  0  3  0  0  0  0  0  0
  190.1390  177.6810  142.8470 C   0  0  0  0  0  2  0  0  0  0  0  0
  191.2000  175.4780  143.4030 C   0  0  0  0  0  1  0  0  0  0  0  0
  190.4800  176.6960  143.9580 C   0  0  1  0  0  3  0  0  0  0  0  0
  191.9820  178.3930  144.7050 O   0  0  0  0  0  0  0  0  0  0  0  0
  191.3170  177.3630  145.0050 C   0  0  0  0  0  0  0  0  0  0  0  0
  192.3570  176.1470  146.7430 O   0  0  0  0  0  0  0  0  0  0  0  0
  191.3490  176.8090  146.3810 C   0  0  0  0  0  0  0  0  0  0  0  0
  189.0260  176.8550  147.0480 C   0  0  0  0  0  3  0  0  0  0  0  0
  190.2830  176.9890  147.3260 N   0  0  0  0  0  0  0  0  0  0  0  0
  187.9930  177.0660  148.1010 C   0  0  0  0  0  2  0  0  0  0  0  0
  188.1840  178.4170  148.7600 C   0  0  0  0  0  1  0  0  0  0  0  0
  1  9  1  0  0  0  0
  1  6  1  0  0  0  0
  2 13  2  0  0  0  0
  2  5  1  0  0  0  0
  3  2  1  0  0  0  0
  4  7  1  0  0  0  0
  5 14  1  0  0  0  0
  5 16  2  0  0  0  0
  7  3  1  0  0  0  0
  8 21  1  0  0  0  0
  8 12  2  0  0  0  0
 10 18  2  0  0  0  0
 11  4  2  0  0  0  0
 12 16  1  0  0  0  0
 13  8  1  0  0  0  0
 14  1  2  0  0  0  0
 15 20  2  0  0  0  0
 15 11  1  0  0  0  0
 16 17  1  0  0  0  0
 17  6  2  0  0  0  0
 18 13  1  0  0  0  0
 19 10  1  0  0  0  0
 19  3  2  0  0  0  0
 20 19  1  0  0  0  0
 21 23  1  0  0  0  0
 23 22  1  6  0  0  0
 23 25  1  0  0  0  0
 24 25  2  0  0  0  0
 25 27  1  0  0  0  0
 27 26  2  0  0  0  0
 27 29  1  0  0  0  0
 28 29  2  0  0  0  0
 28 30  1  0  0  0  0
 30 31  1  0  0  0  0
M  END
>  <MODEL>
8

>  <REMARK>
 VINA RESULT:      -8.9      2.834      6.959
  Name = 
  6 active torsions:
  status: ('A' for Active; 'I' for Inactive)
    1  A    between atoms: C_1  and  C_11
    2  A    between atoms: C_9  and  C_22
    3  A    between atoms: C_9  and  C_23
    4  A    between atoms: C_15  and  C_23
    5  A    between atoms: C_19  and  C_22
    6  A    between atoms: C_19  and  N_24
                            x       y       z     vdW  Elec       q    Type
                         _______ _______ _______ _____ _____    ______ ____

>  <TORSDO>
F 6

$$$$
=
 OpenBabel10272400143D

 31 34  0  0  1  0  0  0  0  0999 V2000
  184.6760  178.8170  142.8190 C   0  0  0  0  0  0  0  0  0  0  0  0
  187.9660  177.5690  144.1610 C   0  0  0  0  0  0  0  0  0  0  0  0
  187.8340  177.4850  145.5840 C   0  0  0  0  0  0  0  0  0  0  0  0
  186.5280  178.8320  147.1970 C   0  0  0  0  0  3  0  0  0  0  0  0
  186.9290  177.9910  143.2740 C   0  0  0  0  0  0  0  0  0  0  0  0
  184.9400  178.8230  141.4500 C   0  0  0  0  0  3  0  0  0  0  0  0
  186.5130  177.6640  146.2710 C   0  0  0  0  0  2  0  0  0  0  0  0
  189.4020  177.2460  142.2040 C   0  0  0  0  0  0  0  0  0  0  0  0
  183.1090  179.3230  143.4120 Cl  0  0  0  0  0  0  0  0  0  0  0  0
  190.1330  176.7500  145.7370 C   0  0  0  0  0  3  0  0  0  0  0  0
  187.2790  178.8620  148.2950 C   0  0  0  0  0  3  0  0  0  0  0  0
  188.3920  177.6440  141.3940 N   0  0  0  0  0  0  0  0  0  0  0  0
  189.2170  177.2040  143.5940 C   0  0  0  0  0  0  0  0  0  0  0  0
  185.6620  178.4060  143.7180 C   0  0  0  0  0  3  0  0  0  0  0  0
  188.2320  177.8060  148.6820 C   0  0  0  0  0  3  0  0  0  0  0  0
  187.1820  178.0130  141.8780 C   0  0  0  0  0  0  0  0  0  0  0  0
  186.1910  178.4230  140.9820 C   0  0  0  0  0  3  0  0  0  0  0  0
  190.2420  176.8030  144.3910 N   0  0  0  0  0  0  0  0  0  0  0  0
  188.9470  177.1040  146.3680 C   0  0  0  0  0  0  0  0  0  0  0  0
  188.9450  177.0410  147.8460 C   0  0  0  0  0  3  0  0  0  0  0  0
  190.7150  176.8740  141.5880 C   0  0  0  0  0  2  0  0  0  0  0  0
  192.4100  177.6630  139.9170 C   0  0  0  0  0  1  0  0  0  0  0  0
  190.9350  177.6280  140.2820 C   0  0  1  0  0  3  0  0  0  0  0  0
  190.3460  175.7910  138.8770 O   0  0  0  0  0  0  0  0  0  0  0  0
  190.1410  177.0000  139.1790 C   0  0  0  0  0  0  0  0  0  0  0  0
  189.2030  179.0590  138.5010 O   0  0  0  0  0  0  0  0  0  0  0  0
  189.1210  177.8030  138.4610 C   0  0  0  0  0  0  0  0  0  0  0  0
  186.9410  177.8330  137.4180 C   0  0  0  0  0  3  0  0  0  0  0  0
  188.0390  177.2180  137.7190 N   0  0  0  0  0  0  0  0  0  0  0  0
  185.8750  177.1380  136.6440 C   0  0  0  0  0  2  0  0  0  0  0  0
  184.5470  177.2450  137.3670 C   0  0  0  0  0  1  0  0  0  0  0  0
  1  9  1  0  0  0  0
  1 14  1  0  0  0  0
  2  3  1  0  0  0  0
  3  7  1  0  0  0  0
  3 19  2  0  0  0  0
  4 11  2  0  0  0  0
  5 14  2  0  0  0  0
  5  2  1  0  0  0  0
  6  1  2  0  0  0  0
  7  4  1  0  0  0  0
  8 13  1  0  0  0  0
 10 19  1  0  0  0  0
 11 15  1  0  0  0  0
 12 16  1  0  0  0  0
 12  8  2  0  0  0  0
 13  2  2  0  0  0  0
 13 18  1  0  0  0  0
 16  5  1  0  0  0  0
 17  6  1  0  0  0  0
 17 16  2  0  0  0  0
 18 10  2  0  0  0  0
 19 20  1  0  0  0  0
 20 15  2  0  0  0  0
 21  8  1  0  0  0  0
 23 22  1  6  0  0  0
 23 21  1  0  0  0  0
 24 25  2  0  0  0  0
 25 23  1  0  0  0  0
 27 26  2  0  0  0  0
 27 25  1  0  0  0  0
 28 29  2  0  0  0  0
 29 27  1  0  0  0  0
 30 31  1  0  0  0  0
 30 28  1  0  0  0  0
M  END
>  <MODEL>
9

>  <REMARK>
 VINA RESULT:      -8.8      1.628      2.034
  Name = 
  6 active torsions:
  status: ('A' for Active; 'I' for Inactive)
    1  A    between atoms: C_1  and  C_11
    2  A    between atoms: C_9  and  C_22
    3  A    between atoms: C_9  and  C_23
    4  A    between atoms: C_15  and  C_23
    5  A    between atoms: C_19  and  C_22
    6  A    between atoms: C_19  and  N_24
                            x       y       z     vdW  Elec       q    Type
                         _______ _______ _______ _____ _____    ______ ____

>  <TORSDO>
F 6

$$$$
