=
 OpenBabel10272413113D

 32 37  0  0  1  0  0  0  0  0999 V2000
  189.8410  177.2990  141.7910 C   0  0  1  0  0  3  0  0  0  0  0  0
  187.7570  178.4520  142.8050 C   0  0  2  0  0  3  0  0  0  0  0  0
  191.3430  177.1440  142.0400 C   0  0  0  0  0  2  0  0  0  0  0  0
  189.2310  178.0380  142.9960 C   0  0  1  0  0  3  0  0  0  0  0  0
  186.7680  177.8480  143.7990 C   0  0  2  0  0  3  0  0  0  0  0  0
  183.7640  178.9560  139.8880 C   0  0  0  0  0  2  0  0  0  0  0  0
  187.2350  178.2020  141.3990 C   0  0  2  0  0  3  0  0  0  0  0  0
  183.5600  178.7880  142.3820 C   0  0  0  0  0  2  0  0  0  0  0  0
  184.9790  178.2340  142.4590 C   0  0  2  0  0  3  0  0  0  0  0  0
  189.5100  177.2820  144.2760 C   0  0  0  0  0  0  0  0  0  0  0  0
  185.5530  178.5580  143.7080 O   0  0  0  0  0  0  0  0  0  0  0  0
  188.6510  177.2480  145.2530 N   0  0  0  0  0  0  0  0  0  0  0  0
  190.7670  176.5220  144.3840 C   0  0  0  0  0  3  0  0  0  0  0  0
  188.2320  178.7880  140.4080 C   0  0  0  0  0  2  0  0  0  0  0  0
  189.5480  177.9870  140.4290 C   0  0  2  0  0  3  0  0  0  0  0  0
  185.8300  178.7890  141.2900 C   0  0  2  0  0  3  0  0  0  0  0  0
  187.3650  177.9460  145.2030 C   0  0  2  0  0  3  0  0  0  0  0  0
  191.6070  176.4360  143.3460 C   0  0  0  0  0  3  0  0  0  0  0  0
  182.9250  178.4160  141.0440 C   0  0  0  0  0  2  0  0  0  0  0  0
  185.1850  178.4030  139.9600 C   0  0  0  0  0  2  0  0  0  0  0  0
  188.3840  176.1900  137.1390 C   0  0  2  0  0  3  0  0  0  0  0  0
  187.1170  175.6610  137.3850 O   0  0  0  0  0  1  0  0  0  0  0  0
  189.5200  176.9980  139.2560 C   0  0  2  0  0  3  0  0  0  0  0  0
  189.4340  175.0750  137.2530 C   0  0  0  0  0  2  0  0  0  0  0  0
  190.8750  176.3780  138.8710 C   0  0  0  0  0  2  0  0  0  0  0  0
  188.6330  177.3920  138.0660 C   0  0  1  0  0  3  0  0  0  0  0  0
  189.2330  178.5250  137.2520 C   0  0  0  0  0  1  0  0  0  0  0  0
  190.8230  175.6470  137.5220 C   0  0  1  0  0  3  0  0  0  0  0  0
  193.0100  174.7890  137.7210 O   0  0  0  0  0  0  0  0  0  0  0  0
  191.8350  174.5510  137.4940 C   0  0  0  0  0  3  0  0  0  0  0  0
  186.4210  177.3980  146.2730 C   0  0  0  0  0  2  0  0  0  0  0  0
  185.7810  178.5060  147.0960 C   0  0  0  0  0  1  0  0  0  0  0  0
  1  3  1  1  0  0  0
  1  4  1  0  0  0  0
  2  4  1  0  0  0  0
  2  5  1  0  0  0  0
  3 18  1  0  0  0  0
  4 10  1  0  0  0  0
  5 17  1  0  0  0  0
  6 20  1  0  0  0  0
  6 19  1  0  0  0  0
  7  2  1  0  0  0  0
  8  9  1  0  0  0  0
  9 11  1  0  0  0  0
 10 13  1  0  0  0  0
 10 12  2  0  0  0  0
 11  5  1  0  0  0  0
 14 15  1  0  0  0  0
 14  7  1  0  0  0  0
 15  1  1  0  0  0  0
 16  7  1  0  0  0  0
 16  9  1  0  0  0  0
 17 12  1  0  0  0  0
 17 31  1  0  0  0  0
 18 13  2  0  0  0  0
 19  8  1  0  0  0  0
 20 16  1  0  0  0  0
 21 24  1  0  0  0  0
 21 22  1  0  0  0  0
 21 26  1  0  0  0  0
 23 15  1  0  0  0  0
 24 28  1  0  0  0  0
 25 23  1  0  0  0  0
 26 23  1  0  0  0  0
 27 26  1  0  0  0  0
 28 25  1  0  0  0  0
 30 28  1  0  0  0  0
 30 29  2  0  0  0  0
 31 32  1  0  0  0  0
M  END
>  <MODEL>
1

>  <REMARK>
 VINA RESULT:      -9.3      0.000      0.000
  Name = 
  3 active torsions:
  status: ('A' for Active; 'I' for Inactive)
    1  A    between atoms: C_13  and  C_29
    2  A    between atoms: C_15  and  C_26
    3  A    between atoms: C_16  and  C_27
                            x       y       z     vdW  Elec       q    Type
                         _______ _______ _______ _____ _____    ______ ____

>  <TORSDO>
F 3

$$$$
=
 OpenBabel10272413113D

 32 37  0  0  1  0  0  0  0  0999 V2000
  186.1730  178.0350  139.3700 C   0  0  1  0  0  3  0  0  0  0  0  0
  187.4970  178.4510  141.5540 C   0  0  2  0  0  3  0  0  0  0  0  0
  186.3170  178.1870  137.8540 C   0  0  0  0  0  2  0  0  0  0  0  0
  187.5320  178.3610  140.0150 C   0  0  1  0  0  3  0  0  0  0  0  0
  188.3830  177.4500  142.2940 C   0  0  2  0  0  3  0  0  0  0  0  0
  184.9300  178.5800  145.8090 C   0  0  0  0  0  2  0  0  0  0  0  0
  186.0950  178.3680  142.1340 C   0  0  2  0  0  3  0  0  0  0  0  0
  187.3380  177.8820  145.7450 C   0  0  0  0  0  2  0  0  0  0  0  0
  187.2340  177.6670  144.2380 C   0  0  2  0  0  3  0  0  0  0  0  0
  188.6090  177.4530  139.4630 C   0  0  0  0  0  0  0  0  0  0  0  0
  188.4970  177.8630  143.6380 O   0  0  0  0  0  0  0  0  0  0  0  0
  189.5920  177.0290  140.2020 N   0  0  0  0  0  0  0  0  0  0  0  0
  188.4990  176.9990  138.0670 C   0  0  0  0  0  3  0  0  0  0  0  0
  185.2080  179.3530  141.3840 C   0  0  0  0  0  2  0  0  0  0  0  0
  185.0010  178.8910  139.9280 C   0  0  2  0  0  3  0  0  0  0  0  0
  186.1740  178.6240  143.6380 C   0  0  2  0  0  3  0  0  0  0  0  0
  189.7480  177.4050  141.6090 C   0  0  2  0  0  3  0  0  0  0  0  0
  187.4300  177.3160  137.3260 C   0  0  0  0  0  3  0  0  0  0  0  0
  185.9810  177.6430  146.4020 C   0  0  0  0  0  2  0  0  0  0  0  0
  184.8210  178.3680  144.3010 C   0  0  0  0  0  2  0  0  0  0  0  0
  181.1400  178.2460  140.2090 C   0  0  2  0  0  3  0  0  0  0  0  0
  180.8010  178.3540  141.5570 O   0  0  0  0  0  1  0  0  0  0  0  0
  183.6470  178.1730  139.8460 C   0  0  2  0  0  3  0  0  0  0  0  0
  181.2550  176.7620  139.8280 C   0  0  0  0  0  2  0  0  0  0  0  0
  183.5540  177.0360  138.8130 C   0  0  0  0  0  2  0  0  0  0  0  0
  182.4050  179.0730  139.9240 C   0  0  1  0  0  3  0  0  0  0  0  0
  182.1930  179.8730  138.6510 C   0  0  0  0  0  1  0  0  0  0  0  0
  182.1100  176.5750  138.5780 C   0  0  1  0  0  3  0  0  0  0  0  0
  183.1050  174.6050  137.7500 O   0  0  0  0  0  0  0  0  0  0  0  0
  182.0900  175.1430  138.1610 C   0  0  0  0  0  3  0  0  0  0  0  0
  190.7170  176.4540  142.3090 C   0  0  0  0  0  2  0  0  0  0  0  0
  191.7650  177.1980  143.1230 C   0  0  0  0  0  1  0  0  0  0  0  0
  1  3  1  6  0  0  0
  1 15  1  0  0  0  0
  1  4  1  0  0  0  0
  2  7  1  0  0  0  0
  2  5  1  0  0  0  0
  4  2  1  0  0  0  0
  5 11  1  0  0  0  0
  6 19  1  0  0  0  0
  7 16  1  0  0  0  0
  8 19  1  0  0  0  0
  9  8  1  0  0  0  0
 10  4  1  0  0  0  0
 10 12  2  0  0  0  0
 11  9  1  0  0  0  0
 12 17  1  0  0  0  0
 13 10  1  0  0  0  0
 14  7  1  0  0  0  0
 15 14  1  0  0  0  0
 16  9  1  0  0  0  0
 16 20  1  0  0  0  0
 17  5  1  0  0  0  0
 17 31  1  0  0  0  0
 18  3  1  0  0  0  0
 18 13  2  0  0  0  0
 20  6  1  0  0  0  0
 21 22  1  0  0  0  0
 23 26  1  0  0  0  0
 23 15  1  0  0  0  0
 24 21  1  0  0  0  0
 25 23  1  0  0  0  0
 26 21  1  0  0  0  0
 27 26  1  0  0  0  0
 28 25  1  0  0  0  0
 28 24  1  0  0  0  0
 29 30  2  0  0  0  0
 30 28  1  0  0  0  0
 31 32  1  0  0  0  0
M  END
>  <MODEL>
2

>  <REMARK>
 VINA RESULT:      -8.9      2.424      6.086
  Name = 
  3 active torsions:
  status: ('A' for Active; 'I' for Inactive)
    1  A    between atoms: C_13  and  C_29
    2  A    between atoms: C_15  and  C_26
    3  A    between atoms: C_16  and  C_27
                            x       y       z     vdW  Elec       q    Type
                         _______ _______ _______ _____ _____    ______ ____

>  <TORSDO>
F 3

$$$$
=
 OpenBabel10272413113D

 32 37  0  0  1  0  0  0  0  0999 V2000
  189.0430  177.3370  141.2700 C   0  0  1  0  0  3  0  0  0  0  0  0
  187.0950  178.5070  142.5090 C   0  0  2  0  0  3  0  0  0  0  0  0
  190.5620  177.1730  141.3470 C   0  0  0  0  0  2  0  0  0  0  0  0
  188.5780  178.0840  142.5330 C   0  0  1  0  0  3  0  0  0  0  0  0
  186.2220  177.9120  143.6120 C   0  0  2  0  0  3  0  0  0  0  0  0
  182.7990  179.0280  140.0620 C   0  0  0  0  0  2  0  0  0  0  0  0
  186.4150  178.2550  141.1730 C   0  0  2  0  0  3  0  0  0  0  0  0
  182.8790  178.8700  142.5640 C   0  0  0  0  0  2  0  0  0  0  0  0
  184.2940  178.3060  142.4820 C   0  0  2  0  0  3  0  0  0  0  0  0
  188.9960  177.3300  143.7760 C   0  0  0  0  0  0  0  0  0  0  0  0
  185.0080  178.6300  143.6560 O   0  0  0  0  0  0  0  0  0  0  0  0
  188.2530  177.3050  144.8440 N   0  0  0  0  0  0  0  0  0  0  0  0
  190.2520  176.5620  143.7440 C   0  0  0  0  0  3  0  0  0  0  0  0
  187.2960  178.8320  140.0720 C   0  0  0  0  0  2  0  0  0  0  0  0
  188.6010  178.0220  139.9470 C   0  0  2  0  0  3  0  0  0  0  0  0
  185.0100  178.8520  141.2210 C   0  0  2  0  0  3  0  0  0  0  0  0
  186.9740  178.0110  144.9390 C   0  0  2  0  0  3  0  0  0  0  0  0
  190.9680  176.4670  142.6170 C   0  0  0  0  0  3  0  0  0  0  0  0
  182.0940  178.4970  141.3090 C   0  0  0  0  0  2  0  0  0  0  0  0
  184.2160  178.4650  139.9750 C   0  0  0  0  0  2  0  0  0  0  0  0
  187.0900  176.2580  136.7830 C   0  0  2  0  0  3  0  0  0  0  0  0
  185.8290  175.7810  137.1400 O   0  0  0  0  0  1  0  0  0  0  0  0
  188.4340  177.0290  138.7890 C   0  0  2  0  0  3  0  0  0  0  0  0
  188.1010  175.1020  136.8170 C   0  0  0  0  0  2  0  0  0  0  0  0
  189.7260  176.3540  138.2940 C   0  0  0  0  0  2  0  0  0  0  0  0
  187.4640  177.4530  137.6750 C   0  0  1  0  0  3  0  0  0  0  0  0
  188.0370  178.5570  136.8040 C   0  0  0  0  0  1  0  0  0  0  0  0
  189.5300  175.6190  136.9610 C   0  0  1  0  0  3  0  0  0  0  0  0
  190.2450  173.4130  137.3860 O   0  0  0  0  0  0  0  0  0  0  0  0
  190.4920  174.4830  136.8560 C   0  0  0  0  0  3  0  0  0  0  0  0
  186.1550  177.4730  146.1110 C   0  0  0  0  0  2  0  0  0  0  0  0
  185.7840  178.5660  147.1010 C   0  0  0  0  0  1  0  0  0  0  0  0
  1  3  1  6  0  0  0
  1  4  1  0  0  0  0
  2  4  1  0  0  0  0
  2  5  1  0  0  0  0
  3 18  1  0  0  0  0
  4 10  1  0  0  0  0
  5 11  1  0  0  0  0
  5 17  1  0  0  0  0
  6 19  1  0  0  0  0
  7 16  1  0  0  0  0
  7  2  1  0  0  0  0
  9  8  1  0  0  0  0
  9 11  1  0  0  0  0
 10 12  2  0  0  0  0
 12 17  1  0  0  0  0
 13 10  1  0  0  0  0
 14  7  1  0  0  0  0
 15 14  1  0  0  0  0
 15  1  1  0  0  0  0
 16  9  1  0  0  0  0
 17 31  1  0  0  0  0
 18 13  2  0  0  0  0
 19  8  1  0  0  0  0
 20  6  1  0  0  0  0
 20 16  1  0  0  0  0
 21 24  1  0  0  0  0
 21 22  1  0  0  0  0
 21 26  1  0  0  0  0
 23 15  1  0  0  0  0
 24 28  1  0  0  0  0
 25 23  1  0  0  0  0
 26 23  1  0  0  0  0
 27 26  1  0  0  0  0
 28 25  1  0  0  0  0
 30 28  1  0  0  0  0
 30 29  2  0  0  0  0
 31 32  1  0  0  0  0
M  END
>  <MODEL>
3

>  <REMARK>
 VINA RESULT:      -8.6      1.053      1.109
  Name = 
  3 active torsions:
  status: ('A' for Active; 'I' for Inactive)
    1  A    between atoms: C_13  and  C_29
    2  A    between atoms: C_15  and  C_26
    3  A    between atoms: C_16  and  C_27
                            x       y       z     vdW  Elec       q    Type
                         _______ _______ _______ _____ _____    ______ ____

>  <TORSDO>
F 3

$$$$
=
 OpenBabel10272413113D

 32 37  0  0  1  0  0  0  0  0999 V2000
  188.6320  177.1840  138.4060 C   0  0  1  0  0  3  0  0  0  0  0  0
  188.2900  178.3270  140.7020 C   0  0  2  0  0  3  0  0  0  0  0  0
  189.6870  177.0330  137.3070 C   0  0  0  0  0  2  0  0  0  0  0  0
  189.2810  177.9180  139.5940 C   0  0  1  0  0  3  0  0  0  0  0  0
  188.5490  177.7170  142.0780 C   0  0  2  0  0  3  0  0  0  0  0  0
  183.6250  178.8310  142.3460 C   0  0  0  0  0  2  0  0  0  0  0  0
  186.8350  178.0810  140.3360 C   0  0  2  0  0  3  0  0  0  0  0  0
  185.5660  178.6530  143.9250 C   0  0  0  0  0  2  0  0  0  0  0  0
  186.4320  178.1020  142.7960 C   0  0  2  0  0  3  0  0  0  0  0  0
  190.4930  177.1580  140.0850 C   0  0  0  0  0  0  0  0  0  0  0  0
  187.7870  178.4240  143.0310 O   0  0  0  0  0  0  0  0  0  0  0  0
  190.8120  177.1170  141.3460 N   0  0  0  0  0  0  0  0  0  0  0  0
  191.2920  176.4010  139.1070 C   0  0  0  0  0  3  0  0  0  0  0  0
  186.5820  178.6740  138.9560 C   0  0  0  0  0  2  0  0  0  0  0  0
  187.3440  177.8770  137.8790 C   0  0  2  0  0  3  0  0  0  0  0  0
  185.9500  178.6650  141.4360 C   0  0  2  0  0  3  0  0  0  0  0  0
  190.0440  177.8110  142.3810 C   0  0  2  0  0  3  0  0  0  0  0  0
  190.9120  176.3210  137.8260 C   0  0  0  0  0  3  0  0  0  0  0  0
  184.1030  178.2840  143.6890 C   0  0  0  0  0  2  0  0  0  0  0  0
  184.4880  178.2810  141.2120 C   0  0  0  0  0  2  0  0  0  0  0  0
  184.5710  176.4560  135.4910 C   0  0  2  0  0  3  0  0  0  0  0  0
  183.4080  177.1870  135.7290 O   0  0  0  0  0  1  0  0  0  0  0  0
  186.3600  176.8910  137.2340 C   0  0  2  0  0  3  0  0  0  0  0  0
  184.4860  175.1080  136.2220 C   0  0  0  0  0  2  0  0  0  0  0  0
  186.7240  175.4020  137.3600 C   0  0  0  0  0  2  0  0  0  0  0  0
  185.8010  177.3020  135.8630 C   0  0  1  0  0  3  0  0  0  0  0  0
  186.8370  177.1760  134.7590 C   0  0  0  0  0  1  0  0  0  0  0  0
  185.8720  174.5100  136.4470 C   0  0  1  0  0  3  0  0  0  0  0  0
  185.2760  172.9950  138.1530 O   0  0  0  0  0  0  0  0  0  0  0  0
  185.7450  173.1450  137.0370 C   0  0  0  0  0  3  0  0  0  0  0  0
  190.3920  177.2570  143.7620 C   0  0  0  0  0  2  0  0  0  0  0  0
  191.4090  176.1290  143.6890 C   0  0  0  0  0  1  0  0  0  0  0  0
  1  3  1  6  0  0  0
  1  4  1  0  0  0  0
  2  5  1  0  0  0  0
  3 18  1  0  0  0  0
  4 10  1  0  0  0  0
  4  2  1  0  0  0  0
  5 17  1  0  0  0  0
  5 11  1  0  0  0  0
  6 19  1  0  0  0  0
  7  2  1  0  0  0  0
  7 16  1  0  0  0  0
  9 11  1  0  0  0  0
  9  8  1  0  0  0  0
 10 12  2  0  0  0  0
 12 17  1  0  0  0  0
 13 10  1  0  0  0  0
 14  7  1  0  0  0  0
 15  1  1  0  0  0  0
 15 14  1  0  0  0  0
 16  9  1  0  0  0  0
 17 31  1  0  0  0  0
 18 13  2  0  0  0  0
 19  8  1  0  0  0  0
 20 16  1  0  0  0  0
 20  6  1  0  0  0  0
 21 22  1  0  0  0  0
 21 26  1  0  0  0  0
 21 24  1  0  0  0  0
 23 25  1  0  0  0  0
 23 15  1  0  0  0  0
 24 28  1  0  0  0  0
 26 23  1  0  0  0  0
 27 26  1  0  0  0  0
 28 30  1  0  0  0  0
 28 25  1  0  0  0  0
 30 29  2  0  0  0  0
 32 31  1  0  0  0  0
M  END
>  <MODEL>
4

>  <REMARK>
 VINA RESULT:      -8.0      2.270      4.127
  Name = 
  3 active torsions:
  status: ('A' for Active; 'I' for Inactive)
    1  A    between atoms: C_13  and  C_29
    2  A    between atoms: C_15  and  C_26
    3  A    between atoms: C_16  and  C_27
                            x       y       z     vdW  Elec       q    Type
                         _______ _______ _______ _____ _____    ______ ____

>  <TORSDO>
F 3

$$$$
=
 OpenBabel10272413113D

 32 37  0  0  1  0  0  0  0  0999 V2000
  187.2720  177.6020  138.7510 C   0  0  1  0  0  3  0  0  0  0  0  0
  187.5440  178.5030  141.1630 C   0  0  2  0  0  3  0  0  0  0  0  0
  188.0380  177.5190  137.4290 C   0  0  0  0  0  2  0  0  0  0  0  0
  188.2260  178.1670  139.8210 C   0  0  1  0  0  3  0  0  0  0  0  0
  188.0600  177.7330  142.3760 C   0  0  2  0  0  3  0  0  0  0  0  0
  183.4220  179.0610  143.8850 C   0  0  0  0  0  2  0  0  0  0  0  0
  186.0300  178.3730  141.1220 C   0  0  2  0  0  3  0  0  0  0  0  0
  185.6500  178.6130  144.9450 C   0  0  0  0  0  2  0  0  0  0  0  0
  186.1950  178.1450  143.5990 C   0  0  2  0  0  3  0  0  0  0  0  0
  189.4570  177.2970  139.9420 C   0  0  0  0  0  0  0  0  0  0  0  0
  187.5880  178.3690  143.5430 O   0  0  0  0  0  0  0  0  0  0  0  0
  190.0480  177.1030  141.0850 N   0  0  0  0  0  0  0  0  0  0  0  0
  189.9560  176.6120  138.7380 C   0  0  0  0  0  3  0  0  0  0  0  0
  185.5170  179.1250  139.9020 C   0  0  0  0  0  2  0  0  0  0  0  0
  185.9540  178.4130  138.6070 C   0  0  2  0  0  3  0  0  0  0  0  0
  185.4620  178.8770  142.4480 C   0  0  2  0  0  3  0  0  0  0  0  0
  189.5890  177.7170  142.3310 C   0  0  2  0  0  3  0  0  0  0  0  0
  189.2910  176.6920  137.5790 C   0  0  0  0  0  3  0  0  0  0  0  0
  184.1490  178.3460  145.0220 C   0  0  0  0  0  2  0  0  0  0  0  0
  183.9630  178.5950  142.5350 C   0  0  0  0  0  2  0  0  0  0  0  0
  182.4430  176.6610  138.5240 C   0  0  2  0  0  3  0  0  0  0  0  0
  182.3880  175.7960  139.6170 O   0  0  0  0  0  1  0  0  0  0  0  0
  184.7790  177.5560  138.1170 C   0  0  2  0  0  3  0  0  0  0  0  0
  182.7580  175.8580  137.2530 C   0  0  0  0  0  2  0  0  0  0  0  0
  184.6870  177.3530  136.5940 C   0  0  0  0  0  2  0  0  0  0  0  0
  183.4320  177.8010  138.8150 C   0  0  1  0  0  3  0  0  0  0  0  0
  182.8010  179.1180  138.3980 C   0  0  0  0  0  1  0  0  0  0  0  0
  183.3420  176.7520  136.1630 C   0  0  1  0  0  3  0  0  0  0  0  0
  183.8510  174.7990  134.9430 O   0  0  0  0  0  0  0  0  0  0  0  0
  183.5110  175.9700  134.9030 C   0  0  0  0  0  3  0  0  0  0  0  0
  190.1960  176.9980  143.5350 C   0  0  0  0  0  2  0  0  0  0  0  0
  191.5660  177.5470  143.9000 C   0  0  0  0  0  1  0  0  0  0  0  0
  1  3  1  6  0  0  0
  1  4  1  0  0  0  0
  2  5  1  0  0  0  0
  3 18  1  0  0  0  0
  4 10  1  0  0  0  0
  4  2  1  0  0  0  0
  5 11  1  0  0  0  0
  6 19  1  0  0  0  0
  7  2  1  0  0  0  0
  7 16  1  0  0  0  0
  8 19  1  0  0  0  0
  9  8  1  0  0  0  0
 10 12  2  0  0  0  0
 11  9  1  0  0  0  0
 12 17  1  0  0  0  0
 13 10  1  0  0  0  0
 14  7  1  0  0  0  0
 15  1  1  0  0  0  0
 15 14  1  0  0  0  0
 16 20  1  0  0  0  0
 16  9  1  0  0  0  0
 17  5  1  0  0  0  0
 17 31  1  0  0  0  0
 18 13  2  0  0  0  0
 20  6  1  0  0  0  0
 21 26  1  0  0  0  0
 21 22  1  0  0  0  0
 23 15  1  0  0  0  0
 23 26  1  0  0  0  0
 24 21  1  0  0  0  0
 25 23  1  0  0  0  0
 27 26  1  0  0  0  0
 28 25  1  0  0  0  0
 28 24  1  0  0  0  0
 30 29  2  0  0  0  0
 30 28  1  0  0  0  0
 31 32  1  0  0  0  0
M  END
>  <MODEL>
5

>  <REMARK>
 VINA RESULT:      -7.8      2.454      5.061
  Name = 
  3 active torsions:
  status: ('A' for Active; 'I' for Inactive)
    1  A    between atoms: C_13  and  C_29
    2  A    between atoms: C_15  and  C_26
    3  A    between atoms: C_16  and  C_27
                            x       y       z     vdW  Elec       q    Type
                         _______ _______ _______ _____ _____    ______ ____

>  <TORSDO>
F 3

$$$$
=
 OpenBabel10272413113D

 32 37  0  0  1  0  0  0  0  0999 V2000
  187.5560  178.0390  144.7970 C   0  0  1  0  0  3  0  0  0  0  0  0
  186.8370  178.8360  142.4420 C   0  0  2  0  0  3  0  0  0  0  0  0
  187.2420  178.2860  146.2740 C   0  0  0  0  0  2  0  0  0  0  0  0
  186.5310  178.8190  143.9540 C   0  0  1  0  0  3  0  0  0  0  0  0
  185.7720  178.2050  141.5470 C   0  0  2  0  0  3  0  0  0  0  0  0
  189.9020  177.8640  138.6520 C   0  0  0  0  0  2  0  0  0  0  0  0
  188.1820  178.2240  142.0890 C   0  0  2  0  0  3  0  0  0  0  0  0
  187.4290  178.1020  138.3170 C   0  0  0  0  0  2  0  0  0  0  0  0
  187.2090  177.9170  139.8150 C   0  0  2  0  0  3  0  0  0  0  0  0
  185.1230  178.3900  144.3050 C   0  0  0  0  0  0  0  0  0  0  0  0
  186.0300  178.5840  140.2120 O   0  0  0  0  0  0  0  0  0  0  0  0
  184.1810  178.3320  143.4090 N   0  0  0  0  0  0  0  0  0  0  0  0
  184.8390  177.9760  145.6890 C   0  0  0  0  0  3  0  0  0  0  0  0
  189.2400  178.8400  142.9960 C   0  0  0  0  0  2  0  0  0  0  0  0
  189.0320  178.3850  144.4530 C   0  0  2  0  0  3  0  0  0  0  0  0
  188.4390  178.4380  140.5990 C   0  0  2  0  0  3  0  0  0  0  0  0
  184.3970  178.6890  142.0060 C   0  0  2  0  0  3  0  0  0  0  0  0
  185.8190  177.9040  146.5980 C   0  0  0  0  0  3  0  0  0  0  0  0
  188.6870  177.3590  137.8770 C   0  0  0  0  0  2  0  0  0  0  0  0
  189.6890  177.6800  140.1520 C   0  0  0  0  0  2  0  0  0  0  0  0
  191.5060  175.4050  143.8140 C   0  0  2  0  0  3  0  0  0  0  0  0
  190.7960  174.4200  143.1280 O   0  0  0  0  0  1  0  0  0  0  0  0
  189.9960  177.2230  144.7300 C   0  0  2  0  0  3  0  0  0  0  0  0
  191.5980  175.0270  145.3000 C   0  0  0  0  0  2  0  0  0  0  0  0
  190.7190  177.2630  146.0880 C   0  0  0  0  0  2  0  0  0  0  0  0
  190.8720  176.7810  143.5490 C   0  0  1  0  0  3  0  0  0  0  0  0
  191.9740  177.7810  143.2450 C   0  0  0  0  0  1  0  0  0  0  0  0
  191.8720  176.2520  146.1680 C   0  0  1  0  0  3  0  0  0  0  0  0
  192.6360  176.5820  148.3740 O   0  0  0  0  0  0  0  0  0  0  0  0
  192.0880  175.8320  147.5830 C   0  0  0  0  0  3  0  0  0  0  0  0
  183.2680  178.1370  141.1370 C   0  0  0  0  0  2  0  0  0  0  0  0
  181.9090  178.6830  141.5450 C   0  0  0  0  0  1  0  0  0  0  0  0
  1  3  1  1  0  0  0
  2  4  1  0  0  0  0
  3 18  1  0  0  0  0
  4 10  1  0  0  0  0
  4  1  1  0  0  0  0
  5 17  1  0  0  0  0
  5  2  1  0  0  0  0
  6 20  1  0  0  0  0
  7  2  1  0  0  0  0
  7 14  1  0  0  0  0
  8  9  1  0  0  0  0
  9 11  1  0  0  0  0
  9 16  1  0  0  0  0
 10 13  1  0  0  0  0
 11  5  1  0  0  0  0
 12 10  2  0  0  0  0
 13 18  2  0  0  0  0
 14 15  1  0  0  0  0
 15 23  1  0  0  0  0
 15  1  1  0  0  0  0
 16  7  1  0  0  0  0
 17 12  1  0  0  0  0
 19  8  1  0  0  0  0
 19  6  1  0  0  0  0
 20 16  1  0  0  0  0
 21 24  1  0  0  0  0
 22 21  1  0  0  0  0
 23 25  1  0  0  0  0
 24 28  1  0  0  0  0
 25 28  1  0  0  0  0
 26 21  1  0  0  0  0
 26 23  1  0  0  0  0
 27 26  1  0  0  0  0
 28 30  1  0  0  0  0
 30 29  2  0  0  0  0
 31 32  1  0  0  0  0
 31 17  1  0  0  0  0
M  END
>  <MODEL>
6

>  <REMARK>
 VINA RESULT:      -7.6      2.486      5.933
  Name = 
  3 active torsions:
  status: ('A' for Active; 'I' for Inactive)
    1  A    between atoms: C_13  and  C_29
    2  A    between atoms: C_15  and  C_26
    3  A    between atoms: C_16  and  C_27
                            x       y       z     vdW  Elec       q    Type
                         _______ _______ _______ _____ _____    ______ ____

>  <TORSDO>
F 3

$$$$
=
 OpenBabel10272413113D

 32 37  0  0  1  0  0  0  0  0999 V2000
  186.6580  178.4090  141.1090 C   0  0  1  0  0  3  0  0  0  0  0  0
  187.4940  178.0390  138.6880 C   0  0  2  0  0  3  0  0  0  0  0  0
  185.6050  179.2010  141.8870 C   0  0  0  0  0  2  0  0  0  0  0  0
  186.3940  178.6090  139.6060 C   0  0  1  0  0  3  0  0  0  0  0  0
  187.0450  176.9470  137.7200 C   0  0  2  0  0  3  0  0  0  0  0  0
  192.0020  176.0290  138.0960 C   0  0  0  0  0  2  0  0  0  0  0  0
  188.7130  177.5360  139.4440 C   0  0  2  0  0  3  0  0  0  0  0  0
  190.1980  175.7470  136.3770 C   0  0  0  0  0  2  0  0  0  0  0  0
  189.1540  176.1730  137.4040 C   0  0  2  0  0  3  0  0  0  0  0  0
  184.9900  178.1680  139.2530 C   0  0  0  0  0  0  0  0  0  0  0  0
  188.0530  176.7680  136.7490 O   0  0  0  0  0  0  0  0  0  0  0  0
  184.7160  177.6070  138.1120 N   0  0  0  0  0  0  0  0  0  0  0  0
  183.9280  178.3330  140.2590 C   0  0  0  0  0  3  0  0  0  0  0  0
  189.1490  178.6190  140.4220 C   0  0  0  0  0  2  0  0  0  0  0  0
  188.1030  178.7880  141.5410 C   0  0  2  0  0  3  0  0  0  0  0  0
  189.7870  177.1440  138.4310 C   0  0  2  0  0  3  0  0  0  0  0  0
  185.7250  177.3740  137.0780 C   0  0  2  0  0  3  0  0  0  0  0  0
  184.2100  178.7880  141.4860 C   0  0  0  0  0  3  0  0  0  0  0  0
  191.3780  175.0770  137.0770 C   0  0  0  0  0  2  0  0  0  0  0  0
  190.9610  176.4580  139.1270 C   0  0  0  0  0  2  0  0  0  0  0  0
  190.4700  176.7830  143.9450 C   0  0  2  0  0  3  0  0  0  0  0  0
  190.8630  175.6290  143.2680 O   0  0  0  0  0  1  0  0  0  0  0  0
  188.5850  178.0000  142.7660 C   0  0  2  0  0  3  0  0  0  0  0  0
  189.3450  176.4370  144.9330 C   0  0  0  0  0  2  0  0  0  0  0  0
  187.8130  178.2550  144.0730 C   0  0  0  0  0  2  0  0  0  0  0  0
  190.1070  177.8810  142.9310 C   0  0  1  0  0  3  0  0  0  0  0  0
  190.7410  179.1890  143.3740 C   0  0  0  0  0  1  0  0  0  0  0  0
  188.5290  177.6740  145.2990 C   0  0  1  0  0  3  0  0  0  0  0  0
  186.3680  177.6640  146.2410 O   0  0  0  0  0  0  0  0  0  0  0  0
  187.5360  177.3300  146.3570 C   0  0  0  0  0  3  0  0  0  0  0  0
  185.2190  176.3540  136.0600 C   0  0  0  0  0  2  0  0  0  0  0  0
  184.9870  174.9870  136.6840 C   0  0  0  0  0  1  0  0  0  0  0  0
  1 15  1  0  0  0  0
  1  3  1  1  0  0  0
  2  7  1  0  0  0  0
  2  4  1  0  0  0  0
  4  1  1  0  0  0  0
  5  2  1  0  0  0  0
  6 20  1  0  0  0  0
  7 14  1  0  0  0  0
  8 19  1  0  0  0  0
  8  9  1  0  0  0  0
  9 16  1  0  0  0  0
 10  4  1  0  0  0  0
 10 13  1  0  0  0  0
 11  9  1  0  0  0  0
 11  5  1  0  0  0  0
 12 10  2  0  0  0  0
 13 18  2  0  0  0  0
 14 15  1  0  0  0  0
 15 23  1  0  0  0  0
 16 20  1  0  0  0  0
 16  7  1  0  0  0  0
 17  5  1  0  0  0  0
 17 12  1  0  0  0  0
 18  3  1  0  0  0  0
 19  6  1  0  0  0  0
 21 24  1  0  0  0  0
 22 21  1  0  0  0  0
 23 26  1  0  0  0  0
 23 25  1  0  0  0  0
 24 28  1  0  0  0  0
 25 28  1  0  0  0  0
 26 27  1  0  0  0  0
 26 21  1  0  0  0  0
 28 30  1  0  0  0  0
 29 30  2  0  0  0  0
 31 32  1  0  0  0  0
 31 17  1  0  0  0  0
M  END
>  <MODEL>
7

>  <REMARK>
 VINA RESULT:      -7.6      2.337      7.275
  Name = 
  3 active torsions:
  status: ('A' for Active; 'I' for Inactive)
    1  A    between atoms: C_13  and  C_29
    2  A    between atoms: C_15  and  C_26
    3  A    between atoms: C_16  and  C_27
                            x       y       z     vdW  Elec       q    Type
                         _______ _______ _______ _____ _____    ______ ____

>  <TORSDO>
F 3

$$$$
=
 OpenBabel10272413113D

 32 37  0  0  1  0  0  0  0  0999 V2000
  187.9980  177.6810  139.4450 C   0  0  1  0  0  3  0  0  0  0  0  0
  186.4260  178.7290  141.2130 C   0  0  2  0  0  3  0  0  0  0  0  0
  189.4800  177.6250  139.0680 C   0  0  0  0  0  2  0  0  0  0  0  0
  187.8760  178.4120  140.7950 C   0  0  1  0  0  3  0  0  0  0  0  0
  185.9620  178.0900  142.5210 C   0  0  2  0  0  3  0  0  0  0  0  0
  181.5730  178.9140  140.1510 C   0  0  0  0  0  2  0  0  0  0  0  0
  185.4010  178.4120  140.1360 C   0  0  2  0  0  3  0  0  0  0  0  0
  182.4000  178.7970  142.5160 C   0  0  0  0  0  2  0  0  0  0  0  0
  183.7640  178.3320  142.0150 C   0  0  2  0  0  3  0  0  0  0  0  0
  188.6950  177.7060  141.8530 C   0  0  0  0  0  0  0  0  0  0  0  0
  184.7680  178.7230  142.9280 O   0  0  0  0  0  0  0  0  0  0  0  0
  188.3050  177.6440  143.0930 N   0  0  0  0  0  0  0  0  0  0  0  0
  189.9370  177.0280  141.4450 C   0  0  0  0  0  3  0  0  0  0  0  0
  185.8740  179.0330  138.8290 C   0  0  0  0  0  2  0  0  0  0  0  0
  187.1370  178.3150  138.3170 C   0  0  2  0  0  3  0  0  0  0  0  0
  184.0340  178.9090  140.6030 C   0  0  2  0  0  3  0  0  0  0  0  0
  187.0640  178.2600  143.5660 C   0  0  2  0  0  3  0  0  0  0  0  0
  190.2930  176.9670  140.1560 C   0  0  0  0  0  3  0  0  0  0  0  0
  181.3080  178.3520  141.5470 C   0  0  0  0  0  2  0  0  0  0  0  0
  182.9370  178.4510  139.6440 C   0  0  0  0  0  2  0  0  0  0  0  0
  186.2130  176.7970  134.8170 C   0  0  2  0  0  3  0  0  0  0  0  0
  185.1010  177.4940  134.3460 O   0  0  0  0  0  1  0  0  0  0  0  0
  186.7070  177.2970  137.2530 C   0  0  2  0  0  3  0  0  0  0  0  0
  185.7620  175.4510  135.4040 C   0  0  0  0  0  2  0  0  0  0  0  0
  186.9700  175.8200  137.5940 C   0  0  0  0  0  2  0  0  0  0  0  0
  187.0040  177.6820  135.7960 C   0  0  1  0  0  3  0  0  0  0  0  0
  188.4830  177.5810  135.4650 C   0  0  0  0  0  1  0  0  0  0  0  0
  186.7960  174.8970  136.3800 C   0  0  1  0  0  3  0  0  0  0  0  0
  187.2110  172.7710  137.3120 O   0  0  0  0  0  0  0  0  0  0  0  0
  186.3900  173.5330  136.8270 C   0  0  0  0  0  3  0  0  0  0  0  0
  186.6690  177.6830  144.9250 C   0  0  0  0  0  2  0  0  0  0  0  0
  187.8480  177.6090  145.8820 C   0  0  0  0  0  1  0  0  0  0  0  0
  1  3  1  6  0  0  0
  1  4  1  0  0  0  0
  2  5  1  0  0  0  0
  3 18  1  0  0  0  0
  4  2  1  0  0  0  0
  4 10  1  0  0  0  0
  5 11  1  0  0  0  0
  5 17  1  0  0  0  0
  6 19  1  0  0  0  0
  7 16  1  0  0  0  0
  7  2  1  0  0  0  0
  9  8  1  0  0  0  0
  9 11  1  0  0  0  0
 10 12  2  0  0  0  0
 12 17  1  0  0  0  0
 13 10  1  0  0  0  0
 14  7  1  0  0  0  0
 15 14  1  0  0  0  0
 15  1  1  0  0  0  0
 16  9  1  0  0  0  0
 17 31  1  0  0  0  0
 18 13  2  0  0  0  0
 19  8  1  0  0  0  0
 20  6  1  0  0  0  0
 20 16  1  0  0  0  0
 21 24  1  0  0  0  0
 21 26  1  0  0  0  0
 22 21  1  0  0  0  0
 23 25  1  0  0  0  0
 23 15  1  0  0  0  0
 24 28  1  0  0  0  0
 26 23  1  0  0  0  0
 27 26  1  0  0  0  0
 28 30  1  0  0  0  0
 28 25  1  0  0  0  0
 30 29  2  0  0  0  0
 31 32  1  0  0  0  0
M  END
>  <MODEL>
8

>  <REMARK>
 VINA RESULT:      -7.4      2.068      3.048
  Name = 
  3 active torsions:
  status: ('A' for Active; 'I' for Inactive)
    1  A    between atoms: C_13  and  C_29
    2  A    between atoms: C_15  and  C_26
    3  A    between atoms: C_16  and  C_27
                            x       y       z     vdW  Elec       q    Type
                         _______ _______ _______ _____ _____    ______ ____

>  <TORSDO>
F 3

$$$$
=
 OpenBabel10272413113D

 32 37  0  0  1  0  0  0  0  0999 V2000
  186.1010  178.4960  142.5620 C   0  0  1  0  0  3  0  0  0  0  0  0
  186.1530  178.6830  139.9810 C   0  0  2  0  0  3  0  0  0  0  0  0
  185.3260  179.0270  143.7690 C   0  0  0  0  0  2  0  0  0  0  0  0
  185.3810  178.9660  141.2850 C   0  0  1  0  0  3  0  0  0  0  0  0
  185.4470  177.7700  138.9810 C   0  0  2  0  0  3  0  0  0  0  0  0
  190.2930  177.2150  137.6530 C   0  0  0  0  0  2  0  0  0  0  0  0
  187.5560  178.1450  140.2120 C   0  0  2  0  0  3  0  0  0  0  0  0
  188.0510  177.1280  136.5330 C   0  0  0  0  0  2  0  0  0  0  0  0
  187.3690  177.2540  137.8910 C   0  0  2  0  0  3  0  0  0  0  0  0
  183.9460  178.4880  141.2820 C   0  0  0  0  0  0  0  0  0  0  0  0
  186.1080  177.8720  137.7390 O   0  0  0  0  0  0  0  0  0  0  0  0
  183.3410  178.1420  140.1830 N   0  0  0  0  0  0  0  0  0  0  0  0
  183.2440  178.3600  142.5710 C   0  0  0  0  0  3  0  0  0  0  0  0
  188.2530  179.0460  141.2230 C   0  0  0  0  0  2  0  0  0  0  0  0
  187.6010  178.9020  142.6120 C   0  0  2  0  0  3  0  0  0  0  0  0
  188.2700  178.0520  138.8650 C   0  0  2  0  0  3  0  0  0  0  0  0
  183.9850  178.2040  138.8700 C   0  0  2  0  0  3  0  0  0  0  0  0
  183.8840  178.5860  143.7240 C   0  0  0  0  0  3  0  0  0  0  0  0
  189.4020  176.4340  136.6890 C   0  0  0  0  0  2  0  0  0  0  0  0
  189.6150  177.3430  139.0150 C   0  0  0  0  0  2  0  0  0  0  0  0
  190.4960  176.4360  143.5830 C   0  0  2  0  0  3  0  0  0  0  0  0
  190.4230  175.3510  142.7100 O   0  0  0  0  0  1  0  0  0  0  0  0
  188.4540  177.9300  143.4390 C   0  0  2  0  0  3  0  0  0  0  0  0
  189.8590  176.0520  144.9270 C   0  0  0  0  0  2  0  0  0  0  0  0
  188.3420  178.0750  144.9670 C   0  0  0  0  0  2  0  0  0  0  0  0
  189.8770  177.6780  142.9200 C   0  0  1  0  0  3  0  0  0  0  0  0
  190.7930  178.8670  143.1530 C   0  0  0  0  0  1  0  0  0  0  0  0
  189.4310  177.2900  145.7110 C   0  0  1  0  0  3  0  0  0  0  0  0
  189.0540  177.6480  148.0110 O   0  0  0  0  0  0  0  0  0  0  0  0
  188.9410  176.8890  147.0620 C   0  0  0  0  0  3  0  0  0  0  0  0
  183.2080  177.3660  137.8560 C   0  0  0  0  0  2  0  0  0  0  0  0
  183.1000  175.9090  138.2780 C   0  0  0  0  0  1  0  0  0  0  0  0
  1 15  1  0  0  0  0
  1  3  1  1  0  0  0
  2  7  1  0  0  0  0
  2  4  1  0  0  0  0
  4  1  1  0  0  0  0
  5  2  1  0  0  0  0
  6 20  1  0  0  0  0
  7 14  1  0  0  0  0
  8 19  1  0  0  0  0
  8  9  1  0  0  0  0
  9 16  1  0  0  0  0
 10  4  1  0  0  0  0
 10 13  1  0  0  0  0
 11  9  1  0  0  0  0
 11  5  1  0  0  0  0
 12 10  2  0  0  0  0
 13 18  2  0  0  0  0
 14 15  1  0  0  0  0
 15 23  1  0  0  0  0
 16 20  1  0  0  0  0
 16  7  1  0  0  0  0
 17  5  1  0  0  0  0
 17 12  1  0  0  0  0
 18  3  1  0  0  0  0
 19  6  1  0  0  0  0
 21 24  1  0  0  0  0
 22 21  1  0  0  0  0
 23 25  1  0  0  0  0
 24 28  1  0  0  0  0
 25 28  1  0  0  0  0
 26 27  1  0  0  0  0
 26 23  1  0  0  0  0
 26 21  1  0  0  0  0
 28 30  1  0  0  0  0
 30 29  2  0  0  0  0
 31 32  1  0  0  0  0
 31 17  1  0  0  0  0
M  END
>  <MODEL>
9

>  <REMARK>
 VINA RESULT:      -7.3      2.419      6.671
  Name = 
  3 active torsions:
  status: ('A' for Active; 'I' for Inactive)
    1  A    between atoms: C_13  and  C_29
    2  A    between atoms: C_15  and  C_26
    3  A    between atoms: C_16  and  C_27
                            x       y       z     vdW  Elec       q    Type
                         _______ _______ _______ _____ _____    ______ ____

>  <TORSDO>
F 3

$$$$
