=
 OpenBabel10272414583D

 37 40  0  0  1  0  0  0  0  0999 V2000
  184.0870  180.2440  139.0510 N   0  0  0  0  0  0  0  0  0  0  0  0
  181.2170  176.8580  138.8780 C   0  0  0  0  0  3  0  0  0  0  0  0
  184.9420  179.0820  139.2360 C   0  0  2  0  0  3  0  0  0  0  0  0
  182.2780  177.7450  138.6530 C   0  0  0  0  0  0  0  0  0  0  0  0
  181.9810  179.1120  138.8120 O   0  0  0  0  0  0  0  0  0  0  0  0
  183.5390  177.2210  138.2710 C   0  0  0  0  0  0  0  0  0  0  0  0
  182.6220  174.9650  138.3660 C   0  0  0  0  0  3  0  0  0  0  0  0
  182.8020  180.2560  138.8420 C   0  0  0  0  0  0  0  0  0  0  0  0
  183.6890  175.8310  138.1320 C   0  0  0  0  0  3  0  0  0  0  0  0
  184.7240  178.1200  138.0620 C   0  0  2  0  0  3  0  0  0  0  0  0
  181.3830  175.4790  138.7420 C   0  0  0  0  0  0  0  0  0  0  0  0
  186.1070  178.0420  141.1730 C   0  0  0  0  0  2  0  0  0  0  0  0
  184.7560  178.4570  140.6250 C   0  0  1  0  0  3  0  0  0  0  0  0
  185.4460  179.2990  141.6850 C   0  0  1  0  0  3  0  0  0  0  0  0
  184.8140  179.0050  143.0330 C   0  0  0  0  0  2  0  0  0  0  0  0
  185.7780  179.3190  144.1630 C   0  0  0  0  0  2  0  0  0  0  0  0
  186.3270  178.8240  146.5230 C   0  0  0  0  0  2  0  0  0  0  0  0
  185.6790  178.2650  145.2640 C   0  0  2  0  0  3  0  0  0  0  0  0
  186.7540  177.1690  145.2080 C   0  0  1  0  0  3  0  0  0  0  0  0
  187.3890  176.8400  147.6320 C   0  0  0  0  0  1  0  0  0  0  0  0
  188.7910  178.4180  146.2470 C   0  0  0  0  0  1  0  0  0  0  0  0
  187.6190  177.1530  143.9460 C   0  0  0  0  0  1  0  0  0  0  0  0
  187.4210  177.7770  146.4420 C   0  0  0  0  0  0  0  0  0  0  0  0
  180.2500  174.5560  139.0340 C   0  0  0  0  0  2  0  0  0  0  0  0
  180.1370  173.5150  137.9380 C   0  0  0  0  0  1  0  0  0  0  0  0
  182.1230  181.5750  138.6980 C   0  0  0  0  0  2  0  0  0  0  0  0
  181.1330  181.5060  137.7120 O   0  0  0  0  0  1  0  0  0  0  0  0
  185.9340  177.4100  137.5840 N   0  0  0  0  0  0  0  0  0  0  0  0
  185.8870  177.0570  136.1550 C   0  0  1  0  0  3  0  0  0  0  0  0
  186.6480  178.0810  135.3300 C   0  0  0  0  0  1  0  0  0  0  0  0
  187.6600  175.7050  135.2600 O   0  0  0  0  0  1  0  0  0  0  0  0
  186.3880  175.6480  135.8340 C   0  0  0  0  0  2  0  0  0  0  0  0
  187.1750  178.1090  137.9060 C   0  0  0  0  0  2  0  0  0  0  0  0
  188.1900  177.1290  138.4530 C   0  0  0  0  0  2  0  0  0  0  0  0
  189.4690  177.8610  138.7920 C   0  0  0  0  0  2  0  0  0  0  0  0
  190.1340  177.1880  141.0770 C   0  0  0  0  0  1  0  0  0  0  0  0
  190.3740  176.9560  139.6020 C   0  0  0  0  0  2  0  0  0  0  0  0
  3  1  1  6  0  0  0
  3 13  1  0  0  0  0
  4  5  1  0  0  0  0
  4  2  2  0  0  0  0
  5  8  1  0  0  0  0
  6  4  1  0  0  0  0
  7 11  2  0  0  0  0
  8  1  2  0  0  0  0
  9  6  2  0  0  0  0
  9  7  1  0  0  0  0
 10 28  1  1  0  0  0
 10  6  1  0  0  0  0
 10  3  1  0  0  0  0
 11  2  1  0  0  0  0
 11 24  1  0  0  0  0
 12 14  1  0  0  0  0
 13 12  1  6  0  0  0
 13 14  1  0  0  0  0
 14 15  1  1  0  0  0
 15 16  1  0  0  0  0
 18 16  1  6  0  0  0
 18 17  1  0  0  0  0
 19 22  1  6  0  0  0
 19 18  1  0  0  0  0
 19 23  1  0  0  0  0
 21 23  1  0  0  0  0
 23 17  1  0  0  0  0
 23 20  1  0  0  0  0
 25 24  1  0  0  0  0
 26  8  1  0  0  0  0
 27 26  1  0  0  0  0
 28 33  1  0  0  0  0
 29 30  1  6  0  0  0
 29 28  1  0  0  0  0
 31 32  1  0  0  0  0
 32 29  1  0  0  0  0
 33 34  1  0  0  0  0
 34 35  1  0  0  0  0
 35 37  1  0  0  0  0
 37 36  1  0  0  0  0
M  END
>  <MODEL>
1

>  <REMARK>
 VINA RESULT:      -5.7      0.000      0.000
  Name = 
  13 active torsions:
  status: ('A' for Active; 'I' for Inactive)
    1  A    between atoms: C_1  and  C_12
    2  A    between atoms: C_1  and  N_36
    3  A    between atoms: C_3  and  C_32
    4  A    between atoms: C_6  and  C_31
    5  A    between atoms: C_10  and  C_14
    6  A    between atoms: C_17  and  C_26
    7  A    between atoms: C_17  and  C_33
    8  A    between atoms: C_22  and  C_24
    9  A    between atoms: C_26  and  C_34
   10  A    between atoms: C_27  and  C_37
   11  A    between atoms: C_29  and  N_36
   12  A    between atoms: C_31  and  C_37
   13  A    between atoms: C_33  and  N_36
                            x       y       z     vdW  Elec       q    Type
                         _______ _______ _______ _____ _____    ______ ____

>  <TORSDO>
F 13

$$$$
=
 OpenBabel10272414583D

 37 40  0  0  1  0  0  0  0  0999 V2000
  189.7090  178.0970  137.1990 N   0  0  0  0  0  0  0  0  0  0  0  0
  186.8720  174.6880  136.9570 C   0  0  0  0  0  3  0  0  0  0  0  0
  190.5240  176.9650  137.6110 C   0  0  2  0  0  3  0  0  0  0  0  0
  187.9590  175.5570  136.7970 C   0  0  0  0  0  0  0  0  0  0  0  0
  187.6500  176.9300  136.7800 O   0  0  0  0  0  0  0  0  0  0  0  0
  189.2570  175.0090  136.6450 C   0  0  0  0  0  0  0  0  0  0  0  0
  188.3240  172.7650  136.8290 C   0  0  0  0  0  3  0  0  0  0  0  0
  188.4650  178.0790  136.8130 C   0  0  0  0  0  0  0  0  0  0  0  0
  189.4180  173.6130  136.6620 C   0  0  0  0  0  3  0  0  0  0  0  0
  190.4650  175.8930  136.5160 C   0  0  2  0  0  3  0  0  0  0  0  0
  187.0470  173.3030  136.9780 C   0  0  0  0  0  0  0  0  0  0  0  0
  191.2020  176.9190  140.0040 C   0  0  0  0  0  2  0  0  0  0  0  0
  190.1440  176.4750  139.0140 C   0  0  1  0  0  3  0  0  0  0  0  0
  189.8840  177.6520  139.9380 C   0  0  1  0  0  3  0  0  0  0  0  0
  189.0100  177.1910  141.0880 C   0  0  0  0  0  2  0  0  0  0  0  0
  189.7610  176.2240  141.9860 C   0  0  0  0  0  2  0  0  0  0  0  0
  188.6580  177.6740  143.6600 C   0  0  0  0  0  2  0  0  0  0  0  0
  189.2140  176.2780  143.4120 C   0  0  2  0  0  3  0  0  0  0  0  0
  190.2720  176.5150  144.5020 C   0  0  1  0  0  3  0  0  0  0  0  0
  189.1420  178.1340  146.0790 C   0  0  0  0  0  1  0  0  0  0  0  0
  190.6420  179.0840  144.2830 C   0  0  0  0  0  1  0  0  0  0  0  0
  191.7280  176.4330  144.0400 C   0  0  0  0  0  1  0  0  0  0  0  0
  189.7330  177.9320  144.6980 C   0  0  0  0  0  0  0  0  0  0  0  0
  185.8800  172.4040  137.1990 C   0  0  0  0  0  2  0  0  0  0  0  0
  185.1460  172.1810  135.8910 C   0  0  0  0  0  1  0  0  0  0  0  0
  187.8200  179.3720  136.4510 C   0  0  0  0  0  2  0  0  0  0  0  0
  186.5180  179.4250  136.9600 O   0  0  0  0  0  1  0  0  0  0  0  0
  191.7250  175.1500  136.2810 N   0  0  0  0  0  0  0  0  0  0  0  0
  192.0620  174.9920  134.8550 C   0  0  1  0  0  3  0  0  0  0  0  0
  193.0480  176.0620  134.4210 C   0  0  0  0  0  1  0  0  0  0  0  0
  193.9820  173.6380  134.3540 O   0  0  0  0  0  1  0  0  0  0  0  0
  192.5920  173.6070  134.4800 C   0  0  0  0  0  2  0  0  0  0  0  0
  192.8590  175.6920  137.0240 C   0  0  0  0  0  2  0  0  0  0  0  0
  193.4880  174.6030  137.8670 C   0  0  0  0  0  2  0  0  0  0  0  0
  194.9930  174.6560  137.7210 C   0  0  0  0  0  2  0  0  0  0  0  0
  195.2740  172.2100  137.9590 C   0  0  0  0  0  1  0  0  0  0  0  0
  195.6230  173.5580  138.5520 C   0  0  0  0  0  2  0  0  0  0  0  0
  2 11  1  0  0  0  0
  3  1  1  6  0  0  0
  3 13  1  0  0  0  0
  4  2  2  0  0  0  0
  5  4  1  0  0  0  0
  5  8  1  0  0  0  0
  6  9  2  0  0  0  0
  6  4  1  0  0  0  0
  7 11  2  0  0  0  0
  8  1  2  0  0  0  0
  9  7  1  0  0  0  0
 10 28  1  1  0  0  0
 10  6  1  0  0  0  0
 10  3  1  0  0  0  0
 11 24  1  0  0  0  0
 13 14  1  0  0  0  0
 13 12  1  1  0  0  0
 14 12  1  0  0  0  0
 14 15  1  1  0  0  0
 15 16  1  0  0  0  0
 17 23  1  0  0  0  0
 18 16  1  6  0  0  0
 18 17  1  0  0  0  0
 18 19  1  0  0  0  0
 19 22  1  6  0  0  0
 19 23  1  0  0  0  0
 21 23  1  0  0  0  0
 23 20  1  0  0  0  0
 25 24  1  0  0  0  0
 26  8  1  0  0  0  0
 26 27  1  0  0  0  0
 28 33  1  0  0  0  0
 29 30  1  1  0  0  0
 29 28  1  0  0  0  0
 31 32  1  0  0  0  0
 32 29  1  0  0  0  0
 33 34  1  0  0  0  0
 35 34  1  0  0  0  0
 35 37  1  0  0  0  0
 36 37  1  0  0  0  0
M  END
>  <MODEL>
2

>  <REMARK>
 VINA RESULT:      -5.4      3.972      5.830
  Name = 
  13 active torsions:
  status: ('A' for Active; 'I' for Inactive)
    1  A    between atoms: C_1  and  C_12
    2  A    between atoms: C_1  and  N_36
    3  A    between atoms: C_3  and  C_32
    4  A    between atoms: C_6  and  C_31
    5  A    between atoms: C_10  and  C_14
    6  A    between atoms: C_17  and  C_26
    7  A    between atoms: C_17  and  C_33
    8  A    between atoms: C_22  and  C_24
    9  A    between atoms: C_26  and  C_34
   10  A    between atoms: C_27  and  C_37
   11  A    between atoms: C_29  and  N_36
   12  A    between atoms: C_31  and  C_37
   13  A    between atoms: C_33  and  N_36
                            x       y       z     vdW  Elec       q    Type
                         _______ _______ _______ _____ _____    ______ ____

>  <TORSDO>
F 13

$$$$
=
 OpenBabel10272414583D

 37 40  0  0  1  0  0  0  0  0999 V2000
  182.2890  176.4250  137.8940 N   0  0  0  0  0  0  0  0  0  0  0  0
  180.7660  180.1880  136.0930 C   0  0  0  0  0  3  0  0  0  0  0  0
  182.8690  177.4520  138.7460 C   0  0  2  0  0  3  0  0  0  0  0  0
  181.0770  179.1340  136.9600 C   0  0  0  0  0  0  0  0  0  0  0  0
  181.0670  177.8460  136.3910 O   0  0  0  0  0  0  0  0  0  0  0  0
  181.3540  179.4230  138.3200 C   0  0  0  0  0  0  0  0  0  0  0  0
  181.0040  181.7950  137.8770 C   0  0  0  0  0  3  0  0  0  0  0  0
  181.4850  176.5950  136.8840 C   0  0  0  0  0  0  0  0  0  0  0  0
  181.3110  180.7580  138.7580 C   0  0  0  0  0  3  0  0  0  0  0  0
  181.7390  178.3390  139.2850 C   0  0  2  0  0  3  0  0  0  0  0  0
  180.7320  181.5100  136.5410 C   0  0  0  0  0  0  0  0  0  0  0  0
  185.2350  178.2010  138.9070 C   0  0  0  0  0  2  0  0  0  0  0  0
  183.9980  178.2080  138.0330 C   0  0  1  0  0  3  0  0  0  0  0  0
  185.1520  177.2710  137.7210 C   0  0  1  0  0  3  0  0  0  0  0  0
  185.9660  177.8560  136.5830 C   0  0  0  0  0  2  0  0  0  0  0  0
  187.0410  178.7900  137.1090 C   0  0  0  0  0  2  0  0  0  0  0  0
  188.2540  177.1810  135.6730 C   0  0  0  0  0  2  0  0  0  0  0  0
  188.3900  178.4760  136.4630 C   0  0  2  0  0  3  0  0  0  0  0  0
  189.4070  177.7930  137.3900 C   0  0  1  0  0  3  0  0  0  0  0  0
  190.4820  176.0510  135.9080 C   0  0  0  0  0  1  0  0  0  0  0  0
  188.5400  175.3360  137.3550 C   0  0  0  0  0  1  0  0  0  0  0  0
  189.0200  177.7330  138.8690 C   0  0  0  0  0  1  0  0  0  0  0  0
  189.2160  176.4880  136.6180 C   0  0  0  0  0  0  0  0  0  0  0  0
  180.4450  182.6170  135.5870 C   0  0  0  0  0  2  0  0  0  0  0  0
  180.9560  183.9290  136.1490 C   0  0  0  0  0  1  0  0  0  0  0  0
  181.0250  175.3900  136.1380 C   0  0  0  0  0  2  0  0  0  0  0  0
  181.4060  174.2250  136.8140 O   0  0  0  0  0  1  0  0  0  0  0  0
  181.9090  178.8120  140.6790 N   0  0  0  0  0  0  0  0  0  0  0  0
  180.6490  178.8720  141.4400 C   0  0  1  0  0  3  0  0  0  0  0  0
  179.9830  177.5080  141.4720 C   0  0  0  0  0  1  0  0  0  0  0  0
  180.1940  180.6760  142.9600 O   0  0  0  0  0  1  0  0  0  0  0  0
  180.7940  179.4190  142.8610 C   0  0  0  0  0  2  0  0  0  0  0  0
  182.9270  178.0710  141.4170 C   0  0  0  0  0  2  0  0  0  0  0  0
  184.0330  179.0100  141.8500 C   0  0  0  0  0  2  0  0  0  0  0  0
  184.3260  178.8050  143.3190 C   0  0  0  0  0  2  0  0  0  0  0  0
  185.9950  177.9870  144.9510 C   0  0  0  0  0  1  0  0  0  0  0  0
  185.6650  178.1180  143.4800 C   0  0  0  0  0  2  0  0  0  0  0  0
  2 11  2  0  0  0  0
  2  4  1  0  0  0  0
  3  1  1  6  0  0  0
  3 10  1  0  0  0  0
  4  6  2  0  0  0  0
  5  8  1  0  0  0  0
  5  4  1  0  0  0  0
  6  9  1  0  0  0  0
  6 10  1  0  0  0  0
  7  9  2  0  0  0  0
  8  1  2  0  0  0  0
 10 28  1  1  0  0  0
 11  7  1  0  0  0  0
 13  3  1  0  0  0  0
 13 12  1  1  0  0  0
 14 15  1  6  0  0  0
 14 13  1  0  0  0  0
 14 12  1  0  0  0  0
 15 16  1  0  0  0  0
 17 18  1  0  0  0  0
 17 23  1  0  0  0  0
 18 16  1  1  0  0  0
 18 19  1  0  0  0  0
 19 22  1  1  0  0  0
 20 23  1  0  0  0  0
 23 21  1  0  0  0  0
 23 19  1  0  0  0  0
 24 25  1  0  0  0  0
 24 11  1  0  0  0  0
 26 27  1  0  0  0  0
 26  8  1  0  0  0  0
 28 33  1  0  0  0  0
 28 29  1  0  0  0  0
 29 30  1  1  0  0  0
 29 32  1  0  0  0  0
 32 31  1  0  0  0  0
 33 34  1  0  0  0  0
 34 35  1  0  0  0  0
 35 37  1  0  0  0  0
 37 36  1  0  0  0  0
M  END
>  <MODEL>
3

>  <REMARK>
 VINA RESULT:      -5.4      2.508      7.104
  Name = 
  13 active torsions:
  status: ('A' for Active; 'I' for Inactive)
    1  A    between atoms: C_1  and  C_12
    2  A    between atoms: C_1  and  N_36
    3  A    between atoms: C_3  and  C_32
    4  A    between atoms: C_6  and  C_31
    5  A    between atoms: C_10  and  C_14
    6  A    between atoms: C_17  and  C_26
    7  A    between atoms: C_17  and  C_33
    8  A    between atoms: C_22  and  C_24
    9  A    between atoms: C_26  and  C_34
   10  A    between atoms: C_27  and  C_37
   11  A    between atoms: C_29  and  N_36
   12  A    between atoms: C_31  and  C_37
   13  A    between atoms: C_33  and  N_36
                            x       y       z     vdW  Elec       q    Type
                         _______ _______ _______ _____ _____    ______ ____

>  <TORSDO>
F 13

$$$$
=
 OpenBabel10272414583D

 37 40  0  0  1  0  0  0  0  0999 V2000
  185.3310  177.5820  136.6280 N   0  0  0  0  0  0  0  0  0  0  0  0
  185.3490  178.6040  140.9500 C   0  0  0  0  0  3  0  0  0  0  0  0
  184.0480  177.0750  137.0880 C   0  0  2  0  0  3  0  0  0  0  0  0
  185.0360  178.4850  139.5900 C   0  0  0  0  0  0  0  0  0  0  0  0
  186.1320  178.4860  138.7050 O   0  0  0  0  0  0  0  0  0  0  0  0
  183.6750  178.3950  139.2050 C   0  0  0  0  0  0  0  0  0  0  0  0
  183.0120  178.5380  141.5460 C   0  0  0  0  0  3  0  0  0  0  0  0
  186.2280  178.2180  137.3250 C   0  0  0  0  0  0  0  0  0  0  0  0
  182.6800  178.4240  140.1970 C   0  0  0  0  0  3  0  0  0  0  0  0
  183.2830  178.2180  137.7660 C   0  0  2  0  0  3  0  0  0  0  0  0
  184.3500  178.6270  141.9240 C   0  0  0  0  0  0  0  0  0  0  0  0
  182.9010  175.0540  137.9730 C   0  0  0  0  0  2  0  0  0  0  0  0
  184.2120  175.8120  137.9430 C   0  0  1  0  0  3  0  0  0  0  0  0
  184.0270  174.5660  137.0940 C   0  0  1  0  0  3  0  0  0  0  0  0
  184.7120  173.3990  137.7800 C   0  0  0  0  0  2  0  0  0  0  0  0
  185.4230  172.5180  136.7690 C   0  0  0  0  0  2  0  0  0  0  0  0
  187.3580  174.0240  137.0970 C   0  0  0  0  0  2  0  0  0  0  0  0
  186.9350  172.5650  136.9830 C   0  0  2  0  0  3  0  0  0  0  0  0
  187.7740  172.4320  135.7020 C   0  0  1  0  0  3  0  0  0  0  0  0
  189.6270  174.1170  136.0310 C   0  0  0  0  0  1  0  0  0  0  0  0
  187.5870  174.8420  134.7320 C   0  0  0  0  0  1  0  0  0  0  0  0
  187.0000  172.0430  134.4410 C   0  0  0  0  0  1  0  0  0  0  0  0
  188.1440  173.9110  135.8040 C   0  0  0  0  0  0  0  0  0  0  0  0
  184.7130  178.7060  143.3670 C   0  0  0  0  0  2  0  0  0  0  0  0
  183.5470  179.2590  144.1630 C   0  0  0  0  0  1  0  0  0  0  0  0
  187.4880  178.6320  136.6460 C   0  0  0  0  0  2  0  0  0  0  0  0
  188.3430  179.2670  137.5530 O   0  0  0  0  0  1  0  0  0  0  0  0
  181.8180  178.2280  137.5410 N   0  0  0  0  0  0  0  0  0  0  0  0
  181.2210  179.5740  137.5900 C   0  0  1  0  0  3  0  0  0  0  0  0
  180.9020  180.0640  136.1880 C   0  0  0  0  0  1  0  0  0  0  0  0
  180.0930  180.7880  139.3300 O   0  0  0  0  0  1  0  0  0  0  0  0
  179.9820  179.6850  138.4800 C   0  0  0  0  0  2  0  0  0  0  0  0
  181.4190  177.5270  136.3240 C   0  0  0  0  0  2  0  0  0  0  0  0
  180.2760  176.5820  136.6280 C   0  0  0  0  0  2  0  0  0  0  0  0
  179.9830  175.7340  135.4100 C   0  0  0  0  0  2  0  0  0  0  0  0
  181.5680  174.0880  134.4640 C   0  0  0  0  0  1  0  0  0  0  0  0
  181.2470  175.5610  134.5950 C   0  0  0  0  0  2  0  0  0  0  0  0
  1  8  2  0  0  0  0
  2 11  1  0  0  0  0
  3  1  1  1  0  0  0
  3 10  1  0  0  0  0
  3 13  1  0  0  0  0
  4  2  2  0  0  0  0
  5  4  1  0  0  0  0
  6  4  1  0  0  0  0
  6  9  2  0  0  0  0
  7 11  2  0  0  0  0
  8  5  1  0  0  0  0
  9  7  1  0  0  0  0
 10 28  1  1  0  0  0
 10  6  1  0  0  0  0
 11 24  1  0  0  0  0
 13 12  1  1  0  0  0
 14 15  1  1  0  0  0
 14 13  1  0  0  0  0
 14 12  1  0  0  0  0
 16 15  1  0  0  0  0
 18 16  1  6  0  0  0
 18 17  1  0  0  0  0
 19 22  1  6  0  0  0
 19 23  1  0  0  0  0
 19 18  1  0  0  0  0
 21 23  1  0  0  0  0
 23 20  1  0  0  0  0
 23 17  1  0  0  0  0
 24 25  1  0  0  0  0
 26  8  1  0  0  0  0
 26 27  1  0  0  0  0
 28 29  1  0  0  0  0
 29 30  1  6  0  0  0
 29 32  1  0  0  0  0
 32 31  1  0  0  0  0
 33 34  1  0  0  0  0
 33 28  1  0  0  0  0
 35 34  1  0  0  0  0
 36 37  1  0  0  0  0
 37 35  1  0  0  0  0
M  END
>  <MODEL>
4

>  <REMARK>
 VINA RESULT:      -5.0      2.708      7.733
  Name = 
  13 active torsions:
  status: ('A' for Active; 'I' for Inactive)
    1  A    between atoms: C_1  and  C_12
    2  A    between atoms: C_1  and  N_36
    3  A    between atoms: C_3  and  C_32
    4  A    between atoms: C_6  and  C_31
    5  A    between atoms: C_10  and  C_14
    6  A    between atoms: C_17  and  C_26
    7  A    between atoms: C_17  and  C_33
    8  A    between atoms: C_22  and  C_24
    9  A    between atoms: C_26  and  C_34
   10  A    between atoms: C_27  and  C_37
   11  A    between atoms: C_29  and  N_36
   12  A    between atoms: C_31  and  C_37
   13  A    between atoms: C_33  and  N_36
                            x       y       z     vdW  Elec       q    Type
                         _______ _______ _______ _____ _____    ______ ____

>  <TORSDO>
F 13

$$$$
=
 OpenBabel10272414583D

 37 40  0  0  1  0  0  0  0  0999 V2000
  185.6350  177.7020  136.7480 N   0  0  0  0  0  0  0  0  0  0  0  0
  185.7200  178.5870  141.1000 C   0  0  0  0  0  3  0  0  0  0  0  0
  184.3630  177.1730  137.2130 C   0  0  2  0  0  3  0  0  0  0  0  0
  185.3850  178.5090  139.7420 C   0  0  0  0  0  0  0  0  0  0  0  0
  186.4660  178.5440  138.8400 O   0  0  0  0  0  0  0  0  0  0  0  0
  184.0180  178.4230  139.3770 C   0  0  0  0  0  0  0  0  0  0  0  0
  183.3940  178.4890  141.7320 C   0  0  0  0  0  3  0  0  0  0  0  0
  186.5400  178.3210  137.4510 C   0  0  0  0  0  0  0  0  0  0  0  0
  183.0400  178.4160  140.3860 C   0  0  0  0  0  3  0  0  0  0  0  0
  183.6030  178.2900  137.9400 C   0  0  2  0  0  3  0  0  0  0  0  0
  184.7380  178.5730  142.0910 C   0  0  0  0  0  0  0  0  0  0  0  0
  183.2010  175.2140  138.2130 C   0  0  0  0  0  2  0  0  0  0  0  0
  184.5470  175.8850  138.0250 C   0  0  1  0  0  3  0  0  0  0  0  0
  184.1720  174.6720  137.1920 C   0  0  1  0  0  3  0  0  0  0  0  0
  184.8570  173.4480  137.7700 C   0  0  0  0  0  2  0  0  0  0  0  0
  185.0900  172.3990  136.6980 C   0  0  0  0  0  2  0  0  0  0  0  0
  182.9290  171.1980  136.6810 C   0  0  0  0  0  2  0  0  0  0  0  0
  183.8130  172.1560  135.8950 C   0  0  2  0  0  3  0  0  0  0  0  0
  183.9410  171.1080  134.7780 C   0  0  1  0  0  3  0  0  0  0  0  0
  181.7780  169.8110  134.9350 C   0  0  0  0  0  1  0  0  0  0  0  0
  183.7940  168.8990  136.1510 C   0  0  0  0  0  1  0  0  0  0  0  0
  185.3630  170.6310  134.4770 C   0  0  0  0  0  1  0  0  0  0  0  0
  183.0960  170.1400  135.6070 C   0  0  0  0  0  0  0  0  0  0  0  0
  185.1240  178.6090  143.5290 C   0  0  0  0  0  2  0  0  0  0  0  0
  183.9020  178.8740  144.3860 C   0  0  0  0  0  1  0  0  0  0  0  0
  187.7860  178.7630  136.7640 C   0  0  0  0  0  2  0  0  0  0  0  0
  188.9120  178.2900  137.4480 O   0  0  0  0  0  1  0  0  0  0  0  0
  182.1350  178.2990  137.7400 N   0  0  0  0  0  0  0  0  0  0  0  0
  181.4830  179.5380  138.1990 C   0  0  1  0  0  3  0  0  0  0  0  0
  181.1420  180.4270  137.0160 C   0  0  0  0  0  1  0  0  0  0  0  0
  179.9820  180.4500  139.8380 O   0  0  0  0  0  1  0  0  0  0  0  0
  180.2410  179.3170  139.0640 C   0  0  0  0  0  2  0  0  0  0  0  0
  181.7390  177.9810  136.3710 C   0  0  0  0  0  2  0  0  0  0  0  0
  180.3720  177.3320  136.3700 C   0  0  0  0  0  2  0  0  0  0  0  0
  180.4610  175.9610  137.0040 C   0  0  0  0  0  2  0  0  0  0  0  0
  180.2360  173.5340  136.5860 C   0  0  0  0  0  1  0  0  0  0  0  0
  179.9820  174.9140  136.0210 C   0  0  0  0  0  2  0  0  0  0  0  0
  1  8  2  0  0  0  0
  2 11  1  0  0  0  0
  3  1  1  1  0  0  0
  3 10  1  0  0  0  0
  3 13  1  0  0  0  0
  4  2  2  0  0  0  0
  5  4  1  0  0  0  0
  6  4  1  0  0  0  0
  6  9  2  0  0  0  0
  7 11  2  0  0  0  0
  8  5  1  0  0  0  0
  9  7  1  0  0  0  0
 10 28  1  1  0  0  0
 10  6  1  0  0  0  0
 11 24  1  0  0  0  0
 13 12  1  1  0  0  0
 14 15  1  1  0  0  0
 14 13  1  0  0  0  0
 14 12  1  0  0  0  0
 16 15  1  0  0  0  0
 18 17  1  0  0  0  0
 18 16  1  1  0  0  0
 19 22  1  1  0  0  0
 19 23  1  0  0  0  0
 19 18  1  0  0  0  0
 20 23  1  0  0  0  0
 23 21  1  0  0  0  0
 23 17  1  0  0  0  0
 24 25  1  0  0  0  0
 26 27  1  0  0  0  0
 26  8  1  0  0  0  0
 28 29  1  0  0  0  0
 29 30  1  6  0  0  0
 29 32  1  0  0  0  0
 32 31  1  0  0  0  0
 33 28  1  0  0  0  0
 34 33  1  0  0  0  0
 34 35  1  0  0  0  0
 37 36  1  0  0  0  0
 37 35  1  0  0  0  0
M  END
>  <MODEL>
5

>  <REMARK>
 VINA RESULT:      -4.7      2.879      8.396
  Name = 
  13 active torsions:
  status: ('A' for Active; 'I' for Inactive)
    1  A    between atoms: C_1  and  C_12
    2  A    between atoms: C_1  and  N_36
    3  A    between atoms: C_3  and  C_32
    4  A    between atoms: C_6  and  C_31
    5  A    between atoms: C_10  and  C_14
    6  A    between atoms: C_17  and  C_26
    7  A    between atoms: C_17  and  C_33
    8  A    between atoms: C_22  and  C_24
    9  A    between atoms: C_26  and  C_34
   10  A    between atoms: C_27  and  C_37
   11  A    between atoms: C_29  and  N_36
   12  A    between atoms: C_31  and  C_37
   13  A    between atoms: C_33  and  N_36
                            x       y       z     vdW  Elec       q    Type
                         _______ _______ _______ _____ _____    ______ ____

>  <TORSDO>
F 13

$$$$
=
 OpenBabel10272414583D

 37 40  0  0  1  0  0  0  0  0999 V2000
  185.1400  178.1320  137.1490 N   0  0  0  0  0  0  0  0  0  0  0  0
  186.5400  178.2360  141.3620 C   0  0  0  0  0  3  0  0  0  0  0  0
  183.9350  177.8200  137.9010 C   0  0  2  0  0  3  0  0  0  0  0  0
  185.8660  178.4610  140.1560 C   0  0  0  0  0  0  0  0  0  0  0  0
  186.6560  178.4130  138.9920 O   0  0  0  0  0  0  0  0  0  0  0  0
  184.4750  178.7340  140.1890 C   0  0  0  0  0  0  0  0  0  0  0  0
  184.5020  178.5380  142.6180 C   0  0  0  0  0  3  0  0  0  0  0  0
  186.3190  178.4140  137.6240 C   0  0  0  0  0  0  0  0  0  0  0  0
  183.8130  178.7700  141.4280 C   0  0  0  0  0  3  0  0  0  0  0  0
  183.6910  178.9370  138.9240 C   0  0  2  0  0  3  0  0  0  0  0  0
  185.8690  178.2690  142.5860 C   0  0  0  0  0  0  0  0  0  0  0  0
  182.6090  175.7770  138.4050 C   0  0  0  0  0  2  0  0  0  0  0  0
  183.9850  176.4050  138.4910 C   0  0  1  0  0  3  0  0  0  0  0  0
  183.6790  175.3700  137.4220 C   0  0  1  0  0  3  0  0  0  0  0  0
  184.2560  174.0350  137.8510 C   0  0  0  0  0  2  0  0  0  0  0  0
  185.3340  173.5740  136.8860 C   0  0  0  0  0  2  0  0  0  0  0  0
  186.8260  175.0740  135.6050 C   0  0  0  0  0  2  0  0  0  0  0  0
  186.5630  174.4760  136.9800 C   0  0  2  0  0  3  0  0  0  0  0  0
  187.9110  173.7410  136.9090 C   0  0  1  0  0  3  0  0  0  0  0  0
  189.3240  175.2410  135.4470 C   0  0  0  0  0  1  0  0  0  0  0  0
  188.1120  173.3200  134.3460 C   0  0  0  0  0  1  0  0  0  0  0  0
  187.8380  172.2150  136.9860 C   0  0  0  0  0  1  0  0  0  0  0  0
  188.1320  174.3090  135.5070 C   0  0  0  0  0  0  0  0  0  0  0  0
  186.6010  177.9790  143.8500 C   0  0  0  0  0  2  0  0  0  0  0  0
  187.4800  176.7570  143.6690 C   0  0  0  0  0  1  0  0  0  0  0  0
  187.4210  178.6850  136.6600 C   0  0  0  0  0  2  0  0  0  0  0  0
  187.5200  180.0580  136.4080 O   0  0  0  0  0  1  0  0  0  0  0  0
  182.2720  179.2950  139.1520 N   0  0  0  0  0  0  0  0  0  0  0  0
  181.7260  180.2210  138.1440 C   0  0  1  0  0  3  0  0  0  0  0  0
  180.6690  179.5260  137.3040 C   0  0  0  0  0  1  0  0  0  0  0  0
  180.3080  182.1290  137.7980 O   0  0  0  0  0  1  0  0  0  0  0  0
  181.1670  181.5240  138.7180 C   0  0  0  0  0  2  0  0  0  0  0  0
  181.4040  178.1330  139.3130 C   0  0  0  0  0  2  0  0  0  0  0  0
  180.8360  178.1060  140.7170 C   0  0  0  0  0  2  0  0  0  0  0  0
  180.0030  179.3480  140.9490 C   0  0  0  0  0  2  0  0  0  0  0  0
  180.7330  178.6890  143.2180 C   0  0  0  0  0  1  0  0  0  0  0  0
  180.1780  179.8170  142.3780 C   0  0  0  0  0  2  0  0  0  0  0  0
  1  8  2  0  0  0  0
  2 11  1  0  0  0  0
  3  1  1  1  0  0  0
  3 13  1  0  0  0  0
  3 10  1  0  0  0  0
  4  6  1  0  0  0  0
  4  2  2  0  0  0  0
  5  4  1  0  0  0  0
  6  9  2  0  0  0  0
  8  5  1  0  0  0  0
  9  7  1  0  0  0  0
 10 28  1  1  0  0  0
 10  6  1  0  0  0  0
 11  7  2  0  0  0  0
 11 24  1  0  0  0  0
 13 12  1  1  0  0  0
 14 15  1  1  0  0  0
 14 12  1  0  0  0  0
 14 13  1  0  0  0  0
 16 15  1  0  0  0  0
 17 18  1  0  0  0  0
 18 16  1  6  0  0  0
 19 18  1  0  0  0  0
 19 22  1  6  0  0  0
 20 23  1  0  0  0  0
 21 23  1  0  0  0  0
 23 17  1  0  0  0  0
 23 19  1  0  0  0  0
 25 24  1  0  0  0  0
 26  8  1  0  0  0  0
 27 26  1  0  0  0  0
 28 33  1  0  0  0  0
 29 30  1  1  0  0  0
 29 32  1  0  0  0  0
 29 28  1  0  0  0  0
 31 32  1  0  0  0  0
 33 34  1  0  0  0  0
 34 35  1  0  0  0  0
 35 37  1  0  0  0  0
 37 36  1  0  0  0  0
M  END
>  <MODEL>
6

>  <REMARK>
 VINA RESULT:      -4.5      2.261      7.669
  Name = 
  13 active torsions:
  status: ('A' for Active; 'I' for Inactive)
    1  A    between atoms: C_1  and  C_12
    2  A    between atoms: C_1  and  N_36
    3  A    between atoms: C_3  and  C_32
    4  A    between atoms: C_6  and  C_31
    5  A    between atoms: C_10  and  C_14
    6  A    between atoms: C_17  and  C_26
    7  A    between atoms: C_17  and  C_33
    8  A    between atoms: C_22  and  C_24
    9  A    between atoms: C_26  and  C_34
   10  A    between atoms: C_27  and  C_37
   11  A    between atoms: C_29  and  N_36
   12  A    between atoms: C_31  and  C_37
   13  A    between atoms: C_33  and  N_36
                            x       y       z     vdW  Elec       q    Type
                         _______ _______ _______ _____ _____    ______ ____

>  <TORSDO>
F 13

$$$$
=
 OpenBabel10272414583D

 37 40  0  0  1  0  0  0  0  0999 V2000
  184.7800  177.3640  136.0510 N   0  0  0  0  0  0  0  0  0  0  0  0
  188.0530  177.9410  138.9970 C   0  0  0  0  0  3  0  0  0  0  0  0
  184.0940  177.2500  137.3270 C   0  0  2  0  0  3  0  0  0  0  0  0
  186.8770  178.0480  138.2450 C   0  0  0  0  0  0  0  0  0  0  0  0
  187.0010  177.7820  136.8680 O   0  0  0  0  0  0  0  0  0  0  0  0
  185.6770  178.4260  138.8990 C   0  0  0  0  0  0  0  0  0  0  0  0
  186.8830  178.5630  141.0130 C   0  0  0  0  0  3  0  0  0  0  0  0
  186.0410  177.6200  135.8500 C   0  0  0  0  0  0  0  0  0  0  0  0
  185.7020  178.6800  140.2810 C   0  0  0  0  0  3  0  0  0  0  0  0
  184.3770  178.5110  138.1530 C   0  0  2  0  0  3  0  0  0  0  0  0
  188.0620  178.1920  140.3700 C   0  0  0  0  0  0  0  0  0  0  0  0
  183.1400  175.2420  138.4450 C   0  0  0  0  0  2  0  0  0  0  0  0
  184.4270  175.9290  138.0330 C   0  0  1  0  0  3  0  0  0  0  0  0
  183.8980  174.7500  137.2350 C   0  0  1  0  0  3  0  0  0  0  0  0
  184.6780  173.5070  137.6190 C   0  0  0  0  0  2  0  0  0  0  0  0
  184.8110  172.5630  136.4380 C   0  0  0  0  0  2  0  0  0  0  0  0
  187.0530  172.6060  137.4830 C   0  0  0  0  0  2  0  0  0  0  0  0
  186.2230  171.9820  136.3690 C   0  0  2  0  0  3  0  0  0  0  0  0
  187.1430  172.6390  135.3280 C   0  0  1  0  0  3  0  0  0  0  0  0
  189.3620  172.8080  136.5230 C   0  0  0  0  0  1  0  0  0  0  0  0
  187.8340  174.8170  136.5800 C   0  0  0  0  0  1  0  0  0  0  0  0
  186.4610  173.6100  134.3610 C   0  0  0  0  0  1  0  0  0  0  0  0
  187.9310  173.3000  136.4590 C   0  0  0  0  0  0  0  0  0  0  0  0
  189.3170  178.0240  141.1540 C   0  0  0  0  0  2  0  0  0  0  0  0
  190.2870  177.1410  140.3940 C   0  0  0  0  0  1  0  0  0  0  0  0
  186.5350  177.6740  134.4450 C   0  0  0  0  0  2  0  0  0  0  0  0
  187.9170  177.8900  134.4240 O   0  0  0  0  0  1  0  0  0  0  0  0
  183.2470  179.0030  138.9760 N   0  0  0  0  0  0  0  0  0  0  0  0
  182.2190  179.7200  138.2020 C   0  0  1  0  0  3  0  0  0  0  0  0
  180.9790  178.8580  138.0400 C   0  0  0  0  0  1  0  0  0  0  0  0
  182.8790  181.9980  138.5860 O   0  0  0  0  0  1  0  0  0  0  0  0
  181.8370  181.0870  138.7720 C   0  0  0  0  0  2  0  0  0  0  0  0
  182.6420  177.9620  139.8020 C   0  0  0  0  0  2  0  0  0  0  0  0
  182.2550  178.5360  141.1490 C   0  0  0  0  0  2  0  0  0  0  0  0
  183.2920  178.1520  142.1800 C   0  0  0  0  0  2  0  0  0  0  0  0
  183.2630  178.8130  144.5630 C   0  0  0  0  0  1  0  0  0  0  0  0
  183.4950  179.2980  143.1490 C   0  0  0  0  0  2  0  0  0  0  0  0
  2 11  1  0  0  0  0
  3  1  1  6  0  0  0
  3 13  1  0  0  0  0
  3 10  1  0  0  0  0
  4  6  1  0  0  0  0
  4  2  2  0  0  0  0
  5  4  1  0  0  0  0
  6  9  2  0  0  0  0
  8  1  2  0  0  0  0
  8  5  1  0  0  0  0
  9  7  1  0  0  0  0
 10  6  1  0  0  0  0
 10 28  1  1  0  0  0
 11  7  2  0  0  0  0
 11 24  1  0  0  0  0
 13 12  1  1  0  0  0
 14 15  1  1  0  0  0
 14 13  1  0  0  0  0
 14 12  1  0  0  0  0
 16 15  1  0  0  0  0
 18 16  1  6  0  0  0
 18 17  1  0  0  0  0
 19 22  1  6  0  0  0
 19 18  1  0  0  0  0
 19 23  1  0  0  0  0
 23 20  1  0  0  0  0
 23 21  1  0  0  0  0
 23 17  1  0  0  0  0
 25 24  1  0  0  0  0
 26  8  1  0  0  0  0
 27 26  1  0  0  0  0
 28 33  1  0  0  0  0
 29 30  1  1  0  0  0
 29 32  1  0  0  0  0
 29 28  1  0  0  0  0
 31 32  1  0  0  0  0
 33 34  1  0  0  0  0
 34 35  1  0  0  0  0
 35 37  1  0  0  0  0
 37 36  1  0  0  0  0
M  END
>  <MODEL>
7

>  <REMARK>
 VINA RESULT:      -4.4      2.361      7.618
  Name = 
  13 active torsions:
  status: ('A' for Active; 'I' for Inactive)
    1  A    between atoms: C_1  and  C_12
    2  A    between atoms: C_1  and  N_36
    3  A    between atoms: C_3  and  C_32
    4  A    between atoms: C_6  and  C_31
    5  A    between atoms: C_10  and  C_14
    6  A    between atoms: C_17  and  C_26
    7  A    between atoms: C_17  and  C_33
    8  A    between atoms: C_22  and  C_24
    9  A    between atoms: C_26  and  C_34
   10  A    between atoms: C_27  and  C_37
   11  A    between atoms: C_29  and  N_36
   12  A    between atoms: C_31  and  C_37
   13  A    between atoms: C_33  and  N_36
                            x       y       z     vdW  Elec       q    Type
                         _______ _______ _______ _____ _____    ______ ____

>  <TORSDO>
F 13

$$$$
=
 OpenBabel10272414583D

 37 40  0  0  1  0  0  0  0  0999 V2000
  185.3390  176.3550  135.4530 N   0  0  0  0  0  0  0  0  0  0  0  0
  185.4740  178.4000  139.3930 C   0  0  0  0  0  3  0  0  0  0  0  0
  184.3740  175.6060  136.2420 C   0  0  2  0  0  3  0  0  0  0  0  0
  185.0750  177.8450  138.1710 C   0  0  0  0  0  0  0  0  0  0  0  0
  185.9960  177.9640  137.1120 O   0  0  0  0  0  0  0  0  0  0  0  0
  183.7980  177.2370  138.0780 C   0  0  0  0  0  0  0  0  0  0  0  0
  183.3890  177.7580  140.4240 C   0  0  0  0  0  3  0  0  0  0  0  0
  186.0270  177.3970  135.8230 C   0  0  0  0  0  0  0  0  0  0  0  0
  182.9710  177.2050  139.2150 C   0  0  0  0  0  3  0  0  0  0  0  0
  183.3360  176.5840  136.8070 C   0  0  2  0  0  3  0  0  0  0  0  0
  184.6440  178.3570  140.5150 C   0  0  0  0  0  0  0  0  0  0  0  0
  184.2430  173.4650  137.5010 C   0  0  0  0  0  2  0  0  0  0  0  0
  185.0630  174.7210  137.2890 C   0  0  1  0  0  3  0  0  0  0  0  0
  185.5010  173.4060  136.6690 C   0  0  1  0  0  3  0  0  0  0  0  0
  186.6160  172.8140  137.5110 C   0  0  0  0  0  2  0  0  0  0  0  0
  187.8560  172.5640  136.6710 C   0  0  0  0  0  2  0  0  0  0  0  0
  188.7120  174.8820  136.7780 C   0  0  0  0  0  2  0  0  0  0  0  0
  189.0150  173.4370  137.1480 C   0  0  2  0  0  3  0  0  0  0  0  0
  190.2340  173.4620  136.2120 C   0  0  1  0  0  3  0  0  0  0  0  0
  190.9460  175.8860  136.2350 C   0  0  0  0  0  1  0  0  0  0  0  0
  189.4160  175.1220  134.3780 C   0  0  0  0  0  1  0  0  0  0  0  0
  190.2110  172.4460  135.0680 C   0  0  0  0  0  1  0  0  0  0  0  0
  189.8810  174.8950  135.8120 C   0  0  0  0  0  0  0  0  0  0  0  0
  185.1130  178.9120  141.8150 C   0  0  0  0  0  2  0  0  0  0  0  0
  184.0110  178.8030  142.8500 C   0  0  0  0  0  1  0  0  0  0  0  0
  186.9790  177.9970  134.8470 C   0  0  0  0  0  2  0  0  0  0  0  0
  188.2380  178.1630  135.4340 O   0  0  0  0  0  1  0  0  0  0  0  0
  181.9460  176.0760  136.8680 N   0  0  0  0  0  0  0  0  0  0  0  0
  180.9490  177.0130  136.3210 C   0  0  1  0  0  3  0  0  0  0  0  0
  180.0450  177.5300  137.4250 C   0  0  0  0  0  1  0  0  0  0  0  0
  181.1770  179.3960  136.1260 O   0  0  0  0  0  1  0  0  0  0  0  0
  181.5440  178.1840  135.5370 C   0  0  0  0  0  2  0  0  0  0  0  0
  181.7920  174.7500  136.2760 C   0  0  0  0  0  2  0  0  0  0  0  0
  180.7470  173.9650  137.0390 C   0  0  0  0  0  2  0  0  0  0  0  0
  180.3160  172.7670  136.2220 C   0  0  0  0  0  2  0  0  0  0  0  0
  182.0570  171.0540  135.8350 C   0  0  0  0  0  1  0  0  0  0  0  0
  180.9650  171.5150  136.7740 C   0  0  0  0  0  2  0  0  0  0  0  0
  1  8  2  0  0  0  0
  2 11  1  0  0  0  0
  3  1  1  1  0  0  0
  3 10  1  0  0  0  0
  3 13  1  0  0  0  0
  4  2  2  0  0  0  0
  5  4  1  0  0  0  0
  6  4  1  0  0  0  0
  6  9  2  0  0  0  0
  7 11  2  0  0  0  0
  8  5  1  0  0  0  0
  9  7  1  0  0  0  0
 10 28  1  1  0  0  0
 10  6  1  0  0  0  0
 11 24  1  0  0  0  0
 13 12  1  1  0  0  0
 14 13  1  0  0  0  0
 14 12  1  0  0  0  0
 14 15  1  1  0  0  0
 16 15  1  0  0  0  0
 17 18  1  0  0  0  0
 18 16  1  6  0  0  0
 19 22  1  6  0  0  0
 19 18  1  0  0  0  0
 21 23  1  0  0  0  0
 23 19  1  0  0  0  0
 23 20  1  0  0  0  0
 23 17  1  0  0  0  0
 24 25  1  0  0  0  0
 26 27  1  0  0  0  0
 26  8  1  0  0  0  0
 29 28  1  0  0  0  0
 29 30  1  1  0  0  0
 32 31  1  0  0  0  0
 32 29  1  0  0  0  0
 33 28  1  0  0  0  0
 33 34  1  0  0  0  0
 35 37  1  0  0  0  0
 35 34  1  0  0  0  0
 36 37  1  0  0  0  0
M  END
>  <MODEL>
8

>  <REMARK>
 VINA RESULT:      -4.3      3.018      7.751
  Name = 
  13 active torsions:
  status: ('A' for Active; 'I' for Inactive)
    1  A    between atoms: C_1  and  C_12
    2  A    between atoms: C_1  and  N_36
    3  A    between atoms: C_3  and  C_32
    4  A    between atoms: C_6  and  C_31
    5  A    between atoms: C_10  and  C_14
    6  A    between atoms: C_17  and  C_26
    7  A    between atoms: C_17  and  C_33
    8  A    between atoms: C_22  and  C_24
    9  A    between atoms: C_26  and  C_34
   10  A    between atoms: C_27  and  C_37
   11  A    between atoms: C_29  and  N_36
   12  A    between atoms: C_31  and  C_37
   13  A    between atoms: C_33  and  N_36
                            x       y       z     vdW  Elec       q    Type
                         _______ _______ _______ _____ _____    ______ ____

>  <TORSDO>
F 13

$$$$
=
 OpenBabel10272414583D

 37 40  0  0  1  0  0  0  0  0999 V2000
  190.0880  177.6780  137.3590 N   0  0  0  0  0  0  0  0  0  0  0  0
  186.9480  174.5700  136.9050 C   0  0  0  0  0  3  0  0  0  0  0  0
  190.7060  176.5020  137.9490 C   0  0  2  0  0  3  0  0  0  0  0  0
  188.1360  175.3090  136.8540 C   0  0  0  0  0  0  0  0  0  0  0  0
  187.9890  176.7020  136.7150 O   0  0  0  0  0  0  0  0  0  0  0  0
  189.3740  174.6210  136.9230 C   0  0  0  0  0  0  0  0  0  0  0  0
  188.1790  172.5040  137.0990 C   0  0  0  0  0  3  0  0  0  0  0  0
  188.9150  177.7610  136.7990 C   0  0  0  0  0  0  0  0  0  0  0  0
  189.3730  173.2210  137.0440 C   0  0  0  0  0  3  0  0  0  0  0  0
  190.6790  175.3640  136.9200 C   0  0  2  0  0  3  0  0  0  0  0  0
  186.9620  173.1800  137.0300 C   0  0  0  0  0  0  0  0  0  0  0  0
  191.0170  176.6060  140.4150 C   0  0  0  0  0  2  0  0  0  0  0  0
  190.0840  176.1560  139.3090 C   0  0  1  0  0  3  0  0  0  0  0  0
  189.7870  177.4210  140.0950 C   0  0  1  0  0  3  0  0  0  0  0  0
  188.7180  177.1180  141.1280 C   0  0  0  0  0  2  0  0  0  0  0  0
  187.3990  177.7680  140.7500 C   0  0  0  0  0  2  0  0  0  0  0  0
  186.3210  178.0100  142.9630 C   0  0  0  0  0  2  0  0  0  0  0  0
  186.9700  178.7740  141.8160 C   0  0  2  0  0  3  0  0  0  0  0  0
  185.6310  179.4770  141.5400 C   0  0  1  0  0  3  0  0  0  0  0  0
  184.5140  179.5320  143.8060 C   0  0  0  0  0  1  0  0  0  0  0  0
  183.9420  177.6260  142.2530 C   0  0  0  0  0  1  0  0  0  0  0  0
  185.0380  179.2500  140.1480 C   0  0  0  0  0  1  0  0  0  0  0  0
  184.9850  178.6610  142.6600 C   0  0  0  0  0  0  0  0  0  0  0  0
  185.6830  172.4240  137.1310 C   0  0  0  0  0  2  0  0  0  0  0  0
  184.6040  173.3100  137.7220 C   0  0  0  0  0  1  0  0  0  0  0  0
  188.4750  179.0830  136.2740 C   0  0  0  0  0  2  0  0  0  0  0  0
  188.5990  180.0650  137.2630 O   0  0  0  0  0  1  0  0  0  0  0  0
  191.8690  174.4810  136.9130 N   0  0  0  0  0  0  0  0  0  0  0  0
  192.4280  174.2530  135.5690 C   0  0  1  0  0  3  0  0  0  0  0  0
  192.1240  172.8410  135.1010 C   0  0  0  0  0  1  0  0  0  0  0  0
  192.8850  176.3230  134.4380 O   0  0  0  0  0  1  0  0  0  0  0  0
  191.9760  175.2650  134.5150 C   0  0  0  0  0  2  0  0  0  0  0  0
  192.9100  174.9110  137.8420 C   0  0  0  0  0  2  0  0  0  0  0  0
  194.2740  174.6230  137.2540 C   0  0  0  0  0  2  0  0  0  0  0  0
  195.1100  173.8640  138.2600 C   0  0  0  0  0  2  0  0  0  0  0  0
  196.4060  172.0940  137.1190 C   0  0  0  0  0  1  0  0  0  0  0  0
  195.1410  172.3960  137.8920 C   0  0  0  0  0  2  0  0  0  0  0  0
  2 11  1  0  0  0  0
  3  1  1  6  0  0  0
  3 13  1  0  0  0  0
  4  2  2  0  0  0  0
  4  6  1  0  0  0  0
  5  8  1  0  0  0  0
  5  4  1  0  0  0  0
  6  9  2  0  0  0  0
  8  1  2  0  0  0  0
  9  7  1  0  0  0  0
 10 28  1  1  0  0  0
 10  6  1  0  0  0  0
 10  3  1  0  0  0  0
 11  7  2  0  0  0  0
 11 24  1  0  0  0  0
 13 14  1  0  0  0  0
 13 12  1  1  0  0  0
 14 12  1  0  0  0  0
 14 15  1  1  0  0  0
 16 15  1  0  0  0  0
 18 16  1  6  0  0  0
 18 17  1  0  0  0  0
 19 22  1  6  0  0  0
 19 18  1  0  0  0  0
 19 23  1  0  0  0  0
 21 23  1  0  0  0  0
 23 17  1  0  0  0  0
 23 20  1  0  0  0  0
 24 25  1  0  0  0  0
 26  8  1  0  0  0  0
 26 27  1  0  0  0  0
 28 33  1  0  0  0  0
 29 30  1  6  0  0  0
 29 28  1  0  0  0  0
 31 32  1  0  0  0  0
 32 29  1  0  0  0  0
 34 33  1  0  0  0  0
 34 35  1  0  0  0  0
 36 37  1  0  0  0  0
 37 35  1  0  0  0  0
M  END
>  <MODEL>
9

>  <REMARK>
 VINA RESULT:      -4.2      3.738      6.168
  Name = 
  13 active torsions:
  status: ('A' for Active; 'I' for Inactive)
    1  A    between atoms: C_1  and  C_12
    2  A    between atoms: C_1  and  N_36
    3  A    between atoms: C_3  and  C_32
    4  A    between atoms: C_6  and  C_31
    5  A    between atoms: C_10  and  C_14
    6  A    between atoms: C_17  and  C_26
    7  A    between atoms: C_17  and  C_33
    8  A    between atoms: C_22  and  C_24
    9  A    between atoms: C_26  and  C_34
   10  A    between atoms: C_27  and  C_37
   11  A    between atoms: C_29  and  N_36
   12  A    between atoms: C_31  and  C_37
   13  A    between atoms: C_33  and  N_36
                            x       y       z     vdW  Elec       q    Type
                         _______ _______ _______ _____ _____    ______ ____

>  <TORSDO>
F 13

$$$$
