=
 OpenBabel10272400003D

 34 37  0  0  1  0  0  0  0  0999 V2000
  190.0160  177.7660  142.4550 C   0  0  2  0  0  3  0  0  0  0  0  0
  189.4790  178.2330  140.1050 N   0  0  0  0  0  0  0  0  0  0  0  0
  191.6850  177.7180  140.7430 O   0  0  0  0  0  1  0  0  0  0  0  0
  188.5050  177.7840  142.7280 C   0  0  1  0  0  3  0  0  0  0  0  0
  188.1780  177.9070  140.3530 O   0  0  0  0  0  0  0  0  0  0  0  0
  187.8400  178.5340  141.5670 C   0  0  1  0  0  3  0  0  0  0  0  0
  190.3390  177.4280  140.9900 C   0  0  1  0  0  3  0  0  0  0  0  0
  184.4280  178.8090  143.1880 C   0  0  0  0  0  0  0  0  0  0  0  0
  183.5820  178.8270  142.0750 C   0  0  0  0  0  3  0  0  0  0  0  0
  186.3560  178.6440  141.7270 C   0  0  0  0  0  0  0  0  0  0  0  0
  184.1190  178.7480  140.7870 C   0  0  0  0  0  3  0  0  0  0  0  0
  185.8120  178.7130  143.0140 C   0  0  0  0  0  3  0  0  0  0  0  0
  185.5030  178.6540  140.6120 C   0  0  0  0  0  3  0  0  0  0  0  0
  183.7540  178.9070  144.7990 Cl  0  0  0  0  0  0  0  0  0  0  0  0
  187.5660  176.3470  144.1340 C   0  0  0  0  0  1  0  0  0  0  0  0
  188.0000  176.4790  142.8140 O   0  0  0  0  0  0  0  0  0  0  0  0
  190.8220  176.9550  143.4730 C   0  0  0  0  0  2  0  0  0  0  0  0
  190.9020  177.6330  144.8360 C   0  0  0  0  0  2  0  0  0  0  0  0
  191.4660  176.6770  145.8700 C   0  0  0  0  0  2  0  0  0  0  0  0
  190.7530  176.8580  147.1980 C   0  0  0  0  0  2  0  0  0  0  0  0
  188.3510  176.9560  147.7470 C   0  0  0  0  0  2  0  0  0  0  0  0
  189.4700  177.6330  146.9840 C   0  0  0  0  0  3  0  0  0  0  0  0
  189.0050  178.2000  148.3090 C   0  0  0  0  0  2  0  0  0  0  0  0
  189.7330  177.8250  138.7290 C   0  0  0  0  0  2  0  0  0  0  0  0
  189.3010  176.3810  138.5140 C   0  0  0  0  0  2  0  0  0  0  0  0
  189.3090  175.9980  137.0390 C   0  0  0  0  0  2  0  0  0  0  0  0
  188.4160  176.9260  136.2270 C   0  0  0  0  0  2  0  0  0  0  0  0
  186.6660  178.8050  137.3810 O   0  0  0  0  0  0  0  0  0  0  0  0
  187.0120  176.6550  136.5120 N   0  0  0  0  0  0  0  0  0  0  0  0
  186.1770  177.6850  137.0720 C   0  0  0  0  0  0  0  0  0  0  0  0
  184.3780  175.9930  137.4060 C   0  0  0  0  0  2  0  0  0  0  0  0
  185.0460  175.1710  136.3150 C   0  0  0  0  0  2  0  0  0  0  0  0
  186.5610  175.2640  136.4640 C   0  0  0  0  0  2  0  0  0  0  0  0
  184.7020  177.4700  137.2170 C   0  0  0  0  0  2  0  0  0  0  0  0
  1  4  1  0  0  0  0
  1 17  1  1  0  0  0
  2  5  1  0  0  0  0
  2  7  1  0  0  0  0
  4 16  1  6  0  0  0
  5  6  1  0  0  0  0
  6 10  1  1  0  0  0
  6  4  1  0  0  0  0
  7  3  1  6  0  0  0
  7  1  1  0  0  0  0
  8 14  1  0  0  0  0
  9  8  2  0  0  0  0
 10 12  2  0  0  0  0
 11  9  1  0  0  0  0
 12  8  1  0  0  0  0
 13 11  2  0  0  0  0
 13 10  1  0  0  0  0
 16 15  1  0  0  0  0
 17 18  1  0  0  0  0
 18 19  1  0  0  0  0
 19 20  1  0  0  0  0
 21 23  1  0  0  0  0
 22 20  1  0  0  0  0
 22 21  1  0  0  0  0
 22 23  1  0  0  0  0
 24  2  1  0  0  0  0
 25 24  1  0  0  0  0
 26 25  1  0  0  0  0
 27 29  1  0  0  0  0
 27 26  1  0  0  0  0
 29 30  1  0  0  0  0
 30 34  1  0  0  0  0
 30 28  2  0  0  0  0
 32 33  1  0  0  0  0
 32 31  1  0  0  0  0
 33 29  1  0  0  0  0
 34 31  1  0  0  0  0
M  END
>  <MODEL>
1

>  <REMARK>
 VINA RESULT:      -7.4      0.000      0.000
  Name = 
  12 active torsions:
  status: ('A' for Active; 'I' for Inactive)
    1  A    between atoms: C_2  and  C_15
    2  A    between atoms: C_2  and  C_25
    3  A    between atoms: C_3  and  N_13
    4  A    between atoms: C_3  and  C_17
    5  A    between atoms: C_4  and  C_15
    6  A    between atoms: N_5  and  C_18
    7  A    between atoms: C_6  and  C_9
    8  A    between atoms: C_9  and  C_25
    9  A    between atoms: C_12  and  C_28
   10  A    between atoms: C_17  and  C_29
   11  A    between atoms: C_18  and  C_29
   12  A    between atoms: C_21  and  O_32
                            x       y       z     vdW  Elec       q    Type
                         _______ _______ _______ _____ _____    ______ ____

>  <TORSDO>
F 12

$$$$
=
 OpenBabel10272400003D

 34 37  0  0  1  0  0  0  0  0999 V2000
  189.7260  177.7090  141.1660 C   0  0  2  0  0  3  0  0  0  0  0  0
  187.5500  178.7130  141.7000 N   0  0  0  0  0  0  0  0  0  0  0  0
  188.3050  178.6220  139.4730 O   0  0  0  0  0  1  0  0  0  0  0  0
  189.7900  177.2480  142.6300 C   0  0  1  0  0  3  0  0  0  0  0  0
  187.5220  178.0000  142.8630 O   0  0  0  0  0  0  0  0  0  0  0  0
  188.8070  178.1160  143.4250 C   0  0  1  0  0  3  0  0  0  0  0  0
  188.2810  177.9300  140.6890 C   0  0  1  0  0  3  0  0  0  0  0  0
  190.0090  177.1460  146.8830 C   0  0  0  0  0  0  0  0  0  0  0  0
  188.8130  177.1260  147.6070 C   0  0  0  0  0  3  0  0  0  0  0  0
  188.7940  177.7810  144.8840 C   0  0  0  0  0  0  0  0  0  0  0  0
  187.6060  177.4270  146.9720 C   0  0  0  0  0  3  0  0  0  0  0  0
  189.9980  177.4690  145.5230 C   0  0  0  0  0  3  0  0  0  0  0  0
  187.5950  177.7520  145.6120 C   0  0  0  0  0  3  0  0  0  0  0  0
  191.5200  176.7680  147.6800 Cl  0  0  0  0  0  0  0  0  0  0  0  0
  190.6090  175.2560  143.1630 C   0  0  0  0  0  1  0  0  0  0  0  0
  189.4420  175.8950  142.7410 O   0  0  0  0  0  0  0  0  0  0  0  0
  190.5750  176.8650  140.2110 C   0  0  0  0  0  2  0  0  0  0  0  0
  192.0240  177.3350  140.1390 C   0  0  0  0  0  2  0  0  0  0  0  0
  192.7040  176.7650  138.9080 C   0  0  0  0  0  2  0  0  0  0  0  0
  191.6760  176.1370  137.9840 C   0  0  0  0  0  2  0  0  0  0  0  0
  190.9390  173.9890  137.0230 C   0  0  0  0  0  2  0  0  0  0  0  0
  192.1170  174.7380  137.6090 C   0  0  0  0  0  3  0  0  0  0  0  0
  191.9990  174.5660  136.1080 C   0  0  0  0  0  2  0  0  0  0  0  0
  186.1610  178.8250  141.2720 C   0  0  0  0  0  2  0  0  0  0  0  0
  185.2350  178.8820  142.4800 C   0  0  0  0  0  2  0  0  0  0  0  0
  183.7990  178.5310  142.1130 C   0  0  0  0  0  2  0  0  0  0  0  0
  183.6780  178.1970  140.6330 C   0  0  0  0  0  2  0  0  0  0  0  0
  184.1810  180.3900  138.9400 O   0  0  0  0  0  0  0  0  0  0  0  0
  182.6290  179.0000  140.0170 N   0  0  0  0  0  0  0  0  0  0  0  0
  182.9730  180.0840  139.1350 C   0  0  0  0  0  0  0  0  0  0  0  0
  180.5820  180.7870  139.1250 C   0  0  0  0  0  2  0  0  0  0  0  0
  180.2350  179.3610  139.5210 C   0  0  0  0  0  2  0  0  0  0  0  0
  181.2640  178.8470  140.5220 C   0  0  0  0  0  2  0  0  0  0  0  0
  181.9080  180.8110  138.3740 C   0  0  0  0  0  2  0  0  0  0  0  0
  1 17  1  6  0  0  0
  1  4  1  0  0  0  0
  2  5  1  0  0  0  0
  4 16  1  6  0  0  0
  4  6  1  0  0  0  0
  5  6  1  0  0  0  0
  6 10  1  1  0  0  0
  7  3  1  6  0  0  0
  7  1  1  0  0  0  0
  7  2  1  0  0  0  0
  8  9  1  0  0  0  0
  8 14  1  0  0  0  0
 10 12  1  0  0  0  0
 10 13  2  0  0  0  0
 11  9  2  0  0  0  0
 12  8  2  0  0  0  0
 13 11  1  0  0  0  0
 16 15  1  0  0  0  0
 18 17  1  0  0  0  0
 19 18  1  0  0  0  0
 20 19  1  0  0  0  0
 21 22  1  0  0  0  0
 22 20  1  0  0  0  0
 23 21  1  0  0  0  0
 23 22  1  0  0  0  0
 24  2  1  0  0  0  0
 24 25  1  0  0  0  0
 26 25  1  0  0  0  0
 27 26  1  0  0  0  0
 28 30  2  0  0  0  0
 29 33  1  0  0  0  0
 29 27  1  0  0  0  0
 30 29  1  0  0  0  0
 31 32  1  0  0  0  0
 32 33  1  0  0  0  0
 34 31  1  0  0  0  0
 34 30  1  0  0  0  0
M  END
>  <MODEL>
2

>  <REMARK>
 VINA RESULT:      -7.4      2.875      6.271
  Name = 
  12 active torsions:
  status: ('A' for Active; 'I' for Inactive)
    1  A    between atoms: C_2  and  C_15
    2  A    between atoms: C_2  and  C_25
    3  A    between atoms: C_3  and  N_13
    4  A    between atoms: C_3  and  C_17
    5  A    between atoms: C_4  and  C_15
    6  A    between atoms: N_5  and  C_18
    7  A    between atoms: C_6  and  C_9
    8  A    between atoms: C_9  and  C_25
    9  A    between atoms: C_12  and  C_28
   10  A    between atoms: C_17  and  C_29
   11  A    between atoms: C_18  and  C_29
   12  A    between atoms: C_21  and  O_32
                            x       y       z     vdW  Elec       q    Type
                         _______ _______ _______ _____ _____    ______ ____

>  <TORSDO>
F 12

$$$$
=
 OpenBabel10272400003D

 34 37  0  0  1  0  0  0  0  0999 V2000
  189.9030  177.8160  142.4320 C   0  0  2  0  0  3  0  0  0  0  0  0
  189.3640  178.2890  140.0840 N   0  0  0  0  0  0  0  0  0  0  0  0
  191.5730  177.7860  140.7210 O   0  0  0  0  0  1  0  0  0  0  0  0
  188.3910  177.8230  142.7030 C   0  0  1  0  0  3  0  0  0  0  0  0
  188.0650  177.9530  140.3280 O   0  0  0  0  0  0  0  0  0  0  0  0
  187.7230  178.5730  141.5450 C   0  0  1  0  0  3  0  0  0  0  0  0
  190.2280  177.4860  140.9660 C   0  0  1  0  0  3  0  0  0  0  0  0
  184.3070  178.8170  143.1640 C   0  0  0  0  0  0  0  0  0  0  0  0
  183.4620  178.8370  142.0500 C   0  0  0  0  0  3  0  0  0  0  0  0
  186.2370  178.6730  141.7040 C   0  0  0  0  0  0  0  0  0  0  0  0
  184.0010  178.7700  140.7620 C   0  0  0  0  0  3  0  0  0  0  0  0
  185.6920  178.7300  142.9910 C   0  0  0  0  0  3  0  0  0  0  0  0
  185.3860  178.6860  140.5890 C   0  0  0  0  0  3  0  0  0  0  0  0
  183.6310  178.8990  144.7760 Cl  0  0  0  0  0  0  0  0  0  0  0  0
  187.4690  176.3710  144.1060 C   0  0  0  0  0  1  0  0  0  0  0  0
  187.8940  176.5140  142.7840 O   0  0  0  0  0  0  0  0  0  0  0  0
  190.7130  177.0050  143.4480 C   0  0  0  0  0  2  0  0  0  0  0  0
  190.8000  177.6860  144.8090 C   0  0  0  0  0  2  0  0  0  0  0  0
  191.4580  176.7640  145.8190 C   0  0  0  0  0  2  0  0  0  0  0  0
  190.6820  176.7760  147.1240 C   0  0  0  0  0  2  0  0  0  0  0  0
  188.3220  177.0050  147.8000 C   0  0  0  0  0  2  0  0  0  0  0  0
  189.4290  177.6100  146.9620 C   0  0  0  0  0  3  0  0  0  0  0  0
  189.0660  178.2260  148.2980 C   0  0  0  0  0  2  0  0  0  0  0  0
  189.6220  177.8880  138.7060 C   0  0  0  0  0  2  0  0  0  0  0  0
  188.8850  176.5960  138.3800 C   0  0  0  0  0  2  0  0  0  0  0  0
  189.7510  175.6320  137.5810 C   0  0  0  0  0  2  0  0  0  0  0  0
  191.0160  176.3170  137.0820 C   0  0  0  0  0  2  0  0  0  0  0  0
  193.5170  176.7590  138.2970 O   0  0  0  0  0  0  0  0  0  0  0  0
  192.1200  175.3660  137.0300 N   0  0  0  0  0  0  0  0  0  0  0  0
  193.3550  175.6560  137.7090 C   0  0  0  0  0  0  0  0  0  0  0  0
  194.3850  173.6740  136.6030 C   0  0  0  0  0  2  0  0  0  0  0  0
  192.9760  173.1270  136.4320 C   0  0  0  0  0  2  0  0  0  0  0  0
  192.0300  174.2660  136.0700 C   0  0  0  0  0  2  0  0  0  0  0  0
  194.4340  174.6210  137.7970 C   0  0  0  0  0  2  0  0  0  0  0  0
  1  4  1  0  0  0  0
  1 17  1  1  0  0  0
  2  5  1  0  0  0  0
  2  7  1  0  0  0  0
  4 16  1  6  0  0  0
  5  6  1  0  0  0  0
  6 10  1  1  0  0  0
  6  4  1  0  0  0  0
  7  3  1  6  0  0  0
  7  1  1  0  0  0  0
  8 14  1  0  0  0  0
  9  8  2  0  0  0  0
 10 12  2  0  0  0  0
 11  9  1  0  0  0  0
 12  8  1  0  0  0  0
 13 11  2  0  0  0  0
 13 10  1  0  0  0  0
 16 15  1  0  0  0  0
 17 18  1  0  0  0  0
 18 19  1  0  0  0  0
 19 20  1  0  0  0  0
 21 23  1  0  0  0  0
 22 20  1  0  0  0  0
 22 21  1  0  0  0  0
 22 23  1  0  0  0  0
 24  2  1  0  0  0  0
 25 24  1  0  0  0  0
 26 25  1  0  0  0  0
 27 26  1  0  0  0  0
 29 27  1  0  0  0  0
 29 30  1  0  0  0  0
 30 34  1  0  0  0  0
 30 28  2  0  0  0  0
 31 34  1  0  0  0  0
 32 31  1  0  0  0  0
 33 32  1  0  0  0  0
 33 29  1  0  0  0  0
M  END
>  <MODEL>
3

>  <REMARK>
 VINA RESULT:      -7.2      2.097      3.648
  Name = 
  12 active torsions:
  status: ('A' for Active; 'I' for Inactive)
    1  A    between atoms: C_2  and  C_15
    2  A    between atoms: C_2  and  C_25
    3  A    between atoms: C_3  and  N_13
    4  A    between atoms: C_3  and  C_17
    5  A    between atoms: C_4  and  C_15
    6  A    between atoms: N_5  and  C_18
    7  A    between atoms: C_6  and  C_9
    8  A    between atoms: C_9  and  C_25
    9  A    between atoms: C_12  and  C_28
   10  A    between atoms: C_17  and  C_29
   11  A    between atoms: C_18  and  C_29
   12  A    between atoms: C_21  and  O_32
                            x       y       z     vdW  Elec       q    Type
                         _______ _______ _______ _____ _____    ______ ____

>  <TORSDO>
F 12

$$$$
=
 OpenBabel10272400003D

 34 37  0  0  1  0  0  0  0  0999 V2000
  189.1820  178.0330  142.0420 C   0  0  2  0  0  3  0  0  0  0  0  0
  188.0640  178.5030  139.9070 N   0  0  0  0  0  0  0  0  0  0  0  0
  190.3640  178.0080  139.9640 O   0  0  0  0  0  1  0  0  0  0  0  0
  187.7880  178.0340  142.6880 C   0  0  1  0  0  3  0  0  0  0  0  0
  186.8700  178.1620  140.4740 O   0  0  0  0  0  0  0  0  0  0  0  0
  186.8450  178.7820  141.7370 C   0  0  1  0  0  3  0  0  0  0  0  0
  189.1270  177.7040  140.5410 C   0  0  1  0  0  3  0  0  0  0  0  0
  183.0680  178.5730  141.9240 C   0  0  0  0  0  0  0  0  0  0  0  0
  182.8180  179.0560  143.2120 C   0  0  0  0  0  3  0  0  0  0  0  0
  185.4490  178.8760  142.2680 C   0  0  0  0  0  0  0  0  0  0  0  0
  183.8790  179.4560  144.0280 C   0  0  0  0  0  3  0  0  0  0  0  0
  184.3820  178.4870  141.4520 C   0  0  0  0  0  3  0  0  0  0  0  0
  185.1930  179.3680  143.5570 C   0  0  0  0  0  3  0  0  0  0  0  0
  181.7380  178.0740  140.9040 Cl  0  0  0  0  0  0  0  0  0  0  0  0
  187.0830  176.6380  144.2620 C   0  0  0  0  0  1  0  0  0  0  0  0
  187.3330  176.7240  142.8910 O   0  0  0  0  0  0  0  0  0  0  0  0
  190.2260  177.2260  142.8190 C   0  0  0  0  0  2  0  0  0  0  0  0
  190.5240  177.8160  144.1920 C   0  0  0  0  0  2  0  0  0  0  0  0
  191.1630  176.7720  145.0890 C   0  0  0  0  0  2  0  0  0  0  0  0
  190.8550  177.0710  146.5450 C   0  0  0  0  0  2  0  0  0  0  0  0
  188.6370  176.8160  147.5920 C   0  0  0  0  0  2  0  0  0  0  0  0
  189.4690  177.6700  146.6580 C   0  0  0  0  0  3  0  0  0  0  0  0
  189.2360  178.1160  148.0880 C   0  0  0  0  0  2  0  0  0  0  0  0
  187.9660  178.1020  138.5090 C   0  0  0  0  0  2  0  0  0  0  0  0
  186.5080  177.9220  138.1080 C   0  0  0  0  0  2  0  0  0  0  0  0
  186.3390  176.8400  137.0490 C   0  0  0  0  0  2  0  0  0  0  0  0
  187.3280  175.7040  137.2630 C   0  0  0  0  0  2  0  0  0  0  0  0
  188.4250  173.7140  135.6000 O   0  0  0  0  0  0  0  0  0  0  0  0
  186.6880  174.4200  137.0090 N   0  0  0  0  0  0  0  0  0  0  0  0
  187.3340  173.4430  136.1720 C   0  0  0  0  0  0  0  0  0  0  0  0
  185.2520  172.0750  136.2230 C   0  0  0  0  0  2  0  0  0  0  0  0
  184.8940  172.7960  137.5130 C   0  0  0  0  0  2  0  0  0  0  0  0
  185.2860  174.2650  137.3990 C   0  0  0  0  0  2  0  0  0  0  0  0
  186.7640  172.0650  136.0350 C   0  0  0  0  0  2  0  0  0  0  0  0
  1  4  1  0  0  0  0
  1 17  1  1  0  0  0
  2  5  1  0  0  0  0
  2  7  1  0  0  0  0
  4 16  1  6  0  0  0
  5  6  1  0  0  0  0
  6 10  1  1  0  0  0
  6  4  1  0  0  0  0
  7  3  1  6  0  0  0
  7  1  1  0  0  0  0
  8  9  1  0  0  0  0
  9 11  2  0  0  0  0
 10 13  2  0  0  0  0
 12  8  2  0  0  0  0
 12 10  1  0  0  0  0
 13 11  1  0  0  0  0
 14  8  1  0  0  0  0
 16 15  1  0  0  0  0
 17 18  1  0  0  0  0
 18 19  1  0  0  0  0
 19 20  1  0  0  0  0
 20 22  1  0  0  0  0
 21 23  1  0  0  0  0
 22 21  1  0  0  0  0
 22 23  1  0  0  0  0
 24  2  1  0  0  0  0
 25 24  1  0  0  0  0
 26 27  1  0  0  0  0
 26 25  1  0  0  0  0
 28 30  2  0  0  0  0
 29 27  1  0  0  0  0
 29 33  1  0  0  0  0
 30 29  1  0  0  0  0
 31 32  1  0  0  0  0
 33 32  1  0  0  0  0
 34 30  1  0  0  0  0
 34 31  1  0  0  0  0
M  END
>  <MODEL>
4

>  <REMARK>
 VINA RESULT:      -7.1      1.853      2.506
  Name = 
  12 active torsions:
  status: ('A' for Active; 'I' for Inactive)
    1  A    between atoms: C_2  and  C_15
    2  A    between atoms: C_2  and  C_25
    3  A    between atoms: C_3  and  N_13
    4  A    between atoms: C_3  and  C_17
    5  A    between atoms: C_4  and  C_15
    6  A    between atoms: N_5  and  C_18
    7  A    between atoms: C_6  and  C_9
    8  A    between atoms: C_9  and  C_25
    9  A    between atoms: C_12  and  C_28
   10  A    between atoms: C_17  and  C_29
   11  A    between atoms: C_18  and  C_29
   12  A    between atoms: C_21  and  O_32
                            x       y       z     vdW  Elec       q    Type
                         _______ _______ _______ _____ _____    ______ ____

>  <TORSDO>
F 12

$$$$
=
 OpenBabel10272400003D

 34 37  0  0  1  0  0  0  0  0999 V2000
  184.6550  178.4450  143.3440 C   0  0  2  0  0  3  0  0  0  0  0  0
  186.6730  178.0790  141.9930 N   0  0  0  0  0  0  0  0  0  0  0  0
  184.6510  178.7120  140.9680 O   0  0  0  0  0  1  0  0  0  0  0  0
  185.5500  178.3040  144.5850 C   0  0  1  0  0  3  0  0  0  0  0  0
  187.4370  178.2970  143.1010 O   0  0  0  0  0  0  0  0  0  0  0  0
  186.8270  177.5770  144.1460 C   0  0  1  0  0  3  0  0  0  0  0  0
  185.4480  178.8900  142.1040 C   0  0  1  0  0  3  0  0  0  0  0  0
  190.0570  177.0540  146.0540 C   0  0  0  0  0  0  0  0  0  0  0  0
  189.5950  176.9110  147.3660 C   0  0  0  0  0  3  0  0  0  0  0  0
  187.7790  177.3530  145.2790 C   0  0  0  0  0  0  0  0  0  0  0  0
  188.2260  176.9820  147.6370 C   0  0  0  0  0  3  0  0  0  0  0  0
  189.1500  177.2710  145.0120 C   0  0  0  0  0  3  0  0  0  0  0  0
  187.3190  177.2000  146.5960 C   0  0  0  0  0  3  0  0  0  0  0  0
  191.7710  176.9630  145.7160 Cl  0  0  0  0  0  0  0  0  0  0  0  0
  185.3620  179.5390  146.4180 C   0  0  0  0  0  1  0  0  0  0  0  0
  185.8660  179.5620  145.1160 O   0  0  0  0  0  0  0  0  0  0  0  0
  183.3760  179.2510  143.5880 C   0  0  0  0  0  2  0  0  0  0  0  0
  182.3400  178.4790  144.3970 C   0  0  0  0  0  2  0  0  0  0  0  0
  180.9410  178.7870  143.8930 C   0  0  0  0  0  2  0  0  0  0  0  0
  180.9840  179.1620  142.4230 C   0  0  0  0  0  2  0  0  0  0  0  0
  180.0720  178.5840  140.2060 C   0  0  0  0  0  2  0  0  0  0  0  0
  180.3500  178.0610  141.5990 C   0  0  0  0  0  3  0  0  0  0  0  0
  181.2760  177.7010  140.4550 C   0  0  0  0  0  2  0  0  0  0  0  0
  187.4530  178.5840  140.8700 C   0  0  0  0  0  2  0  0  0  0  0  0
  188.9290  178.2590  141.0580 C   0  0  0  0  0  2  0  0  0  0  0  0
  189.3540  177.0500  140.2370 C   0  0  0  0  0  2  0  0  0  0  0  0
  189.9300  177.4750  138.8930 C   0  0  0  0  0  2  0  0  0  0  0  0
  188.8840  179.7340  137.5790 O   0  0  0  0  0  0  0  0  0  0  0  0
  188.9060  177.4060  137.8590 N   0  0  0  0  0  0  0  0  0  0  0  0
  188.4510  178.6090  137.2120 C   0  0  0  0  0  0  0  0  0  0  0  0
  186.6440  177.2890  136.1130 C   0  0  0  0  0  2  0  0  0  0  0  0
  187.5090  176.0580  136.3290 C   0  0  0  0  0  2  0  0  0  0  0  0
  188.1830  176.1440  137.6940 C   0  0  0  0  0  2  0  0  0  0  0  0
  187.5200  178.5350  136.0410 C   0  0  0  0  0  2  0  0  0  0  0  0
  1 17  1  1  0  0  0
  1  4  1  0  0  0  0
  2  7  1  0  0  0  0
  2  5  1  0  0  0  0
  4 16  1  6  0  0  0
  5  6  1  0  0  0  0
  6  4  1  0  0  0  0
  6 10  1  1  0  0  0
  7  3  1  6  0  0  0
  7  1  1  0  0  0  0
  8  9  1  0  0  0  0
  9 11  2  0  0  0  0
 10 13  2  0  0  0  0
 12 10  1  0  0  0  0
 12  8  2  0  0  0  0
 13 11  1  0  0  0  0
 14  8  1  0  0  0  0
 16 15  1  0  0  0  0
 17 18  1  0  0  0  0
 19 18  1  0  0  0  0
 20 19  1  0  0  0  0
 21 23  1  0  0  0  0
 21 22  1  0  0  0  0
 22 20  1  0  0  0  0
 23 22  1  0  0  0  0
 24 25  1  0  0  0  0
 24  2  1  0  0  0  0
 26 25  1  0  0  0  0
 27 26  1  0  0  0  0
 29 27  1  0  0  0  0
 30 28  2  0  0  0  0
 30 29  1  0  0  0  0
 31 32  1  0  0  0  0
 32 33  1  0  0  0  0
 33 29  1  0  0  0  0
 34 31  1  0  0  0  0
 34 30  1  0  0  0  0
M  END
>  <MODEL>
5

>  <REMARK>
 VINA RESULT:      -6.9      2.621      6.276
  Name = 
  12 active torsions:
  status: ('A' for Active; 'I' for Inactive)
    1  A    between atoms: C_2  and  C_15
    2  A    between atoms: C_2  and  C_25
    3  A    between atoms: C_3  and  N_13
    4  A    between atoms: C_3  and  C_17
    5  A    between atoms: C_4  and  C_15
    6  A    between atoms: N_5  and  C_18
    7  A    between atoms: C_6  and  C_9
    8  A    between atoms: C_9  and  C_25
    9  A    between atoms: C_12  and  C_28
   10  A    between atoms: C_17  and  C_29
   11  A    between atoms: C_18  and  C_29
   12  A    between atoms: C_21  and  O_32
                            x       y       z     vdW  Elec       q    Type
                         _______ _______ _______ _____ _____    ______ ____

>  <TORSDO>
F 12

$$$$
=
 OpenBabel10272400003D

 34 37  0  0  1  0  0  0  0  0999 V2000
  184.6230  178.4490  143.5580 C   0  0  2  0  0  3  0  0  0  0  0  0
  186.5900  178.0210  142.1520 N   0  0  0  0  0  0  0  0  0  0  0  0
  184.5480  178.6700  141.1790 O   0  0  0  0  0  1  0  0  0  0  0  0
  185.5540  178.3160  144.7730 C   0  0  1  0  0  3  0  0  0  0  0  0
  187.3930  178.2470  143.2320 O   0  0  0  0  0  0  0  0  0  0  0  0
  186.8040  177.5590  144.3090 C   0  0  1  0  0  3  0  0  0  0  0  0
  185.3840  178.8560  142.2850 C   0  0  1  0  0  3  0  0  0  0  0  0
  190.0850  177.0200  146.1250 C   0  0  0  0  0  0  0  0  0  0  0  0
  189.6620  176.9060  147.4520 C   0  0  0  0  0  3  0  0  0  0  0  0
  187.7880  177.3390  145.4160 C   0  0  0  0  0  0  0  0  0  0  0  0
  188.3030  177.0020  147.7650 C   0  0  0  0  0  3  0  0  0  0  0  0
  189.1480  177.2320  145.1080 C   0  0  0  0  0  3  0  0  0  0  0  0
  187.3670  177.2160  146.7490 C   0  0  0  0  0  3  0  0  0  0  0  0
  191.7860  176.8980  145.7350 Cl  0  0  0  0  0  0  0  0  0  0  0  0
  185.4710  179.5800  146.5950 C   0  0  0  0  0  1  0  0  0  0  0  0
  185.9090  179.5780  145.2690 O   0  0  0  0  0  0  0  0  0  0  0  0
  183.3670  179.2830  143.8270 C   0  0  0  0  0  2  0  0  0  0  0  0
  182.1900  178.4370  144.3010 C   0  0  0  0  0  2  0  0  0  0  0  0
  180.9180  178.8550  143.5880 C   0  0  0  0  0  2  0  0  0  0  0  0
  181.1900  179.0630  142.1090 C   0  0  0  0  0  2  0  0  0  0  0  0
  180.3590  178.4920  139.8580 C   0  0  0  0  0  2  0  0  0  0  0  0
  180.4190  178.0390  141.3020 C   0  0  0  0  0  3  0  0  0  0  0  0
  181.3440  177.4200  140.2740 C   0  0  0  0  0  2  0  0  0  0  0  0
  187.3430  178.4910  140.9960 C   0  0  0  0  0  2  0  0  0  0  0  0
  188.8230  178.1730  141.1590 C   0  0  0  0  0  2  0  0  0  0  0  0
  189.4730  177.7930  139.8350 C   0  0  0  0  0  2  0  0  0  0  0  0
  190.6840  176.8980  140.0550 C   0  0  0  0  0  2  0  0  0  0  0  0
  193.3810  177.1110  139.2750 O   0  0  0  0  0  0  0  0  0  0  0  0
  191.1970  176.4160  138.7790 N   0  0  0  0  0  0  0  0  0  0  0  0
  192.5990  176.5330  138.4730 C   0  0  0  0  0  0  0  0  0  0  0  0
  192.1110  175.8120  136.1380 C   0  0  0  0  0  2  0  0  0  0  0  0
  190.8450  175.1650  136.6770 C   0  0  0  0  0  2  0  0  0  0  0  0
  190.2270  176.0660  137.7400 C   0  0  0  0  0  2  0  0  0  0  0  0
  193.1610  175.8980  137.2390 C   0  0  0  0  0  2  0  0  0  0  0  0
  1 17  1  1  0  0  0
  1  4  1  0  0  0  0
  2  7  1  0  0  0  0
  2  5  1  0  0  0  0
  4 16  1  6  0  0  0
  5  6  1  0  0  0  0
  6  4  1  0  0  0  0
  6 10  1  1  0  0  0
  7  3  1  6  0  0  0
  7  1  1  0  0  0  0
  8  9  1  0  0  0  0
  9 11  2  0  0  0  0
 10 13  2  0  0  0  0
 12 10  1  0  0  0  0
 12  8  2  0  0  0  0
 13 11  1  0  0  0  0
 14  8  1  0  0  0  0
 16 15  1  0  0  0  0
 17 18  1  0  0  0  0
 19 18  1  0  0  0  0
 20 19  1  0  0  0  0
 21 23  1  0  0  0  0
 21 22  1  0  0  0  0
 22 20  1  0  0  0  0
 23 22  1  0  0  0  0
 24 25  1  0  0  0  0
 24  2  1  0  0  0  0
 26 27  1  0  0  0  0
 26 25  1  0  0  0  0
 29 27  1  0  0  0  0
 30 29  1  0  0  0  0
 30 28  2  0  0  0  0
 31 32  1  0  0  0  0
 31 34  1  0  0  0  0
 32 33  1  0  0  0  0
 33 29  1  0  0  0  0
 34 30  1  0  0  0  0
M  END
>  <MODEL>
6

>  <REMARK>
 VINA RESULT:      -6.8      2.908      6.926
  Name = 
  12 active torsions:
  status: ('A' for Active; 'I' for Inactive)
    1  A    between atoms: C_2  and  C_15
    2  A    between atoms: C_2  and  C_25
    3  A    between atoms: C_3  and  N_13
    4  A    between atoms: C_3  and  C_17
    5  A    between atoms: C_4  and  C_15
    6  A    between atoms: N_5  and  C_18
    7  A    between atoms: C_6  and  C_9
    8  A    between atoms: C_9  and  C_25
    9  A    between atoms: C_12  and  C_28
   10  A    between atoms: C_17  and  C_29
   11  A    between atoms: C_18  and  C_29
   12  A    between atoms: C_21  and  O_32
                            x       y       z     vdW  Elec       q    Type
                         _______ _______ _______ _____ _____    ______ ____

>  <TORSDO>
F 12

$$$$
=
 OpenBabel10272400003D

 34 37  0  0  1  0  0  0  0  0999 V2000
  189.2780  178.1020  141.2620 C   0  0  2  0  0  3  0  0  0  0  0  0
  187.7780  178.6300  139.3920 N   0  0  0  0  0  0  0  0  0  0  0  0
  190.0640  178.2230  139.0070 O   0  0  0  0  0  1  0  0  0  0  0  0
  188.0260  178.0180  142.1470 C   0  0  1  0  0  3  0  0  0  0  0  0
  186.7180  178.2170  140.1440 O   0  0  0  0  0  0  0  0  0  0  0  0
  186.9040  178.7730  141.4230 C   0  0  1  0  0  3  0  0  0  0  0  0
  188.9610  177.8430  139.7800 C   0  0  1  0  0  3  0  0  0  0  0  0
  184.4950  178.7860  144.3460 C   0  0  0  0  0  0  0  0  0  0  0  0
  183.2570  178.7910  143.6970 C   0  0  0  0  0  3  0  0  0  0  0  0
  185.6250  178.7880  142.2010 C   0  0  0  0  0  0  0  0  0  0  0  0
  183.1990  178.7890  142.3000 C   0  0  0  0  0  3  0  0  0  0  0  0
  185.6770  178.7800  143.5990 C   0  0  0  0  0  3  0  0  0  0  0  0
  184.3810  178.7850  141.5530 C   0  0  0  0  0  3  0  0  0  0  0  0
  184.5650  178.7880  146.0940 Cl  0  0  0  0  0  0  0  0  0  0  0  0
  187.9120  176.4460  143.7090 C   0  0  0  0  0  1  0  0  0  0  0  0
  187.6540  176.6830  142.3580 O   0  0  0  0  0  0  0  0  0  0  0  0
  190.4700  177.3000  141.7930 C   0  0  0  0  0  2  0  0  0  0  0  0
  191.1920  178.0050  142.9360 C   0  0  0  0  0  2  0  0  0  0  0  0
  191.6080  177.0020  143.9960 C   0  0  0  0  0  2  0  0  0  0  0  0
  191.5120  177.6270  145.3760 C   0  0  0  0  0  2  0  0  0  0  0  0
  191.5730  176.0940  147.3060 C   0  0  0  0  0  2  0  0  0  0  0  0
  190.6740  176.7440  146.2760 C   0  0  0  0  0  3  0  0  0  0  0  0
  190.7240  177.2870  147.6900 C   0  0  0  0  0  2  0  0  0  0  0  0
  187.4390  178.2940  138.0150 C   0  0  0  0  0  2  0  0  0  0  0  0
  185.9860  177.8490  137.9170 C   0  0  0  0  0  2  0  0  0  0  0  0
  185.5610  177.6070  136.4740 C   0  0  0  0  0  2  0  0  0  0  0  0
  184.4580  176.5610  136.3960 C   0  0  0  0  0  2  0  0  0  0  0  0
  183.4250  174.7540  138.2920 O   0  0  0  0  0  0  0  0  0  0  0  0
  185.0040  175.2300  136.6250 N   0  0  0  0  0  0  0  0  0  0  0  0
  184.3940  174.3550  137.5910 C   0  0  0  0  0  0  0  0  0  0  0  0
  186.3110  172.7840  137.3250 C   0  0  0  0  0  2  0  0  0  0  0  0
  186.5490  173.4180  135.9640 C   0  0  0  0  0  2  0  0  0  0  0  0
  186.3170  174.9220  136.0560 C   0  0  0  0  0  2  0  0  0  0  0  0
  184.8460  172.9330  137.7190 C   0  0  0  0  0  2  0  0  0  0  0  0
  1 17  1  1  0  0  0
  1  4  1  0  0  0  0
  2  7  1  0  0  0  0
  2  5  1  0  0  0  0
  4 16  1  6  0  0  0
  5  6  1  0  0  0  0
  6  4  1  0  0  0  0
  6 10  1  1  0  0  0
  7  3  1  6  0  0  0
  7  1  1  0  0  0  0
  8 14  1  0  0  0  0
  9  8  1  0  0  0  0
 10 12  1  0  0  0  0
 11  9  2  0  0  0  0
 12  8  2  0  0  0  0
 13 10  2  0  0  0  0
 13 11  1  0  0  0  0
 16 15  1  0  0  0  0
 17 18  1  0  0  0  0
 18 19  1  0  0  0  0
 19 20  1  0  0  0  0
 20 22  1  0  0  0  0
 21 23  1  0  0  0  0
 22 21  1  0  0  0  0
 22 23  1  0  0  0  0
 24  2  1  0  0  0  0
 25 24  1  0  0  0  0
 26 25  1  0  0  0  0
 27 26  1  0  0  0  0
 27 29  1  0  0  0  0
 29 30  1  0  0  0  0
 30 34  1  0  0  0  0
 30 28  2  0  0  0  0
 31 34  1  0  0  0  0
 32 33  1  0  0  0  0
 32 31  1  0  0  0  0
 33 29  1  0  0  0  0
M  END
>  <MODEL>
7

>  <REMARK>
 VINA RESULT:      -6.7      1.628      2.468
  Name = 
  12 active torsions:
  status: ('A' for Active; 'I' for Inactive)
    1  A    between atoms: C_2  and  C_15
    2  A    between atoms: C_2  and  C_25
    3  A    between atoms: C_3  and  N_13
    4  A    between atoms: C_3  and  C_17
    5  A    between atoms: C_4  and  C_15
    6  A    between atoms: N_5  and  C_18
    7  A    between atoms: C_6  and  C_9
    8  A    between atoms: C_9  and  C_25
    9  A    between atoms: C_12  and  C_28
   10  A    between atoms: C_17  and  C_29
   11  A    between atoms: C_18  and  C_29
   12  A    between atoms: C_21  and  O_32
                            x       y       z     vdW  Elec       q    Type
                         _______ _______ _______ _____ _____    ______ ____

>  <TORSDO>
F 12

$$$$
=
 OpenBabel10272400003D

 34 37  0  0  1  0  0  0  0  0999 V2000
  186.1420  178.0760  138.7900 C   0  0  2  0  0  3  0  0  0  0  0  0
  187.3560  177.9750  140.9220 N   0  0  0  0  0  0  0  0  0  0  0  0
  188.5020  177.7070  138.8840 O   0  0  0  0  0  1  0  0  0  0  0  0
  184.9130  178.5260  139.5960 C   0  0  1  0  0  3  0  0  0  0  0  0
  186.3510  178.6840  141.5120 O   0  0  0  0  0  0  0  0  0  0  0  0
  185.1480  178.1130  141.0540 C   0  0  1  0  0  3  0  0  0  0  0  0
  187.4600  178.3960  139.5140 C   0  0  1  0  0  3  0  0  0  0  0  0
  181.6120  178.7400  142.2580 C   0  0  0  0  0  0  0  0  0  0  0  0
  181.8270  179.1650  143.5720 C   0  0  0  0  0  3  0  0  0  0  0  0
  184.0010  178.4750  141.9460 C   0  0  0  0  0  0  0  0  0  0  0  0
  183.1280  179.2510  144.0750 C   0  0  0  0  0  3  0  0  0  0  0  0
  182.6980  178.4000  141.4450 C   0  0  0  0  0  3  0  0  0  0  0  0
  184.2140  178.9090  143.2630 C   0  0  0  0  0  3  0  0  0  0  0  0
  179.9820  178.6330  141.6300 Cl  0  0  0  0  0  0  0  0  0  0  0  0
  183.5250  180.0840  138.8430 C   0  0  0  0  0  1  0  0  0  0  0  0
  184.7410  179.9140  139.5070 O   0  0  0  0  0  0  0  0  0  0  0  0
  186.1150  178.5110  137.3220 C   0  0  0  0  0  2  0  0  0  0  0  0
  186.2470  177.3380  136.3580 C   0  0  0  0  0  2  0  0  0  0  0  0
  185.2860  176.2280  136.7420 C   0  0  0  0  0  2  0  0  0  0  0  0
  186.0480  174.9460  137.0230 C   0  0  0  0  0  2  0  0  0  0  0  0
  186.0890  172.5120  136.6310 C   0  0  0  0  0  2  0  0  0  0  0  0
  185.2300  173.7580  136.5650 C   0  0  0  0  0  3  0  0  0  0  0  0
  185.0740  172.7890  137.7200 C   0  0  0  0  0  2  0  0  0  0  0  0
  188.5770  178.3760  141.6090 C   0  0  0  0  0  2  0  0  0  0  0  0
  189.2960  177.1590  142.1730 C   0  0  0  0  0  2  0  0  0  0  0  0
  188.5750  176.5830  143.3850 C   0  0  0  0  0  2  0  0  0  0  0  0
  187.8300  177.6700  144.1470 C   0  0  0  0  0  2  0  0  0  0  0  0
  186.0990  178.3830  146.2500 O   0  0  0  0  0  0  0  0  0  0  0  0
  188.2180  177.6610  145.5510 N   0  0  0  0  0  0  0  0  0  0  0  0
  187.2600  178.0070  146.5680 C   0  0  0  0  0  0  0  0  0  0  0  0
  189.0980  178.0010  148.2510 C   0  0  0  0  0  2  0  0  0  0  0  0
  189.8680  177.0950  147.3020 C   0  0  0  0  0  2  0  0  0  0  0  0
  189.6430  177.5560  145.8660 C   0  0  0  0  0  2  0  0  0  0  0  0
  187.6000  177.8460  148.0180 C   0  0  0  0  0  2  0  0  0  0  0  0
  1 17  1  6  0  0  0
  1  7  1  0  0  0  0
  1  4  1  0  0  0  0
  2  5  1  0  0  0  0
  2 24  1  0  0  0  0
  4 16  1  1  0  0  0
  4  6  1  0  0  0  0
  6  5  1  0  0  0  0
  6 10  1  1  0  0  0
  7  3  1  6  0  0  0
  7  2  1  0  0  0  0
  8  9  1  0  0  0  0
  9 11  2  0  0  0  0
 10 13  2  0  0  0  0
 12 10  1  0  0  0  0
 12  8  2  0  0  0  0
 13 11  1  0  0  0  0
 14  8  1  0  0  0  0
 15 16  1  0  0  0  0
 18 19  1  0  0  0  0
 18 17  1  0  0  0  0
 19 20  1  0  0  0  0
 21 23  1  0  0  0  0
 22 21  1  0  0  0  0
 22 20  1  0  0  0  0
 22 23  1  0  0  0  0
 24 25  1  0  0  0  0
 25 26  1  0  0  0  0
 26 27  1  0  0  0  0
 27 29  1  0  0  0  0
 28 30  2  0  0  0  0
 29 33  1  0  0  0  0
 29 30  1  0  0  0  0
 30 34  1  0  0  0  0
 32 31  1  0  0  0  0
 33 32  1  0  0  0  0
 34 31  1  0  0  0  0
M  END
>  <MODEL>
8

>  <REMARK>
 VINA RESULT:      -6.7      2.165      7.710
  Name = 
  12 active torsions:
  status: ('A' for Active; 'I' for Inactive)
    1  A    between atoms: C_2  and  C_15
    2  A    between atoms: C_2  and  C_25
    3  A    between atoms: C_3  and  N_13
    4  A    between atoms: C_3  and  C_17
    5  A    between atoms: C_4  and  C_15
    6  A    between atoms: N_5  and  C_18
    7  A    between atoms: C_6  and  C_9
    8  A    between atoms: C_9  and  C_25
    9  A    between atoms: C_12  and  C_28
   10  A    between atoms: C_17  and  C_29
   11  A    between atoms: C_18  and  C_29
   12  A    between atoms: C_21  and  O_32
                            x       y       z     vdW  Elec       q    Type
                         _______ _______ _______ _____ _____    ______ ____

>  <TORSDO>
F 12

$$$$
=
 OpenBabel10272400003D

 34 37  0  0  1  0  0  0  0  0999 V2000
  188.8440  177.1430  138.2140 C   0  0  2  0  0  3  0  0  0  0  0  0
  190.3420  177.6490  140.0930 N   0  0  0  0  0  0  0  0  0  0  0  0
  188.0530  178.1860  140.2150 O   0  0  0  0  0  1  0  0  0  0  0  0
  190.0160  176.3760  137.5830 C   0  0  1  0  0  3  0  0  0  0  0  0
  191.2060  176.6940  139.6440 O   0  0  0  0  0  0  0  0  0  0  0  0
  191.3020  176.8770  138.2510 C   0  0  1  0  0  3  0  0  0  0  0  0
  188.9700  177.2410  139.7440 C   0  0  1  0  0  3  0  0  0  0  0  0
  194.6240  175.0630  138.0960 C   0  0  0  0  0  0  0  0  0  0  0  0
  194.8520  175.0020  136.7180 C   0  0  0  0  0  3  0  0  0  0  0  0
  192.5300  176.2200  137.7010 C   0  0  0  0  0  0  0  0  0  0  0  0
  193.9250  175.5530  135.8290 C   0  0  0  0  0  3  0  0  0  0  0  0
  193.4660  175.6750  138.5860 C   0  0  0  0  0  3  0  0  0  0  0  0
  192.7670  176.1640  136.3200 C   0  0  0  0  0  3  0  0  0  0  0  0
  195.7860  174.3720  139.2060 Cl  0  0  0  0  0  0  0  0  0  0  0  0
  189.5660  174.4810  136.5210 C   0  0  0  0  0  1  0  0  0  0  0  0
  189.8720  174.9960  137.7820 O   0  0  0  0  0  0  0  0  0  0  0  0
  187.4670  176.6810  137.7310 C   0  0  0  0  0  2  0  0  0  0  0  0
  186.6880  177.7870  137.0280 C   0  0  0  0  0  2  0  0  0  0  0  0
  185.2690  177.3330  136.7390 C   0  0  0  0  0  2  0  0  0  0  0  0
  184.3850  177.5720  137.9490 C   0  0  0  0  0  2  0  0  0  0  0  0
  183.6840  179.5690  139.2140 C   0  0  0  0  0  2  0  0  0  0  0  0
  184.8770  178.7870  138.7060 C   0  0  0  0  0  3  0  0  0  0  0  0
  184.4560  178.6710  140.1570 C   0  0  0  0  0  2  0  0  0  0  0  0
  190.4630  177.6390  141.5460 C   0  0  0  0  0  2  0  0  0  0  0  0
  190.2820  176.2270  142.0850 C   0  0  0  0  0  2  0  0  0  0  0  0
  189.1740  176.1540  143.1280 C   0  0  0  0  0  2  0  0  0  0  0  0
  188.8330  177.5370  143.6640 C   0  0  0  0  0  2  0  0  0  0  0  0
  186.5850  178.2630  145.1960 O   0  0  0  0  0  0  0  0  0  0  0  0
  188.8100  177.5250  145.1210 N   0  0  0  0  0  0  0  0  0  0  0  0
  187.6060  177.8780  145.8270 C   0  0  0  0  0  0  0  0  0  0  0  0
  188.8960  177.8580  147.9600 C   0  0  0  0  0  2  0  0  0  0  0  0
  189.8960  176.9470  147.2640 C   0  0  0  0  0  2  0  0  0  0  0  0
  190.0880  177.4100  145.8240 C   0  0  0  0  0  2  0  0  0  0  0  0
  187.5230  177.7150  147.3130 C   0  0  0  0  0  2  0  0  0  0  0  0
  1 17  1  1  0  0  0
  1  7  1  0  0  0  0
  2 24  1  0  0  0  0
  4 16  1  1  0  0  0
  4  1  1  0  0  0  0
  4  6  1  0  0  0  0
  5  2  1  0  0  0  0
  6 10  1  6  0  0  0
  6  5  1  0  0  0  0
  7  2  1  0  0  0  0
  7  3  1  6  0  0  0
  8 12  1  0  0  0  0
  8 14  1  0  0  0  0
  9  8  2  0  0  0  0
 10 12  2  0  0  0  0
 11 13  2  0  0  0  0
 11  9  1  0  0  0  0
 13 10  1  0  0  0  0
 15 16  1  0  0  0  0
 18 17  1  0  0  0  0
 19 18  1  0  0  0  0
 19 20  1  0  0  0  0
 20 22  1  0  0  0  0
 21 23  1  0  0  0  0
 22 21  1  0  0  0  0
 22 23  1  0  0  0  0
 24 25  1  0  0  0  0
 25 26  1  0  0  0  0
 26 27  1  0  0  0  0
 27 29  1  0  0  0  0
 28 30  2  0  0  0  0
 29 33  1  0  0  0  0
 29 30  1  0  0  0  0
 30 34  1  0  0  0  0
 32 31  1  0  0  0  0
 33 32  1  0  0  0  0
 34 31  1  0  0  0  0
M  END
>  <MODEL>
9

>  <REMARK>
 VINA RESULT:      -6.7      3.515      8.661
  Name = 
  12 active torsions:
  status: ('A' for Active; 'I' for Inactive)
    1  A    between atoms: C_2  and  C_15
    2  A    between atoms: C_2  and  C_25
    3  A    between atoms: C_3  and  N_13
    4  A    between atoms: C_3  and  C_17
    5  A    between atoms: C_4  and  C_15
    6  A    between atoms: N_5  and  C_18
    7  A    between atoms: C_6  and  C_9
    8  A    between atoms: C_9  and  C_25
    9  A    between atoms: C_12  and  C_28
   10  A    between atoms: C_17  and  C_29
   11  A    between atoms: C_18  and  C_29
   12  A    between atoms: C_21  and  O_32
                            x       y       z     vdW  Elec       q    Type
                         _______ _______ _______ _____ _____    ______ ____

>  <TORSDO>
F 12

$$$$
