=
 OpenBabel10272401573D

 28 31  0  0  0  0  0  0  0  0999 V2000
  190.6130  176.5900  143.8460 N   0  0  0  0  0  0  0  0  0  0  0  0
  185.5730  178.0210  143.2470 C   0  0  0  0  0  3  0  0  0  0  0  0
  189.2270  177.7300  148.2100 O   0  0  0  0  0  1  0  0  0  0  0  0
  184.9880  178.5830  145.5390 C   0  0  0  0  0  0  0  0  0  0  0  0
  187.2460  177.7970  145.0330 C   0  0  0  0  0  0  0  0  0  0  0  0
  183.3440  178.8090  143.7720 C   0  0  0  0  0  0  0  0  0  0  0  0
  185.9440  178.1270  144.5980 C   0  0  0  0  0  0  0  0  0  0  0  0
  186.6100  178.3770  147.3230 C   0  0  0  0  0  3  0  0  0  0  0  0
  183.6980  178.9200  145.1200 C   0  0  0  0  0  3  0  0  0  0  0  0
  189.8090  177.1690  145.9280 C   0  0  0  0  0  0  0  0  0  0  0  0
  188.2240  177.3450  144.1230 C   0  0  0  0  0  3  0  0  0  0  0  0
  185.3260  178.7010  146.8870 C   0  0  0  0  0  3  0  0  0  0  0  0
  191.2020  176.7790  146.0750 C   0  0  0  0  0  0  0  0  0  0  0  0
  188.8770  177.6090  146.8680 C   0  0  0  0  0  0  0  0  0  0  0  0
  191.8490  176.7730  147.1550 O   0  0  0  0  0  0  0  0  0  0  0  0
  181.9720  179.1680  143.3340 C   0  0  0  0  0  1  0  0  0  0  0  0
  184.2810  178.3600  142.8380 C   0  0  0  0  0  3  0  0  0  0  0  0
  187.5780  177.9280  146.4180 C   0  0  0  0  0  0  0  0  0  0  0  0
  191.7560  176.3940  144.7360 C   0  0  0  0  0  2  0  0  0  0  0  0
  189.4960  177.0410  144.6050 C   0  0  0  0  0  0  0  0  0  0  0  0
  190.6300  176.3430  142.4130 C   0  0  0  0  0  2  0  0  0  0  0  0
  190.9350  177.5260  141.7360 O   0  0  0  0  0  0  0  0  0  0  0  0
  190.3960  177.3580  140.4580 C   0  0  0  0  0  2  0  0  0  0  0  0
  188.8750  177.3460  140.5210 C   0  0  0  0  0  2  0  0  0  0  0  0
  188.2950  178.3600  139.5940 C   0  0  0  0  0  0  0  0  0  0  0  0
  187.0490  178.5440  139.5680 O   0  0  0  0  0  0  0  0  0  0  0  0
  188.7000  179.5110  137.5550 O   0  0  0  0  0  1  0  0  0  0  0  0
  189.1350  179.0790  138.7470 O   0  0  0  0  0  0  0  0  0  0  0  0
  1 20  1  0  0  0  0
  1 19  1  0  0  0  0
  2  7  1  0  0  0  0
  4 12  1  0  0  0  0
  5 18  1  0  0  0  0
  6  9  2  0  0  0  0
  7  5  1  0  0  0  0
  7  4  2  0  0  0  0
  9  4  1  0  0  0  0
 10 13  1  0  0  0  0
 10 14  1  0  0  0  0
 11 20  1  0  0  0  0
 11  5  2  0  0  0  0
 12  8  2  0  0  0  0
 13 15  2  0  0  0  0
 14  3  1  0  0  0  0
 16  6  1  0  0  0  0
 17  2  2  0  0  0  0
 17  6  1  0  0  0  0
 18 14  2  0  0  0  0
 18  8  1  0  0  0  0
 19 13  1  0  0  0  0
 20 10  2  0  0  0  0
 21  1  1  0  0  0  0
 22 21  1  0  0  0  0
 23 24  1  0  0  0  0
 23 22  1  0  0  0  0
 25 24  1  0  0  0  0
 26 25  2  0  0  0  0
 27 28  1  0  0  0  0
 28 25  1  0  0  0  0
M  END
>  <MODEL>
1

>  <REMARK>
 VINA RESULT:     -11.2      0.000      0.000
  Name = 
  6 active torsions:
  status: ('A' for Active; 'I' for Inactive)
    1  A    between atoms: N_1  and  C_2
    2  A    between atoms: C_2  and  O_3
    3  A    between atoms: O_3  and  C_8
    4  A    between atoms: C_6  and  C_11
    5  A    between atoms: C_6  and  O_28
    6  A    between atoms: C_8  and  C_11
                            x       y       z     vdW  Elec       q    Type
                         _______ _______ _______ _____ _____    ______ ____

>  <TORSDO>
F 6

$$$$
=
 OpenBabel10272401573D

 28 31  0  0  0  0  0  0  0  0999 V2000
  190.5010  176.5780  143.4860 N   0  0  0  0  0  0  0  0  0  0  0  0
  185.4380  178.0290  143.2030 C   0  0  0  0  0  3  0  0  0  0  0  0
  189.3790  177.6750  147.9360 O   0  0  0  0  0  1  0  0  0  0  0  0
  184.9920  178.5690  145.5310 C   0  0  0  0  0  0  0  0  0  0  0  0
  187.2140  177.7820  144.8840 C   0  0  0  0  0  0  0  0  0  0  0  0
  183.2480  178.8180  143.8670 C   0  0  0  0  0  0  0  0  0  0  0  0
  185.8900  178.1210  144.5300 C   0  0  0  0  0  0  0  0  0  0  0  0
  186.7160  178.3390  147.2140 C   0  0  0  0  0  3  0  0  0  0  0  0
  183.6810  178.9140  145.1930 C   0  0  0  0  0  3  0  0  0  0  0  0
  189.8230  177.1370  145.6190 C   0  0  0  0  0  0  0  0  0  0  0  0
  188.1350  177.3370  143.9130 C   0  0  0  0  0  3  0  0  0  0  0  0
  185.4100  178.6720  146.8580 C   0  0  0  0  0  3  0  0  0  0  0  0
  191.2210  176.7420  145.6790 C   0  0  0  0  0  0  0  0  0  0  0  0
  188.9500  177.5700  146.6170 C   0  0  0  0  0  0  0  0  0  0  0  0
  191.9310  176.7230  146.7190 O   0  0  0  0  0  0  0  0  0  0  0  0
  181.8530  179.1860  143.5150 C   0  0  0  0  0  1  0  0  0  0  0  0
  184.1260  178.3770  142.8740 C   0  0  0  0  0  3  0  0  0  0  0  0
  187.6270  177.8980  146.2480 C   0  0  0  0  0  0  0  0  0  0  0  0
  191.6940  176.3690  144.3050 C   0  0  0  0  0  2  0  0  0  0  0  0
  189.4320  177.0250  144.3150 C   0  0  0  0  0  0  0  0  0  0  0  0
  190.4320  176.3460  142.0520 C   0  0  0  0  0  2  0  0  0  0  0  0
  190.5290  177.5630  141.3750 O   0  0  0  0  0  0  0  0  0  0  0  0
  191.6040  177.4020  140.4980 C   0  0  0  0  0  2  0  0  0  0  0  0
  191.1090  176.9780  139.1220 C   0  0  0  0  0  2  0  0  0  0  0  0
  192.0470  176.0030  138.4960 C   0  0  0  0  0  0  0  0  0  0  0  0
  191.6190  174.8820  138.1110 O   0  0  0  0  0  0  0  0  0  0  0  0
  193.8440  176.9450  137.2590 O   0  0  0  0  0  1  0  0  0  0  0  0
  193.3930  176.3300  138.3620 O   0  0  0  0  0  0  0  0  0  0  0  0
  1 19  1  0  0  0  0
  1 20  1  0  0  0  0
  2  7  1  0  0  0  0
  4 12  1  0  0  0  0
  5 18  1  0  0  0  0
  6  9  2  0  0  0  0
  7  5  1  0  0  0  0
  7  4  2  0  0  0  0
  9  4  1  0  0  0  0
 10 13  1  0  0  0  0
 10 14  1  0  0  0  0
 11 20  1  0  0  0  0
 11  5  2  0  0  0  0
 12  8  2  0  0  0  0
 13 15  2  0  0  0  0
 14  3  1  0  0  0  0
 16  6  1  0  0  0  0
 17  2  2  0  0  0  0
 17  6  1  0  0  0  0
 18 14  2  0  0  0  0
 18  8  1  0  0  0  0
 19 13  1  0  0  0  0
 20 10  2  0  0  0  0
 21  1  1  0  0  0  0
 22 21  1  0  0  0  0
 23 22  1  0  0  0  0
 24 23  1  0  0  0  0
 25 24  1  0  0  0  0
 26 25  2  0  0  0  0
 27 28  1  0  0  0  0
 28 25  1  0  0  0  0
M  END
>  <MODEL>
2

>  <REMARK>
 VINA RESULT:     -10.4      1.715      2.126
  Name = 
  6 active torsions:
  status: ('A' for Active; 'I' for Inactive)
    1  A    between atoms: N_1  and  C_2
    2  A    between atoms: C_2  and  O_3
    3  A    between atoms: O_3  and  C_8
    4  A    between atoms: C_6  and  C_11
    5  A    between atoms: C_6  and  O_28
    6  A    between atoms: C_8  and  C_11
                            x       y       z     vdW  Elec       q    Type
                         _______ _______ _______ _____ _____    ______ ____

>  <TORSDO>
F 6

$$$$
=
 OpenBabel10272401573D

 28 31  0  0  0  0  0  0  0  0999 V2000
  190.4660  177.4210  142.9680 N   0  0  0  0  0  0  0  0  0  0  0  0
  185.3000  178.4820  142.9380 C   0  0  0  0  0  3  0  0  0  0  0  0
  189.2780  177.4300  147.5350 O   0  0  0  0  0  1  0  0  0  0  0  0
  184.8220  178.4650  145.3210 C   0  0  0  0  0  0  0  0  0  0  0  0
  187.0970  178.0210  144.5490 C   0  0  0  0  0  0  0  0  0  0  0  0
  183.0550  178.9260  143.7280 C   0  0  0  0  0  0  0  0  0  0  0  0
  185.7480  178.3190  144.2590 C   0  0  0  0  0  0  0  0  0  0  0  0
  186.5660  178.0160  146.9370 C   0  0  0  0  0  3  0  0  0  0  0  0
  183.4840  178.7670  145.0480 C   0  0  0  0  0  3  0  0  0  0  0  0
  189.7540  177.4460  145.1620 C   0  0  0  0  0  0  0  0  0  0  0  0
  188.0480  177.8740  143.5170 C   0  0  0  0  0  3  0  0  0  0  0  0
  185.2360  178.3110  146.6440 C   0  0  0  0  0  3  0  0  0  0  0  0
  191.1800  177.1630  145.1540 C   0  0  0  0  0  0  0  0  0  0  0  0
  188.8530  177.5790  146.2190 C   0  0  0  0  0  0  0  0  0  0  0  0
  191.8940  176.9760  146.1740 O   0  0  0  0  0  0  0  0  0  0  0  0
  181.6330  179.2470  143.4440 C   0  0  0  0  0  1  0  0  0  0  0  0
  183.9620  178.7840  142.6740 C   0  0  0  0  0  3  0  0  0  0  0  0
  187.5060  177.8710  145.9110 C   0  0  0  0  0  0  0  0  0  0  0  0
  191.6760  177.1370  143.7390 C   0  0  0  0  0  2  0  0  0  0  0  0
  189.3680  177.5880  143.8590 C   0  0  0  0  0  0  0  0  0  0  0  0
  190.4100  177.5010  141.5170 C   0  0  0  0  0  2  0  0  0  0  0  0
  190.4960  176.2190  140.9720 O   0  0  0  0  0  0  0  0  0  0  0  0
  190.4470  176.4120  139.5890 C   0  0  0  0  0  2  0  0  0  0  0  0
  189.7650  177.7330  139.2610 C   0  0  0  0  0  2  0  0  0  0  0  0
  188.5020  177.5070  138.5020 C   0  0  0  0  0  0  0  0  0  0  0  0
  188.3850  176.4860  137.7730 O   0  0  0  0  0  0  0  0  0  0  0  0
  186.8110  178.6280  139.7390 O   0  0  0  0  0  1  0  0  0  0  0  0
  187.4700  178.4370  138.5870 O   0  0  0  0  0  0  0  0  0  0  0  0
  1 19  1  0  0  0  0
  1 20  1  0  0  0  0
  2  7  1  0  0  0  0
  4 12  1  0  0  0  0
  5 18  1  0  0  0  0
  6  9  2  0  0  0  0
  7  5  1  0  0  0  0
  7  4  2  0  0  0  0
  9  4  1  0  0  0  0
 10 14  1  0  0  0  0
 11 20  1  0  0  0  0
 11  5  2  0  0  0  0
 12  8  2  0  0  0  0
 13 10  1  0  0  0  0
 13 15  2  0  0  0  0
 14  3  1  0  0  0  0
 16  6  1  0  0  0  0
 17  2  2  0  0  0  0
 17  6  1  0  0  0  0
 18 14  2  0  0  0  0
 18  8  1  0  0  0  0
 19 13  1  0  0  0  0
 20 10  2  0  0  0  0
 21  1  1  0  0  0  0
 22 21  1  0  0  0  0
 23 22  1  0  0  0  0
 24 23  1  0  0  0  0
 25 28  1  0  0  0  0
 25 24  1  0  0  0  0
 26 25  2  0  0  0  0
 28 27  1  0  0  0  0
M  END
>  <MODEL>
3

>  <REMARK>
 VINA RESULT:     -10.1      1.020      1.239
  Name = 
  6 active torsions:
  status: ('A' for Active; 'I' for Inactive)
    1  A    between atoms: N_1  and  C_2
    2  A    between atoms: C_2  and  O_3
    3  A    between atoms: O_3  and  C_8
    4  A    between atoms: C_6  and  C_11
    5  A    between atoms: C_6  and  O_28
    6  A    between atoms: C_8  and  C_11
                            x       y       z     vdW  Elec       q    Type
                         _______ _______ _______ _____ _____    ______ ____

>  <TORSDO>
F 6

$$$$
=
 OpenBabel10272401573D

 28 31  0  0  0  0  0  0  0  0999 V2000
  185.7460  178.4340  141.6500 N   0  0  0  0  0  0  0  0  0  0  0  0
  189.7560  177.0420  144.7800 C   0  0  0  0  0  3  0  0  0  0  0  0
  184.0210  178.9540  146.0100 O   0  0  0  0  0  1  0  0  0  0  0  0
  188.7450  177.3450  146.9700 C   0  0  0  0  0  0  0  0  0  0  0  0
  187.4350  177.8300  144.9650 C   0  0  0  0  0  0  0  0  0  0  0  0
  191.0300  176.5600  146.7820 C   0  0  0  0  0  0  0  0  0  0  0  0
  188.6450  177.4080  145.5580 C   0  0  0  0  0  0  0  0  0  0  0  0
  186.4620  178.1180  147.1910 C   0  0  0  0  0  3  0  0  0  0  0  0
  189.9340  176.9220  147.5700 C   0  0  0  0  0  3  0  0  0  0  0  0
  185.0270  178.6540  143.8300 C   0  0  0  0  0  0  0  0  0  0  0  0
  187.2990  177.9010  143.5620 C   0  0  0  0  0  3  0  0  0  0  0  0
  187.6590  177.7000  147.7710 C   0  0  0  0  0  3  0  0  0  0  0  0
  183.9290  179.0270  142.9540 C   0  0  0  0  0  0  0  0  0  0  0  0
  185.1120  178.6040  145.2220 C   0  0  0  0  0  0  0  0  0  0  0  0
  182.7850  179.3940  143.3310 O   0  0  0  0  0  0  0  0  0  0  0  0
  192.2910  176.1120  147.4250 C   0  0  0  0  0  1  0  0  0  0  0  0
  190.9400  176.6200  145.3890 C   0  0  0  0  0  3  0  0  0  0  0  0
  186.3310  178.1870  145.7990 C   0  0  0  0  0  0  0  0  0  0  0  0
  184.3650  178.8970  141.5250 C   0  0  0  0  0  2  0  0  0  0  0  0
  186.0810  178.3150  143.0290 C   0  0  0  0  0  0  0  0  0  0  0  0
  186.6300  178.1580  140.5280 C   0  0  0  0  0  2  0  0  0  0  0  0
  187.7810  178.9410  140.6330 O   0  0  0  0  0  0  0  0  0  0  0  0
  188.7340  178.2870  139.8480 C   0  0  0  0  0  2  0  0  0  0  0  0
  189.4710  177.2390  140.6700 C   0  0  0  0  0  2  0  0  0  0  0  0
  190.9020  177.1530  140.2630 C   0  0  0  0  0  0  0  0  0  0  0  0
  191.8000  177.5830  141.0360 O   0  0  0  0  0  0  0  0  0  0  0  0
  190.7180  175.4510  138.6150 O   0  0  0  0  0  1  0  0  0  0  0  0
  191.2350  176.6190  139.0210 O   0  0  0  0  0  0  0  0  0  0  0  0
  1 20  1  0  0  0  0
  2 17  2  0  0  0  0
  2  7  1  0  0  0  0
  4  9  1  0  0  0  0
  4 12  1  0  0  0  0
  5  7  1  0  0  0  0
  5 18  1  0  0  0  0
  6 16  1  0  0  0  0
  6  9  2  0  0  0  0
  7  4  2  0  0  0  0
  8 12  2  0  0  0  0
 10 14  1  0  0  0  0
 11  5  2  0  0  0  0
 13 15  2  0  0  0  0
 13 10  1  0  0  0  0
 14 18  2  0  0  0  0
 14  3  1  0  0  0  0
 17  6  1  0  0  0  0
 18  8  1  0  0  0  0
 19  1  1  0  0  0  0
 19 13  1  0  0  0  0
 20 11  1  0  0  0  0
 20 10  2  0  0  0  0
 21 22  1  0  0  0  0
 21  1  1  0  0  0  0
 23 22  1  0  0  0  0
 23 24  1  0  0  0  0
 25 24  1  0  0  0  0
 25 26  2  0  0  0  0
 27 28  1  0  0  0  0
 28 25  1  0  0  0  0
M  END
>  <MODEL>
4

>  <REMARK>
 VINA RESULT:      -9.6      2.290      5.492
  Name = 
  6 active torsions:
  status: ('A' for Active; 'I' for Inactive)
    1  A    between atoms: N_1  and  C_2
    2  A    between atoms: C_2  and  O_3
    3  A    between atoms: O_3  and  C_8
    4  A    between atoms: C_6  and  C_11
    5  A    between atoms: C_6  and  O_28
    6  A    between atoms: C_8  and  C_11
                            x       y       z     vdW  Elec       q    Type
                         _______ _______ _______ _____ _____    ______ ____

>  <TORSDO>
F 6

$$$$
=
 OpenBabel10272401573D

 28 31  0  0  0  0  0  0  0  0999 V2000
  187.1660  178.4190  140.8410 N   0  0  0  0  0  0  0  0  0  0  0  0
  190.4510  177.0550  144.7350 C   0  0  0  0  0  3  0  0  0  0  0  0
  184.4400  178.4450  144.6920 O   0  0  0  0  0  1  0  0  0  0  0  0
  188.9380  177.0980  146.6380 C   0  0  0  0  0  0  0  0  0  0  0  0
  188.0900  177.6580  144.4150 C   0  0  0  0  0  0  0  0  0  0  0  0
  191.2650  176.4960  146.9460 C   0  0  0  0  0  0  0  0  0  0  0  0
  189.1620  177.2740  145.2500 C   0  0  0  0  0  0  0  0  0  0  0  0
  186.6070  177.6870  146.3610 C   0  0  0  0  0  3  0  0  0  0  0  0
  189.9890  176.7120  147.4740 C   0  0  0  0  0  3  0  0  0  0  0  0
  185.9460  178.4030  142.7980 C   0  0  0  0  0  0  0  0  0  0  0  0
  188.2760  177.8370  143.0280 C   0  0  0  0  0  3  0  0  0  0  0  0
  187.6690  177.3070  147.1790 C   0  0  0  0  0  3  0  0  0  0  0  0
  185.0510  178.7690  141.7120 C   0  0  0  0  0  0  0  0  0  0  0  0
  185.7110  178.2410  144.1640 C   0  0  0  0  0  0  0  0  0  0  0  0
  183.8240  179.0220  141.8300 O   0  0  0  0  0  0  0  0  0  0  0  0
  192.3770  176.0860  147.8400 C   0  0  0  0  0  1  0  0  0  0  0  0
  191.4950  176.6680  145.5790 C   0  0  0  0  0  3  0  0  0  0  0  0
  186.7950  177.8640  144.9850 C   0  0  0  0  0  0  0  0  0  0  0  0
  185.8160  178.7920  140.4220 C   0  0  0  0  0  2  0  0  0  0  0  0
  187.1820  178.2080  142.2500 C   0  0  0  0  0  0  0  0  0  0  0  0
  188.3060  178.3020  139.9460 C   0  0  0  0  0  2  0  0  0  0  0  0
  187.9770  177.4740  138.8710 O   0  0  0  0  0  0  0  0  0  0  0  0
  189.1730  177.3010  138.1700 C   0  0  0  0  0  2  0  0  0  0  0  0
  190.3490  177.2350  139.1350 C   0  0  0  0  0  2  0  0  0  0  0  0
  191.3400  176.2110  138.6980 C   0  0  0  0  0  0  0  0  0  0  0  0
  190.9610  175.0310  138.4720 O   0  0  0  0  0  0  0  0  0  0  0  0
  193.2910  177.3040  139.5010 O   0  0  0  0  0  1  0  0  0  0  0  0
  192.6810  176.5620  138.5670 O   0  0  0  0  0  0  0  0  0  0  0  0
  1 20  1  0  0  0  0
  2  7  2  0  0  0  0
  2 17  1  0  0  0  0
  4 12  1  0  0  0  0
  4  9  2  0  0  0  0
  5 18  1  0  0  0  0
  5  7  1  0  0  0  0
  6  9  1  0  0  0  0
  6 16  1  0  0  0  0
  7  4  1  0  0  0  0
  8 12  2  0  0  0  0
 10 14  1  0  0  0  0
 11  5  2  0  0  0  0
 13 15  2  0  0  0  0
 13 10  1  0  0  0  0
 14  3  1  0  0  0  0
 14 18  2  0  0  0  0
 17  6  2  0  0  0  0
 18  8  1  0  0  0  0
 19  1  1  0  0  0  0
 19 13  1  0  0  0  0
 20 10  2  0  0  0  0
 20 11  1  0  0  0  0
 21  1  1  0  0  0  0
 22 21  1  0  0  0  0
 23 22  1  0  0  0  0
 23 24  1  0  0  0  0
 25 24  1  0  0  0  0
 26 25  2  0  0  0  0
 28 25  1  0  0  0  0
 28 27  1  0  0  0  0
M  END
>  <MODEL>
5

>  <REMARK>
 VINA RESULT:      -9.4      2.616      5.575
  Name = 
  6 active torsions:
  status: ('A' for Active; 'I' for Inactive)
    1  A    between atoms: N_1  and  C_2
    2  A    between atoms: C_2  and  O_3
    3  A    between atoms: O_3  and  C_8
    4  A    between atoms: C_6  and  C_11
    5  A    between atoms: C_6  and  O_28
    6  A    between atoms: C_8  and  C_11
                            x       y       z     vdW  Elec       q    Type
                         _______ _______ _______ _____ _____    ______ ____

>  <TORSDO>
F 6

$$$$
=
 OpenBabel10272401573D

 28 31  0  0  0  0  0  0  0  0999 V2000
  185.0360  178.5810  141.2860 N   0  0  0  0  0  0  0  0  0  0  0  0
  189.1400  177.3520  144.3630 C   0  0  0  0  0  3  0  0  0  0  0  0
  183.3350  178.9860  145.6680 O   0  0  0  0  0  1  0  0  0  0  0  0
  188.1390  177.5900  146.5650 C   0  0  0  0  0  0  0  0  0  0  0  0
  186.7870  178.0300  144.5780 C   0  0  0  0  0  0  0  0  0  0  0  0
  190.4560  176.9140  146.3470 C   0  0  0  0  0  0  0  0  0  0  0  0
  188.0210  177.6600  145.1550 C   0  0  0  0  0  0  0  0  0  0  0  0
  185.8260  178.2550  146.8160 C   0  0  0  0  0  3  0  0  0  0  0  0
  189.3530  177.2190  147.1500 C   0  0  0  0  0  3  0  0  0  0  0  0
  184.3310  178.7500  143.4750 C   0  0  0  0  0  0  0  0  0  0  0  0
  186.6330  178.1050  143.1780 C   0  0  0  0  0  3  0  0  0  0  0  0
  187.0470  177.8890  147.3800 C   0  0  0  0  0  3  0  0  0  0  0  0
  183.2070  179.0780  142.6130 C   0  0  0  0  0  0  0  0  0  0  0  0
  184.4330  178.6930  144.8660 C   0  0  0  0  0  0  0  0  0  0  0  0
  182.0520  179.3890  143.0050 O   0  0  0  0  0  0  0  0  0  0  0  0
  191.7430  176.5200  146.9740 C   0  0  0  0  0  1  0  0  0  0  0  0
  190.3490  176.9810  144.9550 C   0  0  0  0  0  3  0  0  0  0  0  0
  185.6760  178.3280  145.4270 C   0  0  0  0  0  0  0  0  0  0  0  0
  183.6340  178.9790  141.1790 C   0  0  0  0  0  2  0  0  0  0  0  0
  185.3910  178.4670  142.6610 C   0  0  0  0  0  0  0  0  0  0  0  0
  185.9200  178.3540  140.1530 C   0  0  0  0  0  2  0  0  0  0  0  0
  185.4570  179.0690  139.0460 O   0  0  0  0  0  0  0  0  0  0  0  0
  185.3350  178.1180  138.0300 C   0  0  0  0  0  2  0  0  0  0  0  0
  186.7010  177.5570  137.6600 C   0  0  0  0  0  2  0  0  0  0  0  0
  187.4120  178.4670  136.7170 C   0  0  0  0  0  0  0  0  0  0  0  0
  187.1910  178.3830  135.4790 O   0  0  0  0  0  0  0  0  0  0  0  0
  188.9550  179.1780  138.3790 O   0  0  0  0  0  1  0  0  0  0  0  0
  188.3330  179.3880  137.2100 O   0  0  0  0  0  0  0  0  0  0  0  0
  1 20  1  0  0  0  0
  2 17  2  0  0  0  0
  2  7  1  0  0  0  0
  4  9  1  0  0  0  0
  4 12  1  0  0  0  0
  5  7  1  0  0  0  0
  5 18  1  0  0  0  0
  6 16  1  0  0  0  0
  6  9  2  0  0  0  0
  7  4  2  0  0  0  0
  8 12  2  0  0  0  0
 10 14  1  0  0  0  0
 11  5  2  0  0  0  0
 13 15  2  0  0  0  0
 13 10  1  0  0  0  0
 14 18  2  0  0  0  0
 14  3  1  0  0  0  0
 17  6  1  0  0  0  0
 18  8  1  0  0  0  0
 19  1  1  0  0  0  0
 19 13  1  0  0  0  0
 20 11  1  0  0  0  0
 20 10  2  0  0  0  0
 21  1  1  0  0  0  0
 22 21  1  0  0  0  0
 23 22  1  0  0  0  0
 24 23  1  0  0  0  0
 25 28  1  0  0  0  0
 25 24  1  0  0  0  0
 26 25  2  0  0  0  0
 28 27  1  0  0  0  0
M  END
>  <MODEL>
6

>  <REMARK>
 VINA RESULT:      -9.4      2.918      5.691
  Name = 
  6 active torsions:
  status: ('A' for Active; 'I' for Inactive)
    1  A    between atoms: N_1  and  C_2
    2  A    between atoms: C_2  and  O_3
    3  A    between atoms: O_3  and  C_8
    4  A    between atoms: C_6  and  C_11
    5  A    between atoms: C_6  and  O_28
    6  A    between atoms: C_8  and  C_11
                            x       y       z     vdW  Elec       q    Type
                         _______ _______ _______ _____ _____    ______ ____

>  <TORSDO>
F 6

$$$$
=
 OpenBabel10272401573D

 28 31  0  0  0  0  0  0  0  0999 V2000
  187.2700  178.4270  140.7880 N   0  0  0  0  0  0  0  0  0  0  0  0
  190.4870  177.0820  144.7440 C   0  0  0  0  0  3  0  0  0  0  0  0
  184.4650  178.4150  144.5820 O   0  0  0  0  0  1  0  0  0  0  0  0
  188.9360  177.1050  146.6160 C   0  0  0  0  0  0  0  0  0  0  0  0
  188.1280  177.6640  144.3780 C   0  0  0  0  0  0  0  0  0  0  0  0
  191.2620  176.5240  146.9700 C   0  0  0  0  0  0  0  0  0  0  0  0
  189.1860  177.2870  145.2330 C   0  0  0  0  0  0  0  0  0  0  0  0
  186.6050  177.6720  146.2930 C   0  0  0  0  0  3  0  0  0  0  0  0
  189.9730  176.7260  147.4720 C   0  0  0  0  0  3  0  0  0  0  0  0
  186.0100  178.3930  142.7200 C   0  0  0  0  0  0  0  0  0  0  0  0
  188.3400  177.8490  142.9960 C   0  0  0  0  0  3  0  0  0  0  0  0
  187.6540  177.3000  147.1320 C   0  0  0  0  0  3  0  0  0  0  0  0
  185.1340  178.7540  141.6170 C   0  0  0  0  0  0  0  0  0  0  0  0
  185.7490  178.2240  144.0800 C   0  0  0  0  0  0  0  0  0  0  0  0
  183.9020  178.9940  141.7110 O   0  0  0  0  0  0  0  0  0  0  0  0
  192.3590  176.1220  147.8850 C   0  0  0  0  0  1  0  0  0  0  0  0
  191.5180  176.7020  145.6080 C   0  0  0  0  0  3  0  0  0  0  0  0
  186.8200  177.8550  144.9220 C   0  0  0  0  0  0  0  0  0  0  0  0
  185.9250  178.7880  140.3430 C   0  0  0  0  0  2  0  0  0  0  0  0
  187.2590  178.2120  142.1960 C   0  0  0  0  0  0  0  0  0  0  0  0
  188.4290  178.3230  139.9160 C   0  0  0  0  0  2  0  0  0  0  0  0
  188.6350  176.9880  139.5640 O   0  0  0  0  0  0  0  0  0  0  0  0
  189.4000  177.0370  138.3960 C   0  0  0  0  0  2  0  0  0  0  0  0
  189.1480  178.3410  137.6510 C   0  0  0  0  0  2  0  0  0  0  0  0
  188.5900  178.0790  136.2940 C   0  0  0  0  0  0  0  0  0  0  0  0
  189.3460  177.6620  135.3760 O   0  0  0  0  0  0  0  0  0  0  0  0
  186.3000  177.8980  136.9000 O   0  0  0  0  0  1  0  0  0  0  0  0
  187.2420  178.3200  136.0450 O   0  0  0  0  0  0  0  0  0  0  0  0
  1 20  1  0  0  0  0
  2  7  2  0  0  0  0
  2 17  1  0  0  0  0
  4 12  1  0  0  0  0
  4  9  2  0  0  0  0
  5 18  1  0  0  0  0
  5  7  1  0  0  0  0
  6  9  1  0  0  0  0
  6 16  1  0  0  0  0
  7  4  1  0  0  0  0
  8 12  2  0  0  0  0
 10 14  1  0  0  0  0
 11  5  2  0  0  0  0
 13 15  2  0  0  0  0
 13 10  1  0  0  0  0
 14  3  1  0  0  0  0
 14 18  2  0  0  0  0
 17  6  2  0  0  0  0
 18  8  1  0  0  0  0
 19  1  1  0  0  0  0
 19 13  1  0  0  0  0
 20 10  2  0  0  0  0
 20 11  1  0  0  0  0
 21  1  1  0  0  0  0
 22 21  1  0  0  0  0
 23 22  1  0  0  0  0
 24 23  1  0  0  0  0
 25 24  1  0  0  0  0
 26 25  2  0  0  0  0
 28 25  1  0  0  0  0
 28 27  1  0  0  0  0
M  END
>  <MODEL>
7

>  <REMARK>
 VINA RESULT:      -9.0      2.694      5.444
  Name = 
  6 active torsions:
  status: ('A' for Active; 'I' for Inactive)
    1  A    between atoms: N_1  and  C_2
    2  A    between atoms: C_2  and  O_3
    3  A    between atoms: O_3  and  C_8
    4  A    between atoms: C_6  and  C_11
    5  A    between atoms: C_6  and  O_28
    6  A    between atoms: C_8  and  C_11
                            x       y       z     vdW  Elec       q    Type
                         _______ _______ _______ _____ _____    ______ ____

>  <TORSDO>
F 6

$$$$
=
 OpenBabel10272401573D

 28 31  0  0  0  0  0  0  0  0999 V2000
  188.2180  178.0660  140.2810 N   0  0  0  0  0  0  0  0  0  0  0  0
  190.8910  176.8200  144.6540 C   0  0  0  0  0  3  0  0  0  0  0  0
  185.0420  178.5550  143.7360 O   0  0  0  0  0  1  0  0  0  0  0  0
  189.1590  177.1020  146.3370 C   0  0  0  0  0  0  0  0  0  0  0  0
  188.6350  177.5350  143.9900 C   0  0  0  0  0  0  0  0  0  0  0  0
  191.3830  176.3900  146.9860 C   0  0  0  0  0  0  0  0  0  0  0  0
  189.5660  177.1550  144.9810 C   0  0  0  0  0  0  0  0  0  0  0  0
  186.9270  177.8030  145.7200 C   0  0  0  0  0  3  0  0  0  0  0  0
  190.0690  176.7220  147.3270 C   0  0  0  0  0  3  0  0  0  0  0  0
  186.7660  178.2750  142.0600 C   0  0  0  0  0  0  0  0  0  0  0  0
  189.0040  177.5930  142.6290 C   0  0  0  0  0  3  0  0  0  0  0  0
  187.8500  177.4270  146.6940 C   0  0  0  0  0  3  0  0  0  0  0  0
  186.0410  178.6070  140.8450 C   0  0  0  0  0  0  0  0  0  0  0  0
  186.3520  178.2350  143.3920 C   0  0  0  0  0  0  0  0  0  0  0  0
  184.8280  178.9400  140.7850 O   0  0  0  0  0  0  0  0  0  0  0  0
  192.3450  175.9870  148.0420 C   0  0  0  0  0  1  0  0  0  0  0  0
  191.7930  176.4400  145.6510 C   0  0  0  0  0  3  0  0  0  0  0  0
  187.2970  177.8600  144.3710 C   0  0  0  0  0  0  0  0  0  0  0  0
  186.9600  178.4830  139.6660 C   0  0  0  0  0  2  0  0  0  0  0  0
  188.0440  177.9650  141.6910 C   0  0  0  0  0  0  0  0  0  0  0  0
  189.4510  177.8110  139.5520 C   0  0  0  0  0  2  0  0  0  0  0  0
  189.1530  177.4690  138.2310 O   0  0  0  0  0  0  0  0  0  0  0  0
  190.3720  177.0660  137.6800 C   0  0  0  0  0  2  0  0  0  0  0  0
  191.2940  176.5310  138.7670 C   0  0  0  0  0  2  0  0  0  0  0  0
  192.7230  176.6370  138.3530 C   0  0  0  0  0  0  0  0  0  0  0  0
  193.5980  176.9530  139.2020 O   0  0  0  0  0  0  0  0  0  0  0  0
  194.2890  176.7440  136.5700 O   0  0  0  0  0  1  0  0  0  0  0  0
  193.0740  176.4080  137.0260 O   0  0  0  0  0  0  0  0  0  0  0  0
  1 20  1  0  0  0  0
  2  7  2  0  0  0  0
  2 17  1  0  0  0  0
  4 12  1  0  0  0  0
  4  9  2  0  0  0  0
  5 18  1  0  0  0  0
  5  7  1  0  0  0  0
  6  9  1  0  0  0  0
  6 16  1  0  0  0  0
  7  4  1  0  0  0  0
  8 12  2  0  0  0  0
 10 14  1  0  0  0  0
 11  5  2  0  0  0  0
 13 10  1  0  0  0  0
 14  3  1  0  0  0  0
 14 18  2  0  0  0  0
 15 13  2  0  0  0  0
 17  6  2  0  0  0  0
 18  8  1  0  0  0  0
 19  1  1  0  0  0  0
 19 13  1  0  0  0  0
 20 10  2  0  0  0  0
 20 11  1  0  0  0  0
 21  1  1  0  0  0  0
 22 21  1  0  0  0  0
 23 22  1  0  0  0  0
 23 24  1  0  0  0  0
 25 24  1  0  0  0  0
 25 26  2  0  0  0  0
 27 28  1  0  0  0  0
 28 25  1  0  0  0  0
M  END
>  <MODEL>
8

>  <REMARK>
 VINA RESULT:      -9.0      2.805      5.750
  Name = 
  6 active torsions:
  status: ('A' for Active; 'I' for Inactive)
    1  A    between atoms: N_1  and  C_2
    2  A    between atoms: C_2  and  O_3
    3  A    between atoms: O_3  and  C_8
    4  A    between atoms: C_6  and  C_11
    5  A    between atoms: C_6  and  O_28
    6  A    between atoms: C_8  and  C_11
                            x       y       z     vdW  Elec       q    Type
                         _______ _______ _______ _____ _____    ______ ____

>  <TORSDO>
F 6

$$$$
=
 OpenBabel10272401573D

 28 31  0  0  0  0  0  0  0  0999 V2000
  184.8560  178.4120  139.7790 N   0  0  0  0  0  0  0  0  0  0  0  0
  187.7810  177.6490  144.1010 C   0  0  0  0  0  3  0  0  0  0  0  0
  181.8830  179.2900  143.3360 O   0  0  0  0  0  1  0  0  0  0  0  0
  186.1490  178.1220  145.8390 C   0  0  0  0  0  0  0  0  0  0  0  0
  185.4880  178.2930  143.4930 C   0  0  0  0  0  0  0  0  0  0  0  0
  188.4090  177.4790  146.4330 C   0  0  0  0  0  0  0  0  0  0  0  0
  186.4760  178.0220  144.4640 C   0  0  0  0  0  0  0  0  0  0  0  0
  183.8820  178.7570  145.2790 C   0  0  0  0  0  3  0  0  0  0  0  0
  187.1150  177.8500  146.8120 C   0  0  0  0  0  3  0  0  0  0  0  0
  183.5080  178.8210  141.6050 C   0  0  0  0  0  0  0  0  0  0  0  0
  185.7780  178.1990  142.1150 C   0  0  0  0  0  3  0  0  0  0  0  0
  184.8610  178.4880  146.2330 C   0  0  0  0  0  3  0  0  0  0  0  0
  182.7130  179.0190  140.4040 C   0  0  0  0  0  0  0  0  0  0  0  0
  183.1720  178.9300  142.9550 C   0  0  0  0  0  0  0  0  0  0  0  0
  181.4980  179.3470  140.3780 O   0  0  0  0  0  0  0  0  0  0  0  0
  189.4310  177.1910  147.4710 C   0  0  0  0  0  1  0  0  0  0  0  0
  188.7400  177.3790  145.0790 C   0  0  0  0  0  3  0  0  0  0  0  0
  184.1730  178.6630  143.9130 C   0  0  0  0  0  0  0  0  0  0  0  0
  183.5630  178.7620  139.1950 C   0  0  0  0  0  2  0  0  0  0  0  0
  184.7640  178.4680  141.1990 C   0  0  0  0  0  0  0  0  0  0  0  0
  186.0450  178.0740  139.0120 C   0  0  0  0  0  2  0  0  0  0  0  0
  187.1430  178.7760  139.5130 O   0  0  0  0  0  0  0  0  0  0  0  0
  188.2430  177.9530  139.2600 C   0  0  0  0  0  2  0  0  0  0  0  0
  189.0760  177.7760  140.5220 C   0  0  0  0  0  2  0  0  0  0  0  0
  190.4320  177.2520  140.1950 C   0  0  0  0  0  0  0  0  0  0  0  0
  191.3430  177.2860  141.0660 O   0  0  0  0  0  0  0  0  0  0  0  0
  190.8360  175.4320  138.7210 O   0  0  0  0  0  1  0  0  0  0  0  0
  190.6890  176.7490  138.9230 O   0  0  0  0  0  0  0  0  0  0  0  0
  1 20  1  0  0  0  0
  2  7  2  0  0  0  0
  2 17  1  0  0  0  0
  4 12  1  0  0  0  0
  4  9  2  0  0  0  0
  5 18  1  0  0  0  0
  5  7  1  0  0  0  0
  6  9  1  0  0  0  0
  6 16  1  0  0  0  0
  7  4  1  0  0  0  0
  8 12  2  0  0  0  0
 10 14  1  0  0  0  0
 11  5  2  0  0  0  0
 13 10  1  0  0  0  0
 14  3  1  0  0  0  0
 14 18  2  0  0  0  0
 15 13  2  0  0  0  0
 17  6  2  0  0  0  0
 18  8  1  0  0  0  0
 19  1  1  0  0  0  0
 19 13  1  0  0  0  0
 20 10  2  0  0  0  0
 20 11  1  0  0  0  0
 21 22  1  0  0  0  0
 21  1  1  0  0  0  0
 23 22  1  0  0  0  0
 23 24  1  0  0  0  0
 25 24  1  0  0  0  0
 25 26  2  0  0  0  0
 27 28  1  0  0  0  0
 28 25  1  0  0  0  0
M  END
>  <MODEL>
9

>  <REMARK>
 VINA RESULT:      -8.9      2.614      5.922
  Name = 
  6 active torsions:
  status: ('A' for Active; 'I' for Inactive)
    1  A    between atoms: N_1  and  C_2
    2  A    between atoms: C_2  and  O_3
    3  A    between atoms: O_3  and  C_8
    4  A    between atoms: C_6  and  C_11
    5  A    between atoms: C_6  and  O_28
    6  A    between atoms: C_8  and  C_11
                            x       y       z     vdW  Elec       q    Type
                         _______ _______ _______ _____ _____    ______ ____

>  <TORSDO>
F 6

$$$$
