=
 OpenBabel10272400503D

 25 29  0  0  0  0  0  0  0  0999 V2000
  186.9620  178.0350  145.6080 C   0  0  0  0  0  0  0  0  0  0  0  0
  188.2700  177.6860  145.2570 C   0  0  0  0  0  0  0  0  0  0  0  0
  187.4060  177.8050  147.9340 C   0  0  0  0  0  3  0  0  0  0  0  0
  185.8720  178.3750  144.8340 C   0  0  0  0  0  0  0  0  0  0  0  0
  183.3610  179.1160  143.9500 C   0  0  0  0  0  3  0  0  0  0  0  0
  188.7310  177.4480  147.6490 C   0  0  0  0  0  3  0  0  0  0  0  0
  184.8650  178.6150  145.7420 C   0  0  0  0  0  0  0  0  0  0  0  0
  183.5870  178.9890  145.3330 C   0  0  0  0  0  3  0  0  0  0  0  0
  190.5000  177.0300  145.9940 C   0  0  0  0  0  0  0  0  0  0  0  0
  191.4990  176.7030  147.0540 C   0  0  0  0  0  1  0  0  0  0  0  0
  188.6950  177.6290  143.9260 C   0  0  0  0  0  3  0  0  0  0  0  0
  184.3980  178.8690  143.0210 C   0  0  0  0  0  3  0  0  0  0  0  0
  186.5750  178.0840  146.9000 N   0  0  0  0  0  0  0  0  0  0  0  0
  185.2990  178.4350  147.0080 N   0  0  0  0  0  0  0  0  0  0  0  0
  190.9060  176.9790  144.6570 C   0  0  0  0  0  3  0  0  0  0  0  0
  185.6800  178.4910  143.4600 C   0  0  0  0  0  3  0  0  0  0  0  0
  190.0130  177.2760  143.6140 C   0  0  0  0  0  0  0  0  0  0  0  0
  189.1740  177.3850  146.3080 C   0  0  0  0  0  0  0  0  0  0  0  0
  189.9830  176.9490  139.8260 C   0  0  0  0  0  0  0  0  0  0  0  0
  190.4420  177.2210  142.1990 C   0  0  0  0  0  0  0  0  0  0  0  0
  189.5520  177.0030  141.2250 C   0  0  0  0  0  3  0  0  0  0  0  0
  189.1330  176.7430  138.9210 O   0  0  0  0  0  0  0  0  0  0  0  0
  191.8310  177.4040  141.8730 N   0  0  0  0  0  0  0  0  0  0  0  0
  191.4250  177.1370  139.4580 C   0  0  0  0  0  2  0  0  0  0  0  0
  192.2990  177.3730  140.6590 C   0  0  0  0  0  3  0  0  0  0  0  0
  1 13  1  0  0  0  0
  2  1  1  0  0  0  0
  2 18  1  0  0  0  0
  4  1  2  0  0  0  0
  4  7  1  0  0  0  0
  5  8  2  0  0  0  0
  6  3  2  0  0  0  0
  7 14  2  0  0  0  0
  8  7  1  0  0  0  0
  9 18  2  0  0  0  0
  9 10  1  0  0  0  0
 11  2  2  0  0  0  0
 12 16  2  0  0  0  0
 12  5  1  0  0  0  0
 13 14  1  0  0  0  0
 13  3  1  0  0  0  0
 15  9  1  0  0  0  0
 16  4  1  0  0  0  0
 17 11  1  0  0  0  0
 17 15  2  0  0  0  0
 18  6  1  0  0  0  0
 19 21  1  0  0  0  0
 20 17  1  0  0  0  0
 21 20  2  0  0  0  0
 22 19  2  0  0  0  0
 23 20  1  0  0  0  0
 24 19  1  0  0  0  0
 24 25  1  0  0  0  0
 25 23  2  0  0  0  0
M  END
>  <MODEL>
1

>  <REMARK>
 VINA RESULT:     -11.7      0.000      0.000
  Name = 
  1 active torsions:
  status: ('A' for Active; 'I' for Inactive)
    1  A    between atoms: C_6  and  C_23
                            x       y       z     vdW  Elec       q    Type
                         _______ _______ _______ _____ _____    ______ ____

>  <TORSDO>
F 1

$$$$
=
 OpenBabel10272400503D

 25 29  0  0  0  0  0  0  0  0999 V2000
  187.0620  177.9790  145.4740 C   0  0  0  0  0  0  0  0  0  0  0  0
  188.3680  177.6390  145.1070 C   0  0  0  0  0  0  0  0  0  0  0  0
  187.5340  177.7440  147.7940 C   0  0  0  0  0  3  0  0  0  0  0  0
  185.9610  178.3150  144.7130 C   0  0  0  0  0  0  0  0  0  0  0  0
  183.4350  179.0440  143.8600 C   0  0  0  0  0  3  0  0  0  0  0  0
  188.8580  177.3960  147.4920 C   0  0  0  0  0  3  0  0  0  0  0  0
  184.9620  178.5460  145.6330 C   0  0  0  0  0  0  0  0  0  0  0  0
  183.6790  178.9130  145.2400 C   0  0  0  0  0  3  0  0  0  0  0  0
  190.6100  176.9950  145.8160 C   0  0  0  0  0  0  0  0  0  0  0  0
  191.6230  176.6700  146.8630 C   0  0  0  0  0  1  0  0  0  0  0  0
  188.7780  177.5890  143.7710 C   0  0  0  0  0  3  0  0  0  0  0  0
  184.4630  178.8060  142.9190 C   0  0  0  0  0  3  0  0  0  0  0  0
  186.6890  178.0210  146.7700 N   0  0  0  0  0  0  0  0  0  0  0  0
  185.4120  178.3650  146.8930 N   0  0  0  0  0  0  0  0  0  0  0  0
  191.0010  176.9500  144.4740 C   0  0  0  0  0  3  0  0  0  0  0  0
  185.7530  178.4350  143.3420 C   0  0  0  0  0  3  0  0  0  0  0  0
  190.0950  177.2450  143.4430 C   0  0  0  0  0  0  0  0  0  0  0  0
  189.2860  177.3410  146.1470 C   0  0  0  0  0  0  0  0  0  0  0  0
  192.1950  177.2870  140.2730 C   0  0  0  0  0  0  0  0  0  0  0  0
  190.5080  177.1970  142.0230 C   0  0  0  0  0  0  0  0  0  0  0  0
  191.7930  177.3340  141.6810 C   0  0  0  0  0  3  0  0  0  0  0  0
  193.4090  177.4170  139.9680 O   0  0  0  0  0  0  0  0  0  0  0  0
  189.5110  177.0020  141.0020 N   0  0  0  0  0  0  0  0  0  0  0  0
  191.1770  177.0840  139.1900 C   0  0  0  0  0  2  0  0  0  0  0  0
  189.7800  176.9470  139.7310 C   0  0  0  0  0  3  0  0  0  0  0  0
  1 13  1  0  0  0  0
  2  1  1  0  0  0  0
  2 18  1  0  0  0  0
  4  1  2  0  0  0  0
  4  7  1  0  0  0  0
  5  8  2  0  0  0  0
  6  3  2  0  0  0  0
  7 14  2  0  0  0  0
  8  7  1  0  0  0  0
  9 18  2  0  0  0  0
  9 10  1  0  0  0  0
 11  2  2  0  0  0  0
 12 16  2  0  0  0  0
 12  5  1  0  0  0  0
 13 14  1  0  0  0  0
 13  3  1  0  0  0  0
 15  9  1  0  0  0  0
 16  4  1  0  0  0  0
 17 11  1  0  0  0  0
 17 15  2  0  0  0  0
 18  6  1  0  0  0  0
 19 21  1  0  0  0  0
 20 17  1  0  0  0  0
 21 20  2  0  0  0  0
 22 19  2  0  0  0  0
 23 20  1  0  0  0  0
 24 25  1  0  0  0  0
 24 19  1  0  0  0  0
 25 23  2  0  0  0  0
M  END
>  <MODEL>
2

>  <REMARK>
 VINA RESULT:     -11.7      1.072      1.339
  Name = 
  1 active torsions:
  status: ('A' for Active; 'I' for Inactive)
    1  A    between atoms: C_6  and  C_23
                            x       y       z     vdW  Elec       q    Type
                         _______ _______ _______ _____ _____    ______ ____

>  <TORSDO>
F 1

$$$$
=
 OpenBabel10272400503D

 25 29  0  0  0  0  0  0  0  0999 V2000
  186.8400  177.9350  144.9910 C   0  0  0  0  0  0  0  0  0  0  0  0
  188.0660  177.6220  144.3970 C   0  0  0  0  0  0  0  0  0  0  0  0
  187.6970  177.6150  147.1880 C   0  0  0  0  0  3  0  0  0  0  0  0
  185.6260  178.2900  144.4410 C   0  0  0  0  0  0  0  0  0  0  0  0
  182.9910  179.0280  144.0550 C   0  0  0  0  0  3  0  0  0  0  0  0
  188.9520  177.2920  146.6540 C   0  0  0  0  0  3  0  0  0  0  0  0
  184.7960  178.4760  145.5240 C   0  0  0  0  0  0  0  0  0  0  0  0
  183.4640  178.8470  145.3680 C   0  0  0  0  0  3  0  0  0  0  0  0
  190.3980  176.9710  144.6930 C   0  0  0  0  0  0  0  0  0  0  0  0
  191.5740  176.6160  145.5400 C   0  0  0  0  0  1  0  0  0  0  0  0
  188.2460  177.6270  143.0100 C   0  0  0  0  0  3  0  0  0  0  0  0
  183.8460  178.8360  142.9450 C   0  0  0  0  0  3  0  0  0  0  0  0
  186.6920  177.9240  146.3330 N   0  0  0  0  0  0  0  0  0  0  0  0
  185.4530  178.2510  146.6830 N   0  0  0  0  0  0  0  0  0  0  0  0
  190.5570  176.9820  143.3030 C   0  0  0  0  0  3  0  0  0  0  0  0
  185.1900  178.4600  143.1300 C   0  0  0  0  0  3  0  0  0  0  0  0
  189.4890  177.3070  142.4520 C   0  0  0  0  0  0  0  0  0  0  0  0
  189.1480  177.2920  145.2550 C   0  0  0  0  0  0  0  0  0  0  0  0
  189.1440  178.1880  138.7690 C   0  0  0  0  0  0  0  0  0  0  0  0
  189.6570  177.3180  140.9810 C   0  0  0  0  0  0  0  0  0  0  0  0
  188.9740  178.1830  140.2240 C   0  0  0  0  0  3  0  0  0  0  0  0
  188.4930  179.0080  138.0700 O   0  0  0  0  0  0  0  0  0  0  0  0
  190.5650  176.3870  140.3660 N   0  0  0  0  0  0  0  0  0  0  0  0
  190.0840  177.2280  138.1010 C   0  0  0  0  0  2  0  0  0  0  0  0
  190.7760  176.3240  139.0840 C   0  0  0  0  0  3  0  0  0  0  0  0
  1 13  1  0  0  0  0
  2  1  1  0  0  0  0
  2 18  1  0  0  0  0
  4  1  2  0  0  0  0
  4  7  1  0  0  0  0
  5  8  2  0  0  0  0
  6  3  2  0  0  0  0
  7 14  2  0  0  0  0
  8  7  1  0  0  0  0
  9 18  2  0  0  0  0
  9 10  1  0  0  0  0
 11  2  2  0  0  0  0
 12 16  2  0  0  0  0
 12  5  1  0  0  0  0
 13 14  1  0  0  0  0
 13  3  1  0  0  0  0
 15  9  1  0  0  0  0
 16  4  1  0  0  0  0
 17 11  1  0  0  0  0
 17 15  2  0  0  0  0
 18  6  1  0  0  0  0
 19 21  1  0  0  0  0
 20 17  1  0  0  0  0
 21 20  2  0  0  0  0
 22 19  2  0  0  0  0
 23 20  1  0  0  0  0
 24 19  1  0  0  0  0
 24 25  1  0  0  0  0
 25 23  2  0  0  0  0
M  END
>  <MODEL>
3

>  <REMARK>
 VINA RESULT:     -11.6      1.113      1.316
  Name = 
  1 active torsions:
  status: ('A' for Active; 'I' for Inactive)
    1  A    between atoms: C_6  and  C_23
                            x       y       z     vdW  Elec       q    Type
                         _______ _______ _______ _____ _____    ______ ____

>  <TORSDO>
F 1

$$$$
=
 OpenBabel10272400503D

 25 29  0  0  0  0  0  0  0  0999 V2000
  187.7730  177.7180  145.6000 C   0  0  0  0  0  0  0  0  0  0  0  0
  186.9500  178.0450  144.5170 C   0  0  0  0  0  0  0  0  0  0  0  0
  186.0310  178.0910  147.1780 C   0  0  0  0  0  3  0  0  0  0  0  0
  189.0960  177.3320  145.6540 C   0  0  0  0  0  0  0  0  0  0  0  0
  191.6070  176.5380  146.4930 C   0  0  0  0  0  3  0  0  0  0  0  0
  185.1560  178.4290  146.1370 C   0  0  0  0  0  3  0  0  0  0  0  0
  189.3480  177.1480  146.9950 C   0  0  0  0  0  0  0  0  0  0  0  0
  190.6010  176.7500  147.4540 C   0  0  0  0  0  3  0  0  0  0  0  0
  184.7500  178.7440  143.7340 C   0  0  0  0  0  0  0  0  0  0  0  0
  183.3280  179.1360  143.9630 C   0  0  0  0  0  1  0  0  0  0  0  0
  187.4110  178.0200  143.1970 C   0  0  0  0  0  3  0  0  0  0  0  0
  191.3440  176.7280  145.1170 C   0  0  0  0  0  3  0  0  0  0  0  0
  187.3060  177.7490  146.8660 N   0  0  0  0  0  0  0  0  0  0  0  0
  188.2490  177.4050  147.7360 N   0  0  0  0  0  0  0  0  0  0  0  0
  185.2290  178.7140  142.4200 C   0  0  0  0  0  3  0  0  0  0  0  0
  190.0680  177.1320  144.6780 C   0  0  0  0  0  3  0  0  0  0  0  0
  186.5560  178.3540  142.1390 C   0  0  0  0  0  0  0  0  0  0  0  0
  185.6080  178.4100  144.7980 C   0  0  0  0  0  0  0  0  0  0  0  0
  188.8690  178.1610  139.1260 C   0  0  0  0  0  0  0  0  0  0  0  0
  187.0650  178.3220  140.7490 C   0  0  0  0  0  0  0  0  0  0  0  0
  188.3730  178.1910  140.5050 C   0  0  0  0  0  3  0  0  0  0  0  0
  190.1030  178.0380  138.9130 O   0  0  0  0  0  0  0  0  0  0  0  0
  186.1370  178.4320  139.6540 N   0  0  0  0  0  0  0  0  0  0  0  0
  187.9250  178.2740  137.9670 C   0  0  0  0  0  2  0  0  0  0  0  0
  186.4910  178.4130  138.4030 C   0  0  0  0  0  3  0  0  0  0  0  0
  1  4  2  0  0  0  0
  1 13  1  0  0  0  0
  2 18  1  0  0  0  0
  2  1  1  0  0  0  0
  4  7  1  0  0  0  0
  5  8  2  0  0  0  0
  6  3  2  0  0  0  0
  7  8  1  0  0  0  0
  7 14  2  0  0  0  0
  9 10  1  0  0  0  0
  9 18  2  0  0  0  0
 11  2  2  0  0  0  0
 12  5  1  0  0  0  0
 13  3  1  0  0  0  0
 13 14  1  0  0  0  0
 15  9  1  0  0  0  0
 16 12  2  0  0  0  0
 16  4  1  0  0  0  0
 17 15  2  0  0  0  0
 17 11  1  0  0  0  0
 18  6  1  0  0  0  0
 19 21  1  0  0  0  0
 20 17  1  0  0  0  0
 21 20  2  0  0  0  0
 22 19  2  0  0  0  0
 23 20  1  0  0  0  0
 24 25  1  0  0  0  0
 24 19  1  0  0  0  0
 25 23  2  0  0  0  0
M  END
>  <MODEL>
4

>  <REMARK>
 VINA RESULT:     -11.1      2.006      4.913
  Name = 
  1 active torsions:
  status: ('A' for Active; 'I' for Inactive)
    1  A    between atoms: C_6  and  C_23
                            x       y       z     vdW  Elec       q    Type
                         _______ _______ _______ _____ _____    ______ ____

>  <TORSDO>
F 1

$$$$
=
 OpenBabel10272400503D

 25 29  0  0  0  0  0  0  0  0999 V2000
  185.6060  178.3380  144.7760 C   0  0  0  0  0  0  0  0  0  0  0  0
  186.9650  178.0390  144.6310 C   0  0  0  0  0  0  0  0  0  0  0  0
  185.7460  178.3380  147.1510 C   0  0  0  0  0  3  0  0  0  0  0  0
  184.6150  178.5430  143.8400 C   0  0  0  0  0  0  0  0  0  0  0  0
  182.2120  179.0530  142.5730 C   0  0  0  0  0  3  0  0  0  0  0  0
  187.1120  178.0380  147.0740 C   0  0  0  0  0  3  0  0  0  0  0  0
  183.4840  178.8000  144.5830 C   0  0  0  0  0  0  0  0  0  0  0  0
  182.2570  179.0600  143.9790 C   0  0  0  0  0  3  0  0  0  0  0  0
  189.1040  177.5850  145.7090 C   0  0  0  0  0  0  0  0  0  0  0  0
  189.9670  177.4110  146.9140 C   0  0  0  0  0  1  0  0  0  0  0  0
  187.5660  177.8910  143.3780 C   0  0  0  0  0  3  0  0  0  0  0  0
  183.3750  178.7880  141.8130 C   0  0  0  0  0  3  0  0  0  0  0  0
  185.0480  178.4750  145.9970 N   0  0  0  0  0  0  0  0  0  0  0  0
  183.7530  178.7580  145.9060 N   0  0  0  0  0  0  0  0  0  0  0  0
  189.6880  177.4410  144.4460 C   0  0  0  0  0  3  0  0  0  0  0  0
  184.6040  178.5270  142.4480 C   0  0  0  0  0  3  0  0  0  0  0  0
  188.9300  177.5920  143.2730 C   0  0  0  0  0  0  0  0  0  0  0  0
  187.7330  177.8850  145.8140 C   0  0  0  0  0  0  0  0  0  0  0  0
  191.4800  177.2880  140.4690 C   0  0  0  0  0  0  0  0  0  0  0  0
  189.5470  177.4400  141.9370 C   0  0  0  0  0  0  0  0  0  0  0  0
  190.8760  177.4390  141.7950 C   0  0  0  0  0  3  0  0  0  0  0  0
  192.7330  177.2890  140.3520 O   0  0  0  0  0  0  0  0  0  0  0  0
  188.7020  177.2920  140.7810 N   0  0  0  0  0  0  0  0  0  0  0  0
  190.6230  177.1320  139.2470 C   0  0  0  0  0  2  0  0  0  0  0  0
  189.1530  177.1530  139.5690 C   0  0  0  0  0  3  0  0  0  0  0  0
  1 13  1  0  0  0  0
  2  1  1  0  0  0  0
  2 18  1  0  0  0  0
  4  7  1  0  0  0  0
  4  1  2  0  0  0  0
  5  8  2  0  0  0  0
  6  3  2  0  0  0  0
  7 14  2  0  0  0  0
  8  7  1  0  0  0  0
  9 18  2  0  0  0  0
  9 10  1  0  0  0  0
 11  2  2  0  0  0  0
 12 16  2  0  0  0  0
 12  5  1  0  0  0  0
 13  3  1  0  0  0  0
 14 13  1  0  0  0  0
 15  9  1  0  0  0  0
 16  4  1  0  0  0  0
 17 11  1  0  0  0  0
 17 15  2  0  0  0  0
 18  6  1  0  0  0  0
 19 21  1  0  0  0  0
 20 17  1  0  0  0  0
 21 20  2  0  0  0  0
 22 19  2  0  0  0  0
 23 20  1  0  0  0  0
 24 25  1  0  0  0  0
 24 19  1  0  0  0  0
 25 23  2  0  0  0  0
M  END
>  <MODEL>
5

>  <REMARK>
 VINA RESULT:     -11.0      1.455      1.927
  Name = 
  1 active torsions:
  status: ('A' for Active; 'I' for Inactive)
    1  A    between atoms: C_6  and  C_23
                            x       y       z     vdW  Elec       q    Type
                         _______ _______ _______ _____ _____    ______ ____

>  <TORSDO>
F 1

$$$$
=
 OpenBabel10272400503D

 25 29  0  0  0  0  0  0  0  0999 V2000
  189.7410  177.4650  143.4830 C   0  0  0  0  0  0  0  0  0  0  0  0
  188.6460  177.6350  144.3370 C   0  0  0  0  0  0  0  0  0  0  0  0
  191.2310  177.0620  145.2940 C   0  0  0  0  0  3  0  0  0  0  0  0
  189.8400  177.5250  142.1090 C   0  0  0  0  0  0  0  0  0  0  0  0
  190.7550  177.4930  139.5020 C   0  0  0  0  0  3  0  0  0  0  0  0
  190.1750  177.2210  146.2020 C   0  0  0  0  0  3  0  0  0  0  0  0
  191.1690  177.2740  141.8480 C   0  0  0  0  0  0  0  0  0  0  0  0
  191.6650  177.2510  140.5480 C   0  0  0  0  0  3  0  0  0  0  0  0
  187.7970  177.6720  146.6230 C   0  0  0  0  0  0  0  0  0  0  0  0
  187.9720  177.5520  148.1000 C   0  0  0  0  0  1  0  0  0  0  0  0
  187.3630  177.9190  143.8580 C   0  0  0  0  0  3  0  0  0  0  0  0
  189.3920  177.7500  139.7740 C   0  0  0  0  0  3  0  0  0  0  0  0
  190.9690  177.1920  143.9700 N   0  0  0  0  0  0  0  0  0  0  0  0
  191.8580  177.0700  142.9910 N   0  0  0  0  0  0  0  0  0  0  0  0
  186.5210  177.9560  146.1240 C   0  0  0  0  0  3  0  0  0  0  0  0
  188.9150  177.7690  141.0980 C   0  0  0  0  0  3  0  0  0  0  0  0
  186.2920  178.0820  144.7450 C   0  0  0  0  0  0  0  0  0  0  0  0
  188.8740  177.5090  145.7320 C   0  0  0  0  0  0  0  0  0  0  0  0
  183.3600  178.6300  142.3850 C   0  0  0  0  0  0  0  0  0  0  0  0
  184.9430  178.3820  144.2160 C   0  0  0  0  0  0  0  0  0  0  0  0
  184.6980  178.3310  142.9020 C   0  0  0  0  0  3  0  0  0  0  0  0
  183.1470  178.5770  141.1460 O   0  0  0  0  0  0  0  0  0  0  0  0
  183.8870  178.7330  145.1290 N   0  0  0  0  0  0  0  0  0  0  0  0
  182.2420  178.9980  143.3140 C   0  0  0  0  0  2  0  0  0  0  0  0
  182.6720  179.0120  144.7560 C   0  0  0  0  0  3  0  0  0  0  0  0
  1 13  1  0  0  0  0
  1  2  1  0  0  0  0
  2 18  1  0  0  0  0
  3  6  2  0  0  0  0
  4  1  2  0  0  0  0
  5 12  1  0  0  0  0
  5  8  2  0  0  0  0
  7  4  1  0  0  0  0
  7 14  2  0  0  0  0
  8  7  1  0  0  0  0
  9 10  1  0  0  0  0
 11  2  2  0  0  0  0
 11 17  1  0  0  0  0
 12 16  2  0  0  0  0
 13  3  1  0  0  0  0
 14 13  1  0  0  0  0
 15  9  1  0  0  0  0
 16  4  1  0  0  0  0
 17 15  2  0  0  0  0
 18  6  1  0  0  0  0
 18  9  2  0  0  0  0
 19 21  1  0  0  0  0
 19 24  1  0  0  0  0
 20 17  1  0  0  0  0
 20 23  1  0  0  0  0
 21 20  2  0  0  0  0
 22 19  2  0  0  0  0
 24 25  1  0  0  0  0
 25 23  2  0  0  0  0
M  END
>  <MODEL>
6

>  <REMARK>
 VINA RESULT:     -10.9      1.770      6.152
  Name = 
  1 active torsions:
  status: ('A' for Active; 'I' for Inactive)
    1  A    between atoms: C_6  and  C_23
                            x       y       z     vdW  Elec       q    Type
                         _______ _______ _______ _____ _____    ______ ____

>  <TORSDO>
F 1

$$$$
=
 OpenBabel10272400503D

 25 29  0  0  0  0  0  0  0  0999 V2000
  185.8790  178.3970  144.8880 C   0  0  0  0  0  0  0  0  0  0  0  0
  185.6980  178.4640  143.5030 C   0  0  0  0  0  0  0  0  0  0  0  0
  183.5790  178.8280  145.3210 C   0  0  0  0  0  3  0  0  0  0  0  0
  187.0050  178.1620  145.6490 C   0  0  0  0  0  0  0  0  0  0  0  0
  188.7780  177.7720  147.7330 C   0  0  0  0  0  3  0  0  0  0  0  0
  183.3320  178.9080  143.9430 C   0  0  0  0  0  3  0  0  0  0  0  0
  186.5610  178.2160  146.9510 C   0  0  0  0  0  0  0  0  0  0  0  0
  187.4250  178.0260  148.0260 C   0  0  0  0  0  3  0  0  0  0  0  0
  184.1680  178.8020  141.6350 C   0  0  0  0  0  0  0  0  0  0  0  0
  182.8150  179.0750  141.0670 C   0  0  0  0  0  1  0  0  0  0  0  0
  186.7530  178.2830  142.6040 C   0  0  0  0  0  3  0  0  0  0  0  0
  189.2300  177.7180  146.3940 C   0  0  0  0  0  3  0  0  0  0  0  0
  184.8440  178.5760  145.7370 N   0  0  0  0  0  0  0  0  0  0  0  0
  185.2350  178.4700  147.0020 N   0  0  0  0  0  0  0  0  0  0  0  0
  185.2360  178.6170  140.7510 C   0  0  0  0  0  3  0  0  0  0  0  0
  188.3360  177.9140  145.3250 C   0  0  0  0  0  3  0  0  0  0  0  0
  186.5330  178.3570  141.2230 C   0  0  0  0  0  0  0  0  0  0  0  0
  184.3890  178.7270  143.0230 C   0  0  0  0  0  0  0  0  0  0  0  0
  189.9710  177.5620  139.8070 C   0  0  0  0  0  0  0  0  0  0  0  0
  187.6640  178.1620  140.2890 C   0  0  0  0  0  0  0  0  0  0  0  0
  188.8550  177.7530  140.7370 C   0  0  0  0  0  3  0  0  0  0  0  0
  191.0860  177.1760  140.2450 O   0  0  0  0  0  0  0  0  0  0  0  0
  187.4750  178.4180  138.8850 N   0  0  0  0  0  0  0  0  0  0  0  0
  189.8010  177.8210  138.3390 C   0  0  0  0  0  2  0  0  0  0  0  0
  188.4090  178.2740  137.9920 C   0  0  0  0  0  3  0  0  0  0  0  0
  1  4  2  0  0  0  0
  1 13  1  0  0  0  0
  2  1  1  0  0  0  0
  3 13  1  0  0  0  0
  4  7  1  0  0  0  0
  5  8  2  0  0  0  0
  6  3  2  0  0  0  0
  7 14  2  0  0  0  0
  7  8  1  0  0  0  0
  9 18  2  0  0  0  0
 10  9  1  0  0  0  0
 11  2  2  0  0  0  0
 12  5  1  0  0  0  0
 13 14  1  0  0  0  0
 15 17  2  0  0  0  0
 15  9  1  0  0  0  0
 16  4  1  0  0  0  0
 16 12  2  0  0  0  0
 17 11  1  0  0  0  0
 18  2  1  0  0  0  0
 18  6  1  0  0  0  0
 19 22  2  0  0  0  0
 19 21  1  0  0  0  0
 20 21  2  0  0  0  0
 20 17  1  0  0  0  0
 23 20  1  0  0  0  0
 24 19  1  0  0  0  0
 25 24  1  0  0  0  0
 25 23  2  0  0  0  0
M  END
>  <MODEL>
7

>  <REMARK>
 VINA RESULT:     -10.7      1.776      4.782
  Name = 
  1 active torsions:
  status: ('A' for Active; 'I' for Inactive)
    1  A    between atoms: C_6  and  C_23
                            x       y       z     vdW  Elec       q    Type
                         _______ _______ _______ _____ _____    ______ ____

>  <TORSDO>
F 1

$$$$
=
 OpenBabel10272400503D

 25 29  0  0  0  0  0  0  0  0999 V2000
  189.8480  177.3120  143.4440 C   0  0  0  0  0  0  0  0  0  0  0  0
  188.7890  177.6750  142.6050 C   0  0  0  0  0  0  0  0  0  0  0  0
  191.3870  177.1880  141.6340 C   0  0  0  0  0  3  0  0  0  0  0  0
  189.9020  177.1170  144.8080 C   0  0  0  0  0  0  0  0  0  0  0  0
  190.7250  176.5780  147.3910 C   0  0  0  0  0  3  0  0  0  0  0  0
  190.3690  177.5490  140.7400 C   0  0  0  0  0  3  0  0  0  0  0  0
  191.2120  176.7730  145.0570 C   0  0  0  0  0  0  0  0  0  0  0  0
  191.6620  176.4940  146.3450 C   0  0  0  0  0  3  0  0  0  0  0  0
  188.0220  178.1590  140.3420 C   0  0  0  0  0  0  0  0  0  0  0  0
  188.2440  178.3020  138.8730 C   0  0  0  0  0  1  0  0  0  0  0  0
  187.5010  177.9160  143.0920 C   0  0  0  0  0  3  0  0  0  0  0  0
  189.3810  176.9310  147.1320 C   0  0  0  0  0  3  0  0  0  0  0  0
  191.0830  177.0840  142.9510 N   0  0  0  0  0  0  0  0  0  0  0  0
  191.9340  176.7540  143.9160 N   0  0  0  0  0  0  0  0  0  0  0  0
  186.7390  178.3960  140.8480 C   0  0  0  0  0  3  0  0  0  0  0  0
  188.9510  177.2080  145.8200 C   0  0  0  0  0  3  0  0  0  0  0  0
  186.4670  178.2780  142.2210 C   0  0  0  0  0  0  0  0  0  0  0  0
  189.0620  177.7950  141.2180 C   0  0  0  0  0  0  0  0  0  0  0  0
  183.5720  178.9490  144.5940 C   0  0  0  0  0  0  0  0  0  0  0  0
  185.1110  178.5280  142.7570 C   0  0  0  0  0  0  0  0  0  0  0  0
  184.9180  178.7020  144.0690 C   0  0  0  0  0  3  0  0  0  0  0  0
  183.4070  179.1100  145.8310 O   0  0  0  0  0  0  0  0  0  0  0  0
  183.9920  178.5840  141.8540 N   0  0  0  0  0  0  0  0  0  0  0  0
  182.3880  179.0120  143.6740 C   0  0  0  0  0  2  0  0  0  0  0  0
  182.7660  178.7990  142.2340 C   0  0  0  0  0  3  0  0  0  0  0  0
  1  4  2  0  0  0  0
  2 11  1  0  0  0  0
  2  1  1  0  0  0  0
  3 13  1  0  0  0  0
  4  7  1  0  0  0  0
  4 16  1  0  0  0  0
  6 18  1  0  0  0  0
  6  3  2  0  0  0  0
  7  8  1  0  0  0  0
  8  5  2  0  0  0  0
  9 15  2  0  0  0  0
  9 18  1  0  0  0  0
 10  9  1  0  0  0  0
 12  5  1  0  0  0  0
 13  1  1  0  0  0  0
 13 14  1  0  0  0  0
 14  7  2  0  0  0  0
 15 17  1  0  0  0  0
 16 12  2  0  0  0  0
 17 20  1  0  0  0  0
 17 11  2  0  0  0  0
 18  2  2  0  0  0  0
 19 22  2  0  0  0  0
 20 21  2  0  0  0  0
 21 19  1  0  0  0  0
 23 25  2  0  0  0  0
 23 20  1  0  0  0  0
 24 19  1  0  0  0  0
 25 24  1  0  0  0  0
M  END
>  <MODEL>
8

>  <REMARK>
 VINA RESULT:     -10.5      2.684      6.829
  Name = 
  1 active torsions:
  status: ('A' for Active; 'I' for Inactive)
    1  A    between atoms: C_6  and  C_23
                            x       y       z     vdW  Elec       q    Type
                         _______ _______ _______ _____ _____    ______ ____

>  <TORSDO>
F 1

$$$$
=
 OpenBabel10272400503D

 25 29  0  0  0  0  0  0  0  0999 V2000
  186.6330  178.3490  140.9430 C   0  0  0  0  0  0  0  0  0  0  0  0
  186.4140  178.2930  142.3230 C   0  0  0  0  0  0  0  0  0  0  0  0
  184.3730  178.9440  140.4960 C   0  0  0  0  0  3  0  0  0  0  0  0
  187.7690  178.1280  140.1920 C   0  0  0  0  0  0  0  0  0  0  0  0
  189.5820  177.8450  138.1260 C   0  0  0  0  0  3  0  0  0  0  0  0
  184.0880  178.9050  141.8680 C   0  0  0  0  0  3  0  0  0  0  0  0
  187.3680  178.3320  138.8900 C   0  0  0  0  0  0  0  0  0  0  0  0
  188.2530  178.1970  137.8250 C   0  0  0  0  0  3  0  0  0  0  0  0
  184.8470  178.5320  144.1750 C   0  0  0  0  0  0  0  0  0  0  0  0
  183.4930  178.8230  144.7330 C   0  0  0  0  0  1  0  0  0  0  0  0
  187.4300  177.9690  143.2270 C   0  0  0  0  0  3  0  0  0  0  0  0
  189.9900  177.6370  139.4640 C   0  0  0  0  0  3  0  0  0  0  0  0
  185.6360  178.6630  140.0900 N   0  0  0  0  0  0  0  0  0  0  0  0
  186.0600  178.6600  138.8310 N   0  0  0  0  0  0  0  0  0  0  0  0
  185.8770  178.2070  145.0640 C   0  0  0  0  0  3  0  0  0  0  0  0
  189.0750  177.7790  140.5240 C   0  0  0  0  0  3  0  0  0  0  0  0
  187.1720  177.9240  144.6020 C   0  0  0  0  0  0  0  0  0  0  0  0
  185.1060  178.5780  142.7930 C   0  0  0  0  0  0  0  0  0  0  0  0
  190.5780  177.0170  146.0290 C   0  0  0  0  0  0  0  0  0  0  0  0
  188.2620  177.5790  145.5410 C   0  0  0  0  0  0  0  0  0  0  0  0
  189.5030  177.3580  145.0940 C   0  0  0  0  0  3  0  0  0  0  0  0
  191.7410  176.8120  145.5920 O   0  0  0  0  0  0  0  0  0  0  0  0
  187.9800  177.4810  146.9490 N   0  0  0  0  0  0  0  0  0  0  0  0
  190.3110  176.9080  147.5010 C   0  0  0  0  0  2  0  0  0  0  0  0
  188.8730  177.1840  147.8470 C   0  0  0  0  0  3  0  0  0  0  0  0
  1  2  1  0  0  0  0
  2 18  2  0  0  0  0
  2 11  1  0  0  0  0
  3  6  2  0  0  0  0
  4 16  1  0  0  0  0
  4  1  2  0  0  0  0
  5 12  1  0  0  0  0
  6 18  1  0  0  0  0
  7  4  1  0  0  0  0
  8  5  2  0  0  0  0
  8  7  1  0  0  0  0
  9 10  1  0  0  0  0
  9 15  2  0  0  0  0
 11 17  2  0  0  0  0
 12 16  2  0  0  0  0
 13  3  1  0  0  0  0
 13  1  1  0  0  0  0
 14  7  2  0  0  0  0
 14 13  1  0  0  0  0
 17 15  1  0  0  0  0
 17 20  1  0  0  0  0
 18  9  1  0  0  0  0
 19 24  1  0  0  0  0
 20 23  1  0  0  0  0
 21 20  2  0  0  0  0
 21 19  1  0  0  0  0
 22 19  2  0  0  0  0
 23 25  2  0  0  0  0
 24 25  1  0  0  0  0
M  END
>  <MODEL>
9

>  <REMARK>
 VINA RESULT:     -10.4      2.803      6.455
  Name = 
  1 active torsions:
  status: ('A' for Active; 'I' for Inactive)
    1  A    between atoms: C_6  and  C_23
                            x       y       z     vdW  Elec       q    Type
                         _______ _______ _______ _____ _____    ______ ____

>  <TORSDO>
F 1

$$$$
