=
 OpenBabel10272414373D

 43 48  0  0  1  0  0  0  0  0999 V2000
  192.0990  177.3460  141.4760 C   0  0  0  0  0  2  0  0  0  0  0  0
  190.8100  177.6020  142.2750 C   0  0  1  0  0  3  0  0  0  0  0  0
  191.8890  177.3880  139.9630 C   0  0  0  0  0  2  0  0  0  0  0  0
  189.5620  177.7480  141.3960 C   0  0  0  0  0  2  0  0  0  0  0  0
  189.4650  176.6250  140.3610 C   0  0  0  0  0  2  0  0  0  0  0  0
  190.7680  176.4270  139.5600 C   0  0  1  0  0  3  0  0  0  0  0  0
  191.8640  175.5410  143.6290 O   0  0  0  0  0  0  0  0  0  0  0  0
  190.5860  176.3230  143.5030 S   0  0  0  0  0  0  0  0  0  0  0  0
  189.4880  175.3880  143.0800 O   0  0  0  0  0  0  0  0  0  0  0  0
  190.1740  177.0470  145.0340 N   0  0  0  0  0  0  0  0  0  0  0  0
  188.8540  177.5840  145.2410 C   0  0  0  0  0  0  0  0  0  0  0  0
  188.6500  178.4220  146.1610 O   0  0  0  0  0  0  0  0  0  0  0  0
  190.9300  176.6010  147.3210 C   0  0  0  0  0  2  0  0  0  0  0  0
  191.2310  177.3120  146.0100 C   0  0  0  0  0  3  0  0  0  0  0  0
  191.9450  176.0190  146.3720 C   0  0  0  0  0  2  0  0  0  0  0  0
  187.6950  177.1390  144.4040 C   0  0  0  0  0  2  0  0  0  0  0  0
  186.4290  177.7700  144.8770 C   0  0  0  0  0  0  0  0  0  0  0  0
  184.4310  179.0410  144.4300 C   0  0  0  0  0  3  0  0  0  0  0  0
  184.9000  178.3400  146.6510 C   0  0  0  0  0  3  0  0  0  0  0  0
  184.1070  178.9810  145.7500 N   0  0  0  0  0  0  0  0  0  0  0  0
  186.0790  177.7220  146.2290 C   0  0  0  0  0  3  0  0  0  0  0  0
  185.6030  178.4370  143.9680 C   0  0  0  0  0  3  0  0  0  0  0  0
  190.5460  176.4290  138.0430 C   0  0  2  0  0  3  0  0  0  0  0  0
  184.3330  176.3070  136.0060 C   0  0  1  0  0  3  0  0  0  0  0  0
  189.1230  176.7080  137.6510 C   0  0  0  0  0  0  0  0  0  0  0  0
  186.5100  177.2280  136.8600 C   0  0  0  0  0  0  0  0  0  0  0  0
  184.5490  175.1480  136.9740 C   0  0  0  0  0  2  0  0  0  0  0  0
  182.9710  176.5970  135.9230 O   0  0  0  0  0  1  0  0  0  0  0  0
  186.9350  175.9150  137.1550 C   0  0  0  0  0  0  0  0  0  0  0  0
  185.0800  177.5370  136.5110 C   0  0  0  0  0  2  0  0  0  0  0  0
  186.0190  174.7370  136.9650 C   0  0  0  0  0  2  0  0  0  0  0  0
  188.2250  175.6910  137.5190 N   0  0  0  0  0  0  0  0  0  0  0  0
  188.7330  178.0220  137.3800 C   0  0  0  0  0  3  0  0  0  0  0  0
  187.4200  178.2800  136.9890 C   0  0  0  0  0  3  0  0  0  0  0  0
  191.0650  175.1380  137.4130 C   0  0  0  0  0  2  0  0  0  0  0  0
  194.7520  174.7530  137.2920 C   0  0  0  0  0  3  0  0  0  0  0  0
  195.1090  175.7080  136.2290 C   0  0  0  0  0  0  0  0  0  0  0  0
  192.6890  175.9930  135.7060 C   0  0  0  0  0  2  0  0  0  0  0  0
  193.4790  174.5710  137.6390 C   0  0  0  0  0  3  0  0  0  0  0  0
  192.4390  175.2950  136.9680 N   0  0  0  0  0  0  0  0  0  0  0  0
  194.1470  176.3130  135.5170 C   0  0  0  0  0  3  0  0  0  0  0  0
  197.4900  175.0150  136.2080 C   0  0  0  0  0  1  0  0  0  0  0  0
  196.4630  175.9760  136.0020 O   0  0  0  0  0  0  0  0  0  0  0  0
  1  2  1  0  0  0  0
  2  8  1  1  0  0  0
  3  1  1  0  0  0  0
  4  2  1  0  0  0  0
  5  4  1  0  0  0  0
  6 23  1  6  0  0  0
  6  3  1  0  0  0  0
  6  5  1  0  0  0  0
  8  7  2  0  0  0  0
  8 10  1  0  0  0  0
  9  8  2  0  0  0  0
 10 11  1  0  0  0  0
 10 14  1  0  0  0  0
 11 12  2  0  0  0  0
 14 15  1  0  0  0  0
 14 13  1  0  0  0  0
 15 13  1  0  0  0  0
 16 17  1  0  0  0  0
 16 11  1  0  0  0  0
 17 21  1  0  0  0  0
 18 20  2  0  0  0  0
 20 19  1  0  0  0  0
 21 19  2  0  0  0  0
 22 18  1  0  0  0  0
 22 17  2  0  0  0  0
 23 35  1  1  0  0  0
 24 28  1  1  0  0  0
 24 30  1  0  0  0  0
 24 27  1  0  0  0  0
 25 23  1  0  0  0  0
 26 34  2  0  0  0  0
 26 29  1  0  0  0  0
 29 32  2  0  0  0  0
 30 26  1  0  0  0  0
 31 27  1  0  0  0  0
 31 29  1  0  0  0  0
 32 25  1  0  0  0  0
 33 25  2  0  0  0  0
 34 33  1  0  0  0  0
 36 39  2  0  0  0  0
 37 36  1  0  0  0  0
 38 40  1  0  0  0  0
 40 35  1  0  0  0  0
 40 39  1  0  0  0  0
 41 38  1  0  0  0  0
 41 37  2  0  0  0  0
 43 42  1  0  0  0  0
 43 37  1  0  0  0  0
M  END
>  <MODEL>
1

>  <REMARK>
 VINA RESULT:      -9.1      0.000      0.000
  Name = 
  10 active torsions:
  status: ('A' for Active; 'I' for Inactive)
    1  A    between atoms: C_1  and  C_34
    2  A    between atoms: C_1  and  N_35
    3  A    between atoms: N_4  and  S_12
    4  A    between atoms: N_4  and  C_15
    5  A    between atoms: C_6  and  S_12
    6  A    between atoms: C_8  and  C_34
    7  A    between atoms: C_11  and  C_14
    8  A    between atoms: C_14  and  C_22
    9  A    between atoms: C_19  and  O_37
   10  A    between atoms: C_34  and  C_38
                            x       y       z     vdW  Elec       q    Type
                         _______ _______ _______ _____ _____    ______ ____

>  <TORSDO>
F 10

$$$$
=
 OpenBabel10272414373D

 43 48  0  0  1  0  0  0  0  0999 V2000
  189.0930  178.3280  137.2020 C   0  0  0  0  0  2  0  0  0  0  0  0
  190.1530  177.4720  136.4900 C   0  0  1  0  0  3  0  0  0  0  0  0
  189.2780  178.3790  138.7180 C   0  0  0  0  0  2  0  0  0  0  0  0
  191.1170  176.7640  137.4500 C   0  0  0  0  0  2  0  0  0  0  0  0
  190.3690  176.0550  138.5800 C   0  0  0  0  0  2  0  0  0  0  0  0
  189.3420  176.9610  139.2890 C   0  0  1  0  0  3  0  0  0  0  0  0
  190.4210  175.5380  134.6510 O   0  0  0  0  0  0  0  0  0  0  0  0
  189.3610  176.3010  135.3950 S   0  0  0  0  0  0  0  0  0  0  0  0
  188.5000  177.0260  134.3990 O   0  0  0  0  0  0  0  0  0  0  0  0
  188.3750  175.2060  136.3250 N   0  0  0  0  0  0  0  0  0  0  0  0
  187.0250  175.5700  136.6680 C   0  0  0  0  0  0  0  0  0  0  0  0
  186.4380  174.9940  137.6240 O   0  0  0  0  0  0  0  0  0  0  0  0
  188.3820  172.7570  136.3870 C   0  0  0  0  0  2  0  0  0  0  0  0
  188.9950  174.0330  136.9440 C   0  0  0  0  0  3  0  0  0  0  0  0
  189.7310  173.2150  135.8950 C   0  0  0  0  0  2  0  0  0  0  0  0
  186.2790  176.6050  135.8850 C   0  0  0  0  0  2  0  0  0  0  0  0
  185.1620  177.1740  136.6930 C   0  0  0  0  0  0  0  0  0  0  0  0
  182.8030  177.4780  137.0800 C   0  0  0  0  0  3  0  0  0  0  0  0
  184.3700  178.5240  138.5280 C   0  0  0  0  0  3  0  0  0  0  0  0
  183.0880  178.2610  138.1560 N   0  0  0  0  0  0  0  0  0  0  0  0
  185.4330  177.9840  137.8000 C   0  0  0  0  0  3  0  0  0  0  0  0
  183.8380  176.9210  136.3260 C   0  0  0  0  0  3  0  0  0  0  0  0
  189.5060  176.9760  140.8130 C   0  0  2  0  0  3  0  0  0  0  0  0
  184.5230  178.4320  144.7920 C   0  0  1  0  0  3  0  0  0  0  0  0
  188.3210  177.5570  141.5320 C   0  0  0  0  0  0  0  0  0  0  0  0
  186.0900  178.5840  142.8320 C   0  0  0  0  0  0  0  0  0  0  0  0
  185.7600  178.1610  145.6420 C   0  0  0  0  0  2  0  0  0  0  0  0
  183.6060  179.1800  145.5290 O   0  0  0  0  0  1  0  0  0  0  0  0
  186.9790  177.7100  143.4920 C   0  0  0  0  0  0  0  0  0  0  0  0
  184.9240  179.2130  143.5450 C   0  0  0  0  0  2  0  0  0  0  0  0
  186.7070  177.2290  144.8910 C   0  0  0  0  0  2  0  0  0  0  0  0
  188.0500  177.2080  142.8220 N   0  0  0  0  0  0  0  0  0  0  0  0
  187.4690  178.4300  140.8520 C   0  0  0  0  0  3  0  0  0  0  0  0
  186.3530  178.9480  141.5090 C   0  0  0  0  0  3  0  0  0  0  0  0
  190.8070  177.6640  141.2170 C   0  0  0  0  0  2  0  0  0  0  0  0
  191.5760  175.9310  144.4060 C   0  0  0  0  0  3  0  0  0  0  0  0
  191.4510  177.0340  145.3730 C   0  0  0  0  0  0  0  0  0  0  0  0
  191.2670  178.6430  143.4790 C   0  0  0  0  0  2  0  0  0  0  0  0
  191.3910  176.1480  143.1050 C   0  0  0  0  0  3  0  0  0  0  0  0
  191.0800  177.4650  142.6310 N   0  0  0  0  0  0  0  0  0  0  0  0
  191.2690  178.2920  144.9410 C   0  0  0  0  0  3  0  0  0  0  0  0
  192.2930  175.6750  147.2680 C   0  0  0  0  0  1  0  0  0  0  0  0
  191.5060  176.7330  146.7380 O   0  0  0  0  0  0  0  0  0  0  0  0
  1  3  1  0  0  0  0
  2  8  1  1  0  0  0
  2  1  1  0  0  0  0
  2  4  1  0  0  0  0
  3  6  1  0  0  0  0
  4  5  1  0  0  0  0
  5  6  1  0  0  0  0
  6 23  1  1  0  0  0
  7  8  2  0  0  0  0
  8 10  1  0  0  0  0
  9  8  2  0  0  0  0
 10 11  1  0  0  0  0
 10 14  1  0  0  0  0
 11 12  2  0  0  0  0
 13 14  1  0  0  0  0
 15 13  1  0  0  0  0
 15 14  1  0  0  0  0
 16 11  1  0  0  0  0
 16 17  1  0  0  0  0
 17 21  1  0  0  0  0
 18 20  2  0  0  0  0
 20 19  1  0  0  0  0
 21 19  2  0  0  0  0
 22 17  2  0  0  0  0
 22 18  1  0  0  0  0
 23 35  1  6  0  0  0
 23 25  1  0  0  0  0
 24 28  1  1  0  0  0
 24 27  1  0  0  0  0
 25 32  1  0  0  0  0
 26 29  1  0  0  0  0
 26 30  1  0  0  0  0
 29 31  1  0  0  0  0
 30 24  1  0  0  0  0
 31 27  1  0  0  0  0
 32 29  2  0  0  0  0
 33 34  1  0  0  0  0
 33 25  2  0  0  0  0
 34 26  2  0  0  0  0
 35 40  1  0  0  0  0
 36 37  1  0  0  0  0
 37 43  1  0  0  0  0
 38 41  1  0  0  0  0
 39 36  2  0  0  0  0
 40 39  1  0  0  0  0
 40 38  1  0  0  0  0
 41 37  2  0  0  0  0
 43 42  1  0  0  0  0
M  END
>  <MODEL>
2

>  <REMARK>
 VINA RESULT:      -8.8      2.930      7.899
  Name = 
  10 active torsions:
  status: ('A' for Active; 'I' for Inactive)
    1  A    between atoms: C_1  and  C_34
    2  A    between atoms: C_1  and  N_35
    3  A    between atoms: N_4  and  S_12
    4  A    between atoms: N_4  and  C_15
    5  A    between atoms: C_6  and  S_12
    6  A    between atoms: C_8  and  C_34
    7  A    between atoms: C_11  and  C_14
    8  A    between atoms: C_14  and  C_22
    9  A    between atoms: C_19  and  O_37
   10  A    between atoms: C_34  and  C_38
                            x       y       z     vdW  Elec       q    Type
                         _______ _______ _______ _____ _____    ______ ____

>  <TORSDO>
F 10

$$$$
=
 OpenBabel10272414373D

 43 48  0  0  1  0  0  0  0  0999 V2000
  191.5740  177.3830  141.5240 C   0  0  0  0  0  2  0  0  0  0  0  0
  190.1230  177.5820  141.9920 C   0  0  1  0  0  3  0  0  0  0  0  0
  191.7160  177.3400  140.0030 C   0  0  0  0  0  2  0  0  0  0  0  0
  189.1040  177.5960  140.8460 C   0  0  0  0  0  2  0  0  0  0  0  0
  189.3160  176.4230  139.8870 C   0  0  0  0  0  2  0  0  0  0  0  0
  190.7780  176.2820  139.4160 C   0  0  1  0  0  3  0  0  0  0  0  0
  190.7630  175.2860  143.2220 O   0  0  0  0  0  0  0  0  0  0  0  0
  189.6990  176.3480  143.2140 S   0  0  0  0  0  0  0  0  0  0  0  0
  188.3830  175.7090  142.8680 O   0  0  0  0  0  0  0  0  0  0  0  0
  189.5860  177.0950  144.7840 N   0  0  0  0  0  0  0  0  0  0  0  0
  188.2970  177.4510  145.3180 C   0  0  0  0  0  0  0  0  0  0  0  0
  188.2100  178.3050  146.2430 O   0  0  0  0  0  0  0  0  0  0  0  0
  191.0150  176.8140  146.7540 C   0  0  0  0  0  2  0  0  0  0  0  0
  190.8050  177.5610  145.4460 C   0  0  0  0  0  3  0  0  0  0  0  0
  191.8170  176.4300  145.5380 C   0  0  0  0  0  2  0  0  0  0  0  0
  187.0440  176.8010  144.8200 C   0  0  0  0  0  2  0  0  0  0  0  0
  186.0510  177.8280  144.3920 C   0  0  0  0  0  0  0  0  0  0  0  0
  185.1270  179.2630  142.6910 C   0  0  0  0  0  3  0  0  0  0  0  0
  184.2340  179.3320  144.8920 C   0  0  0  0  0  3  0  0  0  0  0  0
  184.2460  179.7620  143.6010 N   0  0  0  0  0  0  0  0  0  0  0  0
  185.1400  178.3550  145.3120 C   0  0  0  0  0  3  0  0  0  0  0  0
  186.0490  178.2860  143.0720 C   0  0  0  0  0  3  0  0  0  0  0  0
  190.9110  176.1970  137.8910 C   0  0  2  0  0  3  0  0  0  0  0  0
  197.0130  173.9510  137.1860 C   0  0  1  0  0  3  0  0  0  0  0  0
  192.2880  175.8010  137.4370 C   0  0  0  0  0  0  0  0  0  0  0  0
  194.8590  175.1210  136.6300 C   0  0  0  0  0  0  0  0  0  0  0  0
  196.1510  172.8380  137.7710 C   0  0  0  0  0  2  0  0  0  0  0  0
  198.1500  173.3990  136.5970 O   0  0  0  0  0  1  0  0  0  0  0  0
  194.2390  174.4670  137.7160 C   0  0  0  0  0  0  0  0  0  0  0  0
  196.2160  174.7100  136.1290 C   0  0  0  0  0  2  0  0  0  0  0  0
  194.9770  173.4440  138.5350 C   0  0  0  0  0  2  0  0  0  0  0  0
  192.9890  174.8370  138.0990 N   0  0  0  0  0  0  0  0  0  0  0  0
  192.8660  176.4600  136.3490 C   0  0  0  0  0  3  0  0  0  0  0  0
  194.1540  176.1120  135.9430 C   0  0  0  0  0  3  0  0  0  0  0  0
  190.4470  177.4920  137.2280 C   0  0  0  0  0  2  0  0  0  0  0  0
  186.9080  178.5070  136.7760 C   0  0  0  0  0  3  0  0  0  0  0  0
  186.2950  177.2390  136.3450 C   0  0  0  0  0  0  0  0  0  0  0  0
  188.5670  176.2370  136.1430 C   0  0  0  0  0  2  0  0  0  0  0  0
  188.2130  178.5760  137.0300 C   0  0  0  0  0  3  0  0  0  0  0  0
  189.0400  177.4140  136.8720 N   0  0  0  0  0  0  0  0  0  0  0  0
  187.0650  176.1720  136.0870 C   0  0  0  0  0  3  0  0  0  0  0  0
  184.0950  176.3460  137.0570 C   0  0  0  0  0  1  0  0  0  0  0  0
  184.9020  177.1770  136.2340 O   0  0  0  0  0  0  0  0  0  0  0  0
  1  2  1  0  0  0  0
  2  8  1  1  0  0  0
  3  1  1  0  0  0  0
  4  2  1  0  0  0  0
  5  4  1  0  0  0  0
  6 23  1  6  0  0  0
  6  5  1  0  0  0  0
  6  3  1  0  0  0  0
  8  7  2  0  0  0  0
  8 10  1  0  0  0  0
  9  8  2  0  0  0  0
 10 11  1  0  0  0  0
 10 14  1  0  0  0  0
 11 12  2  0  0  0  0
 14 15  1  0  0  0  0
 14 13  1  0  0  0  0
 15 13  1  0  0  0  0
 16 11  1  0  0  0  0
 17 16  1  0  0  0  0
 17 21  1  0  0  0  0
 18 22  1  0  0  0  0
 18 20  2  0  0  0  0
 19 21  2  0  0  0  0
 20 19  1  0  0  0  0
 22 17  2  0  0  0  0
 23 35  1  6  0  0  0
 24 28  1  6  0  0  0
 24 27  1  0  0  0  0
 25 23  1  0  0  0  0
 25 32  1  0  0  0  0
 26 29  1  0  0  0  0
 27 31  1  0  0  0  0
 29 32  2  0  0  0  0
 29 31  1  0  0  0  0
 30 26  1  0  0  0  0
 30 24  1  0  0  0  0
 33 25  2  0  0  0  0
 34 33  1  0  0  0  0
 34 26  2  0  0  0  0
 36 39  2  0  0  0  0
 37 36  1  0  0  0  0
 38 40  1  0  0  0  0
 40 39  1  0  0  0  0
 40 35  1  0  0  0  0
 41 38  1  0  0  0  0
 41 37  2  0  0  0  0
 43 37  1  0  0  0  0
 43 42  1  0  0  0  0
M  END
>  <MODEL>
3

>  <REMARK>
 VINA RESULT:      -8.7      1.236      6.166
  Name = 
  10 active torsions:
  status: ('A' for Active; 'I' for Inactive)
    1  A    between atoms: C_1  and  C_34
    2  A    between atoms: C_1  and  N_35
    3  A    between atoms: N_4  and  S_12
    4  A    between atoms: N_4  and  C_15
    5  A    between atoms: C_6  and  S_12
    6  A    between atoms: C_8  and  C_34
    7  A    between atoms: C_11  and  C_14
    8  A    between atoms: C_14  and  C_22
    9  A    between atoms: C_19  and  O_37
   10  A    between atoms: C_34  and  C_38
                            x       y       z     vdW  Elec       q    Type
                         _______ _______ _______ _____ _____    ______ ____

>  <TORSDO>
F 10

$$$$
=
 OpenBabel10272414373D

 43 48  0  0  1  0  0  0  0  0999 V2000
  189.1270  178.5480  137.4580 C   0  0  0  0  0  2  0  0  0  0  0  0
  190.0760  177.5560  136.7650 C   0  0  1  0  0  3  0  0  0  0  0  0
  189.3260  178.6160  138.9720 C   0  0  0  0  0  2  0  0  0  0  0  0
  190.9570  176.7660  137.7410 C   0  0  0  0  0  2  0  0  0  0  0  0
  190.1390  176.1770  138.8920 C   0  0  0  0  0  2  0  0  0  0  0  0
  189.2280  177.2140  139.5800 C   0  0  1  0  0  3  0  0  0  0  0  0
  189.0100  177.0920  134.3490 O   0  0  0  0  0  0  0  0  0  0  0  0
  189.1470  176.4580  135.7050 S   0  0  0  0  0  0  0  0  0  0  0  0
  187.7730  176.2320  136.2720 O   0  0  0  0  0  0  0  0  0  0  0  0
  189.9780  174.9320  135.5710 N   0  0  0  0  0  0  0  0  0  0  0  0
  191.1600  174.8280  134.7550 C   0  0  0  0  0  0  0  0  0  0  0  0
  191.5490  173.7000  134.3470 O   0  0  0  0  0  0  0  0  0  0  0  0
  188.1010  173.3830  135.2880 C   0  0  0  0  0  2  0  0  0  0  0  0
  189.3450  173.7220  136.0960 C   0  0  0  0  0  3  0  0  0  0  0  0
  189.3770  172.6180  135.0510 C   0  0  0  0  0  2  0  0  0  0  0  0
  191.9690  176.0380  134.4050 C   0  0  0  0  0  2  0  0  0  0  0  0
  193.3310  175.9550  135.0090 C   0  0  0  0  0  0  0  0  0  0  0  0
  195.6820  176.4790  134.9480 C   0  0  0  0  0  3  0  0  0  0  0  0
  194.8260  175.1480  136.7200 C   0  0  0  0  0  3  0  0  0  0  0  0
  195.8630  175.7690  136.0950 N   0  0  0  0  0  0  0  0  0  0  0  0
  193.5380  175.2290  136.1860 C   0  0  0  0  0  3  0  0  0  0  0  0
  194.4100  176.5830  134.3810 C   0  0  0  0  0  3  0  0  0  0  0  0
  189.4010  177.2490  141.1020 C   0  0  2  0  0  3  0  0  0  0  0  0
  184.4400  178.3950  145.2070 C   0  0  1  0  0  3  0  0  0  0  0  0
  188.1760  177.7280  141.8290 C   0  0  0  0  0  0  0  0  0  0  0  0
  185.8770  178.5580  143.1500 C   0  0  0  0  0  0  0  0  0  0  0  0
  185.7400  178.4010  146.0040 C   0  0  0  0  0  2  0  0  0  0  0  0
  183.4540  179.0780  145.9180 O   0  0  0  0  0  1  0  0  0  0  0  0
  186.9160  177.8990  143.8410 C   0  0  0  0  0  0  0  0  0  0  0  0
  184.6630  179.0860  143.8650 C   0  0  0  0  0  2  0  0  0  0  0  0
  186.7820  177.5390  145.2950 C   0  0  0  0  0  2  0  0  0  0  0  0
  188.0190  177.4870  143.1610 N   0  0  0  0  0  0  0  0  0  0  0  0
  187.1730  178.3890  141.1170 C   0  0  0  0  0  3  0  0  0  0  0  0
  186.0220  178.8090  141.7840 C   0  0  0  0  0  3  0  0  0  0  0  0
  190.6410  178.0500  141.4940 C   0  0  0  0  0  2  0  0  0  0  0  0
  191.7020  176.1340  144.4870 C   0  0  0  0  0  3  0  0  0  0  0  0
  191.6220  177.1650  145.5360 C   0  0  0  0  0  0  0  0  0  0  0  0
  191.2480  178.8900  143.7760 C   0  0  0  0  0  2  0  0  0  0  0  0
  191.4110  176.4300  143.2230 C   0  0  0  0  0  3  0  0  0  0  0  0
  191.0280  177.7660  142.8650 N   0  0  0  0  0  0  0  0  0  0  0  0
  191.3730  178.4410  145.2070 C   0  0  0  0  0  3  0  0  0  0  0  0
  191.9290  175.4180  147.2680 C   0  0  0  0  0  1  0  0  0  0  0  0
  191.7910  176.7750  146.8680 O   0  0  0  0  0  0  0  0  0  0  0  0
  1  3  1  0  0  0  0
  2  8  1  1  0  0  0
  2  1  1  0  0  0  0
  2  4  1  0  0  0  0
  3  6  1  0  0  0  0
  4  5  1  0  0  0  0
  5  6  1  0  0  0  0
  6 23  1  1  0  0  0
  7  8  2  0  0  0  0
  8  9  2  0  0  0  0
 10  8  1  0  0  0  0
 10 14  1  0  0  0  0
 11 10  1  0  0  0  0
 12 11  2  0  0  0  0
 13 14  1  0  0  0  0
 15 13  1  0  0  0  0
 15 14  1  0  0  0  0
 16 11  1  0  0  0  0
 16 17  1  0  0  0  0
 17 21  1  0  0  0  0
 18 20  2  0  0  0  0
 20 19  1  0  0  0  0
 21 19  2  0  0  0  0
 22 18  1  0  0  0  0
 22 17  2  0  0  0  0
 23 35  1  6  0  0  0
 23 25  1  0  0  0  0
 24 28  1  1  0  0  0
 24 27  1  0  0  0  0
 25 32  1  0  0  0  0
 26 29  1  0  0  0  0
 26 30  1  0  0  0  0
 29 31  1  0  0  0  0
 30 24  1  0  0  0  0
 31 27  1  0  0  0  0
 32 29  2  0  0  0  0
 33 34  1  0  0  0  0
 33 25  2  0  0  0  0
 34 26  2  0  0  0  0
 35 40  1  0  0  0  0
 36 37  1  0  0  0  0
 37 43  1  0  0  0  0
 38 41  1  0  0  0  0
 39 36  2  0  0  0  0
 40 39  1  0  0  0  0
 40 38  1  0  0  0  0
 41 37  2  0  0  0  0
 43 42  1  0  0  0  0
M  END
>  <MODEL>
4

>  <REMARK>
 VINA RESULT:      -8.4      2.832      9.342
  Name = 
  10 active torsions:
  status: ('A' for Active; 'I' for Inactive)
    1  A    between atoms: C_1  and  C_34
    2  A    between atoms: C_1  and  N_35
    3  A    between atoms: N_4  and  S_12
    4  A    between atoms: N_4  and  C_15
    5  A    between atoms: C_6  and  S_12
    6  A    between atoms: C_8  and  C_34
    7  A    between atoms: C_11  and  C_14
    8  A    between atoms: C_14  and  C_22
    9  A    between atoms: C_19  and  O_37
   10  A    between atoms: C_34  and  C_38
                            x       y       z     vdW  Elec       q    Type
                         _______ _______ _______ _____ _____    ______ ____

>  <TORSDO>
F 10

$$$$
=
 OpenBabel10272414373D

 43 48  0  0  1  0  0  0  0  0999 V2000
  187.0530  176.0220  136.9950 C   0  0  0  0  0  2  0  0  0  0  0  0
  187.4900  176.8650  135.7850 C   0  0  1  0  0  3  0  0  0  0  0  0
  185.8500  176.6060  137.7340 C   0  0  0  0  0  2  0  0  0  0  0  0
  186.6960  178.1670  135.6260 C   0  0  0  0  0  2  0  0  0  0  0  0
  186.6000  178.9360  136.9450 C   0  0  0  0  0  2  0  0  0  0  0  0
  186.1250  178.0600  138.1220 C   0  0  1  0  0  3  0  0  0  0  0  0
  189.4660  178.5080  136.5530 O   0  0  0  0  0  0  0  0  0  0  0  0
  189.2460  177.1890  135.8660 S   0  0  0  0  0  0  0  0  0  0  0  0
  189.8210  177.2660  134.4790 O   0  0  0  0  0  0  0  0  0  0  0  0
  190.0360  175.9130  136.7510 N   0  0  0  0  0  0  0  0  0  0  0  0
  190.4830  176.1460  138.1000 C   0  0  0  0  0  0  0  0  0  0  0  0
  191.3630  175.4010  138.6120 O   0  0  0  0  0  0  0  0  0  0  0  0
  189.6430  173.5040  136.5430 C   0  0  0  0  0  2  0  0  0  0  0  0
  190.4450  174.6970  136.0460 C   0  0  0  0  0  3  0  0  0  0  0  0
  189.2840  174.1500  135.2300 C   0  0  0  0  0  2  0  0  0  0  0  0
  189.8970  177.2440  138.9320 C   0  0  0  0  0  2  0  0  0  0  0  0
  190.3120  177.1040  140.3580 C   0  0  0  0  0  0  0  0  0  0  0  0
  191.9670  177.3630  142.0900 C   0  0  0  0  0  3  0  0  0  0  0  0
  189.8650  176.3900  142.6180 C   0  0  0  0  0  3  0  0  0  0  0  0
  191.1070  176.8060  142.9860 N   0  0  0  0  0  0  0  0  0  0  0  0
  189.4450  176.5310  141.2930 C   0  0  0  0  0  3  0  0  0  0  0  0
  191.5850  177.5200  140.7560 C   0  0  0  0  0  3  0  0  0  0  0  0
  184.9440  178.6700  138.8860 C   0  0  2  0  0  3  0  0  0  0  0  0
  184.4590  179.1050  145.3940 C   0  0  1  0  0  3  0  0  0  0  0  0
  185.1120  178.6190  140.3780 C   0  0  0  0  0  0  0  0  0  0  0  0
  185.4430  178.5920  143.1380 C   0  0  0  0  0  0  0  0  0  0  0  0
  183.1470  178.5550  144.8450 C   0  0  0  0  0  2  0  0  0  0  0  0
  184.5730  178.7780  146.7440 O   0  0  0  0  0  1  0  0  0  0  0  0
  184.1670  178.7620  142.5580 C   0  0  0  0  0  0  0  0  0  0  0  0
  185.6280  178.4930  144.6270 C   0  0  0  0  0  2  0  0  0  0  0  0
  182.9530  179.0250  143.4060 C   0  0  0  0  0  2  0  0  0  0  0  0
  184.0410  178.7920  141.2050 N   0  0  0  0  0  0  0  0  0  0  0  0
  186.3870  178.4360  140.9180 C   0  0  0  0  0  3  0  0  0  0  0  0
  186.5480  178.4170  142.3030 C   0  0  0  0  0  3  0  0  0  0  0  0
  183.6240  178.0440  138.4430 C   0  0  0  0  0  2  0  0  0  0  0  0
  180.8910  179.7160  136.5730 C   0  0  0  0  0  3  0  0  0  0  0  0
  180.9510  181.0790  137.1280 C   0  0  0  0  0  0  0  0  0  0  0  0
  182.5680  180.2810  138.8490 C   0  0  0  0  0  2  0  0  0  0  0  0
  181.7210  178.7710  137.0090 C   0  0  0  0  0  3  0  0  0  0  0  0
  182.6760  179.0690  138.0360 N   0  0  0  0  0  0  0  0  0  0  0  0
  181.7600  181.3490  138.1630 C   0  0  0  0  0  3  0  0  0  0  0  0
  180.6500  183.3780  136.2510 C   0  0  0  0  0  1  0  0  0  0  0  0
  180.1640  182.0730  136.5380 O   0  0  0  0  0  0  0  0  0  0  0  0
  1  3  1  0  0  0  0
  2  8  1  1  0  0  0
  2  1  1  0  0  0  0
  3  6  1  0  0  0  0
  4  2  1  0  0  0  0
  4  5  1  0  0  0  0
  5  6  1  0  0  0  0
  6 23  1  6  0  0  0
  8  7  2  0  0  0  0
  8 10  1  0  0  0  0
  9  8  2  0  0  0  0
 10 11  1  0  0  0  0
 11 12  2  0  0  0  0
 11 16  1  0  0  0  0
 14 13  1  0  0  0  0
 14 10  1  0  0  0  0
 15 14  1  0  0  0  0
 15 13  1  0  0  0  0
 16 17  1  0  0  0  0
 17 22  2  0  0  0  0
 17 21  1  0  0  0  0
 18 20  2  0  0  0  0
 19 20  1  0  0  0  0
 21 19  2  0  0  0  0
 22 18  1  0  0  0  0
 23 35  1  1  0  0  0
 23 25  1  0  0  0  0
 24 28  1  1  0  0  0
 25 33  2  0  0  0  0
 25 32  1  0  0  0  0
 26 30  1  0  0  0  0
 27 24  1  0  0  0  0
 29 26  1  0  0  0  0
 29 31  1  0  0  0  0
 30 24  1  0  0  0  0
 31 27  1  0  0  0  0
 32 29  2  0  0  0  0
 33 34  1  0  0  0  0
 34 26  2  0  0  0  0
 36 39  2  0  0  0  0
 36 37  1  0  0  0  0
 37 41  2  0  0  0  0
 39 40  1  0  0  0  0
 40 35  1  0  0  0  0
 40 38  1  0  0  0  0
 41 38  1  0  0  0  0
 42 43  1  0  0  0  0
 43 37  1  0  0  0  0
M  END
>  <MODEL>
5

>  <REMARK>
 VINA RESULT:      -8.4      3.602      9.348
  Name = 
  10 active torsions:
  status: ('A' for Active; 'I' for Inactive)
    1  A    between atoms: C_1  and  C_34
    2  A    between atoms: C_1  and  N_35
    3  A    between atoms: N_4  and  S_12
    4  A    between atoms: N_4  and  C_15
    5  A    between atoms: C_6  and  S_12
    6  A    between atoms: C_8  and  C_34
    7  A    between atoms: C_11  and  C_14
    8  A    between atoms: C_14  and  C_22
    9  A    between atoms: C_19  and  O_37
   10  A    between atoms: C_34  and  C_38
                            x       y       z     vdW  Elec       q    Type
                         _______ _______ _______ _____ _____    ______ ____

>  <TORSDO>
F 10

$$$$
=
 OpenBabel10272414373D

 43 48  0  0  1  0  0  0  0  0999 V2000
  188.9680  178.9000  138.0220 C   0  0  0  0  0  2  0  0  0  0  0  0
  189.6660  177.6590  137.4400 C   0  0  1  0  0  3  0  0  0  0  0  0
  188.9700  178.9330  139.5490 C   0  0  0  0  0  2  0  0  0  0  0  0
  190.1320  176.6610  138.5070 C   0  0  0  0  0  2  0  0  0  0  0  0
  189.0270  176.3620  139.5220 C   0  0  0  0  0  2  0  0  0  0  0  0
  188.3790  177.6340  140.1040 C   0  0  1  0  0  3  0  0  0  0  0  0
  188.5300  177.7360  135.0120 O   0  0  0  0  0  0  0  0  0  0  0  0
  188.6080  176.8680  136.2370 S   0  0  0  0  0  0  0  0  0  0  0  0
  187.2230  176.7000  136.7990 O   0  0  0  0  0  0  0  0  0  0  0  0
  189.2590  175.3050  135.8230 N   0  0  0  0  0  0  0  0  0  0  0  0
  190.5610  175.2090  135.2170 C   0  0  0  0  0  0  0  0  0  0  0  0
  190.8860  174.1690  134.5800 O   0  0  0  0  0  0  0  0  0  0  0  0
  188.8600  173.1800  136.9750 C   0  0  0  0  0  2  0  0  0  0  0  0
  188.3910  174.1290  135.8810 C   0  0  0  0  0  3  0  0  0  0  0  0
  187.6720  174.0740  137.2210 C   0  0  0  0  0  2  0  0  0  0  0  0
  191.5640  176.3110  135.3530 C   0  0  0  0  0  2  0  0  0  0  0  0
  192.8280  175.8020  135.9600 C   0  0  0  0  0  0  0  0  0  0  0  0
  193.9860  174.6860  137.7550 C   0  0  0  0  0  3  0  0  0  0  0  0
  195.2250  175.5450  135.9180 C   0  0  0  0  0  3  0  0  0  0  0  0
  195.1680  174.8970  137.1130 N   0  0  0  0  0  0  0  0  0  0  0  0
  194.0530  176.0110  135.3190 C   0  0  0  0  0  3  0  0  0  0  0  0
  192.7920  175.1380  137.1890 C   0  0  0  0  0  3  0  0  0  0  0  0
  188.3460  177.6430  141.6370 C   0  0  2  0  0  3  0  0  0  0  0  0
  182.1500  179.3670  142.8260 C   0  0  1  0  0  3  0  0  0  0  0  0
  186.9810  177.9240  142.1990 C   0  0  0  0  0  0  0  0  0  0  0  0
  184.4750  178.5090  143.2480 C   0  0  0  0  0  0  0  0  0  0  0  0
  182.1910  178.5720  141.5260 C   0  0  0  0  0  2  0  0  0  0  0  0
  180.8560  179.3430  143.3460 O   0  0  0  0  0  1  0  0  0  0  0  0
  184.6770  178.4110  141.8550 C   0  0  0  0  0  0  0  0  0  0  0  0
  183.1100  178.7430  143.8350 C   0  0  0  0  0  2  0  0  0  0  0  0
  183.5680  178.7070  140.8830 C   0  0  0  0  0  2  0  0  0  0  0  0
  185.9190  178.1440  141.3730 N   0  0  0  0  0  0  0  0  0  0  0  0
  186.8140  178.0000  143.5840 C   0  0  0  0  0  3  0  0  0  0  0  0
  185.5530  178.2890  144.1070 C   0  0  0  0  0  3  0  0  0  0  0  0
  189.3980  178.5940  142.2020 C   0  0  0  0  0  2  0  0  0  0  0  0
  191.5220  175.9980  143.7850 C   0  0  0  0  0  3  0  0  0  0  0  0
  191.6800  176.5400  145.1450 C   0  0  0  0  0  0  0  0  0  0  0  0
  190.6100  178.6630  144.3960 C   0  0  0  0  0  2  0  0  0  0  0  0
  190.8220  176.6620  142.8680 C   0  0  0  0  0  3  0  0  0  0  0  0
  190.2220  177.9230  143.1940 N   0  0  0  0  0  0  0  0  0  0  0  0
  191.2200  177.7660  145.4380 C   0  0  0  0  0  3  0  0  0  0  0  0
  191.9550  175.7930  147.4930 C   0  0  0  0  0  1  0  0  0  0  0  0
  192.2950  175.7410  146.1140 O   0  0  0  0  0  0  0  0  0  0  0  0
  1  3  1  0  0  0  0
  2  8  1  6  0  0  0
  2  1  1  0  0  0  0
  2  4  1  0  0  0  0
  3  6  1  0  0  0  0
  4  5  1  0  0  0  0
  5  6  1  0  0  0  0
  6 23  1  1  0  0  0
  7  8  2  0  0  0  0
  8  9  2  0  0  0  0
 10 14  1  0  0  0  0
 10  8  1  0  0  0  0
 11 16  1  0  0  0  0
 11 10  1  0  0  0  0
 12 11  2  0  0  0  0
 13 15  1  0  0  0  0
 14 13  1  0  0  0  0
 14 15  1  0  0  0  0
 16 17  1  0  0  0  0
 17 22  1  0  0  0  0
 19 20  2  0  0  0  0
 20 18  1  0  0  0  0
 21 19  1  0  0  0  0
 21 17  2  0  0  0  0
 22 18  2  0  0  0  0
 23 25  1  0  0  0  0
 23 35  1  6  0  0  0
 24 28  1  1  0  0  0
 24 30  1  0  0  0  0
 25 33  1  0  0  0  0
 26 30  1  0  0  0  0
 26 34  1  0  0  0  0
 27 24  1  0  0  0  0
 29 26  2  0  0  0  0
 31 27  1  0  0  0  0
 31 29  1  0  0  0  0
 32 29  1  0  0  0  0
 32 25  2  0  0  0  0
 33 34  2  0  0  0  0
 35 40  1  0  0  0  0
 36 37  1  0  0  0  0
 37 41  2  0  0  0  0
 37 43  1  0  0  0  0
 38 41  1  0  0  0  0
 39 40  1  0  0  0  0
 39 36  2  0  0  0  0
 40 38  1  0  0  0  0
 43 42  1  0  0  0  0
M  END
>  <MODEL>
6

>  <REMARK>
 VINA RESULT:      -8.3      2.915      8.824
  Name = 
  10 active torsions:
  status: ('A' for Active; 'I' for Inactive)
    1  A    between atoms: C_1  and  C_34
    2  A    between atoms: C_1  and  N_35
    3  A    between atoms: N_4  and  S_12
    4  A    between atoms: N_4  and  C_15
    5  A    between atoms: C_6  and  S_12
    6  A    between atoms: C_8  and  C_34
    7  A    between atoms: C_11  and  C_14
    8  A    between atoms: C_14  and  C_22
    9  A    between atoms: C_19  and  O_37
   10  A    between atoms: C_34  and  C_38
                            x       y       z     vdW  Elec       q    Type
                         _______ _______ _______ _____ _____    ______ ____

>  <TORSDO>
F 10

$$$$
=
 OpenBabel10272414373D

 43 48  0  0  1  0  0  0  0  0999 V2000
  190.9510  177.2920  141.0040 C   0  0  0  0  0  2  0  0  0  0  0  0
  189.9140  177.7700  142.0340 C   0  0  1  0  0  3  0  0  0  0  0  0
  190.5040  177.5000  139.5580 C   0  0  0  0  0  2  0  0  0  0  0  0
  188.6070  178.2650  141.4040 C   0  0  0  0  0  2  0  0  0  0  0  0
  188.0720  177.2800  140.3630 C   0  0  0  0  0  2  0  0  0  0  0  0
  189.1360  176.8550  139.3300 C   0  0  1  0  0  3  0  0  0  0  0  0
  190.7200  175.4790  143.1710 O   0  0  0  0  0  0  0  0  0  0  0  0
  189.6030  176.4820  143.2340 S   0  0  0  0  0  0  0  0  0  0  0  0
  188.3090  175.7840  142.9180 O   0  0  0  0  0  0  0  0  0  0  0  0
  189.5120  177.1780  144.8290 N   0  0  0  0  0  0  0  0  0  0  0  0
  188.2280  177.4620  145.4160 C   0  0  0  0  0  0  0  0  0  0  0  0
  188.1370  178.2840  146.3680 O   0  0  0  0  0  0  0  0  0  0  0  0
  191.0090  176.9190  146.7510 C   0  0  0  0  0  2  0  0  0  0  0  0
  190.7320  177.6800  145.4630 C   0  0  0  0  0  3  0  0  0  0  0  0
  191.7880  176.5860  145.5050 C   0  0  0  0  0  2  0  0  0  0  0  0
  186.9880  176.7700  144.9410 C   0  0  0  0  0  2  0  0  0  0  0  0
  185.9120  177.7600  144.6470 C   0  0  0  0  0  0  0  0  0  0  0  0
  184.7570  179.1960  143.0940 C   0  0  0  0  0  3  0  0  0  0  0  0
  184.0910  179.1630  145.3750 C   0  0  0  0  0  3  0  0  0  0  0  0
  183.9520  179.6280  144.1030 N   0  0  0  0  0  0  0  0  0  0  0  0
  185.0770  178.2190  145.6710 C   0  0  0  0  0  3  0  0  0  0  0  0
  185.7560  178.2530  143.3490 C   0  0  0  0  0  3  0  0  0  0  0  0
  188.6670  177.0270  137.8810 C   0  0  2  0  0  3  0  0  0  0  0  0
  182.3800  178.6900  138.5740 C   0  0  1  0  0  3  0  0  0  0  0  0
  187.1890  177.2670  137.7590 C   0  0  0  0  0  0  0  0  0  0  0  0
  184.4440  177.6580  137.5750 C   0  0  0  0  0  0  0  0  0  0  0  0
  183.2400  179.9170  138.8530 C   0  0  0  0  0  2  0  0  0  0  0  0
  181.0840  179.0920  138.2520 O   0  0  0  0  0  1  0  0  0  0  0  0
  185.2380  178.4530  138.4290 C   0  0  0  0  0  0  0  0  0  0  0  0
  182.9710  177.9100  137.4030 C   0  0  0  0  0  2  0  0  0  0  0  0
  184.6190  179.4800  139.3380 C   0  0  0  0  0  2  0  0  0  0  0  0
  186.5750  178.2230  138.5120 N   0  0  0  0  0  0  0  0  0  0  0  0
  186.4350  176.4700  136.8940 C   0  0  0  0  0  3  0  0  0  0  0  0
  185.0590  176.6720  136.8000 C   0  0  0  0  0  3  0  0  0  0  0  0
  189.1250  175.8550  137.0150 C   0  0  0  0  0  2  0  0  0  0  0  0
  192.4310  174.3330  137.7260 C   0  0  0  0  0  3  0  0  0  0  0  0
  193.3410  175.4320  137.3650 C   0  0  0  0  0  0  0  0  0  0  0  0
  191.4110  176.6820  136.4040 C   0  0  0  0  0  2  0  0  0  0  0  0
  191.1140  174.4720  137.5930 C   0  0  0  0  0  3  0  0  0  0  0  0
  190.5680  175.6960  137.0810 N   0  0  0  0  0  0  0  0  0  0  0  0
  192.8600  176.5420  136.7840 C   0  0  0  0  0  3  0  0  0  0  0  0
  195.4560  174.1390  137.3270 C   0  0  0  0  0  1  0  0  0  0  0  0
  194.7020  175.2960  137.6610 O   0  0  0  0  0  0  0  0  0  0  0  0
  1  2  1  0  0  0  0
  2  8  1  1  0  0  0
  3  1  1  0  0  0  0
  4  2  1  0  0  0  0
  5  4  1  0  0  0  0
  6 23  1  6  0  0  0
  6  3  1  0  0  0  0
  6  5  1  0  0  0  0
  7  8  2  0  0  0  0
  8 10  1  0  0  0  0
  9  8  2  0  0  0  0
 10 11  1  0  0  0  0
 10 14  1  0  0  0  0
 11 12  2  0  0  0  0
 14 15  1  0  0  0  0
 14 13  1  0  0  0  0
 15 13  1  0  0  0  0
 16 11  1  0  0  0  0
 17 16  1  0  0  0  0
 17 21  1  0  0  0  0
 18 22  1  0  0  0  0
 18 20  2  0  0  0  0
 19 21  2  0  0  0  0
 20 19  1  0  0  0  0
 22 17  2  0  0  0  0
 23 35  1  6  0  0  0
 24 28  1  6  0  0  0
 24 27  1  0  0  0  0
 25 23  1  0  0  0  0
 25 32  1  0  0  0  0
 26 29  1  0  0  0  0
 27 31  1  0  0  0  0
 29 32  2  0  0  0  0
 29 31  1  0  0  0  0
 30 26  1  0  0  0  0
 30 24  1  0  0  0  0
 33 25  2  0  0  0  0
 34 33  1  0  0  0  0
 34 26  2  0  0  0  0
 35 40  1  0  0  0  0
 37 43  1  0  0  0  0
 37 36  1  0  0  0  0
 38 41  1  0  0  0  0
 38 40  1  0  0  0  0
 39 36  2  0  0  0  0
 40 39  1  0  0  0  0
 41 37  2  0  0  0  0
 42 43  1  0  0  0  0
M  END
>  <MODEL>
7

>  <REMARK>
 VINA RESULT:      -8.2      1.686      2.247
  Name = 
  10 active torsions:
  status: ('A' for Active; 'I' for Inactive)
    1  A    between atoms: C_1  and  C_34
    2  A    between atoms: C_1  and  N_35
    3  A    between atoms: N_4  and  S_12
    4  A    between atoms: N_4  and  C_15
    5  A    between atoms: C_6  and  S_12
    6  A    between atoms: C_8  and  C_34
    7  A    between atoms: C_11  and  C_14
    8  A    between atoms: C_14  and  C_22
    9  A    between atoms: C_19  and  O_37
   10  A    between atoms: C_34  and  C_38
                            x       y       z     vdW  Elec       q    Type
                         _______ _______ _______ _____ _____    ______ ____

>  <TORSDO>
F 10

$$$$
=
 OpenBabel10272414373D

 43 48  0  0  1  0  0  0  0  0999 V2000
  188.9820  178.8530  138.2120 C   0  0  0  0  0  2  0  0  0  0  0  0
  189.7390  177.6660  137.5950 C   0  0  1  0  0  3  0  0  0  0  0  0
  189.0110  178.8590  139.7400 C   0  0  0  0  0  2  0  0  0  0  0  0
  190.2820  176.6770  138.6340 C   0  0  0  0  0  2  0  0  0  0  0  0
  189.2160  176.2960  139.6630 C   0  0  0  0  0  2  0  0  0  0  0  0
  188.5080  177.5190  140.2810 C   0  0  1  0  0  3  0  0  0  0  0  0
  188.6670  177.6550  135.1370 O   0  0  0  0  0  0  0  0  0  0  0  0
  188.7050  176.8350  136.3970 S   0  0  0  0  0  0  0  0  0  0  0  0
  187.3050  176.7010  136.9280 O   0  0  0  0  0  0  0  0  0  0  0  0
  189.3530  175.2520  136.0620 N   0  0  0  0  0  0  0  0  0  0  0  0
  188.4640  174.1710  135.7220 C   0  0  0  0  0  0  0  0  0  0  0  0
  188.8480  172.9760  135.8450 O   0  0  0  0  0  0  0  0  0  0  0  0
  191.4440  174.3790  135.1330 C   0  0  0  0  0  2  0  0  0  0  0  0
  190.7600  174.9770  136.3530 C   0  0  0  0  0  3  0  0  0  0  0  0
  191.6540  175.8330  135.4690 C   0  0  0  0  0  2  0  0  0  0  0  0
  187.0920  174.4350  135.1850 C   0  0  0  0  0  2  0  0  0  0  0  0
  186.0960  173.5190  135.8120 C   0  0  0  0  0  0  0  0  0  0  0  0
  184.5060  171.7170  135.6310 C   0  0  0  0  0  3  0  0  0  0  0  0
  184.8280  172.7860  137.7280 C   0  0  0  0  0  3  0  0  0  0  0  0
  184.2160  171.8490  136.9540 N   0  0  0  0  0  0  0  0  0  0  0  0
  185.7810  173.6410  137.1690 C   0  0  0  0  0  3  0  0  0  0  0  0
  185.4520  172.5530  135.0340 C   0  0  0  0  0  3  0  0  0  0  0  0
  188.5030  177.4980  141.8140 C   0  0  2  0  0  3  0  0  0  0  0  0
  182.3920  179.3880  143.1770 C   0  0  1  0  0  3  0  0  0  0  0  0
  187.1550  177.7970  142.4080 C   0  0  0  0  0  0  0  0  0  0  0  0
  184.6840  178.4130  143.5190 C   0  0  0  0  0  0  0  0  0  0  0  0
  182.3900  178.6760  141.8290 C   0  0  0  0  0  2  0  0  0  0  0  0
  181.1030  179.3830  143.7080 O   0  0  0  0  0  1  0  0  0  0  0  0
  184.8700  178.3960  142.1200 C   0  0  0  0  0  0  0  0  0  0  0  0
  183.3340  178.6650  144.1340 C   0  0  0  0  0  2  0  0  0  0  0  0
  183.7660  178.7970  141.1800 C   0  0  0  0  0  2  0  0  0  0  0  0
  186.0970  178.1110  141.6080 N   0  0  0  0  0  0  0  0  0  0  0  0
  187.0030  177.7920  143.7960 C   0  0  0  0  0  3  0  0  0  0  0  0
  185.7600  178.0970  144.3500 C   0  0  0  0  0  3  0  0  0  0  0  0
  189.5860  178.4150  142.3770 C   0  0  0  0  0  2  0  0  0  0  0  0
  191.6030  175.7560  143.9950 C   0  0  0  0  0  3  0  0  0  0  0  0
  191.7770  176.3060  145.3490 C   0  0  0  0  0  0  0  0  0  0  0  0
  190.7920  178.4610  144.5740 C   0  0  0  0  0  2  0  0  0  0  0  0
  190.9310  176.4370  143.0680 C   0  0  0  0  0  3  0  0  0  0  0  0
  190.3800  177.7240  143.3780 N   0  0  0  0  0  0  0  0  0  0  0  0
  191.3640  177.5520  145.6280 C   0  0  0  0  0  3  0  0  0  0  0  0
  191.8720  175.4210  147.6630 C   0  0  0  0  0  1  0  0  0  0  0  0
  192.3570  175.4950  146.3290 O   0  0  0  0  0  0  0  0  0  0  0  0
  1  3  1  0  0  0  0
  2  8  1  6  0  0  0
  2  1  1  0  0  0  0
  2  4  1  0  0  0  0
  3  6  1  0  0  0  0
  4  5  1  0  0  0  0
  5  6  1  0  0  0  0
  6 23  1  1  0  0  0
  7  8  2  0  0  0  0
  8  9  2  0  0  0  0
 10 14  1  0  0  0  0
 10  8  1  0  0  0  0
 11 12  2  0  0  0  0
 11 10  1  0  0  0  0
 13 15  1  0  0  0  0
 13 14  1  0  0  0  0
 15 14  1  0  0  0  0
 16 11  1  0  0  0  0
 16 17  1  0  0  0  0
 17 21  1  0  0  0  0
 18 20  2  0  0  0  0
 20 19  1  0  0  0  0
 21 19  2  0  0  0  0
 22 18  1  0  0  0  0
 22 17  2  0  0  0  0
 23 35  1  1  0  0  0
 23 25  1  0  0  0  0
 24 28  1  1  0  0  0
 24 30  1  0  0  0  0
 25 33  1  0  0  0  0
 26 30  1  0  0  0  0
 26 34  1  0  0  0  0
 27 24  1  0  0  0  0
 29 26  2  0  0  0  0
 31 27  1  0  0  0  0
 31 29  1  0  0  0  0
 32 29  1  0  0  0  0
 32 25  2  0  0  0  0
 33 34  2  0  0  0  0
 35 40  1  0  0  0  0
 36 37  1  0  0  0  0
 37 41  2  0  0  0  0
 37 43  1  0  0  0  0
 38 41  1  0  0  0  0
 39 40  1  0  0  0  0
 39 36  2  0  0  0  0
 40 38  1  0  0  0  0
 43 42  1  0  0  0  0
M  END
>  <MODEL>
8

>  <REMARK>
 VINA RESULT:      -8.0      3.072      8.399
  Name = 
  10 active torsions:
  status: ('A' for Active; 'I' for Inactive)
    1  A    between atoms: C_1  and  C_34
    2  A    between atoms: C_1  and  N_35
    3  A    between atoms: N_4  and  S_12
    4  A    between atoms: N_4  and  C_15
    5  A    between atoms: C_6  and  S_12
    6  A    between atoms: C_8  and  C_34
    7  A    between atoms: C_11  and  C_14
    8  A    between atoms: C_14  and  C_22
    9  A    between atoms: C_19  and  O_37
   10  A    between atoms: C_34  and  C_38
                            x       y       z     vdW  Elec       q    Type
                         _______ _______ _______ _____ _____    ______ ____

>  <TORSDO>
F 10

$$$$
=
 OpenBabel10272414373D

 43 48  0  0  1  0  0  0  0  0999 V2000
  189.4760  178.1440  137.0130 C   0  0  0  0  0  2  0  0  0  0  0  0
  188.4180  177.1790  136.4520 C   0  0  1  0  0  3  0  0  0  0  0  0
  190.0290  177.7110  138.3700 C   0  0  0  0  0  2  0  0  0  0  0  0
  188.0610  176.0360  137.4110 C   0  0  0  0  0  2  0  0  0  0  0  0
  187.7790  176.5500  138.8240 C   0  0  0  0  0  2  0  0  0  0  0  0
  188.8820  177.4860  139.3590 C   0  0  1  0  0  3  0  0  0  0  0  0
  187.1600  178.6180  134.5710 O   0  0  0  0  0  0  0  0  0  0  0  0
  186.9580  178.0870  135.9630 S   0  0  0  0  0  0  0  0  0  0  0  0
  186.7340  179.2460  136.8940 O   0  0  0  0  0  0  0  0  0  0  0  0
  185.5720  177.0330  136.0060 N   0  0  0  0  0  0  0  0  0  0  0  0
  184.8590  176.8350  137.2410 C   0  0  0  0  0  0  0  0  0  0  0  0
  184.1170  175.8250  137.3880 O   0  0  0  0  0  0  0  0  0  0  0  0
  186.5450  175.4720  134.3880 C   0  0  0  0  0  2  0  0  0  0  0  0
  185.2820  176.1820  134.8510 C   0  0  0  0  0  3  0  0  0  0  0  0
  185.5240  174.7220  135.2030 C   0  0  0  0  0  2  0  0  0  0  0  0
  184.9490  177.8290  138.3570 C   0  0  0  0  0  2  0  0  0  0  0  0
  183.5910  178.1840  138.8590 C   0  0  0  0  0  0  0  0  0  0  0  0
  181.9010  178.0780  140.5740 C   0  0  0  0  0  3  0  0  0  0  0  0
  181.4360  179.2180  138.5420 C   0  0  0  0  0  3  0  0  0  0  0  0
  181.0600  178.7960  139.7800 N   0  0  0  0  0  0  0  0  0  0  0  0
  182.7110  178.9180  138.0580 C   0  0  0  0  0  3  0  0  0  0  0  0
  183.1840  177.7560  140.1260 C   0  0  0  0  0  3  0  0  0  0  0  0
  189.4040  177.0710  140.7390 C   0  0  2  0  0  3  0  0  0  0  0  0
  184.7940  179.1110  144.9050 C   0  0  1  0  0  3  0  0  0  0  0  0
  188.3960  177.2600  141.8370 C   0  0  0  0  0  0  0  0  0  0  0  0
  186.5770  177.6500  143.9010 C   0  0  0  0  0  0  0  0  0  0  0  0
  184.2830  179.3090  143.4820 C   0  0  0  0  0  2  0  0  0  0  0  0
  183.7140  179.0820  145.7870 O   0  0  0  0  0  1  0  0  0  0  0  0
  186.4880  178.3900  142.7020 C   0  0  0  0  0  0  0  0  0  0  0  0
  185.5530  177.7910  144.9940 C   0  0  0  0  0  2  0  0  0  0  0  0
  185.4650  179.4780  142.5300 C   0  0  0  0  0  2  0  0  0  0  0  0
  187.4060  178.1900  141.7190 N   0  0  0  0  0  0  0  0  0  0  0  0
  188.5060  176.5020  143.0050 C   0  0  0  0  0  3  0  0  0  0  0  0
  187.5880  176.6970  144.0370 C   0  0  0  0  0  3  0  0  0  0  0  0
  190.7260  177.7670  141.0560 C   0  0  0  0  0  2  0  0  0  0  0  0
  191.7810  176.1600  144.2280 C   0  0  0  0  0  3  0  0  0  0  0  0
  191.5760  177.2550  145.1910 C   0  0  0  0  0  0  0  0  0  0  0  0
  191.1590  178.8140  143.2920 C   0  0  0  0  0  2  0  0  0  0  0  0
  191.5290  176.3410  142.9330 C   0  0  0  0  0  3  0  0  0  0  0  0
  191.0670  177.6130  142.4600 N   0  0  0  0  0  0  0  0  0  0  0  0
  191.2490  178.4810  144.7560 C   0  0  0  0  0  3  0  0  0  0  0  0
  192.3730  175.8210  147.0500 C   0  0  0  0  0  1  0  0  0  0  0  0
  191.7090  176.9760  146.5550 O   0  0  0  0  0  0  0  0  0  0  0  0
  1  3  1  0  0  0  0
  2  8  1  1  0  0  0
  2  1  1  0  0  0  0
  2  4  1  0  0  0  0
  3  6  1  0  0  0  0
  4  5  1  0  0  0  0
  5  6  1  0  0  0  0
  6 23  1  1  0  0  0
  7  8  2  0  0  0  0
  8 10  1  0  0  0  0
  8  9  2  0  0  0  0
 10 11  1  0  0  0  0
 11 12  2  0  0  0  0
 11 16  1  0  0  0  0
 13 14  1  0  0  0  0
 13 15  1  0  0  0  0
 14 15  1  0  0  0  0
 14 10  1  0  0  0  0
 16 17  1  0  0  0  0
 17 22  1  0  0  0  0
 19 20  2  0  0  0  0
 20 18  1  0  0  0  0
 21 19  1  0  0  0  0
 21 17  2  0  0  0  0
 22 18  2  0  0  0  0
 23 35  1  1  0  0  0
 23 25  1  0  0  0  0
 24 30  1  0  0  0  0
 24 28  1  1  0  0  0
 25 33  1  0  0  0  0
 26 34  1  0  0  0  0
 26 30  1  0  0  0  0
 27 24  1  0  0  0  0
 29 26  2  0  0  0  0
 31 29  1  0  0  0  0
 31 27  1  0  0  0  0
 32 25  2  0  0  0  0
 32 29  1  0  0  0  0
 33 34  2  0  0  0  0
 35 40  1  0  0  0  0
 36 37  1  0  0  0  0
 37 43  1  0  0  0  0
 38 41  1  0  0  0  0
 39 36  2  0  0  0  0
 40 39  1  0  0  0  0
 40 38  1  0  0  0  0
 41 37  2  0  0  0  0
 43 42  1  0  0  0  0
M  END
>  <MODEL>
9

>  <REMARK>
 VINA RESULT:      -7.8      3.595      8.049
  Name = 
  10 active torsions:
  status: ('A' for Active; 'I' for Inactive)
    1  A    between atoms: C_1  and  C_34
    2  A    between atoms: C_1  and  N_35
    3  A    between atoms: N_4  and  S_12
    4  A    between atoms: N_4  and  C_15
    5  A    between atoms: C_6  and  S_12
    6  A    between atoms: C_8  and  C_34
    7  A    between atoms: C_11  and  C_14
    8  A    between atoms: C_14  and  C_22
    9  A    between atoms: C_19  and  O_37
   10  A    between atoms: C_34  and  C_38
                            x       y       z     vdW  Elec       q    Type
                         _______ _______ _______ _____ _____    ______ ____

>  <TORSDO>
F 10

$$$$
