=
 OpenBabel10262423463D

 34 39  0  0  1  0  0  0  0  0999 V2000
  186.3700  178.2570  146.4550 C   0  0  0  0  0  0  0  0  0  0  0  0
  185.8980  178.1010  144.0610 C   0  0  0  0  0  0  0  0  0  0  0  0
  188.1960  177.9270  144.8670 C   0  0  0  0  0  0  0  0  0  0  0  0
  189.9380  177.4290  142.9730 C   0  0  1  0  0  0  0  0  0  0  0  0
  184.0920  178.4240  145.6460 C   0  0  0  0  0  3  0  0  0  0  0  0
  184.5370  178.2670  144.3280 C   0  0  0  0  0  3  0  0  0  0  0  0
  187.6770  177.8040  142.4380 C   0  0  0  0  0  0  0  0  0  0  0  0
  186.8230  178.0950  145.1290 C   0  0  0  0  0  0  0  0  0  0  0  0
  189.7910  177.4830  141.4430 C   0  0  0  0  0  2  0  0  0  0  0  0
  185.0050  178.4180  146.7070 C   0  0  0  0  0  3  0  0  0  0  0  0
  189.1070  177.9380  145.9300 C   0  0  0  0  0  3  0  0  0  0  0  0
  187.2900  178.2520  147.5080 C   0  0  0  0  0  3  0  0  0  0  0  0
  186.3680  177.9430  142.6710 C   0  0  0  0  0  3  0  0  0  0  0  0
  190.9800  178.4520  143.4020 C   0  0  0  0  0  1  0  0  0  0  0  0
  188.3000  177.6080  141.1090 C   0  0  2  0  0  3  0  0  0  0  0  0
  188.6180  177.7620  143.4970 N   0  0  0  0  0  0  0  0  0  0  0  0
  188.6540  178.0970  147.2460 C   0  0  0  0  0  3  0  0  0  0  0  0
  188.0940  178.8250  140.2190 C   0  0  0  0  0  2  0  0  0  0  0  0
  189.0830  178.8640  139.2260 O   0  0  0  0  0  0  0  0  0  0  0  0
  189.1700  178.7960  136.7510 C   0  0  0  0  0  2  0  0  0  0  0  0
  188.4990  178.3810  138.0440 C   0  0  1  0  0  0  0  0  0  0  0  0
  189.4120  177.3960  137.3070 C   0  0  1  0  0  3  0  0  0  0  0  0
  187.4650  175.8020  137.2350 C   0  0  0  0  0  2  0  0  0  0  0  0
  186.5310  176.9040  137.6380 C   0  0  0  0  0  3  0  0  0  0  0  0
  187.0100  178.0910  138.0260 C   0  0  0  0  0  3  0  0  0  0  0  0
  188.6430  176.3810  136.4560 C   0  0  0  0  0  2  0  0  0  0  0  0
  190.3380  176.0000  143.3490 C   0  0  0  0  0  2  0  0  0  0  0  0
  191.6890  175.9010  143.7090 O   0  0  0  0  0  0  0  0  0  0  0  0
  191.6870  175.2890  144.9710 C   0  0  1  0  0  3  0  0  0  0  0  0
  192.5890  174.0490  145.0290 C   0  0  0  0  0  2  0  0  0  0  0  0
  191.8330  172.7610  144.7430 C   0  0  0  0  0  1  0  0  0  0  0  0
  191.9660  176.2980  146.0900 C   0  0  0  0  0  2  0  0  0  0  0  0
  191.6490  175.7800  147.4890 C   0  0  0  0  0  2  0  0  0  0  0  0
  192.8850  175.7920  148.3710 C   0  0  0  0  0  1  0  0  0  0  0  0
  1 10  1  0  0  0  0
  1 12  1  0  0  0  0
  2  6  2  0  0  0  0
  2  8  1  0  0  0  0
  3  8  1  0  0  0  0
  3 11  2  0  0  0  0
  4 27  1  0  0  0  0
  4 14  1  1  0  0  0
  4 16  1  0  0  0  0
  5 10  2  0  0  0  0
  6  5  1  0  0  0  0
  7 13  2  0  0  0  0
  7 16  1  0  0  0  0
  8  1  2  0  0  0  0
  9  4  1  0  0  0  0
 11 17  1  0  0  0  0
 13  2  1  0  0  0  0
 15 18  1  6  0  0  0
 15  9  1  0  0  0  0
 15  7  1  0  0  0  0
 16  3  1  0  0  0  0
 17 12  2  0  0  0  0
 19 18  1  0  0  0  0
 20 22  1  0  0  0  0
 20 21  1  0  0  0  0
 21 19  1  1  0  0  0
 22 26  1  6  0  0  0
 22 21  1  0  0  0  0
 23 24  1  0  0  0  0
 24 25  2  0  0  0  0
 25 21  1  0  0  0  0
 26 23  1  0  0  0  0
 27 28  1  0  0  0  0
 28 29  1  0  0  0  0
 29 30  1  6  0  0  0
 29 32  1  0  0  0  0
 31 30  1  0  0  0  0
 32 33  1  0  0  0  0
 33 34  1  0  0  0  0
M  END
>  <MODEL>
1

>  <REMARK>
 VINA RESULT:      -8.0      0.000      0.000
  Name = 
  9 active torsions:
  status: ('A' for Active; 'I' for Inactive)
    1  A    between atoms: O_3  and  C_13
    2  A    between atoms: O_3  and  C_17
    3  A    between atoms: C_5  and  C_27
    4  A    between atoms: C_7  and  C_8
    5  A    between atoms: C_8  and  O_16
    6  A    between atoms: C_8  and  C_23
    7  A    between atoms: C_12  and  C_23
    8  A    between atoms: O_16  and  C_27
    9  A    between atoms: C_17  and  C_29
                            x       y       z     vdW  Elec       q    Type
                         _______ _______ _______ _____ _____    ______ ____

>  <TORSDO>
F 9

$$$$
=
 OpenBabel10262423463D

 34 39  0  0  1  0  0  0  0  0999 V2000
  184.1820  178.7740  144.1740 C   0  0  0  0  0  0  0  0  0  0  0  0
  185.0560  178.2440  141.9530 C   0  0  0  0  0  0  0  0  0  0  0  0
  186.5770  178.4150  143.8540 C   0  0  0  0  0  0  0  0  0  0  0  0
  189.0650  177.8410  143.2640 C   0  0  1  0  0  0  0  0  0  0  0  0
  182.6800  178.5970  142.2800 C   0  0  0  0  0  3  0  0  0  0  0  0
  183.7590  178.3060  141.4380 C   0  0  0  0  0  3  0  0  0  0  0  0
  187.4290  177.9080  141.5740 C   0  0  0  0  0  0  0  0  0  0  0  0
  185.2730  178.4780  143.3290 C   0  0  0  0  0  0  0  0  0  0  0  0
  189.7520  177.6690  141.9000 C   0  0  0  0  0  2  0  0  0  0  0  0
  182.8890  178.8290  143.6450 C   0  0  0  0  0  3  0  0  0  0  0  0
  186.7840  178.6650  145.2170 C   0  0  0  0  0  3  0  0  0  0  0  0
  184.4020  179.0070  145.5350 C   0  0  0  0  0  3  0  0  0  0  0  0
  186.1940  177.9450  141.0620 C   0  0  0  0  0  3  0  0  0  0  0  0
  189.7070  179.0130  143.9930 C   0  0  0  0  0  1  0  0  0  0  0  0
  188.6650  177.5960  140.8210 C   0  0  2  0  0  3  0  0  0  0  0  0
  187.6640  178.1070  142.9570 N   0  0  0  0  0  0  0  0  0  0  0  0
  185.6990  178.9560  146.0530 C   0  0  0  0  0  3  0  0  0  0  0  0
  188.9470  178.6520  139.7630 C   0  0  0  0  0  2  0  0  0  0  0  0
  189.8190  178.1360  138.7930 O   0  0  0  0  0  0  0  0  0  0  0  0
  189.7740  177.1640  136.5140 C   0  0  0  0  0  2  0  0  0  0  0  0
  189.0400  177.8150  137.6690 C   0  0  1  0  0  0  0  0  0  0  0  0
  188.9340  176.3010  137.4520 C   0  0  1  0  0  3  0  0  0  0  0  0
  186.4370  176.5970  137.3230 C   0  0  0  0  0  2  0  0  0  0  0  0
  186.6070  178.0810  137.1940 C   0  0  0  0  0  3  0  0  0  0  0  0
  187.8070  178.6450  137.3680 C   0  0  0  0  0  3  0  0  0  0  0  0
  187.6490  175.8840  136.7300 C   0  0  0  0  0  2  0  0  0  0  0  0
  189.2230  176.5250  144.0300 C   0  0  0  0  0  2  0  0  0  0  0  0
  190.5450  176.3000  144.4380 O   0  0  0  0  0  0  0  0  0  0  0  0
  190.4790  176.1650  145.8320 C   0  0  1  0  0  3  0  0  0  0  0  0
  191.7670  176.6240  146.5320 C   0  0  0  0  0  2  0  0  0  0  0  0
  192.3680  175.5440  147.4170 C   0  0  0  0  0  1  0  0  0  0  0  0
  189.2120  176.8110  146.4050 C   0  0  0  0  0  2  0  0  0  0  0  0
  189.4500  177.6380  147.6650 C   0  0  0  0  0  2  0  0  0  0  0  0
  188.1950  177.7160  148.5140 C   0  0  0  0  0  1  0  0  0  0  0  0
  1 12  1  0  0  0  0
  2  8  1  0  0  0  0
  3 11  2  0  0  0  0
  4 14  1  1  0  0  0
  4 27  1  0  0  0  0
  5 10  2  0  0  0  0
  6  2  2  0  0  0  0
  6  5  1  0  0  0  0
  7 16  1  0  0  0  0
  8  3  1  0  0  0  0
  8  1  2  0  0  0  0
  9  4  1  0  0  0  0
 10  1  1  0  0  0  0
 11 17  1  0  0  0  0
 12 17  2  0  0  0  0
 13  7  2  0  0  0  0
 13  2  1  0  0  0  0
 15 18  1  6  0  0  0
 15  7  1  0  0  0  0
 15  9  1  0  0  0  0
 16  4  1  0  0  0  0
 16  3  1  0  0  0  0
 19 18  1  0  0  0  0
 20 21  1  0  0  0  0
 21 19  1  1  0  0  0
 22 20  1  6  0  0  0
 22 21  1  0  0  0  0
 24 23  1  0  0  0  0
 24 25  2  0  0  0  0
 25 21  1  0  0  0  0
 26 23  1  0  0  0  0
 26 22  1  0  0  0  0
 27 28  1  0  0  0  0
 28 29  1  0  0  0  0
 29 32  1  1  0  0  0
 29 30  1  0  0  0  0
 30 31  1  0  0  0  0
 32 33  1  0  0  0  0
 33 34  1  0  0  0  0
M  END
>  <MODEL>
2

>  <REMARK>
 VINA RESULT:      -7.4      1.310      2.347
  Name = 
  9 active torsions:
  status: ('A' for Active; 'I' for Inactive)
    1  A    between atoms: O_3  and  C_13
    2  A    between atoms: O_3  and  C_17
    3  A    between atoms: C_5  and  C_27
    4  A    between atoms: C_7  and  C_8
    5  A    between atoms: C_8  and  O_16
    6  A    between atoms: C_8  and  C_23
    7  A    between atoms: C_12  and  C_23
    8  A    between atoms: O_16  and  C_27
    9  A    between atoms: C_17  and  C_29
                            x       y       z     vdW  Elec       q    Type
                         _______ _______ _______ _____ _____    ______ ____

>  <TORSDO>
F 9

$$$$
=
 OpenBabel10262423463D

 34 39  0  0  1  0  0  0  0  0999 V2000
  189.8440  177.5690  145.8310 C   0  0  0  0  0  0  0  0  0  0  0  0
  187.5170  177.5960  145.0810 C   0  0  0  0  0  0  0  0  0  0  0  0
  189.3250  177.8570  143.4610 C   0  0  0  0  0  0  0  0  0  0  0  0
  188.4990  177.9990  140.9780 C   0  0  1  0  0  0  0  0  0  0  0  0
  188.0410  177.3070  147.4290 C   0  0  0  0  0  3  0  0  0  0  0  0
  187.0980  177.4130  146.4000 C   0  0  0  0  0  3  0  0  0  0  0  0
  186.9450  177.9090  142.7430 C   0  0  0  0  0  0  0  0  0  0  0  0
  188.8970  177.6740  144.7890 C   0  0  0  0  0  0  0  0  0  0  0  0
  187.0850  178.2000  140.4070 C   0  0  0  0  0  2  0  0  0  0  0  0
  189.4100  177.3830  147.1460 C   0  0  0  0  0  3  0  0  0  0  0  0
  190.6950  177.9500  143.1850 C   0  0  0  0  0  3  0  0  0  0  0  0
  191.2090  177.6500  145.5380 C   0  0  0  0  0  3  0  0  0  0  0  0
  186.5220  177.7170  143.9970 C   0  0  0  0  0  3  0  0  0  0  0  0
  189.3690  179.1750  140.5570 C   0  0  0  0  0  1  0  0  0  0  0  0
  186.0770  178.0210  141.5480 C   0  0  2  0  0  3  0  0  0  0  0  0
  188.3250  177.9570  142.4260 N   0  0  0  0  0  0  0  0  0  0  0  0
  191.6320  177.8430  144.2200 C   0  0  0  0  0  3  0  0  0  0  0  0
  185.1910  179.2550  141.6240 C   0  0  0  0  0  2  0  0  0  0  0  0
  184.9630  179.7590  140.3350 O   0  0  0  0  0  0  0  0  0  0  0  0
  183.0310  180.0510  138.8110 C   0  0  0  0  0  2  0  0  0  0  0  0
  183.7110  179.2750  139.9210 C   0  0  1  0  0  0  0  0  0  0  0  0
  183.7430  178.7410  138.4850 C   0  0  1  0  0  3  0  0  0  0  0  0
  182.6780  176.6320  139.3530 C   0  0  0  0  0  2  0  0  0  0  0  0
  182.3560  177.3130  140.6500 C   0  0  0  0  0  3  0  0  0  0  0  0
  182.8450  178.5290  140.9180 C   0  0  0  0  0  3  0  0  0  0  0  0
  182.6950  177.6550  138.2210 C   0  0  0  0  0  2  0  0  0  0  0  0
  189.0280  176.6660  140.4450 C   0  0  0  0  0  2  0  0  0  0  0  0
  190.2850  176.7930  139.8400 O   0  0  0  0  0  0  0  0  0  0  0  0
  190.1750  176.1090  138.6200 C   0  0  1  0  0  3  0  0  0  0  0  0
  188.9960  176.6030  137.7700 C   0  0  0  0  0  2  0  0  0  0  0  0
  189.3400  177.8380  136.9540 C   0  0  0  0  0  1  0  0  0  0  0  0
  191.5060  176.0870  137.8600 C   0  0  0  0  0  2  0  0  0  0  0  0
  192.1130  174.6960  137.7100 C   0  0  0  0  0  2  0  0  0  0  0  0
  191.3910  173.8950  136.6420 C   0  0  0  0  0  1  0  0  0  0  0  0
  1 10  2  0  0  0  0
  2  6  1  0  0  0  0
  3  8  1  0  0  0  0
  4 14  1  6  0  0  0
  4 16  1  0  0  0  0
  6  5  2  0  0  0  0
  7 13  2  0  0  0  0
  8  2  2  0  0  0  0
  8  1  1  0  0  0  0
  9  4  1  0  0  0  0
  9 15  1  0  0  0  0
 10  5  1  0  0  0  0
 11  3  2  0  0  0  0
 11 17  1  0  0  0  0
 12  1  1  0  0  0  0
 13  2  1  0  0  0  0
 15 18  1  1  0  0  0
 15  7  1  0  0  0  0
 16  7  1  0  0  0  0
 16  3  1  0  0  0  0
 17 12  2  0  0  0  0
 19 18  1  0  0  0  0
 20 21  1  0  0  0  0
 21 19  1  1  0  0  0
 21 25  1  0  0  0  0
 22 26  1  1  0  0  0
 22 20  1  0  0  0  0
 22 21  1  0  0  0  0
 23 24  1  0  0  0  0
 24 25  2  0  0  0  0
 26 23  1  0  0  0  0
 27  4  1  0  0  0  0
 28 27  1  0  0  0  0
 29 30  1  6  0  0  0
 29 28  1  0  0  0  0
 31 30  1  0  0  0  0
 32 29  1  0  0  0  0
 33 32  1  0  0  0  0
 34 33  1  0  0  0  0
M  END
>  <MODEL>
3

>  <REMARK>
 VINA RESULT:      -7.2      2.448      5.318
  Name = 
  9 active torsions:
  status: ('A' for Active; 'I' for Inactive)
    1  A    between atoms: O_3  and  C_13
    2  A    between atoms: O_3  and  C_17
    3  A    between atoms: C_5  and  C_27
    4  A    between atoms: C_7  and  C_8
    5  A    between atoms: C_8  and  O_16
    6  A    between atoms: C_8  and  C_23
    7  A    between atoms: C_12  and  C_23
    8  A    between atoms: O_16  and  C_27
    9  A    between atoms: C_17  and  C_29
                            x       y       z     vdW  Elec       q    Type
                         _______ _______ _______ _____ _____    ______ ____

>  <TORSDO>
F 9

$$$$
=
 OpenBabel10262423463D

 34 39  0  0  1  0  0  0  0  0999 V2000
  189.8460  177.5740  145.9590 C   0  0  0  0  0  0  0  0  0  0  0  0
  187.5040  177.5360  145.2610 C   0  0  0  0  0  0  0  0  0  0  0  0
  189.2630  177.9130  143.6110 C   0  0  0  0  0  0  0  0  0  0  0  0
  188.3760  178.0990  141.1530 C   0  0  1  0  0  0  0  0  0  0  0  0
  188.0920  177.1950  147.5880 C   0  0  0  0  0  3  0  0  0  0  0  0
  187.1220  177.2970  146.5830 C   0  0  0  0  0  3  0  0  0  0  0  0
  186.8670  177.8960  142.9470 C   0  0  0  0  0  0  0  0  0  0  0  0
  188.8730  177.6740  144.9420 C   0  0  0  0  0  0  0  0  0  0  0  0
  186.9430  178.2630  140.6190 C   0  0  0  0  0  2  0  0  0  0  0  0
  189.4500  177.3320  147.2770 C   0  0  0  0  0  3  0  0  0  0  0  0
  190.6220  178.0660  143.3080 C   0  0  0  0  0  3  0  0  0  0  0  0
  191.2000  177.7140  145.6400 C   0  0  0  0  0  3  0  0  0  0  0  0
  186.4800  177.6510  144.2030 C   0  0  0  0  0  3  0  0  0  0  0  0
  189.1930  179.3190  140.7490 C   0  0  0  0  0  1  0  0  0  0  0  0
  185.9690  178.0120  141.7750 C   0  0  2  0  0  3  0  0  0  0  0  0
  188.2370  178.0060  142.6020 N   0  0  0  0  0  0  0  0  0  0  0  0
  191.5860  177.9630  144.3190 C   0  0  0  0  0  3  0  0  0  0  0  0
  185.0400  179.2090  141.9090 C   0  0  0  0  0  2  0  0  0  0  0  0
  183.7120  178.7730  142.0180 O   0  0  0  0  0  0  0  0  0  0  0  0
  182.8510  177.1790  140.3270 C   0  0  0  0  0  2  0  0  0  0  0  0
  183.2290  178.5950  140.7110 C   0  0  1  0  0  0  0  0  0  0  0  0
  181.7550  178.1760  140.6900 C   0  0  1  0  0  3  0  0  0  0  0  0
  181.3490  180.0500  139.0590 C   0  0  0  0  0  2  0  0  0  0  0  0
  182.8260  180.2020  138.8470 C   0  0  0  0  0  3  0  0  0  0  0  0
  183.6940  179.5410  139.6210 C   0  0  0  0  0  3  0  0  0  0  0  0
  181.0240  178.6020  139.4130 C   0  0  0  0  0  2  0  0  0  0  0  0
  188.9420  176.8030  140.5670 C   0  0  0  0  0  2  0  0  0  0  0  0
  190.0020  177.0350  139.6800 O   0  0  0  0  0  0  0  0  0  0  0  0
  189.6840  176.2980  138.5300 C   0  0  1  0  0  3  0  0  0  0  0  0
  188.6960  177.0320  137.6120 C   0  0  0  0  0  2  0  0  0  0  0  0
  189.2060  178.3960  137.1750 C   0  0  0  0  0  1  0  0  0  0  0  0
  190.9430  175.8100  137.8030 C   0  0  0  0  0  2  0  0  0  0  0  0
  192.2400  176.4160  138.3300 C   0  0  0  0  0  2  0  0  0  0  0  0
  193.4180  176.0350  137.4530 C   0  0  0  0  0  1  0  0  0  0  0  0
  1 10  2  0  0  0  0
  2  6  1  0  0  0  0
  3  8  1  0  0  0  0
  4 14  1  6  0  0  0
  4 16  1  0  0  0  0
  6  5  2  0  0  0  0
  7 13  2  0  0  0  0
  8  2  2  0  0  0  0
  8  1  1  0  0  0  0
  9  4  1  0  0  0  0
  9 15  1  0  0  0  0
 10  5  1  0  0  0  0
 11  3  2  0  0  0  0
 11 17  1  0  0  0  0
 12  1  1  0  0  0  0
 13  2  1  0  0  0  0
 15 18  1  1  0  0  0
 15  7  1  0  0  0  0
 16  7  1  0  0  0  0
 16  3  1  0  0  0  0
 17 12  2  0  0  0  0
 18 19  1  0  0  0  0
 20 22  1  0  0  0  0
 20 21  1  0  0  0  0
 21 19  1  1  0  0  0
 22 26  1  6  0  0  0
 22 21  1  0  0  0  0
 23 26  1  0  0  0  0
 24 23  1  0  0  0  0
 24 25  2  0  0  0  0
 25 21  1  0  0  0  0
 27  4  1  0  0  0  0
 28 27  1  0  0  0  0
 29 30  1  6  0  0  0
 29 28  1  0  0  0  0
 31 30  1  0  0  0  0
 32 33  1  0  0  0  0
 32 29  1  0  0  0  0
 34 33  1  0  0  0  0
M  END
>  <MODEL>
4

>  <REMARK>
 VINA RESULT:      -7.1      2.800      5.611
  Name = 
  9 active torsions:
  status: ('A' for Active; 'I' for Inactive)
    1  A    between atoms: O_3  and  C_13
    2  A    between atoms: O_3  and  C_17
    3  A    between atoms: C_5  and  C_27
    4  A    between atoms: C_7  and  C_8
    5  A    between atoms: C_8  and  O_16
    6  A    between atoms: C_8  and  C_23
    7  A    between atoms: C_12  and  C_23
    8  A    between atoms: O_16  and  C_27
    9  A    between atoms: C_17  and  C_29
                            x       y       z     vdW  Elec       q    Type
                         _______ _______ _______ _____ _____    ______ ____

>  <TORSDO>
F 9

$$$$
=
 OpenBabel10262423463D

 34 39  0  0  1  0  0  0  0  0999 V2000
  186.6230  174.8020  136.0210 C   0  0  0  0  0  0  0  0  0  0  0  0
  188.9330  174.2770  136.6260 C   0  0  0  0  0  0  0  0  0  0  0  0
  187.8820  176.3110  137.4740 C   0  0  0  0  0  0  0  0  0  0  0  0
  189.3990  177.6690  139.1230 C   0  0  1  0  0  0  0  0  0  0  0  0
  187.6750  172.7840  135.1890 C   0  0  0  0  0  3  0  0  0  0  0  0
  188.8570  173.1080  135.8650 C   0  0  0  0  0  3  0  0  0  0  0  0
  190.2380  175.7550  138.0410 C   0  0  0  0  0  0  0  0  0  0  0  0
  187.8120  175.1320  136.7070 C   0  0  0  0  0  0  0  0  0  0  0  0
  190.8980  177.5370  139.4370 C   0  0  0  0  0  2  0  0  0  0  0  0
  186.5610  173.6270  135.2670 C   0  0  0  0  0  3  0  0  0  0  0  0
  186.7690  177.1600  137.5350 C   0  0  0  0  0  3  0  0  0  0  0  0
  185.5160  175.6530  136.1030 C   0  0  0  0  0  3  0  0  0  0  0  0
  190.1820  174.6220  137.3330 C   0  0  0  0  0  3  0  0  0  0  0  0
  189.1420  179.0450  138.5260 C   0  0  0  0  0  1  0  0  0  0  0  0
  191.4030  176.2260  138.8240 C   0  0  2  0  0  3  0  0  0  0  0  0
  189.1140  176.6090  138.1620 N   0  0  0  0  0  0  0  0  0  0  0  0
  185.5910  176.8290  136.8550 C   0  0  0  0  0  3  0  0  0  0  0  0
  192.5900  176.5260  137.9210 C   0  0  0  0  0  2  0  0  0  0  0  0
  193.7220  175.8330  138.3730 O   0  0  0  0  0  0  0  0  0  0  0  0
  195.6040  174.5460  137.4030 C   0  0  0  0  0  2  0  0  0  0  0  0
  194.1780  175.0480  137.3020 C   0  0  1  0  0  0  0  0  0  0  0  0
  194.4510  173.5990  137.7200 C   0  0  1  0  0  3  0  0  0  0  0  0
  193.0200  172.8750  135.7800 C   0  0  0  0  0  2  0  0  0  0  0  0
  193.0630  174.2630  135.2140 C   0  0  0  0  0  3  0  0  0  0  0  0
  193.5850  175.2700  135.9240 C   0  0  0  0  0  3  0  0  0  0  0  0
  194.2950  172.5990  136.5710 C   0  0  0  0  0  2  0  0  0  0  0  0
  188.6320  177.4520  140.4300 C   0  0  0  0  0  2  0  0  0  0  0  0
  189.4400  177.6340  141.5600 O   0  0  0  0  0  0  0  0  0  0  0  0
  189.1530  176.5430  142.3940 C   0  0  1  0  0  3  0  0  0  0  0  0
  190.3850  176.0490  143.1650 C   0  0  0  0  0  2  0  0  0  0  0  0
  191.5730  176.9890  143.0350 C   0  0  0  0  0  1  0  0  0  0  0  0
  187.9430  176.8200  143.2930 C   0  0  0  0  0  2  0  0  0  0  0  0
  188.3060  177.2610  144.7070 C   0  0  0  0  0  2  0  0  0  0  0  0
  187.0690  177.6660  145.4890 C   0  0  0  0  0  1  0  0  0  0  0  0
  1 12  2  0  0  0  0
  1  8  1  0  0  0  0
  2  8  1  0  0  0  0
  2 13  1  0  0  0  0
  3 11  1  0  0  0  0
  3 16  1  0  0  0  0
  4 14  1  6  0  0  0
  4  9  1  0  0  0  0
  4 27  1  0  0  0  0
  5 10  2  0  0  0  0
  5  6  1  0  0  0  0
  6  2  2  0  0  0  0
  7 16  1  0  0  0  0
  7 15  1  0  0  0  0
  8  3  2  0  0  0  0
 10  1  1  0  0  0  0
 12 17  1  0  0  0  0
 13  7  2  0  0  0  0
 15 18  1  6  0  0  0
 15  9  1  0  0  0  0
 16  4  1  0  0  0  0
 17 11  2  0  0  0  0
 18 19  1  0  0  0  0
 20 22  1  0  0  0  0
 21 20  1  0  0  0  0
 21 22  1  0  0  0  0
 21 19  1  1  0  0  0
 22 26  1  6  0  0  0
 23 26  1  0  0  0  0
 24 23  1  0  0  0  0
 24 25  2  0  0  0  0
 25 21  1  0  0  0  0
 27 28  1  0  0  0  0
 28 29  1  0  0  0  0
 29 30  1  1  0  0  0
 29 32  1  0  0  0  0
 31 30  1  0  0  0  0
 32 33  1  0  0  0  0
 33 34  1  0  0  0  0
M  END
>  <MODEL>
5

>  <REMARK>
 VINA RESULT:      -6.7      3.455      7.376
  Name = 
  9 active torsions:
  status: ('A' for Active; 'I' for Inactive)
    1  A    between atoms: O_3  and  C_13
    2  A    between atoms: O_3  and  C_17
    3  A    between atoms: C_5  and  C_27
    4  A    between atoms: C_7  and  C_8
    5  A    between atoms: C_8  and  O_16
    6  A    between atoms: C_8  and  C_23
    7  A    between atoms: C_12  and  C_23
    8  A    between atoms: O_16  and  C_27
    9  A    between atoms: C_17  and  C_29
                            x       y       z     vdW  Elec       q    Type
                         _______ _______ _______ _____ _____    ______ ____

>  <TORSDO>
F 9

$$$$
=
 OpenBabel10262423463D

 34 39  0  0  1  0  0  0  0  0999 V2000
  190.1590  177.3890  144.0430 C   0  0  0  0  0  0  0  0  0  0  0  0
  187.7600  177.6100  143.6250 C   0  0  0  0  0  0  0  0  0  0  0  0
  189.3390  177.7240  141.7660 C   0  0  0  0  0  0  0  0  0  0  0  0
  188.1880  177.9390  139.4220 C   0  0  1  0  0  0  0  0  0  0  0  0
  188.5830  177.2730  145.8800 C   0  0  0  0  0  3  0  0  0  0  0  0
  187.5170  177.4600  144.9920 C   0  0  0  0  0  3  0  0  0  0  0  0
  186.8940  177.9740  141.3870 C   0  0  0  0  0  0  0  0  0  0  0  0
  189.0870  177.5750  143.1430 C   0  0  0  0  0  0  0  0  0  0  0  0
  186.7290  178.2580  139.0520 C   0  0  0  0  0  2  0  0  0  0  0  0
  189.9000  177.2370  145.4080 C   0  0  0  0  0  3  0  0  0  0  0  0
  190.6600  177.7040  141.3000 C   0  0  0  0  0  3  0  0  0  0  0  0
  191.4710  177.3570  143.5620 C   0  0  0  0  0  3  0  0  0  0  0  0
  186.6360  177.8150  142.6900 C   0  0  0  0  0  3  0  0  0  0  0  0
  189.0840  179.0400  138.8720 C   0  0  0  0  0  1  0  0  0  0  0  0
  185.8800  178.1600  140.3250 C   0  0  2  0  0  3  0  0  0  0  0  0
  188.2150  177.9080  140.8800 N   0  0  0  0  0  0  0  0  0  0  0  0
  191.7200  177.5170  142.1950 C   0  0  0  0  0  3  0  0  0  0  0  0
  185.1180  179.4630  140.5120 C   0  0  0  0  0  2  0  0  0  0  0  0
  184.5150  179.8420  139.3030 O   0  0  0  0  0  0  0  0  0  0  0  0
  182.2120  180.1450  138.4410 C   0  0  0  0  0  2  0  0  0  0  0  0
  183.1750  179.4270  139.3650 C   0  0  1  0  0  0  0  0  0  0  0  0
  182.7160  178.7550  138.0670 C   0  0  1  0  0  3  0  0  0  0  0  0
  181.8870  176.8380  139.4710 C   0  0  0  0  0  2  0  0  0  0  0  0
  182.0330  177.6670  140.7120 C   0  0  0  0  0  3  0  0  0  0  0  0
  182.6410  178.8570  140.6650 C   0  0  0  0  0  3  0  0  0  0  0  0
  181.5880  177.7410  138.2780 C   0  0  0  0  0  2  0  0  0  0  0  0
  188.5250  176.5670  138.8330 C   0  0  0  0  0  2  0  0  0  0  0  0
  188.4230  176.5460  137.4350 O   0  0  0  0  0  0  0  0  0  0  0  0
  189.6320  175.9940  136.9890 C   0  0  1  0  0  3  0  0  0  0  0  0
  190.6210  175.7330  138.1330 C   0  0  0  0  0  2  0  0  0  0  0  0
  191.9920  176.3340  137.8700 C   0  0  0  0  0  1  0  0  0  0  0  0
  189.4000  174.7710  136.0940 C   0  0  0  0  0  2  0  0  0  0  0  0
  189.4540  173.4390  136.8340 C   0  0  0  0  0  2  0  0  0  0  0  0
  188.0850  172.7850  136.8850 C   0  0  0  0  0  1  0  0  0  0  0  0
  1 10  2  0  0  0  0
  2  6  1  0  0  0  0
  3  8  1  0  0  0  0
  4 14  1  6  0  0  0
  4 16  1  0  0  0  0
  6  5  2  0  0  0  0
  7 13  2  0  0  0  0
  8  2  2  0  0  0  0
  8  1  1  0  0  0  0
  9  4  1  0  0  0  0
  9 15  1  0  0  0  0
 10  5  1  0  0  0  0
 11  3  2  0  0  0  0
 11 17  1  0  0  0  0
 12  1  1  0  0  0  0
 13  2  1  0  0  0  0
 15 18  1  1  0  0  0
 15  7  1  0  0  0  0
 16  7  1  0  0  0  0
 16  3  1  0  0  0  0
 17 12  2  0  0  0  0
 19 18  1  0  0  0  0
 20 21  1  0  0  0  0
 21 19  1  1  0  0  0
 21 25  1  0  0  0  0
 22 26  1  1  0  0  0
 22 20  1  0  0  0  0
 22 21  1  0  0  0  0
 23 24  1  0  0  0  0
 25 24  2  0  0  0  0
 26 23  1  0  0  0  0
 27  4  1  0  0  0  0
 28 27  1  0  0  0  0
 29 32  1  1  0  0  0
 29 28  1  0  0  0  0
 29 30  1  0  0  0  0
 31 30  1  0  0  0  0
 32 33  1  0  0  0  0
 33 34  1  0  0  0  0
M  END
>  <MODEL>
6

>  <REMARK>
 VINA RESULT:      -6.6      2.773      6.025
  Name = 
  9 active torsions:
  status: ('A' for Active; 'I' for Inactive)
    1  A    between atoms: O_3  and  C_13
    2  A    between atoms: O_3  and  C_17
    3  A    between atoms: C_5  and  C_27
    4  A    between atoms: C_7  and  C_8
    5  A    between atoms: C_8  and  O_16
    6  A    between atoms: C_8  and  C_23
    7  A    between atoms: C_12  and  C_23
    8  A    between atoms: O_16  and  C_27
    9  A    between atoms: C_17  and  C_29
                            x       y       z     vdW  Elec       q    Type
                         _______ _______ _______ _____ _____    ______ ____

>  <TORSDO>
F 9

$$$$
=
 OpenBabel10262423463D

 34 39  0  0  1  0  0  0  0  0999 V2000
  186.7950  178.1760  143.6970 C   0  0  0  0  0  0  0  0  0  0  0  0
  187.9910  178.1530  141.5640 C   0  0  0  0  0  0  0  0  0  0  0  0
  185.5510  178.2380  141.5950 C   0  0  0  0  0  0  0  0  0  0  0  0
  184.4770  178.4470  139.2140 C   0  0  1  0  0  0  0  0  0  0  0  0
  189.2170  178.0960  143.6540 C   0  0  0  0  0  3  0  0  0  0  0  0
  189.2040  178.1050  142.2550 C   0  0  0  0  0  3  0  0  0  0  0  0
  186.8030  178.1830  139.4480 C   0  0  0  0  0  0  0  0  0  0  0  0
  186.7770  178.1890  142.2860 C   0  0  0  0  0  0  0  0  0  0  0  0
  185.1000  178.2690  137.8200 C   0  0  0  0  0  2  0  0  0  0  0  0
  188.0170  178.1320  144.3740 C   0  0  0  0  0  3  0  0  0  0  0  0
  184.3520  178.2570  142.3200 C   0  0  0  0  0  3  0  0  0  0  0  0
  185.5910  178.2090  144.4070 C   0  0  0  0  0  3  0  0  0  0  0  0
  187.9770  178.1550  140.0880 C   0  0  0  0  0  3  0  0  0  0  0  0
  183.3910  177.3960  139.4040 C   0  0  0  0  0  1  0  0  0  0  0  0
  186.6240  178.2180  137.9780 C   0  0  2  0  0  3  0  0  0  0  0  0
  185.5760  178.2530  140.1530 N   0  0  0  0  0  0  0  0  0  0  0  0
  184.3740  178.2470  143.7200 C   0  0  0  0  0  3  0  0  0  0  0  0
  187.1450  176.9450  137.3290 C   0  0  0  0  0  2  0  0  0  0  0  0
  188.1350  177.2600  136.3870 O   0  0  0  0  0  0  0  0  0  0  0  0
  189.2430  175.2960  135.3590 C   0  0  0  0  0  2  0  0  0  0  0  0
  189.1390  176.2840  136.5030 C   0  0  1  0  0  0  0  0  0  0  0  0
  190.2350  176.4520  135.4450 C   0  0  1  0  0  3  0  0  0  0  0  0
  191.9150  176.3590  137.3170 C   0  0  0  0  0  2  0  0  0  0  0  0
  190.8590  175.8600  138.2570 C   0  0  0  0  0  3  0  0  0  0  0  0
  189.5740  175.8390  137.8860 C   0  0  0  0  0  3  0  0  0  0  0  0
  191.5950  175.9100  135.8940 C   0  0  0  0  0  2  0  0  0  0  0  0
  183.9240  179.8720  139.2960 C   0  0  0  0  0  2  0  0  0  0  0  0
  182.5250  179.9000  139.3730 O   0  0  0  0  0  0  0  0  0  0  0  0
  182.1080  180.5480  138.2010 C   0  0  1  0  0  3  0  0  0  0  0  0
  180.9630  179.8110  137.4930 C   0  0  0  0  0  2  0  0  0  0  0  0
  181.4610  178.7530  136.5210 C   0  0  0  0  0  1  0  0  0  0  0  0
  181.8150  182.0330  138.4490 C   0  0  0  0  0  2  0  0  0  0  0  0
  180.8640  182.6570  137.4330 C   0  0  0  0  0  2  0  0  0  0  0  0
  181.2670  184.0840  137.1100 C   0  0  0  0  0  1  0  0  0  0  0  0
  1 10  1  0  0  0  0
  1 12  1  0  0  0  0
  2  6  2  0  0  0  0
  2  8  1  0  0  0  0
  3  8  1  0  0  0  0
  3 11  2  0  0  0  0
  4 27  1  0  0  0  0
  4 14  1  1  0  0  0
  4 16  1  0  0  0  0
  5 10  2  0  0  0  0
  6  5  1  0  0  0  0
  7 13  2  0  0  0  0
  7 16  1  0  0  0  0
  8  1  2  0  0  0  0
  9 15  1  0  0  0  0
  9  4  1  0  0  0  0
 11 17  1  0  0  0  0
 13  2  1  0  0  0  0
 15 18  1  6  0  0  0
 15  7  1  0  0  0  0
 16  3  1  0  0  0  0
 17 12  2  0  0  0  0
 19 18  1  0  0  0  0
 20 21  1  0  0  0  0
 21 19  1  6  0  0  0
 21 25  1  0  0  0  0
 22 20  1  6  0  0  0
 22 26  1  0  0  0  0
 22 21  1  0  0  0  0
 23 24  1  0  0  0  0
 25 24  2  0  0  0  0
 26 23  1  0  0  0  0
 27 28  1  0  0  0  0
 29 30  1  1  0  0  0
 29 32  1  0  0  0  0
 29 28  1  0  0  0  0
 31 30  1  0  0  0  0
 33 32  1  0  0  0  0
 34 33  1  0  0  0  0
M  END
>  <MODEL>
7

>  <REMARK>
 VINA RESULT:      -6.4      3.568      7.854
  Name = 
  9 active torsions:
  status: ('A' for Active; 'I' for Inactive)
    1  A    between atoms: O_3  and  C_13
    2  A    between atoms: O_3  and  C_17
    3  A    between atoms: C_5  and  C_27
    4  A    between atoms: C_7  and  C_8
    5  A    between atoms: C_8  and  O_16
    6  A    between atoms: C_8  and  C_23
    7  A    between atoms: C_12  and  C_23
    8  A    between atoms: O_16  and  C_27
    9  A    between atoms: C_17  and  C_29
                            x       y       z     vdW  Elec       q    Type
                         _______ _______ _______ _____ _____    ______ ____

>  <TORSDO>
F 9

$$$$
=
 OpenBabel10262423463D

 34 39  0  0  1  0  0  0  0  0999 V2000
  189.2310  177.7370  139.0950 C   0  0  0  0  0  0  0  0  0  0  0  0
  189.2760  177.0390  141.4380 C   0  0  0  0  0  0  0  0  0  0  0  0
  187.3080  178.1700  140.5380 C   0  0  0  0  0  0  0  0  0  0  0  0
  185.3390  178.3760  142.2540 C   0  0  1  0  0  0  0  0  0  0  0  0
  191.1770  176.6080  139.9970 C   0  0  0  0  0  3  0  0  0  0  0  0
  190.5600  176.5220  141.2500 C   0  0  0  0  0  3  0  0  0  0  0  0
  187.4050  177.4710  142.9220 C   0  0  0  0  0  0  0  0  0  0  0  0
  188.6030  177.6500  140.3560 C   0  0  0  0  0  0  0  0  0  0  0  0
  185.3100  178.1390  143.7730 C   0  0  0  0  0  2  0  0  0  0  0  0
  190.5150  177.2130  138.9210 C   0  0  0  0  0  3  0  0  0  0  0  0
  186.6570  178.7890  139.4640 C   0  0  0  0  0  3  0  0  0  0  0  0
  188.5630  178.3450  138.0280 C   0  0  0  0  0  3  0  0  0  0  0  0
  188.6280  176.9540  142.7620 C   0  0  0  0  0  3  0  0  0  0  0  0
  185.0010  179.8350  141.9790 C   0  0  0  0  0  1  0  0  0  0  0  0
  186.6150  177.4410  144.1740 C   0  0  2  0  0  3  0  0  0  0  0  0
  186.7010  178.0580  141.8420 N   0  0  0  0  0  0  0  0  0  0  0  0
  187.2810  178.8720  138.2130 C   0  0  0  0  0  3  0  0  0  0  0  0
  187.2910  178.2490  145.2720 C   0  0  0  0  0  2  0  0  0  0  0  0
  187.7030  177.3970  146.3070 O   0  0  0  0  0  0  0  0  0  0  0  0
  189.3780  178.0240  148.0230 C   0  0  0  0  0  2  0  0  0  0  0  0
  189.0470  177.7020  146.5800 C   0  0  1  0  0  0  0  0  0  0  0  0
  189.7130  176.6440  147.4660 C   0  0  1  0  0  3  0  0  0  0  0  0
  191.5660  176.5320  145.7660 C   0  0  0  0  0  2  0  0  0  0  0  0
  191.0670  177.7900  145.1200 C   0  0  0  0  0  3  0  0  0  0  0  0
  189.8960  178.3220  145.4860 C   0  0  0  0  0  3  0  0  0  0  0  0
  191.2260  176.5440  147.2540 C   0  0  0  0  0  2  0  0  0  0  0  0
  184.3290  177.4170  141.6180 C   0  0  0  0  0  2  0  0  0  0  0  0
  183.2660  178.0920  141.0030 O   0  0  0  0  0  0  0  0  0  0  0  0
  182.9760  177.3450  139.8520 C   0  0  1  0  0  3  0  0  0  0  0  0
  181.6630  176.5590  139.9730 C   0  0  0  0  0  2  0  0  0  0  0  0
  180.6600  176.9260  138.8910 C   0  0  0  0  0  1  0  0  0  0  0  0
  183.0580  178.2020  138.5840 C   0  0  0  0  0  2  0  0  0  0  0  0
  183.1760  179.6990  138.8520 C   0  0  0  0  0  2  0  0  0  0  0  0
  181.8180  180.3730  138.8050 C   0  0  0  0  0  1  0  0  0  0  0  0
  1  8  1  0  0  0  0
  2 13  1  0  0  0  0
  3 16  1  0  0  0  0
  4 14  1  6  0  0  0
  4  9  1  0  0  0  0
  5  6  2  0  0  0  0
  6  2  1  0  0  0  0
  7 15  1  0  0  0  0
  8  3  1  0  0  0  0
  8  2  2  0  0  0  0
  9 15  1  0  0  0  0
 10  1  2  0  0  0  0
 10  5  1  0  0  0  0
 11  3  2  0  0  0  0
 12 17  2  0  0  0  0
 12  1  1  0  0  0  0
 13  7  2  0  0  0  0
 15 18  1  1  0  0  0
 16  4  1  0  0  0  0
 16  7  1  0  0  0  0
 17 11  1  0  0  0  0
 18 19  1  0  0  0  0
 21 19  1  6  0  0  0
 21 22  1  0  0  0  0
 21 20  1  0  0  0  0
 22 26  1  6  0  0  0
 22 20  1  0  0  0  0
 23 26  1  0  0  0  0
 24 25  2  0  0  0  0
 24 23  1  0  0  0  0
 25 21  1  0  0  0  0
 27  4  1  0  0  0  0
 28 27  1  0  0  0  0
 29 32  1  6  0  0  0
 29 30  1  0  0  0  0
 29 28  1  0  0  0  0
 31 30  1  0  0  0  0
 32 33  1  0  0  0  0
 34 33  1  0  0  0  0
M  END
>  <MODEL>
8

>  <REMARK>
 VINA RESULT:      -6.3      2.778      8.621
  Name = 
  9 active torsions:
  status: ('A' for Active; 'I' for Inactive)
    1  A    between atoms: O_3  and  C_13
    2  A    between atoms: O_3  and  C_17
    3  A    between atoms: C_5  and  C_27
    4  A    between atoms: C_7  and  C_8
    5  A    between atoms: C_8  and  O_16
    6  A    between atoms: C_8  and  C_23
    7  A    between atoms: C_12  and  C_23
    8  A    between atoms: O_16  and  C_27
    9  A    between atoms: C_17  and  C_29
                            x       y       z     vdW  Elec       q    Type
                         _______ _______ _______ _____ _____    ______ ____

>  <TORSDO>
F 9

$$$$
=
 OpenBabel10262423463D

 34 39  0  0  1  0  0  0  0  0999 V2000
  185.2030  178.4310  139.0440 C   0  0  0  0  0  0  0  0  0  0  0  0
  187.1380  177.2330  138.1520 C   0  0  0  0  0  0  0  0  0  0  0  0
  187.2230  178.1900  140.3970 C   0  0  0  0  0  0  0  0  0  0  0  0
  189.4440  177.6590  141.6820 C   0  0  1  0  0  0  0  0  0  0  0  0
  185.1280  177.4740  136.8190 C   0  0  0  0  0  3  0  0  0  0  0  0
  186.4360  176.9990  136.9670 C   0  0  0  0  0  3  0  0  0  0  0  0
  189.1790  176.9890  139.4420 C   0  0  0  0  0  0  0  0  0  0  0  0
  186.5210  177.9520  139.2000 C   0  0  0  0  0  0  0  0  0  0  0  0
  190.7750  177.0790  141.1760 C   0  0  0  0  0  2  0  0  0  0  0  0
  184.5110  178.1870  137.8540 C   0  0  0  0  0  3  0  0  0  0  0  0
  186.6080  178.9180  141.4230 C   0  0  0  0  0  3  0  0  0  0  0  0
  184.5970  179.1450  140.0820 C   0  0  0  0  0  3  0  0  0  0  0  0
  188.5210  176.7380  138.3050 C   0  0  0  0  0  3  0  0  0  0  0  0
  189.6920  179.0630  142.2160 C   0  0  0  0  0  1  0  0  0  0  0  0
  190.5540  176.5390  139.7580 C   0  0  2  0  0  3  0  0  0  0  0  0
  188.5670  177.6800  140.5160 N   0  0  0  0  0  0  0  0  0  0  0  0
  185.2990  179.3900  141.2660 C   0  0  0  0  0  3  0  0  0  0  0  0
  191.5710  177.1770  138.8230 C   0  0  0  0  0  2  0  0  0  0  0  0
  192.5510  176.2370  138.4700 O   0  0  0  0  0  0  0  0  0  0  0  0
  191.5930  176.5430  136.2060 C   0  0  0  0  0  2  0  0  0  0  0  0
  192.1210  175.6200  137.2850 C   0  0  1  0  0  0  0  0  0  0  0  0
  193.0070  175.9810  136.0880 C   0  0  1  0  0  3  0  0  0  0  0  0
  193.2060  173.5160  135.6190 C   0  0  0  0  0  2  0  0  0  0  0  0
  192.0790  173.2320  136.5680 C   0  0  0  0  0  3  0  0  0  0  0  0
  191.5880  174.2010  137.3480 C   0  0  0  0  0  3  0  0  0  0  0  0
  193.0270  174.9000  135.0030 C   0  0  0  0  0  2  0  0  0  0  0  0
  188.9080  176.7140  142.7610 C   0  0  0  0  0  2  0  0  0  0  0  0
  189.5070  176.9330  144.0080 O   0  0  0  0  0  0  0  0  0  0  0  0
  188.4660  176.8130  144.9400 C   0  0  1  0  0  3  0  0  0  0  0  0
  188.8790  177.2610  146.3490 C   0  0  0  0  0  2  0  0  0  0  0  0
  190.3290  176.9310  146.6660 C   0  0  0  0  0  1  0  0  0  0  0  0
  187.1790  177.4810  144.4420 C   0  0  0  0  0  2  0  0  0  0  0  0
  186.3980  178.2140  145.5270 C   0  0  0  0  0  2  0  0  0  0  0  0
  185.1000  178.7800  144.9810 C   0  0  0  0  0  1  0  0  0  0  0  0
  1  8  2  0  0  0  0
  1 12  1  0  0  0  0
  2 13  1  0  0  0  0
  2  8  1  0  0  0  0
  3 16  1  0  0  0  0
  3 11  2  0  0  0  0
  4 14  1  1  0  0  0
  4 27  1  0  0  0  0
  5  6  1  0  0  0  0
  5 10  2  0  0  0  0
  6  2  2  0  0  0  0
  7 15  1  0  0  0  0
  7 16  1  0  0  0  0
  8  3  1  0  0  0  0
  9  4  1  0  0  0  0
 10  1  1  0  0  0  0
 12 17  2  0  0  0  0
 13  7  2  0  0  0  0
 15 18  1  6  0  0  0
 15  9  1  0  0  0  0
 16  4  1  0  0  0  0
 17 11  1  0  0  0  0
 19 18  1  0  0  0  0
 20 21  1  0  0  0  0
 21 25  1  0  0  0  0
 21 19  1  1  0  0  0
 22 26  1  6  0  0  0
 22 20  1  0  0  0  0
 22 21  1  0  0  0  0
 23 24  1  0  0  0  0
 24 25  2  0  0  0  0
 26 23  1  0  0  0  0
 27 28  1  0  0  0  0
 28 29  1  0  0  0  0
 29 32  1  6  0  0  0
 29 30  1  0  0  0  0
 30 31  1  0  0  0  0
 32 33  1  0  0  0  0
 34 33  1  0  0  0  0
M  END
>  <MODEL>
9

>  <REMARK>
 VINA RESULT:      -6.2      2.568      5.465
  Name = 
  9 active torsions:
  status: ('A' for Active; 'I' for Inactive)
    1  A    between atoms: O_3  and  C_13
    2  A    between atoms: O_3  and  C_17
    3  A    between atoms: C_5  and  C_27
    4  A    between atoms: C_7  and  C_8
    5  A    between atoms: C_8  and  O_16
    6  A    between atoms: C_8  and  C_23
    7  A    between atoms: C_12  and  C_23
    8  A    between atoms: O_16  and  C_27
    9  A    between atoms: C_17  and  C_29
                            x       y       z     vdW  Elec       q    Type
                         _______ _______ _______ _____ _____    ______ ____

>  <TORSDO>
F 9

$$$$
