=
 OpenBabel10272400233D

 31 36  0  0  1  0  0  0  0  0999 V2000
  190.6430  176.8910  146.1130 C   0  0  0  0  0  0  0  0  0  0  0  0
  188.0160  177.4330  143.4910 C   0  0  0  0  0  0  0  0  0  0  0  0
  186.7610  177.6720  144.2680 C   0  0  0  0  0  0  0  0  0  0  0  0
  186.4700  178.2690  146.6500 C   0  0  0  0  0  3  0  0  0  0  0  0
  189.2950  177.0470  144.1560 C   0  0  0  0  0  0  0  0  0  0  0  0
  191.6990  176.3540  145.3750 C   0  0  0  0  0  3  0  0  0  0  0  0
  186.6360  177.1580  145.6710 C   0  0  0  0  0  2  0  0  0  0  0  0
  189.2760  177.4140  141.3380 C   0  0  2  0  0  3  0  0  0  0  0  0
  190.7850  177.0890  147.5140 N   0  0  0  0  0  1  0  0  0  0  0  0
  185.7860  178.5300  142.2860 O   0  0  0  0  0  0  0  0  0  0  0  0
  185.4120  179.0760  146.6410 C   0  0  0  0  0  3  0  0  0  0  0  0
  190.1640  176.3100  141.9140 C   0  0  0  0  0  2  0  0  0  0  0  0
  188.0020  177.5740  142.1440 C   0  0  0  0  0  0  0  0  0  0  0  0
  189.4780  177.2220  145.4950 N   0  0  0  0  0  0  0  0  0  0  0  0
  184.3370  179.0330  145.6320 C   0  0  0  0  0  3  0  0  0  0  0  0
  190.3490  176.5270  143.3820 C   0  0  0  0  0  0  0  0  0  0  0  0
  191.5470  176.1690  144.0010 C   0  0  0  0  0  3  0  0  0  0  0  0
  186.7070  177.8530  141.4340 C   0  0  0  0  0  2  0  0  0  0  0  0
  185.7140  178.2650  143.6580 C   0  0  0  0  0  0  0  0  0  0  0  0
  184.4700  178.6730  144.3490 C   0  0  0  0  0  3  0  0  0  0  0  0
  189.0010  177.1430  139.9930 O   0  0  0  0  0  0  0  0  0  0  0  0
  190.4630  175.3290  135.9760 C   0  0  0  0  0  0  0  0  0  0  0  0
  190.7420  175.6570  138.4170 C   0  0  0  0  0  2  0  0  0  0  0  0
  188.7490  178.5300  137.1630 C   0  0  0  0  0  2  0  0  0  0  0  0
  189.0940  179.0470  138.5560 C   0  0  0  0  0  2  0  0  0  0  0  0
  190.6710  174.6010  134.8130 O   0  0  0  0  0  1  0  0  0  0  0  0
  189.8890  177.9480  139.2690 C   0  0  2  0  0  3  0  0  0  0  0  0
  191.0220  174.9260  137.1260 C   0  0  0  0  0  3  0  0  0  0  0  0
  189.6630  177.3840  136.9810 C   0  0  0  0  0  0  0  0  0  0  0  0
  190.5560  177.1590  138.1460 C   0  0  2  0  0  3  0  0  0  0  0  0
  189.6280  176.5480  135.9420 C   0  0  0  0  0  3  0  0  0  0  0  0
  1  9  1  0  0  0  0
  2  5  1  0  0  0  0
  2  3  1  0  0  0  0
  3  7  1  0  0  0  0
  5 14  2  0  0  0  0
  6  1  2  0  0  0  0
  7  4  1  0  0  0  0
  8 21  1  6  0  0  0
  8 12  1  0  0  0  0
  8 13  1  0  0  0  0
 10 19  1  0  0  0  0
 11  4  2  0  0  0  0
 12 16  1  0  0  0  0
 13  2  2  0  0  0  0
 14  1  1  0  0  0  0
 15 11  1  0  0  0  0
 16 17  2  0  0  0  0
 16  5  1  0  0  0  0
 17  6  1  0  0  0  0
 18 13  1  0  0  0  0
 18 10  1  0  0  0  0
 19  3  2  0  0  0  0
 19 20  1  0  0  0  0
 20 15  2  0  0  0  0
 22 28  2  0  0  0  0
 24 25  1  0  0  0  0
 25 27  1  0  0  0  0
 26 22  1  0  0  0  0
 27 21  1  6  0  0  0
 28 23  1  0  0  0  0
 29 24  1  0  0  0  0
 29 30  1  0  0  0  0
 30 23  1  1  0  0  0
 30 27  1  0  0  0  0
 31 22  1  0  0  0  0
 31 29  2  0  0  0  0
M  END
>  <MODEL>
1

>  <REMARK>
 VINA RESULT:     -10.6      0.000      0.000
  Name = 
  2 active torsions:
  status: ('A' for Active; 'I' for Inactive)
    1  A    between atoms: C_9  and  O_23
    2  A    between atoms: C_15  and  O_23
                            x       y       z     vdW  Elec       q    Type
                         _______ _______ _______ _____ _____    ______ ____

>  <TORSDO>
F 2

$$$$
=
 OpenBabel10272400233D

 31 36  0  0  1  0  0  0  0  0999 V2000
  190.7260  177.0300  144.5840 C   0  0  0  0  0  0  0  0  0  0  0  0
  187.5770  177.9980  142.7900 C   0  0  0  0  0  0  0  0  0  0  0  0
  186.5200  177.9560  143.8470 C   0  0  0  0  0  0  0  0  0  0  0  0
  186.7530  177.9470  146.3100 C   0  0  0  0  0  3  0  0  0  0  0  0
  188.9770  177.5530  143.0550 C   0  0  0  0  0  0  0  0  0  0  0  0
  191.6010  176.7580  143.5310 C   0  0  0  0  0  3  0  0  0  0  0  0
  186.7160  177.1160  145.0730 C   0  0  0  0  0  2  0  0  0  0  0  0
  188.3310  178.5790  140.4850 C   0  0  2  0  0  3  0  0  0  0  0  0
  191.1700  176.8970  145.9290 N   0  0  0  0  0  1  0  0  0  0  0  0
  185.1190  179.1930  142.3900 O   0  0  0  0  0  0  0  0  0  0  0  0
  185.7060  178.6580  146.7230 C   0  0  0  0  0  3  0  0  0  0  0  0
  189.3410  177.4340  140.5690 C   0  0  0  0  0  2  0  0  0  0  0  0
  187.2640  178.4540  141.5540 C   0  0  0  0  0  0  0  0  0  0  0  0
  189.4480  177.4170  144.3260 N   0  0  0  0  0  0  0  0  0  0  0  0
  184.4360  178.7810  145.9840 C   0  0  0  0  0  3  0  0  0  0  0  0
  189.8420  177.3070  141.9720 C   0  0  0  0  0  0  0  0  0  0  0  0
  191.1520  176.8960  142.2180 C   0  0  0  0  0  3  0  0  0  0  0  0
  185.8400  178.8040  141.2240 C   0  0  0  0  0  2  0  0  0  0  0  0
  185.3560  178.6040  143.6370 C   0  0  0  0  0  0  0  0  0  0  0  0
  184.2890  178.7490  144.6540 C   0  0  0  0  0  3  0  0  0  0  0  0
  187.7700  178.6190  139.2030 O   0  0  0  0  0  0  0  0  0  0  0  0
  185.4130  177.2440  135.4450 C   0  0  0  0  0  0  0  0  0  0  0  0
  185.8460  177.1090  137.8820 C   0  0  0  0  0  2  0  0  0  0  0  0
  188.9780  178.3230  136.2960 C   0  0  0  0  0  2  0  0  0  0  0  0
  189.5070  177.9960  137.6890 C   0  0  0  0  0  2  0  0  0  0  0  0
  184.5790  177.0980  134.3460 O   0  0  0  0  0  1  0  0  0  0  0  0
  188.3190  177.5190  138.5310 C   0  0  2  0  0  3  0  0  0  0  0  0
  184.9840  176.8840  136.6640 C   0  0  0  0  0  3  0  0  0  0  0  0
  187.6560  177.6650  136.2630 C   0  0  0  0  0  0  0  0  0  0  0  0
  187.3300  176.9440  137.5200 C   0  0  2  0  0  3  0  0  0  0  0  0
  186.7750  177.7900  135.2680 C   0  0  0  0  0  3  0  0  0  0  0  0
  1  9  1  0  0  0  0
  2  5  1  0  0  0  0
  2  3  1  0  0  0  0
  3  7  1  0  0  0  0
  4 11  2  0  0  0  0
  5 14  2  0  0  0  0
  6  1  2  0  0  0  0
  7  4  1  0  0  0  0
  8 21  1  6  0  0  0
  8 12  1  0  0  0  0
  8 13  1  0  0  0  0
 10 19  1  0  0  0  0
 12 16  1  0  0  0  0
 13  2  2  0  0  0  0
 14  1  1  0  0  0  0
 15 11  1  0  0  0  0
 16 17  2  0  0  0  0
 16  5  1  0  0  0  0
 17  6  1  0  0  0  0
 18 13  1  0  0  0  0
 18 10  1  0  0  0  0
 19  3  2  0  0  0  0
 19 20  1  0  0  0  0
 20 15  2  0  0  0  0
 22 28  2  0  0  0  0
 24 25  1  0  0  0  0
 25 27  1  0  0  0  0
 26 22  1  0  0  0  0
 27 21  1  6  0  0  0
 28 23  1  0  0  0  0
 29 24  1  0  0  0  0
 29 30  1  0  0  0  0
 30 23  1  1  0  0  0
 30 27  1  0  0  0  0
 31 22  1  0  0  0  0
 31 29  2  0  0  0  0
M  END
>  <MODEL>
2

>  <REMARK>
 VINA RESULT:     -10.6      2.056      2.590
  Name = 
  2 active torsions:
  status: ('A' for Active; 'I' for Inactive)
    1  A    between atoms: C_9  and  O_23
    2  A    between atoms: C_15  and  O_23
                            x       y       z     vdW  Elec       q    Type
                         _______ _______ _______ _____ _____    ______ ____

>  <TORSDO>
F 2

$$$$
=
 OpenBabel10272400233D

 31 36  0  0  1  0  0  0  0  0999 V2000
  190.4500  176.9220  146.0550 C   0  0  0  0  0  0  0  0  0  0  0  0
  188.0910  177.7690  143.2640 C   0  0  0  0  0  0  0  0  0  0  0  0
  186.7500  177.8450  143.9230 C   0  0  0  0  0  0  0  0  0  0  0  0
  186.1800  178.0630  146.3200 C   0  0  0  0  0  3  0  0  0  0  0  0
  189.3100  177.3280  144.0040 C   0  0  0  0  0  0  0  0  0  0  0  0
  191.6040  176.5390  145.3680 C   0  0  0  0  0  3  0  0  0  0  0  0
  186.5040  177.1200  145.2120 C   0  0  0  0  0  2  0  0  0  0  0  0
  189.5700  178.1190  141.2870 C   0  0  2  0  0  3  0  0  0  0  0  0
  190.4340  176.9090  147.4770 N   0  0  0  0  0  1  0  0  0  0  0  0
  185.9480  178.9610  141.9930 O   0  0  0  0  0  0  0  0  0  0  0  0
  185.0900  178.8270  146.3120 C   0  0  0  0  0  3  0  0  0  0  0  0
  190.4450  176.9700  141.7890 C   0  0  0  0  0  2  0  0  0  0  0  0
  188.2110  178.1120  141.9600 C   0  0  0  0  0  0  0  0  0  0  0  0
  189.3420  177.3050  145.3660 N   0  0  0  0  0  0  0  0  0  0  0  0
  184.1310  178.9010  145.1940 C   0  0  0  0  0  3  0  0  0  0  0  0
  190.4640  176.9680  143.2840 C   0  0  0  0  0  0  0  0  0  0  0  0
  191.6060  176.5600  143.9740 C   0  0  0  0  0  3  0  0  0  0  0  0
  186.9860  178.4530  141.1590 C   0  0  0  0  0  2  0  0  0  0  0  0
  185.7450  178.4890  143.2940 C   0  0  0  0  0  0  0  0  0  0  0  0
  184.4170  178.7460  143.8950 C   0  0  0  0  0  3  0  0  0  0  0  0
  189.4510  178.0460  139.8940 O   0  0  0  0  0  0  0  0  0  0  0  0
  188.1280  176.6730  135.6600 C   0  0  0  0  0  0  0  0  0  0  0  0
  187.6760  176.9050  138.0860 C   0  0  0  0  0  2  0  0  0  0  0  0
  191.3680  176.8600  137.6760 C   0  0  0  0  0  2  0  0  0  0  0  0
  191.2760  176.6790  139.1880 C   0  0  0  0  0  2  0  0  0  0  0  0
  187.6970  176.5530  134.3460 O   0  0  0  0  0  1  0  0  0  0  0  0
  189.7920  176.7280  139.5670 C   0  0  2  0  0  3  0  0  0  0  0  0
  187.2330  176.6940  136.6580 C   0  0  0  0  0  3  0  0  0  0  0  0
  189.9890  176.6040  137.2110 C   0  0  0  0  0  0  0  0  0  0  0  0
  189.0540  176.2640  138.3140 C   0  0  2  0  0  3  0  0  0  0  0  0
  189.5730  176.7720  135.9540 C   0  0  0  0  0  3  0  0  0  0  0  0
  1  9  1  0  0  0  0
  2  3  1  0  0  0  0
  2  5  1  0  0  0  0
  3  7  1  0  0  0  0
  5 14  1  0  0  0  0
  6  1  1  0  0  0  0
  7  4  1  0  0  0  0
  8 21  1  6  0  0  0
  8 12  1  0  0  0  0
  8 13  1  0  0  0  0
 10 19  1  0  0  0  0
 11  4  2  0  0  0  0
 12 16  1  0  0  0  0
 13  2  2  0  0  0  0
 14  1  2  0  0  0  0
 15 11  1  0  0  0  0
 16 17  1  0  0  0  0
 16  5  2  0  0  0  0
 17  6  2  0  0  0  0
 18 13  1  0  0  0  0
 18 10  1  0  0  0  0
 19 20  1  0  0  0  0
 19  3  2  0  0  0  0
 20 15  2  0  0  0  0
 22 31  1  0  0  0  0
 22 28  2  0  0  0  0
 24 25  1  0  0  0  0
 25 27  1  0  0  0  0
 26 22  1  0  0  0  0
 27 21  1  6  0  0  0
 28 23  1  0  0  0  0
 29 24  1  0  0  0  0
 29 30  1  0  0  0  0
 30 23  1  6  0  0  0
 30 27  1  0  0  0  0
 31 29  2  0  0  0  0
M  END
>  <MODEL>
3

>  <REMARK>
 VINA RESULT:      -9.9      1.167      1.616
  Name = 
  2 active torsions:
  status: ('A' for Active; 'I' for Inactive)
    1  A    between atoms: C_9  and  O_23
    2  A    between atoms: C_15  and  O_23
                            x       y       z     vdW  Elec       q    Type
                         _______ _______ _______ _____ _____    ______ ____

>  <TORSDO>
F 2

$$$$
=
 OpenBabel10272400233D

 31 36  0  0  1  0  0  0  0  0999 V2000
  185.5430  178.1930  144.9500 C   0  0  0  0  0  0  0  0  0  0  0  0
  188.9610  177.6310  143.5120 C   0  0  0  0  0  0  0  0  0  0  0  0
  189.8440  177.4650  144.7070 C   0  0  0  0  0  0  0  0  0  0  0  0
  189.2420  176.9740  147.0560 C   0  0  0  0  0  3  0  0  0  0  0  0
  187.5210  178.0030  143.6390 C   0  0  0  0  0  0  0  0  0  0  0  0
  184.8260  178.6660  143.8490 C   0  0  0  0  0  3  0  0  0  0  0  0
  189.4330  178.0380  146.0300 C   0  0  0  0  0  2  0  0  0  0  0  0
  188.5860  177.5230  141.0480 C   0  0  2  0  0  3  0  0  0  0  0  0
  184.8960  178.0470  146.2090 N   0  0  0  0  0  1  0  0  0  0  0  0
  191.4950  176.5590  143.2690 O   0  0  0  0  0  0  0  0  0  0  0  0
  190.2400  176.2010  147.4770 C   0  0  0  0  0  3  0  0  0  0  0  0
  187.5320  178.6200  141.2010 C   0  0  0  0  0  2  0  0  0  0  0  0
  189.4750  177.4370  142.2730 C   0  0  0  0  0  0  0  0  0  0  0  0
  186.8590  177.8750  144.8230 N   0  0  0  0  0  0  0  0  0  0  0  0
  191.6110  176.2380  146.9350 C   0  0  0  0  0  3  0  0  0  0  0  0
  186.8200  178.4570  142.5050 C   0  0  0  0  0  0  0  0  0  0  0  0
  185.4730  178.8000  142.6210 C   0  0  0  0  0  3  0  0  0  0  0  0
  190.9440  177.1710  142.1060 C   0  0  0  0  0  2  0  0  0  0  0  0
  191.0500  176.8810  144.5560 C   0  0  0  0  0  0  0  0  0  0  0  0
  191.9560  176.5410  145.6770 C   0  0  0  0  0  3  0  0  0  0  0  0
  189.3350  177.7480  139.8880 O   0  0  0  0  0  0  0  0  0  0  0  0
  187.5550  178.0370  135.6080 C   0  0  0  0  0  0  0  0  0  0  0  0
  187.2600  177.6680  138.0410 C   0  0  0  0  0  2  0  0  0  0  0  0
  190.7820  176.8030  137.2400 C   0  0  0  0  0  2  0  0  0  0  0  0
  190.6910  176.2240  138.6480 C   0  0  0  0  0  2  0  0  0  0  0  0
  187.0680  178.4140  134.3650 O   0  0  0  0  0  1  0  0  0  0  0  0
  189.2900  176.5380  139.1840 C   0  0  2  0  0  3  0  0  0  0  0  0
  186.7320  177.9970  136.6660 C   0  0  0  0  0  3  0  0  0  0  0  0
  189.3730  177.0520  136.8740 C   0  0  0  0  0  0  0  0  0  0  0  0
  188.4150  176.6600  137.9390 C   0  0  2  0  0  3  0  0  0  0  0  0
  188.9800  177.6750  135.7610 C   0  0  0  0  0  3  0  0  0  0  0  0
  1  9  1  0  0  0  0
  2  5  1  0  0  0  0
  2  3  1  0  0  0  0
  3  7  1  0  0  0  0
  4 11  2  0  0  0  0
  5 14  2  0  0  0  0
  6  1  2  0  0  0  0
  7  4  1  0  0  0  0
  8 21  1  6  0  0  0
  8 12  1  0  0  0  0
  8 13  1  0  0  0  0
 10 19  1  0  0  0  0
 12 16  1  0  0  0  0
 13  2  2  0  0  0  0
 14  1  1  0  0  0  0
 15 11  1  0  0  0  0
 16 17  2  0  0  0  0
 16  5  1  0  0  0  0
 17  6  1  0  0  0  0
 18 13  1  0  0  0  0
 18 10  1  0  0  0  0
 19  3  2  0  0  0  0
 19 20  1  0  0  0  0
 20 15  2  0  0  0  0
 22 31  1  0  0  0  0
 22 28  2  0  0  0  0
 24 25  1  0  0  0  0
 25 27  1  0  0  0  0
 26 22  1  0  0  0  0
 27 21  1  6  0  0  0
 28 23  1  0  0  0  0
 29 24  1  0  0  0  0
 29 30  1  0  0  0  0
 30 23  1  1  0  0  0
 30 27  1  0  0  0  0
 31 29  2  0  0  0  0
M  END
>  <MODEL>
4

>  <REMARK>
 VINA RESULT:      -9.7      2.014      4.401
  Name = 
  2 active torsions:
  status: ('A' for Active; 'I' for Inactive)
    1  A    between atoms: C_9  and  O_23
    2  A    between atoms: C_15  and  O_23
                            x       y       z     vdW  Elec       q    Type
                         _______ _______ _______ _____ _____    ______ ____

>  <TORSDO>
F 2

$$$$
=
 OpenBabel10272400233D

 31 36  0  0  1  0  0  0  0  0999 V2000
  187.5230  178.0980  137.6080 C   0  0  0  0  0  0  0  0  0  0  0  0
  185.7450  178.5910  140.8740 C   0  0  0  0  0  0  0  0  0  0  0  0
  184.3380  178.9180  140.4840 C   0  0  0  0  0  0  0  0  0  0  0  0
  183.1800  178.5800  138.3250 C   0  0  0  0  0  3  0  0  0  0  0  0
  186.8300  178.4410  139.8610 C   0  0  0  0  0  0  0  0  0  0  0  0
  188.8660  178.1260  137.9890 C   0  0  0  0  0  3  0  0  0  0  0  0
  184.0470  179.4880  139.1280 C   0  0  0  0  0  2  0  0  0  0  0  0
  187.4490  178.0120  142.6000 C   0  0  2  0  0  3  0  0  0  0  0  0
  187.1770  177.9100  136.2410 N   0  0  0  0  0  1  0  0  0  0  0  0
  183.6930  178.4660  142.7190 O   0  0  0  0  0  0  0  0  0  0  0  0
  181.9340  178.2800  138.6840 C   0  0  0  0  0  3  0  0  0  0  0  0
  188.5080  178.6730  141.7190 C   0  0  0  0  0  2  0  0  0  0  0  0
  186.0500  178.4200  142.1820 C   0  0  0  0  0  0  0  0  0  0  0  0
  186.5460  178.2540  138.5410 N   0  0  0  0  0  0  0  0  0  0  0  0
  181.2960  178.7250  139.9370 C   0  0  0  0  0  3  0  0  0  0  0  0
  188.1740  178.4520  140.2780 C   0  0  0  0  0  0  0  0  0  0  0  0
  189.1900  178.3070  139.3330 C   0  0  0  0  0  3  0  0  0  0  0  0
  185.0060  178.6730  143.2340 C   0  0  0  0  0  2  0  0  0  0  0  0
  183.3560  178.7860  141.3990 C   0  0  0  0  0  0  0  0  0  0  0  0
  181.9150  178.9510  141.1030 C   0  0  0  0  0  3  0  0  0  0  0  0
  187.6930  178.3240  143.9430 O   0  0  0  0  0  0  0  0  0  0  0  0
  190.9700  177.1180  147.0040 C   0  0  0  0  0  0  0  0  0  0  0  0
  190.0240  177.0230  144.7150 C   0  0  0  0  0  2  0  0  0  0  0  0
  187.2050  177.7650  147.0170 C   0  0  0  0  0  2  0  0  0  0  0  0
  186.4200  177.4260  145.7530 C   0  0  0  0  0  2  0  0  0  0  0  0
  192.0390  177.0380  147.8850 O   0  0  0  0  0  1  0  0  0  0  0  0
  187.4390  177.1380  144.6440 C   0  0  2  0  0  3  0  0  0  0  0  0
  191.1560  176.8630  145.7010 C   0  0  0  0  0  3  0  0  0  0  0  0
  188.5680  177.2800  146.7200 C   0  0  0  0  0  0  0  0  0  0  0  0
  188.6870  176.6560  145.3780 C   0  0  2  0  0  3  0  0  0  0  0  0
  189.6280  177.4780  147.5070 C   0  0  0  0  0  3  0  0  0  0  0  0
  1  6  2  0  0  0  0
  1 14  1  0  0  0  0
  2 13  2  0  0  0  0
  3  2  1  0  0  0  0
  3 19  2  0  0  0  0
  4 11  2  0  0  0  0
  4  7  1  0  0  0  0
  5 16  1  0  0  0  0
  5  2  1  0  0  0  0
  6 17  1  0  0  0  0
  7  3  1  0  0  0  0
  8 21  1  1  0  0  0
  9  1  1  0  0  0  0
 10 18  1  0  0  0  0
 11 15  1  0  0  0  0
 12  8  1  0  0  0  0
 13  8  1  0  0  0  0
 13 18  1  0  0  0  0
 14  5  2  0  0  0  0
 15 20  2  0  0  0  0
 16 12  1  0  0  0  0
 17 16  2  0  0  0  0
 19 10  1  0  0  0  0
 20 19  1  0  0  0  0
 22 31  1  0  0  0  0
 22 26  1  0  0  0  0
 23 28  1  0  0  0  0
 25 24  1  0  0  0  0
 27 21  1  1  0  0  0
 27 30  1  0  0  0  0
 27 25  1  0  0  0  0
 28 22  2  0  0  0  0
 29 24  1  0  0  0  0
 29 31  2  0  0  0  0
 30 23  1  6  0  0  0
 30 29  1  0  0  0  0
M  END
>  <MODEL>
5

>  <REMARK>
 VINA RESULT:      -9.6      3.568      7.396
  Name = 
  2 active torsions:
  status: ('A' for Active; 'I' for Inactive)
    1  A    between atoms: C_9  and  O_23
    2  A    between atoms: C_15  and  O_23
                            x       y       z     vdW  Elec       q    Type
                         _______ _______ _______ _____ _____    ______ ____

>  <TORSDO>
F 2

$$$$
=
 OpenBabel10272400233D

 31 36  0  0  1  0  0  0  0  0999 V2000
  182.4280  178.3550  138.1780 C   0  0  0  0  0  0  0  0  0  0  0  0
  185.8550  178.3950  139.7020 C   0  0  0  0  0  0  0  0  0  0  0  0
  186.7620  177.9860  138.5850 C   0  0  0  0  0  0  0  0  0  0  0  0
  186.3410  177.9380  136.1480 C   0  0  0  0  0  3  0  0  0  0  0  0
  184.3710  178.3880  139.5560 C   0  0  0  0  0  0  0  0  0  0  0  0
  181.5990  178.4120  139.3000 C   0  0  0  0  0  3  0  0  0  0  0  0
  186.2240  177.1920  137.4330 C   0  0  0  0  0  2  0  0  0  0  0  0
  185.4990  179.2810  142.0060 C   0  0  2  0  0  3  0  0  0  0  0  0
  181.8580  178.3050  136.8760 N   0  0  0  0  0  1  0  0  0  0  0  0
  188.5830  178.7990  139.8650 O   0  0  0  0  0  0  0  0  0  0  0  0
  187.5160  178.2760  135.6230 C   0  0  0  0  0  3  0  0  0  0  0  0
  184.1890  178.4960  142.0620 C   0  0  0  0  0  2  0  0  0  0  0  0
  186.3900  178.7880  140.8820 C   0  0  0  0  0  0  0  0  0  0  0  0
  183.7800  178.3450  138.3290 N   0  0  0  0  0  0  0  0  0  0  0  0
  188.8200  178.0390  136.2710 C   0  0  0  0  0  3  0  0  0  0  0  0
  183.5610  178.4660  140.7050 C   0  0  0  0  0  0  0  0  0  0  0  0
  182.1730  178.4640  140.5700 C   0  0  0  0  0  3  0  0  0  0  0  0
  187.8750  178.7010  141.0980 C   0  0  0  0  0  2  0  0  0  0  0  0
  188.0810  178.2560  138.6770 C   0  0  0  0  0  0  0  0  0  0  0  0
  189.0560  178.0220  137.5880 C   0  0  0  0  0  3  0  0  0  0  0  0
  186.1470  179.2040  143.2440 O   0  0  0  0  0  0  0  0  0  0  0  0
  188.7700  177.2070  146.5160 C   0  0  0  0  0  0  0  0  0  0  0  0
  188.0080  177.3550  144.1610 C   0  0  0  0  0  2  0  0  0  0  0  0
  185.3010  178.7880  146.2620 C   0  0  0  0  0  2  0  0  0  0  0  0
  184.5550  178.6590  144.9370 C   0  0  0  0  0  2  0  0  0  0  0  0
  189.7130  176.8590  147.4710 O   0  0  0  0  0  1  0  0  0  0  0  0
  185.5490  178.1220  143.9020 C   0  0  2  0  0  3  0  0  0  0  0  0
  188.9850  176.9130  145.2250 C   0  0  0  0  0  3  0  0  0  0  0  0
  186.5160  177.9740  146.0580 C   0  0  0  0  0  0  0  0  0  0  0  0
  186.5760  177.3390  144.7170 C   0  0  2  0  0  3  0  0  0  0  0  0
  187.5280  177.8970  146.9250 C   0  0  0  0  0  3  0  0  0  0  0  0
  1 14  2  0  0  0  0
  1  6  1  0  0  0  0
  2 13  2  0  0  0  0
  3 19  2  0  0  0  0
  3  2  1  0  0  0  0
  4  7  1  0  0  0  0
  5  2  1  0  0  0  0
  5 16  2  0  0  0  0
  6 17  2  0  0  0  0
  7  3  1  0  0  0  0
  8 12  1  0  0  0  0
  8 21  1  1  0  0  0
  9  1  1  0  0  0  0
 10 18  1  0  0  0  0
 11  4  2  0  0  0  0
 11 15  1  0  0  0  0
 13 18  1  0  0  0  0
 13  8  1  0  0  0  0
 14  5  1  0  0  0  0
 15 20  2  0  0  0  0
 16 12  1  0  0  0  0
 17 16  1  0  0  0  0
 19 10  1  0  0  0  0
 20 19  1  0  0  0  0
 22 31  1  0  0  0  0
 22 26  1  0  0  0  0
 23 28  1  0  0  0  0
 25 24  1  0  0  0  0
 27 21  1  1  0  0  0
 27 30  1  0  0  0  0
 27 25  1  0  0  0  0
 28 22  2  0  0  0  0
 29 24  1  0  0  0  0
 29 31  2  0  0  0  0
 30 23  1  6  0  0  0
 30 29  1  0  0  0  0
M  END
>  <MODEL>
6

>  <REMARK>
 VINA RESULT:      -9.5      3.687      8.627
  Name = 
  2 active torsions:
  status: ('A' for Active; 'I' for Inactive)
    1  A    between atoms: C_9  and  O_23
    2  A    between atoms: C_15  and  O_23
                            x       y       z     vdW  Elec       q    Type
                         _______ _______ _______ _____ _____    ______ ____

>  <TORSDO>
F 2

$$$$
=
 OpenBabel10272400233D

 31 36  0  0  1  0  0  0  0  0999 V2000
  192.5260  176.7470  138.8390 C   0  0  0  0  0  0  0  0  0  0  0  0
  189.0280  177.9250  139.5050 C   0  0  0  0  0  0  0  0  0  0  0  0
  188.4510  178.1610  138.1460 C   0  0  0  0  0  0  0  0  0  0  0  0
  189.2390  177.3680  135.9390 C   0  0  0  0  0  3  0  0  0  0  0  0
  190.4620  177.5630  139.7020 C   0  0  0  0  0  0  0  0  0  0  0  0
  193.1260  176.8570  140.0950 C   0  0  0  0  0  3  0  0  0  0  0  0
  189.3570  178.4270  136.9810 C   0  0  0  0  0  2  0  0  0  0  0  0
  188.7690  177.7300  141.9780 C   0  0  2  0  0  3  0  0  0  0  0  0
  193.2810  176.2710  137.7310 N   0  0  0  0  0  1  0  0  0  0  0  0
  186.3030  178.1970  139.1450 O   0  0  0  0  0  0  0  0  0  0  0  0
  188.1110  177.1510  135.2670 C   0  0  0  0  0  3  0  0  0  0  0  0
  190.2200  178.1890  142.1260 C   0  0  0  0  0  2  0  0  0  0  0  0
  188.2310  178.0380  140.5950 C   0  0  0  0  0  0  0  0  0  0  0  0
  191.2230  177.0980  138.6720 N   0  0  0  0  0  0  0  0  0  0  0  0
  186.8390  177.8540  135.5200 C   0  0  0  0  0  3  0  0  0  0  0  0
  191.0330  177.6640  140.9850 C   0  0  0  0  0  0  0  0  0  0  0  0
  192.3720  177.3210  141.1720 C   0  0  0  0  0  3  0  0  0  0  0  0
  186.8120  178.5090  140.4390 C   0  0  0  0  0  2  0  0  0  0  0  0
  187.1110  178.2270  138.0040 C   0  0  0  0  0  0  0  0  0  0  0  0
  186.4170  178.3240  136.7000 C   0  0  0  0  0  3  0  0  0  0  0  0
  187.9850  178.3220  142.9750 O   0  0  0  0  0  0  0  0  0  0  0  0
  188.0860  177.8940  147.5990 C   0  0  0  0  0  0  0  0  0  0  0  0
  188.9890  177.3150  145.3630 C   0  0  0  0  0  2  0  0  0  0  0  0
  185.4520  178.3350  144.8670 C   0  0  0  0  0  2  0  0  0  0  0  0
  185.7350  177.7210  143.5000 C   0  0  0  0  0  2  0  0  0  0  0  0
  188.2320  178.0390  148.9710 O   0  0  0  0  0  1  0  0  0  0  0  0
  187.2020  177.2800  143.4900 C   0  0  2  0  0  3  0  0  0  0  0  0
  189.0990  177.4050  146.8660 C   0  0  0  0  0  3  0  0  0  0  0  0
  186.5840  177.8740  145.6960 C   0  0  0  0  0  0  0  0  0  0  0  0
  187.5390  177.0120  144.9540 C   0  0  2  0  0  3  0  0  0  0  0  0
  186.8140  178.2740  146.9490 C   0  0  0  0  0  3  0  0  0  0  0  0
  1  6  1  0  0  0  0
  2  5  1  0  0  0  0
  2 13  2  0  0  0  0
  3  2  1  0  0  0  0
  4  7  1  0  0  0  0
  5 16  2  0  0  0  0
  6 17  2  0  0  0  0
  7  3  1  0  0  0  0
  8 12  1  0  0  0  0
  8 21  1  1  0  0  0
  9  1  1  0  0  0  0
 10 18  1  0  0  0  0
 11 15  1  0  0  0  0
 11  4  2  0  0  0  0
 13  8  1  0  0  0  0
 14  1  2  0  0  0  0
 14  5  1  0  0  0  0
 15 20  2  0  0  0  0
 16 17  1  0  0  0  0
 16 12  1  0  0  0  0
 18 13  1  0  0  0  0
 19  3  2  0  0  0  0
 19 10  1  0  0  0  0
 20 19  1  0  0  0  0
 22 26  1  0  0  0  0
 23 28  1  0  0  0  0
 24 29  1  0  0  0  0
 25 24  1  0  0  0  0
 27 21  1  1  0  0  0
 27 25  1  0  0  0  0
 27 30  1  0  0  0  0
 28 22  2  0  0  0  0
 29 31  2  0  0  0  0
 30 23  1  6  0  0  0
 30 29  1  0  0  0  0
 31 22  1  0  0  0  0
M  END
>  <MODEL>
7

>  <REMARK>
 VINA RESULT:      -9.2      2.902      7.727
  Name = 
  2 active torsions:
  status: ('A' for Active; 'I' for Inactive)
    1  A    between atoms: C_9  and  O_23
    2  A    between atoms: C_15  and  O_23
                            x       y       z     vdW  Elec       q    Type
                         _______ _______ _______ _____ _____    ______ ____

>  <TORSDO>
F 2

$$$$
=
 OpenBabel10272400233D

 31 36  0  0  1  0  0  0  0  0999 V2000
  184.8480  179.2860  140.1560 C   0  0  0  0  0  0  0  0  0  0  0  0
  188.1840  177.5770  140.2960 C   0  0  0  0  0  0  0  0  0  0  0  0
  188.5390  177.3390  138.8620 C   0  0  0  0  0  0  0  0  0  0  0  0
  187.6020  178.3630  136.8140 C   0  0  0  0  0  3  0  0  0  0  0  0
  186.8590  178.1320  140.6990 C   0  0  0  0  0  0  0  0  0  0  0  0
  184.4060  179.1920  141.4770 C   0  0  0  0  0  3  0  0  0  0  0  0
  187.4610  177.2740  137.8220 C   0  0  0  0  0  2  0  0  0  0  0  0
  188.7860  177.5900  142.7160 C   0  0  2  0  0  3  0  0  0  0  0  0
  184.0370  179.9290  139.1810 N   0  0  0  0  0  1  0  0  0  0  0  0
  190.7670  176.9360  139.5580 O   0  0  0  0  0  0  0  0  0  0  0  0
  188.6530  178.4530  136.0030 C   0  0  0  0  0  3  0  0  0  0  0  0
  187.3140  177.3390  143.0420 C   0  0  0  0  0  2  0  0  0  0  0  0
  189.0890  177.2880  141.2610 C   0  0  0  0  0  0  0  0  0  0  0  0
  186.0500  178.7600  139.8000 N   0  0  0  0  0  0  0  0  0  0  0  0
  189.8260  177.5600  136.0540 C   0  0  0  0  0  3  0  0  0  0  0  0
  186.4500  178.0400  142.0430 C   0  0  0  0  0  0  0  0  0  0  0  0
  185.2130  178.5620  142.4240 C   0  0  0  0  0  3  0  0  0  0  0  0
  190.3880  176.6260  140.8960 C   0  0  0  0  0  2  0  0  0  0  0  0
  189.8240  177.0880  138.5370 C   0  0  0  0  0  0  0  0  0  0  0  0
  190.3210  176.9670  137.1470 C   0  0  0  0  0  3  0  0  0  0  0  0
  189.5940  176.8350  143.5740 O   0  0  0  0  0  0  0  0  0  0  0  0
  188.3060  177.4090  147.9990 C   0  0  0  0  0  0  0  0  0  0  0  0
  188.1310  178.0380  145.6070 C   0  0  0  0  0  2  0  0  0  0  0  0
  191.4950  176.5360  146.0830 C   0  0  0  0  0  2  0  0  0  0  0  0
  191.6790  177.1420  144.6960 C   0  0  0  0  0  2  0  0  0  0  0  0
  187.7760  177.3250  149.2780 O   0  0  0  0  0  1  0  0  0  0  0  0
  190.3440  177.7760  144.2910 C   0  0  2  0  0  3  0  0  0  0  0  0
  187.6070  178.0070  147.0230 C   0  0  0  0  0  3  0  0  0  0  0  0
  190.2550  177.1690  146.5770 C   0  0  0  0  0  0  0  0  0  0  0  0
  189.6640  178.1300  145.6110 C   0  0  2  0  0  3  0  0  0  0  0  0
  189.6410  176.8420  147.7160 C   0  0  0  0  0  3  0  0  0  0  0  0
  1  6  1  0  0  0  0
  2  5  1  0  0  0  0
  2 13  2  0  0  0  0
  3  2  1  0  0  0  0
  4  7  1  0  0  0  0
  5 16  2  0  0  0  0
  6 17  2  0  0  0  0
  7  3  1  0  0  0  0
  8 12  1  0  0  0  0
  8 21  1  1  0  0  0
  9  1  1  0  0  0  0
 10 18  1  0  0  0  0
 11 15  1  0  0  0  0
 11  4  2  0  0  0  0
 13  8  1  0  0  0  0
 14  1  2  0  0  0  0
 14  5  1  0  0  0  0
 15 20  2  0  0  0  0
 16 17  1  0  0  0  0
 16 12  1  0  0  0  0
 18 13  1  0  0  0  0
 19  3  2  0  0  0  0
 19 10  1  0  0  0  0
 20 19  1  0  0  0  0
 22 26  1  0  0  0  0
 23 28  1  0  0  0  0
 24 29  1  0  0  0  0
 25 24  1  0  0  0  0
 27 21  1  1  0  0  0
 27 25  1  0  0  0  0
 27 30  1  0  0  0  0
 28 22  2  0  0  0  0
 29 31  2  0  0  0  0
 30 23  1  6  0  0  0
 30 29  1  0  0  0  0
 31 22  1  0  0  0  0
M  END
>  <MODEL>
8

>  <REMARK>
 VINA RESULT:      -9.1      2.830      8.202
  Name = 
  2 active torsions:
  status: ('A' for Active; 'I' for Inactive)
    1  A    between atoms: C_9  and  O_23
    2  A    between atoms: C_15  and  O_23
                            x       y       z     vdW  Elec       q    Type
                         _______ _______ _______ _____ _____    ______ ____

>  <TORSDO>
F 2

$$$$
=
 OpenBabel10272400233D

 31 36  0  0  1  0  0  0  0  0999 V2000
  186.6350  177.7760  146.0690 C   0  0  0  0  0  0  0  0  0  0  0  0
  186.6540  178.3020  142.3550 C   0  0  0  0  0  0  0  0  0  0  0  0
  188.0900  178.1440  141.9660 C   0  0  0  0  0  0  0  0  0  0  0  0
  189.9610  177.1220  143.2200 C   0  0  0  0  0  3  0  0  0  0  0  0
  186.2180  178.2930  143.7820 C   0  0  0  0  0  0  0  0  0  0  0  0
  185.3730  178.2490  146.4340 C   0  0  0  0  0  3  0  0  0  0  0  0
  189.1720  178.3640  142.9800 C   0  0  0  0  0  2  0  0  0  0  0  0
  184.2460  178.5390  141.7500 C   0  0  2  0  0  3  0  0  0  0  0  0
  187.5150  177.2630  147.0620 N   0  0  0  0  0  1  0  0  0  0  0  0
  187.3780  177.9220  139.7170 O   0  0  0  0  0  0  0  0  0  0  0  0
  190.6950  176.5480  142.2700 C   0  0  0  0  0  3  0  0  0  0  0  0
  184.0360  179.3110  143.0540 C   0  0  0  0  0  2  0  0  0  0  0  0
  185.7160  178.4540  141.3900 C   0  0  0  0  0  0  0  0  0  0  0  0
  187.0250  177.8070  144.7660 N   0  0  0  0  0  0  0  0  0  0  0  0
  190.7520  177.0040  140.8680 C   0  0  0  0  0  3  0  0  0  0  0  0
  184.9320  178.7570  144.1160 C   0  0  0  0  0  0  0  0  0  0  0  0
  184.5200  178.7450  145.4490 C   0  0  0  0  0  3  0  0  0  0  0  0
  186.1350  178.5790  139.9520 C   0  0  0  0  0  2  0  0  0  0  0  0
  188.3970  177.9000  140.6750 C   0  0  0  0  0  0  0  0  0  0  0  0
  189.7620  177.5950  140.1880 C   0  0  0  0  0  3  0  0  0  0  0  0
  183.5020  179.1350  140.7260 O   0  0  0  0  0  0  0  0  0  0  0  0
  181.1130  179.8000  136.7990 C   0  0  0  0  0  0  0  0  0  0  0  0
  181.5250  180.3350  139.1840 C   0  0  0  0  0  2  0  0  0  0  0  0
  182.7890  176.8880  138.6190 C   0  0  0  0  0  2  0  0  0  0  0  0
  182.8170  176.9230  140.1430 C   0  0  0  0  0  2  0  0  0  0  0  0
  180.6450  180.1390  135.5370 O   0  0  0  0  0  1  0  0  0  0  0  0
  182.3700  178.3240  140.5780 C   0  0  2  0  0  3  0  0  0  0  0  0
  180.9530  180.6510  137.8230 C   0  0  0  0  0  3  0  0  0  0  0  0
  181.9740  178.0660  138.2580 C   0  0  0  0  0  0  0  0  0  0  0  0
  181.4830  178.8200  139.4390 C   0  0  2  0  0  3  0  0  0  0  0  0
  181.7840  178.5000  137.0100 C   0  0  0  0  0  3  0  0  0  0  0  0
  1  6  1  0  0  0  0
  1  9  1  0  0  0  0
  2  5  1  0  0  0  0
  3  2  1  0  0  0  0
  3  7  1  0  0  0  0
  5 16  2  0  0  0  0
  5 14  1  0  0  0  0
  7  4  1  0  0  0  0
  8 21  1  6  0  0  0
  8 12  1  0  0  0  0
 10 18  1  0  0  0  0
 10 19  1  0  0  0  0
 11  4  2  0  0  0  0
 12 16  1  0  0  0  0
 13  8  1  0  0  0  0
 13  2  2  0  0  0  0
 14  1  2  0  0  0  0
 15 11  1  0  0  0  0
 16 17  1  0  0  0  0
 17  6  2  0  0  0  0
 18 13  1  0  0  0  0
 19  3  2  0  0  0  0
 20 19  1  0  0  0  0
 20 15  2  0  0  0  0
 22 31  1  0  0  0  0
 22 28  2  0  0  0  0
 24 25  1  0  0  0  0
 25 27  1  0  0  0  0
 26 22  1  0  0  0  0
 27 21  1  6  0  0  0
 28 23  1  0  0  0  0
 29 24  1  0  0  0  0
 29 30  1  0  0  0  0
 30 23  1  6  0  0  0
 30 27  1  0  0  0  0
 31 29  2  0  0  0  0
M  END
>  <MODEL>
9

>  <REMARK>
 VINA RESULT:      -9.1      3.772      6.694
  Name = 
  2 active torsions:
  status: ('A' for Active; 'I' for Inactive)
    1  A    between atoms: C_9  and  O_23
    2  A    between atoms: C_15  and  O_23
                            x       y       z     vdW  Elec       q    Type
                         _______ _______ _______ _____ _____    ______ ____

>  <TORSDO>
F 2

$$$$
