=
 OpenBabel10272401463D

 28 29  0  0  1  0  0  0  0  0999 V2000
  184.3590  178.7220  142.7000 C   0  0  2  0  0  3  0  0  0  0  0  0
  186.5250  177.7090  147.0500 O   0  0  0  0  0  1  0  0  0  0  0  0
  187.9030  177.3720  143.4630 C   0  0  0  0  0  2  0  0  0  0  0  0
  185.4960  178.0890  144.9500 C   0  0  0  0  0  0  0  0  0  0  0  0
  186.9030  178.3600  142.8850 C   0  0  0  0  0  2  0  0  0  0  0  0
  183.1490  179.0800  144.7990 C   0  0  0  0  0  2  0  0  0  0  0  0
  186.5830  177.7290  145.6590 C   0  0  0  0  0  0  0  0  0  0  0  0
  184.3000  178.6350  145.6950 C   0  0  0  0  0  2  0  0  0  0  0  0
  187.9050  177.3880  144.9970 C   0  0  2  0  0  3  0  0  0  0  0  0
  183.6790  179.7730  143.5600 C   0  0  0  0  0  2  0  0  0  0  0  0
  185.5240  178.0130  143.4290 C   0  0  2  0  0  3  0  0  0  0  0  0
  184.7560  179.2800  141.4710 O   0  0  0  0  0  0  0  0  0  0  0  0
  184.2690  178.4850  140.4040 C   0  0  1  0  0  3  0  0  0  0  0  0
  182.5820  176.6500  139.8580 C   0  0  0  0  0  1  0  0  0  0  0  0
  182.8290  177.9610  140.5850 C   0  0  2  0  0  3  0  0  0  0  0  0
  180.8160  179.2540  141.2990 C   0  0  0  0  0  1  0  0  0  0  0  0
  181.7920  178.9930  140.1680 C   0  0  0  0  0  2  0  0  0  0  0  0
  184.5870  179.0340  139.0100 C   0  0  0  0  0  2  0  0  0  0  0  0
  185.7740  178.3050  138.4120 C   0  0  0  0  0  1  0  0  0  0  0  0
  189.0990  178.1720  145.5580 C   0  0  0  0  0  2  0  0  0  0  0  0
  190.3870  178.0740  144.7320 C   0  0  0  0  0  2  0  0  0  0  0  0
  191.4230  176.5800  146.3180 C   0  0  0  0  0  3  0  0  0  0  0  0
  191.1790  176.8440  145.0260 C   0  0  0  0  0  0  0  0  0  0  0  0
  190.7880  175.5690  142.9180 C   0  0  0  0  0  2  0  0  0  0  0  0
  191.5950  176.0010  143.8800 C   0  0  0  0  0  3  0  0  0  0  0  0
  192.1510  175.3900  146.8530 C   0  0  0  0  0  2  0  0  0  0  0  0
  192.9040  175.7650  148.1140 C   0  0  0  0  0  2  0  0  0  0  0  0
  192.4590  177.0050  148.5690 O   0  0  0  0  0  1  0  0  0  0  0  0
  1 12  1  6  0  0  0
  1 11  1  0  0  0  0
  1 10  1  0  0  0  0
  3  9  1  0  0  0  0
  4  7  2  0  0  0  0
  4  8  1  0  0  0  0
  5  3  1  0  0  0  0
  6  8  1  0  0  0  0
  7  2  1  0  0  0  0
  9 20  1  6  0  0  0
  9  7  1  0  0  0  0
 10  6  1  0  0  0  0
 11  5  1  6  0  0  0
 11  4  1  0  0  0  0
 13 18  1  6  0  0  0
 13 15  1  0  0  0  0
 13 12  1  0  0  0  0
 15 14  1  6  0  0  0
 17 15  1  0  0  0  0
 17 16  1  0  0  0  0
 19 18  1  0  0  0  0
 21 23  1  0  0  0  0
 21 20  1  0  0  0  0
 22 26  1  0  0  0  0
 23 22  2  0  0  0  0
 24 25  2  0  0  0  0
 25 23  1  0  0  0  0
 26 27  1  0  0  0  0
 27 28  1  0  0  0  0
M  END
>  <MODEL>
1

>  <REMARK>
 VINA RESULT:      -7.6      0.000      0.000
  Name = 
  11 active torsions:
  status: ('A' for Active; 'I' for Inactive)
    1  A    between atoms: C_1  and  O_2
    2  A    between atoms: O_2  and  C_3
    3  A    between atoms: C_3  and  C_7
    4  A    between atoms: C_3  and  C_11
    5  A    between atoms: C_4  and  C_24
    6  A    between atoms: C_11  and  C_22
    7  A    between atoms: C_12  and  C_24
    8  A    between atoms: C_13  and  C_15
    9  A    between atoms: C_13  and  C_18
   10  A    between atoms: C_14  and  C_18
   11  A    between atoms: C_14  and  C_25
                            x       y       z     vdW  Elec       q    Type
                         _______ _______ _______ _____ _____    ______ ____

>  <TORSDO>
F 11

$$$$
=
 OpenBabel10272401463D

 28 29  0  0  1  0  0  0  0  0999 V2000
  187.2440  177.9720  145.3370 C   0  0  2  0  0  3  0  0  0  0  0  0
  182.8020  179.4060  143.6480 O   0  0  0  0  0  1  0  0  0  0  0  0
  186.0260  178.5510  141.7110 C   0  0  0  0  0  2  0  0  0  0  0  0
  184.9630  178.8120  144.4170 C   0  0  0  0  0  0  0  0  0  0  0  0
  186.6070  177.7310  142.8520 C   0  0  0  0  0  2  0  0  0  0  0  0
  185.4120  178.4200  146.8980 C   0  0  0  0  0  2  0  0  0  0  0  0
  184.1230  179.0490  143.3910 C   0  0  0  0  0  0  0  0  0  0  0  0
  184.3940  178.7650  145.8160 C   0  0  0  0  0  2  0  0  0  0  0  0
  184.5480  178.8920  141.9430 C   0  0  2  0  0  3  0  0  0  0  0  0
  186.3650  177.3490  146.4080 C   0  0  0  0  0  2  0  0  0  0  0  0
  186.4330  178.5230  144.1410 C   0  0  2  0  0  3  0  0  0  0  0  0
  188.2410  177.0630  144.9350 O   0  0  0  0  0  0  0  0  0  0  0  0
  189.5130  177.5420  145.3310 C   0  0  1  0  0  3  0  0  0  0  0  0
  189.7770  177.6080  147.8690 C   0  0  0  0  0  1  0  0  0  0  0  0
  190.1050  176.8640  146.5850 C   0  0  2  0  0  3  0  0  0  0  0  0
  192.1150  175.7730  147.5840 C   0  0  0  0  0  1  0  0  0  0  0  0
  191.6080  176.6640  146.4680 C   0  0  0  0  0  2  0  0  0  0  0  0
  190.5020  177.7420  144.1780 C   0  0  0  0  0  2  0  0  0  0  0  0
  190.8420  179.2110  144.0210 C   0  0  0  0  0  1  0  0  0  0  0  0
  183.6190  177.9910  141.1180 C   0  0  0  0  0  2  0  0  0  0  0  0
  183.2260  178.5460  139.7440 C   0  0  0  0  0  2  0  0  0  0  0  0
  185.1300  178.2740  138.2870 C   0  0  0  0  0  3  0  0  0  0  0  0
  183.9020  177.8440  138.6140 C   0  0  0  0  0  0  0  0  0  0  0  0
  183.0680  175.4960  138.4910 C   0  0  0  0  0  2  0  0  0  0  0  0
  183.1850  176.7140  137.9760 C   0  0  0  0  0  3  0  0  0  0  0  0
  186.0130  177.6980  137.2280 C   0  0  0  0  0  2  0  0  0  0  0  0
  187.4250  177.5430  137.7560 C   0  0  0  0  0  2  0  0  0  0  0  0
  187.7200  178.6030  138.6130 O   0  0  0  0  0  1  0  0  0  0  0  0
  1 12  1  6  0  0  0
  1 10  1  0  0  0  0
  3  9  1  0  0  0  0
  3  5  1  0  0  0  0
  4  8  1  0  0  0  0
  7  2  1  0  0  0  0
  7  4  2  0  0  0  0
  8  6  1  0  0  0  0
  9 20  1  1  0  0  0
  9  7  1  0  0  0  0
 10  6  1  0  0  0  0
 11  5  1  6  0  0  0
 11  4  1  0  0  0  0
 11  1  1  0  0  0  0
 12 13  1  0  0  0  0
 13 18  1  6  0  0  0
 13 15  1  0  0  0  0
 15 14  1  1  0  0  0
 17 15  1  0  0  0  0
 17 16  1  0  0  0  0
 19 18  1  0  0  0  0
 21 20  1  0  0  0  0
 22 23  2  0  0  0  0
 23 21  1  0  0  0  0
 25 24  2  0  0  0  0
 25 23  1  0  0  0  0
 26 27  1  0  0  0  0
 26 22  1  0  0  0  0
 27 28  1  0  0  0  0
M  END
>  <MODEL>
2

>  <REMARK>
 VINA RESULT:      -7.5      1.815      7.944
  Name = 
  11 active torsions:
  status: ('A' for Active; 'I' for Inactive)
    1  A    between atoms: C_1  and  O_2
    2  A    between atoms: O_2  and  C_3
    3  A    between atoms: C_3  and  C_7
    4  A    between atoms: C_3  and  C_11
    5  A    between atoms: C_4  and  C_24
    6  A    between atoms: C_11  and  C_22
    7  A    between atoms: C_12  and  C_24
    8  A    between atoms: C_13  and  C_15
    9  A    between atoms: C_13  and  C_18
   10  A    between atoms: C_14  and  C_18
   11  A    between atoms: C_14  and  C_25
                            x       y       z     vdW  Elec       q    Type
                         _______ _______ _______ _____ _____    ______ ____

>  <TORSDO>
F 11

$$$$
=
 OpenBabel10272401463D

 28 29  0  0  1  0  0  0  0  0999 V2000
  184.4240  178.5440  142.5350 C   0  0  2  0  0  3  0  0  0  0  0  0
  186.3620  177.8320  147.0500 O   0  0  0  0  0  1  0  0  0  0  0  0
  187.9160  177.2420  143.5690 C   0  0  0  0  0  2  0  0  0  0  0  0
  185.4420  178.0670  144.8780 C   0  0  0  0  0  0  0  0  0  0  0  0
  186.9540  178.1900  142.8740 C   0  0  0  0  0  2  0  0  0  0  0  0
  183.1120  179.0510  144.5400 C   0  0  0  0  0  2  0  0  0  0  0  0
  186.4900  177.7550  145.6650 C   0  0  0  0  0  0  0  0  0  0  0  0
  184.2140  178.6670  145.5220 C   0  0  0  0  0  2  0  0  0  0  0  0
  187.8420  177.3650  145.0960 C   0  0  2  0  0  3  0  0  0  0  0  0
  183.7070  179.6540  143.2850 C   0  0  0  0  0  2  0  0  0  0  0  0
  185.5460  177.8850  143.3700 C   0  0  2  0  0  3  0  0  0  0  0  0
  184.8860  179.0140  141.2910 O   0  0  0  0  0  0  0  0  0  0  0  0
  183.9490  178.6910  140.2800 C   0  0  1  0  0  3  0  0  0  0  0  0
  183.6800  177.9130  137.8640 C   0  0  0  0  0  1  0  0  0  0  0  0
  184.5000  178.7410  138.8390 C   0  0  2  0  0  3  0  0  0  0  0  0
  186.3860  178.0950  137.3370 C   0  0  0  0  0  1  0  0  0  0  0  0
  185.9620  178.3270  138.7750 C   0  0  0  0  0  2  0  0  0  0  0  0
  183.0730  177.4740  140.5940 C   0  0  0  0  0  2  0  0  0  0  0  0
  181.6110  177.8710  140.6350 C   0  0  0  0  0  1  0  0  0  0  0  0
  189.0110  178.1830  145.6600 C   0  0  0  0  0  2  0  0  0  0  0  0
  190.2920  178.1520  144.8190 C   0  0  0  0  0  2  0  0  0  0  0  0
  191.4020  176.6620  146.3590 C   0  0  0  0  0  3  0  0  0  0  0  0
  191.1320  176.9450  145.0760 C   0  0  0  0  0  0  0  0  0  0  0  0
  191.7150  176.6120  142.6730 C   0  0  0  0  0  2  0  0  0  0  0  0
  191.5630  176.1430  143.9060 C   0  0  0  0  0  3  0  0  0  0  0  0
  192.1790  175.4870  146.8580 C   0  0  0  0  0  2  0  0  0  0  0  0
  192.7460  175.7840  148.2320 C   0  0  0  0  0  2  0  0  0  0  0  0
  192.4720  177.1080  148.5700 O   0  0  0  0  0  1  0  0  0  0  0  0
  1 12  1  6  0  0  0
  1 10  1  0  0  0  0
  1 11  1  0  0  0  0
  3  9  1  0  0  0  0
  4  8  1  0  0  0  0
  4  7  2  0  0  0  0
  5  3  1  0  0  0  0
  6  8  1  0  0  0  0
  7  2  1  0  0  0  0
  9 20  1  6  0  0  0
  9  7  1  0  0  0  0
 10  6  1  0  0  0  0
 11  5  1  6  0  0  0
 11  4  1  0  0  0  0
 13 18  1  1  0  0  0
 13 12  1  0  0  0  0
 15 14  1  6  0  0  0
 15 13  1  0  0  0  0
 16 17  1  0  0  0  0
 17 15  1  0  0  0  0
 18 19  1  0  0  0  0
 21 23  1  0  0  0  0
 21 20  1  0  0  0  0
 22 26  1  0  0  0  0
 23 22  2  0  0  0  0
 24 25  2  0  0  0  0
 25 23  1  0  0  0  0
 26 27  1  0  0  0  0
 27 28  1  0  0  0  0
M  END
>  <MODEL>
3

>  <REMARK>
 VINA RESULT:      -7.4      0.589      2.014
  Name = 
  11 active torsions:
  status: ('A' for Active; 'I' for Inactive)
    1  A    between atoms: C_1  and  O_2
    2  A    between atoms: O_2  and  C_3
    3  A    between atoms: C_3  and  C_7
    4  A    between atoms: C_3  and  C_11
    5  A    between atoms: C_4  and  C_24
    6  A    between atoms: C_11  and  C_22
    7  A    between atoms: C_12  and  C_24
    8  A    between atoms: C_13  and  C_15
    9  A    between atoms: C_13  and  C_18
   10  A    between atoms: C_14  and  C_18
   11  A    between atoms: C_14  and  C_25
                            x       y       z     vdW  Elec       q    Type
                         _______ _______ _______ _____ _____    ______ ____

>  <TORSDO>
F 11

$$$$
=
 OpenBabel10272401463D

 28 29  0  0  1  0  0  0  0  0999 V2000
  184.8700  178.4000  142.9270 C   0  0  2  0  0  3  0  0  0  0  0  0
  187.1220  177.7050  147.2960 O   0  0  0  0  0  1  0  0  0  0  0  0
  188.1870  176.5920  143.7600 C   0  0  0  0  0  2  0  0  0  0  0  0
  186.0340  177.9320  145.2040 C   0  0  0  0  0  0  0  0  0  0  0  0
  187.3280  177.6380  143.0690 C   0  0  0  0  0  2  0  0  0  0  0  0
  183.8770  179.2780  144.9860 C   0  0  0  0  0  2  0  0  0  0  0  0
  187.0910  177.5030  145.9190 C   0  0  0  0  0  0  0  0  0  0  0  0
  184.9950  178.7840  145.8970 C   0  0  0  0  0  2  0  0  0  0  0  0
  188.2930  176.8420  145.2700 C   0  0  2  0  0  3  0  0  0  0  0  0
  184.4300  179.6720  143.6320 C   0  0  0  0  0  2  0  0  0  0  0  0
  185.9490  177.6210  143.7150 C   0  0  2  0  0  3  0  0  0  0  0  0
  185.2720  178.6880  141.6090 O   0  0  0  0  0  0  0  0  0  0  0  0
  184.1320  178.8270  140.7810 C   0  0  1  0  0  3  0  0  0  0  0  0
  183.3180  180.1990  138.7890 C   0  0  0  0  0  1  0  0  0  0  0  0
  184.4220  179.3170  139.3460 C   0  0  2  0  0  3  0  0  0  0  0  0
  186.1370  178.1940  137.9210 C   0  0  0  0  0  1  0  0  0  0  0  0
  184.6970  178.1620  138.3960 C   0  0  0  0  0  2  0  0  0  0  0  0
  183.1330  177.6700  140.8790 C   0  0  0  0  0  2  0  0  0  0  0  0
  181.7330  178.1980  141.1190 C   0  0  0  0  0  1  0  0  0  0  0  0
  189.6340  177.4840  145.6490 C   0  0  0  0  0  2  0  0  0  0  0  0
  190.8720  176.8080  145.0490 C   0  0  0  0  0  2  0  0  0  0  0  0
  191.5080  176.8500  142.7220 C   0  0  0  0  0  3  0  0  0  0  0  0
  191.4240  177.5380  143.8700 C   0  0  0  0  0  0  0  0  0  0  0  0
  190.9730  179.9920  143.8860 C   0  0  0  0  0  2  0  0  0  0  0  0
  191.7940  178.9630  144.0520 C   0  0  0  0  0  3  0  0  0  0  0  0
  191.9830  177.3820  141.4080 C   0  0  0  0  0  2  0  0  0  0  0  0
  190.9490  177.1080  140.3330 C   0  0  0  0  0  2  0  0  0  0  0  0
  189.7730  177.7920  140.6360 O   0  0  0  0  0  1  0  0  0  0  0  0
  1 12  1  6  0  0  0
  1 10  1  0  0  0  0
  1 11  1  0  0  0  0
  3  9  1  0  0  0  0
  4  8  1  0  0  0  0
  4  7  2  0  0  0  0
  5  3  1  0  0  0  0
  6  8  1  0  0  0  0
  7  2  1  0  0  0  0
  9 20  1  6  0  0  0
  9  7  1  0  0  0  0
 10  6  1  0  0  0  0
 11  5  1  6  0  0  0
 11  4  1  0  0  0  0
 13 18  1  6  0  0  0
 13 12  1  0  0  0  0
 15 14  1  6  0  0  0
 15 13  1  0  0  0  0
 16 17  1  0  0  0  0
 17 15  1  0  0  0  0
 18 19  1  0  0  0  0
 21 20  1  0  0  0  0
 22 23  2  0  0  0  0
 23 25  1  0  0  0  0
 23 21  1  0  0  0  0
 24 25  2  0  0  0  0
 26 22  1  0  0  0  0
 27 28  1  0  0  0  0
 27 26  1  0  0  0  0
M  END
>  <MODEL>
4

>  <REMARK>
 VINA RESULT:      -7.2      1.628      3.426
  Name = 
  11 active torsions:
  status: ('A' for Active; 'I' for Inactive)
    1  A    between atoms: C_1  and  O_2
    2  A    between atoms: O_2  and  C_3
    3  A    between atoms: C_3  and  C_7
    4  A    between atoms: C_3  and  C_11
    5  A    between atoms: C_4  and  C_24
    6  A    between atoms: C_11  and  C_22
    7  A    between atoms: C_12  and  C_24
    8  A    between atoms: C_13  and  C_15
    9  A    between atoms: C_13  and  C_18
   10  A    between atoms: C_14  and  C_18
   11  A    between atoms: C_14  and  C_25
                            x       y       z     vdW  Elec       q    Type
                         _______ _______ _______ _____ _____    ______ ____

>  <TORSDO>
F 11

$$$$
=
 OpenBabel10272401463D

 28 29  0  0  1  0  0  0  0  0999 V2000
  188.3020  177.6130  143.8690 C   0  0  2  0  0  3  0  0  0  0  0  0
  186.4290  178.6500  139.3900 O   0  0  0  0  0  1  0  0  0  0  0  0
  190.0090  177.6260  140.3980 C   0  0  0  0  0  2  0  0  0  0  0  0
  187.3860  178.2400  141.5190 C   0  0  0  0  0  0  0  0  0  0  0  0
  189.5620  176.9970  141.7080 C   0  0  0  0  0  2  0  0  0  0  0  0
  185.9430  178.2230  143.6240 C   0  0  0  0  0  2  0  0  0  0  0  0
  187.5210  178.3010  140.1810 C   0  0  0  0  0  0  0  0  0  0  0  0
  186.0000  178.3770  142.1080 C   0  0  0  0  0  2  0  0  0  0  0  0
  188.8220  177.9500  139.4820 C   0  0  2  0  0  3  0  0  0  0  0  0
  186.8790  177.1240  144.0820 C   0  0  0  0  0  2  0  0  0  0  0  0
  188.6020  177.9600  142.3920 C   0  0  2  0  0  3  0  0  0  0  0  0
  189.2200  176.6870  144.3990 O   0  0  0  0  0  0  0  0  0  0  0  0
  190.0890  177.3410  145.3060 C   0  0  1  0  0  3  0  0  0  0  0  0
  189.0030  177.5350  147.6070 C   0  0  0  0  0  1  0  0  0  0  0  0
  190.0360  176.8150  146.7560 C   0  0  2  0  0  3  0  0  0  0  0  0
  191.9940  175.4800  147.5390 C   0  0  0  0  0  1  0  0  0  0  0  0
  191.3980  176.8700  147.4310 C   0  0  0  0  0  2  0  0  0  0  0  0
  191.4990  177.5930  144.7620 C   0  0  0  0  0  2  0  0  0  0  0  0
  191.6060  178.9960  144.1990 C   0  0  0  0  0  1  0  0  0  0  0  0
  188.6640  176.9120  138.3630 C   0  0  0  0  0  2  0  0  0  0  0  0
  189.6670  177.0400  137.2100 C   0  0  0  0  0  2  0  0  0  0  0  0
  191.7640  175.9360  137.6630 C   0  0  0  0  0  3  0  0  0  0  0  0
  190.5600  175.8520  137.0770 C   0  0  0  0  0  0  0  0  0  0  0  0
  189.4580  173.6200  136.9160 C   0  0  0  0  0  2  0  0  0  0  0  0
  190.0360  174.6720  136.3490 C   0  0  0  0  0  3  0  0  0  0  0  0
  192.8030  174.8620  137.7020 C   0  0  0  0  0  2  0  0  0  0  0  0
  194.0640  175.3340  137.0070 C   0  0  0  0  0  2  0  0  0  0  0  0
  194.0490  176.7250  136.9120 O   0  0  0  0  0  1  0  0  0  0  0  0
  1 10  1  0  0  0  0
  1 12  1  6  0  0  0
  2  7  1  0  0  0  0
  3  5  1  0  0  0  0
  4  8  1  0  0  0  0
  4 11  1  0  0  0  0
  6 10  1  0  0  0  0
  7  4  2  0  0  0  0
  8  6  1  0  0  0  0
  9 20  1  6  0  0  0
  9  7  1  0  0  0  0
  9  3  1  0  0  0  0
 11  5  1  6  0  0  0
 11  1  1  0  0  0  0
 12 13  1  0  0  0  0
 13 18  1  6  0  0  0
 13 15  1  0  0  0  0
 15 17  1  0  0  0  0
 15 14  1  1  0  0  0
 17 16  1  0  0  0  0
 19 18  1  0  0  0  0
 21 20  1  0  0  0  0
 22 26  1  0  0  0  0
 23 21  1  0  0  0  0
 23 22  2  0  0  0  0
 25 24  2  0  0  0  0
 25 23  1  0  0  0  0
 27 26  1  0  0  0  0
 28 27  1  0  0  0  0
M  END
>  <MODEL>
5

>  <REMARK>
 VINA RESULT:      -7.1      3.913      7.797
  Name = 
  11 active torsions:
  status: ('A' for Active; 'I' for Inactive)
    1  A    between atoms: C_1  and  O_2
    2  A    between atoms: O_2  and  C_3
    3  A    between atoms: C_3  and  C_7
    4  A    between atoms: C_3  and  C_11
    5  A    between atoms: C_4  and  C_24
    6  A    between atoms: C_11  and  C_22
    7  A    between atoms: C_12  and  C_24
    8  A    between atoms: C_13  and  C_15
    9  A    between atoms: C_13  and  C_18
   10  A    between atoms: C_14  and  C_18
   11  A    between atoms: C_14  and  C_25
                            x       y       z     vdW  Elec       q    Type
                         _______ _______ _______ _____ _____    ______ ____

>  <TORSDO>
F 11

$$$$
=
 OpenBabel10272401463D

 28 29  0  0  1  0  0  0  0  0999 V2000
  187.0550  178.0920  145.3070 C   0  0  2  0  0  3  0  0  0  0  0  0
  182.6260  179.2520  143.3870 O   0  0  0  0  0  1  0  0  0  0  0  0
  185.9970  178.6180  141.6230 C   0  0  0  0  0  2  0  0  0  0  0  0
  184.7770  178.7910  144.2680 C   0  0  0  0  0  0  0  0  0  0  0  0
  186.5670  177.8290  142.7900 C   0  0  0  0  0  2  0  0  0  0  0  0
  185.1160  178.4100  146.7690 C   0  0  0  0  0  2  0  0  0  0  0  0
  183.9790  178.9820  143.2000 C   0  0  0  0  0  0  0  0  0  0  0  0
  184.1380  178.6980  145.6350 C   0  0  0  0  0  2  0  0  0  0  0  0
  184.4900  178.8620  141.7760 C   0  0  2  0  0  3  0  0  0  0  0  0
  186.1610  177.4070  146.3270 C   0  0  0  0  0  2  0  0  0  0  0  0
  186.2750  178.5980  144.0710 C   0  0  2  0  0  3  0  0  0  0  0  0
  188.1280  177.2510  144.9560 O   0  0  0  0  0  0  0  0  0  0  0  0
  189.3400  177.7920  145.4490 C   0  0  1  0  0  3  0  0  0  0  0  0
  189.5750  177.6350  147.9850 C   0  0  0  0  0  1  0  0  0  0  0  0
  189.9550  177.0320  146.6440 C   0  0  2  0  0  3  0  0  0  0  0  0
  191.9620  175.6560  147.1990 C   0  0  0  0  0  1  0  0  0  0  0  0
  191.4680  176.9240  146.5300 C   0  0  0  0  0  2  0  0  0  0  0  0
  190.3380  178.2040  144.3620 C   0  0  0  0  0  2  0  0  0  0  0  0
  190.1950  177.3100  143.1460 C   0  0  0  0  0  1  0  0  0  0  0  0
  183.6660  177.9100  140.8990 C   0  0  0  0  0  2  0  0  0  0  0  0
  183.4020  178.4040  139.4720 C   0  0  0  0  0  2  0  0  0  0  0  0
  183.6220  176.4310  138.1000 C   0  0  0  0  0  3  0  0  0  0  0  0
  184.1400  177.6220  138.4370 C   0  0  0  0  0  0  0  0  0  0  0  0
  186.5990  177.9810  138.2170 C   0  0  0  0  0  2  0  0  0  0  0  0
  185.3510  178.2350  137.8410 C   0  0  0  0  0  3  0  0  0  0  0  0
  184.1570  175.4980  137.0630 C   0  0  0  0  0  2  0  0  0  0  0  0
  183.8790  174.0620  137.4620 C   0  0  0  0  0  2  0  0  0  0  0  0
  182.5400  173.7630  137.2160 O   0  0  0  0  0  1  0  0  0  0  0  0
  1 12  1  6  0  0  0
  1 10  1  0  0  0  0
  3  9  1  0  0  0  0
  3  5  1  0  0  0  0
  4  8  1  0  0  0  0
  7  2  1  0  0  0  0
  7  4  2  0  0  0  0
  8  6  1  0  0  0  0
  9 20  1  1  0  0  0
  9  7  1  0  0  0  0
 10  6  1  0  0  0  0
 11  5  1  6  0  0  0
 11  4  1  0  0  0  0
 11  1  1  0  0  0  0
 12 13  1  0  0  0  0
 13 18  1  6  0  0  0
 13 15  1  0  0  0  0
 15 14  1  1  0  0  0
 17 15  1  0  0  0  0
 17 16  1  0  0  0  0
 19 18  1  0  0  0  0
 21 20  1  0  0  0  0
 22 23  2  0  0  0  0
 23 21  1  0  0  0  0
 25 24  2  0  0  0  0
 25 23  1  0  0  0  0
 26 27  1  0  0  0  0
 26 22  1  0  0  0  0
 28 27  1  0  0  0  0
M  END
>  <MODEL>
6

>  <REMARK>
 VINA RESULT:      -7.1      2.138      8.224
  Name = 
  11 active torsions:
  status: ('A' for Active; 'I' for Inactive)
    1  A    between atoms: C_1  and  O_2
    2  A    between atoms: O_2  and  C_3
    3  A    between atoms: C_3  and  C_7
    4  A    between atoms: C_3  and  C_11
    5  A    between atoms: C_4  and  C_24
    6  A    between atoms: C_11  and  C_22
    7  A    between atoms: C_12  and  C_24
    8  A    between atoms: C_13  and  C_15
    9  A    between atoms: C_13  and  C_18
   10  A    between atoms: C_14  and  C_18
   11  A    between atoms: C_14  and  C_25
                            x       y       z     vdW  Elec       q    Type
                         _______ _______ _______ _____ _____    ______ ____

>  <TORSDO>
F 11

$$$$
=
 OpenBabel10272401463D

 28 29  0  0  1  0  0  0  0  0999 V2000
  187.7190  177.6640  145.3780 C   0  0  2  0  0  3  0  0  0  0  0  0
  183.4390  179.8230  144.0890 O   0  0  0  0  0  1  0  0  0  0  0  0
  186.2770  178.4380  141.8730 C   0  0  0  0  0  2  0  0  0  0  0  0
  185.5340  178.8750  144.6610 C   0  0  0  0  0  0  0  0  0  0  0  0
  186.8180  177.5330  142.9680 C   0  0  0  0  0  2  0  0  0  0  0  0
  186.1430  178.4140  147.0960 C   0  0  0  0  0  2  0  0  0  0  0  0
  184.6520  179.2500  143.7150 C   0  0  0  0  0  0  0  0  0  0  0  0
  185.1000  178.9240  146.1080 C   0  0  0  0  0  2  0  0  0  0  0  0
  184.9060  179.0230  142.2360 C   0  0  2  0  0  3  0  0  0  0  0  0
  186.8540  177.1980  146.5370 C   0  0  0  0  0  2  0  0  0  0  0  0
  186.9020  178.3430  144.2540 C   0  0  2  0  0  3  0  0  0  0  0  0
  188.5070  176.6000  144.8990 O   0  0  0  0  0  0  0  0  0  0  0  0
  189.8750  176.8690  145.1480 C   0  0  1  0  0  3  0  0  0  0  0  0
  190.6010  178.7470  143.5790 C   0  0  0  0  0  1  0  0  0  0  0  0
  190.7000  177.2660  143.9050 C   0  0  2  0  0  3  0  0  0  0  0  0
  190.3500  177.2930  141.4340 C   0  0  0  0  0  1  0  0  0  0  0  0
  190.3240  176.4380  142.6860 C   0  0  0  0  0  2  0  0  0  0  0  0
  190.1370  177.7200  146.3950 C   0  0  0  0  0  2  0  0  0  0  0  0
  190.8050  176.8890  147.4720 C   0  0  0  0  0  1  0  0  0  0  0  0
  183.7650  178.2910  141.5170 C   0  0  0  0  0  2  0  0  0  0  0  0
  183.3720  178.8760  140.1550 C   0  0  0  0  0  2  0  0  0  0  0  0
  185.0840  178.4090  138.5190 C   0  0  0  0  0  3  0  0  0  0  0  0
  183.8790  178.0720  139.0040 C   0  0  0  0  0  0  0  0  0  0  0  0
  182.5920  175.9520  139.2690 C   0  0  0  0  0  2  0  0  0  0  0  0
  183.0360  176.9540  138.5190 C   0  0  0  0  0  3  0  0  0  0  0  0
  185.8100  177.7230  137.4080 C   0  0  0  0  0  2  0  0  0  0  0  0
  187.3000  177.7170  137.6870 C   0  0  0  0  0  2  0  0  0  0  0  0
  187.5980  178.6890  138.6420 O   0  0  0  0  0  1  0  0  0  0  0  0
  1 12  1  6  0  0  0
  1 10  1  0  0  0  0
  3  9  1  0  0  0  0
  3  5  1  0  0  0  0
  4  8  1  0  0  0  0
  7  2  1  0  0  0  0
  7  4  2  0  0  0  0
  8  6  1  0  0  0  0
  9 20  1  1  0  0  0
  9  7  1  0  0  0  0
 10  6  1  0  0  0  0
 11  5  1  6  0  0  0
 11  4  1  0  0  0  0
 11  1  1  0  0  0  0
 12 13  1  0  0  0  0
 13 18  1  1  0  0  0
 15 14  1  6  0  0  0
 15 13  1  0  0  0  0
 16 17  1  0  0  0  0
 17 15  1  0  0  0  0
 18 19  1  0  0  0  0
 21 20  1  0  0  0  0
 22 23  2  0  0  0  0
 23 21  1  0  0  0  0
 25 23  1  0  0  0  0
 25 24  2  0  0  0  0
 26 27  1  0  0  0  0
 26 22  1  0  0  0  0
 27 28  1  0  0  0  0
M  END
>  <MODEL>
7

>  <REMARK>
 VINA RESULT:      -7.0      1.855      7.662
  Name = 
  11 active torsions:
  status: ('A' for Active; 'I' for Inactive)
    1  A    between atoms: C_1  and  O_2
    2  A    between atoms: O_2  and  C_3
    3  A    between atoms: C_3  and  C_7
    4  A    between atoms: C_3  and  C_11
    5  A    between atoms: C_4  and  C_24
    6  A    between atoms: C_11  and  C_22
    7  A    between atoms: C_12  and  C_24
    8  A    between atoms: C_13  and  C_15
    9  A    between atoms: C_13  and  C_18
   10  A    between atoms: C_14  and  C_18
   11  A    between atoms: C_14  and  C_25
                            x       y       z     vdW  Elec       q    Type
                         _______ _______ _______ _____ _____    ______ ____

>  <TORSDO>
F 11

$$$$
=
 OpenBabel10272401463D

 28 29  0  0  1  0  0  0  0  0999 V2000
  184.4540  178.4450  142.3390 C   0  0  2  0  0  3  0  0  0  0  0  0
  185.6700  177.9490  147.1260 O   0  0  0  0  0  1  0  0  0  0  0  0
  187.6690  177.0300  143.9580 C   0  0  0  0  0  2  0  0  0  0  0  0
  185.0910  178.0790  144.8320 C   0  0  0  0  0  0  0  0  0  0  0  0
  186.8800  177.9770  143.0700 C   0  0  0  0  0  2  0  0  0  0  0  0
  182.9020  179.1630  144.0920 C   0  0  0  0  0  2  0  0  0  0  0  0
  185.9910  177.7670  145.7830 C   0  0  0  0  0  0  0  0  0  0  0  0
  183.8230  178.7900  145.2480 C   0  0  0  0  0  2  0  0  0  0  0  0
  187.3830  177.2640  145.4470 C   0  0  2  0  0  3  0  0  0  0  0  0
  183.7100  179.6430  142.9040 C   0  0  0  0  0  2  0  0  0  0  0  0
  185.3990  177.7860  143.3700 C   0  0  2  0  0  3  0  0  0  0  0  0
  185.1200  178.8000  141.1510 O   0  0  0  0  0  0  0  0  0  0  0  0
  184.4880  178.1820  140.0450 C   0  0  1  0  0  3  0  0  0  0  0  0
  182.6180  176.4560  139.8510 C   0  0  0  0  0  1  0  0  0  0  0  0
  182.9870  177.8790  140.2360 C   0  0  2  0  0  3  0  0  0  0  0  0
  181.0270  179.4170  140.3970 C   0  0  0  0  0  1  0  0  0  0  0  0
  182.1070  178.8670  139.4850 C   0  0  0  0  0  2  0  0  0  0  0  0
  184.8570  178.7860  138.6860 C   0  0  0  0  0  2  0  0  0  0  0  0
  185.2770  177.6970  137.7190 C   0  0  0  0  0  1  0  0  0  0  0  0
  188.5090  178.0550  146.1260 C   0  0  0  0  0  2  0  0  0  0  0  0
  189.6610  177.2060  146.6760 C   0  0  0  0  0  2  0  0  0  0  0  0
  190.8250  177.9830  144.7090 C   0  0  0  0  0  3  0  0  0  0  0  0
  190.8300  177.1360  145.7500 C   0  0  0  0  0  0  0  0  0  0  0  0
  192.2360  175.7750  147.2970 C   0  0  0  0  0  2  0  0  0  0  0  0
  191.9090  176.1720  146.0730 C   0  0  0  0  0  3  0  0  0  0  0  0
  191.9020  178.1260  143.6830 C   0  0  0  0  0  2  0  0  0  0  0  0
  191.6050  177.2370  142.4920 C   0  0  0  0  0  2  0  0  0  0  0  0
  190.4290  177.6620  141.8770 O   0  0  0  0  0  1  0  0  0  0  0  0
  1 12  1  6  0  0  0
  1 10  1  0  0  0  0
  1 11  1  0  0  0  0
  3  9  1  0  0  0  0
  4  8  1  0  0  0  0
  4  7  2  0  0  0  0
  5  3  1  0  0  0  0
  6  8  1  0  0  0  0
  7  2  1  0  0  0  0
  9  7  1  0  0  0  0
  9 20  1  6  0  0  0
 10  6  1  0  0  0  0
 11  5  1  6  0  0  0
 11  4  1  0  0  0  0
 13 18  1  6  0  0  0
 13 15  1  0  0  0  0
 13 12  1  0  0  0  0
 15 14  1  6  0  0  0
 17 15  1  0  0  0  0
 17 16  1  0  0  0  0
 19 18  1  0  0  0  0
 20 21  1  0  0  0  0
 22 23  2  0  0  0  0
 23 25  1  0  0  0  0
 23 21  1  0  0  0  0
 25 24  2  0  0  0  0
 26 22  1  0  0  0  0
 27 26  1  0  0  0  0
 28 27  1  0  0  0  0
M  END
>  <MODEL>
8

>  <REMARK>
 VINA RESULT:      -7.0      1.554      2.299
  Name = 
  11 active torsions:
  status: ('A' for Active; 'I' for Inactive)
    1  A    between atoms: C_1  and  O_2
    2  A    between atoms: O_2  and  C_3
    3  A    between atoms: C_3  and  C_7
    4  A    between atoms: C_3  and  C_11
    5  A    between atoms: C_4  and  C_24
    6  A    between atoms: C_11  and  C_22
    7  A    between atoms: C_12  and  C_24
    8  A    between atoms: C_13  and  C_15
    9  A    between atoms: C_13  and  C_18
   10  A    between atoms: C_14  and  C_18
   11  A    between atoms: C_14  and  C_25
                            x       y       z     vdW  Elec       q    Type
                         _______ _______ _______ _____ _____    ______ ____

>  <TORSDO>
F 11

$$$$
=
 OpenBabel10272401463D

 28 29  0  0  1  0  0  0  0  0999 V2000
  184.5490  178.7190  142.7250 C   0  0  2  0  0  3  0  0  0  0  0  0
  186.7890  177.5090  146.9870 O   0  0  0  0  0  1  0  0  0  0  0  0
  187.9960  177.0760  143.3490 C   0  0  0  0  0  2  0  0  0  0  0  0
  185.7150  177.9830  144.9280 C   0  0  0  0  0  0  0  0  0  0  0  0
  187.0610  178.1470  142.8110 C   0  0  0  0  0  2  0  0  0  0  0  0
  183.4550  179.1660  144.8690 C   0  0  0  0  0  2  0  0  0  0  0  0
  186.7950  177.5310  145.5950 C   0  0  0  0  0  0  0  0  0  0  0  0
  184.5980  178.6230  145.7200 C   0  0  0  0  0  2  0  0  0  0  0  0
  188.0580  177.0850  144.8820 C   0  0  2  0  0  3  0  0  0  0  0  0
  183.9920  179.8190  143.6130 C   0  0  0  0  0  2  0  0  0  0  0  0
  185.6790  177.9120  143.4070 C   0  0  2  0  0  3  0  0  0  0  0  0
  184.9450  179.2480  141.4820 O   0  0  0  0  0  0  0  0  0  0  0  0
  184.3470  178.5060  140.4340 C   0  0  1  0  0  3  0  0  0  0  0  0
  182.6080  176.6970  139.9720 C   0  0  0  0  0  1  0  0  0  0  0  0
  182.9340  177.9670  140.7390 C   0  0  2  0  0  3  0  0  0  0  0  0
  180.8340  178.9970  141.6100 C   0  0  0  0  0  1  0  0  0  0  0  0
  181.8600  179.0150  140.4930 C   0  0  0  0  0  2  0  0  0  0  0  0
  184.5160  179.1270  139.0430 C   0  0  0  0  0  2  0  0  0  0  0  0
  185.5020  178.3220  138.2210 C   0  0  0  0  0  1  0  0  0  0  0  0
  189.3340  177.7640  145.3970 C   0  0  0  0  0  2  0  0  0  0  0  0
  190.0960  178.5920  144.3560 C   0  0  0  0  0  2  0  0  0  0  0  0
  191.1560  178.0950  142.2450 C   0  0  0  0  0  3  0  0  0  0  0  0
  191.0480  177.7770  143.5440 C   0  0  0  0  0  0  0  0  0  0  0  0
  191.6130  175.4140  144.1080 C   0  0  0  0  0  2  0  0  0  0  0  0
  191.8180  176.7190  144.2400 C   0  0  0  0  0  3  0  0  0  0  0  0
  192.0720  177.4540  141.2530 C   0  0  0  0  0  2  0  0  0  0  0  0
  191.3430  177.2280  139.9440 C   0  0  0  0  0  2  0  0  0  0  0  0
  190.4390  176.1770  140.0900 O   0  0  0  0  0  1  0  0  0  0  0  0
  1 12  1  6  0  0  0
  1 11  1  0  0  0  0
  1 10  1  0  0  0  0
  3  9  1  0  0  0  0
  4  7  2  0  0  0  0
  4  8  1  0  0  0  0
  5  3  1  0  0  0  0
  6  8  1  0  0  0  0
  7  2  1  0  0  0  0
  9 20  1  6  0  0  0
  9  7  1  0  0  0  0
 10  6  1  0  0  0  0
 11  5  1  6  0  0  0
 11  4  1  0  0  0  0
 13 18  1  6  0  0  0
 13 15  1  0  0  0  0
 13 12  1  0  0  0  0
 15 14  1  6  0  0  0
 17 15  1  0  0  0  0
 17 16  1  0  0  0  0
 19 18  1  0  0  0  0
 21 20  1  0  0  0  0
 22 23  2  0  0  0  0
 23 25  1  0  0  0  0
 23 21  1  0  0  0  0
 24 25  2  0  0  0  0
 26 22  1  0  0  0  0
 27 28  1  0  0  0  0
 27 26  1  0  0  0  0
M  END
>  <MODEL>
9

>  <REMARK>
 VINA RESULT:      -6.9      1.644      2.743
  Name = 
  11 active torsions:
  status: ('A' for Active; 'I' for Inactive)
    1  A    between atoms: C_1  and  O_2
    2  A    between atoms: O_2  and  C_3
    3  A    between atoms: C_3  and  C_7
    4  A    between atoms: C_3  and  C_11
    5  A    between atoms: C_4  and  C_24
    6  A    between atoms: C_11  and  C_22
    7  A    between atoms: C_12  and  C_24
    8  A    between atoms: C_13  and  C_15
    9  A    between atoms: C_13  and  C_18
   10  A    between atoms: C_14  and  C_18
   11  A    between atoms: C_14  and  C_25
                            x       y       z     vdW  Elec       q    Type
                         _______ _______ _______ _____ _____    ______ ____

>  <TORSDO>
F 11

$$$$
