=
 OpenBabel10272400023D

 34 38  0  0  1  0  0  0  0  0999 V2000
  190.5280  176.7920  147.2670 C   0  0  0  0  0  0  0  0  0  0  0  0
  191.5340  176.0850  145.1880 C   0  0  0  0  0  0  0  0  0  0  0  0
  189.4920  177.5080  145.1370 N   0  0  0  0  0  0  0  0  0  0  0  0
  188.3510  177.7870  142.8650 C   0  0  2  0  0  3  0  0  0  0  0  0
  192.4640  175.4300  147.2610 C   0  0  0  0  0  3  0  0  0  0  0  0
  192.4800  175.4230  145.9030 N   0  0  0  0  0  0  0  0  0  0  0  0
  190.2250  176.3530  143.1120 C   0  0  2  0  0  3  0  0  0  0  0  0
  190.5250  176.8030  145.8640 C   0  0  0  0  0  0  0  0  0  0  0  0
  188.7690  177.3230  141.4640 C   0  0  0  0  0  2  0  0  0  0  0  0
  191.5000  176.1140  147.9310 N   0  0  0  0  0  0  0  0  0  0  0  0
  188.2790  177.9100  147.2210 C   0  0  0  0  0  2  0  0  0  0  0  0
  189.5330  177.6080  148.0410 C   0  0  0  0  0  2  0  0  0  0  0  0
  191.6150  176.0960  143.6830 C   0  0  0  0  0  2  0  0  0  0  0  0
  190.0600  176.5060  141.6080 C   0  0  1  0  0  3  0  0  0  0  0  0
  189.6290  177.6120  143.6800 C   0  0  2  0  0  3  0  0  0  0  0  0
  188.6680  178.4760  145.8600 C   0  0  0  0  0  2  0  0  0  0  0  0
  191.7830  178.1520  141.6290 O   0  0  0  0  0  0  0  0  0  0  0  0
  191.2060  177.2410  140.9790 C   0  0  0  0  0  0  0  0  0  0  0  0
  191.5980  176.9410  139.6710 O   0  0  0  0  0  0  0  0  0  0  0  0
  190.7930  176.1620  138.7940 C   0  0  0  0  0  2  0  0  0  0  0  0
  190.6210  176.8760  137.4540 C   0  0  0  0  0  2  0  0  0  0  0  0
  188.2090  176.4830  137.8250 C   0  0  0  0  0  1  0  0  0  0  0  0
  189.0850  178.7800  137.9850 C   0  0  0  0  0  1  0  0  0  0  0  0
  189.2200  177.4560  137.2560 C   0  0  0  0  0  0  0  0  0  0  0  0
  188.9520  177.6410  135.8990 O   0  0  0  0  0  1  0  0  0  0  0  0
  187.2230  176.8800  143.3470 C   0  0  0  0  0  2  0  0  0  0  0  0
  186.3440  177.6060  144.1970 O   0  0  0  0  0  0  0  0  0  0  0  0
  182.4290  178.9070  142.4420 C   0  0  0  0  0  3  0  0  0  0  0  0
  183.5760  178.6310  141.8260 C   0  0  0  0  0  3  0  0  0  0  0  0
  185.1700  178.2160  143.7480 C   0  0  0  0  0  0  0  0  0  0  0  0
  184.7740  178.0560  142.4690 C   0  0  0  0  0  3  0  0  0  0  0  0
  183.1460  179.2770  144.7720 C   0  0  0  0  0  3  0  0  0  0  0  0
  184.4620  179.0740  144.7210 C   0  0  0  0  0  3  0  0  0  0  0  0
  182.1770  178.5810  143.8760 C   0  0  0  0  0  2  0  0  0  0  0  0
  1 10  1  0  0  0  0
  1 12  1  0  0  0  0
  2  8  1  0  0  0  0
  2  6  2  0  0  0  0
  3 16  1  0  0  0  0
  3  8  1  0  0  0  0
  4 26  1  1  0  0  0
  4 15  1  0  0  0  0
  5 10  2  0  0  0  0
  6  5  1  0  0  0  0
  7 15  1  0  0  0  0
  7 13  1  6  0  0  0
  8  1  2  0  0  0  0
  9 14  1  0  0  0  0
  9  4  1  0  0  0  0
 11 12  1  0  0  0  0
 13  2  1  0  0  0  0
 14 18  1  1  0  0  0
 14  7  1  0  0  0  0
 15  3  1  1  0  0  0
 16 11  1  0  0  0  0
 18 17  2  0  0  0  0
 19 18  1  0  0  0  0
 20 19  1  0  0  0  0
 21 20  1  0  0  0  0
 24 21  1  0  0  0  0
 24 22  1  0  0  0  0
 24 23  1  0  0  0  0
 25 24  1  0  0  0  0
 26 27  1  0  0  0  0
 28 34  1  0  0  0  0
 29 28  2  0  0  0  0
 29 31  1  0  0  0  0
 30 27  1  0  0  0  0
 30 33  1  0  0  0  0
 31 30  2  0  0  0  0
 33 32  2  0  0  0  0
 34 32  1  0  0  0  0
M  END
>  <MODEL>
1

>  <REMARK>
 VINA RESULT:      -8.4      0.000      0.000
  Name = 
  8 active torsions:
  status: ('A' for Active; 'I' for Inactive)
    1  A    between atoms: C_5  and  C_26
    2  A    between atoms: C_12  and  O_28
    3  A    between atoms: O_13  and  C_17
    4  A    between atoms: O_13  and  C_33
    5  A    between atoms: C_17  and  C_29
    6  A    between atoms: C_20  and  C_34
    7  A    between atoms: C_26  and  O_28
    8  A    between atoms: C_33  and  C_34
                            x       y       z     vdW  Elec       q    Type
                         _______ _______ _______ _____ _____    ______ ____

>  <TORSDO>
F 8

$$$$
=
 OpenBabel10272400023D

 34 38  0  0  1  0  0  0  0  0999 V2000
  191.8240  174.0580  136.4670 C   0  0  0  0  0  0  0  0  0  0  0  0
  189.4910  174.6870  136.4440 C   0  0  0  0  0  0  0  0  0  0  0  0
  191.1200  176.0740  137.7170 N   0  0  0  0  0  0  0  0  0  0  0  0
  190.1360  177.8570  139.2650 C   0  0  2  0  0  3  0  0  0  0  0  0
  190.2340  172.7660  135.2810 C   0  0  0  0  0  3  0  0  0  0  0  0
  189.2370  173.6090  135.6580 N   0  0  0  0  0  0  0  0  0  0  0  0
  188.7210  176.3600  138.0880 C   0  0  2  0  0  3  0  0  0  0  0  0
  190.8130  174.9450  136.8670 C   0  0  0  0  0  0  0  0  0  0  0  0
  188.6910  178.3230  139.4740 C   0  0  0  0  0  2  0  0  0  0  0  0
  191.5130  172.9960  135.6790 N   0  0  0  0  0  0  0  0  0  0  0  0
  193.3930  175.2340  138.0370 C   0  0  0  0  0  2  0  0  0  0  0  0
  193.2600  174.3290  136.8120 C   0  0  0  0  0  2  0  0  0  0  0  0
  188.3690  175.6270  136.7990 C   0  0  0  0  0  2  0  0  0  0  0  0
  187.7840  177.4390  138.6060 C   0  0  1  0  0  3  0  0  0  0  0  0
  190.0540  177.0480  137.9730 C   0  0  2  0  0  3  0  0  0  0  0  0
  192.5190  176.4720  137.8690 C   0  0  0  0  0  2  0  0  0  0  0  0
  187.8240  179.2340  137.0370 O   0  0  0  0  0  0  0  0  0  0  0  0
  187.1820  178.2530  137.4990 C   0  0  0  0  0  0  0  0  0  0  0  0
  185.9060  177.9450  137.0160 O   0  0  0  0  0  0  0  0  0  0  0  0
  184.9170  177.3190  137.8250 C   0  0  0  0  0  2  0  0  0  0  0  0
  183.6640  178.1900  137.9040 C   0  0  0  0  0  2  0  0  0  0  0  0
  182.2250  179.6580  139.2760 C   0  0  0  0  0  1  0  0  0  0  0  0
  183.8700  178.2080  140.3990 C   0  0  0  0  0  1  0  0  0  0  0  0
  183.6090  179.0530  139.1660 C   0  0  0  0  0  0  0  0  0  0  0  0
  184.5470  180.0830  139.0990 O   0  0  0  0  0  1  0  0  0  0  0  0
  190.5350  177.0010  140.4630 C   0  0  0  0  0  2  0  0  0  0  0  0
  190.6170  177.8070  141.6320 O   0  0  0  0  0  0  0  0  0  0  0  0
  188.6100  177.4990  145.6290 C   0  0  0  0  0  3  0  0  0  0  0  0
  189.8790  177.7860  145.3460 C   0  0  0  0  0  3  0  0  0  0  0  0
  189.9830  177.4840  142.8350 C   0  0  0  0  0  0  0  0  0  0  0  0
  190.4180  178.0220  143.9920 C   0  0  0  0  0  3  0  0  0  0  0  0
  187.8190  176.4440  143.5460 C   0  0  0  0  0  3  0  0  0  0  0  0
  188.8910  176.4920  142.7550 C   0  0  0  0  0  3  0  0  0  0  0  0
  187.5340  177.4630  144.5970 C   0  0  0  0  0  2  0  0  0  0  0  0
  1 12  1  0  0  0  0
  1  8  1  0  0  0  0
  2 13  1  0  0  0  0
  2  8  2  0  0  0  0
  3 16  1  0  0  0  0
  4  9  1  0  0  0  0
  4 26  1  1  0  0  0
  5  6  2  0  0  0  0
  5 10  1  0  0  0  0
  6  2  1  0  0  0  0
  7 13  1  6  0  0  0
  7 14  1  0  0  0  0
  8  3  1  0  0  0  0
 10  1  2  0  0  0  0
 12 11  1  0  0  0  0
 14 18  1  6  0  0  0
 14  9  1  0  0  0  0
 15  3  1  1  0  0  0
 15  7  1  0  0  0  0
 15  4  1  0  0  0  0
 16 11  1  0  0  0  0
 17 18  2  0  0  0  0
 19 18  1  0  0  0  0
 19 20  1  0  0  0  0
 20 21  1  0  0  0  0
 21 24  1  0  0  0  0
 24 22  1  0  0  0  0
 24 23  1  0  0  0  0
 25 24  1  0  0  0  0
 26 27  1  0  0  0  0
 27 30  1  0  0  0  0
 29 28  2  0  0  0  0
 30 31  2  0  0  0  0
 31 29  1  0  0  0  0
 32 34  1  0  0  0  0
 33 30  1  0  0  0  0
 33 32  2  0  0  0  0
 34 28  1  0  0  0  0
M  END
>  <MODEL>
2

>  <REMARK>
 VINA RESULT:      -8.3      3.709      7.554
  Name = 
  8 active torsions:
  status: ('A' for Active; 'I' for Inactive)
    1  A    between atoms: C_5  and  C_26
    2  A    between atoms: C_12  and  O_28
    3  A    between atoms: O_13  and  C_17
    4  A    between atoms: O_13  and  C_33
    5  A    between atoms: C_17  and  C_29
    6  A    between atoms: C_20  and  C_34
    7  A    between atoms: C_26  and  O_28
    8  A    between atoms: C_33  and  C_34
                            x       y       z     vdW  Elec       q    Type
                         _______ _______ _______ _____ _____    ______ ____

>  <TORSDO>
F 8

$$$$
=
 OpenBabel10272400023D

 34 38  0  0  1  0  0  0  0  0999 V2000
  187.6920  177.8080  146.3500 C   0  0  0  0  0  0  0  0  0  0  0  0
  185.6970  178.7540  145.3700 C   0  0  0  0  0  0  0  0  0  0  0  0
  187.3630  177.6250  143.9040 N   0  0  0  0  0  0  0  0  0  0  0  0
  187.0410  177.9070  141.3820 C   0  0  2  0  0  3  0  0  0  0  0  0
  186.0820  178.9000  147.6990 C   0  0  0  0  0  3  0  0  0  0  0  0
  185.3110  179.1530  146.6090 N   0  0  0  0  0  0  0  0  0  0  0  0
  185.6240  179.0310  142.9180 C   0  0  2  0  0  3  0  0  0  0  0  0
  186.9120  178.0530  145.2100 C   0  0  0  0  0  0  0  0  0  0  0  0
  185.9130  178.5640  140.5780 C   0  0  0  0  0  2  0  0  0  0  0  0
  187.2560  178.2290  147.5660 N   0  0  0  0  0  0  0  0  0  0  0  0
  189.5320  177.0020  144.8420 C   0  0  0  0  0  2  0  0  0  0  0  0
  188.9500  176.9920  146.2550 C   0  0  0  0  0  2  0  0  0  0  0  0
  184.7900  179.0070  144.1940 C   0  0  0  0  0  2  0  0  0  0  0  0
  184.9220  179.1760  141.5770 C   0  0  1  0  0  3  0  0  0  0  0  0
  186.4360  177.7720  142.7770 C   0  0  2  0  0  3  0  0  0  0  0  0
  188.4500  176.6500  143.8280 C   0  0  0  0  0  2  0  0  0  0  0  0
  182.6640  178.8210  142.2540 O   0  0  0  0  0  0  0  0  0  0  0  0
  183.6190  178.4330  141.5300 C   0  0  0  0  0  0  0  0  0  0  0  0
  183.4870  177.3020  140.7210 O   0  0  0  0  0  0  0  0  0  0  0  0
  182.5150  177.2150  139.6850 C   0  0  0  0  0  2  0  0  0  0  0  0
  183.0160  177.9210  138.4250 C   0  0  0  0  0  2  0  0  0  0  0  0
  182.9710  177.1170  136.0890 C   0  0  0  0  0  1  0  0  0  0  0  0
  185.1390  177.3150  137.2430 C   0  0  0  0  0  1  0  0  0  0  0  0
  183.6710  176.9700  137.4230 C   0  0  0  0  0  0  0  0  0  0  0  0
  183.5530  175.6470  137.8490 O   0  0  0  0  0  1  0  0  0  0  0  0
  188.2460  178.8430  141.3580 C   0  0  0  0  0  2  0  0  0  0  0  0
  189.4090  178.1280  140.9580 O   0  0  0  0  0  0  0  0  0  0  0  0
  190.2960  176.5320  136.8640 C   0  0  0  0  0  3  0  0  0  0  0  0
  191.0120  176.4250  137.9810 C   0  0  0  0  0  3  0  0  0  0  0  0
  189.7200  177.8520  139.6240 C   0  0  0  0  0  0  0  0  0  0  0  0
  190.5670  176.8470  139.3240 C   0  0  0  0  0  3  0  0  0  0  0  0
  188.7910  178.4180  137.3680 C   0  0  0  0  0  3  0  0  0  0  0  0
  189.1320  178.7540  138.6120 C   0  0  0  0  0  3  0  0  0  0  0  0
  188.8890  177.0250  136.8440 C   0  0  0  0  0  2  0  0  0  0  0  0
  1 10  1  0  0  0  0
  2  6  2  0  0  0  0
  3  8  1  0  0  0  0
  4 26  1  1  0  0  0
  4 15  1  0  0  0  0
  6  5  1  0  0  0  0
  7 13  1  1  0  0  0
  8  2  1  0  0  0  0
  8  1  2  0  0  0  0
  9  4  1  0  0  0  0
  9 14  1  0  0  0  0
 10  5  2  0  0  0  0
 11 12  1  0  0  0  0
 12  1  1  0  0  0  0
 13  2  1  0  0  0  0
 14 18  1  1  0  0  0
 14  7  1  0  0  0  0
 15  7  1  0  0  0  0
 15  3  1  1  0  0  0
 16  3  1  0  0  0  0
 16 11  1  0  0  0  0
 18 17  2  0  0  0  0
 19 18  1  0  0  0  0
 20 19  1  0  0  0  0
 21 20  1  0  0  0  0
 22 24  1  0  0  0  0
 23 24  1  0  0  0  0
 24 25  1  0  0  0  0
 24 21  1  0  0  0  0
 27 26  1  0  0  0  0
 28 29  2  0  0  0  0
 29 31  1  0  0  0  0
 30 27  1  0  0  0  0
 31 30  2  0  0  0  0
 32 33  2  0  0  0  0
 33 30  1  0  0  0  0
 34 28  1  0  0  0  0
 34 32  1  0  0  0  0
M  END
>  <MODEL>
3

>  <REMARK>
 VINA RESULT:      -8.3      2.698      6.330
  Name = 
  8 active torsions:
  status: ('A' for Active; 'I' for Inactive)
    1  A    between atoms: C_5  and  C_26
    2  A    between atoms: C_12  and  O_28
    3  A    between atoms: O_13  and  C_17
    4  A    between atoms: O_13  and  C_33
    5  A    between atoms: C_17  and  C_29
    6  A    between atoms: C_20  and  C_34
    7  A    between atoms: C_26  and  O_28
    8  A    between atoms: C_33  and  C_34
                            x       y       z     vdW  Elec       q    Type
                         _______ _______ _______ _____ _____    ______ ____

>  <TORSDO>
F 8

$$$$
=
 OpenBabel10272400023D

 34 38  0  0  1  0  0  0  0  0999 V2000
  185.2330  178.5060  141.9020 C   0  0  0  0  0  0  0  0  0  0  0  0
  186.5410  178.4970  139.8710 C   0  0  0  0  0  0  0  0  0  0  0  0
  187.5670  177.6880  141.9900 N   0  0  0  0  0  0  0  0  0  0  0  0
  190.0930  177.2830  141.9530 C   0  0  2  0  0  3  0  0  0  0  0  0
  184.3070  179.2740  139.8630 C   0  0  0  0  0  3  0  0  0  0  0  0
  185.4700  179.0090  139.2120 N   0  0  0  0  0  0  0  0  0  0  0  0
  188.9830  178.1850  140.0600 C   0  0  2  0  0  3  0  0  0  0  0  0
  186.4430  178.2210  141.2510 C   0  0  0  0  0  0  0  0  0  0  0  0
  191.1050  177.3350  140.8020 C   0  0  0  0  0  2  0  0  0  0  0  0
  184.1930  179.0160  141.1930 N   0  0  0  0  0  0  0  0  0  0  0  0
  186.3720  178.0410  144.0920 C   0  0  0  0  0  2  0  0  0  0  0  0
  185.0410  178.1520  143.3490 C   0  0  0  0  0  2  0  0  0  0  0  0
  187.7960  178.1690  139.1040 C   0  0  0  0  0  2  0  0  0  0  0  0
  190.3560  177.7900  139.5420 C   0  0  1  0  0  3  0  0  0  0  0  0
  188.7490  177.2680  141.2290 C   0  0  2  0  0  3  0  0  0  0  0  0
  187.3270  177.1360  143.3220 C   0  0  0  0  0  2  0  0  0  0  0  0
  190.4980  175.4880  138.9410 O   0  0  0  0  0  0  0  0  0  0  0  0
  190.2920  176.6670  138.5490 C   0  0  0  0  0  0  0  0  0  0  0  0
  190.0450  176.9370  137.2000 O   0  0  0  0  0  0  0  0  0  0  0  0
  189.4500  175.9830  136.3290 C   0  0  0  0  0  2  0  0  0  0  0  0
  188.3080  176.6210  135.5400 C   0  0  0  0  0  2  0  0  0  0  0  0
  187.0800  175.1230  137.0740 C   0  0  0  0  0  1  0  0  0  0  0  0
  185.9270  177.0960  136.1520 C   0  0  0  0  0  1  0  0  0  0  0  0
  186.9430  176.0080  135.8530 C   0  0  0  0  0  0  0  0  0  0  0  0
  186.4940  175.2330  134.7830 O   0  0  0  0  0  1  0  0  0  0  0  0
  190.2810  178.5350  142.8050 C   0  0  0  0  0  2  0  0  0  0  0  0
  191.2800  178.3070  143.7910 O   0  0  0  0  0  0  0  0  0  0  0  0
  191.3120  175.9680  147.6160 C   0  0  0  0  0  3  0  0  0  0  0  0
  191.9450  175.7170  146.4720 C   0  0  0  0  0  3  0  0  0  0  0  0
  191.0720  177.5240  144.9300 C   0  0  0  0  0  0  0  0  0  0  0  0
  192.0040  176.6270  145.3110 C   0  0  0  0  0  3  0  0  0  0  0  0
  189.5540  177.5510  146.9220 C   0  0  0  0  0  3  0  0  0  0  0  0
  189.7740  177.6940  145.6150 C   0  0  0  0  0  3  0  0  0  0  0  0
  190.6390  177.2670  147.9050 C   0  0  0  0  0  2  0  0  0  0  0  0
  1 12  1  0  0  0  0
  2  8  2  0  0  0  0
  3 16  1  0  0  0  0
  4 26  1  1  0  0  0
  5 10  1  0  0  0  0
  6  5  2  0  0  0  0
  6  2  1  0  0  0  0
  7 13  1  6  0  0  0
  7 15  1  0  0  0  0
  8  1  1  0  0  0  0
  8  3  1  0  0  0  0
  9  4  1  0  0  0  0
 10  1  2  0  0  0  0
 12 11  1  0  0  0  0
 13  2  1  0  0  0  0
 14 18  1  6  0  0  0
 14  7  1  0  0  0  0
 14  9  1  0  0  0  0
 15  4  1  0  0  0  0
 15  3  1  1  0  0  0
 16 11  1  0  0  0  0
 18 17  2  0  0  0  0
 19 18  1  0  0  0  0
 20 19  1  0  0  0  0
 21 24  1  0  0  0  0
 21 20  1  0  0  0  0
 24 23  1  0  0  0  0
 24 22  1  0  0  0  0
 25 24  1  0  0  0  0
 26 27  1  0  0  0  0
 27 30  1  0  0  0  0
 28 34  1  0  0  0  0
 29 28  2  0  0  0  0
 30 31  2  0  0  0  0
 30 33  1  0  0  0  0
 31 29  1  0  0  0  0
 32 34  1  0  0  0  0
 33 32  2  0  0  0  0
M  END
>  <MODEL>
4

>  <REMARK>
 VINA RESULT:      -8.3      2.483      6.127
  Name = 
  8 active torsions:
  status: ('A' for Active; 'I' for Inactive)
    1  A    between atoms: C_5  and  C_26
    2  A    between atoms: C_12  and  O_28
    3  A    between atoms: O_13  and  C_17
    4  A    between atoms: O_13  and  C_33
    5  A    between atoms: C_17  and  C_29
    6  A    between atoms: C_20  and  C_34
    7  A    between atoms: C_26  and  O_28
    8  A    between atoms: C_33  and  C_34
                            x       y       z     vdW  Elec       q    Type
                         _______ _______ _______ _____ _____    ______ ____

>  <TORSDO>
F 8

$$$$
=
 OpenBabel10272400023D

 34 38  0  0  1  0  0  0  0  0999 V2000
  185.1650  178.6090  141.3410 C   0  0  0  0  0  0  0  0  0  0  0  0
  186.6220  178.4850  139.4170 C   0  0  0  0  0  0  0  0  0  0  0  0
  187.4800  177.7920  141.6490 N   0  0  0  0  0  0  0  0  0  0  0  0
  189.9990  177.3800  141.8250 C   0  0  2  0  0  3  0  0  0  0  0  0
  184.4000  179.2660  139.1990 C   0  0  0  0  0  3  0  0  0  0  0  0
  185.6060  178.9630  138.6520 N   0  0  0  0  0  0  0  0  0  0  0  0
  189.0400  178.1790  139.8070 C   0  0  2  0  0  3  0  0  0  0  0  0
  186.4190  178.2860  140.8000 C   0  0  0  0  0  0  0  0  0  0  0  0
  191.0950  177.3650  140.7520 C   0  0  0  0  0  2  0  0  0  0  0  0
  184.1850  179.0830  140.5290 N   0  0  0  0  0  0  0  0  0  0  0  0
  186.1330  178.2640  143.6330 C   0  0  0  0  0  2  0  0  0  0  0  0
  184.8620  178.3370  142.7860 C   0  0  0  0  0  2  0  0  0  0  0  0
  187.9280  178.1130  138.7660 C   0  0  0  0  0  2  0  0  0  0  0  0
  190.4460  177.7520  139.4160 C   0  0  1  0  0  3  0  0  0  0  0  0
  188.7130  177.3280  141.0040 C   0  0  2  0  0  3  0  0  0  0  0  0
  187.1380  177.3150  142.9870 C   0  0  0  0  0  2  0  0  0  0  0  0
  190.3660  175.4130  138.9620 O   0  0  0  0  0  0  0  0  0  0  0  0
  190.4490  176.5760  138.4840 C   0  0  0  0  0  0  0  0  0  0  0  0
  190.5820  176.7740  137.1070 O   0  0  0  0  0  0  0  0  0  0  0  0
  191.1150  175.7770  136.2430 C   0  0  0  0  0  2  0  0  0  0  0  0
  192.5230  176.1630  135.7900 C   0  0  0  0  0  2  0  0  0  0  0  0
  193.1650  174.3040  137.2870 C   0  0  0  0  0  1  0  0  0  0  0  0
  194.9060  175.4090  135.9370 C   0  0  0  0  0  1  0  0  0  0  0  0
  193.6200  175.6290  136.7120 C   0  0  0  0  0  0  0  0  0  0  0  0
  193.8550  176.5180  137.7620 O   0  0  0  0  0  1  0  0  0  0  0  0
  190.1310  178.6760  142.6180 C   0  0  0  0  0  2  0  0  0  0  0  0
  191.0880  178.5150  143.6580 O   0  0  0  0  0  0  0  0  0  0  0  0
  191.0690  176.1590  147.4730 C   0  0  0  0  0  3  0  0  0  0  0  0
  191.8850  176.0570  146.4260 C   0  0  0  0  0  3  0  0  0  0  0  0
  190.8870  177.6860  144.7660 C   0  0  0  0  0  0  0  0  0  0  0  0
  191.9170  176.9820  145.2760 C   0  0  0  0  0  3  0  0  0  0  0  0
  189.1430  177.3810  146.5360 C   0  0  0  0  0  3  0  0  0  0  0  0
  189.5020  177.5880  145.2690 C   0  0  0  0  0  3  0  0  0  0  0  0
  190.1220  177.2970  147.6580 C   0  0  0  0  0  2  0  0  0  0  0  0
  1 12  1  0  0  0  0
  2  8  2  0  0  0  0
  3 16  1  0  0  0  0
  4 26  1  6  0  0  0
  5 10  1  0  0  0  0
  6  5  2  0  0  0  0
  6  2  1  0  0  0  0
  7 13  1  6  0  0  0
  7 15  1  0  0  0  0
  8  1  1  0  0  0  0
  8  3  1  0  0  0  0
  9  4  1  0  0  0  0
 10  1  2  0  0  0  0
 12 11  1  0  0  0  0
 13  2  1  0  0  0  0
 14 18  1  6  0  0  0
 14  7  1  0  0  0  0
 14  9  1  0  0  0  0
 15  3  1  1  0  0  0
 15  4  1  0  0  0  0
 16 11  1  0  0  0  0
 18 17  2  0  0  0  0
 19 18  1  0  0  0  0
 20 19  1  0  0  0  0
 21 20  1  0  0  0  0
 21 24  1  0  0  0  0
 23 24  1  0  0  0  0
 24 22  1  0  0  0  0
 24 25  1  0  0  0  0
 26 27  1  0  0  0  0
 27 30  1  0  0  0  0
 28 34  1  0  0  0  0
 29 28  2  0  0  0  0
 30 33  1  0  0  0  0
 30 31  2  0  0  0  0
 31 29  1  0  0  0  0
 32 34  1  0  0  0  0
 33 32  2  0  0  0  0
M  END
>  <MODEL>
5

>  <REMARK>
 VINA RESULT:      -8.2      2.725      6.387
  Name = 
  8 active torsions:
  status: ('A' for Active; 'I' for Inactive)
    1  A    between atoms: C_5  and  C_26
    2  A    between atoms: C_12  and  O_28
    3  A    between atoms: O_13  and  C_17
    4  A    between atoms: O_13  and  C_33
    5  A    between atoms: C_17  and  C_29
    6  A    between atoms: C_20  and  C_34
    7  A    between atoms: C_26  and  O_28
    8  A    between atoms: C_33  and  C_34
                            x       y       z     vdW  Elec       q    Type
                         _______ _______ _______ _____ _____    ______ ____

>  <TORSDO>
F 8

$$$$
=
 OpenBabel10272400023D

 34 38  0  0  1  0  0  0  0  0999 V2000
  192.0830  174.1440  136.4020 C   0  0  0  0  0  0  0  0  0  0  0  0
  189.7340  174.7020  136.3000 C   0  0  0  0  0  0  0  0  0  0  0  0
  191.2650  176.0980  137.6810 N   0  0  0  0  0  0  0  0  0  0  0  0
  190.1620  177.8000  139.2410 C   0  0  2  0  0  3  0  0  0  0  0  0
  190.5840  172.8430  135.1110 C   0  0  0  0  0  3  0  0  0  0  0  0
  189.5470  173.6430  135.4710 N   0  0  0  0  0  0  0  0  0  0  0  0
  188.8450  176.2980  137.9610 C   0  0  2  0  0  3  0  0  0  0  0  0
  191.0290  174.9870  136.7850 C   0  0  0  0  0  0  0  0  0  0  0  0
  188.6950  178.2150  139.4030 C   0  0  0  0  0  2  0  0  0  0  0  0
  191.8380  173.1000  135.5690 N   0  0  0  0  0  0  0  0  0  0  0  0
  193.5480  175.3170  138.0710 C   0  0  0  0  0  2  0  0  0  0  0  0
  193.4940  174.4480  136.8150 C   0  0  0  0  0  2  0  0  0  0  0  0
  188.5690  175.5960  136.6360 C   0  0  0  0  0  2  0  0  0  0  0  0
  187.8540  177.3320  138.4710 C   0  0  1  0  0  3  0  0  0  0  0  0
  190.1590  177.0300  137.9230 C   0  0  2  0  0  3  0  0  0  0  0  0
  192.6430  176.5330  137.9040 C   0  0  0  0  0  2  0  0  0  0  0  0
  187.8830  179.1960  136.9850 O   0  0  0  0  0  0  0  0  0  0  0  0
  187.2720  178.1610  137.3650 C   0  0  0  0  0  0  0  0  0  0  0  0
  186.0460  177.8070  136.7930 O   0  0  0  0  0  0  0  0  0  0  0  0
  185.1350  176.9220  137.4330 C   0  0  0  0  0  2  0  0  0  0  0  0
  184.8930  175.6880  136.5640 C   0  0  0  0  0  2  0  0  0  0  0  0
  183.0370  174.0740  136.3280 C   0  0  0  0  0  1  0  0  0  0  0  0
  185.0020  173.4460  137.6760 C   0  0  0  0  0  1  0  0  0  0  0  0
  184.0940  174.5960  137.2770 C   0  0  0  0  0  0  0  0  0  0  0  0
  183.4660  175.1090  138.4120 O   0  0  0  0  0  1  0  0  0  0  0  0
  190.5390  176.9180  140.4280 C   0  0  0  0  0  2  0  0  0  0  0  0
  190.6840  177.7140  141.5980 O   0  0  0  0  0  0  0  0  0  0  0  0
  188.4930  177.6380  145.5090 C   0  0  0  0  0  3  0  0  0  0  0  0
  189.7680  177.9350  145.2650 C   0  0  0  0  0  3  0  0  0  0  0  0
  189.9990  177.4610  142.7900 C   0  0  0  0  0  0  0  0  0  0  0  0
  190.3670  178.0880  143.9250 C   0  0  0  0  0  3  0  0  0  0  0  0
  187.8250  176.4220  143.4710 C   0  0  0  0  0  3  0  0  0  0  0  0
  188.9330  176.4410  142.7300 C   0  0  0  0  0  3  0  0  0  0  0  0
  187.4690  177.5050  144.4330 C   0  0  0  0  0  2  0  0  0  0  0  0
  1  8  1  0  0  0  0
  1 12  1  0  0  0  0
  2 13  1  0  0  0  0
  2  8  2  0  0  0  0
  3 16  1  0  0  0  0
  4  9  1  0  0  0  0
  4 26  1  1  0  0  0
  5  6  2  0  0  0  0
  5 10  1  0  0  0  0
  6  2  1  0  0  0  0
  7 13  1  6  0  0  0
  7 14  1  0  0  0  0
  8  3  1  0  0  0  0
 10  1  2  0  0  0  0
 12 11  1  0  0  0  0
 14 18  1  6  0  0  0
 14  9  1  0  0  0  0
 15  3  1  1  0  0  0
 15  7  1  0  0  0  0
 15  4  1  0  0  0  0
 16 11  1  0  0  0  0
 17 18  2  0  0  0  0
 19 18  1  0  0  0  0
 19 20  1  0  0  0  0
 21 24  1  0  0  0  0
 21 20  1  0  0  0  0
 22 24  1  0  0  0  0
 24 23  1  0  0  0  0
 24 25  1  0  0  0  0
 26 27  1  0  0  0  0
 27 30  1  0  0  0  0
 29 28  2  0  0  0  0
 30 31  2  0  0  0  0
 31 29  1  0  0  0  0
 32 34  1  0  0  0  0
 33 30  1  0  0  0  0
 33 32  2  0  0  0  0
 34 28  1  0  0  0  0
M  END
>  <MODEL>
6

>  <REMARK>
 VINA RESULT:      -7.9      3.957      7.549
  Name = 
  8 active torsions:
  status: ('A' for Active; 'I' for Inactive)
    1  A    between atoms: C_5  and  C_26
    2  A    between atoms: C_12  and  O_28
    3  A    between atoms: O_13  and  C_17
    4  A    between atoms: O_13  and  C_33
    5  A    between atoms: C_17  and  C_29
    6  A    between atoms: C_20  and  C_34
    7  A    between atoms: C_26  and  O_28
    8  A    between atoms: C_33  and  C_34
                            x       y       z     vdW  Elec       q    Type
                         _______ _______ _______ _____ _____    ______ ____

>  <TORSDO>
F 8

$$$$
=
 OpenBabel10272400023D

 34 38  0  0  1  0  0  0  0  0999 V2000
  190.4490  176.8540  147.2290 C   0  0  0  0  0  0  0  0  0  0  0  0
  191.4040  176.1320  145.1310 C   0  0  0  0  0  0  0  0  0  0  0  0
  189.3800  177.5830  145.1200 N   0  0  0  0  0  0  0  0  0  0  0  0
  188.1980  177.8760  142.8700 C   0  0  2  0  0  3  0  0  0  0  0  0
  192.3660  175.4660  147.1860 C   0  0  0  0  0  3  0  0  0  0  0  0
  192.3550  175.4580  145.8270 N   0  0  0  0  0  0  0  0  0  0  0  0
  190.0580  176.4170  143.0810 C   0  0  2  0  0  3  0  0  0  0  0  0
  190.4180  176.8640  145.8270 C   0  0  0  0  0  0  0  0  0  0  0  0
  188.5820  177.4060  141.4620 C   0  0  0  0  0  2  0  0  0  0  0  0
  191.4250  176.1630  147.8750 N   0  0  0  0  0  0  0  0  0  0  0  0
  188.2140  178.0010  147.2260 C   0  0  0  0  0  2  0  0  0  0  0  0
  189.4800  177.6840  148.0220 C   0  0  0  0  0  2  0  0  0  0  0  0
  191.4550  176.1420  143.6250 C   0  0  0  0  0  2  0  0  0  0  0  0
  189.8650  176.5710  141.5810 C   0  0  1  0  0  3  0  0  0  0  0  0
  189.4900  177.6840  143.6610 C   0  0  2  0  0  3  0  0  0  0  0  0
  188.5840  178.5610  145.8580 C   0  0  0  0  0  2  0  0  0  0  0  0
  191.8060  177.9540  141.6430 O   0  0  0  0  0  0  0  0  0  0  0  0
  191.0080  177.2910  140.9280 C   0  0  0  0  0  0  0  0  0  0  0  0
  191.1570  177.2560  139.5390 O   0  0  0  0  0  0  0  0  0  0  0  0
  191.7630  176.1580  138.8660 C   0  0  0  0  0  2  0  0  0  0  0  0
  192.9520  176.6360  138.0320 C   0  0  0  0  0  2  0  0  0  0  0  0
  192.8530  174.2850  137.2760 C   0  0  0  0  0  1  0  0  0  0  0  0
  194.2800  175.8760  136.0500 C   0  0  0  0  0  1  0  0  0  0  0  0
  193.7590  175.4890  137.4220 C   0  0  0  0  0  0  0  0  0  0  0  0
  194.8310  175.1480  138.2480 O   0  0  0  0  0  1  0  0  0  0  0  0
  187.0690  176.9830  143.3750 C   0  0  0  0  0  2  0  0  0  0  0  0
  186.1440  177.7520  144.1340 O   0  0  0  0  0  0  0  0  0  0  0  0
  182.2750  178.7830  142.1150 C   0  0  0  0  0  3  0  0  0  0  0  0
  183.4740  178.5690  141.5760 C   0  0  0  0  0  3  0  0  0  0  0  0
  184.9650  178.2820  143.6010 C   0  0  0  0  0  0  0  0  0  0  0  0
  184.6610  178.0780  142.3030 C   0  0  0  0  0  3  0  0  0  0  0  0
  182.8200  179.2320  144.4770 C   0  0  0  0  0  3  0  0  0  0  0  0
  184.1470  179.1100  144.5110 C   0  0  0  0  0  3  0  0  0  0  0  0
  181.9540  178.4650  143.5360 C   0  0  0  0  0  2  0  0  0  0  0  0
  1 10  1  0  0  0  0
  1 12  1  0  0  0  0
  2  8  1  0  0  0  0
  2  6  2  0  0  0  0
  3  8  1  0  0  0  0
  3 16  1  0  0  0  0
  4 26  1  1  0  0  0
  4 15  1  0  0  0  0
  5 10  2  0  0  0  0
  6  5  1  0  0  0  0
  7 13  1  6  0  0  0
  7 15  1  0  0  0  0
  8  1  2  0  0  0  0
  9 14  1  0  0  0  0
  9  4  1  0  0  0  0
 11 12  1  0  0  0  0
 13  2  1  0  0  0  0
 14 18  1  1  0  0  0
 14  7  1  0  0  0  0
 15  3  1  1  0  0  0
 16 11  1  0  0  0  0
 18 17  2  0  0  0  0
 19 18  1  0  0  0  0
 20 19  1  0  0  0  0
 21 20  1  0  0  0  0
 22 24  1  0  0  0  0
 23 24  1  0  0  0  0
 24 21  1  0  0  0  0
 24 25  1  0  0  0  0
 26 27  1  0  0  0  0
 28 34  1  0  0  0  0
 29 28  2  0  0  0  0
 29 31  1  0  0  0  0
 30 27  1  0  0  0  0
 30 33  1  0  0  0  0
 31 30  2  0  0  0  0
 32 33  2  0  0  0  0
 34 32  1  0  0  0  0
M  END
>  <MODEL>
7

>  <REMARK>
 VINA RESULT:      -7.8      1.367      2.066
  Name = 
  8 active torsions:
  status: ('A' for Active; 'I' for Inactive)
    1  A    between atoms: C_5  and  C_26
    2  A    between atoms: C_12  and  O_28
    3  A    between atoms: O_13  and  C_17
    4  A    between atoms: O_13  and  C_33
    5  A    between atoms: C_17  and  C_29
    6  A    between atoms: C_20  and  C_34
    7  A    between atoms: C_26  and  O_28
    8  A    between atoms: C_33  and  C_34
                            x       y       z     vdW  Elec       q    Type
                         _______ _______ _______ _____ _____    ______ ____

>  <TORSDO>
F 8

$$$$
=
 OpenBabel10272400023D

 34 38  0  0  1  0  0  0  0  0999 V2000
  185.5690  178.3180  142.4100 C   0  0  0  0  0  0  0  0  0  0  0  0
  186.7050  178.4140  140.2790 C   0  0  0  0  0  0  0  0  0  0  0  0
  187.8800  177.4470  142.2500 N   0  0  0  0  0  0  0  0  0  0  0  0
  190.3820  176.9920  141.9770 C   0  0  2  0  0  3  0  0  0  0  0  0
  184.5000  179.2370  140.5070 C   0  0  0  0  0  3  0  0  0  0  0  0
  185.5970  178.9910  139.7460 N   0  0  0  0  0  0  0  0  0  0  0  0
  189.1450  178.0390  140.2440 C   0  0  2  0  0  3  0  0  0  0  0  0
  186.7140  178.0510  141.6430 C   0  0  0  0  0  0  0  0  0  0  0  0
  191.2970  177.0970  140.7510 C   0  0  0  0  0  2  0  0  0  0  0  0
  184.4880  178.8960  141.8230 N   0  0  0  0  0  0  0  0  0  0  0  0
  186.8710  177.6890  144.4630 C   0  0  0  0  0  2  0  0  0  0  0  0
  185.4870  177.8760  143.8420 C   0  0  0  0  0  2  0  0  0  0  0  0
  187.8830  178.1100  139.3910 C   0  0  0  0  0  2  0  0  0  0  0  0
  190.4600  177.6490  139.5890 C   0  0  1  0  0  3  0  0  0  0  0  0
  188.9840  177.0520  141.3690 C   0  0  2  0  0  3  0  0  0  0  0  0
  187.7350  176.8160  143.5600 C   0  0  0  0  0  2  0  0  0  0  0  0
  190.6470  175.4130  138.7830 O   0  0  0  0  0  0  0  0  0  0  0  0
  190.2850  176.5950  138.5370 C   0  0  0  0  0  0  0  0  0  0  0  0
  189.7610  176.9330  137.2850 O   0  0  0  0  0  0  0  0  0  0  0  0
  189.4200  175.9530  136.3120 C   0  0  0  0  0  2  0  0  0  0  0  0
  187.9380  175.5970  136.4120 C   0  0  0  0  0  2  0  0  0  0  0  0
  186.4260  173.8070  137.1980 C   0  0  0  0  0  1  0  0  0  0  0  0
  187.4640  173.6030  134.9730 C   0  0  0  0  0  1  0  0  0  0  0  0
  187.6780  174.0900  136.3950 C   0  0  0  0  0  0  0  0  0  0  0  0
  188.7460  173.4000  136.9680 O   0  0  0  0  0  1  0  0  0  0  0  0
  190.6730  178.1810  142.8880 C   0  0  0  0  0  2  0  0  0  0  0  0
  191.5330  177.7840  143.9480 O   0  0  0  0  0  0  0  0  0  0  0  0
  189.4580  177.0070  147.8470 C   0  0  0  0  0  3  0  0  0  0  0  0
  189.3420  178.0490  147.0250 C   0  0  0  0  0  3  0  0  0  0  0  0
  191.0930  177.5790  145.2590 C   0  0  0  0  0  0  0  0  0  0  0  0
  189.9460  178.1480  145.6820 C   0  0  0  0  0  3  0  0  0  0  0  0
  191.5920  175.9980  147.1350 C   0  0  0  0  0  3  0  0  0  0  0  0
  191.9820  176.7850  146.1330 C   0  0  0  0  0  3  0  0  0  0  0  0
  190.1600  175.7460  147.4670 C   0  0  0  0  0  2  0  0  0  0  0  0
  1 12  1  0  0  0  0
  2  8  1  0  0  0  0
  3 16  1  0  0  0  0
  4 26  1  1  0  0  0
  5 10  2  0  0  0  0
  6  2  2  0  0  0  0
  6  5  1  0  0  0  0
  7 13  1  6  0  0  0
  7 15  1  0  0  0  0
  8  3  1  0  0  0  0
  8  1  2  0  0  0  0
  9  4  1  0  0  0  0
 10  1  1  0  0  0  0
 12 11  1  0  0  0  0
 13  2  1  0  0  0  0
 14 18  1  6  0  0  0
 14  7  1  0  0  0  0
 14  9  1  0  0  0  0
 15  4  1  0  0  0  0
 15  3  1  1  0  0  0
 16 11  1  0  0  0  0
 18 17  2  0  0  0  0
 19 18  1  0  0  0  0
 20 21  1  0  0  0  0
 20 19  1  0  0  0  0
 23 24  1  0  0  0  0
 24 21  1  0  0  0  0
 24 25  1  0  0  0  0
 24 22  1  0  0  0  0
 26 27  1  0  0  0  0
 27 30  1  0  0  0  0
 29 28  2  0  0  0  0
 30 31  2  0  0  0  0
 30 33  1  0  0  0  0
 31 29  1  0  0  0  0
 32 34  1  0  0  0  0
 33 32  2  0  0  0  0
 34 28  1  0  0  0  0
M  END
>  <MODEL>
8

>  <REMARK>
 VINA RESULT:      -7.8      2.466      5.985
  Name = 
  8 active torsions:
  status: ('A' for Active; 'I' for Inactive)
    1  A    between atoms: C_5  and  C_26
    2  A    between atoms: C_12  and  O_28
    3  A    between atoms: O_13  and  C_17
    4  A    between atoms: O_13  and  C_33
    5  A    between atoms: C_17  and  C_29
    6  A    between atoms: C_20  and  C_34
    7  A    between atoms: C_26  and  O_28
    8  A    between atoms: C_33  and  C_34
                            x       y       z     vdW  Elec       q    Type
                         _______ _______ _______ _____ _____    ______ ____

>  <TORSDO>
F 8

$$$$
=
 OpenBabel10272400023D

 34 38  0  0  1  0  0  0  0  0999 V2000
  188.9710  177.2400  138.6570 C   0  0  0  0  0  0  0  0  0  0  0  0
  186.6970  177.5090  137.8860 C   0  0  0  0  0  0  0  0  0  0  0  0
  187.3230  178.3190  140.1550 N   0  0  0  0  0  0  0  0  0  0  0  0
  185.3990  179.0180  141.6890 C   0  0  2  0  0  3  0  0  0  0  0  0
  188.3220  176.4780  136.5110 C   0  0  0  0  0  3  0  0  0  0  0  0
  187.0510  176.9100  136.7190 N   0  0  0  0  0  0  0  0  0  0  0  0
  184.9660  178.0930  139.5470 C   0  0  2  0  0  3  0  0  0  0  0  0
  187.6660  177.6980  138.8940 C   0  0  0  0  0  0  0  0  0  0  0  0
  183.8940  179.1460  141.4230 C   0  0  0  0  0  2  0  0  0  0  0  0
  189.2690  176.6490  137.4700 N   0  0  0  0  0  0  0  0  0  0  0  0
  189.5110  177.7180  141.0630 C   0  0  0  0  0  2  0  0  0  0  0  0
  190.0640  177.4920  139.6550 C   0  0  0  0  0  2  0  0  0  0  0  0
  185.2900  178.0210  138.0590 C   0  0  0  0  0  2  0  0  0  0  0  0
  183.6320  178.6730  139.9860 C   0  0  1  0  0  3  0  0  0  0  0  0
  185.9890  178.9140  140.2850 C   0  0  2  0  0  3  0  0  0  0  0  0
  188.4060  178.7670  141.0280 C   0  0  0  0  0  2  0  0  0  0  0  0
  184.0550  180.6990  138.8030 O   0  0  0  0  0  0  0  0  0  0  0  0
  183.2030  179.8310  139.1350 C   0  0  0  0  0  0  0  0  0  0  0  0
  181.8650  179.9630  138.7520 O   0  0  0  0  0  0  0  0  0  0  0  0
  181.1900  181.2150  138.7610 C   0  0  0  0  0  2  0  0  0  0  0  0
  181.0990  181.7810  137.3440 C   0  0  0  0  0  2  0  0  0  0  0  0
  182.2550  183.9450  137.6410 C   0  0  0  0  0  1  0  0  0  0  0  0
  180.4910  183.7570  135.9310 C   0  0  0  0  0  1  0  0  0  0  0  0
  180.9250  183.3000  137.3120 C   0  0  0  0  0  0  0  0  0  0  0  0
  179.9820  183.7070  138.2550 O   0  0  0  0  0  1  0  0  0  0  0  0
  185.6280  177.7530  142.5110 C   0  0  0  0  0  2  0  0  0  0  0  0
  185.1870  177.9560  143.8480 O   0  0  0  0  0  0  0  0  0  0  0  0
  187.4610  178.1820  147.7060 C   0  0  0  0  0  3  0  0  0  0  0  0
  186.3610  178.8370  147.3390 C   0  0  0  0  0  3  0  0  0  0  0  0
  186.0590  178.1330  144.9270 C   0  0  0  0  0  0  0  0  0  0  0  0
  185.5890  178.5830  146.1070 C   0  0  0  0  0  3  0  0  0  0  0  0
  188.3760  177.4150  145.5490 C   0  0  0  0  0  3  0  0  0  0  0  0
  187.4890  177.8700  144.6640 C   0  0  0  0  0  3  0  0  0  0  0  0
  188.0120  177.0250  146.9420 C   0  0  0  0  0  2  0  0  0  0  0  0
  1  8  1  0  0  0  0
  1 12  1  0  0  0  0
  2 13  1  0  0  0  0
  2  8  2  0  0  0  0
  3 16  1  0  0  0  0
  4 26  1  1  0  0  0
  5  6  2  0  0  0  0
  5 10  1  0  0  0  0
  6  2  1  0  0  0  0
  7 13  1  6  0  0  0
  7 14  1  0  0  0  0
  7 15  1  0  0  0  0
  8  3  1  0  0  0  0
  9  4  1  0  0  0  0
 10  1  2  0  0  0  0
 12 11  1  0  0  0  0
 14 18  1  6  0  0  0
 14  9  1  0  0  0  0
 15  3  1  1  0  0  0
 15  4  1  0  0  0  0
 16 11  1  0  0  0  0
 17 18  2  0  0  0  0
 19 20  1  0  0  0  0
 19 18  1  0  0  0  0
 21 20  1  0  0  0  0
 23 24  1  0  0  0  0
 24 21  1  0  0  0  0
 24 22  1  0  0  0  0
 24 25  1  0  0  0  0
 26 27  1  0  0  0  0
 27 30  1  0  0  0  0
 29 28  2  0  0  0  0
 30 31  2  0  0  0  0
 31 29  1  0  0  0  0
 32 34  1  0  0  0  0
 33 30  1  0  0  0  0
 33 32  2  0  0  0  0
 34 28  1  0  0  0  0
M  END
>  <MODEL>
9

>  <REMARK>
 VINA RESULT:      -7.5      4.450      7.823
  Name = 
  8 active torsions:
  status: ('A' for Active; 'I' for Inactive)
    1  A    between atoms: C_5  and  C_26
    2  A    between atoms: C_12  and  O_28
    3  A    between atoms: O_13  and  C_17
    4  A    between atoms: O_13  and  C_33
    5  A    between atoms: C_17  and  C_29
    6  A    between atoms: C_20  and  C_34
    7  A    between atoms: C_26  and  O_28
    8  A    between atoms: C_33  and  C_34
                            x       y       z     vdW  Elec       q    Type
                         _______ _______ _______ _____ _____    ______ ____

>  <TORSDO>
F 8

$$$$
