=
 OpenBabel10272401133D

 27 30  0  0  1  0  0  0  0  0999 V2000
  189.6890  176.9930  144.0260 C   0  0  0  0  0  2  0  0  0  0  0  0
  187.5150  177.7630  141.6750 C   0  0  1  0  0  3  0  0  0  0  0  0
  186.7540  176.7300  143.7050 O   0  0  0  0  0  0  0  0  0  0  0  0
  187.0460  178.4370  139.2840 C   0  0  1  0  0  3  0  0  0  0  0  0
  187.1240  178.8990  140.7410 C   0  0  0  0  0  2  0  0  0  0  0  0
  191.8380  177.5210  141.8950 C   0  0  0  0  0  2  0  0  0  0  0  0
  188.9800  177.6780  141.7780 N   0  0  0  0  0  0  0  0  0  0  0  0
  187.0470  177.7520  147.3220 N   0  0  0  0  0  0  0  0  0  0  0  0
  189.7310  177.1940  140.6390 C   0  0  0  0  0  0  0  0  0  0  0  0
  188.3390  177.8770  147.4150 C   0  0  0  0  0  0  0  0  0  0  0  0
  189.6750  178.1170  143.0010 C   0  0  2  0  0  3  0  0  0  0  0  0
  188.3930  178.0370  138.6730 C   0  0  2  0  0  3  0  0  0  0  0  0
  188.7240  177.2780  145.1280 C   0  0  0  0  0  0  0  0  0  0  0  0
  186.8340  177.9560  143.0240 C   0  0  0  0  0  2  0  0  0  0  0  0
  186.3490  177.5740  146.0470 C   0  0  2  0  0  3  0  0  0  0  0  0
  186.1120  177.4090  139.1380 O   0  0  0  0  0  1  0  0  0  0  0  0
  188.9310  178.1190  148.6860 N   0  0  0  0  0  1  0  0  0  0  0  0
  191.0660  177.1630  140.6640 C   0  0  0  0  0  3  0  0  0  0  0  0
  189.1810  177.7060  146.2660 N   0  0  0  0  0  0  0  0  0  0  0  0
  189.0450  176.8290  139.3560 C   0  0  0  0  0  2  0  0  0  0  0  0
  187.2700  176.8820  145.0140 C   0  0  1  0  0  3  0  0  0  0  0  0
  191.0980  178.5870  142.6950 C   0  0  0  0  0  2  0  0  0  0  0  0
  188.9350  179.7600  137.5080 O   0  0  0  0  0  1  0  0  0  0  0  0
  189.2620  179.1300  138.6160 O   0  0  0  0  0  0  0  0  0  0  0  0
  185.8240  178.9280  145.5900 C   0  0  0  0  0  2  0  0  0  0  0  0
  184.0370  179.8180  143.9090 C   0  0  0  0  0  1  0  0  0  0  0  0
  184.0140  178.8660  145.4530 S   0  0  0  0  0  0  0  0  0  0  0  0
  1 13  1  0  0  0  0
  2  5  1  6  0  0  0
  2  7  1  0  0  0  0
  2 14  1  0  0  0  0
  4 16  1  1  0  0  0
  4  5  1  0  0  0  0
  6 22  1  0  0  0  0
  7 11  1  0  0  0  0
  8 10  2  0  0  0  0
  9 18  2  0  0  0  0
  9  7  1  0  0  0  0
 10 17  1  0  0  0  0
 11 22  1  6  0  0  0
 11  1  1  0  0  0  0
 12 24  1  1  0  0  0
 12  4  1  0  0  0  0
 12 20  1  0  0  0  0
 13 19  2  0  0  0  0
 14  3  1  0  0  0  0
 15 25  1  6  0  0  0
 15  8  1  0  0  0  0
 18  6  1  0  0  0  0
 19 10  1  0  0  0  0
 20  9  1  0  0  0  0
 21  3  1  6  0  0  0
 21 13  1  0  0  0  0
 21 15  1  0  0  0  0
 23 24  1  0  0  0  0
 26 27  1  0  0  0  0
 27 25  1  0  0  0  0
M  END
>  <MODEL>
1

>  <REMARK>
 VINA RESULT:      -7.1      0.000      0.000
  Name = 
  3 active torsions:
  status: ('A' for Active; 'I' for Inactive)
    1  A    between atoms: S_12  and  C_14
    2  A    between atoms: C_14  and  C_20
    3  A    between atoms: O_16  and  C_17
                            x       y       z     vdW  Elec       q    Type
                         _______ _______ _______ _____ _____    ______ ____

>  <TORSDO>
F 3

$$$$
=
 OpenBabel10272401133D

 27 30  0  0  1  0  0  0  0  0999 V2000
  188.3890  178.5050  141.3210 C   0  0  0  0  0  2  0  0  0  0  0  0
  186.8880  178.1890  144.2360 C   0  0  1  0  0  3  0  0  0  0  0  0
  185.8510  179.4840  142.5000 O   0  0  0  0  0  0  0  0  0  0  0  0
  186.9930  177.5330  146.6760 C   0  0  1  0  0  3  0  0  0  0  0  0
  186.5150  177.1420  145.2750 C   0  0  0  0  0  2  0  0  0  0  0  0
  190.8630  177.3430  142.7240 C   0  0  0  0  0  2  0  0  0  0  0  0
  188.2270  177.9060  143.6970 N   0  0  0  0  0  0  0  0  0  0  0  0
  184.7860  178.6080  138.9900 N   0  0  0  0  0  0  0  0  0  0  0  0
  189.3800  178.1260  144.5440 C   0  0  0  0  0  0  0  0  0  0  0  0
  185.9160  178.1650  138.5180 C   0  0  0  0  0  0  0  0  0  0  0  0
  188.3920  177.3700  142.3340 C   0  0  2  0  0  3  0  0  0  0  0  0
  188.5170  177.5480  146.8440 C   0  0  2  0  0  3  0  0  0  0  0  0
  187.1010  178.5290  140.5670 C   0  0  0  0  0  0  0  0  0  0  0  0
  185.8130  178.2440  143.1590 C   0  0  0  0  0  2  0  0  0  0  0  0
  184.5670  178.8900  140.4110 C   0  0  2  0  0  3  0  0  0  0  0  0
  186.4410  178.7540  147.0660 O   0  0  0  0  0  1  0  0  0  0  0  0
  186.0210  177.8480  137.1360 N   0  0  0  0  0  1  0  0  0  0  0  0
  190.6090  177.8200  144.1190 C   0  0  0  0  0  3  0  0  0  0  0  0
  187.0750  178.0590  139.3570 N   0  0  0  0  0  0  0  0  0  0  0  0
  189.2230  178.5860  145.9630 C   0  0  0  0  0  2  0  0  0  0  0  0
  185.8980  179.2730  141.1010 C   0  0  1  0  0  3  0  0  0  0  0  0
  189.6710  176.5410  142.2120 C   0  0  0  0  0  2  0  0  0  0  0  0
  190.2270  176.3160  147.2620 O   0  0  0  0  0  1  0  0  0  0  0  0
  189.0530  176.2700  146.6670 O   0  0  0  0  0  0  0  0  0  0  0  0
  183.8730  177.6920  141.0410 C   0  0  0  0  0  2  0  0  0  0  0  0
  181.3810  178.4070  140.7440 C   0  0  0  0  0  1  0  0  0  0  0  0
  182.4810  177.1730  139.9970 S   0  0  0  0  0  0  0  0  0  0  0  0
  2 14  1  6  0  0  0
  2  5  1  0  0  0  0
  3 14  1  0  0  0  0
  4 12  1  0  0  0  0
  4 16  1  6  0  0  0
  5  4  1  0  0  0  0
  6 18  1  0  0  0  0
  7  2  1  0  0  0  0
  7  9  1  0  0  0  0
  8 15  1  0  0  0  0
  9 20  1  0  0  0  0
 10  8  2  0  0  0  0
 10 19  1  0  0  0  0
 11  1  1  6  0  0  0
 11  7  1  0  0  0  0
 12 24  1  6  0  0  0
 13  1  1  0  0  0  0
 15 25  1  1  0  0  0
 15 21  1  0  0  0  0
 17 10  1  0  0  0  0
 18  9  2  0  0  0  0
 19 13  2  0  0  0  0
 20 12  1  0  0  0  0
 21 13  1  1  0  0  0
 21  3  1  0  0  0  0
 22 11  1  0  0  0  0
 22  6  1  0  0  0  0
 24 23  1  0  0  0  0
 27 26  1  0  0  0  0
 27 25  1  0  0  0  0
M  END
>  <MODEL>
2

>  <REMARK>
 VINA RESULT:      -6.7      2.914      6.183
  Name = 
  3 active torsions:
  status: ('A' for Active; 'I' for Inactive)
    1  A    between atoms: S_12  and  C_14
    2  A    between atoms: C_14  and  C_20
    3  A    between atoms: O_16  and  C_17
                            x       y       z     vdW  Elec       q    Type
                         _______ _______ _______ _____ _____    ______ ____

>  <TORSDO>
F 3

$$$$
=
 OpenBabel10272401133D

 27 30  0  0  1  0  0  0  0  0999 V2000
  188.2780  178.2230  145.8710 C   0  0  0  0  0  2  0  0  0  0  0  0
  186.7600  178.4270  142.9550 C   0  0  1  0  0  3  0  0  0  0  0  0
  189.1390  178.7300  143.0800 O   0  0  0  0  0  0  0  0  0  0  0  0
  184.6170  178.6490  141.6310 C   0  0  1  0  0  3  0  0  0  0  0  0
  185.7310  177.7070  142.0960 C   0  0  0  0  0  2  0  0  0  0  0  0
  185.4630  178.3580  147.0920 C   0  0  0  0  0  2  0  0  0  0  0  0
  186.3460  178.3970  144.3660 N   0  0  0  0  0  0  0  0  0  0  0  0
  191.9040  176.5040  144.3480 N   0  0  0  0  0  0  0  0  0  0  0  0
  185.2200  179.2060  144.7800 C   0  0  0  0  0  0  0  0  0  0  0  0
  191.4800  176.2880  145.5600 C   0  0  0  0  0  0  0  0  0  0  0  0
  187.0370  177.5260  145.3350 C   0  0  2  0  0  3  0  0  0  0  0  0
  183.7140  179.1670  142.7550 C   0  0  2  0  0  3  0  0  0  0  0  0
  189.5110  177.6230  145.2800 C   0  0  0  0  0  0  0  0  0  0  0  0
  188.1340  177.8140  142.7250 C   0  0  0  0  0  2  0  0  0  0  0  0
  191.0890  177.1480  143.3160 C   0  0  2  0  0  3  0  0  0  0  0  0
  185.1420  179.7100  140.8890 O   0  0  0  0  0  1  0  0  0  0  0  0
  192.3110  175.5910  146.4800 N   0  0  0  0  0  1  0  0  0  0  0  0
  184.7680  179.1590  146.0360 C   0  0  0  0  0  3  0  0  0  0  0  0
  190.2160  176.8050  146.0010 N   0  0  0  0  0  0  0  0  0  0  0  0
  184.4500  180.0280  143.7890 C   0  0  0  0  0  2  0  0  0  0  0  0
  190.0580  178.1070  143.9570 C   0  0  1  0  0  3  0  0  0  0  0  0
  186.1080  177.1200  146.4800 C   0  0  0  0  0  2  0  0  0  0  0  0
  181.9320  178.6820  143.8520 O   0  0  0  0  0  1  0  0  0  0  0  0
  183.0160  178.1190  143.3600 O   0  0  0  0  0  0  0  0  0  0  0  0
  190.4620  176.0650  142.4490 C   0  0  0  0  0  2  0  0  0  0  0  0
  192.0620  177.4970  140.9650 C   0  0  0  0  0  1  0  0  0  0  0  0
  190.5260  176.5660  140.7050 S   0  0  0  0  0  0  0  0  0  0  0  0
  2  5  1  6  0  0  0
  2  7  1  0  0  0  0
  4 16  1  1  0  0  0
  4  5  1  0  0  0  0
  4 12  1  0  0  0  0
  7  9  1  0  0  0  0
  7 11  1  0  0  0  0
  8 10  2  0  0  0  0
  9 18  2  0  0  0  0
 10 19  1  0  0  0  0
 10 17  1  0  0  0  0
 11  1  1  1  0  0  0
 11 22  1  0  0  0  0
 12 24  1  1  0  0  0
 12 20  1  0  0  0  0
 13  1  1  0  0  0  0
 13 19  2  0  0  0  0
 14  2  1  0  0  0  0
 14  3  1  0  0  0  0
 15 25  1  1  0  0  0
 15 21  1  0  0  0  0
 15  8  1  0  0  0  0
 18  6  1  0  0  0  0
 20  9  1  0  0  0  0
 21  3  1  6  0  0  0
 21 13  1  0  0  0  0
 22  6  1  0  0  0  0
 24 23  1  0  0  0  0
 27 26  1  0  0  0  0
 27 25  1  0  0  0  0
M  END
>  <MODEL>
3

>  <REMARK>
 VINA RESULT:      -6.6      2.952      5.597
  Name = 
  3 active torsions:
  status: ('A' for Active; 'I' for Inactive)
    1  A    between atoms: S_12  and  C_14
    2  A    between atoms: C_14  and  C_20
    3  A    between atoms: O_16  and  C_17
                            x       y       z     vdW  Elec       q    Type
                         _______ _______ _______ _____ _____    ______ ____

>  <TORSDO>
F 3

$$$$
=
 OpenBabel10272401133D

 27 30  0  0  1  0  0  0  0  0999 V2000
  191.2080  176.2240  142.3380 C   0  0  0  0  0  2  0  0  0  0  0  0
  188.5640  177.2690  140.6760 C   0  0  1  0  0  3  0  0  0  0  0  0
  188.2770  176.1310  142.7710 O   0  0  0  0  0  0  0  0  0  0  0  0
  187.5480  178.1380  138.5290 C   0  0  1  0  0  3  0  0  0  0  0  0
  188.0240  178.4880  139.9410 C   0  0  0  0  0  2  0  0  0  0  0  0
  192.7750  176.7970  139.7580 C   0  0  0  0  0  2  0  0  0  0  0  0
  189.9970  177.1040  140.3920 N   0  0  0  0  0  0  0  0  0  0  0  0
  189.5480  176.8720  146.2420 N   0  0  0  0  0  0  0  0  0  0  0  0
  190.4010  176.6680  139.0720 C   0  0  0  0  0  0  0  0  0  0  0  0
  190.8270  176.9260  146.0050 C   0  0  0  0  0  0  0  0  0  0  0  0
  191.0090  177.4180  141.4170 C   0  0  2  0  0  3  0  0  0  0  0  0
  188.6660  177.7160  137.5690 C   0  0  2  0  0  3  0  0  0  0  0  0
  190.5770  176.4760  143.6660 C   0  0  0  0  0  0  0  0  0  0  0  0
  188.2630  177.3970  142.1640 C   0  0  0  0  0  2  0  0  0  0  0  0
  188.5380  176.8220  145.1830 C   0  0  2  0  0  3  0  0  0  0  0  0
  186.5410  177.1700  138.5710 O   0  0  0  0  0  1  0  0  0  0  0  0
  191.7370  177.0450  147.0920 N   0  0  0  0  0  1  0  0  0  0  0  0
  191.6930  176.5680  138.7490 C   0  0  0  0  0  3  0  0  0  0  0  0
  191.3360  176.7970  144.6700 N   0  0  0  0  0  0  0  0  0  0  0  0
  189.3880  176.4310  137.9910 C   0  0  0  0  0  2  0  0  0  0  0  0
  189.1180  176.1620  143.9090 C   0  0  1  0  0  3  0  0  0  0  0  0
  192.3350  177.8380  140.7820 C   0  0  0  0  0  2  0  0  0  0  0  0
  188.8020  179.8310  137.2160 O   0  0  0  0  0  1  0  0  0  0  0  0
  189.5630  178.7650  137.3530 O   0  0  0  0  0  0  0  0  0  0  0  0
  188.0060  178.2300  144.9550 C   0  0  0  0  0  2  0  0  0  0  0  0
  186.3970  178.4420  147.0000 C   0  0  0  0  0  1  0  0  0  0  0  0
  186.2080  178.2500  145.2060 S   0  0  0  0  0  0  0  0  0  0  0  0
  1 13  1  0  0  0  0
  2  5  1  6  0  0  0
  2 14  1  0  0  0  0
  4 16  1  1  0  0  0
  4  5  1  0  0  0  0
  6 22  1  0  0  0  0
  7  2  1  0  0  0  0
  7 11  1  0  0  0  0
  9  7  1  0  0  0  0
 10  8  2  0  0  0  0
 10 17  1  0  0  0  0
 11 22  1  6  0  0  0
 11  1  1  0  0  0  0
 12 24  1  1  0  0  0
 12 20  1  0  0  0  0
 12  4  1  0  0  0  0
 13 21  1  0  0  0  0
 13 19  2  0  0  0  0
 14  3  1  0  0  0  0
 15 25  1  6  0  0  0
 15  8  1  0  0  0  0
 18  9  2  0  0  0  0
 18  6  1  0  0  0  0
 19 10  1  0  0  0  0
 20  9  1  0  0  0  0
 21  3  1  6  0  0  0
 21 15  1  0  0  0  0
 23 24  1  0  0  0  0
 25 27  1  0  0  0  0
 27 26  1  0  0  0  0
M  END
>  <MODEL>
4

>  <REMARK>
 VINA RESULT:      -6.4      1.703      2.219
  Name = 
  3 active torsions:
  status: ('A' for Active; 'I' for Inactive)
    1  A    between atoms: S_12  and  C_14
    2  A    between atoms: C_14  and  C_20
    3  A    between atoms: O_16  and  C_17
                            x       y       z     vdW  Elec       q    Type
                         _______ _______ _______ _____ _____    ______ ____

>  <TORSDO>
F 3

$$$$
=
 OpenBabel10272401133D

 27 30  0  0  1  0  0  0  0  0999 V2000
  190.9480  177.4000  141.5640 C   0  0  0  0  0  2  0  0  0  0  0  0
  187.9800  177.9640  142.8760 C   0  0  1  0  0  3  0  0  0  0  0  0
  188.5300  178.9020  140.7360 O   0  0  0  0  0  0  0  0  0  0  0  0
  186.4460  177.9120  144.8860 C   0  0  1  0  0  3  0  0  0  0  0  0
  186.8250  177.2470  143.5610 C   0  0  0  0  0  2  0  0  0  0  0  0
  191.7290  176.3560  144.3460 C   0  0  0  0  0  2  0  0  0  0  0  0
  189.2610  177.4180  143.3490 N   0  0  0  0  0  0  0  0  0  0  0  0
  189.6090  177.3200  137.4880 N   0  0  0  0  0  0  0  0  0  0  0  0
  189.6890  177.7110  144.7000 C   0  0  0  0  0  0  0  0  0  0  0  0
  190.6510  176.6580  137.8970 C   0  0  0  0  0  0  0  0  0  0  0  0
  190.0770  176.5520  142.4780 C   0  0  2  0  0  3  0  0  0  0  0  0
  187.5150  177.8050  145.9780 C   0  0  2  0  0  3  0  0  0  0  0  0
  190.4190  177.3790  140.1690 C   0  0  0  0  0  0  0  0  0  0  0  0
  187.8140  177.8700  141.3660 C   0  0  0  0  0  2  0  0  0  0  0  0
  188.6570  177.9600  138.3990 C   0  0  2  0  0  3  0  0  0  0  0  0
  186.0760  179.2440  144.6850 O   0  0  0  0  0  1  0  0  0  0  0  0
  191.4850  176.0040  136.9470 N   0  0  0  0  0  1  0  0  0  0  0  0
  190.8120  177.1820  145.1930 C   0  0  0  0  0  3  0  0  0  0  0  0
  191.0130  176.6350  139.2860 N   0  0  0  0  0  0  0  0  0  0  0  0
  188.8270  178.5160  145.6280 C   0  0  0  0  0  2  0  0  0  0  0  0
  189.3540  178.3540  139.7230 C   0  0  1  0  0  3  0  0  0  0  0  0
  190.9340  175.5860  143.2980 C   0  0  0  0  0  2  0  0  0  0  0  0
  188.1990  176.5320  147.5690 O   0  0  0  0  0  1  0  0  0  0  0  0
  187.7310  176.4720  146.3390 O   0  0  0  0  0  0  0  0  0  0  0  0
  187.4660  177.0320  138.5860 C   0  0  0  0  0  2  0  0  0  0  0  0
  185.2300  178.3750  138.6590 C   0  0  0  0  0  1  0  0  0  0  0  0
  186.1630  177.4630  137.3980 S   0  0  0  0  0  0  0  0  0  0  0  0
  2 14  1  6  0  0  0
  2  7  1  0  0  0  0
  2  5  1  0  0  0  0
  3 14  1  0  0  0  0
  4 16  1  6  0  0  0
  4 12  1  0  0  0  0
  5  4  1  0  0  0  0
  6 18  1  0  0  0  0
  7  9  1  0  0  0  0
  8 10  2  0  0  0  0
  8 15  1  0  0  0  0
  9 18  2  0  0  0  0
  9 20  1  0  0  0  0
 10 19  1  0  0  0  0
 11  1  1  1  0  0  0
 11 22  1  0  0  0  0
 11  7  1  0  0  0  0
 12 24  1  6  0  0  0
 13  1  1  0  0  0  0
 15 25  1  1  0  0  0
 15 21  1  0  0  0  0
 17 10  1  0  0  0  0
 19 13  2  0  0  0  0
 20 12  1  0  0  0  0
 21 13  1  1  0  0  0
 21  3  1  0  0  0  0
 22  6  1  0  0  0  0
 24 23  1  0  0  0  0
 27 25  1  0  0  0  0
 27 26  1  0  0  0  0
M  END
>  <MODEL>
5

>  <REMARK>
 VINA RESULT:      -6.4      2.795      6.472
  Name = 
  3 active torsions:
  status: ('A' for Active; 'I' for Inactive)
    1  A    between atoms: S_12  and  C_14
    2  A    between atoms: C_14  and  C_20
    3  A    between atoms: O_16  and  C_17
                            x       y       z     vdW  Elec       q    Type
                         _______ _______ _______ _____ _____    ______ ____

>  <TORSDO>
F 3

$$$$
=
 OpenBabel10272401133D

 27 30  0  0  1  0  0  0  0  0999 V2000
  186.2000  177.5300  145.9650 C   0  0  0  0  0  2  0  0  0  0  0  0
  189.2300  177.0270  144.7780 C   0  0  1  0  0  3  0  0  0  0  0  0
  187.3220  176.6010  143.3840 O   0  0  0  0  0  0  0  0  0  0  0  0
  191.7110  176.7600  145.1920 C   0  0  1  0  0  3  0  0  0  0  0  0
  190.5990  177.6860  144.6920 C   0  0  0  0  0  2  0  0  0  0  0  0
  187.5550  177.7310  148.7150 C   0  0  0  0  0  2  0  0  0  0  0  0
  188.6370  177.2730  146.1020 N   0  0  0  0  0  0  0  0  0  0  0  0
  184.4850  178.8050  142.2430 N   0  0  0  0  0  0  0  0  0  0  0  0
  189.1970  176.5960  147.2530 C   0  0  0  0  0  0  0  0  0  0  0  0
  184.0360  179.2070  143.3970 C   0  0  0  0  0  0  0  0  0  0  0  0
  187.5210  178.2220  146.2620 C   0  0  2  0  0  3  0  0  0  0  0  0
  191.6530  176.4540  146.6920 C   0  0  2  0  0  3  0  0  0  0  0  0
  185.6640  177.9700  144.6430 C   0  0  0  0  0  0  0  0  0  0  0  0
  188.3550  177.5200  143.6340 C   0  0  0  0  0  2  0  0  0  0  0  0
  185.7460  178.0790  142.0830 C   0  0  2  0  0  3  0  0  0  0  0  0
  191.7450  175.5790  144.4470 O   0  0  0  0  0  1  0  0  0  0  0  0
  182.8370  179.9700  143.4560 N   0  0  0  0  0  1  0  0  0  0  0  0
  188.7340  176.8390  148.4810 C   0  0  0  0  0  3  0  0  0  0  0  0
  184.6950  178.8330  144.6160 N   0  0  0  0  0  0  0  0  0  0  0  0
  190.3900  175.6960  147.1180 C   0  0  0  0  0  2  0  0  0  0  0  0
  186.0810  177.2790  143.3650 C   0  0  1  0  0  3  0  0  0  0  0  0
  187.5080  178.8340  147.6630 C   0  0  0  0  0  2  0  0  0  0  0  0
  192.4050  177.1980  148.5620 O   0  0  0  0  0  1  0  0  0  0  0  0
  191.8390  177.6140  147.4480 O   0  0  0  0  0  0  0  0  0  0  0  0
  186.8280  179.0710  141.6810 C   0  0  0  0  0  2  0  0  0  0  0  0
  186.3690  178.3570  139.2130 C   0  0  0  0  0  1  0  0  0  0  0  0
  187.8090  178.3850  140.3150 S   0  0  0  0  0  0  0  0  0  0  0  0
  2 14  1  6  0  0  0
  2  7  1  0  0  0  0
  3 14  1  0  0  0  0
  4 16  1  6  0  0  0
  4 12  1  0  0  0  0
  5  2  1  0  0  0  0
  5  4  1  0  0  0  0
  7 11  1  0  0  0  0
  7  9  1  0  0  0  0
  8 10  2  0  0  0  0
  9 18  2  0  0  0  0
 10 17  1  0  0  0  0
 10 19  1  0  0  0  0
 11  1  1  1  0  0  0
 11 22  1  0  0  0  0
 12 20  1  0  0  0  0
 12 24  1  1  0  0  0
 13  1  1  0  0  0  0
 15 25  1  1  0  0  0
 15  8  1  0  0  0  0
 15 21  1  0  0  0  0
 18  6  1  0  0  0  0
 19 13  2  0  0  0  0
 20  9  1  0  0  0  0
 21  3  1  1  0  0  0
 21 13  1  0  0  0  0
 22  6  1  0  0  0  0
 24 23  1  0  0  0  0
 26 27  1  0  0  0  0
 27 25  1  0  0  0  0
M  END
>  <MODEL>
6

>  <REMARK>
 VINA RESULT:      -6.3      3.257      6.326
  Name = 
  3 active torsions:
  status: ('A' for Active; 'I' for Inactive)
    1  A    between atoms: S_12  and  C_14
    2  A    between atoms: C_14  and  C_20
    3  A    between atoms: O_16  and  C_17
                            x       y       z     vdW  Elec       q    Type
                         _______ _______ _______ _____ _____    ______ ____

>  <TORSDO>
F 3

$$$$
=
 OpenBabel10272401133D

 27 30  0  0  1  0  0  0  0  0999 V2000
  187.0630  177.3890  144.8260 C   0  0  0  0  0  2  0  0  0  0  0  0
  190.2370  176.5370  145.0460 C   0  0  1  0  0  3  0  0  0  0  0  0
  188.9910  175.9790  143.0710 O   0  0  0  0  0  0  0  0  0  0  0  0
  192.3090  176.2170  146.4590 C   0  0  1  0  0  3  0  0  0  0  0  0
  191.5970  177.1000  145.4330 C   0  0  0  0  0  2  0  0  0  0  0  0
  187.2480  177.9820  147.8350 C   0  0  0  0  0  2  0  0  0  0  0  0
  189.2060  177.0330  145.9710 N   0  0  0  0  0  0  0  0  0  0  0  0
  187.1000  178.1020  140.5950 N   0  0  0  0  0  0  0  0  0  0  0  0
  189.1890  176.5330  147.3290 C   0  0  0  0  0  0  0  0  0  0  0  0
  186.2850  178.7160  141.4030 C   0  0  0  0  0  0  0  0  0  0  0  0
  188.2330  178.0520  145.5370 C   0  0  2  0  0  3  0  0  0  0  0  0
  191.6350  176.1720  147.8340 C   0  0  2  0  0  3  0  0  0  0  0  0
  187.1420  177.6250  143.3550 C   0  0  0  0  0  0  0  0  0  0  0  0
  189.9420  176.8730  143.5900 C   0  0  0  0  0  2  0  0  0  0  0  0
  188.2310  177.2960  141.0570 C   0  0  2  0  0  3  0  0  0  0  0  0
  192.4960  174.9260  145.9580 O   0  0  0  0  0  1  0  0  0  0  0  0
  185.2550  179.5390  140.8690 N   0  0  0  0  0  1  0  0  0  0  0  0
  188.3130  177.0040  148.2200 C   0  0  0  0  0  3  0  0  0  0  0  0
  186.3670  178.5200  142.8220 N   0  0  0  0  0  0  0  0  0  0  0  0
  190.2270  175.5630  147.8110 C   0  0  0  0  0  2  0  0  0  0  0  0
  187.9430  176.7080  142.4590 C   0  0  1  0  0  3  0  0  0  0  0  0
  187.7430  178.8920  146.7160 C   0  0  0  0  0  2  0  0  0  0  0  0
  192.7310  177.4410  149.1770 O   0  0  0  0  0  1  0  0  0  0  0  0
  191.6420  177.4320  148.4380 O   0  0  0  0  0  0  0  0  0  0  0  0
  189.4900  178.1480  140.9970 C   0  0  0  0  0  2  0  0  0  0  0  0
  189.8910  177.6090  138.4750 C   0  0  0  0  0  1  0  0  0  0  0  0
  190.7650  177.2880  140.0320 S   0  0  0  0  0  0  0  0  0  0  0  0
  2 14  1  6  0  0  0
  2  5  1  0  0  0  0
  2  7  1  0  0  0  0
  3 14  1  0  0  0  0
  4 16  1  6  0  0  0
  4 12  1  0  0  0  0
  5  4  1  0  0  0  0
  6 18  1  0  0  0  0
  7  9  1  0  0  0  0
  8 15  1  0  0  0  0
  8 10  2  0  0  0  0
  9 20  1  0  0  0  0
  9 18  2  0  0  0  0
 10 19  1  0  0  0  0
 11  1  1  1  0  0  0
 11  7  1  0  0  0  0
 11 22  1  0  0  0  0
 12 24  1  6  0  0  0
 13  1  1  0  0  0  0
 15 25  1  1  0  0  0
 15 21  1  0  0  0  0
 17 10  1  0  0  0  0
 19 13  2  0  0  0  0
 20 12  1  0  0  0  0
 21  3  1  1  0  0  0
 21 13  1  0  0  0  0
 22  6  1  0  0  0  0
 24 23  1  0  0  0  0
 26 27  1  0  0  0  0
 27 25  1  0  0  0  0
M  END
>  <MODEL>
7

>  <REMARK>
 VINA RESULT:      -6.1      3.497      7.014
  Name = 
  3 active torsions:
  status: ('A' for Active; 'I' for Inactive)
    1  A    between atoms: S_12  and  C_14
    2  A    between atoms: C_14  and  C_20
    3  A    between atoms: O_16  and  C_17
                            x       y       z     vdW  Elec       q    Type
                         _______ _______ _______ _____ _____    ______ ____

>  <TORSDO>
F 3

$$$$
=
 OpenBabel10272401133D

 27 30  0  0  1  0  0  0  0  0999 V2000
  187.7520  178.0430  137.4090 C   0  0  0  0  0  2  0  0  0  0  0  0
  190.4410  176.1630  137.6890 C   0  0  1  0  0  3  0  0  0  0  0  0
  190.1100  177.9960  139.2040 O   0  0  0  0  0  0  0  0  0  0  0  0
  191.9890  174.4210  136.7050 C   0  0  1  0  0  3  0  0  0  0  0  0
  190.8770  174.7050  137.7180 C   0  0  0  0  0  2  0  0  0  0  0  0
  187.3490  176.6680  134.6910 C   0  0  0  0  0  2  0  0  0  0  0  0
  189.3780  176.3490  136.6900 N   0  0  0  0  0  0  0  0  0  0  0  0
  187.3240  178.8120  141.6100 N   0  0  0  0  0  0  0  0  0  0  0  0
  189.7180  176.2720  135.2860 C   0  0  0  0  0  0  0  0  0  0  0  0
  186.3120  178.8010  140.7910 C   0  0  0  0  0  0  0  0  0  0  0  0
  187.9820  176.5690  137.1100 C   0  0  2  0  0  3  0  0  0  0  0  0
  191.5580  174.5450  135.2400 C   0  0  2  0  0  3  0  0  0  0  0  0
  187.6550  178.2690  138.8810 C   0  0  0  0  0  0  0  0  0  0  0  0
  190.0270  176.5980  139.0880 C   0  0  0  0  0  2  0  0  0  0  0  0
  188.6590  178.3380  141.2390 C   0  0  2  0  0  3  0  0  0  0  0  0
  193.1070  175.2180  136.9600 O   0  0  0  0  0  1  0  0  0  0  0  0
  185.0320  179.2130  141.2540 N   0  0  0  0  0  1  0  0  0  0  0  0
  188.7750  176.3690  134.3460 C   0  0  0  0  0  3  0  0  0  0  0  0
  186.4830  178.4480  139.4110 N   0  0  0  0  0  0  0  0  0  0  0  0
  191.1180  175.9600  134.8440 C   0  0  0  0  0  2  0  0  0  0  0  0
  188.8920  178.5000  139.7180 C   0  0  1  0  0  3  0  0  0  0  0  0
  186.9970  176.0730  136.0500 C   0  0  0  0  0  2  0  0  0  0  0  0
  191.2080  172.4370  135.0100 O   0  0  0  0  0  1  0  0  0  0  0  0
  190.5850  173.5940  134.9210 O   0  0  0  0  0  0  0  0  0  0  0  0
  188.8190  176.9070  141.7330 C   0  0  0  0  0  2  0  0  0  0  0  0
  191.2490  177.3380  142.5810 C   0  0  0  0  0  1  0  0  0  0  0  0
  189.6600  176.9070  143.3430 S   0  0  0  0  0  0  0  0  0  0  0  0
  1 13  1  0  0  0  0
  2  5  1  1  0  0  0
  2 14  1  0  0  0  0
  3 21  1  0  0  0  0
  4 16  1  1  0  0  0
  4  5  1  0  0  0  0
  6 22  1  0  0  0  0
  7 11  1  0  0  0  0
  7  2  1  0  0  0  0
  9  7  1  0  0  0  0
 10 17  1  0  0  0  0
 10  8  2  0  0  0  0
 11 22  1  6  0  0  0
 11  1  1  0  0  0  0
 12 24  1  1  0  0  0
 12  4  1  0  0  0  0
 13 19  2  0  0  0  0
 14  3  1  0  0  0  0
 15  8  1  0  0  0  0
 15 25  1  6  0  0  0
 18  6  1  0  0  0  0
 18  9  2  0  0  0  0
 19 10  1  0  0  0  0
 20 12  1  0  0  0  0
 20  9  1  0  0  0  0
 21 13  1  6  0  0  0
 21 15  1  0  0  0  0
 24 23  1  0  0  0  0
 25 27  1  0  0  0  0
 26 27  1  0  0  0  0
M  END
>  <MODEL>
8

>  <REMARK>
 VINA RESULT:      -5.9      3.951      6.603
  Name = 
  3 active torsions:
  status: ('A' for Active; 'I' for Inactive)
    1  A    between atoms: S_12  and  C_14
    2  A    between atoms: C_14  and  C_20
    3  A    between atoms: O_16  and  C_17
                            x       y       z     vdW  Elec       q    Type
                         _______ _______ _______ _____ _____    ______ ____

>  <TORSDO>
F 3

$$$$
=
 OpenBabel10272401133D

 27 30  0  0  1  0  0  0  0  0999 V2000
  184.1660  178.1270  144.2900 C   0  0  0  0  0  2  0  0  0  0  0  0
  186.7370  177.9940  142.2360 C   0  0  1  0  0  3  0  0  0  0  0  0
  184.5520  177.3910  141.4440 O   0  0  0  0  0  0  0  0  0  0  0  0
  189.2420  177.9960  141.8840 C   0  0  1  0  0  3  0  0  0  0  0  0
  187.9450  178.8040  141.7870 C   0  0  0  0  0  2  0  0  0  0  0  0
  186.2550  178.4120  146.5240 C   0  0  0  0  0  2  0  0  0  0  0  0
  186.5460  178.1400  143.6870 N   0  0  0  0  0  0  0  0  0  0  0  0
  181.2990  179.2910  141.3160 N   0  0  0  0  0  0  0  0  0  0  0  0
  187.4880  177.5020  144.5820 C   0  0  0  0  0  0  0  0  0  0  0  0
  181.1780  179.6130  142.5720 C   0  0  0  0  0  0  0  0  0  0  0  0
  185.4400  178.9540  144.2220 C   0  0  2  0  0  3  0  0  0  0  0  0
  189.6660  177.6490  143.3150 C   0  0  2  0  0  3  0  0  0  0  0  0
  183.2190  178.5350  143.2110 C   0  0  0  0  0  0  0  0  0  0  0  0
  185.5150  178.4130  141.4300 C   0  0  0  0  0  2  0  0  0  0  0  0
  182.5200  178.7150  140.7500 C   0  0  2  0  0  3  0  0  0  0  0  0
  189.1690  176.8450  141.0970 O   0  0  0  0  0  1  0  0  0  0  0  0
  179.9820  180.2350  143.0240 N   0  0  0  0  0  1  0  0  0  0  0  0
  187.3920  177.6620  145.9040 C   0  0  0  0  0  3  0  0  0  0  0  0
  182.2050  179.2850  143.5190 N   0  0  0  0  0  0  0  0  0  0  0  0
  188.6700  176.7450  144.0510 C   0  0  0  0  0  2  0  0  0  0  0  0
  183.3000  177.9270  141.8300 C   0  0  1  0  0  3  0  0  0  0  0  0
  185.7860  179.5270  145.5970 C   0  0  0  0  0  2  0  0  0  0  0  0
  191.2050  179.0850  143.7500 O   0  0  0  0  0  1  0  0  0  0  0  0
  189.9530  178.8040  144.0470 O   0  0  0  0  0  0  0  0  0  0  0  0
  183.3280  179.8310  140.1040 C   0  0  0  0  0  2  0  0  0  0  0  0
  182.6560  178.5690  137.9200 C   0  0  0  0  0  1  0  0  0  0  0  0
  182.5800  180.2830  138.5120 S   0  0  0  0  0  0  0  0  0  0  0  0
  2 14  1  6  0  0  0
  2  7  1  0  0  0  0
  4 16  1  6  0  0  0
  4 12  1  0  0  0  0
  5  4  1  0  0  0  0
  5  2  1  0  0  0  0
  7 11  1  0  0  0  0
  7  9  1  0  0  0  0
  8 10  2  0  0  0  0
  9 18  2  0  0  0  0
 10 17  1  0  0  0  0
 10 19  1  0  0  0  0
 11  1  1  1  0  0  0
 11 22  1  0  0  0  0
 12 24  1  1  0  0  0
 12 20  1  0  0  0  0
 13 19  2  0  0  0  0
 13  1  1  0  0  0  0
 14  3  1  0  0  0  0
 15 25  1  1  0  0  0
 15  8  1  0  0  0  0
 15 21  1  0  0  0  0
 18  6  1  0  0  0  0
 20  9  1  0  0  0  0
 21  3  1  6  0  0  0
 21 13  1  0  0  0  0
 22  6  1  0  0  0  0
 23 24  1  0  0  0  0
 26 27  1  0  0  0  0
 27 25  1  0  0  0  0
M  END
>  <MODEL>
9

>  <REMARK>
 VINA RESULT:      -5.8      3.775      5.893
  Name = 
  3 active torsions:
  status: ('A' for Active; 'I' for Inactive)
    1  A    between atoms: S_12  and  C_14
    2  A    between atoms: C_14  and  C_20
    3  A    between atoms: O_16  and  C_17
                            x       y       z     vdW  Elec       q    Type
                         _______ _______ _______ _____ _____    ______ ____

>  <TORSDO>
F 3

$$$$
