=
 OpenBabel10272415083D

 34 38  0  0  1  0  0  0  0  0999 V2000
  183.3460  178.9160  141.8460 C   0  0  0  0  0  0  0  0  0  0  0  0
  180.4850  180.1940  139.7700 C   0  0  0  0  0  3  0  0  0  0  0  0
  180.5060  179.2520  141.9080 O   0  0  0  0  0  0  0  0  0  0  0  0
  185.2740  178.0290  143.0910 C   0  0  0  0  0  0  0  0  0  0  0  0
  184.5610  178.3480  141.8450 C   0  0  0  0  0  3  0  0  0  0  0  0
  183.4040  178.7970  144.3700 C   0  0  0  0  0  0  0  0  0  0  0  0
  182.9100  178.9560  145.5180 O   0  0  0  0  0  0  0  0  0  0  0  0
  184.7090  178.2240  144.2450 N   0  0  0  0  0  0  0  0  0  0  0  0
  186.5860  177.4580  143.0090 N   0  0  0  0  0  2  0  0  0  0  0  0
  181.2070  179.0010  143.0910 C   0  0  0  0  0  0  0  0  0  0  0  0
  182.6820  179.3180  143.1480 C   0  0  2  0  0  3  0  0  0  0  0  0
  180.5810  178.5950  144.1060 O   0  0  0  0  0  0  0  0  0  0  0  0
  181.0880  180.6950  138.5030 C   0  0  0  0  0  2  0  0  0  0  0  0
  181.5780  179.5740  137.6480 C   0  0  0  0  0  0  0  0  0  0  0  0
  182.5620  178.7720  138.0650 C   0  0  0  0  0  3  0  0  0  0  0  0
  181.1700  179.5400  140.7110 C   0  0  0  0  0  0  0  0  0  0  0  0
  183.1670  178.7680  139.4100 C   0  0  0  0  0  3  0  0  0  0  0  0
  182.6030  179.1410  140.5760 C   0  0  0  0  0  0  0  0  0  0  0  0
  187.9800  177.5620  146.5320 C   0  0  0  0  0  2  0  0  0  0  0  0
  188.8730  176.9280  143.7470 C   0  0  0  0  0  2  0  0  0  0  0  0
  191.5910  176.5370  147.0730 C   0  0  0  0  0  0  0  0  0  0  0  0
  190.2880  177.0040  147.2940 C   0  0  0  0  0  3  0  0  0  0  0  0
  189.3860  177.1290  146.2320 C   0  0  0  0  0  0  0  0  0  0  0  0
  191.0860  176.2980  144.7090 C   0  0  0  0  0  3  0  0  0  0  0  0
  189.7830  176.7530  144.9300 C   0  0  0  0  0  0  0  0  0  0  0  0
  191.9830  176.1870  145.7740 C   0  0  0  0  0  3  0  0  0  0  0  0
  187.4060  177.0740  144.1550 C   0  0  1  0  0  3  0  0  0  0  0  0
  187.2580  178.0790  145.2920 C   0  0  0  0  0  2  0  0  0  0  0  0
  192.5380  176.4150  148.1960 C   0  0  0  0  0  0  0  0  0  0  0  0
  193.2920  175.4100  148.2860 O   0  0  0  0  0  0  0  0  0  0  0  0
  192.6100  177.4310  149.1920 N   0  0  0  0  0  1  0  0  0  0  0  0
  181.0430  179.4330  136.2830 C   0  0  0  0  0  0  0  0  0  0  0  0
  180.7040  180.5630  135.5480 O   0  0  0  0  0  0  0  0  0  0  0  0
  180.8850  178.2930  135.7680 O   0  0  0  0  0  1  0  0  0  0  0  0
  2 16  2  0  0  0  0
  3 10  1  0  0  0  0
  4  8  2  0  0  0  0
  5  1  2  0  0  0  0
  5  4  1  0  0  0  0
  6  7  2  0  0  0  0
  8  6  1  0  0  0  0
  9  4  1  0  0  0  0
 10 11  1  0  0  0  0
 10 12  2  0  0  0  0
 11  1  1  6  0  0  0
 11  6  1  0  0  0  0
 13  2  1  0  0  0  0
 14 15  2  0  0  0  0
 14 13  1  0  0  0  0
 15 17  1  0  0  0  0
 16  3  1  0  0  0  0
 17 18  2  0  0  0  0
 18 16  1  0  0  0  0
 18  1  1  0  0  0  0
 20 27  1  0  0  0  0
 20 25  1  0  0  0  0
 21 22  1  0  0  0  0
 21 29  1  0  0  0  0
 23 19  1  0  0  0  0
 23 22  2  0  0  0  0
 24 25  2  0  0  0  0
 24 26  1  0  0  0  0
 25 23  1  0  0  0  0
 26 21  2  0  0  0  0
 27  9  1  6  0  0  0
 27 28  1  0  0  0  0
 28 19  1  0  0  0  0
 29 30  2  0  0  0  0
 29 31  1  0  0  0  0
 32 14  1  0  0  0  0
 33 32  2  0  0  0  0
 34 32  1  0  0  0  0
M  END
>  <MODEL>
1

>  <REMARK>
 VINA RESULT:      -9.8      0.000      0.000
  Name = 
  3 active torsions:
  status: ('A' for Active; 'I' for Inactive)
    1  A    between atoms: C_3  and  C_25
    2  A    between atoms: C_7  and  C_11
    3  A    between atoms: N_18  and  C_30
                            x       y       z     vdW  Elec       q    Type
                         _______ _______ _______ _____ _____    ______ ____

>  <TORSDO>
F 3

$$$$
=
 OpenBabel10272415083D

 34 38  0  0  1  0  0  0  0  0999 V2000
  191.8320  176.0790  137.0940 C   0  0  0  0  0  0  0  0  0  0  0  0
  194.3090  175.3950  134.3520 C   0  0  0  0  0  3  0  0  0  0  0  0
  192.0210  174.9390  134.4780 O   0  0  0  0  0  0  0  0  0  0  0  0
  190.3070  176.4940  138.9800 C   0  0  0  0  0  0  0  0  0  0  0  0
  191.6340  176.2100  138.4150 C   0  0  0  0  0  3  0  0  0  0  0  0
  189.3420  176.4000  136.7930 C   0  0  0  0  0  0  0  0  0  0  0  0
  188.2900  176.4650  136.1050 O   0  0  0  0  0  0  0  0  0  0  0  0
  189.2600  176.5540  138.2130 N   0  0  0  0  0  0  0  0  0  0  0  0
  190.1820  176.6580  140.3990 N   0  0  0  0  0  2  0  0  0  0  0  0
  190.7710  175.2640  135.0110 C   0  0  0  0  0  0  0  0  0  0  0  0
  190.6910  176.2870  136.1180 C   0  0  2  0  0  3  0  0  0  0  0  0
  189.7330  174.7620  134.5030 O   0  0  0  0  0  0  0  0  0  0  0  0
  195.6140  175.9270  134.8350 C   0  0  0  0  0  2  0  0  0  0  0  0
  196.1740  175.0900  135.9360 C   0  0  0  0  0  0  0  0  0  0  0  0
  195.5340  174.9710  137.1020 C   0  0  0  0  0  3  0  0  0  0  0  0
  193.2080  175.3330  135.1040 C   0  0  0  0  0  0  0  0  0  0  0  0
  194.1840  175.4830  137.4070 C   0  0  0  0  0  3  0  0  0  0  0  0
  193.1640  175.6970  136.5520 C   0  0  0  0  0  0  0  0  0  0  0  0
  187.0140  178.4980  141.3750 C   0  0  0  0  0  2  0  0  0  0  0  0
  189.1150  176.7630  142.6140 C   0  0  0  0  0  2  0  0  0  0  0  0
  185.7950  178.2120  144.9550 C   0  0  0  0  0  0  0  0  0  0  0  0
  185.9120  178.5900  143.6100 C   0  0  0  0  0  3  0  0  0  0  0  0
  186.9750  178.1250  142.8290 C   0  0  0  0  0  0  0  0  0  0  0  0
  187.8100  176.8740  144.7360 C   0  0  0  0  0  3  0  0  0  0  0  0
  187.9220  177.2410  143.3930 C   0  0  0  0  0  0  0  0  0  0  0  0
  186.7510  177.3530  145.5120 C   0  0  0  0  0  3  0  0  0  0  0  0
  188.9300  176.9250  141.1040 C   0  0  1  0  0  3  0  0  0  0  0  0
  188.4020  178.3160  140.7700 C   0  0  0  0  0  2  0  0  0  0  0  0
  184.6760  178.7140  145.7730 C   0  0  0  0  0  0  0  0  0  0  0  0
  184.7630  178.7270  147.0300 O   0  0  0  0  0  0  0  0  0  0  0  0
  183.4840  179.1880  145.1530 N   0  0  0  0  0  1  0  0  0  0  0  0
  197.5080  174.4880  135.7640 C   0  0  0  0  0  0  0  0  0  0  0  0
  198.6470  175.2780  135.8640 O   0  0  0  0  0  1  0  0  0  0  0  0
  197.6310  173.2560  135.5230 O   0  0  0  0  0  0  0  0  0  0  0  0
  1  5  2  0  0  0  0
  2 13  1  0  0  0  0
  2 16  2  0  0  0  0
  3 10  1  0  0  0  0
  3 16  1  0  0  0  0
  4  9  1  0  0  0  0
  5  4  1  0  0  0  0
  6  8  1  0  0  0  0
  7  6  2  0  0  0  0
  8  4  2  0  0  0  0
 11 10  1  6  0  0  0
 11  6  1  0  0  0  0
 11  1  1  0  0  0  0
 12 10  2  0  0  0  0
 13 14  1  0  0  0  0
 14 15  2  0  0  0  0
 15 17  1  0  0  0  0
 16 18  1  0  0  0  0
 18  1  1  0  0  0  0
 18 17  2  0  0  0  0
 19 23  1  0  0  0  0
 20 25  1  0  0  0  0
 21 26  1  0  0  0  0
 21 29  1  0  0  0  0
 22 21  2  0  0  0  0
 23 25  2  0  0  0  0
 23 22  1  0  0  0  0
 24 26  2  0  0  0  0
 25 24  1  0  0  0  0
 27  9  1  6  0  0  0
 27 20  1  0  0  0  0
 28 27  1  0  0  0  0
 28 19  1  0  0  0  0
 29 30  2  0  0  0  0
 31 29  1  0  0  0  0
 32 33  1  0  0  0  0
 32 14  1  0  0  0  0
 34 32  2  0  0  0  0
M  END
>  <MODEL>
2

>  <REMARK>
 VINA RESULT:      -9.6      7.355     10.851
  Name = 
  3 active torsions:
  status: ('A' for Active; 'I' for Inactive)
    1  A    between atoms: C_3  and  C_25
    2  A    between atoms: C_7  and  C_11
    3  A    between atoms: N_18  and  C_30
                            x       y       z     vdW  Elec       q    Type
                         _______ _______ _______ _____ _____    ______ ____

>  <TORSDO>
F 3

$$$$
=
 OpenBabel10272415083D

 34 38  0  0  1  0  0  0  0  0999 V2000
  187.3360  177.9810  143.0910 C   0  0  0  0  0  0  0  0  0  0  0  0
  184.5250  179.0950  145.3230 C   0  0  0  0  0  3  0  0  0  0  0  0
  186.4040  177.7870  145.7880 O   0  0  0  0  0  0  0  0  0  0  0  0
  189.0850  177.2340  141.5300 C   0  0  0  0  0  0  0  0  0  0  0  0
  187.7100  177.6490  141.8460 C   0  0  0  0  0  3  0  0  0  0  0  0
  189.6790  177.4010  143.8410 C   0  0  0  0  0  0  0  0  0  0  0  0
  190.5800  177.2510  144.7080 O   0  0  0  0  0  0  0  0  0  0  0  0
  189.9700  177.1040  142.4720 N   0  0  0  0  0  0  0  0  0  0  0  0
  189.4190  176.9310  140.1690 N   0  0  0  0  0  2  0  0  0  0  0  0
  187.7230  177.4470  145.4770 C   0  0  0  0  0  0  0  0  0  0  0  0
  188.3460  178.0050  144.2210 C   0  0  2  0  0  3  0  0  0  0  0  0
  188.3910  176.7520  146.2900 O   0  0  0  0  0  0  0  0  0  0  0  0
  183.6270  179.9250  144.4710 C   0  0  0  0  0  2  0  0  0  0  0  0
  182.8860  179.0900  143.4800 C   0  0  0  0  0  0  0  0  0  0  0  0
  183.5370  178.4130  142.5300 C   0  0  0  0  0  3  0  0  0  0  0  0
  185.5690  178.4090  144.8540 C   0  0  0  0  0  0  0  0  0  0  0  0
  185.0000  178.2640  142.4180 C   0  0  0  0  0  3  0  0  0  0  0  0
  185.9170  178.3040  143.4060 C   0  0  0  0  0  0  0  0  0  0  0  0
  193.1060  177.1500  139.3190 C   0  0  0  0  0  2  0  0  0  0  0  0
  190.6220  175.7880  138.3520 C   0  0  0  0  0  2  0  0  0  0  0  0
  194.4180  175.0640  136.4350 C   0  0  0  0  0  0  0  0  0  0  0  0
  194.3400  175.9770  137.4970 C   0  0  0  0  0  3  0  0  0  0  0  0
  193.1220  176.2200  138.1400 C   0  0  0  0  0  0  0  0  0  0  0  0
  192.0420  174.6160  136.6700 C   0  0  0  0  0  3  0  0  0  0  0  0
  191.9660  175.5170  137.7350 C   0  0  0  0  0  0  0  0  0  0  0  0
  193.2610  174.3880  136.0260 C   0  0  0  0  0  3  0  0  0  0  0  0
  190.7330  176.4910  139.7070 C   0  0  1  0  0  3  0  0  0  0  0  0
  191.7040  177.6630  139.6300 C   0  0  0  0  0  2  0  0  0  0  0  0
  195.7040  174.8200  135.7570 C   0  0  0  0  0  0  0  0  0  0  0  0
  195.7490  174.1140  134.7150 O   0  0  0  0  0  0  0  0  0  0  0  0
  196.9090  175.3770  136.2740 N   0  0  0  0  0  1  0  0  0  0  0  0
  181.4130  179.1160  143.4880 C   0  0  0  0  0  0  0  0  0  0  0  0
  180.7320  180.1280  142.8220 O   0  0  0  0  0  0  0  0  0  0  0  0
  180.7580  178.2280  144.0960 O   0  0  0  0  0  1  0  0  0  0  0  0
  1 18  1  0  0  0  0
  4  5  1  0  0  0  0
  4  8  2  0  0  0  0
  5  1  2  0  0  0  0
  6 11  1  0  0  0  0
  6  7  2  0  0  0  0
  8  6  1  0  0  0  0
  9  4  1  0  0  0  0
 10  3  1  0  0  0  0
 10 12  2  0  0  0  0
 11  1  1  6  0  0  0
 11 10  1  0  0  0  0
 13  2  1  0  0  0  0
 14 32  1  0  0  0  0
 14 13  1  0  0  0  0
 15 14  2  0  0  0  0
 16  2  2  0  0  0  0
 16  3  1  0  0  0  0
 17 15  1  0  0  0  0
 17 18  2  0  0  0  0
 18 16  1  0  0  0  0
 19 28  1  0  0  0  0
 20 27  1  0  0  0  0
 21 22  1  0  0  0  0
 22 23  2  0  0  0  0
 23 19  1  0  0  0  0
 24 25  2  0  0  0  0
 25 23  1  0  0  0  0
 25 20  1  0  0  0  0
 26 21  2  0  0  0  0
 26 24  1  0  0  0  0
 27  9  1  6  0  0  0
 28 27  1  0  0  0  0
 29 31  1  0  0  0  0
 29 21  1  0  0  0  0
 30 29  2  0  0  0  0
 32 34  1  0  0  0  0
 33 32  2  0  0  0  0
M  END
>  <MODEL>
3

>  <REMARK>
 VINA RESULT:      -9.4      5.621      7.832
  Name = 
  3 active torsions:
  status: ('A' for Active; 'I' for Inactive)
    1  A    between atoms: C_3  and  C_25
    2  A    between atoms: C_7  and  C_11
    3  A    between atoms: N_18  and  C_30
                            x       y       z     vdW  Elec       q    Type
                         _______ _______ _______ _____ _____    ______ ____

>  <TORSDO>
F 3

$$$$
=
 OpenBabel10272415083D

 34 38  0  0  1  0  0  0  0  0999 V2000
  191.6240  176.4210  137.7830 C   0  0  0  0  0  0  0  0  0  0  0  0
  193.1580  175.4220  134.5000 C   0  0  0  0  0  3  0  0  0  0  0  0
  190.9260  175.7980  135.0800 O   0  0  0  0  0  0  0  0  0  0  0  0
  190.7110  176.9940  139.9950 C   0  0  0  0  0  0  0  0  0  0  0  0
  191.7120  176.3660  139.1210 C   0  0  0  0  0  3  0  0  0  0  0  0
  189.4410  177.6610  138.0790 C   0  0  0  0  0  0  0  0  0  0  0  0
  188.3990  178.2250  137.6540 O   0  0  0  0  0  0  0  0  0  0  0  0
  189.6580  177.5660  139.4900 N   0  0  0  0  0  0  0  0  0  0  0  0
  190.8930  176.9250  141.4140 N   0  0  0  0  0  2  0  0  0  0  0  0
  190.0050  176.4430  135.9100 C   0  0  0  0  0  0  0  0  0  0  0  0
  190.5100  177.2020  137.1130 C   0  0  2  0  0  3  0  0  0  0  0  0
  188.7860  176.4490  135.5930 O   0  0  0  0  0  0  0  0  0  0  0  0
  194.6270  175.3530  134.7370 C   0  0  0  0  0  2  0  0  0  0  0  0
  194.9910  174.1810  135.5860 C   0  0  0  0  0  0  0  0  0  0  0  0
  194.5550  174.0830  136.8450 C   0  0  0  0  0  3  0  0  0  0  0  0
  192.2580  175.6180  135.4670 C   0  0  0  0  0  0  0  0  0  0  0  0
  193.5790  174.9770  137.4970 C   0  0  0  0  0  3  0  0  0  0  0  0
  192.5960  175.6970  136.9190 C   0  0  0  0  0  0  0  0  0  0  0  0
  189.2830  177.4830  144.8000 C   0  0  0  0  0  2  0  0  0  0  0  0
  188.5330  177.4220  141.9030 C   0  0  0  0  0  2  0  0  0  0  0  0
  185.5840  178.3160  144.9220 C   0  0  0  0  0  0  0  0  0  0  0  0
  186.8990  178.0120  145.3040 C   0  0  0  0  0  3  0  0  0  0  0  0
  187.8730  177.7280  144.3430 C   0  0  0  0  0  0  0  0  0  0  0  0
  186.2260  178.0710  142.5920 C   0  0  0  0  0  3  0  0  0  0  0  0
  187.5380  177.7790  142.9720 C   0  0  0  0  0  0  0  0  0  0  0  0
  185.2550  178.3420  143.5600 C   0  0  0  0  0  3  0  0  0  0  0  0
  189.9770  177.4850  142.4050 C   0  0  1  0  0  3  0  0  0  0  0  0
  190.1160  176.7660  143.7430 C   0  0  0  0  0  2  0  0  0  0  0  0
  184.5610  178.6050  145.9420 C   0  0  0  0  0  0  0  0  0  0  0  0
  184.8140  178.4320  147.1640 O   0  0  0  0  0  0  0  0  0  0  0  0
  183.2740  179.0810  145.5580 N   0  0  0  0  0  1  0  0  0  0  0  0
  195.9400  173.1850  135.0570 C   0  0  0  0  0  0  0  0  0  0  0  0
  197.1700  173.5940  134.5560 O   0  0  0  0  0  0  0  0  0  0  0  0
  195.6470  171.9590  135.0500 O   0  0  0  0  0  1  0  0  0  0  0  0
  1  5  2  0  0  0  0
  2 13  1  0  0  0  0
  2 16  2  0  0  0  0
  3 16  1  0  0  0  0
  3 10  1  0  0  0  0
  4  9  1  0  0  0  0
  5  4  1  0  0  0  0
  6  8  1  0  0  0  0
  7  6  2  0  0  0  0
  8  4  2  0  0  0  0
 11 10  1  6  0  0  0
 11  1  1  0  0  0  0
 11  6  1  0  0  0  0
 12 10  2  0  0  0  0
 13 14  1  0  0  0  0
 14 15  2  0  0  0  0
 15 17  1  0  0  0  0
 16 18  1  0  0  0  0
 18 17  2  0  0  0  0
 18  1  1  0  0  0  0
 20 27  1  0  0  0  0
 20 25  1  0  0  0  0
 21 22  1  0  0  0  0
 21 29  1  0  0  0  0
 23 19  1  0  0  0  0
 23 22  2  0  0  0  0
 24 25  2  0  0  0  0
 24 26  1  0  0  0  0
 25 23  1  0  0  0  0
 26 21  2  0  0  0  0
 27  9  1  6  0  0  0
 27 28  1  0  0  0  0
 28 19  1  0  0  0  0
 29 30  2  0  0  0  0
 31 29  1  0  0  0  0
 32 14  1  0  0  0  0
 33 32  2  0  0  0  0
 34 32  1  0  0  0  0
M  END
>  <MODEL>
4

>  <REMARK>
 VINA RESULT:      -9.3      7.013     10.162
  Name = 
  3 active torsions:
  status: ('A' for Active; 'I' for Inactive)
    1  A    between atoms: C_3  and  C_25
    2  A    between atoms: C_7  and  C_11
    3  A    between atoms: N_18  and  C_30
                            x       y       z     vdW  Elec       q    Type
                         _______ _______ _______ _____ _____    ______ ____

>  <TORSDO>
F 3

$$$$
=
 OpenBabel10272415083D

 34 38  0  0  1  0  0  0  0  0999 V2000
  184.0710  178.9250  141.4060 C   0  0  0  0  0  0  0  0  0  0  0  0
  180.6460  179.4970  139.9700 C   0  0  0  0  0  3  0  0  0  0  0  0
  181.3010  178.8250  142.1090 O   0  0  0  0  0  0  0  0  0  0  0  0
  186.3520  178.4960  142.2260 C   0  0  0  0  0  0  0  0  0  0  0  0
  185.3380  178.5540  141.1620 C   0  0  0  0  0  3  0  0  0  0  0  0
  184.7030  179.1110  143.8470 C   0  0  0  0  0  0  0  0  0  0  0  0
  184.4520  179.3260  145.0620 O   0  0  0  0  0  0  0  0  0  0  0  0
  186.0280  178.7350  143.4620 N   0  0  0  0  0  0  0  0  0  0  0  0
  187.6930  178.1270  141.8820 N   0  0  0  0  0  2  0  0  0  0  0  0
  182.2780  178.8250  143.1090 C   0  0  0  0  0  0  0  0  0  0  0  0
  183.6490  179.3690  142.7930 C   0  0  2  0  0  3  0  0  0  0  0  0
  181.9720  178.4490  144.2720 O   0  0  0  0  0  0  0  0  0  0  0  0
  180.8580  179.9330  138.5610 C   0  0  0  0  0  2  0  0  0  0  0  0
  181.3380  178.8090  137.7050 C   0  0  0  0  0  0  0  0  0  0  0  0
  182.5150  178.2220  137.9390 C   0  0  0  0  0  3  0  0  0  0  0  0
  181.6250  179.0710  140.7710 C   0  0  0  0  0  0  0  0  0  0  0  0
  183.3910  178.4680  139.1000 C   0  0  0  0  0  3  0  0  0  0  0  0
  183.0400  178.8830  140.3330 C   0  0  0  0  0  0  0  0  0  0  0  0
  191.0370  177.0000  143.2660 C   0  0  0  0  0  2  0  0  0  0  0  0
  188.2810  177.6650  144.2260 C   0  0  0  0  0  2  0  0  0  0  0  0
  191.3710  176.5370  147.0160 C   0  0  0  0  0  0  0  0  0  0  0  0
  191.6490  176.5530  145.6420 C   0  0  0  0  0  3  0  0  0  0  0  0
  190.6660  176.9250  144.7200 C   0  0  0  0  0  0  0  0  0  0  0  0
  189.1100  177.2900  146.5480 C   0  0  0  0  0  3  0  0  0  0  0  0
  189.3890  177.3170  145.1800 C   0  0  0  0  0  0  0  0  0  0  0  0
  190.0950  176.9060  147.4610 C   0  0  0  0  0  3  0  0  0  0  0  0
  188.7990  178.0100  142.8290 C   0  0  1  0  0  3  0  0  0  0  0  0
  189.8130  176.9730  142.3570 C   0  0  0  0  0  2  0  0  0  0  0  0
  192.4100  176.1350  147.9810 C   0  0  0  0  0  0  0  0  0  0  0  0
  193.0170  175.0400  147.8430 O   0  0  0  0  0  0  0  0  0  0  0  0
  192.7390  176.9800  149.0800 N   0  0  0  0  0  1  0  0  0  0  0  0
  180.5490  178.4300  136.5200 C   0  0  0  0  0  0  0  0  0  0  0  0
  180.1210  179.4050  135.6280 O   0  0  0  0  0  0  0  0  0  0  0  0
  180.2540  177.2230  136.3030 O   0  0  0  0  0  1  0  0  0  0  0  0
  2 16  2  0  0  0  0
  3 10  1  0  0  0  0
  4  8  2  0  0  0  0
  5  1  2  0  0  0  0
  5  4  1  0  0  0  0
  6  7  2  0  0  0  0
  8  6  1  0  0  0  0
  9  4  1  0  0  0  0
 10 12  2  0  0  0  0
 11  1  1  6  0  0  0
 11 10  1  0  0  0  0
 11  6  1  0  0  0  0
 13  2  1  0  0  0  0
 14 15  2  0  0  0  0
 14 13  1  0  0  0  0
 15 17  1  0  0  0  0
 16  3  1  0  0  0  0
 17 18  2  0  0  0  0
 18 16  1  0  0  0  0
 18  1  1  0  0  0  0
 19 23  1  0  0  0  0
 20 25  1  0  0  0  0
 21 26  1  0  0  0  0
 21 29  1  0  0  0  0
 22 21  2  0  0  0  0
 23 25  2  0  0  0  0
 23 22  1  0  0  0  0
 24 26  2  0  0  0  0
 25 24  1  0  0  0  0
 27  9  1  6  0  0  0
 27 20  1  0  0  0  0
 28 27  1  0  0  0  0
 28 19  1  0  0  0  0
 29 31  1  0  0  0  0
 30 29  2  0  0  0  0
 32 14  1  0  0  0  0
 33 32  2  0  0  0  0
 34 32  1  0  0  0  0
M  END
>  <MODEL>
5

>  <REMARK>
 VINA RESULT:      -9.2      1.045      1.672
  Name = 
  3 active torsions:
  status: ('A' for Active; 'I' for Inactive)
    1  A    between atoms: C_3  and  C_25
    2  A    between atoms: C_7  and  C_11
    3  A    between atoms: N_18  and  C_30
                            x       y       z     vdW  Elec       q    Type
                         _______ _______ _______ _____ _____    ______ ____

>  <TORSDO>
F 3

$$$$
=
 OpenBabel10272415083D

 34 38  0  0  1  0  0  0  0  0999 V2000
  191.6890  176.2500  137.4370 C   0  0  0  0  0  0  0  0  0  0  0  0
  193.8180  175.7960  134.3740 C   0  0  0  0  0  3  0  0  0  0  0  0
  191.5940  175.2050  134.7770 O   0  0  0  0  0  0  0  0  0  0  0  0
  190.4050  176.5180  139.5190 C   0  0  0  0  0  0  0  0  0  0  0  0
  191.6600  176.3290  138.7770 C   0  0  0  0  0  3  0  0  0  0  0  0
  189.1680  176.4360  137.4730 C   0  0  0  0  0  0  0  0  0  0  0  0
  188.0330  176.4610  136.9290 O   0  0  0  0  0  0  0  0  0  0  0  0
  189.2640  176.5400  138.8960 N   0  0  0  0  0  0  0  0  0  0  0  0
  190.4580  176.6310  140.9470 N   0  0  0  0  0  2  0  0  0  0  0  0
  190.4090  175.4400  135.4790 C   0  0  0  0  0  0  0  0  0  0  0  0
  190.4210  176.4220  136.6250 C   0  0  2  0  0  3  0  0  0  0  0  0
  189.3420  174.8950  135.0910 O   0  0  0  0  0  0  0  0  0  0  0  0
  195.1450  176.3870  134.7040 C   0  0  0  0  0  2  0  0  0  0  0  0
  195.8890  175.5500  135.6900 C   0  0  0  0  0  0  0  0  0  0  0  0
  195.4140  175.3580  136.9240 C   0  0  0  0  0  3  0  0  0  0  0  0
  192.8310  175.6470  135.2590 C   0  0  0  0  0  0  0  0  0  0  0  0
  194.0910  175.7820  137.4200 C   0  0  0  0  0  3  0  0  0  0  0  0
  192.9570  175.9620  136.7130 C   0  0  0  0  0  0  0  0  0  0  0  0
  187.0790  177.9050  142.0970 C   0  0  0  0  0  2  0  0  0  0  0  0
  189.7370  177.1430  143.2430 C   0  0  0  0  0  2  0  0  0  0  0  0
  186.5180  178.4260  145.8120 C   0  0  0  0  0  0  0  0  0  0  0  0
  186.3300  178.4040  144.4230 C   0  0  0  0  0  3  0  0  0  0  0  0
  187.3560  177.9820  143.5720 C   0  0  0  0  0  0  0  0  0  0  0  0
  188.7730  177.5790  145.5020 C   0  0  0  0  0  3  0  0  0  0  0  0
  188.5830  177.5460  144.1180 C   0  0  0  0  0  0  0  0  0  0  0  0
  187.7470  178.0130  146.3440 C   0  0  0  0  0  3  0  0  0  0  0  0
  189.2980  176.8030  141.8180 C   0  0  1  0  0  3  0  0  0  0  0  0
  188.3600  177.8730  141.2710 C   0  0  0  0  0  2  0  0  0  0  0  0
  185.4350  178.8800  146.7030 C   0  0  0  0  0  0  0  0  0  0  0  0
  185.6960  179.2920  147.8630 O   0  0  0  0  0  0  0  0  0  0  0  0
  184.0800  178.8550  146.2610 N   0  0  0  0  0  1  0  0  0  0  0  0
  197.2190  175.0320  135.3240 C   0  0  0  0  0  0  0  0  0  0  0  0
  197.4200  173.6630  135.1930 O   0  0  0  0  0  1  0  0  0  0  0  0
  198.1840  175.8190  135.1290 O   0  0  0  0  0  0  0  0  0  0  0  0
  1  5  2  0  0  0  0
  2 13  1  0  0  0  0
  2 16  2  0  0  0  0
  3 16  1  0  0  0  0
  3 10  1  0  0  0  0
  4  9  1  0  0  0  0
  5  4  1  0  0  0  0
  6  8  1  0  0  0  0
  7  6  2  0  0  0  0
  8  4  2  0  0  0  0
 11 10  1  6  0  0  0
 11  1  1  0  0  0  0
 11  6  1  0  0  0  0
 12 10  2  0  0  0  0
 13 14  1  0  0  0  0
 14 15  2  0  0  0  0
 15 17  1  0  0  0  0
 16 18  1  0  0  0  0
 18 17  2  0  0  0  0
 18  1  1  0  0  0  0
 19 23  1  0  0  0  0
 20 25  1  0  0  0  0
 21 26  1  0  0  0  0
 21 29  1  0  0  0  0
 22 21  2  0  0  0  0
 23 25  2  0  0  0  0
 23 22  1  0  0  0  0
 24 26  2  0  0  0  0
 25 24  1  0  0  0  0
 27  9  1  6  0  0  0
 27 20  1  0  0  0  0
 28 27  1  0  0  0  0
 28 19  1  0  0  0  0
 29 30  2  0  0  0  0
 31 29  1  0  0  0  0
 32 14  1  0  0  0  0
 33 32  1  0  0  0  0
 34 32  2  0  0  0  0
M  END
>  <MODEL>
6

>  <REMARK>
 VINA RESULT:      -8.8      7.223     10.401
  Name = 
  3 active torsions:
  status: ('A' for Active; 'I' for Inactive)
    1  A    between atoms: C_3  and  C_25
    2  A    between atoms: C_7  and  C_11
    3  A    between atoms: N_18  and  C_30
                            x       y       z     vdW  Elec       q    Type
                         _______ _______ _______ _____ _____    ______ ____

>  <TORSDO>
F 3

$$$$
=
 OpenBabel10272415083D

 34 38  0  0  1  0  0  0  0  0999 V2000
  187.0100  178.2990  141.7920 C   0  0  0  0  0  0  0  0  0  0  0  0
  184.6510  178.9010  144.6550 C   0  0  0  0  0  3  0  0  0  0  0  0
  186.5790  177.5860  144.5280 O   0  0  0  0  0  0  0  0  0  0  0  0
  188.4460  177.9050  139.8330 C   0  0  0  0  0  0  0  0  0  0  0  0
  187.1530  178.2130  140.4600 C   0  0  0  0  0  3  0  0  0  0  0  0
  189.4480  177.6630  141.9930 C   0  0  0  0  0  0  0  0  0  0  0  0
  190.4900  177.3840  142.6430 O   0  0  0  0  0  0  0  0  0  0  0  0
  189.4870  177.6310  140.5630 N   0  0  0  0  0  0  0  0  0  0  0  0
  188.5280  177.8660  138.4030 N   0  0  0  0  0  2  0  0  0  0  0  0
  187.8190  177.3490  143.9300 C   0  0  0  0  0  0  0  0  0  0  0  0
  188.2070  178.1470  142.7090 C   0  0  2  0  0  3  0  0  0  0  0  0
  188.6200  176.5390  144.4680 O   0  0  0  0  0  0  0  0  0  0  0  0
  183.6170  179.8440  144.1450 C   0  0  0  0  0  2  0  0  0  0  0  0
  182.7070  179.1830  143.1640 C   0  0  0  0  0  0  0  0  0  0  0  0
  183.1730  178.7110  142.0050 C   0  0  0  0  0  3  0  0  0  0  0  0
  185.5910  178.3440  143.8890 C   0  0  0  0  0  0  0  0  0  0  0  0
  184.5920  178.6300  141.6090 C   0  0  0  0  0  3  0  0  0  0  0  0
  185.6720  178.5170  142.4080 C   0  0  0  0  0  0  0  0  0  0  0  0
  190.6520  176.5380  135.5580 C   0  0  0  0  0  2  0  0  0  0  0  0
  190.7770  176.8740  138.5290 C   0  0  0  0  0  2  0  0  0  0  0  0
  194.1090  175.2000  136.3610 C   0  0  0  0  0  0  0  0  0  0  0  0
  192.9400  175.5540  135.6720 C   0  0  0  0  0  3  0  0  0  0  0  0
  191.8510  176.1070  136.3520 C   0  0  0  0  0  0  0  0  0  0  0  0
  193.1020  175.9770  138.4300 C   0  0  0  0  0  3  0  0  0  0  0  0
  191.9410  176.3400  137.7430 C   0  0  0  0  0  0  0  0  0  0  0  0
  194.1810  175.4150  137.7440 C   0  0  0  0  0  3  0  0  0  0  0  0
  189.7360  177.5580  137.6410 C   0  0  1  0  0  3  0  0  0  0  0  0
  189.4090  176.6940  136.4280 C   0  0  0  0  0  2  0  0  0  0  0  0
  195.2490  174.6100  135.6370 C   0  0  0  0  0  0  0  0  0  0  0  0
  195.0640  173.6800  134.8090 O   0  0  0  0  0  0  0  0  0  0  0  0
  196.5730  175.0840  135.8680 N   0  0  0  0  0  1  0  0  0  0  0  0
  181.2590  179.1630  143.4380 C   0  0  0  0  0  0  0  0  0  0  0  0
  180.4480  180.1900  142.9720 O   0  0  0  0  0  0  0  0  0  0  0  0
  180.7430  178.2200  144.0970 O   0  0  0  0  0  1  0  0  0  0  0  0
  1 18  1  0  0  0  0
  4  5  1  0  0  0  0
  4  8  2  0  0  0  0
  5  1  2  0  0  0  0
  6  7  2  0  0  0  0
  6 11  1  0  0  0  0
  8  6  1  0  0  0  0
  9  4  1  0  0  0  0
 10 12  2  0  0  0  0
 10  3  1  0  0  0  0
 11  1  1  6  0  0  0
 11 10  1  0  0  0  0
 13  2  1  0  0  0  0
 14 32  1  0  0  0  0
 14 13  1  0  0  0  0
 15 14  2  0  0  0  0
 16  3  1  0  0  0  0
 16  2  2  0  0  0  0
 17 15  1  0  0  0  0
 17 18  2  0  0  0  0
 18 16  1  0  0  0  0
 19 23  1  0  0  0  0
 19 28  1  0  0  0  0
 21 26  1  0  0  0  0
 22 23  1  0  0  0  0
 22 21  2  0  0  0  0
 23 25  2  0  0  0  0
 25 24  1  0  0  0  0
 25 20  1  0  0  0  0
 26 24  2  0  0  0  0
 27  9  1  1  0  0  0
 27 20  1  0  0  0  0
 28 27  1  0  0  0  0
 29 31  1  0  0  0  0
 29 21  1  0  0  0  0
 30 29  2  0  0  0  0
 32 34  1  0  0  0  0
 33 32  2  0  0  0  0
M  END
>  <MODEL>
7

>  <REMARK>
 VINA RESULT:      -8.6      5.931      7.966
  Name = 
  3 active torsions:
  status: ('A' for Active; 'I' for Inactive)
    1  A    between atoms: C_3  and  C_25
    2  A    between atoms: C_7  and  C_11
    3  A    between atoms: N_18  and  C_30
                            x       y       z     vdW  Elec       q    Type
                         _______ _______ _______ _____ _____    ______ ____

>  <TORSDO>
F 3

$$$$
=
 OpenBabel10272415083D

 34 38  0  0  1  0  0  0  0  0999 V2000
  190.0800  177.2270  137.8970 C   0  0  0  0  0  0  0  0  0  0  0  0
  192.5940  176.1550  135.3180 C   0  0  0  0  0  3  0  0  0  0  0  0
  190.2590  176.1660  135.2480 O   0  0  0  0  0  0  0  0  0  0  0  0
  188.5140  177.8750  139.6810 C   0  0  0  0  0  0  0  0  0  0  0  0
  189.8020  177.3490  139.2040 C   0  0  0  0  0  3  0  0  0  0  0  0
  187.7390  178.0550  137.4250 C   0  0  0  0  0  0  0  0  0  0  0  0
  186.7810  178.3560  136.6640 O   0  0  0  0  0  0  0  0  0  0  0  0
  187.5680  178.1720  138.8410 N   0  0  0  0  0  0  0  0  0  0  0  0
  188.3050  178.0120  141.0930 N   0  0  0  0  0  2  0  0  0  0  0  0
  189.0580  176.7180  135.7000 C   0  0  0  0  0  0  0  0  0  0  0  0
  189.0900  177.6960  136.8490 C   0  0  2  0  0  3  0  0  0  0  0  0
  187.9870  176.4540  135.0910 O   0  0  0  0  0  0  0  0  0  0  0  0
  193.9340  176.3950  135.9250 C   0  0  0  0  0  2  0  0  0  0  0  0
  194.2220  175.4230  137.0200 C   0  0  0  0  0  0  0  0  0  0  0  0
  193.4750  175.3950  138.1270 C   0  0  0  0  0  3  0  0  0  0  0  0
  191.4440  176.2890  135.9810 C   0  0  0  0  0  0  0  0  0  0  0  0
  192.2330  176.1580  138.3550 C   0  0  0  0  0  3  0  0  0  0  0  0
  191.3510  176.6030  137.4380 C   0  0  0  0  0  0  0  0  0  0  0  0
  185.6580  178.4810  143.7650 C   0  0  0  0  0  2  0  0  0  0  0  0
  185.8790  178.2890  140.7860 C   0  0  0  0  0  2  0  0  0  0  0  0
  182.0570  178.9560  142.6720 C   0  0  0  0  0  0  0  0  0  0  0  0
  183.2020  178.7880  143.4640 C   0  0  0  0  0  3  0  0  0  0  0  0
  184.4530  178.5800  142.8750 C   0  0  0  0  0  0  0  0  0  0  0  0
  183.4270  178.7270  140.6780 C   0  0  0  0  0  3  0  0  0  0  0  0
  184.5690  178.5700  141.4670 C   0  0  0  0  0  0  0  0  0  0  0  0
  182.1790  178.9230  141.2760 C   0  0  0  0  0  3  0  0  0  0  0  0
  187.0770  178.5010  141.7140 C   0  0  1  0  0  3  0  0  0  0  0  0
  186.8420  177.8260  143.0620 C   0  0  0  0  0  2  0  0  0  0  0  0
  180.7410  179.1660  143.3010 C   0  0  0  0  0  0  0  0  0  0  0  0
  180.2730  178.3100  144.0970 O   0  0  0  0  0  0  0  0  0  0  0  0
  179.9840  180.3390  143.0150 N   0  0  0  0  0  1  0  0  0  0  0  0
  195.4190  174.5700  136.9190 C   0  0  0  0  0  0  0  0  0  0  0  0
  196.6470  175.0380  137.3700 O   0  0  0  0  0  1  0  0  0  0  0  0
  195.3440  173.4130  136.4220 O   0  0  0  0  0  0  0  0  0  0  0  0
  1  5  2  0  0  0  0
  2 13  1  0  0  0  0
  2 16  2  0  0  0  0
  3 10  1  0  0  0  0
  3 16  1  0  0  0  0
  4  9  1  0  0  0  0
  5  4  1  0  0  0  0
  6  8  1  0  0  0  0
  7  6  2  0  0  0  0
  8  4  2  0  0  0  0
 11 10  1  6  0  0  0
 11  6  1  0  0  0  0
 11  1  1  0  0  0  0
 12 10  2  0  0  0  0
 13 14  1  0  0  0  0
 14 15  2  0  0  0  0
 15 17  1  0  0  0  0
 16 18  1  0  0  0  0
 18  1  1  0  0  0  0
 18 17  2  0  0  0  0
 20 25  1  0  0  0  0
 20 27  1  0  0  0  0
 21 29  1  0  0  0  0
 21 22  1  0  0  0  0
 23 22  2  0  0  0  0
 23 19  1  0  0  0  0
 24 26  1  0  0  0  0
 24 25  2  0  0  0  0
 25 23  1  0  0  0  0
 26 21  2  0  0  0  0
 27  9  1  6  0  0  0
 27 28  1  0  0  0  0
 28 19  1  0  0  0  0
 29 30  2  0  0  0  0
 31 29  1  0  0  0  0
 32 14  1  0  0  0  0
 32 33  1  0  0  0  0
 34 32  2  0  0  0  0
M  END
>  <MODEL>
8

>  <REMARK>
 VINA RESULT:      -8.6      6.074     10.381
  Name = 
  3 active torsions:
  status: ('A' for Active; 'I' for Inactive)
    1  A    between atoms: C_3  and  C_25
    2  A    between atoms: C_7  and  C_11
    3  A    between atoms: N_18  and  C_30
                            x       y       z     vdW  Elec       q    Type
                         _______ _______ _______ _____ _____    ______ ____

>  <TORSDO>
F 3

$$$$
=
 OpenBabel10272415083D

 34 38  0  0  1  0  0  0  0  0999 V2000
  186.9180  177.7490  144.5310 C   0  0  0  0  0  0  0  0  0  0  0  0
  188.4610  176.9090  147.8540 C   0  0  0  0  0  3  0  0  0  0  0  0
  186.7050  178.3540  147.3180 O   0  0  0  0  0  0  0  0  0  0  0  0
  186.0340  178.2940  142.3010 C   0  0  0  0  0  0  0  0  0  0  0  0
  187.1130  177.8820  143.2100 C   0  0  0  0  0  3  0  0  0  0  0  0
  184.5480  178.5420  144.1590 C   0  0  0  0  0  0  0  0  0  0  0  0
  183.3960  178.8720  144.5470 O   0  0  0  0  0  0  0  0  0  0  0  0
  184.8640  178.6170  142.7660 N   0  0  0  0  0  0  0  0  0  0  0  0
  186.3080  178.3780  140.8970 N   0  0  0  0  0  2  0  0  0  0  0  0
  185.6650  178.6910  146.4470 C   0  0  0  0  0  0  0  0  0  0  0  0
  185.5430  177.9560  145.1340 C   0  0  2  0  0  3  0  0  0  0  0  0
  184.8060  179.5380  146.8080 O   0  0  0  0  0  0  0  0  0  0  0  0
  189.5320  175.9120  147.5700 C   0  0  0  0  0  2  0  0  0  0  0  0
  190.6920  176.5380  146.8710 C   0  0  0  0  0  0  0  0  0  0  0  0
  190.5540  177.0720  145.6540 C   0  0  0  0  0  3  0  0  0  0  0  0
  187.7730  177.5490  146.9060 C   0  0  0  0  0  0  0  0  0  0  0  0
  189.2830  177.2600  144.9290 C   0  0  0  0  0  3  0  0  0  0  0  0
  188.0480  177.4240  145.4440 C   0  0  0  0  0  0  0  0  0  0  0  0
  183.0830  179.7440  139.4490 C   0  0  0  0  0  2  0  0  0  0  0  0
  185.1700  177.6910  138.8260 C   0  0  0  0  0  2  0  0  0  0  0  0
  181.8540  178.3430  136.1450 C   0  0  0  0  0  0  0  0  0  0  0  0
  181.9340  179.0730  137.3400 C   0  0  0  0  0  3  0  0  0  0  0  0
  183.0050  178.8850  138.2190 C   0  0  0  0  0  0  0  0  0  0  0  0
  183.9460  177.2400  136.7010 C   0  0  0  0  0  3  0  0  0  0  0  0
  184.0310  177.9740  137.8860 C   0  0  0  0  0  0  0  0  0  0  0  0
  182.8660  177.4260  135.8330 C   0  0  0  0  0  3  0  0  0  0  0  0
  185.3460  178.7880  139.8770 C   0  0  1  0  0  3  0  0  0  0  0  0
  184.0060  179.1520  140.5080 C   0  0  0  0  0  2  0  0  0  0  0  0
  180.7180  178.5410  135.2270 C   0  0  0  0  0  0  0  0  0  0  0  0
  180.1780  177.5540  134.6620 O   0  0  0  0  0  0  0  0  0  0  0  0
  180.2200  179.8500  134.9680 N   0  0  0  0  0  1  0  0  0  0  0  0
  192.0260  176.4530  147.4900 C   0  0  0  0  0  0  0  0  0  0  0  0
  192.3570  177.2890  148.5500 O   0  0  0  0  0  1  0  0  0  0  0  0
  192.8800  175.6270  147.0670 O   0  0  0  0  0  0  0  0  0  0  0  0
  1 11  1  0  0  0  0
  1 18  1  0  0  0  0
  4  8  2  0  0  0  0
  4  5  1  0  0  0  0
  5  1  2  0  0  0  0
  6  7  2  0  0  0  0
  8  6  1  0  0  0  0
  9  4  1  0  0  0  0
 10 12  2  0  0  0  0
 10  3  1  0  0  0  0
 11  6  1  6  0  0  0
 11 10  1  0  0  0  0
 13  2  1  0  0  0  0
 14 32  1  0  0  0  0
 14 13  1  0  0  0  0
 15 14  2  0  0  0  0
 16  3  1  0  0  0  0
 16  2  2  0  0  0  0
 17 18  2  0  0  0  0
 17 15  1  0  0  0  0
 18 16  1  0  0  0  0
 19 28  1  0  0  0  0
 20 27  1  0  0  0  0
 21 22  1  0  0  0  0
 22 23  2  0  0  0  0
 23 19  1  0  0  0  0
 24 25  2  0  0  0  0
 25 23  1  0  0  0  0
 25 20  1  0  0  0  0
 26 21  2  0  0  0  0
 26 24  1  0  0  0  0
 27 28  1  0  0  0  0
 27  9  1  1  0  0  0
 29 21  1  0  0  0  0
 30 29  2  0  0  0  0
 31 29  1  0  0  0  0
 32 33  1  0  0  0  0
 34 32  2  0  0  0  0
M  END
>  <MODEL>
9

>  <REMARK>
 VINA RESULT:      -8.6      2.472     10.788
  Name = 
  3 active torsions:
  status: ('A' for Active; 'I' for Inactive)
    1  A    between atoms: C_3  and  C_25
    2  A    between atoms: C_7  and  C_11
    3  A    between atoms: N_18  and  C_30
                            x       y       z     vdW  Elec       q    Type
                         _______ _______ _______ _____ _____    ______ ____

>  <TORSDO>
F 3

$$$$
