=
 OpenBabel10272401553D

 28 32  0  0  1  0  0  0  0  0999 V2000
  189.9800  177.4540  143.3260 C   0  0  1  0  0  3  0  0  0  0  0  0
  184.9070  178.5720  142.9040 C   0  0  0  0  0  3  0  0  0  0  0  0
  188.4380  177.5480  148.0590 C   0  0  0  0  0  1  0  0  0  0  0  0
  184.1890  178.5900  145.2250 C   0  0  0  0  0  0  0  0  0  0  0  0
  186.5630  178.1310  144.7430 C   0  0  0  0  0  0  0  0  0  0  0  0
  182.5900  179.0160  143.4570 C   0  0  0  0  0  0  0  0  0  0  0  0
  185.2040  178.4340  144.2660 C   0  0  0  0  0  0  0  0  0  0  0  0
  185.7800  178.1630  147.0470 C   0  0  0  0  0  3  0  0  0  0  0  0
  182.8840  178.8800  144.8180 C   0  0  0  0  0  3  0  0  0  0  0  0
  189.1790  177.5540  145.6610 C   0  0  0  0  0  0  0  0  0  0  0  0
  187.5530  177.9760  143.9120 N   0  0  0  0  0  0  0  0  0  0  0  0
  184.4850  178.4540  146.5890 O   0  0  0  0  0  0  0  0  0  0  0  0
  191.5350  177.2970  145.2690 C   0  0  0  0  0  3  0  0  0  0  0  0
  188.1340  177.7010  146.6410 N   0  0  0  0  0  0  0  0  0  0  0  0
  190.5190  177.2330  146.0770 N   0  0  0  0  0  0  0  0  0  0  0  0
  181.2020  179.3240  143.0260 C   0  0  0  0  0  1  0  0  0  0  0  0
  183.6000  178.8620  142.5020 C   0  0  0  0  0  3  0  0  0  0  0  0
  186.8010  178.0030  146.1930 C   0  0  0  0  0  0  0  0  0  0  0  0
  191.3710  177.8000  143.8640 C   0  0  0  0  0  2  0  0  0  0  0  0
  188.8960  177.6960  144.3480 C   0  0  0  0  0  0  0  0  0  0  0  0
  189.7190  178.1300  142.0910 O   0  0  0  0  0  0  0  0  0  0  0  0
  189.7510  177.5330  140.8210 C   0  0  0  0  0  0  0  0  0  0  0  0
  189.7420  176.3760  138.2650 C   0  0  0  0  0  0  0  0  0  0  0  0
  190.8890  176.8650  140.3390 C   0  0  0  0  0  3  0  0  0  0  0  0
  188.6120  177.6150  140.0130 C   0  0  0  0  0  3  0  0  0  0  0  0
  188.6060  177.0390  138.7390 C   0  0  0  0  0  3  0  0  0  0  0  0
  189.7360  175.8190  137.0310 F   0  0  0  0  0  0  0  0  0  0  0  0
  190.8830  176.2890  139.0660 C   0  0  0  0  0  3  0  0  0  0  0  0
  1 21  1  6  0  0  0
  1 19  1  0  0  0  0
  1 20  1  0  0  0  0
  2  7  1  0  0  0  0
  4 12  1  0  0  0  0
  5 18  1  0  0  0  0
  6  9  2  0  0  0  0
  7  5  1  0  0  0  0
  7  4  2  0  0  0  0
  9  4  1  0  0  0  0
 10 15  1  0  0  0  0
 10 14  1  0  0  0  0
 11 20  1  0  0  0  0
 11  5  2  0  0  0  0
 12  8  1  0  0  0  0
 13 15  2  0  0  0  0
 14  3  1  0  0  0  0
 16  6  1  0  0  0  0
 17  2  2  0  0  0  0
 17  6  1  0  0  0  0
 18 14  1  0  0  0  0
 18  8  2  0  0  0  0
 19 13  1  0  0  0  0
 20 10  2  0  0  0  0
 22 21  1  0  0  0  0
 23 26  2  0  0  0  0
 23 28  1  0  0  0  0
 24 22  1  0  0  0  0
 25 22  2  0  0  0  0
 26 25  1  0  0  0  0
 27 23  1  0  0  0  0
 28 24  2  0  0  0  0
M  END
>  <MODEL>
1

>  <REMARK>
 VINA RESULT:     -10.5      0.000      0.000
  Name = 
  2 active torsions:
  status: ('A' for Active; 'I' for Inactive)
    1  A    between atoms: C_1  and  O_2
    2  A    between atoms: O_2  and  C_3
                            x       y       z     vdW  Elec       q    Type
                         _______ _______ _______ _____ _____    ______ ____

>  <TORSDO>
F 2

$$$$
=
 OpenBabel10272401553D

 28 32  0  0  1  0  0  0  0  0999 V2000
  187.1790  178.5810  140.8690 C   0  0  1  0  0  3  0  0  0  0  0  0
  190.3930  176.9800  144.6460 C   0  0  0  0  0  3  0  0  0  0  0  0
  184.3120  178.7160  144.9370 C   0  0  0  0  0  1  0  0  0  0  0  0
  188.9690  177.0780  146.6110 C   0  0  0  0  0  0  0  0  0  0  0  0
  187.9970  177.7100  144.4340 C   0  0  0  0  0  0  0  0  0  0  0  0
  191.2760  176.3730  146.8190 C   0  0  0  0  0  0  0  0  0  0  0  0
  189.1480  177.2500  145.2280 C   0  0  0  0  0  0  0  0  0  0  0  0
  186.6220  177.7860  146.4410 C   0  0  0  0  0  3  0  0  0  0  0  0
  190.0330  176.6400  147.4030 C   0  0  0  0  0  3  0  0  0  0  0  0
  185.7810  178.5910  142.9060 C   0  0  0  0  0  0  0  0  0  0  0  0
  188.0900  177.8890  143.1480 N   0  0  0  0  0  0  0  0  0  0  0  0
  187.7210  177.3460  147.1950 O   0  0  0  0  0  0  0  0  0  0  0  0
  184.7260  179.0280  140.7930 C   0  0  0  0  0  3  0  0  0  0  0  0
  185.6030  178.4260  144.3270 N   0  0  0  0  0  0  0  0  0  0  0  0
  184.6920  179.0630  142.0920 N   0  0  0  0  0  0  0  0  0  0  0  0
  192.4070  175.9080  147.6630 C   0  0  0  0  0  1  0  0  0  0  0  0
  191.4550  176.5430  145.4420 C   0  0  0  0  0  3  0  0  0  0  0  0
  186.7160  177.9720  145.1170 C   0  0  0  0  0  0  0  0  0  0  0  0
  185.8840  178.4050  140.0690 C   0  0  0  0  0  2  0  0  0  0  0  0
  186.9790  178.3220  142.3420 C   0  0  0  0  0  0  0  0  0  0  0  0
  188.2380  177.7910  140.3190 O   0  0  0  0  0  0  0  0  0  0  0  0
  188.5550  177.7000  138.9560 C   0  0  0  0  0  0  0  0  0  0  0  0
  189.2120  177.5960  136.2300 C   0  0  0  0  0  0  0  0  0  0  0  0
  188.5310  176.4770  138.2640 C   0  0  0  0  0  3  0  0  0  0  0  0
  188.9080  178.8670  138.2690 C   0  0  0  0  0  3  0  0  0  0  0  0
  189.2360  178.8160  136.9110 C   0  0  0  0  0  3  0  0  0  0  0  0
  189.5300  177.5470  134.9150 F   0  0  0  0  0  0  0  0  0  0  0  0
  188.8590  176.4260  136.9070 C   0  0  0  0  0  3  0  0  0  0  0  0
  1 21  1  6  0  0  0
  1 20  1  0  0  0  0
  2  7  2  0  0  0  0
  2 17  1  0  0  0  0
  4 12  1  0  0  0  0
  4  9  2  0  0  0  0
  5 18  1  0  0  0  0
  5  7  1  0  0  0  0
  6  9  1  0  0  0  0
  6 16  1  0  0  0  0
  7  4  1  0  0  0  0
  8 12  1  0  0  0  0
 10 14  1  0  0  0  0
 11  5  2  0  0  0  0
 13 15  2  0  0  0  0
 14  3  1  0  0  0  0
 14 18  1  0  0  0  0
 15 10  1  0  0  0  0
 17  6  2  0  0  0  0
 18  8  2  0  0  0  0
 19 13  1  0  0  0  0
 19  1  1  0  0  0  0
 20 10  2  0  0  0  0
 20 11  1  0  0  0  0
 22 21  1  0  0  0  0
 23 28  2  0  0  0  0
 23 26  1  0  0  0  0
 24 22  2  0  0  0  0
 25 22  1  0  0  0  0
 26 25  2  0  0  0  0
 27 23  1  0  0  0  0
 28 24  1  0  0  0  0
M  END
>  <MODEL>
2

>  <REMARK>
 VINA RESULT:      -9.8      2.009      5.328
  Name = 
  2 active torsions:
  status: ('A' for Active; 'I' for Inactive)
    1  A    between atoms: C_1  and  O_2
    2  A    between atoms: O_2  and  C_3
                            x       y       z     vdW  Elec       q    Type
                         _______ _______ _______ _____ _____    ______ ____

>  <TORSDO>
F 2

$$$$
=
 OpenBabel10272401553D

 28 32  0  0  1  0  0  0  0  0999 V2000
  189.0860  177.2910  143.3280 C   0  0  1  0  0  3  0  0  0  0  0  0
  184.0030  178.4140  143.5810 C   0  0  0  0  0  3  0  0  0  0  0  0
  187.9310  178.4130  138.6160 C   0  0  0  0  0  1  0  0  0  0  0  0
  183.4830  178.9730  141.2750 C   0  0  0  0  0  0  0  0  0  0  0  0
  185.7950  178.3110  141.8220 C   0  0  0  0  0  0  0  0  0  0  0  0
  181.7530  179.0720  142.9670 C   0  0  0  0  0  0  0  0  0  0  0  0
  184.4100  178.5670  142.2500 C   0  0  0  0  0  0  0  0  0  0  0  0
  185.2090  178.8830  139.5290 C   0  0  0  0  0  3  0  0  0  0  0  0
  182.1570  179.2250  141.6370 C   0  0  0  0  0  3  0  0  0  0  0  0
  188.4570  177.8130  140.9960 C   0  0  0  0  0  0  0  0  0  0  0  0
  186.7060  177.9300  142.6690 N   0  0  0  0  0  0  0  0  0  0  0  0
  183.8890  179.1250  139.9410 O   0  0  0  0  0  0  0  0  0  0  0  0
  190.6720  176.9880  141.4270 C   0  0  0  0  0  3  0  0  0  0  0  0
  187.5080  178.2420  140.0010 N   0  0  0  0  0  0  0  0  0  0  0  0
  189.8290  177.5750  140.6300 N   0  0  0  0  0  0  0  0  0  0  0  0
  180.3430  179.3410  143.3500 C   0  0  0  0  0  1  0  0  0  0  0  0
  182.6750  178.6670  143.9380 C   0  0  0  0  0  3  0  0  0  0  0  0
  186.1490  178.4910  140.4010 C   0  0  0  0  0  0  0  0  0  0  0  0
  190.2280  176.4470  142.7540 C   0  0  0  0  0  2  0  0  0  0  0  0
  188.0640  177.6550  142.2780 C   0  0  0  0  0  0  0  0  0  0  0  0
  188.4910  176.6540  144.4640 O   0  0  0  0  0  0  0  0  0  0  0  0
  188.5820  177.1130  145.7860 C   0  0  0  0  0  0  0  0  0  0  0  0
  188.6820  178.0380  148.4340 C   0  0  0  0  0  0  0  0  0  0  0  0
  189.7860  177.0740  146.5090 C   0  0  0  0  0  3  0  0  0  0  0  0
  187.4320  177.6200  146.4010 C   0  0  0  0  0  3  0  0  0  0  0  0
  187.4800  178.0820  147.7200 C   0  0  0  0  0  3  0  0  0  0  0  0
  188.7280  178.4840  149.7110 F   0  0  0  0  0  0  0  0  0  0  0  0
  189.8350  177.5340  147.8270 C   0  0  0  0  0  3  0  0  0  0  0  0
  1 21  1  1  0  0  0
  2 17  1  0  0  0  0
  3 14  1  0  0  0  0
  4  9  2  0  0  0  0
  4  7  1  0  0  0  0
  5  7  1  0  0  0  0
  5 11  2  0  0  0  0
  6 16  1  0  0  0  0
  6 17  2  0  0  0  0
  7  2  2  0  0  0  0
  8 12  1  0  0  0  0
  8 18  2  0  0  0  0
  9  6  1  0  0  0  0
 10 20  2  0  0  0  0
 12  4  1  0  0  0  0
 13 19  1  0  0  0  0
 14 18  1  0  0  0  0
 14 10  1  0  0  0  0
 15 10  1  0  0  0  0
 15 13  2  0  0  0  0
 18  5  1  0  0  0  0
 19  1  1  0  0  0  0
 20 11  1  0  0  0  0
 20  1  1  0  0  0  0
 21 22  1  0  0  0  0
 22 25  2  0  0  0  0
 22 24  1  0  0  0  0
 23 27  1  0  0  0  0
 24 28  2  0  0  0  0
 25 26  1  0  0  0  0
 26 23  2  0  0  0  0
 28 23  1  0  0  0  0
M  END
>  <MODEL>
3

>  <REMARK>
 VINA RESULT:      -9.6      3.262      5.839
  Name = 
  2 active torsions:
  status: ('A' for Active; 'I' for Inactive)
    1  A    between atoms: C_1  and  O_2
    2  A    between atoms: O_2  and  C_3
                            x       y       z     vdW  Elec       q    Type
                         _______ _______ _______ _____ _____    ______ ____

>  <TORSDO>
F 2

$$$$
=
 OpenBabel10272401553D

 28 32  0  0  1  0  0  0  0  0999 V2000
  187.5270  177.9500  138.9470 C   0  0  1  0  0  3  0  0  0  0  0  0
  187.5800  177.6780  144.1510 C   0  0  0  0  0  3  0  0  0  0  0  0
  192.3390  177.2250  139.9990 C   0  0  0  0  0  1  0  0  0  0  0  0
  189.9340  177.3050  144.6240 C   0  0  0  0  0  0  0  0  0  0  0  0
  189.2420  177.5520  142.2690 C   0  0  0  0  0  0  0  0  0  0  0  0
  188.3360  177.4270  146.4400 C   0  0  0  0  0  0  0  0  0  0  0  0
  188.8960  177.5120  143.6990 C   0  0  0  0  0  0  0  0  0  0  0  0
  191.5860  177.1770  142.8090 C   0  0  0  0  0  3  0  0  0  0  0  0
  189.6510  177.2630  145.9910 C   0  0  0  0  0  3  0  0  0  0  0  0
  189.9100  177.6330  139.5190 C   0  0  0  0  0  0  0  0  0  0  0  0
  188.3330  177.7420  141.3580 N   0  0  0  0  0  0  0  0  0  0  0  0
  191.2520  177.1410  144.1730 O   0  0  0  0  0  0  0  0  0  0  0  0
  189.3300  178.0610  137.2270 C   0  0  0  0  0  3  0  0  0  0  0  0
  190.9710  177.4080  140.4670 N   0  0  0  0  0  0  0  0  0  0  0  0
  190.1950  177.6550  138.1080 N   0  0  0  0  0  0  0  0  0  0  0  0
  188.0380  177.3810  147.8940 C   0  0  0  0  0  1  0  0  0  0  0  0
  187.3030  177.6340  145.5200 C   0  0  0  0  0  3  0  0  0  0  0  0
  190.6510  177.3720  141.8690 C   0  0  0  0  0  0  0  0  0  0  0  0
  188.0010  178.6160  137.6510 C   0  0  0  0  0  2  0  0  0  0  0  0
  188.6420  177.8030  139.9530 C   0  0  0  0  0  0  0  0  0  0  0  0
  186.3920  178.6310  139.4930 O   0  0  0  0  0  0  0  0  0  0  0  0
  185.0900  178.5760  138.9740 C   0  0  0  0  0  0  0  0  0  0  0  0
  182.4690  178.5370  137.9710 C   0  0  0  0  0  0  0  0  0  0  0  0
  184.7030  177.6080  138.0310 C   0  0  0  0  0  3  0  0  0  0  0  0
  184.1530  179.5200  139.4090 C   0  0  0  0  0  3  0  0  0  0  0  0
  182.8470  179.5020  138.9100 C   0  0  0  0  0  3  0  0  0  0  0  0
  181.2050  178.5200  137.4880 F   0  0  0  0  0  0  0  0  0  0  0  0
  183.3980  177.5900  137.5320 C   0  0  0  0  0  3  0  0  0  0  0  0
  1 21  1  1  0  0  0
  1 20  1  0  0  0  0
  2 17  1  0  0  0  0
  3 14  1  0  0  0  0
  4  9  2  0  0  0  0
  5  7  1  0  0  0  0
  6 16  1  0  0  0  0
  7  2  2  0  0  0  0
  7  4  1  0  0  0  0
  8 12  1  0  0  0  0
  9  6  1  0  0  0  0
 10 20  2  0  0  0  0
 10 14  1  0  0  0  0
 11  5  2  0  0  0  0
 12  4  1  0  0  0  0
 13 19  1  0  0  0  0
 13 15  2  0  0  0  0
 14 18  1  0  0  0  0
 15 10  1  0  0  0  0
 17  6  2  0  0  0  0
 18  5  1  0  0  0  0
 18  8  2  0  0  0  0
 19  1  1  0  0  0  0
 20 11  1  0  0  0  0
 22 25  1  0  0  0  0
 22 21  1  0  0  0  0
 23 26  1  0  0  0  0
 24 22  2  0  0  0  0
 26 25  2  0  0  0  0
 27 23  1  0  0  0  0
 28 23  2  0  0  0  0
 28 24  1  0  0  0  0
M  END
>  <MODEL>
4

>  <REMARK>
 VINA RESULT:      -9.5      3.418      6.427
  Name = 
  2 active torsions:
  status: ('A' for Active; 'I' for Inactive)
    1  A    between atoms: C_1  and  O_2
    2  A    between atoms: O_2  and  C_3
                            x       y       z     vdW  Elec       q    Type
                         _______ _______ _______ _____ _____    ______ ____

>  <TORSDO>
F 2

$$$$
=
 OpenBabel10272401553D

 28 32  0  0  1  0  0  0  0  0999 V2000
  187.0840  178.0420  145.6080 C   0  0  1  0  0  3  0  0  0  0  0  0
  188.6440  178.0830  140.6360 C   0  0  0  0  0  3  0  0  0  0  0  0
  182.8520  178.7870  143.0940 C   0  0  0  0  0  1  0  0  0  0  0  0
  186.5560  178.4280  139.4440 C   0  0  0  0  0  0  0  0  0  0  0  0
  186.4900  178.3360  141.9070 C   0  0  0  0  0  0  0  0  0  0  0  0
  188.6290  178.1860  138.2150 C   0  0  0  0  0  0  0  0  0  0  0  0
  187.2570  178.2780  140.6520 C   0  0  0  0  0  0  0  0  0  0  0  0
  184.4320  178.6790  140.6540 C   0  0  0  0  0  3  0  0  0  0  0  0
  187.2430  178.3820  138.2280 C   0  0  0  0  0  3  0  0  0  0  0  0
  185.0160  178.4540  144.3220 C   0  0  0  0  0  0  0  0  0  0  0  0
  187.0730  178.2060  143.0630 N   0  0  0  0  0  0  0  0  0  0  0  0
  185.1670  178.6250  139.4580 O   0  0  0  0  0  0  0  0  0  0  0  0
  184.9140  178.5710  146.7190 C   0  0  0  0  0  3  0  0  0  0  0  0
  184.2970  178.5950  143.0810 N   0  0  0  0  0  0  0  0  0  0  0  0
  184.3060  178.4790  145.5740 N   0  0  0  0  0  0  0  0  0  0  0  0
  189.3580  178.1370  136.9210 C   0  0  0  0  0  1  0  0  0  0  0  0
  189.3270  178.0370  139.4170 C   0  0  0  0  0  3  0  0  0  0  0  0
  185.0310  178.5460  141.8460 C   0  0  0  0  0  0  0  0  0  0  0  0
  186.4040  178.7430  146.7880 C   0  0  0  0  0  2  0  0  0  0  0  0
  186.3540  178.2760  144.3080 C   0  0  0  0  0  0  0  0  0  0  0  0
  188.4690  178.3970  145.5230 O   0  0  0  0  0  0  0  0  0  0  0  0
  189.5400  177.5630  145.8750 C   0  0  0  0  0  0  0  0  0  0  0  0
  191.7190  175.9120  146.5060 C   0  0  0  0  0  0  0  0  0  0  0  0
  189.6590  177.0010  147.1570 C   0  0  0  0  0  3  0  0  0  0  0  0
  190.5200  177.2880  144.9140 C   0  0  0  0  0  3  0  0  0  0  0  0
  191.6060  176.4660  145.2270 C   0  0  0  0  0  3  0  0  0  0  0  0
  192.7720  175.1160  146.8090 F   0  0  0  0  0  0  0  0  0  0  0  0
  190.7450  176.1790  147.4710 C   0  0  0  0  0  3  0  0  0  0  0  0
  1 21  1  6  0  0  0
  1 19  1  0  0  0  0
  2  7  1  0  0  0  0
  4 12  1  0  0  0  0
  4  7  2  0  0  0  0
  5 11  2  0  0  0  0
  6  9  2  0  0  0  0
  6 17  1  0  0  0  0
  7  5  1  0  0  0  0
  8 18  2  0  0  0  0
  9  4  1  0  0  0  0
 10 15  1  0  0  0  0
 11 20  1  0  0  0  0
 12  8  1  0  0  0  0
 13 19  1  0  0  0  0
 14  3  1  0  0  0  0
 14 10  1  0  0  0  0
 15 13  2  0  0  0  0
 16  6  1  0  0  0  0
 17  2  2  0  0  0  0
 18  5  1  0  0  0  0
 18 14  1  0  0  0  0
 20 10  2  0  0  0  0
 20  1  1  0  0  0  0
 21 22  1  0  0  0  0
 22 24  1  0  0  0  0
 23 27  1  0  0  0  0
 23 28  1  0  0  0  0
 24 28  2  0  0  0  0
 25 26  1  0  0  0  0
 25 22  2  0  0  0  0
 26 23  2  0  0  0  0
M  END
>  <MODEL>
5

>  <REMARK>
 VINA RESULT:      -9.4      2.799      6.379
  Name = 
  2 active torsions:
  status: ('A' for Active; 'I' for Inactive)
    1  A    between atoms: C_1  and  O_2
    2  A    between atoms: O_2  and  C_3
                            x       y       z     vdW  Elec       q    Type
                         _______ _______ _______ _____ _____    ______ ____

>  <TORSDO>
F 2

$$$$
=
 OpenBabel10272401553D

 28 32  0  0  1  0  0  0  0  0999 V2000
  189.1900  177.6160  139.9860 C   0  0  1  0  0  3  0  0  0  0  0  0
  188.3850  177.5520  145.1340 C   0  0  0  0  0  3  0  0  0  0  0  0
  184.4880  179.1930  140.4230 C   0  0  0  0  0  1  0  0  0  0  0  0
  186.0950  178.3430  145.3080 C   0  0  0  0  0  0  0  0  0  0  0  0
  187.0850  178.1220  143.0600 C   0  0  0  0  0  0  0  0  0  0  0  0
  187.3440  177.7940  147.3090 C   0  0  0  0  0  0  0  0  0  0  0  0
  187.2080  177.9990  144.5220 C   0  0  0  0  0  0  0  0  0  0  0  0
  184.7940  178.9090  143.3020 C   0  0  0  0  0  3  0  0  0  0  0  0
  186.1660  178.2400  146.7000 C   0  0  0  0  0  3  0  0  0  0  0  0
  186.8460  178.3530  140.2480 C   0  0  0  0  0  0  0  0  0  0  0  0
  188.0730  177.8190  142.2700 N   0  0  0  0  0  0  0  0  0  0  0  0
  184.9140  178.7900  144.6950 O   0  0  0  0  0  0  0  0  0  0  0  0
  187.6850  177.9720  138.0290 C   0  0  0  0  0  3  0  0  0  0  0  0
  185.7110  178.7170  141.0570 N   0  0  0  0  0  0  0  0  0  0  0  0
  186.7820  178.4800  138.8160 N   0  0  0  0  0  0  0  0  0  0  0  0
  187.4180  177.6850  148.7890 C   0  0  0  0  0  1  0  0  0  0  0  0
  188.4510  177.4500  146.5270 C   0  0  0  0  0  3  0  0  0  0  0  0
  185.8120  178.5980  142.4860 C   0  0  0  0  0  0  0  0  0  0  0  0
  188.8080  177.1430  138.5800 C   0  0  0  0  0  2  0  0  0  0  0  0
  187.9790  177.9120  140.8360 C   0  0  0  0  0  0  0  0  0  0  0  0
  190.0830  176.6930  140.6180 O   0  0  0  0  0  0  0  0  0  0  0  0
  190.6070  176.8340  141.9120 C   0  0  0  0  0  0  0  0  0  0  0  0
  191.6460  177.0350  144.5110 C   0  0  0  0  0  0  0  0  0  0  0  0
  191.1890  178.0340  142.3550 C   0  0  0  0  0  3  0  0  0  0  0  0
  190.5510  175.7400  142.7820 C   0  0  0  0  0  3  0  0  0  0  0  0
  191.0670  175.8390  144.0770 C   0  0  0  0  0  3  0  0  0  0  0  0
  192.1470  177.1300  145.7650 F   0  0  0  0  0  0  0  0  0  0  0  0
  191.7060  178.1330  143.6490 C   0  0  0  0  0  3  0  0  0  0  0  0
  1 21  1  1  0  0  0
  1 20  1  0  0  0  0
  2 17  1  0  0  0  0
  3 14  1  0  0  0  0
  4  9  2  0  0  0  0
  5  7  1  0  0  0  0
  6 16  1  0  0  0  0
  7  2  2  0  0  0  0
  7  4  1  0  0  0  0
  8 12  1  0  0  0  0
  9  6  1  0  0  0  0
 10 20  2  0  0  0  0
 10 14  1  0  0  0  0
 11  5  2  0  0  0  0
 12  4  1  0  0  0  0
 13 19  1  0  0  0  0
 13 15  2  0  0  0  0
 14 18  1  0  0  0  0
 15 10  1  0  0  0  0
 17  6  2  0  0  0  0
 18  5  1  0  0  0  0
 18  8  2  0  0  0  0
 19  1  1  0  0  0  0
 20 11  1  0  0  0  0
 21 22  1  0  0  0  0
 22 24  2  0  0  0  0
 22 25  1  0  0  0  0
 23 27  1  0  0  0  0
 24 28  1  0  0  0  0
 25 26  2  0  0  0  0
 26 23  1  0  0  0  0
 28 23  2  0  0  0  0
M  END
>  <MODEL>
6

>  <REMARK>
 VINA RESULT:      -9.4      2.576      5.338
  Name = 
  2 active torsions:
  status: ('A' for Active; 'I' for Inactive)
    1  A    between atoms: C_1  and  O_2
    2  A    between atoms: O_2  and  C_3
                            x       y       z     vdW  Elec       q    Type
                         _______ _______ _______ _____ _____    ______ ____

>  <TORSDO>
F 2

$$$$
=
 OpenBabel10272401553D

 28 32  0  0  1  0  0  0  0  0999 V2000
  187.3040  178.0420  138.3100 C   0  0  1  0  0  3  0  0  0  0  0  0
  185.8920  178.3000  143.3200 C   0  0  0  0  0  3  0  0  0  0  0  0
  191.5840  177.2880  140.7380 C   0  0  0  0  0  1  0  0  0  0  0  0
  187.9960  177.9100  144.4690 C   0  0  0  0  0  0  0  0  0  0  0  0
  188.0020  177.9350  142.0030 C   0  0  0  0  0  0  0  0  0  0  0  0
  185.9670  178.2630  145.7410 C   0  0  0  0  0  0  0  0  0  0  0  0
  187.2700  178.0520  143.2740 C   0  0  0  0  0  0  0  0  0  0  0  0
  190.0780  177.5490  143.2140 C   0  0  0  0  0  3  0  0  0  0  0  0
  187.3430  178.0150  145.6990 C   0  0  0  0  0  3  0  0  0  0  0  0
  189.4110  177.7160  139.5570 C   0  0  0  0  0  0  0  0  0  0  0  0
  187.3940  178.0570  140.8590 N   0  0  0  0  0  0  0  0  0  0  0  0
  189.3770  177.6620  144.4250 O   0  0  0  0  0  0  0  0  0  0  0  0
  189.5170  177.9240  137.1660 C   0  0  0  0  0  3  0  0  0  0  0  0
  190.1520  177.5580  140.7820 N   0  0  0  0  0  0  0  0  0  0  0  0
  190.0790  177.5850  138.2880 N   0  0  0  0  0  0  0  0  0  0  0  0
  185.2730  178.3740  147.0510 C   0  0  0  0  0  1  0  0  0  0  0  0
  185.2430  178.4050  144.5530 C   0  0  0  0  0  3  0  0  0  0  0  0
  189.4540  177.6740  142.0340 C   0  0  0  0  0  0  0  0  0  0  0  0
  188.1560  178.5580  137.1460 C   0  0  0  0  0  2  0  0  0  0  0  0
  188.0850  177.9660  139.5990 C   0  0  0  0  0  0  0  0  0  0  0  0
  186.1020  178.8080  138.4500 O   0  0  0  0  0  0  0  0  0  0  0  0
  184.8170  178.2700  138.6190 C   0  0  0  0  0  0  0  0  0  0  0  0
  182.2620  177.1430  138.8970 C   0  0  0  0  0  0  0  0  0  0  0  0
  183.9950  178.6280  139.7010 C   0  0  0  0  0  3  0  0  0  0  0  0
  184.3470  177.3460  137.6800 C   0  0  0  0  0  3  0  0  0  0  0  0
  183.0740  176.7840  137.8170 C   0  0  0  0  0  3  0  0  0  0  0  0
  181.0310  176.5970  139.0300 F   0  0  0  0  0  0  0  0  0  0  0  0
  182.7230  178.0660  139.8390 C   0  0  0  0  0  3  0  0  0  0  0  0
  1 21  1  1  0  0  0
  1 20  1  0  0  0  0
  2 17  1  0  0  0  0
  3 14  1  0  0  0  0
  4  9  2  0  0  0  0
  5 18  1  0  0  0  0
  5  7  1  0  0  0  0
  6 16  1  0  0  0  0
  7  2  2  0  0  0  0
  7  4  1  0  0  0  0
  8 12  1  0  0  0  0
  9  6  1  0  0  0  0
 10 20  2  0  0  0  0
 10 14  1  0  0  0  0
 11  5  2  0  0  0  0
 12  4  1  0  0  0  0
 13 15  2  0  0  0  0
 14 18  1  0  0  0  0
 15 10  1  0  0  0  0
 17  6  2  0  0  0  0
 18  8  2  0  0  0  0
 19 13  1  0  0  0  0
 19  1  1  0  0  0  0
 20 11  1  0  0  0  0
 21 22  1  0  0  0  0
 22 24  1  0  0  0  0
 23 27  1  0  0  0  0
 23 28  1  0  0  0  0
 24 28  2  0  0  0  0
 25 26  1  0  0  0  0
 25 22  2  0  0  0  0
 26 23  2  0  0  0  0
M  END
>  <MODEL>
7

>  <REMARK>
 VINA RESULT:      -9.0      3.272      5.857
  Name = 
  2 active torsions:
  status: ('A' for Active; 'I' for Inactive)
    1  A    between atoms: C_1  and  O_2
    2  A    between atoms: O_2  and  C_3
                            x       y       z     vdW  Elec       q    Type
                         _______ _______ _______ _____ _____    ______ ____

>  <TORSDO>
F 2

$$$$
=
 OpenBabel10272401553D

 28 32  0  0  1  0  0  0  0  0999 V2000
  189.3320  177.8830  142.7360 C   0  0  1  0  0  3  0  0  0  0  0  0
  184.2360  178.6000  143.5590 C   0  0  0  0  0  3  0  0  0  0  0  0
  187.4740  178.2390  138.1310 C   0  0  0  0  0  1  0  0  0  0  0  0
  183.3700  178.7880  141.2970 C   0  0  0  0  0  0  0  0  0  0  0  0
  185.7880  178.4050  141.5920 C   0  0  0  0  0  0  0  0  0  0  0  0
  181.8700  178.9760  143.1900 C   0  0  0  0  0  0  0  0  0  0  0  0
  184.4510  178.6010  142.1750 C   0  0  0  0  0  0  0  0  0  0  0  0
  184.8580  178.6020  139.3510 C   0  0  0  0  0  3  0  0  0  0  0  0
  182.0820  178.9760  141.8070 C   0  0  0  0  0  3  0  0  0  0  0  0
  188.3590  178.0220  140.4690 C   0  0  0  0  0  0  0  0  0  0  0  0
  186.8340  178.2230  142.3440 N   0  0  0  0  0  0  0  0  0  0  0  0
  183.5840  178.7870  139.9110 O   0  0  0  0  0  0  0  0  0  0  0  0
  190.6830  177.4530  140.6850 C   0  0  0  0  0  3  0  0  0  0  0  0
  187.2510  178.2280  139.5710 N   0  0  0  0  0  0  0  0  0  0  0  0
  189.6890  177.8510  139.9470 N   0  0  0  0  0  0  0  0  0  0  0  0
  180.5010  179.1770  143.7300 C   0  0  0  0  0  1  0  0  0  0  0  0
  182.9460  178.7880  144.0640 C   0  0  0  0  0  3  0  0  0  0  0  0
  185.9370  178.4150  140.1240 C   0  0  0  0  0  0  0  0  0  0  0  0
  190.4710  177.0660  142.1190 C   0  0  0  0  0  2  0  0  0  0  0  0
  188.1520  178.0110  141.8040 C   0  0  0  0  0  0  0  0  0  0  0  0
  188.9550  177.3620  144.0160 O   0  0  0  0  0  0  0  0  0  0  0  0
  189.8450  177.0600  145.0580 C   0  0  0  0  0  0  0  0  0  0  0  0
  191.5620  176.4670  147.1960 C   0  0  0  0  0  0  0  0  0  0  0  0
  191.1270  176.5380  144.8170 C   0  0  0  0  0  3  0  0  0  0  0  0
  189.4330  177.2810  146.3770 C   0  0  0  0  0  3  0  0  0  0  0  0
  190.2880  176.9870  147.4430 C   0  0  0  0  0  3  0  0  0  0  0  0
  192.3900  176.1810  148.2290 F   0  0  0  0  0  0  0  0  0  0  0  0
  191.9820  176.2430  145.8820 C   0  0  0  0  0  3  0  0  0  0  0  0
  1 21  1  1  0  0  0
  2 17  1  0  0  0  0
  3 14  1  0  0  0  0
  4  9  2  0  0  0  0
  4  7  1  0  0  0  0
  5  7  1  0  0  0  0
  5 11  2  0  0  0  0
  6 16  1  0  0  0  0
  6 17  2  0  0  0  0
  7  2  2  0  0  0  0
  8 12  1  0  0  0  0
  8 18  2  0  0  0  0
  9  6  1  0  0  0  0
 10 20  2  0  0  0  0
 12  4  1  0  0  0  0
 13 19  1  0  0  0  0
 14 18  1  0  0  0  0
 14 10  1  0  0  0  0
 15 10  1  0  0  0  0
 15 13  2  0  0  0  0
 18  5  1  0  0  0  0
 19  1  1  0  0  0  0
 20 11  1  0  0  0  0
 20  1  1  0  0  0  0
 21 22  1  0  0  0  0
 22 25  1  0  0  0  0
 23 26  1  0  0  0  0
 23 27  1  0  0  0  0
 24 22  2  0  0  0  0
 24 28  1  0  0  0  0
 25 26  2  0  0  0  0
 28 23  2  0  0  0  0
M  END
>  <MODEL>
8

>  <REMARK>
 VINA RESULT:      -9.0      3.171      5.579
  Name = 
  2 active torsions:
  status: ('A' for Active; 'I' for Inactive)
    1  A    between atoms: C_1  and  O_2
    2  A    between atoms: O_2  and  C_3
                            x       y       z     vdW  Elec       q    Type
                         _______ _______ _______ _____ _____    ______ ____

>  <TORSDO>
F 2

$$$$
=
 OpenBabel10272401553D

 28 32  0  0  1  0  0  0  0  0999 V2000
  189.7850  177.3370  140.5910 C   0  0  1  0  0  3  0  0  0  0  0  0
  184.9770  178.4420  142.2720 C   0  0  0  0  0  3  0  0  0  0  0  0
  190.2470  177.1760  145.5460 C   0  0  0  0  0  1  0  0  0  0  0  0
  185.2380  178.3350  144.6850 C   0  0  0  0  0  0  0  0  0  0  0  0
  187.2200  177.9170  143.2790 C   0  0  0  0  0  0  0  0  0  0  0  0
  183.0750  178.8410  143.7190 C   0  0  0  0  0  0  0  0  0  0  0  0
  185.7880  178.2350  143.3960 C   0  0  0  0  0  0  0  0  0  0  0  0
  187.4150  177.8250  145.7030 C   0  0  0  0  0  3  0  0  0  0  0  0
  183.8830  178.6370  144.8430 C   0  0  0  0  0  3  0  0  0  0  0  0
  189.9770  177.3110  143.0540 C   0  0  0  0  0  0  0  0  0  0  0  0
  187.7970  177.8120  142.1170 N   0  0  0  0  0  0  0  0  0  0  0  0
  186.0490  178.1300  145.8110 O   0  0  0  0  0  0  0  0  0  0  0  0
  191.9810  177.0910  141.7480 C   0  0  0  0  0  3  0  0  0  0  0  0
  189.4080  177.4000  144.3750 N   0  0  0  0  0  0  0  0  0  0  0  0
  191.3670  176.9770  142.8890 N   0  0  0  0  0  0  0  0  0  0  0  0
  181.6350  179.1620  143.8900 C   0  0  0  0  0  1  0  0  0  0  0  0
  183.6220  178.7440  142.4360 C   0  0  0  0  0  3  0  0  0  0  0  0
  188.0110  177.7160  144.5080 C   0  0  0  0  0  0  0  0  0  0  0  0
  191.2810  177.6640  140.5510 C   0  0  0  0  0  2  0  0  0  0  0  0
  189.1990  177.5190  141.9700 C   0  0  0  0  0  0  0  0  0  0  0  0
  189.0670  178.0740  139.5960 O   0  0  0  0  0  0  0  0  0  0  0  0
  188.7600  177.6070  138.3090 C   0  0  0  0  0  0  0  0  0  0  0  0
  188.2050  176.7220  135.7050 C   0  0  0  0  0  0  0  0  0  0  0  0
  187.8810  176.5320  138.0960 C   0  0  0  0  0  3  0  0  0  0  0  0
  189.3560  178.2330  137.2090 C   0  0  0  0  0  3  0  0  0  0  0  0
  189.0800  177.7930  135.9110 C   0  0  0  0  0  3  0  0  0  0  0  0
  187.9400  176.2960  134.4480 F   0  0  0  0  0  0  0  0  0  0  0  0
  187.6050  176.0920  136.7980 C   0  0  0  0  0  3  0  0  0  0  0  0
  1 21  1  6  0  0  0
  1 20  1  0  0  0  0
  2 17  2  0  0  0  0
  2  7  1  0  0  0  0
  4  9  1  0  0  0  0
  4 12  1  0  0  0  0
  5  7  1  0  0  0  0
  5 18  1  0  0  0  0
  6 16  1  0  0  0  0
  6  9  2  0  0  0  0
  7  4  2  0  0  0  0
  8 12  1  0  0  0  0
 10 14  1  0  0  0  0
 11  5  2  0  0  0  0
 13 15  2  0  0  0  0
 14 18  1  0  0  0  0
 14  3  1  0  0  0  0
 15 10  1  0  0  0  0
 17  6  1  0  0  0  0
 18  8  2  0  0  0  0
 19  1  1  0  0  0  0
 19 13  1  0  0  0  0
 20 11  1  0  0  0  0
 20 10  2  0  0  0  0
 22 21  1  0  0  0  0
 23 26  2  0  0  0  0
 23 28  1  0  0  0  0
 24 22  1  0  0  0  0
 25 22  2  0  0  0  0
 26 25  1  0  0  0  0
 27 23  1  0  0  0  0
 28 24  2  0  0  0  0
M  END
>  <MODEL>
9

>  <REMARK>
 VINA RESULT:      -9.0      1.706      2.509
  Name = 
  2 active torsions:
  status: ('A' for Active; 'I' for Inactive)
    1  A    between atoms: C_1  and  O_2
    2  A    between atoms: O_2  and  C_3
                            x       y       z     vdW  Elec       q    Type
                         _______ _______ _______ _____ _____    ______ ____

>  <TORSDO>
F 2

$$$$
