=
 OpenBabel10272413203D

 32 33  0  0  1  0  0  0  0  0999 V2000
  189.0510  178.6490  138.0500 C   0  0  0  0  0  0  0  0  0  0  0  0
  188.9580  179.7350  137.4210 O   0  0  0  0  0  0  0  0  0  0  0  0
  190.3950  177.0030  139.9460 C   0  0  0  0  0  3  0  0  0  0  0  0
  188.6250  178.5640  139.4120 N   0  0  0  0  0  2  0  0  0  0  0  0
  190.8910  176.9440  138.7030 C   0  0  0  0  0  0  0  0  0  0  0  0
  189.8070  177.2130  137.2870 S   0  0  0  0  0  0  0  0  0  0  0  0
  188.9600  177.3780  140.1980 C   0  0  2  0  0  3  0  0  0  0  0  0
  192.2860  176.7250  138.4740 N   0  0  0  0  0  2  0  0  0  0  0  0
  194.2200  174.9320  138.2600 O   0  0  0  0  0  0  0  0  0  0  0  0
  191.9430  174.2220  137.7040 O   0  0  0  0  0  0  0  0  0  0  0  0
  192.9260  175.3550  137.6220 S   0  0  0  0  0  0  0  0  0  0  0  0
  193.2120  175.7570  135.9080 C   0  0  0  0  0  2  0  0  0  0  0  0
  194.5730  176.3430  135.7110 C   0  0  0  0  0  0  0  0  0  0  0  0
  194.7410  177.5460  135.8310 O   0  0  0  0  0  0  0  0  0  0  0  0
  195.7390  175.4640  135.3820 C   0  0  0  0  0  2  0  0  0  0  0  0
  196.9130  175.8360  136.1640 N   0  0  0  0  0  2  0  0  0  0  0  0
  197.7500  174.9060  136.8600 C   0  0  0  0  0  0  0  0  0  0  0  0
  198.3130  173.5480  136.1340 S   0  0  0  0  0  0  0  0  0  0  0  0
  198.1420  175.1890  138.1970 N   0  0  0  0  0  1  0  0  0  0  0  0
  188.7580  177.6860  141.6700 C   0  0  0  0  0  2  0  0  0  0  0  0
  187.3470  178.2260  141.9270 C   0  0  0  0  0  2  0  0  0  0  0  0
  186.6330  177.5070  142.9920 N   0  0  0  0  0  0  0  0  0  0  0  0
  183.6050  178.8170  144.6910 C   0  0  0  0  0  1  0  0  0  0  0  0
  184.3980  178.3240  143.5000 C   0  0  1  0  0  3  0  0  0  0  0  0
  185.1950  179.4720  142.9210 C   0  0  0  0  0  2  0  0  0  0  0  0
  185.8800  178.4510  143.8110 C   0  0  2  0  0  3  0  0  0  0  0  0
  187.6040  176.8310  143.8460 C   0  0  0  0  0  2  0  0  0  0  0  0
  187.6180  177.4680  145.2250 C   0  0  0  0  0  2  0  0  0  0  0  0
  189.0390  177.8220  145.6290 C   0  0  0  0  0  2  0  0  0  0  0  0
  189.3300  177.3480  147.0400 C   0  0  0  0  0  2  0  0  0  0  0  0
  191.3940  176.9190  145.7500 C   0  0  0  0  0  1  0  0  0  0  0  0
  190.7120  176.7320  147.0870 C   0  0  0  0  0  2  0  0  0  0  0  0
  1  4  1  0  0  0  0
  2  1  2  0  0  0  0
  3  7  1  0  0  0  0
  4  7  1  0  0  0  0
  5  3  2  0  0  0  0
  6  1  1  0  0  0  0
  6  5  1  0  0  0  0
  7 20  1  1  0  0  0
  8  5  1  0  0  0  0
 11 10  2  0  0  0  0
 11  9  2  0  0  0  0
 11  8  1  0  0  0  0
 12 11  1  0  0  0  0
 13 14  2  0  0  0  0
 13 12  1  0  0  0  0
 15 13  1  0  0  0  0
 15 16  1  0  0  0  0
 16 17  1  0  0  0  0
 17 19  1  0  0  0  0
 18 17  2  0  0  0  0
 20 21  1  0  0  0  0
 21 22  1  0  0  0  0
 22 27  1  0  0  0  0
 24 26  1  0  0  0  0
 24 23  1  1  0  0  0
 25 24  1  0  0  0  0
 25 26  1  0  0  0  0
 26 22  1  6  0  0  0
 27 28  1  0  0  0  0
 28 29  1  0  0  0  0
 29 30  1  0  0  0  0
 30 32  1  0  0  0  0
 31 32  1  0  0  0  0
M  END
>  <MODEL>
1

>  <REMARK>
 VINA RESULT:      -7.0      0.000      0.000
  Name = 
  16 active torsions:
  status: ('A' for Active; 'I' for Inactive)
    1  A    between atoms: C_1  and  N_30
    2  A    between atoms: C_2  and  C_14
    3  A    between atoms: C_2  and  S_27
    4  A    between atoms: C_5  and  C_14
    5  A    between atoms: C_5  and  N_30
    6  A    between atoms: C_6  and  N_9
    7  A    between atoms: C_6  and  C_17
    8  A    between atoms: C_7  and  C_26
    9  A    between atoms: C_7  and  C_31
   10  A    between atoms: N_9  and  C_31
   11  A    between atoms: N_9  and  C_32
   12  A    between atoms: N_16  and  C_20
   13  A    between atoms: N_16  and  S_27
   14  A    between atoms: C_17  and  C_29
   15  A    between atoms: C_18  and  C_25
   16  A    between atoms: C_18  and  C_29
                            x       y       z     vdW  Elec       q    Type
                         _______ _______ _______ _____ _____    ______ ____

>  <TORSDO>
F 16

$$$$
=
 OpenBabel10272413203D

 32 33  0  0  1  0  0  0  0  0999 V2000
  189.0410  178.6620  137.9770 C   0  0  0  0  0  0  0  0  0  0  0  0
  188.9230  179.7450  137.3470 O   0  0  0  0  0  0  0  0  0  0  0  0
  190.3900  177.0650  139.9100 C   0  0  0  0  0  3  0  0  0  0  0  0
  188.5770  178.5560  139.3240 N   0  0  0  0  0  2  0  0  0  0  0  0
  190.9250  177.0290  138.6820 C   0  0  0  0  0  0  0  0  0  0  0  0
  189.8750  177.2590  137.2340 S   0  0  0  0  0  0  0  0  0  0  0  0
  188.9340  177.3820  140.1190 C   0  0  2  0  0  3  0  0  0  0  0  0
  192.3340  176.8650  138.4960 N   0  0  0  0  0  2  0  0  0  0  0  0
  194.4040  175.2280  138.3010 O   0  0  0  0  0  0  0  0  0  0  0  0
  192.1770  174.3010  137.8850 O   0  0  0  0  0  0  0  0  0  0  0  0
  193.0560  175.5040  137.6970 S   0  0  0  0  0  0  0  0  0  0  0  0
  193.2410  175.8240  135.9510 C   0  0  0  0  0  2  0  0  0  0  0  0
  194.6410  176.2320  135.6230 C   0  0  0  0  0  0  0  0  0  0  0  0
  195.0550  177.3240  135.9770 O   0  0  0  0  0  0  0  0  0  0  0  0
  195.5480  175.3050  134.8760 C   0  0  0  0  0  2  0  0  0  0  0  0
  196.3820  174.5360  135.7930 N   0  0  0  0  0  2  0  0  0  0  0  0
  197.7020  174.9140  136.1970 C   0  0  0  0  0  0  0  0  0  0  0  0
  198.9360  175.0090  135.1220 S   0  0  0  0  0  0  0  0  0  0  0  0
  197.9410  175.2600  137.5550 N   0  0  0  0  0  1  0  0  0  0  0  0
  188.6750  177.6770  141.5840 C   0  0  0  0  0  2  0  0  0  0  0  0
  189.7220  176.9950  142.4730 C   0  0  0  0  0  2  0  0  0  0  0  0
  189.8470  177.6110  143.8020 N   0  0  0  0  0  0  0  0  0  0  0  0
  191.7140  176.3440  146.7480 C   0  0  0  0  0  1  0  0  0  0  0  0
  191.5860  177.0010  145.3910 C   0  0  1  0  0  3  0  0  0  0  0  0
  191.5330  175.9310  144.3220 C   0  0  0  0  0  2  0  0  0  0  0  0
  190.2530  176.6050  144.7790 C   0  0  2  0  0  3  0  0  0  0  0  0
  188.5510  178.1460  144.2050 C   0  0  0  0  0  2  0  0  0  0  0  0
  188.1860  177.6420  145.5910 C   0  0  0  0  0  2  0  0  0  0  0  0
  186.6780  177.5950  145.7570 C   0  0  0  0  0  2  0  0  0  0  0  0
  185.9840  177.8410  144.4300 C   0  0  0  0  0  2  0  0  0  0  0  0
  183.8900  178.8080  145.3190 C   0  0  0  0  0  1  0  0  0  0  0  0
  185.1470  179.0990  144.5280 C   0  0  0  0  0  2  0  0  0  0  0  0
  1  4  1  0  0  0  0
  2  1  2  0  0  0  0
  3  7  1  0  0  0  0
  4  7  1  0  0  0  0
  5  3  2  0  0  0  0
  6  1  1  0  0  0  0
  6  5  1  0  0  0  0
  7 20  1  1  0  0  0
  8  5  1  0  0  0  0
 11 10  2  0  0  0  0
 11  9  2  0  0  0  0
 11  8  1  0  0  0  0
 12 11  1  0  0  0  0
 13 12  1  0  0  0  0
 13 14  2  0  0  0  0
 15 13  1  0  0  0  0
 15 16  1  0  0  0  0
 16 17  1  0  0  0  0
 17 19  1  0  0  0  0
 18 17  2  0  0  0  0
 20 21  1  0  0  0  0
 21 22  1  0  0  0  0
 22 27  1  0  0  0  0
 24 23  1  1  0  0  0
 25 26  1  0  0  0  0
 25 24  1  0  0  0  0
 26 22  1  6  0  0  0
 26 24  1  0  0  0  0
 27 28  1  0  0  0  0
 28 29  1  0  0  0  0
 30 32  1  0  0  0  0
 30 29  1  0  0  0  0
 32 31  1  0  0  0  0
M  END
>  <MODEL>
2

>  <REMARK>
 VINA RESULT:      -6.9      1.057      3.389
  Name = 
  16 active torsions:
  status: ('A' for Active; 'I' for Inactive)
    1  A    between atoms: C_1  and  N_30
    2  A    between atoms: C_2  and  C_14
    3  A    between atoms: C_2  and  S_27
    4  A    between atoms: C_5  and  C_14
    5  A    between atoms: C_5  and  N_30
    6  A    between atoms: C_6  and  N_9
    7  A    between atoms: C_6  and  C_17
    8  A    between atoms: C_7  and  C_26
    9  A    between atoms: C_7  and  C_31
   10  A    between atoms: N_9  and  C_31
   11  A    between atoms: N_9  and  C_32
   12  A    between atoms: N_16  and  C_20
   13  A    between atoms: N_16  and  S_27
   14  A    between atoms: C_17  and  C_29
   15  A    between atoms: C_18  and  C_25
   16  A    between atoms: C_18  and  C_29
                            x       y       z     vdW  Elec       q    Type
                         _______ _______ _______ _____ _____    ______ ____

>  <TORSDO>
F 16

$$$$
=
 OpenBabel10272413203D

 32 33  0  0  1  0  0  0  0  0999 V2000
  191.2060  176.3800  143.4690 C   0  0  0  0  0  0  0  0  0  0  0  0
  191.9960  175.5620  144.0080 O   0  0  0  0  0  0  0  0  0  0  0  0
  188.9890  176.9130  141.7640 C   0  0  0  0  0  3  0  0  0  0  0  0
  189.8840  176.5540  143.9830 N   0  0  0  0  0  2  0  0  0  0  0  0
  190.1680  176.8160  141.1350 C   0  0  0  0  0  0  0  0  0  0  0  0
  191.6860  177.2760  141.9920 S   0  0  0  0  0  0  0  0  0  0  0  0
  188.9060  177.3180  143.2100 C   0  0  2  0  0  3  0  0  0  0  0  0
  190.2540  176.2980  139.8040 N   0  0  0  0  0  2  0  0  0  0  0  0
  189.2810  178.5340  138.7760 O   0  0  0  0  0  0  0  0  0  0  0  0
  190.7690  177.1880  137.3720 O   0  0  0  0  0  0  0  0  0  0  0  0
  189.6730  177.1330  138.3980 S   0  0  0  0  0  0  0  0  0  0  0  0
  188.2640  176.2890  137.7020 C   0  0  0  0  0  2  0  0  0  0  0  0
  187.3490  177.2470  137.0090 C   0  0  0  0  0  0  0  0  0  0  0  0
  187.7550  177.8970  136.0590 O   0  0  0  0  0  0  0  0  0  0  0  0
  185.9310  177.4070  137.4610 C   0  0  0  0  0  2  0  0  0  0  0  0
  185.7990  178.5300  138.3840 N   0  0  0  0  0  2  0  0  0  0  0  0
  184.5820  178.8960  139.0450 C   0  0  0  0  0  0  0  0  0  0  0  0
  183.5940  177.7700  139.7100 S   0  0  0  0  0  0  0  0  0  0  0  0
  184.2450  180.2710  139.1680 N   0  0  0  0  0  1  0  0  0  0  0  0
  187.5160  177.0300  143.7480 C   0  0  0  0  0  2  0  0  0  0  0  0
  187.0420  178.1600  144.6690 C   0  0  0  0  0  2  0  0  0  0  0  0
  185.6690  177.9730  145.1600 N   0  0  0  0  0  0  0  0  0  0  0  0
  182.5710  179.3900  143.6880 C   0  0  0  0  0  1  0  0  0  0  0  0
  183.7610  178.4570  143.7280 C   0  0  1  0  0  3  0  0  0  0  0  0
  184.9690  179.1630  143.1520 C   0  0  0  0  0  2  0  0  0  0  0  0
  184.8110  179.0430  144.6570 C   0  0  2  0  0  3  0  0  0  0  0  0
  185.6690  178.0320  146.6180 C   0  0  0  0  0  2  0  0  0  0  0  0
  186.9480  178.6870  147.1130 C   0  0  0  0  0  2  0  0  0  0  0  0
  187.5250  177.9040  148.2790 C   0  0  0  0  0  2  0  0  0  0  0  0
  188.5210  176.8690  147.7910 C   0  0  0  0  0  2  0  0  0  0  0  0
  190.9310  176.5640  147.3350 C   0  0  0  0  0  1  0  0  0  0  0  0
  189.7960  177.5640  147.3620 C   0  0  0  0  0  2  0  0  0  0  0  0
  1  4  1  0  0  0  0
  1  2  2  0  0  0  0
  3  7  1  0  0  0  0
  5  3  2  0  0  0  0
  5  6  1  0  0  0  0
  6  1  1  0  0  0  0
  7 20  1  1  0  0  0
  7  4  1  0  0  0  0
  8  5  1  0  0  0  0
 10 11  2  0  0  0  0
 11  9  2  0  0  0  0
 11  8  1  0  0  0  0
 12 11  1  0  0  0  0
 13 15  1  0  0  0  0
 13 12  1  0  0  0  0
 14 13  2  0  0  0  0
 15 16  1  0  0  0  0
 16 17  1  0  0  0  0
 17 19  1  0  0  0  0
 17 18  2  0  0  0  0
 20 21  1  0  0  0  0
 21 22  1  0  0  0  0
 22 27  1  0  0  0  0
 24 23  1  1  0  0  0
 24 26  1  0  0  0  0
 25 24  1  0  0  0  0
 25 26  1  0  0  0  0
 26 22  1  6  0  0  0
 27 28  1  0  0  0  0
 28 29  1  0  0  0  0
 30 29  1  0  0  0  0
 31 32  1  0  0  0  0
 32 30  1  0  0  0  0
M  END
>  <MODEL>
3

>  <REMARK>
 VINA RESULT:      -6.9      4.137      6.476
  Name = 
  16 active torsions:
  status: ('A' for Active; 'I' for Inactive)
    1  A    between atoms: C_1  and  N_30
    2  A    between atoms: C_2  and  C_14
    3  A    between atoms: C_2  and  S_27
    4  A    between atoms: C_5  and  C_14
    5  A    between atoms: C_5  and  N_30
    6  A    between atoms: C_6  and  N_9
    7  A    between atoms: C_6  and  C_17
    8  A    between atoms: C_7  and  C_26
    9  A    between atoms: C_7  and  C_31
   10  A    between atoms: N_9  and  C_31
   11  A    between atoms: N_9  and  C_32
   12  A    between atoms: N_16  and  C_20
   13  A    between atoms: N_16  and  S_27
   14  A    between atoms: C_17  and  C_29
   15  A    between atoms: C_18  and  C_25
   16  A    between atoms: C_18  and  C_29
                            x       y       z     vdW  Elec       q    Type
                         _______ _______ _______ _____ _____    ______ ____

>  <TORSDO>
F 16

$$$$
=
 OpenBabel10272413203D

 32 33  0  0  1  0  0  0  0  0999 V2000
  189.0600  178.4440  137.8060 C   0  0  0  0  0  0  0  0  0  0  0  0
  189.4200  179.3590  137.0200 O   0  0  0  0  0  0  0  0  0  0  0  0
  189.6710  176.5800  139.8700 C   0  0  0  0  0  3  0  0  0  0  0  0
  188.8030  178.7310  139.1820 N   0  0  0  0  0  2  0  0  0  0  0  0
  189.9330  176.1470  138.6300 C   0  0  0  0  0  0  0  0  0  0  0  0
  188.9510  176.7450  137.2400 S   0  0  0  0  0  0  0  0  0  0  0  0
  188.6250  177.6300  140.1270 C   0  0  2  0  0  3  0  0  0  0  0  0
  191.0200  175.2530  138.3740 N   0  0  0  0  0  2  0  0  0  0  0  0
  192.2680  176.3340  136.3060 O   0  0  0  0  0  0  0  0  0  0  0  0
  193.1780  176.7660  138.5370 O   0  0  0  0  0  0  0  0  0  0  0  0
  192.5270  175.7350  137.6600 S   0  0  0  0  0  0  0  0  0  0  0  0
  193.6200  174.3360  137.4920 C   0  0  0  0  0  2  0  0  0  0  0  0
  195.0490  174.7710  137.4440 C   0  0  0  0  0  0  0  0  0  0  0  0
  195.4250  175.5330  136.5680 O   0  0  0  0  0  0  0  0  0  0  0  0
  196.0250  174.2920  138.4740 C   0  0  0  0  0  2  0  0  0  0  0  0
  197.2700  175.0510  138.4090 N   0  0  0  0  0  2  0  0  0  0  0  0
  198.1940  175.1850  139.4950 C   0  0  0  0  0  0  0  0  0  0  0  0
  197.6840  175.4760  141.0250 S   0  0  0  0  0  0  0  0  0  0  0  0
  199.5840  175.0170  139.2490 N   0  0  0  0  0  1  0  0  0  0  0  0
  188.7640  178.1620  141.5410 C   0  0  0  0  0  2  0  0  0  0  0  0
  188.6600  177.0260  142.5650 C   0  0  0  0  0  2  0  0  0  0  0  0
  188.6420  177.4990  143.9570 N   0  0  0  0  0  0  0  0  0  0  0  0
  191.3300  176.9400  146.4540 C   0  0  0  0  0  1  0  0  0  0  0  0
  190.7360  177.5350  145.1960 C   0  0  1  0  0  3  0  0  0  0  0  0
  190.8820  176.5460  144.0600 C   0  0  0  0  0  2  0  0  0  0  0  0
  189.5480  176.6900  144.7680 C   0  0  2  0  0  3  0  0  0  0  0  0
  187.2930  177.3540  144.4940 C   0  0  0  0  0  2  0  0  0  0  0  0
  187.2300  177.9130  145.9050 C   0  0  0  0  0  2  0  0  0  0  0  0
  185.7900  178.1930  146.2990 C   0  0  0  0  0  2  0  0  0  0  0  0
  185.1710  179.2220  145.3730 C   0  0  0  0  0  2  0  0  0  0  0  0
  183.4730  178.8250  143.6210 C   0  0  0  0  0  1  0  0  0  0  0  0
  183.7240  178.8570  145.1130 C   0  0  0  0  0  2  0  0  0  0  0  0
  1  4  1  0  0  0  0
  2  1  2  0  0  0  0
  3  7  1  0  0  0  0
  4  7  1  0  0  0  0
  5  3  2  0  0  0  0
  6  1  1  0  0  0  0
  6  5  1  0  0  0  0
  7 20  1  1  0  0  0
  8  5  1  0  0  0  0
  9 11  2  0  0  0  0
 11  8  1  0  0  0  0
 11 10  2  0  0  0  0
 12 11  1  0  0  0  0
 13 12  1  0  0  0  0
 13 15  1  0  0  0  0
 14 13  2  0  0  0  0
 16 15  1  0  0  0  0
 16 17  1  0  0  0  0
 17 18  2  0  0  0  0
 19 17  1  0  0  0  0
 20 21  1  0  0  0  0
 21 22  1  0  0  0  0
 22 27  1  0  0  0  0
 24 23  1  1  0  0  0
 25 26  1  0  0  0  0
 25 24  1  0  0  0  0
 26 22  1  6  0  0  0
 26 24  1  0  0  0  0
 27 28  1  0  0  0  0
 28 29  1  0  0  0  0
 30 29  1  0  0  0  0
 31 32  1  0  0  0  0
 32 30  1  0  0  0  0
M  END
>  <MODEL>
4

>  <REMARK>
 VINA RESULT:      -6.8      1.822      3.709
  Name = 
  16 active torsions:
  status: ('A' for Active; 'I' for Inactive)
    1  A    between atoms: C_1  and  N_30
    2  A    between atoms: C_2  and  C_14
    3  A    between atoms: C_2  and  S_27
    4  A    between atoms: C_5  and  C_14
    5  A    between atoms: C_5  and  N_30
    6  A    between atoms: C_6  and  N_9
    7  A    between atoms: C_6  and  C_17
    8  A    between atoms: C_7  and  C_26
    9  A    between atoms: C_7  and  C_31
   10  A    between atoms: N_9  and  C_31
   11  A    between atoms: N_9  and  C_32
   12  A    between atoms: N_16  and  C_20
   13  A    between atoms: N_16  and  S_27
   14  A    between atoms: C_17  and  C_29
   15  A    between atoms: C_18  and  C_25
   16  A    between atoms: C_18  and  C_29
                            x       y       z     vdW  Elec       q    Type
                         _______ _______ _______ _____ _____    ______ ____

>  <TORSDO>
F 16

$$$$
=
 OpenBabel10272413203D

 32 33  0  0  1  0  0  0  0  0999 V2000
  189.1570  178.4560  137.9070 C   0  0  0  0  0  0  0  0  0  0  0  0
  189.0670  179.6140  137.4230 O   0  0  0  0  0  0  0  0  0  0  0  0
  190.7500  176.2700  138.7970 C   0  0  0  0  0  3  0  0  0  0  0  0
  189.4810  178.2710  139.2860 N   0  0  0  0  0  2  0  0  0  0  0  0
  190.5000  176.2810  137.4810 C   0  0  0  0  0  0  0  0  0  0  0  0
  188.9740  177.0120  136.8590 S   0  0  0  0  0  0  0  0  0  0  0  0
  189.8190  176.9350  139.7740 C   0  0  2  0  0  3  0  0  0  0  0  0
  191.4540  175.7700  136.5440 N   0  0  0  0  0  2  0  0  0  0  0  0
  193.4900  176.9890  137.7150 O   0  0  0  0  0  0  0  0  0  0  0  0
  193.6850  174.5830  137.3100 O   0  0  0  0  0  0  0  0  0  0  0  0
  193.1740  175.8800  136.7520 S   0  0  0  0  0  0  0  0  0  0  0  0
  193.9770  176.2010  135.1910 C   0  0  0  0  0  2  0  0  0  0  0  0
  195.4110  176.5710  135.3890 C   0  0  0  0  0  0  0  0  0  0  0  0
  195.7250  177.7430  135.5240 O   0  0  0  0  0  0  0  0  0  0  0  0
  196.4700  175.5140  135.4390 C   0  0  0  0  0  2  0  0  0  0  0  0
  197.3870  175.7430  136.5500 N   0  0  0  0  0  2  0  0  0  0  0  0
  197.7190  174.7650  137.5420 C   0  0  0  0  0  0  0  0  0  0  0  0
  198.9490  173.7040  137.3250 S   0  0  0  0  0  0  0  0  0  0  0  0
  196.9940  174.7430  138.7650 N   0  0  0  0  0  1  0  0  0  0  0  0
  190.4940  177.0570  141.1270 C   0  0  0  0  0  2  0  0  0  0  0  0
  189.6980  177.9850  142.0530 C   0  0  0  0  0  2  0  0  0  0  0  0
  189.4700  177.4170  143.3900 N   0  0  0  0  0  0  0  0  0  0  0  0
  191.7710  176.4360  146.1310 C   0  0  0  0  0  1  0  0  0  0  0  0
  190.8220  177.3700  145.4130 C   0  0  1  0  0  3  0  0  0  0  0  0
  191.5840  178.1430  144.3590 C   0  0  0  0  0  2  0  0  0  0  0  0
  190.7340  176.9530  143.9540 C   0  0  2  0  0  3  0  0  0  0  0  0
  188.5700  176.2740  143.2760 C   0  0  0  0  0  2  0  0  0  0  0  0
  187.1760  176.6600  143.7410 C   0  0  0  0  0  2  0  0  0  0  0  0
  187.2570  177.6080  144.9240 C   0  0  0  0  0  2  0  0  0  0  0  0
  185.9320  178.3150  145.1370 C   0  0  0  0  0  2  0  0  0  0  0  0
  186.9360  178.1660  147.3910 C   0  0  0  0  0  1  0  0  0  0  0  0
  185.6620  178.4370  146.6220 C   0  0  0  0  0  2  0  0  0  0  0  0
  1  4  1  0  0  0  0
  2  1  2  0  0  0  0
  3  7  1  0  0  0  0
  4  7  1  0  0  0  0
  5  3  2  0  0  0  0
  6  5  1  0  0  0  0
  6  1  1  0  0  0  0
  7 20  1  1  0  0  0
  8 11  1  0  0  0  0
  8  5  1  0  0  0  0
 11 10  2  0  0  0  0
 11  9  2  0  0  0  0
 12 13  1  0  0  0  0
 12 11  1  0  0  0  0
 13 15  1  0  0  0  0
 13 14  2  0  0  0  0
 15 16  1  0  0  0  0
 16 17  1  0  0  0  0
 17 19  1  0  0  0  0
 18 17  2  0  0  0  0
 20 21  1  0  0  0  0
 21 22  1  0  0  0  0
 24 23  1  1  0  0  0
 25 24  1  0  0  0  0
 26 22  1  6  0  0  0
 26 25  1  0  0  0  0
 26 24  1  0  0  0  0
 27 22  1  0  0  0  0
 27 28  1  0  0  0  0
 28 29  1  0  0  0  0
 29 30  1  0  0  0  0
 30 32  1  0  0  0  0
 32 31  1  0  0  0  0
M  END
>  <MODEL>
5

>  <REMARK>
 VINA RESULT:      -6.7      1.467      3.141
  Name = 
  16 active torsions:
  status: ('A' for Active; 'I' for Inactive)
    1  A    between atoms: C_1  and  N_30
    2  A    between atoms: C_2  and  C_14
    3  A    between atoms: C_2  and  S_27
    4  A    between atoms: C_5  and  C_14
    5  A    between atoms: C_5  and  N_30
    6  A    between atoms: C_6  and  N_9
    7  A    between atoms: C_6  and  C_17
    8  A    between atoms: C_7  and  C_26
    9  A    between atoms: C_7  and  C_31
   10  A    between atoms: N_9  and  C_31
   11  A    between atoms: N_9  and  C_32
   12  A    between atoms: N_16  and  C_20
   13  A    between atoms: N_16  and  S_27
   14  A    between atoms: C_17  and  C_29
   15  A    between atoms: C_18  and  C_25
   16  A    between atoms: C_18  and  C_29
                            x       y       z     vdW  Elec       q    Type
                         _______ _______ _______ _____ _____    ______ ____

>  <TORSDO>
F 16

$$$$
=
 OpenBabel10272413203D

 32 33  0  0  1  0  0  0  0  0999 V2000
  191.2720  176.6040  143.0530 C   0  0  0  0  0  0  0  0  0  0  0  0
  191.9430  175.7760  143.7220 O   0  0  0  0  0  0  0  0  0  0  0  0
  189.1950  177.1630  141.1870 C   0  0  0  0  0  3  0  0  0  0  0  0
  189.9590  176.9790  143.4750 N   0  0  0  0  0  2  0  0  0  0  0  0
  190.3780  176.8650  140.6340 C   0  0  0  0  0  0  0  0  0  0  0  0
  191.9050  177.2590  141.5080 S   0  0  0  0  0  0  0  0  0  0  0  0
  189.1030  177.7460  142.5710 C   0  0  2  0  0  3  0  0  0  0  0  0
  190.4560  176.1860  139.3780 N   0  0  0  0  0  2  0  0  0  0  0  0
  189.7830  178.2770  137.9030 O   0  0  0  0  0  0  0  0  0  0  0  0
  190.5300  176.2570  136.7390 O   0  0  0  0  0  0  0  0  0  0  0  0
  189.7430  176.7750  137.9090 S   0  0  0  0  0  0  0  0  0  0  0  0
  188.0520  176.2240  137.7640 C   0  0  0  0  0  2  0  0  0  0  0  0
  187.4580  176.6470  136.4600 C   0  0  0  0  0  0  0  0  0  0  0  0
  187.6310  175.9670  135.4620 O   0  0  0  0  0  0  0  0  0  0  0  0
  186.6350  177.8950  136.3680 C   0  0  0  0  0  2  0  0  0  0  0  0
  186.4880  178.5230  137.6770 N   0  0  0  0  0  2  0  0  0  0  0  0
  185.3060  178.4510  138.4810 C   0  0  0  0  0  0  0  0  0  0  0  0
  183.9770  177.6290  137.9840 S   0  0  0  0  0  0  0  0  0  0  0  0
  185.2980  179.0670  139.7620 N   0  0  0  0  0  1  0  0  0  0  0  0
  187.6710  177.6760  143.0660 C   0  0  0  0  0  2  0  0  0  0  0  0
  187.5880  176.9160  144.3960 C   0  0  0  0  0  2  0  0  0  0  0  0
  187.0950  177.7410  145.5080 N   0  0  0  0  0  0  0  0  0  0  0  0
  188.3900  178.0510  148.9710 C   0  0  0  0  0  1  0  0  0  0  0  0
  188.3670  178.3560  147.4890 C   0  0  1  0  0  3  0  0  0  0  0  0
  189.1430  177.2890  146.7480 C   0  0  0  0  0  2  0  0  0  0  0  0
  187.6260  177.2400  146.7720 C   0  0  2  0  0  3  0  0  0  0  0  0
  185.6390  177.6590  145.5560 C   0  0  0  0  0  2  0  0  0  0  0  0
  185.0410  179.0520  145.6590 C   0  0  0  0  0  2  0  0  0  0  0  0
  183.7730  179.1450  144.8280 C   0  0  0  0  0  2  0  0  0  0  0  0
  184.1020  179.1580  143.3470 C   0  0  0  0  0  2  0  0  0  0  0  0
  181.6320  179.0800  143.3120 C   0  0  0  0  0  1  0  0  0  0  0  0
  182.8900  178.7040  142.5610 C   0  0  0  0  0  2  0  0  0  0  0  0
  1  4  1  0  0  0  0
  1  2  2  0  0  0  0
  3  7  1  0  0  0  0
  5  3  2  0  0  0  0
  5  6  1  0  0  0  0
  6  1  1  0  0  0  0
  7 20  1  1  0  0  0
  7  4  1  0  0  0  0
  8  5  1  0  0  0  0
  9 11  2  0  0  0  0
 10 11  2  0  0  0  0
 11  8  1  0  0  0  0
 12 11  1  0  0  0  0
 13 12  1  0  0  0  0
 14 13  2  0  0  0  0
 15 13  1  0  0  0  0
 15 16  1  0  0  0  0
 16 17  1  0  0  0  0
 17 19  1  0  0  0  0
 18 17  2  0  0  0  0
 20 21  1  0  0  0  0
 21 22  1  0  0  0  0
 22 27  1  0  0  0  0
 24 23  1  1  0  0  0
 25 26  1  0  0  0  0
 25 24  1  0  0  0  0
 26 22  1  6  0  0  0
 26 24  1  0  0  0  0
 27 28  1  0  0  0  0
 29 28  1  0  0  0  0
 30 29  1  0  0  0  0
 32 31  1  0  0  0  0
 32 30  1  0  0  0  0
M  END
>  <MODEL>
6

>  <REMARK>
 VINA RESULT:      -6.6      4.004      6.964
  Name = 
  16 active torsions:
  status: ('A' for Active; 'I' for Inactive)
    1  A    between atoms: C_1  and  N_30
    2  A    between atoms: C_2  and  C_14
    3  A    between atoms: C_2  and  S_27
    4  A    between atoms: C_5  and  C_14
    5  A    between atoms: C_5  and  N_30
    6  A    between atoms: C_6  and  N_9
    7  A    between atoms: C_6  and  C_17
    8  A    between atoms: C_7  and  C_26
    9  A    between atoms: C_7  and  C_31
   10  A    between atoms: N_9  and  C_31
   11  A    between atoms: N_9  and  C_32
   12  A    between atoms: N_16  and  C_20
   13  A    between atoms: N_16  and  S_27
   14  A    between atoms: C_17  and  C_29
   15  A    between atoms: C_18  and  C_25
   16  A    between atoms: C_18  and  C_29
                            x       y       z     vdW  Elec       q    Type
                         _______ _______ _______ _____ _____    ______ ____

>  <TORSDO>
F 16

$$$$
=
 OpenBabel10272413203D

 32 33  0  0  1  0  0  0  0  0999 V2000
  190.2400  176.5740  138.9270 C   0  0  0  0  0  0  0  0  0  0  0  0
  190.8370  175.4770  138.7730 O   0  0  0  0  0  0  0  0  0  0  0  0
  187.8550  178.0300  139.4740 C   0  0  0  0  0  3  0  0  0  0  0  0
  189.9300  177.0500  140.2390 N   0  0  0  0  0  2  0  0  0  0  0  0
  188.0200  177.6890  138.1900 C   0  0  0  0  0  0  0  0  0  0  0  0
  189.6810  177.5180  137.5090 S   0  0  0  0  0  0  0  0  0  0  0  0
  189.0320  178.1930  140.3970 C   0  0  2  0  0  3  0  0  0  0  0  0
  186.8960  177.4010  137.3520 N   0  0  0  0  0  2  0  0  0  0  0  0
  186.9940  175.9220  135.1600 O   0  0  0  0  0  0  0  0  0  0  0  0
  187.4450  174.8180  137.2990 O   0  0  0  0  0  0  0  0  0  0  0  0
  186.6070  175.8580  136.6110 S   0  0  0  0  0  0  0  0  0  0  0  0
  184.8870  175.4060  136.7490 C   0  0  0  0  0  2  0  0  0  0  0  0
  184.0030  176.6060  136.6290 C   0  0  0  0  0  0  0  0  0  0  0  0
  184.0250  177.2790  135.6120 O   0  0  0  0  0  0  0  0  0  0  0  0
  183.0760  176.9810  137.7440 C   0  0  0  0  0  2  0  0  0  0  0  0
  183.8130  177.5400  138.8720 N   0  0  0  0  0  2  0  0  0  0  0  0
  183.5300  178.8070  139.4770 C   0  0  0  0  0  0  0  0  0  0  0  0
  182.0800  179.1210  140.1730 S   0  0  0  0  0  0  0  0  0  0  0  0
  184.5450  179.8010  139.5160 N   0  0  0  0  0  1  0  0  0  0  0  0
  188.5550  178.2530  141.8360 C   0  0  0  0  0  2  0  0  0  0  0  0
  187.0230  178.2760  141.9040 C   0  0  0  0  0  2  0  0  0  0  0  0
  186.4840  177.6080  143.0980 N   0  0  0  0  0  0  0  0  0  0  0  0
  183.6070  178.9120  145.0460 C   0  0  0  0  0  1  0  0  0  0  0  0
  184.2840  178.3680  143.8070 C   0  0  1  0  0  3  0  0  0  0  0  0
  184.9530  179.5030  143.0640 C   0  0  0  0  0  2  0  0  0  0  0  0
  185.7830  178.5780  143.9350 C   0  0  2  0  0  3  0  0  0  0  0  0
  187.5870  177.0470  143.8710 C   0  0  0  0  0  2  0  0  0  0  0  0
  187.5420  177.5680  145.2980 C   0  0  0  0  0  2  0  0  0  0  0  0
  188.9460  177.8510  145.8020 C   0  0  0  0  0  2  0  0  0  0  0  0
  189.2880  176.9490  146.9730 C   0  0  0  0  0  2  0  0  0  0  0  0
  191.3590  176.9360  145.6230 C   0  0  0  0  0  1  0  0  0  0  0  0
  190.7840  176.7140  147.0050 C   0  0  0  0  0  2  0  0  0  0  0  0
  1  4  1  0  0  0  0
  2  1  2  0  0  0  0
  3  7  1  0  0  0  0
  4  7  1  0  0  0  0
  5  3  2  0  0  0  0
  6  5  1  0  0  0  0
  6  1  1  0  0  0  0
  7 20  1  1  0  0  0
  8  5  1  0  0  0  0
  9 11  2  0  0  0  0
 11 12  1  0  0  0  0
 11 10  2  0  0  0  0
 11  8  1  0  0  0  0
 13 12  1  0  0  0  0
 13 15  1  0  0  0  0
 14 13  2  0  0  0  0
 15 16  1  0  0  0  0
 16 17  1  0  0  0  0
 17 19  1  0  0  0  0
 17 18  2  0  0  0  0
 20 21  1  0  0  0  0
 21 22  1  0  0  0  0
 22 27  1  0  0  0  0
 24 26  1  0  0  0  0
 24 23  1  1  0  0  0
 25 24  1  0  0  0  0
 25 26  1  0  0  0  0
 26 22  1  6  0  0  0
 27 28  1  0  0  0  0
 28 29  1  0  0  0  0
 29 30  1  0  0  0  0
 30 32  1  0  0  0  0
 31 32  1  0  0  0  0
M  END
>  <MODEL>
7

>  <REMARK>
 VINA RESULT:      -6.6      3.919      7.071
  Name = 
  16 active torsions:
  status: ('A' for Active; 'I' for Inactive)
    1  A    between atoms: C_1  and  N_30
    2  A    between atoms: C_2  and  C_14
    3  A    between atoms: C_2  and  S_27
    4  A    between atoms: C_5  and  C_14
    5  A    between atoms: C_5  and  N_30
    6  A    between atoms: C_6  and  N_9
    7  A    between atoms: C_6  and  C_17
    8  A    between atoms: C_7  and  C_26
    9  A    between atoms: C_7  and  C_31
   10  A    between atoms: N_9  and  C_31
   11  A    between atoms: N_9  and  C_32
   12  A    between atoms: N_16  and  C_20
   13  A    between atoms: N_16  and  S_27
   14  A    between atoms: C_17  and  C_29
   15  A    between atoms: C_18  and  C_25
   16  A    between atoms: C_18  and  C_29
                            x       y       z     vdW  Elec       q    Type
                         _______ _______ _______ _____ _____    ______ ____

>  <TORSDO>
F 16

$$$$
=
 OpenBabel10272413203D

 32 33  0  0  1  0  0  0  0  0999 V2000
  190.3030  176.5860  139.2090 C   0  0  0  0  0  0  0  0  0  0  0  0
  190.8620  175.5200  138.8410 O   0  0  0  0  0  0  0  0  0  0  0  0
  187.9800  177.9760  140.0940 C   0  0  0  0  0  3  0  0  0  0  0  0
  190.0510  176.8290  140.5950 N   0  0  0  0  0  2  0  0  0  0  0  0
  188.0920  177.8630  138.7640 C   0  0  0  0  0  0  0  0  0  0  0  0
  189.7240  177.7780  138.0010 S   0  0  0  0  0  0  0  0  0  0  0  0
  189.1920  177.9460  140.9850 C   0  0  2  0  0  3  0  0  0  0  0  0
  186.9330  177.7530  137.9330 N   0  0  0  0  0  2  0  0  0  0  0  0
  186.9680  176.7600  135.4810 O   0  0  0  0  0  0  0  0  0  0  0  0
  187.4410  175.2320  137.3340 O   0  0  0  0  0  0  0  0  0  0  0  0
  186.6070  176.4010  136.8940 S   0  0  0  0  0  0  0  0  0  0  0  0
  184.8830  175.9490  136.9720 C   0  0  0  0  0  2  0  0  0  0  0  0
  184.0160  177.0310  136.4130 C   0  0  0  0  0  0  0  0  0  0  0  0
  183.8830  177.1430  135.2050 O   0  0  0  0  0  0  0  0  0  0  0  0
  183.2950  177.9740  137.3250 C   0  0  0  0  0  2  0  0  0  0  0  0
  183.5820  177.6750  138.7240 N   0  0  0  0  0  2  0  0  0  0  0  0
  184.0530  178.6330  139.6770 C   0  0  0  0  0  0  0  0  0  0  0  0
  184.1640  178.2740  141.2730 S   0  0  0  0  0  0  0  0  0  0  0  0
  184.4790  179.9120  139.2250 N   0  0  0  0  0  1  0  0  0  0  0  0
  188.7660  177.7610  142.4300 C   0  0  0  0  0  2  0  0  0  0  0  0
  189.8590  178.2480  143.3890 C   0  0  0  0  0  2  0  0  0  0  0  0
  189.6020  177.8920  144.7920 N   0  0  0  0  0  0  0  0  0  0  0  0
  191.9830  175.7780  146.6960 C   0  0  0  0  0  1  0  0  0  0  0  0
  191.5860  176.9740  145.8600 C   0  0  1  0  0  3  0  0  0  0  0  0
  191.6250  176.5950  144.3960 C   0  0  0  0  0  2  0  0  0  0  0  0
  190.2960  176.6520  145.1250 C   0  0  2  0  0  3  0  0  0  0  0  0
  188.1700  177.6810  144.9770 C   0  0  0  0  0  2  0  0  0  0  0  0
  187.8100  177.8030  146.4480 C   0  0  0  0  0  2  0  0  0  0  0  0
  186.3020  177.8270  146.6230 C   0  0  0  0  0  2  0  0  0  0  0  0
  185.6210  178.2950  145.3510 C   0  0  0  0  0  2  0  0  0  0  0  0
  183.6370  179.4750  144.4690 C   0  0  0  0  0  1  0  0  0  0  0  0
  184.2280  178.7890  145.6810 C   0  0  0  0  0  2  0  0  0  0  0  0
  1  4  1  0  0  0  0
  2  1  2  0  0  0  0
  3  7  1  0  0  0  0
  4  7  1  0  0  0  0
  5  3  2  0  0  0  0
  6  5  1  0  0  0  0
  6  1  1  0  0  0  0
  7 20  1  1  0  0  0
  8  5  1  0  0  0  0
  9 11  2  0  0  0  0
 11 12  1  0  0  0  0
 11 10  2  0  0  0  0
 11  8  1  0  0  0  0
 13 12  1  0  0  0  0
 13 15  1  0  0  0  0
 14 13  2  0  0  0  0
 15 16  1  0  0  0  0
 16 17  1  0  0  0  0
 17 18  2  0  0  0  0
 19 17  1  0  0  0  0
 20 21  1  0  0  0  0
 21 22  1  0  0  0  0
 22 27  1  0  0  0  0
 24 23  1  1  0  0  0
 25 26  1  0  0  0  0
 25 24  1  0  0  0  0
 26 22  1  6  0  0  0
 26 24  1  0  0  0  0
 27 28  1  0  0  0  0
 28 29  1  0  0  0  0
 30 32  1  0  0  0  0
 30 29  1  0  0  0  0
 31 32  1  0  0  0  0
M  END
>  <MODEL>
8

>  <REMARK>
 VINA RESULT:      -6.5      4.067      7.746
  Name = 
  16 active torsions:
  status: ('A' for Active; 'I' for Inactive)
    1  A    between atoms: C_1  and  N_30
    2  A    between atoms: C_2  and  C_14
    3  A    between atoms: C_2  and  S_27
    4  A    between atoms: C_5  and  C_14
    5  A    between atoms: C_5  and  N_30
    6  A    between atoms: C_6  and  N_9
    7  A    between atoms: C_6  and  C_17
    8  A    between atoms: C_7  and  C_26
    9  A    between atoms: C_7  and  C_31
   10  A    between atoms: N_9  and  C_31
   11  A    between atoms: N_9  and  C_32
   12  A    between atoms: N_16  and  C_20
   13  A    between atoms: N_16  and  S_27
   14  A    between atoms: C_17  and  C_29
   15  A    between atoms: C_18  and  C_25
   16  A    between atoms: C_18  and  C_29
                            x       y       z     vdW  Elec       q    Type
                         _______ _______ _______ _____ _____    ______ ____

>  <TORSDO>
F 16

$$$$
=
 OpenBabel10272413203D

 32 33  0  0  1  0  0  0  0  0999 V2000
  184.9780  179.1840  139.4110 C   0  0  0  0  0  0  0  0  0  0  0  0
  184.1600  180.1260  139.2470 O   0  0  0  0  0  0  0  0  0  0  0  0
  187.6290  178.1590  139.2340 C   0  0  0  0  0  3  0  0  0  0  0  0
  185.8620  179.1810  140.5340 N   0  0  0  0  0  2  0  0  0  0  0  0
  186.9130  178.0540  138.1080 C   0  0  0  0  0  0  0  0  0  0  0  0
  185.1200  177.8750  138.1930 S   0  0  0  0  0  0  0  0  0  0  0  0
  186.9630  178.2190  140.5820 C   0  0  2  0  0  3  0  0  0  0  0  0
  187.5390  178.1370  136.8240 N   0  0  0  0  0  2  0  0  0  0  0  0
  186.8230  176.5650  134.8200 O   0  0  0  0  0  0  0  0  0  0  0  0
  189.2120  177.0060  135.1220 O   0  0  0  0  0  0  0  0  0  0  0  0
  187.9130  176.7600  135.8350 S   0  0  0  0  0  0  0  0  0  0  0  0
  188.0660  175.2900  136.8350 C   0  0  0  0  0  2  0  0  0  0  0  0
  189.1690  174.4130  136.3380 C   0  0  0  0  0  0  0  0  0  0  0  0
  188.9740  173.6660  135.3930 O   0  0  0  0  0  0  0  0  0  0  0  0
  190.5200  174.4520  136.9810 C   0  0  0  0  0  2  0  0  0  0  0  0
  190.5070  175.2850  138.1780 N   0  0  0  0  0  2  0  0  0  0  0  0
  191.5380  176.2140  138.5300 C   0  0  0  0  0  0  0  0  0  0  0  0
  192.9800  176.2320  137.7500 S   0  0  0  0  0  0  0  0  0  0  0  0
  191.2910  177.1740  139.5490 N   0  0  0  0  0  1  0  0  0  0  0  0
  187.9630  178.6620  141.6330 C   0  0  0  0  0  2  0  0  0  0  0  0
  188.6700  177.4540  142.2590 C   0  0  0  0  0  2  0  0  0  0  0  0
  188.7830  177.5400  143.7220 N   0  0  0  0  0  0  0  0  0  0  0  0
  191.6270  176.5790  145.9030 C   0  0  0  0  0  1  0  0  0  0  0  0
  190.8820  177.4900  144.9510 C   0  0  1  0  0  3  0  0  0  0  0  0
  191.1630  177.0620  143.5280 C   0  0  0  0  0  2  0  0  0  0  0  0
  189.8560  176.6680  144.1900 C   0  0  2  0  0  3  0  0  0  0  0  0
  187.5310  177.0920  144.3250 C   0  0  0  0  0  2  0  0  0  0  0  0
  187.3830  177.6820  145.7180 C   0  0  0  0  0  2  0  0  0  0  0  0
  185.9300  178.0220  145.9950 C   0  0  0  0  0  2  0  0  0  0  0  0
  185.2420  178.5110  144.7350 C   0  0  0  0  0  2  0  0  0  0  0  0
  183.0350  179.0580  143.7660 C   0  0  0  0  0  1  0  0  0  0  0  0
  183.8060  178.8700  145.0540 C   0  0  0  0  0  2  0  0  0  0  0  0
  1  4  1  0  0  0  0
  2  1  2  0  0  0  0
  3  7  1  0  0  0  0
  4  7  1  0  0  0  0
  5  6  1  0  0  0  0
  5  3  2  0  0  0  0
  6  1  1  0  0  0  0
  7 20  1  1  0  0  0
  8  5  1  0  0  0  0
  9 11  2  0  0  0  0
 10 11  2  0  0  0  0
 11  8  1  0  0  0  0
 11 12  1  0  0  0  0
 13 12  1  0  0  0  0
 13 15  1  0  0  0  0
 14 13  2  0  0  0  0
 15 16  1  0  0  0  0
 16 17  1  0  0  0  0
 17 19  1  0  0  0  0
 18 17  2  0  0  0  0
 20 21  1  0  0  0  0
 21 22  1  0  0  0  0
 22 27  1  0  0  0  0
 24 23  1  1  0  0  0
 25 26  1  0  0  0  0
 25 24  1  0  0  0  0
 26 22  1  6  0  0  0
 26 24  1  0  0  0  0
 27 28  1  0  0  0  0
 28 29  1  0  0  0  0
 30 32  1  0  0  0  0
 30 29  1  0  0  0  0
 31 32  1  0  0  0  0
M  END
>  <MODEL>
9

>  <REMARK>
 VINA RESULT:      -6.5      3.467      5.397
  Name = 
  16 active torsions:
  status: ('A' for Active; 'I' for Inactive)
    1  A    between atoms: C_1  and  N_30
    2  A    between atoms: C_2  and  C_14
    3  A    between atoms: C_2  and  S_27
    4  A    between atoms: C_5  and  C_14
    5  A    between atoms: C_5  and  N_30
    6  A    between atoms: C_6  and  N_9
    7  A    between atoms: C_6  and  C_17
    8  A    between atoms: C_7  and  C_26
    9  A    between atoms: C_7  and  C_31
   10  A    between atoms: N_9  and  C_31
   11  A    between atoms: N_9  and  C_32
   12  A    between atoms: N_16  and  C_20
   13  A    between atoms: N_16  and  S_27
   14  A    between atoms: C_17  and  C_29
   15  A    between atoms: C_18  and  C_25
   16  A    between atoms: C_18  and  C_29
                            x       y       z     vdW  Elec       q    Type
                         _______ _______ _______ _____ _____    ______ ____

>  <TORSDO>
F 16

$$$$
