=
 OpenBabel10272413193D

 32 34  0  0  1  0  0  0  0  0999 V2000
  186.0430  178.6350  141.9070 C   0  0  0  0  0  2  0  0  0  0  0  0
  186.1770  178.2820  143.3890 C   0  0  2  0  0  3  0  0  0  0  0  0
  187.2510  177.2270  143.6720 C   0  0  2  0  0  3  0  0  0  0  0  0
  188.0070  177.5170  144.9870 C   0  0  0  0  0  2  0  0  0  0  0  0
  191.1390  177.2040  141.2190 C   0  0  0  0  0  2  0  0  0  0  0  0
  188.1400  176.9240  142.4470 C   0  0  0  0  0  2  0  0  0  0  0  0
  191.5140  178.0950  143.5190 C   0  0  0  0  0  2  0  0  0  0  0  0
  190.1630  177.4900  143.7860 C   0  0  0  0  0  0  0  0  0  0  0  0
  189.4090  178.0160  144.7570 C   0  0  0  0  0  3  0  0  0  0  0  0
  189.5300  176.4540  142.8690 C   0  0  2  0  0  3  0  0  0  0  0  0
  192.1830  177.5400  142.2680 C   0  0  0  0  0  2  0  0  0  0  0  0
  190.3390  176.0830  141.7020 N   0  0  0  0  0  2  0  0  0  0  0  0
  184.9430  177.8850  143.9160 O   0  0  0  0  0  0  0  0  0  0  0  0
  184.6070  178.8730  144.8430 C   0  0  1  0  0  3  0  0  0  0  0  0
  183.1280  179.1970  144.7140 C   0  0  0  0  0  1  0  0  0  0  0  0
  185.6580  179.1050  147.0520 C   0  0  0  0  0  2  0  0  0  0  0  0
  184.9060  178.3860  146.2230 C   0  0  0  0  0  3  0  0  0  0  0  0
  184.8900  179.4070  141.6790 O   0  0  0  0  0  0  0  0  0  0  0  0
  184.0320  178.6970  140.8140 C   0  0  1  0  0  3  0  0  0  0  0  0
  182.7340  178.5970  141.3350 O   0  0  0  0  0  1  0  0  0  0  0  0
  184.0480  179.2250  139.3990 C   0  0  0  0  0  0  0  0  0  0  0  0
  184.4290  180.3640  139.1740 O   0  0  0  0  0  0  0  0  0  0  0  0
  184.0490  176.8870  138.5270 C   0  0  2  0  0  3  0  0  0  0  0  0
  183.6560  178.3290  138.2510 C   0  0  2  0  0  3  0  0  0  0  0  0
  184.8130  177.6710  137.4800 C   0  0  1  0  0  3  0  0  0  0  0  0
  182.1860  175.4280  138.7870 O   0  0  0  0  0  1  0  0  0  0  0  0
  183.8200  174.8200  137.1770 C   0  0  0  0  0  1  0  0  0  0  0  0
  183.0670  175.9540  137.8440 C   0  0  2  0  0  3  0  0  0  0  0  0
  186.2120  177.9640  138.0060 C   0  0  0  0  0  2  0  0  0  0  0  0
  187.0600  178.4950  136.9050 C   0  0  0  0  0  0  0  0  0  0  0  0
  188.1430  179.3150  137.1960 O   0  0  0  0  0  1  0  0  0  0  0  0
  186.8150  178.1790  135.7110 O   0  0  0  0  0  0  0  0  0  0  0  0
  2  1  1  6  0  0  0
  2 13  1  0  0  0  0
  3  2  1  6  0  0  0
  3  4  1  0  0  0  0
  5 12  1  0  0  0  0
  5 11  1  0  0  0  0
  6  3  1  0  0  0  0
  7  8  1  0  0  0  0
  8  9  2  0  0  0  0
  9  4  1  0  0  0  0
 10  6  1  6  0  0  0
 10  8  1  0  0  0  0
 11  7  1  0  0  0  0
 12 10  1  0  0  0  0
 13 14  1  0  0  0  0
 14 15  1  1  0  0  0
 14 17  1  0  0  0  0
 17 16  2  0  0  0  0
 18  1  1  0  0  0  0
 19 20  1  1  0  0  0
 19 18  1  0  0  0  0
 21 19  1  0  0  0  0
 22 21  2  0  0  0  0
 23 28  1  6  0  0  0
 24 23  1  0  0  0  0
 24 21  1  1  0  0  0
 25 29  1  1  0  0  0
 25 24  1  0  0  0  0
 25 23  1  0  0  0  0
 28 27  1  1  0  0  0
 28 26  1  0  0  0  0
 30 31  1  0  0  0  0
 30 29  1  0  0  0  0
 32 30  2  0  0  0  0
M  END
>  <MODEL>
1

>  <REMARK>
 VINA RESULT:      -7.3      0.000      0.000
  Name = 
  12 active torsions:
  status: ('A' for Active; 'I' for Inactive)
    1  A    between atoms: C_1  and  C_5
    2  A    between atoms: C_1  and  O_30
    3  A    between atoms: C_2  and  C_5
    4  A    between atoms: C_3  and  C_8
    5  A    between atoms: C_3  and  C_20
    6  A    between atoms: C_4  and  C_24
    7  A    between atoms: C_4  and  O_30
    8  A    between atoms: C_5  and  O_14
    9  A    between atoms: C_13  and  O_14
   10  A    between atoms: C_13  and  C_29
   11  A    between atoms: C_15  and  C_26
   12  A    between atoms: C_16  and  C_24
                            x       y       z     vdW  Elec       q    Type
                         _______ _______ _______ _____ _____    ______ ____

>  <TORSDO>
F 12

$$$$
=
 OpenBabel10272413193D

 32 34  0  0  1  0  0  0  0  0999 V2000
  186.7400  178.8630  141.1950 C   0  0  0  0  0  2  0  0  0  0  0  0
  187.0690  178.1970  139.8580 C   0  0  2  0  0  3  0  0  0  0  0  0
  188.5690  178.1500  139.5510 C   0  0  2  0  0  3  0  0  0  0  0  0
  188.9500  179.1130  138.4040 C   0  0  0  0  0  2  0  0  0  0  0  0
  190.3410  174.5230  137.3510 C   0  0  0  0  0  2  0  0  0  0  0  0
  189.1160  176.7120  139.4210 C   0  0  0  0  0  2  0  0  0  0  0  0
  190.1720  176.5100  135.8510 C   0  0  0  0  0  2  0  0  0  0  0  0
  189.9690  177.2520  137.1430 C   0  0  0  0  0  0  0  0  0  0  0  0
  189.2740  178.3940  137.1210 C   0  0  0  0  0  3  0  0  0  0  0  0
  190.3300  176.6590  138.4970 C   0  0  2  0  0  3  0  0  0  0  0  0
  190.8010  175.1350  136.0410 C   0  0  0  0  0  2  0  0  0  0  0  0
  190.8980  175.3060  138.4490 N   0  0  0  0  0  2  0  0  0  0  0  0
  186.3700  178.8130  138.8140 O   0  0  0  0  0  0  0  0  0  0  0  0
  185.4970  177.8360  138.3320 C   0  0  1  0  0  3  0  0  0  0  0  0
  184.0730  178.3610  138.3980 C   0  0  0  0  0  1  0  0  0  0  0  0
  185.8460  176.2380  136.4990 C   0  0  0  0  0  2  0  0  0  0  0  0
  185.8540  177.4990  136.9210 C   0  0  0  0  0  3  0  0  0  0  0  0
  186.0480  177.9760  142.0380 O   0  0  0  0  0  0  0  0  0  0  0  0
  186.6550  177.9930  143.3110 C   0  0  1  0  0  3  0  0  0  0  0  0
  185.7520  177.6380  144.3230 O   0  0  0  0  0  1  0  0  0  0  0  0
  187.9330  177.1920  143.3700 C   0  0  0  0  0  0  0  0  0  0  0  0
  187.9070  175.9820  143.1980 O   0  0  0  0  0  0  0  0  0  0  0  0
  190.3000  176.9210  144.1100 C   0  0  2  0  0  3  0  0  0  0  0  0
  189.2560  177.8860  143.5750 C   0  0  2  0  0  3  0  0  0  0  0  0
  189.7480  177.9910  145.0290 C   0  0  1  0  0  3  0  0  0  0  0  0
  191.9820  178.6070  144.1050 O   0  0  0  0  0  1  0  0  0  0  0  0
  191.6880  177.3650  142.1040 C   0  0  0  0  0  1  0  0  0  0  0  0
  191.6740  177.3370  143.6190 C   0  0  2  0  0  3  0  0  0  0  0  0
  188.8630  177.3310  146.0780 C   0  0  0  0  0  2  0  0  0  0  0  0
  189.5400  177.3730  147.4020 C   0  0  0  0  0  0  0  0  0  0  0  0
  188.9530  178.0570  148.4600 O   0  0  0  0  0  1  0  0  0  0  0  0
  190.6280  176.7660  147.5740 O   0  0  0  0  0  0  0  0  0  0  0  0
  1 18  1  0  0  0  0
  2  1  1  1  0  0  0
  3  2  1  6  0  0  0
  4  3  1  0  0  0  0
  5 12  1  0  0  0  0
  6  3  1  0  0  0  0
  7 11  1  0  0  0  0
  7  8  1  0  0  0  0
  8 10  1  0  0  0  0
  9  8  2  0  0  0  0
  9  4  1  0  0  0  0
 10  6  1  1  0  0  0
 11  5  1  0  0  0  0
 12 10  1  0  0  0  0
 13  2  1  0  0  0  0
 14 15  1  6  0  0  0
 14 13  1  0  0  0  0
 16 17  2  0  0  0  0
 17 14  1  0  0  0  0
 18 19  1  0  0  0  0
 19 21  1  0  0  0  0
 19 20  1  1  0  0  0
 22 21  2  0  0  0  0
 23 28  1  6  0  0  0
 23 25  1  0  0  0  0
 24 21  1  1  0  0  0
 24 23  1  0  0  0  0
 24 25  1  0  0  0  0
 25 29  1  1  0  0  0
 28 27  1  6  0  0  0
 28 26  1  0  0  0  0
 29 30  1  0  0  0  0
 30 32  2  0  0  0  0
 30 31  1  0  0  0  0
M  END
>  <MODEL>
2

>  <REMARK>
 VINA RESULT:      -7.3      3.071      7.547
  Name = 
  12 active torsions:
  status: ('A' for Active; 'I' for Inactive)
    1  A    between atoms: C_1  and  C_5
    2  A    between atoms: C_1  and  O_30
    3  A    between atoms: C_2  and  C_5
    4  A    between atoms: C_3  and  C_8
    5  A    between atoms: C_3  and  C_20
    6  A    between atoms: C_4  and  C_24
    7  A    between atoms: C_4  and  O_30
    8  A    between atoms: C_5  and  O_14
    9  A    between atoms: C_13  and  O_14
   10  A    between atoms: C_13  and  C_29
   11  A    between atoms: C_15  and  C_26
   12  A    between atoms: C_16  and  C_24
                            x       y       z     vdW  Elec       q    Type
                         _______ _______ _______ _____ _____    ______ ____

>  <TORSDO>
F 12

$$$$
=
 OpenBabel10272413193D

 32 34  0  0  1  0  0  0  0  0999 V2000
  188.5010  178.4680  140.1650 C   0  0  0  0  0  2  0  0  0  0  0  0
  188.2230  177.9850  138.7410 C   0  0  2  0  0  3  0  0  0  0  0  0
  189.4660  177.9760  137.8450 C   0  0  2  0  0  3  0  0  0  0  0  0
  189.0940  178.0760  136.3490 C   0  0  0  0  0  2  0  0  0  0  0  0
  191.7930  174.0640  137.2010 C   0  0  0  0  0  2  0  0  0  0  0  0
  190.4660  176.8570  138.2070 C   0  0  0  0  0  2  0  0  0  0  0  0
  190.4400  174.6650  135.1920 C   0  0  0  0  0  2  0  0  0  0  0  0
  190.3460  176.0040  135.8700 C   0  0  0  0  0  0  0  0  0  0  0  0
  189.2870  176.7780  135.6100 C   0  0  0  0  0  3  0  0  0  0  0  0
  191.2830  176.4250  136.9930 C   0  0  2  0  0  3  0  0  0  0  0  0
  191.5800  173.8030  135.7210 C   0  0  0  0  0  2  0  0  0  0  0  0
  192.2930  175.4250  137.3650 N   0  0  0  0  0  2  0  0  0  0  0  0
  187.1970  178.7360  138.1560 O   0  0  0  0  0  0  0  0  0  0  0  0
  186.0440  177.9670  138.3190 C   0  0  1  0  0  3  0  0  0  0  0  0
  184.9460  178.8330  138.9150 C   0  0  0  0  0  1  0  0  0  0  0  0
  185.7480  176.1400  136.7040 C   0  0  0  0  0  2  0  0  0  0  0  0
  185.6090  177.4300  136.9940 C   0  0  0  0  0  3  0  0  0  0  0  0
  188.2960  177.4320  141.0930 O   0  0  0  0  0  0  0  0  0  0  0  0
  187.7610  177.9810  142.2760 C   0  0  1  0  0  3  0  0  0  0  0  0
  186.3780  178.1920  142.1740 O   0  0  0  0  0  1  0  0  0  0  0  0
  188.1360  177.2020  143.5140 C   0  0  0  0  0  0  0  0  0  0  0  0
  188.0570  175.9820  143.5180 O   0  0  0  0  0  0  0  0  0  0  0  0
  188.5270  177.0600  145.9740 C   0  0  2  0  0  3  0  0  0  0  0  0
  188.6720  177.9170  144.7280 C   0  0  2  0  0  3  0  0  0  0  0  0
  187.6420  178.2790  145.8120 C   0  0  1  0  0  3  0  0  0  0  0  0
  190.3200  176.2020  147.2850 O   0  0  0  0  0  1  0  0  0  0  0  0
  189.0830  178.0120  148.1950 C   0  0  0  0  0  1  0  0  0  0  0  0
  189.6520  177.3760  146.9420 C   0  0  2  0  0  3  0  0  0  0  0  0
  186.2140  177.8200  145.5490 C   0  0  0  0  0  2  0  0  0  0  0  0
  185.2610  178.7360  146.2310 C   0  0  0  0  0  0  0  0  0  0  0  0
  183.9240  178.7550  145.8510 O   0  0  0  0  0  0  0  0  0  0  0  0
  185.6560  179.4730  147.1710 O   0  0  0  0  0  1  0  0  0  0  0  0
  1 18  1  0  0  0  0
  2  1  1  1  0  0  0
  3  6  1  0  0  0  0
  3  2  1  1  0  0  0
  4  3  1  0  0  0  0
  5 12  1  0  0  0  0
  7 11  1  0  0  0  0
  7  8  1  0  0  0  0
  8 10  1  0  0  0  0
  9  8  2  0  0  0  0
  9  4  1  0  0  0  0
 10 12  1  0  0  0  0
 10  6  1  1  0  0  0
 11  5  1  0  0  0  0
 13 14  1  0  0  0  0
 13  2  1  0  0  0  0
 14 15  1  6  0  0  0
 16 17  2  0  0  0  0
 17 14  1  0  0  0  0
 18 19  1  0  0  0  0
 19 20  1  6  0  0  0
 19 21  1  0  0  0  0
 21 22  2  0  0  0  0
 23 28  1  1  0  0  0
 24 21  1  6  0  0  0
 24 25  1  0  0  0  0
 24 23  1  0  0  0  0
 25 29  1  6  0  0  0
 25 23  1  0  0  0  0
 28 26  1  0  0  0  0
 28 27  1  1  0  0  0
 29 30  1  0  0  0  0
 30 32  1  0  0  0  0
 31 30  2  0  0  0  0
M  END
>  <MODEL>
3

>  <REMARK>
 VINA RESULT:      -7.3      3.207      7.968
  Name = 
  12 active torsions:
  status: ('A' for Active; 'I' for Inactive)
    1  A    between atoms: C_1  and  C_5
    2  A    between atoms: C_1  and  O_30
    3  A    between atoms: C_2  and  C_5
    4  A    between atoms: C_3  and  C_8
    5  A    between atoms: C_3  and  C_20
    6  A    between atoms: C_4  and  C_24
    7  A    between atoms: C_4  and  O_30
    8  A    between atoms: C_5  and  O_14
    9  A    between atoms: C_13  and  O_14
   10  A    between atoms: C_13  and  C_29
   11  A    between atoms: C_15  and  C_26
   12  A    between atoms: C_16  and  C_24
                            x       y       z     vdW  Elec       q    Type
                         _______ _______ _______ _____ _____    ______ ____

>  <TORSDO>
F 12

$$$$
=
 OpenBabel10272413193D

 32 34  0  0  1  0  0  0  0  0999 V2000
  186.7190  178.7870  140.8110 C   0  0  0  0  0  2  0  0  0  0  0  0
  187.1060  178.1170  139.4920 C   0  0  2  0  0  3  0  0  0  0  0  0
  188.6120  178.1360  139.2150 C   0  0  2  0  0  3  0  0  0  0  0  0
  188.9600  179.0230  137.9990 C   0  0  0  0  0  2  0  0  0  0  0  0
  190.6420  174.4570  137.3520 C   0  0  0  0  0  2  0  0  0  0  0  0
  189.2460  176.7290  139.2130 C   0  0  0  0  0  2  0  0  0  0  0  0
  190.3880  176.3010  135.6900 C   0  0  0  0  0  2  0  0  0  0  0  0
  190.1140  177.1310  136.9130 C   0  0  0  0  0  0  0  0  0  0  0  0
  189.3530  178.2230  136.7850 C   0  0  0  0  0  3  0  0  0  0  0  0
  190.4810  176.6740  138.3180 C   0  0  2  0  0  3  0  0  0  0  0  0
  191.0930  174.9860  136.0030 C   0  0  0  0  0  2  0  0  0  0  0  0
  191.1280  175.3580  138.3910 N   0  0  0  0  0  2  0  0  0  0  0  0
  186.3990  178.6820  138.4250 O   0  0  0  0  0  0  0  0  0  0  0  0
  185.3930  177.7630  138.1250 C   0  0  1  0  0  3  0  0  0  0  0  0
  184.0380  178.4260  138.3050 C   0  0  0  0  0  1  0  0  0  0  0  0
  186.3440  176.2690  136.4210 C   0  0  0  0  0  2  0  0  0  0  0  0
  185.5500  177.2940  136.7140 C   0  0  0  0  0  3  0  0  0  0  0  0
  187.6440  178.4730  141.8220 O   0  0  0  0  0  0  0  0  0  0  0  0
  186.9390  178.0410  142.9650 C   0  0  1  0  0  3  0  0  0  0  0  0
  185.5860  177.8040  142.6840 O   0  0  0  0  0  1  0  0  0  0  0  0
  187.5980  176.8740  143.6610 C   0  0  0  0  0  0  0  0  0  0  0  0
  188.1360  175.9940  143.0070 O   0  0  0  0  0  0  0  0  0  0  0  0
  187.5080  178.2100  145.7660 C   0  0  2  0  0  3  0  0  0  0  0  0
  187.6510  176.8210  145.1670 C   0  0  2  0  0  3  0  0  0  0  0  0
  188.8530  177.5170  145.8280 C   0  0  1  0  0  3  0  0  0  0  0  0
  185.9000  179.1460  147.2520 O   0  0  0  0  0  1  0  0  0  0  0  0
  187.8600  178.2220  148.2200 C   0  0  0  0  0  1  0  0  0  0  0  0
  186.8260  178.1130  147.1180 C   0  0  2  0  0  3  0  0  0  0  0  0
  189.8140  178.2210  144.8790 C   0  0  0  0  0  2  0  0  0  0  0  0
  191.1690  177.6170  145.0000 C   0  0  0  0  0  0  0  0  0  0  0  0
  191.9570  177.4470  143.8680 O   0  0  0  0  0  0  0  0  0  0  0  0
  191.6140  177.2880  146.1300 O   0  0  0  0  0  1  0  0  0  0  0  0
  1 18  1  0  0  0  0
  2  1  1  1  0  0  0
  3  2  1  6  0  0  0
  4  3  1  0  0  0  0
  5 12  1  0  0  0  0
  6  3  1  0  0  0  0
  7 11  1  0  0  0  0
  7  8  1  0  0  0  0
  8 10  1  0  0  0  0
  9  8  2  0  0  0  0
  9  4  1  0  0  0  0
 10 12  1  0  0  0  0
 10  6  1  1  0  0  0
 11  5  1  0  0  0  0
 13  2  1  0  0  0  0
 14 15  1  6  0  0  0
 14 13  1  0  0  0  0
 16 17  2  0  0  0  0
 17 14  1  0  0  0  0
 18 19  1  0  0  0  0
 19 20  1  6  0  0  0
 19 21  1  0  0  0  0
 22 21  2  0  0  0  0
 23 25  1  0  0  0  0
 23 28  1  1  0  0  0
 24 21  1  6  0  0  0
 24 23  1  0  0  0  0
 24 25  1  0  0  0  0
 25 29  1  6  0  0  0
 28 26  1  0  0  0  0
 28 27  1  1  0  0  0
 29 30  1  0  0  0  0
 30 32  1  0  0  0  0
 31 30  2  0  0  0  0
M  END
>  <MODEL>
4

>  <REMARK>
 VINA RESULT:      -7.3      3.057      7.389
  Name = 
  12 active torsions:
  status: ('A' for Active; 'I' for Inactive)
    1  A    between atoms: C_1  and  C_5
    2  A    between atoms: C_1  and  O_30
    3  A    between atoms: C_2  and  C_5
    4  A    between atoms: C_3  and  C_8
    5  A    between atoms: C_3  and  C_20
    6  A    between atoms: C_4  and  C_24
    7  A    between atoms: C_4  and  O_30
    8  A    between atoms: C_5  and  O_14
    9  A    between atoms: C_13  and  O_14
   10  A    between atoms: C_13  and  C_29
   11  A    between atoms: C_15  and  C_26
   12  A    between atoms: C_16  and  C_24
                            x       y       z     vdW  Elec       q    Type
                         _______ _______ _______ _____ _____    ______ ____

>  <TORSDO>
F 12

$$$$
=
 OpenBabel10272413193D

 32 34  0  0  1  0  0  0  0  0999 V2000
  185.5650  179.0420  141.7290 C   0  0  0  0  0  2  0  0  0  0  0  0
  184.1020  178.6000  141.7610 C   0  0  2  0  0  3  0  0  0  0  0  0
  183.4550  178.5240  140.3740 C   0  0  2  0  0  3  0  0  0  0  0  0
  182.2400  177.5700  140.3600 C   0  0  0  0  0  2  0  0  0  0  0  0
  185.5490  176.2140  136.9960 C   0  0  0  0  0  2  0  0  0  0  0  0
  184.4790  178.3130  139.2390 C   0  0  0  0  0  2  0  0  0  0  0  0
  183.5950  174.9490  137.8950 C   0  0  0  0  0  2  0  0  0  0  0  0
  183.2450  176.2730  138.5170 C   0  0  0  0  0  0  0  0  0  0  0  0
  182.5200  176.2770  139.6410 C   0  0  0  0  0  3  0  0  0  0  0  0
  183.8530  177.5870  138.0500 C   0  0  2  0  0  3  0  0  0  0  0  0
  184.5840  175.0710  136.7410 C   0  0  0  0  0  2  0  0  0  0  0  0
  184.8070  177.4700  136.9410 N   0  0  0  0  0  2  0  0  0  0  0  0
  183.3550  179.4230  142.6100 O   0  0  0  0  0  0  0  0  0  0  0  0
  182.9710  178.6020  143.6710 C   0  0  1  0  0  3  0  0  0  0  0  0
  183.7550  178.9900  144.9140 C   0  0  0  0  0  1  0  0  0  0  0  0
  180.7490  179.4810  143.1000 C   0  0  0  0  0  2  0  0  0  0  0  0
  181.5060  178.7590  143.9200 C   0  0  0  0  0  3  0  0  0  0  0  0
  186.3300  178.3070  142.6510 O   0  0  0  0  0  0  0  0  0  0  0  0
  187.4920  177.8370  142.0060 C   0  0  1  0  0  3  0  0  0  0  0  0
  188.1750  178.8680  141.3450 O   0  0  0  0  0  1  0  0  0  0  0  0
  188.3940  177.0370  142.9160 C   0  0  0  0  0  0  0  0  0  0  0  0
  188.2780  175.8230  142.9810 O   0  0  0  0  0  0  0  0  0  0  0  0
  190.0620  176.7980  144.7550 C   0  0  2  0  0  3  0  0  0  0  0  0
  189.4840  177.7250  143.6990 C   0  0  2  0  0  3  0  0  0  0  0  0
  189.1990  177.9640  145.1910 C   0  0  1  0  0  3  0  0  0  0  0  0
  191.7880  177.1770  146.3520 O   0  0  0  0  0  1  0  0  0  0  0  0
  191.8340  178.4910  144.3760 C   0  0  0  0  0  1  0  0  0  0  0  0
  191.5230  177.1380  144.9830 C   0  0  2  0  0  3  0  0  0  0  0  0
  187.8700  177.4280  145.7070 C   0  0  0  0  0  2  0  0  0  0  0  0
  187.7490  177.7070  147.1640 C   0  0  0  0  0  0  0  0  0  0  0  0
  186.7700  178.5780  147.6250 O   0  0  0  0  0  0  0  0  0  0  0  0
  188.5130  177.1310  147.9820 O   0  0  0  0  0  1  0  0  0  0  0  0
  1 18  1  0  0  0  0
  2  1  1  6  0  0  0
  2 13  1  0  0  0  0
  3  2  1  1  0  0  0
  4  3  1  0  0  0  0
  6  3  1  0  0  0  0
  7  8  1  0  0  0  0
  8  9  2  0  0  0  0
  9  4  1  0  0  0  0
 10  8  1  0  0  0  0
 10  6  1  1  0  0  0
 11  5  1  0  0  0  0
 11  7  1  0  0  0  0
 12  5  1  0  0  0  0
 12 10  1  0  0  0  0
 13 14  1  0  0  0  0
 14 17  1  0  0  0  0
 14 15  1  1  0  0  0
 16 17  2  0  0  0  0
 19 20  1  1  0  0  0
 19 18  1  0  0  0  0
 19 21  1  0  0  0  0
 21 22  2  0  0  0  0
 23 28  1  1  0  0  0
 23 25  1  0  0  0  0
 24 21  1  6  0  0  0
 24 23  1  0  0  0  0
 24 25  1  0  0  0  0
 25 29  1  6  0  0  0
 28 27  1  1  0  0  0
 28 26  1  0  0  0  0
 29 30  1  0  0  0  0
 30 31  2  0  0  0  0
 30 32  1  0  0  0  0
M  END
>  <MODEL>
5

>  <REMARK>
 VINA RESULT:      -7.2      2.702      7.684
  Name = 
  12 active torsions:
  status: ('A' for Active; 'I' for Inactive)
    1  A    between atoms: C_1  and  C_5
    2  A    between atoms: C_1  and  O_30
    3  A    between atoms: C_2  and  C_5
    4  A    between atoms: C_3  and  C_8
    5  A    between atoms: C_3  and  C_20
    6  A    between atoms: C_4  and  C_24
    7  A    between atoms: C_4  and  O_30
    8  A    between atoms: C_5  and  O_14
    9  A    between atoms: C_13  and  O_14
   10  A    between atoms: C_13  and  C_29
   11  A    between atoms: C_15  and  C_26
   12  A    between atoms: C_16  and  C_24
                            x       y       z     vdW  Elec       q    Type
                         _______ _______ _______ _____ _____    ______ ____

>  <TORSDO>
F 12

$$$$
=
 OpenBabel10272413193D

 32 34  0  0  1  0  0  0  0  0999 V2000
  188.9180  177.4260  140.1150 C   0  0  0  0  0  2  0  0  0  0  0  0
  189.9990  177.3850  139.0340 C   0  0  2  0  0  3  0  0  0  0  0  0
  189.4400  177.2530  137.6130 C   0  0  2  0  0  3  0  0  0  0  0  0
  188.8120  178.5740  137.1190 C   0  0  0  0  0  2  0  0  0  0  0  0
  185.5490  174.9120  136.8960 C   0  0  0  0  0  2  0  0  0  0  0  0
  188.5720  175.9910  137.4190 C   0  0  0  0  0  2  0  0  0  0  0  0
  185.1790  177.3750  136.7320 C   0  0  0  0  0  2  0  0  0  0  0  0
  186.6800  177.4200  136.6550 C   0  0  0  0  0  0  0  0  0  0  0  0
  187.3070  178.5250  137.0730 C   0  0  0  0  0  3  0  0  0  0  0  0
  187.5240  176.1970  136.3290 C   0  0  2  0  0  3  0  0  0  0  0  0
  184.6030  175.9990  136.4180 C   0  0  0  0  0  2  0  0  0  0  0  0
  186.7630  174.9650  136.0880 N   0  0  0  0  0  2  0  0  0  0  0  0
  190.9240  176.3690  139.2970 O   0  0  0  0  0  0  0  0  0  0  0  0
  192.1220  176.8100  138.7340 C   0  0  1  0  0  3  0  0  0  0  0  0
  193.0450  177.2990  139.8380 C   0  0  0  0  0  1  0  0  0  0  0  0
  192.0600  174.6260  137.6110 C   0  0  0  0  0  2  0  0  0  0  0  0
  192.7660  175.6880  137.9870 C   0  0  0  0  0  3  0  0  0  0  0  0
  189.4870  177.3170  141.3950 O   0  0  0  0  0  0  0  0  0  0  0  0
  188.6550  177.9810  142.3200 C   0  0  1  0  0  3  0  0  0  0  0  0
  187.4660  178.4260  141.7260 O   0  0  0  0  0  1  0  0  0  0  0  0
  188.4080  177.1800  143.5770 C   0  0  0  0  0  0  0  0  0  0  0  0
  187.9450  176.0520  143.5030 O   0  0  0  0  0  0  0  0  0  0  0  0
  188.2270  176.8910  146.0480 C   0  0  2  0  0  3  0  0  0  0  0  0
  188.7930  177.7410  144.9220 C   0  0  2  0  0  3  0  0  0  0  0  0
  187.6390  178.2640  145.7940 C   0  0  1  0  0  3  0  0  0  0  0  0
  188.9460  178.1450  147.9410 O   0  0  0  0  0  1  0  0  0  0  0  0
  190.5960  176.8930  146.7810 C   0  0  0  0  0  1  0  0  0  0  0  0
  189.1550  176.9540  147.2470 C   0  0  2  0  0  3  0  0  0  0  0  0
  186.2410  178.1010  145.2110 C   0  0  0  0  0  2  0  0  0  0  0  0
  185.2570  178.8270  146.0590 C   0  0  0  0  0  0  0  0  0  0  0  0
  185.6730  179.4420  147.2330 O   0  0  0  0  0  1  0  0  0  0  0  0
  184.0540  178.9090  145.6990 O   0  0  0  0  0  0  0  0  0  0  0  0
  1 18  1  0  0  0  0
  2 13  1  0  0  0  0
  2  1  1  1  0  0  0
  3  2  1  1  0  0  0
  4  3  1  0  0  0  0
  6  3  1  0  0  0  0
  8  7  1  0  0  0  0
  8  9  2  0  0  0  0
  9  4  1  0  0  0  0
 10  8  1  0  0  0  0
 10  6  1  1  0  0  0
 11  7  1  0  0  0  0
 11  5  1  0  0  0  0
 12 10  1  0  0  0  0
 12  5  1  0  0  0  0
 14 13  1  0  0  0  0
 14 15  1  1  0  0  0
 16 17  2  0  0  0  0
 17 14  1  0  0  0  0
 18 19  1  0  0  0  0
 19 20  1  6  0  0  0
 19 21  1  0  0  0  0
 22 21  2  0  0  0  0
 23 28  1  1  0  0  0
 24 21  1  6  0  0  0
 24 25  1  0  0  0  0
 24 23  1  0  0  0  0
 25 29  1  6  0  0  0
 25 23  1  0  0  0  0
 28 27  1  6  0  0  0
 28 26  1  0  0  0  0
 29 30  1  0  0  0  0
 30 31  1  0  0  0  0
 32 30  2  0  0  0  0
M  END
>  <MODEL>
6

>  <REMARK>
 VINA RESULT:      -7.2      3.071      8.568
  Name = 
  12 active torsions:
  status: ('A' for Active; 'I' for Inactive)
    1  A    between atoms: C_1  and  C_5
    2  A    between atoms: C_1  and  O_30
    3  A    between atoms: C_2  and  C_5
    4  A    between atoms: C_3  and  C_8
    5  A    between atoms: C_3  and  C_20
    6  A    between atoms: C_4  and  C_24
    7  A    between atoms: C_4  and  O_30
    8  A    between atoms: C_5  and  O_14
    9  A    between atoms: C_13  and  O_14
   10  A    between atoms: C_13  and  C_29
   11  A    between atoms: C_15  and  C_26
   12  A    between atoms: C_16  and  C_24
                            x       y       z     vdW  Elec       q    Type
                         _______ _______ _______ _____ _____    ______ ____

>  <TORSDO>
F 12

$$$$
=
 OpenBabel10272413193D

 32 34  0  0  1  0  0  0  0  0999 V2000
  189.5950  177.6360  141.8970 C   0  0  0  0  0  2  0  0  0  0  0  0
  188.3890  177.8610  140.9830 C   0  0  2  0  0  3  0  0  0  0  0  0
  188.7680  178.1080  139.5190 C   0  0  2  0  0  3  0  0  0  0  0  0
  187.5760  177.8620  138.5690 C   0  0  0  0  0  2  0  0  0  0  0  0
  191.4120  175.0740  137.2970 C   0  0  0  0  0  2  0  0  0  0  0  0
  190.0930  177.4280  139.1130 C   0  0  0  0  0  2  0  0  0  0  0  0
  189.0290  174.9120  136.5750 C   0  0  0  0  0  2  0  0  0  0  0  0
  188.9090  176.2400  137.2710 C   0  0  0  0  0  0  0  0  0  0  0  0
  187.7190  176.5940  137.7680 C   0  0  0  0  0  3  0  0  0  0  0  0
  190.1160  177.0960  137.6240 C   0  0  2  0  0  3  0  0  0  0  0  0
  190.4680  174.5410  136.2360 C   0  0  0  0  0  2  0  0  0  0  0  0
  191.4130  176.5320  137.2280 N   0  0  0  0  0  2  0  0  0  0  0  0
  187.5880  178.9000  141.4680 O   0  0  0  0  0  0  0  0  0  0  0  0
  186.3800  178.2960  141.8200 C   0  0  1  0  0  3  0  0  0  0  0  0
  186.3370  178.1020  143.3270 C   0  0  0  0  0  1  0  0  0  0  0  0
  184.3510  178.7220  140.5000 C   0  0  0  0  0  2  0  0  0  0  0  0
  185.2420  179.1620  141.3840 C   0  0  0  0  0  3  0  0  0  0  0  0
  189.3830  176.5340  142.7430 O   0  0  0  0  0  0  0  0  0  0  0  0
  190.3050  176.5940  143.8080 C   0  0  1  0  0  3  0  0  0  0  0  0
  191.6110  176.8270  143.3540 O   0  0  0  0  0  1  0  0  0  0  0  0
  189.8910  177.5570  144.8960 C   0  0  0  0  0  0  0  0  0  0  0  0
  190.1280  178.7500  144.7810 O   0  0  0  0  0  0  0  0  0  0  0  0
  189.1960  178.0620  147.2380 C   0  0  2  0  0  3  0  0  0  0  0  0
  189.1270  177.0600  146.0970 C   0  0  2  0  0  3  0  0  0  0  0  0
  189.9610  176.7600  147.3540 C   0  0  1  0  0  3  0  0  0  0  0  0
  187.7970  176.6960  148.5960 O   0  0  0  0  0  1  0  0  0  0  0  0
  186.7270  178.2800  147.1900 C   0  0  0  0  0  1  0  0  0  0  0  0
  187.9270  177.9780  148.0650 C   0  0  2  0  0  3  0  0  0  0  0  0
  191.4520  177.0520  147.2460 C   0  0  0  0  0  2  0  0  0  0  0  0
  192.2200  175.7820  147.3550 C   0  0  0  0  0  0  0  0  0  0  0  0
  192.7670  175.4040  148.5750 O   0  0  0  0  0  1  0  0  0  0  0  0
  192.3500  175.0360  146.3500 O   0  0  0  0  0  0  0  0  0  0  0  0
  1 18  1  0  0  0  0
  2 13  1  0  0  0  0
  2  1  1  1  0  0  0
  3  2  1  1  0  0  0
  4  3  1  0  0  0  0
  6  3  1  0  0  0  0
  7  8  1  0  0  0  0
  8 10  1  0  0  0  0
  8  9  2  0  0  0  0
  9  4  1  0  0  0  0
 10  6  1  1  0  0  0
 11  7  1  0  0  0  0
 11  5  1  0  0  0  0
 12  5  1  0  0  0  0
 12 10  1  0  0  0  0
 13 14  1  0  0  0  0
 14 15  1  1  0  0  0
 16 17  2  0  0  0  0
 17 14  1  0  0  0  0
 18 19  1  0  0  0  0
 19 20  1  6  0  0  0
 19 21  1  0  0  0  0
 22 21  2  0  0  0  0
 23 25  1  0  0  0  0
 23 28  1  1  0  0  0
 24 21  1  6  0  0  0
 24 23  1  0  0  0  0
 24 25  1  0  0  0  0
 25 29  1  6  0  0  0
 28 27  1  6  0  0  0
 28 26  1  0  0  0  0
 29 30  1  0  0  0  0
 30 31  1  0  0  0  0
 32 30  2  0  0  0  0
M  END
>  <MODEL>
7

>  <REMARK>
 VINA RESULT:      -7.1      3.903      8.052
  Name = 
  12 active torsions:
  status: ('A' for Active; 'I' for Inactive)
    1  A    between atoms: C_1  and  C_5
    2  A    between atoms: C_1  and  O_30
    3  A    between atoms: C_2  and  C_5
    4  A    between atoms: C_3  and  C_8
    5  A    between atoms: C_3  and  C_20
    6  A    between atoms: C_4  and  C_24
    7  A    between atoms: C_4  and  O_30
    8  A    between atoms: C_5  and  O_14
    9  A    between atoms: C_13  and  O_14
   10  A    between atoms: C_13  and  C_29
   11  A    between atoms: C_15  and  C_26
   12  A    between atoms: C_16  and  C_24
                            x       y       z     vdW  Elec       q    Type
                         _______ _______ _______ _____ _____    ______ ____

>  <TORSDO>
F 12

$$$$
=
 OpenBabel10272413193D

 32 34  0  0  1  0  0  0  0  0999 V2000
  185.5320  179.1620  141.1680 C   0  0  0  0  0  2  0  0  0  0  0  0
  185.9690  178.7000  142.5590 C   0  0  2  0  0  3  0  0  0  0  0  0
  187.1040  177.6710  142.5330 C   0  0  2  0  0  3  0  0  0  0  0  0
  187.0030  176.6760  143.7090 C   0  0  0  0  0  2  0  0  0  0  0  0
  191.3620  178.9340  143.7210 C   0  0  0  0  0  2  0  0  0  0  0  0
  188.4940  178.3090  142.3200 C   0  0  0  0  0  2  0  0  0  0  0  0
  190.2760  177.5800  145.5130 C   0  0  0  0  0  2  0  0  0  0  0  0
  189.2970  177.2420  144.4230 C   0  0  0  0  0  0  0  0  0  0  0  0
  188.0470  176.9130  144.7680 C   0  0  0  0  0  3  0  0  0  0  0  0
  189.5980  177.4620  142.9480 C   0  0  2  0  0  3  0  0  0  0  0  0
  191.5970  178.1270  144.9840 C   0  0  0  0  0  2  0  0  0  0  0  0
  190.9230  178.0280  142.6650 N   0  0  0  0  0  2  0  0  0  0  0  0
  184.8760  178.2110  143.2840 O   0  0  0  0  0  0  0  0  0  0  0  0
  184.3660  179.3180  143.9660 C   0  0  1  0  0  3  0  0  0  0  0  0
  182.8590  179.1740  144.0950 C   0  0  0  0  0  1  0  0  0  0  0  0
  184.8330  178.4210  146.2060 C   0  0  0  0  0  2  0  0  0  0  0  0
  184.9910  179.4010  145.3200 C   0  0  0  0  0  3  0  0  0  0  0  0
  184.5000  178.3460  140.6720 O   0  0  0  0  0  0  0  0  0  0  0  0
  184.2200  178.7260  139.3430 C   0  0  1  0  0  3  0  0  0  0  0  0
  184.8530  179.9290  139.0010 O   0  0  0  0  0  1  0  0  0  0  0  0
  184.4900  177.6260  138.3430 C   0  0  0  0  0  0  0  0  0  0  0  0
  184.0400  176.5060  138.5290 O   0  0  0  0  0  0  0  0  0  0  0  0
  185.9990  176.6860  136.5930 C   0  0  2  0  0  3  0  0  0  0  0  0
  185.2590  177.9210  137.0800 C   0  0  2  0  0  3  0  0  0  0  0  0
  186.7910  177.8340  137.1840 C   0  0  1  0  0  3  0  0  0  0  0  0
  187.1780  177.5340  134.7060 O   0  0  0  0  0  1  0  0  0  0  0  0
  184.8280  177.2820  134.4900 C   0  0  0  0  0  1  0  0  0  0  0  0
  186.1070  176.7230  135.0800 C   0  0  2  0  0  3  0  0  0  0  0  0
  187.3410  177.4090  138.5390 C   0  0  0  0  0  2  0  0  0  0  0  0
  188.7140  177.9540  138.7150 C   0  0  0  0  0  0  0  0  0  0  0  0
  188.9760  179.2860  138.4220 O   0  0  0  0  0  0  0  0  0  0  0  0
  189.6330  177.2170  139.1590 O   0  0  0  0  0  1  0  0  0  0  0  0
  2  1  1  6  0  0  0
  2 13  1  0  0  0  0
  3  2  1  1  0  0  0
  3  4  1  0  0  0  0
  4  9  1  0  0  0  0
  5 11  1  0  0  0  0
  6  3  1  0  0  0  0
  8  9  2  0  0  0  0
  8  7  1  0  0  0  0
 10  6  1  1  0  0  0
 10  8  1  0  0  0  0
 11  7  1  0  0  0  0
 12 10  1  0  0  0  0
 12  5  1  0  0  0  0
 13 14  1  0  0  0  0
 14 15  1  1  0  0  0
 14 17  1  0  0  0  0
 17 16  2  0  0  0  0
 18  1  1  0  0  0  0
 19 20  1  6  0  0  0
 19 18  1  0  0  0  0
 21 22  2  0  0  0  0
 21 19  1  0  0  0  0
 23 28  1  6  0  0  0
 23 24  1  0  0  0  0
 23 25  1  0  0  0  0
 24 25  1  0  0  0  0
 24 21  1  1  0  0  0
 25 29  1  1  0  0  0
 26 28  1  0  0  0  0
 28 27  1  6  0  0  0
 29 30  1  0  0  0  0
 30 32  1  0  0  0  0
 31 30  2  0  0  0  0
M  END
>  <MODEL>
8

>  <REMARK>
 VINA RESULT:      -7.1      1.492      2.551
  Name = 
  12 active torsions:
  status: ('A' for Active; 'I' for Inactive)
    1  A    between atoms: C_1  and  C_5
    2  A    between atoms: C_1  and  O_30
    3  A    between atoms: C_2  and  C_5
    4  A    between atoms: C_3  and  C_8
    5  A    between atoms: C_3  and  C_20
    6  A    between atoms: C_4  and  C_24
    7  A    between atoms: C_4  and  O_30
    8  A    between atoms: C_5  and  O_14
    9  A    between atoms: C_13  and  O_14
   10  A    between atoms: C_13  and  C_29
   11  A    between atoms: C_15  and  C_26
   12  A    between atoms: C_16  and  C_24
                            x       y       z     vdW  Elec       q    Type
                         _______ _______ _______ _____ _____    ______ ____

>  <TORSDO>
F 12

$$$$
=
 OpenBabel10272413193D

 32 34  0  0  1  0  0  0  0  0999 V2000
  191.1240  176.9990  140.2990 C   0  0  0  0  0  2  0  0  0  0  0  0
  190.4090  177.0280  138.9480 C   0  0  2  0  0  3  0  0  0  0  0  0
  191.3550  176.8940  137.7510 C   0  0  2  0  0  3  0  0  0  0  0  0
  190.7240  176.0660  136.6100 C   0  0  0  0  0  2  0  0  0  0  0  0
  194.9990  174.1040  138.0160 C   0  0  0  0  0  2  0  0  0  0  0  0
  192.7880  176.4850  138.1540 C   0  0  0  0  0  2  0  0  0  0  0  0
  193.1940  173.1190  136.6030 C   0  0  0  0  0  2  0  0  0  0  0  0
  192.6480  174.5200  136.6300 C   0  0  0  0  0  0  0  0  0  0  0  0
  191.3300  174.6940  136.4790 C   0  0  0  0  0  3  0  0  0  0  0  0
  193.4880  175.7230  137.0320 C   0  0  2  0  0  3  0  0  0  0  0  0
  194.6680  173.0430  136.9830 C   0  0  0  0  0  2  0  0  0  0  0  0
  194.8790  175.4160  137.3890 N   0  0  0  0  0  2  0  0  0  0  0  0
  189.6220  178.1790  138.8290 O   0  0  0  0  0  0  0  0  0  0  0  0
  188.3040  177.7330  138.9400 C   0  0  1  0  0  3  0  0  0  0  0  0
  187.6430  178.4140  140.1270 C   0  0  0  0  0  1  0  0  0  0  0  0
  186.2580  177.8070  137.5800 C   0  0  0  0  0  2  0  0  0  0  0  0
  187.5600  178.0570  137.6840 C   0  0  0  0  0  3  0  0  0  0  0  0
  190.4040  176.2310  141.2300 O   0  0  0  0  0  0  0  0  0  0  0  0
  190.7770  176.6270  142.5310 C   0  0  1  0  0  3  0  0  0  0  0  0
  192.0550  177.2020  142.5550 O   0  0  0  0  0  1  0  0  0  0  0  0
  189.7410  177.4940  143.2070 C   0  0  0  0  0  0  0  0  0  0  0  0
  189.6340  178.6720  142.9000 O   0  0  0  0  0  0  0  0  0  0  0  0
  188.2410  177.9660  145.1430 C   0  0  2  0  0  3  0  0  0  0  0  0
  188.7910  176.8970  144.2130 C   0  0  2  0  0  3  0  0  0  0  0  0
  189.2350  176.9590  145.6850 C   0  0  1  0  0  3  0  0  0  0  0  0
  185.9130  178.0270  144.6460 O   0  0  0  0  0  1  0  0  0  0  0  0
  186.5370  178.2170  146.9270 C   0  0  0  0  0  1  0  0  0  0  0  0
  186.8410  177.5820  145.5860 C   0  0  2  0  0  3  0  0  0  0  0  0
  190.5580  177.6660  145.9480 C   0  0  0  0  0  2  0  0  0  0  0  0
  191.5520  176.6900  146.4710 C   0  0  0  0  0  0  0  0  0  0  0  0
  191.9840  176.7760  147.7890 O   0  0  0  0  0  1  0  0  0  0  0  0
  191.9790  175.7660  145.7300 O   0  0  0  0  0  0  0  0  0  0  0  0
  1 18  1  0  0  0  0
  2  1  1  1  0  0  0
  3  6  1  0  0  0  0
  3  2  1  1  0  0  0
  4  3  1  0  0  0  0
  7  8  1  0  0  0  0
  7 11  1  0  0  0  0
  8 10  1  0  0  0  0
  9  4  1  0  0  0  0
  9  8  2  0  0  0  0
 10 12  1  0  0  0  0
 10  6  1  1  0  0  0
 11  5  1  0  0  0  0
 12  5  1  0  0  0  0
 13 14  1  0  0  0  0
 13  2  1  0  0  0  0
 14 15  1  1  0  0  0
 16 17  2  0  0  0  0
 17 14  1  0  0  0  0
 18 19  1  0  0  0  0
 19 20  1  6  0  0  0
 19 21  1  0  0  0  0
 22 21  2  0  0  0  0
 23 28  1  1  0  0  0
 23 25  1  0  0  0  0
 24 21  1  6  0  0  0
 24 23  1  0  0  0  0
 24 25  1  0  0  0  0
 25 29  1  6  0  0  0
 26 28  1  0  0  0  0
 28 27  1  1  0  0  0
 29 30  1  0  0  0  0
 30 31  1  0  0  0  0
 32 30  2  0  0  0  0
M  END
>  <MODEL>
9

>  <REMARK>
 VINA RESULT:      -7.1      4.211      8.212
  Name = 
  12 active torsions:
  status: ('A' for Active; 'I' for Inactive)
    1  A    between atoms: C_1  and  C_5
    2  A    between atoms: C_1  and  O_30
    3  A    between atoms: C_2  and  C_5
    4  A    between atoms: C_3  and  C_8
    5  A    between atoms: C_3  and  C_20
    6  A    between atoms: C_4  and  C_24
    7  A    between atoms: C_4  and  O_30
    8  A    between atoms: C_5  and  O_14
    9  A    between atoms: C_13  and  O_14
   10  A    between atoms: C_13  and  C_29
   11  A    between atoms: C_15  and  C_26
   12  A    between atoms: C_16  and  C_24
                            x       y       z     vdW  Elec       q    Type
                         _______ _______ _______ _____ _____    ______ ____

>  <TORSDO>
F 12

$$$$
