=
 OpenBabel10272413573D

 30 35  0  0  1  0  0  0  0  0999 V2000
  185.6250  178.4620  141.7240 C   0  0  0  0  0  0  0  0  0  0  0  0
  185.2020  179.0440  144.1780 C   0  0  1  0  0  3  0  0  0  0  0  0
  187.9960  176.4830  143.3200 C   0  0  1  0  0  3  0  0  0  0  0  0
  186.4730  178.3630  140.5990 C   0  0  0  0  0  0  0  0  0  0  0  0
  184.2360  178.3240  141.5480 C   0  0  0  0  0  3  0  0  0  0  0  0
  183.8140  177.8830  137.8780 C   0  0  0  0  0  2  0  0  0  0  0  0
  187.3670  178.9440  137.4580 C   0  0  0  0  0  3  0  0  0  0  0  0
  184.5410  178.0170  139.1720 C   0  0  0  0  0  0  0  0  0  0  0  0
  181.9660  177.9970  139.9480 S   0  0  0  0  0  0  0  0  0  0  0  0
  189.9900  177.3840  140.1550 C   0  0  0  0  0  2  0  0  0  0  0  0
  189.0330  177.2630  142.5090 C   0  0  1  0  0  3  0  0  0  0  0  0
  183.7110  178.1400  140.2750 C   0  0  0  0  0  0  0  0  0  0  0  0
  185.9400  178.0510  139.3240 C   0  0  0  0  0  0  0  0  0  0  0  0
  185.5950  179.0020  145.6550 C   0  0  0  0  0  3  0  0  0  0  0  0
  189.6880  177.4030  138.6610 C   0  0  0  0  0  2  0  0  0  0  0  0
  188.6360  179.3670  137.4950 C   0  0  0  0  0  3  0  0  0  0  0  0
  181.6820  178.9870  137.4380 C   0  0  0  0  0  2  0  0  0  0  0  0
  184.7620  180.4620  143.8570 C   0  0  0  0  0  1  0  0  0  0  0  0
  187.6860  177.3310  144.5320 C   0  0  2  0  0  3  0  0  0  0  0  0
  186.2990  178.0650  146.3350 C   0  0  0  0  0  3  0  0  0  0  0  0
  182.3840  178.1640  138.2110 C   0  0  0  0  0  0  0  0  0  0  0  0
  186.2250  178.5360  143.1150 C   0  0  1  0  0  3  0  0  0  0  0  0
  187.9390  178.6250  140.7640 C   0  0  0  0  0  2  0  0  0  0  0  0
  190.2880  176.6930  142.7400 O   0  0  0  0  0  1  0  0  0  0  0  0
  188.7130  177.3410  141.0050 C   0  0  1  0  0  3  0  0  0  0  0  0
  189.6990  178.7440  138.1750 O   0  0  0  0  0  0  0  0  0  0  0  0
  186.4210  176.3970  137.1070 Cl  0  0  0  0  0  0  0  0  0  0  0  0
  186.9420  176.8400  145.7390 C   0  0  0  0  0  2  0  0  0  0  0  0
  186.6200  177.1240  143.4860 C   0  0  1  0  0  3  0  0  0  0  0  0
  186.8850  177.7400  138.1880 C   0  0  1  0  0  3  0  0  0  0  0  0
  1 22  1  0  0  0  0
  2 18  1  6  0  0  0
  2 14  1  0  0  0  0
  3 29  1  0  0  0  0
  3 19  1  0  0  0  0
  4 23  1  0  0  0  0
  4  1  2  0  0  0  0
  5  1  1  0  0  0  0
  6 21  1  0  0  0  0
  6  8  1  0  0  0  0
  7 16  2  0  0  0  0
  7 30  1  0  0  0  0
  8 13  2  0  0  0  0
  8 12  1  0  0  0  0
  9 12  1  0  0  0  0
 10 25  1  0  0  0  0
 11 24  1  0  0  0  0
 11  3  1  0  0  0  0
 12  5  2  0  0  0  0
 13  4  1  0  0  0  0
 14 20  2  0  0  0  0
 15 10  1  0  0  0  0
 16 26  1  0  0  0  0
 17 21  2  0  0  0  0
 19 28  1  0  0  0  0
 21  9  1  0  0  0  0
 22 29  1  0  0  0  0
 22  2  1  0  0  0  0
 23 25  1  0  0  0  0
 25 11  1  0  0  0  0
 26 15  1  0  0  0  0
 27 30  1  0  0  0  0
 28 20  1  0  0  0  0
 29 19  1  0  0  0  0
 30 13  1  0  0  0  0
M  END
>  <MODEL>
1

>  <REMARK>
 VINA RESULT:      -8.5      0.000      0.000
  Name = 
  0 active torsions:
  status: ('A' for Active; 'I' for Inactive)
                            x       y       z     vdW  Elec       q    Type
                         _______ _______ _______ _____ _____    ______ ____

>  <TORSDO>
F 0

$$$$
=
 OpenBabel10272413573D

 30 35  0  0  1  0  0  0  0  0999 V2000
  185.9240  177.9560  142.1170 C   0  0  0  0  0  0  0  0  0  0  0  0
  187.1810  177.4420  144.2850 C   0  0  1  0  0  3  0  0  0  0  0  0
  184.0480  179.7360  144.4410 C   0  0  1  0  0  3  0  0  0  0  0  0
  184.7480  177.9670  141.3350 C   0  0  0  0  0  0  0  0  0  0  0  0
  187.1600  178.2140  141.4970 C   0  0  0  0  0  3  0  0  0  0  0  0
  186.3110  178.6490  137.9000 C   0  0  0  0  0  2  0  0  0  0  0  0
  182.9240  177.2740  138.6530 C   0  0  0  0  0  3  0  0  0  0  0  0
  186.0640  178.4660  139.3590 C   0  0  0  0  0  0  0  0  0  0  0  0
  188.7390  178.7220  139.2460 S   0  0  0  0  0  0  0  0  0  0  0  0
  181.2100  178.6280  142.0910 C   0  0  0  0  0  2  0  0  0  0  0  0
  182.8740  178.8590  144.0010 C   0  0  1  0  0  3  0  0  0  0  0  0
  187.2190  178.4290  140.1250 C   0  0  0  0  0  0  0  0  0  0  0  0
  184.8020  178.3110  139.9620 C   0  0  0  0  0  0  0  0  0  0  0  0
  187.2930  177.4650  145.8090 C   0  0  0  0  0  3  0  0  0  0  0  0
  181.0030  178.6180  140.5810 C   0  0  0  0  0  2  0  0  0  0  0  0
  181.7790  176.7420  139.0980 C   0  0  0  0  0  3  0  0  0  0  0  0
  188.2660  177.7310  136.7640 C   0  0  0  0  0  2  0  0  0  0  0  0
  187.6120  176.0640  143.8100 C   0  0  0  0  0  1  0  0  0  0  0  0
  184.8120  178.9330  145.4670 C   0  0  2  0  0  3  0  0  0  0  0  0
  186.7740  178.3450  146.7000 C   0  0  0  0  0  3  0  0  0  0  0  0
  187.7890  178.4990  137.7400 C   0  0  0  0  0  0  0  0  0  0  0  0
  185.8250  177.8450  143.6270 C   0  0  1  0  0  3  0  0  0  0  0  0
  183.4470  177.5790  141.9680 C   0  0  0  0  0  2  0  0  0  0  0  0
  181.7200  179.3190  144.6430 O   0  0  0  0  0  1  0  0  0  0  0  0
  182.6860  178.7920  142.4750 C   0  0  1  0  0  3  0  0  0  0  0  0
  180.9500  177.2760  140.1010 O   0  0  0  0  0  0  0  0  0  0  0  0
  183.4770  179.8900  138.0580 Cl  0  0  0  0  0  0  0  0  0  0  0  0
  185.8660  179.5010  146.3710 C   0  0  0  0  0  2  0  0  0  0  0  0
  185.4520  179.2210  144.1330 C   0  0  1  0  0  3  0  0  0  0  0  0
  183.5130  178.5240  139.2060 C   0  0  1  0  0  3  0  0  0  0  0  0
  1 22  1  0  0  0  0
  2 18  1  1  0  0  0
  2 14  1  0  0  0  0
  3 19  1  0  0  0  0
  4 23  1  0  0  0  0
  4  1  2  0  0  0  0
  5  1  1  0  0  0  0
  6  8  1  0  0  0  0
  7 16  2  0  0  0  0
  7 30  1  0  0  0  0
  8 13  2  0  0  0  0
  8 12  1  0  0  0  0
  9 12  1  0  0  0  0
 10 25  1  0  0  0  0
 11  3  1  0  0  0  0
 11 24  1  0  0  0  0
 12  5  2  0  0  0  0
 13  4  1  0  0  0  0
 14 20  2  0  0  0  0
 15 10  1  0  0  0  0
 16 26  1  0  0  0  0
 17 21  2  0  0  0  0
 19 28  1  0  0  0  0
 21  6  1  0  0  0  0
 21  9  1  0  0  0  0
 22 29  1  0  0  0  0
 22  2  1  0  0  0  0
 23 25  1  0  0  0  0
 25 11  1  0  0  0  0
 26 15  1  0  0  0  0
 27 30  1  0  0  0  0
 28 20  1  0  0  0  0
 29  3  1  0  0  0  0
 29 19  1  0  0  0  0
 30 13  1  0  0  0  0
M  END
>  <MODEL>
2

>  <REMARK>
 VINA RESULT:      -6.8      3.068      5.174
  Name = 
  0 active torsions:
  status: ('A' for Active; 'I' for Inactive)
                            x       y       z     vdW  Elec       q    Type
                         _______ _______ _______ _____ _____    ______ ____

>  <TORSDO>
F 0

$$$$
=
 OpenBabel10272413573D

 30 35  0  0  1  0  0  0  0  0999 V2000
  183.1390  177.5490  139.7190 C   0  0  0  0  0  0  0  0  0  0  0  0
  181.8280  178.7210  141.5760 C   0  0  1  0  0  3  0  0  0  0  0  0
  185.5950  177.9560  142.1450 C   0  0  1  0  0  3  0  0  0  0  0  0
  184.2160  177.4870  138.8080 C   0  0  0  0  0  0  0  0  0  0  0  0
  182.0770  176.6360  139.5860 C   0  0  0  0  0  3  0  0  0  0  0  0
  182.9500  174.6420  136.5680 C   0  0  0  0  0  2  0  0  0  0  0  0
  185.5890  177.1690  135.8050 C   0  0  0  0  0  3  0  0  0  0  0  0
  183.1410  175.6380  137.6610 C   0  0  0  0  0  0  0  0  0  0  0  0
  180.7560  174.5530  138.2690 S   0  0  0  0  0  0  0  0  0  0  0  0
  187.7590  178.4540  139.0020 C   0  0  0  0  0  2  0  0  0  0  0  0
  186.3450  178.7750  141.0920 C   0  0  1  0  0  3  0  0  0  0  0  0
  182.0740  175.7190  138.5420 C   0  0  0  0  0  0  0  0  0  0  0  0
  184.2660  176.4690  137.8240 C   0  0  0  0  0  0  0  0  0  0  0  0
  181.7650  179.4780  142.9030 C   0  0  0  0  0  3  0  0  0  0  0  0
  187.9140  177.7230  137.6740 C   0  0  0  0  0  2  0  0  0  0  0  0
  186.4590  178.1770  135.6750 C   0  0  0  0  0  3  0  0  0  0  0  0
  180.7690  174.1610  135.5840 C   0  0  0  0  0  2  0  0  0  0  0  0
  180.9010  179.4230  140.5990 C   0  0  0  0  0  1  0  0  0  0  0  0
  184.6080  178.9000  142.7900 C   0  0  2  0  0  3  0  0  0  0  0  0
  182.5960  179.4170  143.9720 C   0  0  0  0  0  3  0  0  0  0  0  0
  181.5210  174.2210  136.6790 C   0  0  0  0  0  0  0  0  0  0  0  0
  183.2220  178.4700  140.9220 C   0  0  1  0  0  3  0  0  0  0  0  0
  185.2900  178.5290  138.8740 C   0  0  0  0  0  2  0  0  0  0  0  0
  187.6000  179.1080  141.6100 O   0  0  0  0  0  1  0  0  0  0  0  0
  186.4610  178.0750  139.7270 C   0  0  1  0  0  3  0  0  0  0  0  0
  187.4490  178.5440  136.6050 O   0  0  0  0  0  0  0  0  0  0  0  0
  186.0460  174.6170  136.6920 Cl  0  0  0  0  0  0  0  0  0  0  0  0
  183.8640  178.6080  144.0590 C   0  0  0  0  0  2  0  0  0  0  0  0
  184.0940  177.7670  141.9390 C   0  0  1  0  0  3  0  0  0  0  0  0
  185.5240  176.2950  137.0080 C   0  0  1  0  0  3  0  0  0  0  0  0
  1 22  1  0  0  0  0
  2 18  1  6  0  0  0
  2 14  1  0  0  0  0
  3 19  1  0  0  0  0
  4 23  1  0  0  0  0
  4  1  2  0  0  0  0
  5  1  1  0  0  0  0
  6 21  1  0  0  0  0
  6  8  1  0  0  0  0
  7 30  1  0  0  0  0
  8 13  2  0  0  0  0
  8 12  1  0  0  0  0
  9 12  1  0  0  0  0
 10 25  1  0  0  0  0
 11 24  1  0  0  0  0
 11  3  1  0  0  0  0
 12  5  2  0  0  0  0
 13  4  1  0  0  0  0
 14 20  2  0  0  0  0
 15 10  1  0  0  0  0
 16  7  2  0  0  0  0
 16 26  1  0  0  0  0
 17 21  2  0  0  0  0
 19 28  1  0  0  0  0
 20 28  1  0  0  0  0
 21  9  1  0  0  0  0
 22  2  1  0  0  0  0
 22 29  1  0  0  0  0
 23 25  1  0  0  0  0
 25 11  1  0  0  0  0
 26 15  1  0  0  0  0
 27 30  1  0  0  0  0
 29  3  1  0  0  0  0
 29 19  1  0  0  0  0
 30 13  1  0  0  0  0
M  END
>  <MODEL>
3

>  <REMARK>
 VINA RESULT:      -6.5      2.428      3.546
  Name = 
  0 active torsions:
  status: ('A' for Active; 'I' for Inactive)
                            x       y       z     vdW  Elec       q    Type
                         _______ _______ _______ _____ _____    ______ ____

>  <TORSDO>
F 0

$$$$
=
 OpenBabel10272413573D

 30 35  0  0  1  0  0  0  0  0999 V2000
  187.3680  178.1900  139.6700 C   0  0  0  0  0  0  0  0  0  0  0  0
  187.7930  178.4590  137.1610 C   0  0  1  0  0  3  0  0  0  0  0  0
  184.4820  176.7920  138.3280 C   0  0  1  0  0  3  0  0  0  0  0  0
  186.5870  178.4010  140.8270 C   0  0  0  0  0  0  0  0  0  0  0  0
  188.6810  177.7060  139.8090 C   0  0  0  0  0  3  0  0  0  0  0  0
  189.1760  177.4410  143.4880 C   0  0  0  0  0  2  0  0  0  0  0  0
  186.0470  179.4250  143.9350 C   0  0  0  0  0  3  0  0  0  0  0  0
  188.4390  177.6660  142.2120 C   0  0  0  0  0  0  0  0  0  0  0  0
  190.8740  176.9140  141.3540 S   0  0  0  0  0  0  0  0  0  0  0  0
  182.9660  178.4130  141.4710 C   0  0  0  0  0  2  0  0  0  0  0  0
  183.7280  177.8730  139.1050 C   0  0  1  0  0  3  0  0  0  0  0  0
  189.2100  177.4850  141.0750 C   0  0  0  0  0  0  0  0  0  0  0  0
  187.0890  178.0540  142.1050 C   0  0  0  0  0  0  0  0  0  0  0  0
  187.3210  178.4130  135.7080 C   0  0  0  0  0  3  0  0  0  0  0  0
  183.3440  178.4630  142.9470 C   0  0  0  0  0  2  0  0  0  0  0  0
  184.9300  180.1620  143.9050 C   0  0  0  0  0  3  0  0  0  0  0  0
  191.5420  177.9770  143.7590 C   0  0  0  0  0  2  0  0  0  0  0  0
  188.6020  179.7310  137.3460 C   0  0  0  0  0  1  0  0  0  0  0  0
  184.9340  177.4360  137.0390 C   0  0  2  0  0  3  0  0  0  0  0  0
  186.3620  177.6460  135.1340 C   0  0  0  0  0  3  0  0  0  0  0  0
  190.6090  177.3120  143.0840 C   0  0  0  0  0  0  0  0  0  0  0  0
  186.7330  178.3170  138.2980 C   0  0  1  0  0  3  0  0  0  0  0  0
  185.2320  179.0250  140.6900 C   0  0  0  0  0  2  0  0  0  0  0  0
  182.3580  177.6370  138.9650 O   0  0  0  0  0  1  0  0  0  0  0  0
  184.1390  177.9750  140.5850 C   0  0  1  0  0  3  0  0  0  0  0  0
  183.7070  179.7910  143.3160 O   0  0  0  0  0  0  0  0  0  0  0  0
  186.3200  176.7520  144.4690 Cl  0  0  0  0  0  0  0  0  0  0  0  0
  185.4580  176.6800  135.8540 C   0  0  0  0  0  2  0  0  0  0  0  0
  185.9660  177.0340  138.0620 C   0  0  1  0  0  3  0  0  0  0  0  0
  186.1600  178.0860  143.2950 C   0  0  1  0  0  3  0  0  0  0  0  0
  1  5  2  0  0  0  0
  1  4  1  0  0  0  0
  2 18  1  1  0  0  0
  2 22  1  0  0  0  0
  3 11  1  0  0  0  0
  4 13  2  0  0  0  0
  5 12  1  0  0  0  0
  8  6  1  0  0  0  0
  9 21  1  0  0  0  0
 10 15  1  0  0  0  0
 11 25  1  0  0  0  0
 12  9  1  0  0  0  0
 12  8  2  0  0  0  0
 13  8  1  0  0  0  0
 13 30  1  0  0  0  0
 14  2  1  0  0  0  0
 15 26  1  0  0  0  0
 16  7  2  0  0  0  0
 19 29  1  0  0  0  0
 19  3  1  0  0  0  0
 20 14  2  0  0  0  0
 20 28  1  0  0  0  0
 21  6  1  0  0  0  0
 21 17  2  0  0  0  0
 22  1  1  0  0  0  0
 23  4  1  0  0  0  0
 24 11  1  0  0  0  0
 25 23  1  0  0  0  0
 25 10  1  0  0  0  0
 26 16  1  0  0  0  0
 28 19  1  0  0  0  0
 29 22  1  0  0  0  0
 29  3  1  0  0  0  0
 30  7  1  0  0  0  0
 30 27  1  0  0  0  0
M  END
>  <MODEL>
4

>  <REMARK>
 VINA RESULT:      -5.9      3.154      7.229
  Name = 
  0 active torsions:
  status: ('A' for Active; 'I' for Inactive)
                            x       y       z     vdW  Elec       q    Type
                         _______ _______ _______ _____ _____    ______ ____

>  <TORSDO>
F 0

$$$$
=
 OpenBabel10272413573D

 30 35  0  0  1  0  0  0  0  0999 V2000
  182.6590  176.7760  138.1610 C   0  0  0  0  0  0  0  0  0  0  0  0
  180.6230  177.9960  139.1130 C   0  0  1  0  0  3  0  0  0  0  0  0
  183.9640  178.1100  141.0940 C   0  0  1  0  0  3  0  0  0  0  0  0
  183.9980  176.7550  137.7140 C   0  0  0  0  0  0  0  0  0  0  0  0
  181.8360  175.6630  137.9080 C   0  0  0  0  0  3  0  0  0  0  0  0
  183.9980  173.3460  135.9580 C   0  0  0  0  0  2  0  0  0  0  0  0
  186.4220  176.1510  135.5320 C   0  0  0  0  0  3  0  0  0  0  0  0
  183.6500  174.5480  136.7680 C   0  0  0  0  0  0  0  0  0  0  0  0
  181.3530  173.1500  136.7810 S   0  0  0  0  0  0  0  0  0  0  0  0
  187.0740  178.4200  138.8500 C   0  0  0  0  0  2  0  0  0  0  0  0
  184.9540  178.8470  140.1890 C   0  0  1  0  0  3  0  0  0  0  0  0
  182.3290  174.5830  137.1860 C   0  0  0  0  0  0  0  0  0  0  0  0
  184.5290  175.6000  137.0900 C   0  0  0  0  0  0  0  0  0  0  0  0
  179.9820  178.9640  140.1080 C   0  0  0  0  0  3  0  0  0  0  0  0
  187.7990  177.4960  137.8790 C   0  0  0  0  0  2  0  0  0  0  0  0
  187.1560  177.2680  135.4590 C   0  0  0  0  0  3  0  0  0  0  0  0
  182.4150  172.2670  134.4460 C   0  0  0  0  0  2  0  0  0  0  0  0
  180.0560  178.3050  137.7380 C   0  0  0  0  0  1  0  0  0  0  0  0
  182.7060  178.9460  141.1110 C   0  0  2  0  0  3  0  0  0  0  0  0
  180.3530  179.2710  141.3750 C   0  0  0  0  0  3  0  0  0  0  0  0
  182.6890  172.6800  135.6800 C   0  0  0  0  0  0  0  0  0  0  0  0
  182.1800  177.9050  139.0530 C   0  0  1  0  0  3  0  0  0  0  0  0
  184.8420  177.9820  137.8790 C   0  0  0  0  0  2  0  0  0  0  0  0
  185.8770  179.5120  141.0010 O   0  0  0  0  0  1  0  0  0  0  0  0
  185.6520  177.9370  139.1630 C   0  0  1  0  0  3  0  0  0  0  0  0
  187.6770  177.9910  136.5470 O   0  0  0  0  0  0  0  0  0  0  0  0
  186.8030  173.9540  137.1240 Cl  0  0  0  0  0  0  0  0  0  0  0  0
  181.5800  178.7590  142.0840 C   0  0  0  0  0  2  0  0  0  0  0  0
  182.6820  177.5940  140.4460 C   0  0  1  0  0  3  0  0  0  0  0  0
  186.0130  175.5250  136.8190 C   0  0  1  0  0  3  0  0  0  0  0  0
  1 22  1  0  0  0  0
  2 18  1  6  0  0  0
  2 14  1  0  0  0  0
  3 19  1  0  0  0  0
  4 23  1  0  0  0  0
  4  1  2  0  0  0  0
  5  1  1  0  0  0  0
  6  8  1  0  0  0  0
  7 30  1  0  0  0  0
  8 13  2  0  0  0  0
  8 12  1  0  0  0  0
  9 12  1  0  0  0  0
 10 25  1  0  0  0  0
 11 24  1  0  0  0  0
 11  3  1  0  0  0  0
 12  5  2  0  0  0  0
 13  4  1  0  0  0  0
 14 20  2  0  0  0  0
 15 10  1  0  0  0  0
 16  7  2  0  0  0  0
 16 26  1  0  0  0  0
 17 21  2  0  0  0  0
 19 28  1  0  0  0  0
 20 28  1  0  0  0  0
 21  6  1  0  0  0  0
 21  9  1  0  0  0  0
 22  2  1  0  0  0  0
 22 29  1  0  0  0  0
 23 25  1  0  0  0  0
 25 11  1  0  0  0  0
 26 15  1  0  0  0  0
 29  3  1  0  0  0  0
 29 19  1  0  0  0  0
 30 13  1  0  0  0  0
 30 27  1  0  0  0  0
M  END
>  <MODEL>
5

>  <REMARK>
 VINA RESULT:      -5.7      3.329      5.232
  Name = 
  0 active torsions:
  status: ('A' for Active; 'I' for Inactive)
                            x       y       z     vdW  Elec       q    Type
                         _______ _______ _______ _____ _____    ______ ____

>  <TORSDO>
F 0

$$$$
=
 OpenBabel10272413573D

 30 35  0  0  1  0  0  0  0  0999 V2000
  184.8240  177.5340  137.7800 C   0  0  0  0  0  0  0  0  0  0  0  0
  183.5840  179.4390  138.9540 C   0  0  1  0  0  3  0  0  0  0  0  0
  181.8270  177.5930  136.0190 C   0  0  1  0  0  3  0  0  0  0  0  0
  184.9170  176.1940  137.3460 C   0  0  0  0  0  0  0  0  0  0  0  0
  185.9690  178.3500  137.7330 C   0  0  0  0  0  3  0  0  0  0  0  0
  188.6540  176.0930  136.4910 C   0  0  0  0  0  2  0  0  0  0  0  0
  186.3550  173.2150  137.0960 C   0  0  0  0  0  3  0  0  0  0  0  0
  187.2720  176.5150  136.8550 C   0  0  0  0  0  0  0  0  0  0  0  0
  188.6930  178.7630  137.2520 S   0  0  0  0  0  0  0  0  0  0  0  0
  182.4850  173.8020  135.9720 C   0  0  0  0  0  2  0  0  0  0  0  0
  181.6490  176.1480  136.4900 C   0  0  1  0  0  3  0  0  0  0  0  0
  187.1820  177.8220  137.3070 C   0  0  0  0  0  0  0  0  0  0  0  0
  186.1250  175.7000  136.7950 C   0  0  0  0  0  0  0  0  0  0  0  0
  182.3170  180.2520  139.2210 C   0  0  0  0  0  3  0  0  0  0  0  0
  183.6910  172.9210  135.6710 C   0  0  0  0  0  2  0  0  0  0  0  0
  185.4150  172.3120  137.3970 C   0  0  0  0  0  3  0  0  0  0  0  0
  190.6370  176.9130  137.6530 C   0  0  0  0  0  2  0  0  0  0  0  0
  184.2470  179.1630  140.2920 C   0  0  0  0  0  1  0  0  0  0  0  0
  181.3390  178.4680  137.1500 C   0  0  2  0  0  3  0  0  0  0  0  0
  181.2620  180.5000  138.4070 C   0  0  0  0  0  3  0  0  0  0  0  0
  189.5330  177.2020  136.9710 C   0  0  0  0  0  0  0  0  0  0  0  0
  183.4690  178.1240  138.1210 C   0  0  1  0  0  3  0  0  0  0  0  0
  183.7320  175.2920  137.5030 C   0  0  0  0  0  2  0  0  0  0  0  0
  180.5060  175.6270  135.8770 O   0  0  0  0  0  1  0  0  0  0  0  0
  182.8810  175.2590  136.2460 C   0  0  1  0  0  3  0  0  0  0  0  0
  184.1180  172.2510  136.8550 O   0  0  0  0  0  0  0  0  0  0  0  0
  187.0740  174.1810  134.6340 Cl  0  0  0  0  0  0  0  0  0  0  0  0
  181.0640  179.9370  137.0230 C   0  0  0  0  0  2  0  0  0  0  0  0
  182.8070  178.4630  136.8040 C   0  0  1  0  0  3  0  0  0  0  0  0
  186.1340  174.3380  136.1440 C   0  0  1  0  0  3  0  0  0  0  0  0
  1 22  1  0  0  0  0
  2 14  1  0  0  0  0
  2 18  1  1  0  0  0
  3 11  1  0  0  0  0
  3 29  1  0  0  0  0
  3 19  1  0  0  0  0
  4 23  1  0  0  0  0
  4  1  2  0  0  0  0
  5  1  1  0  0  0  0
  6  8  1  0  0  0  0
  6 21  1  0  0  0  0
  7 16  2  0  0  0  0
  8 12  1  0  0  0  0
  9 12  1  0  0  0  0
 10 25  1  0  0  0  0
 12  5  2  0  0  0  0
 13  8  2  0  0  0  0
 13  4  1  0  0  0  0
 15 10  1  0  0  0  0
 15 26  1  0  0  0  0
 20 14  2  0  0  0  0
 21  9  1  0  0  0  0
 21 17  2  0  0  0  0
 22  2  1  0  0  0  0
 24 11  1  0  0  0  0
 25 11  1  0  0  0  0
 25 23  1  0  0  0  0
 26 16  1  0  0  0  0
 27 30  1  0  0  0  0
 28 19  1  0  0  0  0
 28 20  1  0  0  0  0
 29 19  1  0  0  0  0
 29 22  1  0  0  0  0
 30 13  1  0  0  0  0
 30  7  1  0  0  0  0
M  END
>  <MODEL>
6

>  <REMARK>
 VINA RESULT:      -5.6      4.337      7.303
  Name = 
  0 active torsions:
  status: ('A' for Active; 'I' for Inactive)
                            x       y       z     vdW  Elec       q    Type
                         _______ _______ _______ _____ _____    ______ ____

>  <TORSDO>
F 0

$$$$
