=
 OpenBabel10272402123D

 32 37  0  0  1  0  0  0  0  0999 V2000
  190.3020  177.6430  142.6200 C   0  0  2  0  0  3  0  0  0  0  0  0
  187.9460  178.1360  143.3000 C   0  0  0  0  0  0  0  0  0  0  0  0
  191.2670  176.5970  142.9600 N   0  0  0  0  0  2  0  0  0  0  0  0
  189.2200  177.7130  143.6620 C   0  0  0  0  0  0  0  0  0  0  0  0
  186.8950  178.0830  144.2300 C   0  0  0  0  0  0  0  0  0  0  0  0
  184.5330  179.0580  139.7010 C   0  0  0  0  0  2  0  0  0  0  0  0
  187.7320  178.4630  141.8510 C   0  0  1  0  0  3  0  0  0  0  0  0
  183.8350  178.4970  142.0450 C   0  0  0  0  0  2  0  0  0  0  0  0
  185.2500  178.0260  142.3580 C   0  0  2  0  0  3  0  0  0  0  0  0
  189.4820  177.2900  144.9720 C   0  0  0  0  0  0  0  0  0  0  0  0
  185.5500  178.2420  143.7690 N   0  0  0  0  0  2  0  0  0  0  0  0
  188.4650  177.3410  145.9310 C   0  0  0  0  0  3  0  0  0  0  0  0
  190.7380  176.6650  145.2770 N   0  0  0  0  0  0  0  0  0  0  0  0
  188.3430  177.4000  141.0520 N   0  0  0  0  0  2  0  0  0  0  0  0
  189.7460  177.4530  141.2600 N   0  0  0  0  0  0  0  0  0  0  0  0
  186.2650  178.7760  141.4850 C   0  0  2  0  0  3  0  0  0  0  0  0
  187.1720  177.7510  145.5700 C   0  0  0  0  0  0  0  0  0  0  0  0
  191.5680  176.3160  144.3350 C   0  0  0  0  0  3  0  0  0  0  0  0
  183.5320  178.2880  140.5620 C   0  0  0  0  0  2  0  0  0  0  0  0
  185.9580  178.5980  139.9980 C   0  0  0  0  0  2  0  0  0  0  0  0
  190.4960  176.8390  137.6650 C   0  0  0  0  0  0  0  0  0  0  0  0
  193.9580  176.5940  137.2670 O   0  0  0  0  0  1  0  0  0  0  0  0
  189.8520  177.0060  136.3300 C   0  0  0  0  0  1  0  0  0  0  0  0
  193.0080  177.1870  139.3300 C   0  0  0  0  0  3  0  0  0  0  0  0
  190.6050  177.3900  140.1060 C   0  0  0  0  0  0  0  0  0  0  0  0
  191.6320  175.8780  137.7640 C   0  0  0  0  0  2  0  0  0  0  0  0
  191.9290  177.2930  140.3320 C   0  0  0  0  0  3  0  0  0  0  0  0
  190.0190  177.5000  138.7320 C   0  0  0  0  0  0  0  0  0  0  0  0
  188.9180  178.2760  138.5570 F   0  0  0  0  0  0  0  0  0  0  0  0
  192.8850  176.5890  138.1480 C   0  0  0  0  0  0  0  0  0  0  0  0
  186.0940  177.7510  146.6020 C   0  0  0  0  0  2  0  0  0  0  0  0
  185.8740  179.1570  147.1250 C   0  0  0  0  0  1  0  0  0  0  0  0
  1  3  1  1  0  0  0
  1  4  1  0  0  0  0
  2  4  2  0  0  0  0
  2  5  1  0  0  0  0
  3 18  1  0  0  0  0
  4 10  1  0  0  0  0
  5 17  2  0  0  0  0
  6 20  1  0  0  0  0
  6 19  1  0  0  0  0
  7 14  1  6  0  0  0
  7  2  1  0  0  0  0
  9  8  1  1  0  0  0
  9 11  1  0  0  0  0
 10 13  1  0  0  0  0
 10 12  2  0  0  0  0
 11  5  1  0  0  0  0
 14 15  1  0  0  0  0
 15  1  1  0  0  0  0
 16 20  1  6  0  0  0
 16  7  1  0  0  0  0
 16  9  1  0  0  0  0
 17 12  1  0  0  0  0
 17 31  1  0  0  0  0
 18 13  2  0  0  0  0
 19  8  1  0  0  0  0
 21 26  1  0  0  0  0
 21 28  2  0  0  0  0
 22 30  1  0  0  0  0
 23 21  1  0  0  0  0
 24 27  1  0  0  0  0
 25 27  2  0  0  0  0
 25 15  1  0  0  0  0
 26 30  1  0  0  0  0
 28 25  1  0  0  0  0
 29 28  1  0  0  0  0
 30 24  2  0  0  0  0
 31 32  1  0  0  0  0
M  END
>  <MODEL>
1

>  <REMARK>
 VINA RESULT:     -10.7      0.000      0.000
  Name = 
  2 active torsions:
  status: ('A' for Active; 'I' for Inactive)
    1  A    between atoms: C_13  and  C_29
    2  A    between atoms: C_16  and  N_27
                            x       y       z     vdW  Elec       q    Type
                         _______ _______ _______ _____ _____    ______ ____

>  <TORSDO>
F 2

$$$$
=
 OpenBabel10272402123D

 32 37  0  0  1  0  0  0  0  0999 V2000
  184.9990  178.0050  143.7120 C   0  0  2  0  0  3  0  0  0  0  0  0
  187.3900  177.4120  144.1490 C   0  0  0  0  0  0  0  0  0  0  0  0
  184.0810  179.0110  144.2450 N   0  0  0  0  0  2  0  0  0  0  0  0
  186.1540  177.8010  144.6540 C   0  0  0  0  0  0  0  0  0  0  0  0
  188.5070  177.3440  144.9960 C   0  0  0  0  0  0  0  0  0  0  0  0
  190.5100  176.8930  140.2190 C   0  0  0  0  0  2  0  0  0  0  0  0
  187.4900  177.2570  142.6600 C   0  0  1  0  0  3  0  0  0  0  0  0
  191.3890  177.1640  142.5520 C   0  0  0  0  0  2  0  0  0  0  0  0
  190.0100  177.6090  143.0250 C   0  0  2  0  0  3  0  0  0  0  0  0
  185.9960  178.0680  146.0200 C   0  0  0  0  0  0  0  0  0  0  0  0
  189.8110  177.2290  144.4190 N   0  0  0  0  0  2  0  0  0  0  0  0
  187.0810  177.8930  146.8870 C   0  0  0  0  0  3  0  0  0  0  0  0
  184.7780  178.6630  146.4910 N   0  0  0  0  0  0  0  0  0  0  0  0
  186.8410  178.4140  142.0400 N   0  0  0  0  0  2  0  0  0  0  0  0
  185.4560  178.3500  142.3450 N   0  0  0  0  0  0  0  0  0  0  0  0
  188.9190  176.9760  142.1490 C   0  0  2  0  0  3  0  0  0  0  0  0
  188.3350  177.5170  146.3830 C   0  0  0  0  0  0  0  0  0  0  0  0
  183.8880  179.1290  145.6630 C   0  0  0  0  0  3  0  0  0  0  0  0
  191.5850  177.5460  141.0860 C   0  0  0  0  0  2  0  0  0  0  0  0
  189.1180  177.3270  140.6740 C   0  0  0  0  0  2  0  0  0  0  0  0
  182.2250  177.8300  140.5700 C   0  0  0  0  0  0  0  0  0  0  0  0
  182.5430  179.0000  137.2940 O   0  0  0  0  0  1  0  0  0  0  0  0
  180.7820  177.6160  140.8850 C   0  0  0  0  0  1  0  0  0  0  0  0
  184.2590  179.3040  138.8680 C   0  0  0  0  0  3  0  0  0  0  0  0
  184.5150  178.5580  141.2750 C   0  0  0  0  0  0  0  0  0  0  0  0
  182.6980  177.4310  139.2130 C   0  0  0  0  0  2  0  0  0  0  0  0
  185.0030  179.0320  140.1130 C   0  0  0  0  0  3  0  0  0  0  0  0
  183.0560  178.3150  141.5070 C   0  0  0  0  0  0  0  0  0  0  0  0
  182.5470  178.5530  142.7430 F   0  0  0  0  0  0  0  0  0  0  0  0
  183.1900  178.6210  138.4620 C   0  0  0  0  0  0  0  0  0  0  0  0
  189.4870  177.3840  147.3240 C   0  0  0  0  0  2  0  0  0  0  0  0
  189.2210  178.1780  148.5880 C   0  0  0  0  0  1  0  0  0  0  0  0
  1  3  1  1  0  0  0
  1  4  1  0  0  0  0
  2  4  2  0  0  0  0
  2  5  1  0  0  0  0
  3 18  1  0  0  0  0
  4 10  1  0  0  0  0
  5 17  2  0  0  0  0
  6 20  1  0  0  0  0
  6 19  1  0  0  0  0
  7 14  1  6  0  0  0
  7  2  1  0  0  0  0
  9  8  1  6  0  0  0
  9 11  1  0  0  0  0
 10 13  1  0  0  0  0
 10 12  2  0  0  0  0
 11  5  1  0  0  0  0
 14 15  1  0  0  0  0
 15  1  1  0  0  0  0
 16 20  1  6  0  0  0
 16  7  1  0  0  0  0
 16  9  1  0  0  0  0
 17 12  1  0  0  0  0
 17 31  1  0  0  0  0
 18 13  2  0  0  0  0
 19  8  1  0  0  0  0
 21 23  1  0  0  0  0
 21 28  2  0  0  0  0
 22 30  1  0  0  0  0
 24 27  1  0  0  0  0
 25 28  1  0  0  0  0
 25 15  1  0  0  0  0
 26 21  1  0  0  0  0
 27 25  2  0  0  0  0
 28 29  1  0  0  0  0
 30 24  2  0  0  0  0
 30 26  1  0  0  0  0
 31 32  1  0  0  0  0
M  END
>  <MODEL>
2

>  <REMARK>
 VINA RESULT:     -10.5      3.013      6.384
  Name = 
  2 active torsions:
  status: ('A' for Active; 'I' for Inactive)
    1  A    between atoms: C_13  and  C_29
    2  A    between atoms: C_16  and  N_27
                            x       y       z     vdW  Elec       q    Type
                         _______ _______ _______ _____ _____    ______ ____

>  <TORSDO>
F 2

$$$$
=
 OpenBabel10272402123D

 32 37  0  0  1  0  0  0  0  0999 V2000
  187.3250  177.6570  141.4030 C   0  0  2  0  0  3  0  0  0  0  0  0
  187.4880  177.3720  143.8830 C   0  0  0  0  0  0  0  0  0  0  0  0
  186.7940  178.7010  140.5270 N   0  0  0  0  0  2  0  0  0  0  0  0
  186.7460  177.7920  142.7850 C   0  0  0  0  0  0  0  0  0  0  0  0
  187.0170  177.6100  145.1840 C   0  0  0  0  0  0  0  0  0  0  0  0
  191.9310  176.0580  145.8780 C   0  0  0  0  0  2  0  0  0  0  0  0
  188.8620  176.8380  143.6020 C   0  0  1  0  0  3  0  0  0  0  0  0
  190.0920  176.9970  147.3020 C   0  0  0  0  0  2  0  0  0  0  0  0
  189.3500  177.4510  146.0500 C   0  0  2  0  0  3  0  0  0  0  0  0
  185.4950  178.3980  142.9630 C   0  0  0  0  0  0  0  0  0  0  0  0
  187.9110  177.4390  146.2890 N   0  0  0  0  0  2  0  0  0  0  0  0
  184.9720  178.5360  144.2530 C   0  0  0  0  0  3  0  0  0  0  0  0
  184.8370  179.0090  141.8420 N   0  0  0  0  0  0  0  0  0  0  0  0
  189.5130  177.7400  142.6520 N   0  0  0  0  0  2  0  0  0  0  0  0
  188.8060  177.6610  141.4240 N   0  0  0  0  0  0  0  0  0  0  0  0
  189.6920  176.5340  144.8680 C   0  0  2  0  0  3  0  0  0  0  0  0
  185.7220  178.1300  145.3670 C   0  0  0  0  0  0  0  0  0  0  0  0
  185.4500  179.1750  140.7050 C   0  0  0  0  0  3  0  0  0  0  0  0
  191.5970  176.9910  147.0420 C   0  0  0  0  0  2  0  0  0  0  0  0
  191.1990  176.4960  144.6120 C   0  0  0  0  0  2  0  0  0  0  0  0
  189.3760  177.9850  137.7590 C   0  0  0  0  0  0  0  0  0  0  0  0
  192.0790  175.9630  136.8600 O   0  0  0  0  0  1  0  0  0  0  0  0
  189.0670  178.9270  136.6440 C   0  0  0  0  0  1  0  0  0  0  0  0
  191.4700  176.2530  139.1090 C   0  0  0  0  0  3  0  0  0  0  0  0
  189.5680  177.5120  140.2110 C   0  0  0  0  0  0  0  0  0  0  0  0
  189.7340  176.5840  137.3940 C   0  0  0  0  0  2  0  0  0  0  0  0
  190.5680  176.6100  140.2210 C   0  0  0  0  0  3  0  0  0  0  0  0
  189.2770  178.3920  139.0350 C   0  0  0  0  0  0  0  0  0  0  0  0
  188.8470  179.6600  139.2640 F   0  0  0  0  0  0  0  0  0  0  0  0
  191.1280  176.2740  137.8220 C   0  0  0  0  0  0  0  0  0  0  0  0
  185.1600  178.3320  146.7360 C   0  0  0  0  0  2  0  0  0  0  0  0
  185.8550  179.4930  147.4180 C   0  0  0  0  0  1  0  0  0  0  0  0
  1  3  1  6  0  0  0
  1 15  1  0  0  0  0
  1  4  1  0  0  0  0
  2  5  1  0  0  0  0
  3 18  1  0  0  0  0
  4 10  1  0  0  0  0
  4  2  2  0  0  0  0
  5 17  2  0  0  0  0
  5 11  1  0  0  0  0
  6 19  1  0  0  0  0
  7 14  1  6  0  0  0
  7  2  1  0  0  0  0
  7 16  1  0  0  0  0
  9 11  1  0  0  0  0
  9  8  1  1  0  0  0
 10 12  2  0  0  0  0
 12 17  1  0  0  0  0
 13 10  1  0  0  0  0
 15 14  1  0  0  0  0
 16 20  1  6  0  0  0
 16  9  1  0  0  0  0
 17 31  1  0  0  0  0
 18 13  2  0  0  0  0
 19  8  1  0  0  0  0
 20  6  1  0  0  0  0
 21 28  2  0  0  0  0
 22 30  1  0  0  0  0
 23 21  1  0  0  0  0
 24 27  1  0  0  0  0
 25 27  2  0  0  0  0
 25 15  1  0  0  0  0
 26 21  1  0  0  0  0
 26 30  1  0  0  0  0
 28 29  1  0  0  0  0
 28 25  1  0  0  0  0
 30 24  2  0  0  0  0
 31 32  1  0  0  0  0
M  END
>  <MODEL>
3

>  <REMARK>
 VINA RESULT:     -10.4      1.484      4.499
  Name = 
  2 active torsions:
  status: ('A' for Active; 'I' for Inactive)
    1  A    between atoms: C_13  and  C_29
    2  A    between atoms: C_16  and  N_27
                            x       y       z     vdW  Elec       q    Type
                         _______ _______ _______ _____ _____    ______ ____

>  <TORSDO>
F 2

$$$$
=
 OpenBabel10272402123D

 32 37  0  0  1  0  0  0  0  0999 V2000
  190.0940  177.3290  142.8220 C   0  0  2  0  0  3  0  0  0  0  0  0
  188.2930  177.9000  144.4620 C   0  0  0  0  0  0  0  0  0  0  0  0
  191.0230  176.2090  142.6720 N   0  0  0  0  0  2  0  0  0  0  0  0
  189.5610  177.3810  144.2290 C   0  0  0  0  0  0  0  0  0  0  0  0
  187.7310  177.8360  145.7480 C   0  0  0  0  0  0  0  0  0  0  0  0
  183.7690  179.2760  142.7040 C   0  0  0  0  0  2  0  0  0  0  0  0
  187.5160  178.3460  143.2590 C   0  0  1  0  0  3  0  0  0  0  0  0
  184.0810  178.5810  145.0940 C   0  0  0  0  0  2  0  0  0  0  0  0
  185.4520  178.0100  144.7540 C   0  0  2  0  0  3  0  0  0  0  0  0
  190.3160  176.8470  145.2810 C   0  0  0  0  0  0  0  0  0  0  0  0
  186.3360  178.1030  145.9100 N   0  0  0  0  0  2  0  0  0  0  0  0
  189.8060  176.8830  146.5840 C   0  0  0  0  0  3  0  0  0  0  0  0
  191.5280  176.1330  144.9950 N   0  0  0  0  0  0  0  0  0  0  0  0
  187.6440  177.3140  142.2290 N   0  0  0  0  0  2  0  0  0  0  0  0
  189.0020  177.2730  141.8220 N   0  0  0  0  0  0  0  0  0  0  0  0
  186.0620  178.7670  143.5660 C   0  0  2  0  0  3  0  0  0  0  0  0
  188.5200  177.3900  146.8260 C   0  0  0  0  0  0  0  0  0  0  0  0
  191.8510  175.8100  143.7750 C   0  0  0  0  0  3  0  0  0  0  0  0
  183.1650  178.5010  143.8740 C   0  0  0  0  0  2  0  0  0  0  0  0
  185.1440  178.7180  142.3450 C   0  0  0  0  0  2  0  0  0  0  0  0
  188.0830  177.1890  138.2150 C   0  0  0  0  0  0  0  0  0  0  0  0
  190.9100  176.3220  136.3560 O   0  0  0  0  0  1  0  0  0  0  0  0
  187.0320  177.7260  137.3020 C   0  0  0  0  0  1  0  0  0  0  0  0
  191.0440  176.7070  138.6680 C   0  0  0  0  0  3  0  0  0  0  0  0
  189.2870  177.2490  140.4100 C   0  0  0  0  0  0  0  0  0  0  0  0
  188.8710  176.0150  137.7400 C   0  0  0  0  0  2  0  0  0  0  0  0
  190.5170  176.8450  140.0390 C   0  0  0  0  0  3  0  0  0  0  0  0
  188.2580  177.7260  139.4330 C   0  0  0  0  0  0  0  0  0  0  0  0
  187.4220  178.7280  139.8100 F   0  0  0  0  0  0  0  0  0  0  0  0
  190.3110  176.3730  137.6070 C   0  0  0  0  0  0  0  0  0  0  0  0
  187.9810  177.3720  148.2180 C   0  0  0  0  0  2  0  0  0  0  0  0
  188.6390  178.4590  149.0450 C   0  0  0  0  0  1  0  0  0  0  0  0
  1  3  1  1  0  0  0
  1  4  1  0  0  0  0
  2  5  1  0  0  0  0
  3 18  1  0  0  0  0
  4  2  2  0  0  0  0
  4 10  1  0  0  0  0
  5 11  1  0  0  0  0
  5 17  2  0  0  0  0
  6 19  1  0  0  0  0
  7 14  1  6  0  0  0
  7 16  1  0  0  0  0
  7  2  1  0  0  0  0
  9  8  1  1  0  0  0
  9 11  1  0  0  0  0
 10 12  2  0  0  0  0
 12 17  1  0  0  0  0
 13 10  1  0  0  0  0
 15 14  1  0  0  0  0
 15  1  1  0  0  0  0
 16 20  1  6  0  0  0
 16  9  1  0  0  0  0
 17 31  1  0  0  0  0
 18 13  2  0  0  0  0
 19  8  1  0  0  0  0
 20  6  1  0  0  0  0
 21 28  2  0  0  0  0
 22 30  1  0  0  0  0
 23 21  1  0  0  0  0
 24 27  1  0  0  0  0
 25 15  1  0  0  0  0
 26 21  1  0  0  0  0
 27 25  2  0  0  0  0
 28 29  1  0  0  0  0
 28 25  1  0  0  0  0
 30 26  1  0  0  0  0
 30 24  2  0  0  0  0
 31 32  1  0  0  0  0
M  END
>  <MODEL>
4

>  <REMARK>
 VINA RESULT:     -10.4      1.658      2.134
  Name = 
  2 active torsions:
  status: ('A' for Active; 'I' for Inactive)
    1  A    between atoms: C_13  and  C_29
    2  A    between atoms: C_16  and  N_27
                            x       y       z     vdW  Elec       q    Type
                         _______ _______ _______ _____ _____    ______ ____

>  <TORSDO>
F 2

$$$$
=
 OpenBabel10272402123D

 32 37  0  0  1  0  0  0  0  0999 V2000
  186.2840  178.6910  144.8560 C   0  0  2  0  0  3  0  0  0  0  0  0
  184.8450  178.9280  142.8230 C   0  0  0  0  0  0  0  0  0  0  0  0
  186.1550  177.9660  146.1200 N   0  0  0  0  0  2  0  0  0  0  0  0
  184.9350  178.8520  144.2080 C   0  0  0  0  0  0  0  0  0  0  0  0
  183.5880  178.9480  142.1980 C   0  0  0  0  0  0  0  0  0  0  0  0
  186.9340  178.2090  138.2880 C   0  0  0  0  0  2  0  0  0  0  0  0
  186.1300  178.8020  142.0570 C   0  0  1  0  0  3  0  0  0  0  0  0
  184.4440  178.1990  138.5900 C   0  0  0  0  0  2  0  0  0  0  0  0
  184.6240  178.0890  140.1000 C   0  0  2  0  0  3  0  0  0  0  0  0
  183.7770  178.8580  144.9970 C   0  0  0  0  0  0  0  0  0  0  0  0
  183.5100  178.7340  140.7860 N   0  0  0  0  0  2  0  0  0  0  0  0
  182.5260  178.9900  144.3850 C   0  0  0  0  0  3  0  0  0  0  0  0
  183.8730  178.5730  146.4010 N   0  0  0  0  0  0  0  0  0  0  0  0
  186.8880  177.6850  142.6250 N   0  0  0  0  0  2  0  0  0  0  0  0
  187.2570  178.0400  143.9480 N   0  0  0  0  0  0  0  0  0  0  0  0
  185.9480  178.7380  140.5250 C   0  0  2  0  0  3  0  0  0  0  0  0
  182.4260  179.0510  142.9860 C   0  0  0  0  0  0  0  0  0  0  0  0
  184.9790  178.1310  146.9280 C   0  0  0  0  0  3  0  0  0  0  0  0
  185.6230  177.5410  137.8760 C   0  0  0  0  0  2  0  0  0  0  0  0
  187.1350  178.1080  139.7980 C   0  0  0  0  0  2  0  0  0  0  0  0
  190.8410  177.2180  143.3650 C   0  0  0  0  0  0  0  0  0  0  0  0
  192.3280  176.4430  146.4290 O   0  0  0  0  0  1  0  0  0  0  0  0
  191.9010  177.4420  142.3390 C   0  0  0  0  0  1  0  0  0  0  0  0
  190.1200  177.2300  146.3120 C   0  0  0  0  0  3  0  0  0  0  0  0
  188.6200  177.8150  144.3560 C   0  0  0  0  0  0  0  0  0  0  0  0
  191.0450  176.0990  144.3300 C   0  0  0  0  0  2  0  0  0  0  0  0
  188.8320  177.5270  145.6540 C   0  0  0  0  0  3  0  0  0  0  0  0
  189.7310  177.9730  143.3640 C   0  0  0  0  0  0  0  0  0  0  0  0
  189.5950  178.9010  142.3810 F   0  0  0  0  0  0  0  0  0  0  0  0
  191.1470  176.6240  145.7210 C   0  0  0  0  0  0  0  0  0  0  0  0
  181.0750  179.1440  142.3570 C   0  0  0  0  0  2  0  0  0  0  0  0
  180.0210  178.6060  143.3050 C   0  0  0  0  0  1  0  0  0  0  0  0
  1  4  1  6  0  0  0
  1  3  1  0  0  0  0
  2  4  1  0  0  0  0
  3 18  1  0  0  0  0
  4 10  2  0  0  0  0
  5  2  2  0  0  0  0
  5 17  1  0  0  0  0
  6 20  1  0  0  0  0
  7 14  1  1  0  0  0
  7  2  1  0  0  0  0
  9  8  1  6  0  0  0
  9 16  1  0  0  0  0
  9 11  1  0  0  0  0
 10 13  1  0  0  0  0
 11  5  1  0  0  0  0
 12 10  1  0  0  0  0
 13 18  2  0  0  0  0
 14 15  1  0  0  0  0
 15 25  1  0  0  0  0
 15  1  1  0  0  0  0
 16 20  1  6  0  0  0
 16  7  1  0  0  0  0
 17 12  2  0  0  0  0
 19  6  1  0  0  0  0
 19  8  1  0  0  0  0
 21 26  1  0  0  0  0
 23 21  1  0  0  0  0
 25 27  2  0  0  0  0
 26 30  1  0  0  0  0
 27 24  1  0  0  0  0
 28 21  2  0  0  0  0
 28 25  1  0  0  0  0
 29 28  1  0  0  0  0
 30 24  2  0  0  0  0
 30 22  1  0  0  0  0
 31 17  1  0  0  0  0
 31 32  1  0  0  0  0
M  END
>  <MODEL>
5

>  <REMARK>
 VINA RESULT:     -10.2      2.936      5.322
  Name = 
  2 active torsions:
  status: ('A' for Active; 'I' for Inactive)
    1  A    between atoms: C_13  and  C_29
    2  A    between atoms: C_16  and  N_27
                            x       y       z     vdW  Elec       q    Type
                         _______ _______ _______ _____ _____    ______ ____

>  <TORSDO>
F 2

$$$$
=
 OpenBabel10272402123D

 32 37  0  0  1  0  0  0  0  0999 V2000
  190.4180  176.7720  142.5120 C   0  0  2  0  0  3  0  0  0  0  0  0
  188.3790  177.5000  141.2580 C   0  0  0  0  0  0  0  0  0  0  0  0
  191.8140  177.2060  142.5330 N   0  0  0  0  0  2  0  0  0  0  0  0
  189.7450  177.2400  141.2500 C   0  0  0  0  0  0  0  0  0  0  0  0
  187.7620  178.0590  140.1280 C   0  0  0  0  0  0  0  0  0  0  0  0
  184.1400  178.3920  143.8440 C   0  0  0  0  0  2  0  0  0  0  0  0
  187.6680  177.3260  142.5680 C   0  0  1  0  0  3  0  0  0  0  0  0
  184.4270  179.2140  141.4910 C   0  0  0  0  0  2  0  0  0  0  0  0
  185.9220  178.9260  141.5690 C   0  0  2  0  0  3  0  0  0  0  0  0
  190.5060  177.4730  140.0980 C   0  0  0  0  0  0  0  0  0  0  0  0
  186.4370  178.5850  140.2480 N   0  0  0  0  0  2  0  0  0  0  0  0
  189.8750  177.9250  138.9340 C   0  0  0  0  0  3  0  0  0  0  0  0
  191.9380  177.3980  140.1660 N   0  0  0  0  0  0  0  0  0  0  0  0
  188.4810  177.9540  143.6110 N   0  0  0  0  0  2  0  0  0  0  0  0
  189.6880  177.2170  143.7230 N   0  0  0  0  0  0  0  0  0  0  0  0
  186.1910  177.7770  142.5500 C   0  0  2  0  0  3  0  0  0  0  0  0
  188.5000  178.2060  138.9380 C   0  0  0  0  0  0  0  0  0  0  0  0
  192.5570  177.2970  141.3070 C   0  0  0  0  0  3  0  0  0  0  0  0
  183.8880  179.5520  142.8800 C   0  0  0  0  0  2  0  0  0  0  0  0
  185.6330  178.0890  143.9380 C   0  0  0  0  0  2  0  0  0  0  0  0
  189.6860  177.4030  147.4420 C   0  0  0  0  0  0  0  0  0  0  0  0
  192.6030  175.9020  148.6420 O   0  0  0  0  0  1  0  0  0  0  0  0
  188.7220  177.5860  148.5650 C   0  0  0  0  0  1  0  0  0  0  0  0
  192.0540  175.8440  146.3600 C   0  0  0  0  0  3  0  0  0  0  0  0
  190.1420  176.8540  145.0410 C   0  0  0  0  0  0  0  0  0  0  0  0
  191.1260  177.6740  147.7210 C   0  0  0  0  0  2  0  0  0  0  0  0
  191.3560  176.2790  145.1350 C   0  0  0  0  0  3  0  0  0  0  0  0
  189.2440  177.0580  146.2210 C   0  0  0  0  0  0  0  0  0  0  0  0
  187.9030  176.9310  146.0460 F   0  0  0  0  0  0  0  0  0  0  0  0
  191.9330  176.4330  147.5480 C   0  0  0  0  0  0  0  0  0  0  0  0
  187.8610  178.7330  137.6960 C   0  0  0  0  0  2  0  0  0  0  0  0
  188.7270  178.4190  136.4910 C   0  0  0  0  0  1  0  0  0  0  0  0
  1  4  1  6  0  0  0
  1  3  1  0  0  0  0
  1 15  1  0  0  0  0
  4  2  1  0  0  0  0
  5 11  1  0  0  0  0
  5  2  2  0  0  0  0
  6 20  1  0  0  0  0
  7  2  1  6  0  0  0
  7 14  1  0  0  0  0
  8 19  1  0  0  0  0
  9  8  1  6  0  0  0
  9 16  1  0  0  0  0
 10 13  1  0  0  0  0
 10  4  2  0  0  0  0
 11  9  1  0  0  0  0
 12 17  2  0  0  0  0
 12 10  1  0  0  0  0
 13 18  2  0  0  0  0
 14 15  1  0  0  0  0
 15 25  1  0  0  0  0
 16  7  1  0  0  0  0
 16 20  1  1  0  0  0
 17  5  1  0  0  0  0
 18  3  1  0  0  0  0
 19  6  1  0  0  0  0
 21 26  1  0  0  0  0
 21 23  1  0  0  0  0
 24 30  2  0  0  0  0
 25 27  2  0  0  0  0
 25 28  1  0  0  0  0
 27 24  1  0  0  0  0
 28 21  2  0  0  0  0
 29 28  1  0  0  0  0
 30 26  1  0  0  0  0
 30 22  1  0  0  0  0
 31 17  1  0  0  0  0
 32 31  1  0  0  0  0
M  END
>  <MODEL>
6

>  <REMARK>
 VINA RESULT:      -9.9      3.022      6.274
  Name = 
  2 active torsions:
  status: ('A' for Active; 'I' for Inactive)
    1  A    between atoms: C_13  and  C_29
    2  A    between atoms: C_16  and  N_27
                            x       y       z     vdW  Elec       q    Type
                         _______ _______ _______ _____ _____    ______ ____

>  <TORSDO>
F 2

$$$$
=
 OpenBabel10272402123D

 32 37  0  0  1  0  0  0  0  0999 V2000
  185.8020  178.8470  143.2980 C   0  0  2  0  0  3  0  0  0  0  0  0
  186.5240  178.6000  140.9150 C   0  0  0  0  0  0  0  0  0  0  0  0
  184.6740  178.3450  144.0820 N   0  0  0  0  0  2  0  0  0  0  0  0
  185.4890  178.7740  141.8280 C   0  0  0  0  0  0  0  0  0  0  0  0
  186.2370  178.4000  139.5550 C   0  0  0  0  0  0  0  0  0  0  0  0
  191.3000  177.2880  139.9590 C   0  0  0  0  0  2  0  0  0  0  0  0
  187.9050  178.4560  141.4830 C   0  0  1  0  0  3  0  0  0  0  0  0
  189.5240  177.1130  138.1960 C   0  0  0  0  0  2  0  0  0  0  0  0
  188.4460  177.2840  139.2600 C   0  0  2  0  0  3  0  0  0  0  0  0
  184.1580  178.8160  141.3940 C   0  0  0  0  0  0  0  0  0  0  0  0
  187.2750  177.9380  138.6870 N   0  0  0  0  0  2  0  0  0  0  0  0
  183.8750  178.7290  140.0270 C   0  0  0  0  0  3  0  0  0  0  0  0
  183.0960  178.7890  142.3590 N   0  0  0  0  0  0  0  0  0  0  0  0
  187.8360  177.5260  142.6110 N   0  0  0  0  0  2  0  0  0  0  0  0
  187.0590  178.1370  143.6300 N   0  0  0  0  0  0  0  0  0  0  0  0
  188.9850  178.1110  140.4350 C   0  0  2  0  0  3  0  0  0  0  0  0
  184.9110  178.5360  139.1010 C   0  0  0  0  0  0  0  0  0  0  0  0
  183.3300  178.5450  143.6170 C   0  0  0  0  0  3  0  0  0  0  0  0
  190.7560  176.4460  138.8050 C   0  0  0  0  0  2  0  0  0  0  0  0
  190.2350  177.4700  141.0380 C   0  0  0  0  0  2  0  0  0  0  0  0
  189.4880  177.1740  146.2820 C   0  0  0  0  0  0  0  0  0  0  0  0
  188.0180  177.7230  149.4030 O   0  0  0  0  0  1  0  0  0  0  0  0
  190.9560  176.9690  146.4530 C   0  0  0  0  0  1  0  0  0  0  0  0
  186.9470  178.3790  147.4200 C   0  0  0  0  0  3  0  0  0  0  0  0
  187.5640  178.1060  144.9780 C   0  0  0  0  0  0  0  0  0  0  0  0
  188.5860  176.5460  147.2900 C   0  0  0  0  0  2  0  0  0  0  0  0
  186.6890  178.3730  145.9660 C   0  0  0  0  0  3  0  0  0  0  0  0
  189.0200  177.8560  145.2240 C   0  0  0  0  0  0  0  0  0  0  0  0
  189.9190  178.3020  144.3090 F   0  0  0  0  0  0  0  0  0  0  0  0
  187.8280  177.5920  148.0340 C   0  0  0  0  0  0  0  0  0  0  0  0
  184.5770  178.3990  137.6520 C   0  0  0  0  0  2  0  0  0  0  0  0
  183.9320  177.0510  137.3920 C   0  0  0  0  0  1  0  0  0  0  0  0
  1  4  1  6  0  0  0
  1 15  1  0  0  0  0
  1  3  1  0  0  0  0
  2  4  1  0  0  0  0
  5  2  2  0  0  0  0
  6 20  1  0  0  0  0
  7  2  1  6  0  0  0
  7 14  1  0  0  0  0
  8 19  1  0  0  0  0
  9  8  1  6  0  0  0
  9 16  1  0  0  0  0
 10  4  2  0  0  0  0
 10 13  1  0  0  0  0
 11  9  1  0  0  0  0
 11  5  1  0  0  0  0
 12 10  1  0  0  0  0
 13 18  2  0  0  0  0
 14 15  1  0  0  0  0
 15 25  1  0  0  0  0
 16 20  1  1  0  0  0
 16  7  1  0  0  0  0
 17  5  1  0  0  0  0
 17 12  2  0  0  0  0
 18  3  1  0  0  0  0
 19  6  1  0  0  0  0
 21 23  1  0  0  0  0
 21 26  1  0  0  0  0
 24 30  2  0  0  0  0
 25 28  1  0  0  0  0
 25 27  2  0  0  0  0
 26 30  1  0  0  0  0
 27 24  1  0  0  0  0
 28 21  2  0  0  0  0
 29 28  1  0  0  0  0
 30 22  1  0  0  0  0
 31 17  1  0  0  0  0
 32 31  1  0  0  0  0
M  END
>  <MODEL>
7

>  <REMARK>
 VINA RESULT:      -9.9      3.043      7.315
  Name = 
  2 active torsions:
  status: ('A' for Active; 'I' for Inactive)
    1  A    between atoms: C_13  and  C_29
    2  A    between atoms: C_16  and  N_27
                            x       y       z     vdW  Elec       q    Type
                         _______ _______ _______ _____ _____    ______ ____

>  <TORSDO>
F 2

$$$$
=
 OpenBabel10272402123D

 32 37  0  0  1  0  0  0  0  0999 V2000
  185.0180  177.9930  143.5910 C   0  0  2  0  0  3  0  0  0  0  0  0
  187.3790  177.5120  144.2670 C   0  0  0  0  0  0  0  0  0  0  0  0
  184.0230  178.9880  143.9910 N   0  0  0  0  0  2  0  0  0  0  0  0
  186.0900  177.8770  144.6410 C   0  0  0  0  0  0  0  0  0  0  0  0
  188.4170  177.5250  145.2130 C   0  0  0  0  0  0  0  0  0  0  0  0
  190.8560  176.9310  140.6590 C   0  0  0  0  0  2  0  0  0  0  0  0
  187.6180  177.2930  142.8020 C   0  0  1  0  0  3  0  0  0  0  0  0
  191.5120  177.3430  143.0450 C   0  0  0  0  0  2  0  0  0  0  0  0
  190.0810  177.7560  143.3710 C   0  0  2  0  0  3  0  0  0  0  0  0
  185.8010  178.2000  145.9730 C   0  0  0  0  0  0  0  0  0  0  0  0
  189.7700  177.4330  144.7590 N   0  0  0  0  0  2  0  0  0  0  0  0
  186.8080  178.1070  146.9400 C   0  0  0  0  0  3  0  0  0  0  0  0
  184.5260  178.7700  146.3050 N   0  0  0  0  0  0  0  0  0  0  0  0
  186.9890  178.3940  142.0710 N   0  0  0  0  0  2  0  0  0  0  0  0
  185.5860  178.2910  142.2560 N   0  0  0  0  0  0  0  0  0  0  0  0
  189.0970  177.0430  142.4350 C   0  0  2  0  0  3  0  0  0  0  0  0
  188.1150  177.7550  146.5680 C   0  0  0  0  0  0  0  0  0  0  0  0
  183.6990  179.1630  145.3790 C   0  0  0  0  0  3  0  0  0  0  0  0
  191.8270  177.6640  141.5850 C   0  0  0  0  0  2  0  0  0  0  0  0
  189.4160  177.3330  140.9680 C   0  0  0  0  0  2  0  0  0  0  0  0
  184.8650  179.1240  138.6990 C   0  0  0  0  0  0  0  0  0  0  0  0
  181.4040  179.3330  138.2740 O   0  0  0  0  0  1  0  0  0  0  0  0
  185.5270  179.0560  137.3640 C   0  0  0  0  0  1  0  0  0  0  0  0
  182.3410  178.6240  140.3070 C   0  0  0  0  0  3  0  0  0  0  0  0
  184.7380  178.4150  141.0980 C   0  0  0  0  0  0  0  0  0  0  0  0
  183.7100  180.0570  138.8460 C   0  0  0  0  0  2  0  0  0  0  0  0
  183.4100  178.4720  141.3130 C   0  0  0  0  0  3  0  0  0  0  0  0
  185.3420  178.4040  139.7270 C   0  0  0  0  0  0  0  0  0  0  0  0
  186.4590  177.6610  139.5160 F   0  0  0  0  0  0  0  0  0  0  0  0
  182.4670  179.3000  139.1670 C   0  0  0  0  0  0  0  0  0  0  0  0
  189.1810  177.7100  147.6130 C   0  0  0  0  0  2  0  0  0  0  0  0
  188.5940  178.0410  148.9710 C   0  0  0  0  0  1  0  0  0  0  0  0
  1  3  1  1  0  0  0
  1  4  1  0  0  0  0
  2  4  2  0  0  0  0
  2  5  1  0  0  0  0
  3 18  1  0  0  0  0
  4 10  1  0  0  0  0
  5 17  2  0  0  0  0
  6 20  1  0  0  0  0
  6 19  1  0  0  0  0
  7 14  1  6  0  0  0
  7  2  1  0  0  0  0
  9  8  1  6  0  0  0
  9 11  1  0  0  0  0
 10 13  1  0  0  0  0
 10 12  2  0  0  0  0
 11  5  1  0  0  0  0
 14 15  1  0  0  0  0
 15  1  1  0  0  0  0
 16 20  1  6  0  0  0
 16  7  1  0  0  0  0
 16  9  1  0  0  0  0
 17 12  1  0  0  0  0
 17 31  1  0  0  0  0
 18 13  2  0  0  0  0
 19  8  1  0  0  0  0
 21 26  1  0  0  0  0
 21 28  2  0  0  0  0
 22 30  1  0  0  0  0
 23 21  1  0  0  0  0
 24 27  1  0  0  0  0
 25 27  2  0  0  0  0
 25 15  1  0  0  0  0
 26 30  1  0  0  0  0
 28 25  1  0  0  0  0
 29 28  1  0  0  0  0
 30 24  2  0  0  0  0
 31 32  1  0  0  0  0
M  END
>  <MODEL>
8

>  <REMARK>
 VINA RESULT:      -9.8      2.962      6.179
  Name = 
  2 active torsions:
  status: ('A' for Active; 'I' for Inactive)
    1  A    between atoms: C_13  and  C_29
    2  A    between atoms: C_16  and  N_27
                            x       y       z     vdW  Elec       q    Type
                         _______ _______ _______ _____ _____    ______ ____

>  <TORSDO>
F 2

$$$$
=
 OpenBabel10272402123D

 32 37  0  0  1  0  0  0  0  0999 V2000
  185.9570  178.5750  139.3080 C   0  0  2  0  0  3  0  0  0  0  0  0
  187.0300  178.4390  141.5650 C   0  0  0  0  0  0  0  0  0  0  0  0
  186.0030  177.7470  138.1030 N   0  0  0  0  0  2  0  0  0  0  0  0
  187.1430  178.2820  140.1870 C   0  0  0  0  0  0  0  0  0  0  0  0
  188.0820  178.0460  142.4070 C   0  0  0  0  0  0  0  0  0  0  0  0
  184.1230  178.9390  145.6570 C   0  0  0  0  0  2  0  0  0  0  0  0
  185.6880  178.8640  142.0860 C   0  0  1  0  0  3  0  0  0  0  0  0
  186.4370  177.9830  145.8130 C   0  0  0  0  0  2  0  0  0  0  0  0
  186.4740  177.8170  144.2980 C   0  0  2  0  0  3  0  0  0  0  0  0
  188.3270  177.7900  139.6230 C   0  0  0  0  0  0  0  0  0  0  0  0
  187.8450  177.9420  143.8130 N   0  0  0  0  0  2  0  0  0  0  0  0
  189.4180  177.5030  140.4500 C   0  0  0  0  0  3  0  0  0  0  0  0
  188.3580  177.4410  138.2310 N   0  0  0  0  0  0  0  0  0  0  0  0
  184.6660  178.0620  141.4120 N   0  0  0  0  0  2  0  0  0  0  0  0
  184.6770  178.4120  140.0360 N   0  0  0  0  0  0  0  0  0  0  0  0
  185.5830  178.8700  143.6260 C   0  0  2  0  0  3  0  0  0  0  0  0
  189.3070  177.6430  141.8420 C   0  0  0  0  0  0  0  0  0  0  0  0
  187.2670  177.3950  137.5200 C   0  0  0  0  0  3  0  0  0  0  0  0
  184.9980  177.8720  146.3140 C   0  0  0  0  0  2  0  0  0  0  0  0
  184.1450  178.7890  144.1380 C   0  0  0  0  0  2  0  0  0  0  0  0
  181.6900  177.4910  138.0130 C   0  0  0  0  0  0  0  0  0  0  0  0
  180.0800  180.4190  136.9930 O   0  0  0  0  0  1  0  0  0  0  0  0
  180.7870  176.3240  137.7950 C   0  0  0  0  0  1  0  0  0  0  0  0
  181.9030  180.4830  138.4710 C   0  0  0  0  0  3  0  0  0  0  0  0
  183.4160  178.6720  139.3920 C   0  0  0  0  0  0  0  0  0  0  0  0
  181.7140  178.5480  136.9610 C   0  0  0  0  0  2  0  0  0  0  0  0
  183.1100  179.9590  139.1390 C   0  0  0  0  0  3  0  0  0  0  0  0
  182.4810  177.5400  139.0980 C   0  0  0  0  0  0  0  0  0  0  0  0
  182.4580  176.4800  139.9460 F   0  0  0  0  0  0  0  0  0  0  0  0
  181.2320  179.8450  137.5140 C   0  0  0  0  0  0  0  0  0  0  0  0
  190.4720  177.2840  142.7040 C   0  0  0  0  0  2  0  0  0  0  0  0
  190.4820  175.7920  142.9710 C   0  0  0  0  0  1  0  0  0  0  0  0
  1  3  1  6  0  0  0
  1 15  1  0  0  0  0
  1  4  1  0  0  0  0
  2  7  1  0  0  0  0
  2  5  1  0  0  0  0
  4  2  2  0  0  0  0
  5 11  1  0  0  0  0
  6 19  1  0  0  0  0
  7 14  1  6  0  0  0
  7 16  1  0  0  0  0
  8 19  1  0  0  0  0
  9  8  1  1  0  0  0
 10  4  1  0  0  0  0
 10 12  2  0  0  0  0
 11  9  1  0  0  0  0
 12 17  1  0  0  0  0
 13 10  1  0  0  0  0
 15 14  1  0  0  0  0
 16 20  1  6  0  0  0
 16  9  1  0  0  0  0
 17  5  2  0  0  0  0
 17 31  1  0  0  0  0
 18  3  1  0  0  0  0
 18 13  2  0  0  0  0
 20  6  1  0  0  0  0
 21 28  2  0  0  0  0
 22 30  1  0  0  0  0
 23 21  1  0  0  0  0
 24 27  1  0  0  0  0
 25 15  1  0  0  0  0
 26 30  1  0  0  0  0
 26 21  1  0  0  0  0
 27 25  2  0  0  0  0
 28 25  1  0  0  0  0
 28 29  1  0  0  0  0
 30 24  2  0  0  0  0
 31 32  1  0  0  0  0
M  END
>  <MODEL>
9

>  <REMARK>
 VINA RESULT:      -9.6      3.624      7.009
  Name = 
  2 active torsions:
  status: ('A' for Active; 'I' for Inactive)
    1  A    between atoms: C_13  and  C_29
    2  A    between atoms: C_16  and  N_27
                            x       y       z     vdW  Elec       q    Type
                         _______ _______ _______ _____ _____    ______ ____

>  <TORSDO>
F 2

$$$$
