=
 OpenBabel10272400373D

 31 34  0  0  1  0  0  0  0  0999 V2000
  187.8110  177.5700  144.2010 C   0  0  0  0  0  0  0  0  0  0  0  0
  186.7090  178.0220  144.9710 C   0  0  0  0  0  0  0  0  0  0  0  0
  185.7140  178.5400  147.0640 C   0  0  0  0  0  3  0  0  0  0  0  0
  189.0520  177.1600  144.7550 C   0  0  0  0  0  0  0  0  0  0  0  0
  191.2610  177.0120  146.0080 C   0  0  2  0  0  3  0  0  0  0  0  0
  186.7690  178.1070  146.3280 N   0  0  0  0  0  2  0  0  0  0  0  0
  188.7190  177.0700  141.9670 C   0  0  0  0  0  0  0  0  0  0  0  0
  185.4280  178.3210  142.9330 C   0  0  0  0  0  3  0  0  0  0  0  0
  184.5590  178.9050  146.4500 N   0  0  0  0  0  0  0  0  0  0  0  0
  189.9340  176.6940  142.5530 C   0  0  0  0  0  3  0  0  0  0  0  0
  187.6610  177.5130  142.7850 C   0  0  0  0  0  0  0  0  0  0  0  0
  189.5020  177.1270  146.4880 S   0  0  0  0  0  0  0  0  0  0  0  0
  183.3480  179.1900  144.5620 O   0  0  0  0  0  0  0  0  0  0  0  0
  190.0850  176.7520  143.9330 C   0  0  0  0  0  0  0  0  0  0  0  0
  191.3490  176.3960  144.6180 C   0  0  0  0  0  2  0  0  0  0  0  0
  186.4870  177.8860  142.2080 N   0  0  0  0  0  0  0  0  0  0  0  0
  185.5130  178.3990  144.3230 C   0  0  0  0  0  0  0  0  0  0  0  0
  184.4350  178.8440  145.1000 C   0  0  0  0  0  0  0  0  0  0  0  0
  188.8690  179.2840  140.0180 O   0  0  0  0  0  0  0  0  0  0  0  0
  188.6120  178.1180  139.6210 C   0  0  0  0  0  0  0  0  0  0  0  0
  188.5320  177.0210  140.5440 N   0  0  0  0  0  2  0  0  0  0  0  0
  188.9740  179.0200  137.3390 C   0  0  0  0  0  1  0  0  0  0  0  0
  188.3910  177.8800  138.1630 C   0  0  2  0  0  3  0  0  0  0  0  0
  186.7260  177.2030  136.4170 C   0  0  0  0  0  1  0  0  0  0  0  0
  186.9100  177.6380  137.8610 C   0  0  2  0  0  3  0  0  0  0  0  0
  186.1370  178.8050  138.1300 O   0  0  0  0  0  0  0  0  0  0  0  0
  184.9810  178.7720  138.9130 C   0  0  0  0  0  0  0  0  0  0  0  0
  184.2370  177.7550  138.9240 O   0  0  0  0  0  0  0  0  0  0  0  0
  184.6530  179.8710  139.6940 O   0  0  0  0  0  1  0  0  0  0  0  0
  192.0290  176.1590  146.9980 C   0  0  0  0  0  2  0  0  0  0  0  0
  192.4120  174.9730  146.4010 F   0  0  0  0  0  0  0  0  0  0  0  0
  1  4  1  0  0  0  0
  1  2  2  0  0  0  0
  2  6  1  0  0  0  0
  4 12  1  0  0  0  0
  5 12  1  0  0  0  0
  5 30  1  1  0  0  0
  6  3  1  0  0  0  0
  7 10  2  0  0  0  0
  7 11  1  0  0  0  0
  8 17  2  0  0  0  0
  9  3  2  0  0  0  0
 10 14  1  0  0  0  0
 11  1  1  0  0  0  0
 13 18  2  0  0  0  0
 14 15  1  0  0  0  0
 14  4  2  0  0  0  0
 15  5  1  0  0  0  0
 16 11  2  0  0  0  0
 16  8  1  0  0  0  0
 17  2  1  0  0  0  0
 17 18  1  0  0  0  0
 18  9  1  0  0  0  0
 20 19  2  0  0  0  0
 20 21  1  0  0  0  0
 21  7  1  0  0  0  0
 23 22  1  6  0  0  0
 23 20  1  0  0  0  0
 25 24  1  6  0  0  0
 25 26  1  0  0  0  0
 25 23  1  0  0  0  0
 26 27  1  0  0  0  0
 27 28  2  0  0  0  0
 27 29  1  0  0  0  0
 31 30  1  0  0  0  0
M  END
>  <MODEL>
1

>  <REMARK>
 VINA RESULT:      -9.7      0.000      0.000
  Name = 
  6 active torsions:
  status: ('A' for Active; 'I' for Inactive)
    1  A    between atoms: C_1  and  O_24
    2  A    between atoms: C_2  and  C_13
    3  A    between atoms: C_9  and  C_22
    4  A    between atoms: C_15  and  N_23
    5  A    between atoms: C_19  and  C_22
    6  A    between atoms: C_19  and  O_24
                            x       y       z     vdW  Elec       q    Type
                         _______ _______ _______ _____ _____    ______ ____

>  <TORSDO>
F 6

$$$$
=
 OpenBabel10272400373D

 31 34  0  0  1  0  0  0  0  0999 V2000
  187.9460  177.6040  144.3310 C   0  0  0  0  0  0  0  0  0  0  0  0
  186.7750  178.0060  145.0260 C   0  0  0  0  0  0  0  0  0  0  0  0
  185.5990  178.4060  147.0490 C   0  0  0  0  0  3  0  0  0  0  0  0
  189.1400  177.1770  144.9680 C   0  0  0  0  0  0  0  0  0  0  0  0
  191.2360  176.9850  146.3960 C   0  0  2  0  0  3  0  0  0  0  0  0
  186.7190  178.0210  146.3850 N   0  0  0  0  0  0  0  0  0  0  0  0
  189.0470  177.2290  142.1610 C   0  0  0  0  0  0  0  0  0  0  0  0
  185.6690  178.3980  142.9030 C   0  0  0  0  0  3  0  0  0  0  0  0
  184.4950  178.7910  146.3580 N   0  0  0  0  0  2  0  0  0  0  0  0
  190.2120  176.8340  142.8280 C   0  0  0  0  0  3  0  0  0  0  0  0
  187.9180  177.6200  142.9060 C   0  0  0  0  0  0  0  0  0  0  0  0
  189.4410  177.0590  146.7290 S   0  0  0  0  0  0  0  0  0  0  0  0
  183.4470  179.1620  144.3890 O   0  0  0  0  0  0  0  0  0  0  0  0
  190.2450  176.8220  144.2170 C   0  0  0  0  0  0  0  0  0  0  0  0
  191.4500  176.4430  144.9890 C   0  0  0  0  0  2  0  0  0  0  0  0
  186.7920  178.0120  142.2500 N   0  0  0  0  0  0  0  0  0  0  0  0
  185.6350  178.4050  144.2970 C   0  0  0  0  0  0  0  0  0  0  0  0
  184.4880  178.7990  145.0000 C   0  0  0  0  0  0  0  0  0  0  0  0
  191.2530  177.5900  140.2300 O   0  0  0  0  0  0  0  0  0  0  0  0
  190.0760  177.4310  139.8130 C   0  0  0  0  0  0  0  0  0  0  0  0
  188.9830  177.2530  140.7260 N   0  0  0  0  0  2  0  0  0  0  0  0
  189.0500  178.6680  137.9240 C   0  0  0  0  0  1  0  0  0  0  0  0
  189.8230  177.4240  138.3400 C   0  0  2  0  0  3  0  0  0  0  0  0
  190.1380  175.1550  137.3240 C   0  0  0  0  0  1  0  0  0  0  0  0
  189.1290  176.1320  137.9050 C   0  0  2  0  0  3  0  0  0  0  0  0
  188.0970  176.3990  136.9590 O   0  0  0  0  0  0  0  0  0  0  0  0
  186.7940  175.9250  137.1190 C   0  0  0  0  0  0  0  0  0  0  0  0
  186.5650  174.6900  137.2250 O   0  0  0  0  0  1  0  0  0  0  0  0
  185.7400  176.8250  137.1690 O   0  0  0  0  0  0  0  0  0  0  0  0
  191.9280  176.0880  147.4040 C   0  0  0  0  0  2  0  0  0  0  0  0
  192.4730  174.9920  146.7630 F   0  0  0  0  0  0  0  0  0  0  0  0
  1  4  1  0  0  0  0
  1  2  1  0  0  0  0
  2  6  1  0  0  0  0
  4 12  1  0  0  0  0
  5 12  1  0  0  0  0
  5 30  1  1  0  0  0
  6  3  2  0  0  0  0
  7 10  2  0  0  0  0
  7 11  1  0  0  0  0
  8 17  1  0  0  0  0
  9  3  1  0  0  0  0
 10 14  1  0  0  0  0
 11  1  2  0  0  0  0
 13 18  2  0  0  0  0
 14  4  2  0  0  0  0
 14 15  1  0  0  0  0
 15  5  1  0  0  0  0
 16  8  2  0  0  0  0
 16 11  1  0  0  0  0
 17 18  1  0  0  0  0
 17  2  2  0  0  0  0
 18  9  1  0  0  0  0
 20 19  2  0  0  0  0
 20 21  1  0  0  0  0
 21  7  1  0  0  0  0
 23 22  1  1  0  0  0
 23 20  1  0  0  0  0
 25 24  1  6  0  0  0
 25 23  1  0  0  0  0
 26 27  1  0  0  0  0
 26 25  1  0  0  0  0
 27 29  2  0  0  0  0
 27 28  1  0  0  0  0
 31 30  1  0  0  0  0
M  END
>  <MODEL>
2

>  <REMARK>
 VINA RESULT:      -9.0      1.466      1.796
  Name = 
  6 active torsions:
  status: ('A' for Active; 'I' for Inactive)
    1  A    between atoms: C_1  and  O_24
    2  A    between atoms: C_2  and  C_13
    3  A    between atoms: C_9  and  C_22
    4  A    between atoms: C_15  and  N_23
    5  A    between atoms: C_19  and  C_22
    6  A    between atoms: C_19  and  O_24
                            x       y       z     vdW  Elec       q    Type
                         _______ _______ _______ _____ _____    ______ ____

>  <TORSDO>
F 6

$$$$
=
 OpenBabel10272400373D

 31 34  0  0  1  0  0  0  0  0999 V2000
  187.9500  177.6010  144.3820 C   0  0  0  0  0  0  0  0  0  0  0  0
  186.8080  178.0190  145.1120 C   0  0  0  0  0  0  0  0  0  0  0  0
  185.7030  178.4390  147.1710 C   0  0  0  0  0  3  0  0  0  0  0  0
  189.1590  177.1610  144.9810 C   0  0  0  0  0  0  0  0  0  0  0  0
  191.2970  176.9450  146.3420 C   0  0  2  0  0  3  0  0  0  0  0  0
  186.7950  178.0380  146.4730 N   0  0  0  0  0  2  0  0  0  0  0  0
  188.9770  177.2070  142.1780 C   0  0  0  0  0  0  0  0  0  0  0  0
  185.6390  178.4200  143.0250 C   0  0  0  0  0  3  0  0  0  0  0  0
  184.5820  178.8370  146.5150 N   0  0  0  0  0  0  0  0  0  0  0  0
  190.1570  176.7990  142.8090 C   0  0  0  0  0  3  0  0  0  0  0  0
  187.8760  177.6130  142.9580 C   0  0  0  0  0  0  0  0  0  0  0  0
  189.5150  177.0420  146.7320 S   0  0  0  0  0  0  0  0  0  0  0  0
  183.4750  179.2160  144.5800 O   0  0  0  0  0  0  0  0  0  0  0  0
  190.2340  176.7890  144.1960 C   0  0  0  0  0  0  0  0  0  0  0  0
  191.4590  176.3970  144.9300 C   0  0  0  0  0  2  0  0  0  0  0  0
  186.7350  178.0180  142.3380 N   0  0  0  0  0  0  0  0  0  0  0  0
  185.6500  178.4310  144.4200 C   0  0  0  0  0  0  0  0  0  0  0  0
  184.5310  178.8420  145.1580 C   0  0  0  0  0  0  0  0  0  0  0  0
  191.1170  177.5810  140.1770 O   0  0  0  0  0  0  0  0  0  0  0  0
  189.9290  177.4120  139.7980 C   0  0  0  0  0  0  0  0  0  0  0  0
  188.8670  177.2270  140.7460 N   0  0  0  0  0  2  0  0  0  0  0  0
  188.1630  177.0690  138.0900 C   0  0  0  0  0  1  0  0  0  0  0  0
  189.6280  177.4010  138.3340 C   0  0  2  0  0  3  0  0  0  0  0  0
  190.3660  176.5840  136.0830 C   0  0  0  0  0  1  0  0  0  0  0  0
  190.5730  176.4610  137.5840 C   0  0  2  0  0  3  0  0  0  0  0  0
  190.3890  175.1110  138.0010 O   0  0  0  0  0  0  0  0  0  0  0  0
  190.7690  174.0250  137.2100 C   0  0  0  0  0  0  0  0  0  0  0  0
  189.9060  173.2600  136.7040 O   0  0  0  0  0  0  0  0  0  0  0  0
  192.1170  173.7900  136.9730 O   0  0  0  0  0  1  0  0  0  0  0  0
  192.0100  176.0420  147.3300 C   0  0  0  0  0  2  0  0  0  0  0  0
  192.5600  174.9600  146.6680 F   0  0  0  0  0  0  0  0  0  0  0  0
  1  4  1  0  0  0  0
  1  2  2  0  0  0  0
  2  6  1  0  0  0  0
  4 12  1  0  0  0  0
  5 12  1  0  0  0  0
  5 30  1  1  0  0  0
  6  3  1  0  0  0  0
  7 10  2  0  0  0  0
  7 11  1  0  0  0  0
  8 17  2  0  0  0  0
  9  3  2  0  0  0  0
 10 14  1  0  0  0  0
 11  1  1  0  0  0  0
 13 18  2  0  0  0  0
 14 15  1  0  0  0  0
 14  4  2  0  0  0  0
 15  5  1  0  0  0  0
 16 11  2  0  0  0  0
 16  8  1  0  0  0  0
 17  2  1  0  0  0  0
 17 18  1  0  0  0  0
 18  9  1  0  0  0  0
 20 19  2  0  0  0  0
 20 21  1  0  0  0  0
 21  7  1  0  0  0  0
 23 22  1  1  0  0  0
 23 20  1  0  0  0  0
 25 24  1  6  0  0  0
 25 26  1  0  0  0  0
 25 23  1  0  0  0  0
 27 26  1  0  0  0  0
 28 27  2  0  0  0  0
 29 27  1  0  0  0  0
 31 30  1  0  0  0  0
M  END
>  <MODEL>
3

>  <REMARK>
 VINA RESULT:      -9.0      2.363      3.086
  Name = 
  6 active torsions:
  status: ('A' for Active; 'I' for Inactive)
    1  A    between atoms: C_1  and  O_24
    2  A    between atoms: C_2  and  C_13
    3  A    between atoms: C_9  and  C_22
    4  A    between atoms: C_15  and  N_23
    5  A    between atoms: C_19  and  C_22
    6  A    between atoms: C_19  and  O_24
                            x       y       z     vdW  Elec       q    Type
                         _______ _______ _______ _____ _____    ______ ____

>  <TORSDO>
F 6

$$$$
=
 OpenBabel10272400373D

 31 34  0  0  1  0  0  0  0  0999 V2000
  187.1840  178.0200  141.4350 C   0  0  0  0  0  0  0  0  0  0  0  0
  187.3180  178.2100  140.0350 C   0  0  0  0  0  0  0  0  0  0  0  0
  186.4140  178.8400  137.9330 C   0  0  0  0  0  3  0  0  0  0  0  0
  185.9880  178.2620  142.1590 C   0  0  0  0  0  0  0  0  0  0  0  0
  183.9000  179.2790  143.1970 C   0  0  2  0  0  3  0  0  0  0  0  0
  186.2850  178.6580  139.2720 N   0  0  0  0  0  0  0  0  0  0  0  0
  188.2470  177.3380  143.5500 C   0  0  0  0  0  0  0  0  0  0  0  0
  189.6240  177.4710  140.1710 C   0  0  0  0  0  3  0  0  0  0  0  0
  187.5960  178.5750  137.3190 N   0  0  0  0  0  2  0  0  0  0  0  0
  187.0530  177.6070  144.2280 C   0  0  0  0  0  3  0  0  0  0  0  0
  188.3180  177.5480  142.1590 C   0  0  0  0  0  0  0  0  0  0  0  0
  184.4290  178.8480  141.5010 S   0  0  0  0  0  0  0  0  0  0  0  0
  189.7480  177.8880  137.4250 O   0  0  0  0  0  0  0  0  0  0  0  0
  185.9470  178.0720  143.5270 C   0  0  0  0  0  0  0  0  0  0  0  0
  184.6620  178.4040  144.1830 C   0  0  0  0  0  2  0  0  0  0  0  0
  189.4850  177.2930  141.5070 N   0  0  0  0  0  0  0  0  0  0  0  0
  188.5510  177.9320  139.4090 C   0  0  0  0  0  0  0  0  0  0  0  0
  188.6650  178.1260  138.0250 C   0  0  0  0  0  0  0  0  0  0  0  0
  190.3710  178.9020  144.8770 O   0  0  0  0  0  0  0  0  0  0  0  0
  190.4240  177.6450  144.8830 C   0  0  0  0  0  0  0  0  0  0  0  0
  189.4070  176.8570  144.2470 N   0  0  0  0  0  2  0  0  0  0  0  0
  191.8740  175.6320  144.9100 C   0  0  0  0  0  1  0  0  0  0  0  0
  191.5660  176.9700  145.5700 C   0  0  2  0  0  3  0  0  0  0  0  0
  192.2290  175.7910  147.6790 C   0  0  0  0  0  1  0  0  0  0  0  0
  191.3060  176.8340  147.0710 C   0  0  2  0  0  3  0  0  0  0  0  0
  189.9450  176.5000  147.3260 O   0  0  0  0  0  0  0  0  0  0  0  0
  189.0400  177.4120  147.8720 C   0  0  0  0  0  0  0  0  0  0  0  0
  189.4370  178.3530  148.6100 O   0  0  0  0  0  1  0  0  0  0  0  0
  187.6870  177.2840  147.5930 O   0  0  0  0  0  0  0  0  0  0  0  0
  182.4080  179.0610  143.3600 C   0  0  0  0  0  2  0  0  0  0  0  0
  182.1580  178.3760  144.5350 F   0  0  0  0  0  0  0  0  0  0  0  0
  1  4  2  0  0  0  0
  1 11  1  0  0  0  0
  2  1  1  0  0  0  0
  3  6  2  0  0  0  0
  4 14  1  0  0  0  0
  5 30  1  6  0  0  0
  5 15  1  0  0  0  0
  6  2  1  0  0  0  0
  7 10  1  0  0  0  0
  7 21  1  0  0  0  0
  8 16  2  0  0  0  0
  9  3  1  0  0  0  0
  9 18  1  0  0  0  0
 11  7  2  0  0  0  0
 12  4  1  0  0  0  0
 12  5  1  0  0  0  0
 13 18  2  0  0  0  0
 14 15  1  0  0  0  0
 14 10  2  0  0  0  0
 16 11  1  0  0  0  0
 17  2  2  0  0  0  0
 17  8  1  0  0  0  0
 18 17  1  0  0  0  0
 19 20  2  0  0  0  0
 20 23  1  0  0  0  0
 21 20  1  0  0  0  0
 23 22  1  6  0  0  0
 23 25  1  0  0  0  0
 25 26  1  0  0  0  0
 25 24  1  6  0  0  0
 26 27  1  0  0  0  0
 27 28  1  0  0  0  0
 29 27  2  0  0  0  0
 30 31  1  0  0  0  0
M  END
>  <MODEL>
4

>  <REMARK>
 VINA RESULT:      -8.8      3.710      7.680
  Name = 
  6 active torsions:
  status: ('A' for Active; 'I' for Inactive)
    1  A    between atoms: C_1  and  O_24
    2  A    between atoms: C_2  and  C_13
    3  A    between atoms: C_9  and  C_22
    4  A    between atoms: C_15  and  N_23
    5  A    between atoms: C_19  and  C_22
    6  A    between atoms: C_19  and  O_24
                            x       y       z     vdW  Elec       q    Type
                         _______ _______ _______ _____ _____    ______ ____

>  <TORSDO>
F 6

$$$$
=
 OpenBabel10272400373D

 31 34  0  0  1  0  0  0  0  0999 V2000
  186.5540  178.1580  141.9630 C   0  0  0  0  0  0  0  0  0  0  0  0
  186.8550  178.3020  140.5840 C   0  0  0  0  0  0  0  0  0  0  0  0
  186.1990  178.8200  138.3620 C   0  0  0  0  0  3  0  0  0  0  0  0
  185.2690  178.3760  142.5220 C   0  0  0  0  0  0  0  0  0  0  0  0
  183.0320  179.3440  143.2520 C   0  0  2  0  0  3  0  0  0  0  0  0
  185.9110  178.6800  139.6800 N   0  0  0  0  0  0  0  0  0  0  0  0
  187.3680  177.5950  144.2180 C   0  0  0  0  0  0  0  0  0  0  0  0
  189.1520  177.6630  141.0330 C   0  0  0  0  0  3  0  0  0  0  0  0
  187.4580  178.5810  137.9100 N   0  0  0  0  0  2  0  0  0  0  0  0
  186.0890  177.8400  144.7320 C   0  0  0  0  0  3  0  0  0  0  0  0
  187.6050  177.7580  142.8390 C   0  0  0  0  0  0  0  0  0  0  0  0
  183.7840  178.8740  141.6540 S   0  0  0  0  0  0  0  0  0  0  0  0
  189.6030  177.9870  138.3090 O   0  0  0  0  0  0  0  0  0  0  0  0
  185.0640  178.2340  143.8820 C   0  0  0  0  0  0  0  0  0  0  0  0
  183.6960  178.5360  144.3600 C   0  0  0  0  0  2  0  0  0  0  0  0
  188.8530  177.5270  142.3480 N   0  0  0  0  0  0  0  0  0  0  0  0
  188.1660  178.0520  140.1260 C   0  0  0  0  0  0  0  0  0  0  0  0
  188.4450  178.2010  138.7600 C   0  0  0  0  0  0  0  0  0  0  0  0
  187.7390  178.1410  147.0970 O   0  0  0  0  0  0  0  0  0  0  0  0
  188.6000  177.4690  146.4720 C   0  0  0  0  0  0  0  0  0  0  0  0
  188.4480  177.1870  145.0720 N   0  0  0  0  0  2  0  0  0  0  0  0
  190.1950  177.9200  148.3180 C   0  0  0  0  0  1  0  0  0  0  0  0
  189.7960  176.9570  147.2070 C   0  0  2  0  0  3  0  0  0  0  0  0
  192.0070  175.8110  146.9310 C   0  0  0  0  0  1  0  0  0  0  0  0
  190.9500  176.6630  146.2470 C   0  0  2  0  0  3  0  0  0  0  0  0
  191.5280  177.8690  145.7560 O   0  0  0  0  0  0  0  0  0  0  0  0
  191.6350  178.1460  144.3920 C   0  0  0  0  0  0  0  0  0  0  0  0
  191.9290  177.2380  143.5700 O   0  0  0  0  0  0  0  0  0  0  0  0
  191.4070  179.4370  143.9370 O   0  0  0  0  0  1  0  0  0  0  0  0
  181.5410  179.0710  143.2380 C   0  0  0  0  0  2  0  0  0  0  0  0
  181.1540  178.5050  144.4390 F   0  0  0  0  0  0  0  0  0  0  0  0
  1  4  2  0  0  0  0
  1 11  1  0  0  0  0
  2  1  1  0  0  0  0
  3  6  2  0  0  0  0
  4 14  1  0  0  0  0
  5 30  1  6  0  0  0
  5 15  1  0  0  0  0
  6  2  1  0  0  0  0
  7 10  1  0  0  0  0
  7 21  1  0  0  0  0
  8 16  2  0  0  0  0
  9  3  1  0  0  0  0
  9 18  1  0  0  0  0
 11  7  2  0  0  0  0
 12  4  1  0  0  0  0
 12  5  1  0  0  0  0
 13 18  2  0  0  0  0
 14 15  1  0  0  0  0
 14 10  2  0  0  0  0
 16 11  1  0  0  0  0
 17  2  2  0  0  0  0
 17  8  1  0  0  0  0
 18 17  1  0  0  0  0
 20 19  2  0  0  0  0
 20 23  1  0  0  0  0
 21 20  1  0  0  0  0
 23 22  1  1  0  0  0
 25 24  1  1  0  0  0
 25 23  1  0  0  0  0
 26 25  1  0  0  0  0
 27 26  1  0  0  0  0
 28 27  2  0  0  0  0
 29 27  1  0  0  0  0
 30 31  1  0  0  0  0
M  END
>  <MODEL>
5

>  <REMARK>
 VINA RESULT:      -8.5      3.588      7.689
  Name = 
  6 active torsions:
  status: ('A' for Active; 'I' for Inactive)
    1  A    between atoms: C_1  and  O_24
    2  A    between atoms: C_2  and  C_13
    3  A    between atoms: C_9  and  C_22
    4  A    between atoms: C_15  and  N_23
    5  A    between atoms: C_19  and  C_22
    6  A    between atoms: C_19  and  O_24
                            x       y       z     vdW  Elec       q    Type
                         _______ _______ _______ _____ _____    ______ ____

>  <TORSDO>
F 6

$$$$
=
 OpenBabel10272400373D

 31 34  0  0  1  0  0  0  0  0999 V2000
  188.1900  177.8650  143.5730 C   0  0  0  0  0  0  0  0  0  0  0  0
  188.8010  177.5550  144.8160 C   0  0  0  0  0  0  0  0  0  0  0  0
  188.6840  177.2710  147.1690 C   0  0  0  0  0  3  0  0  0  0  0  0
  186.8250  178.2240  143.4260 C   0  0  0  0  0  0  0  0  0  0  0  0
  184.2820  178.3030  143.4570 C   0  0  2  0  0  3  0  0  0  0  0  0
  188.0990  177.5690  145.9810 N   0  0  0  0  0  2  0  0  0  0  0  0
  188.4520  178.1270  141.1380 C   0  0  0  0  0  0  0  0  0  0  0  0
  190.9100  177.1980  143.6730 C   0  0  0  0  0  3  0  0  0  0  0  0
  190.0020  176.9470  147.2190 N   0  0  0  0  0  0  0  0  0  0  0  0
  187.0950  178.4560  141.0350 C   0  0  0  0  0  3  0  0  0  0  0  0
  189.0000  177.8260  142.4000 C   0  0  0  0  0  0  0  0  0  0  0  0
  185.5980  178.3550  144.7240 S   0  0  0  0  0  0  0  0  0  0  0  0
  191.9770  176.6100  146.1720 O   0  0  0  0  0  0  0  0  0  0  0  0
  186.3020  178.4910  142.1750 C   0  0  0  0  0  0  0  0  0  0  0  0
  184.8550  178.8040  142.1380 C   0  0  0  0  0  2  0  0  0  0  0  0
  190.3170  177.4970  142.4920 N   0  0  0  0  0  0  0  0  0  0  0  0
  190.1700  177.2190  144.8550 C   0  0  0  0  0  0  0  0  0  0  0  0
  190.7560  176.9140  146.0910 C   0  0  0  0  0  0  0  0  0  0  0  0
  187.8460  177.0200  138.4670 O   0  0  0  0  0  0  0  0  0  0  0  0
  188.9730  177.5350  138.6900 C   0  0  0  0  0  0  0  0  0  0  0  0
  189.2970  178.0820  139.9770 N   0  0  0  0  0  2  0  0  0  0  0  0
  189.2930  177.6780  136.2350 C   0  0  0  0  0  1  0  0  0  0  0  0
  189.9820  177.5780  137.5890 C   0  0  2  0  0  3  0  0  0  0  0  0
  190.1630  175.0810  137.7110 C   0  0  0  0  0  1  0  0  0  0  0  0
  190.9390  176.3870  137.6710 C   0  0  2  0  0  3  0  0  0  0  0  0
  191.7900  176.4920  138.8100 O   0  0  0  0  0  0  0  0  0  0  0  0
  193.1290  176.8720  138.7110 C   0  0  0  0  0  0  0  0  0  0  0  0
  193.7120  176.8970  137.5940 O   0  0  0  0  0  0  0  0  0  0  0  0
  193.8240  177.2340  139.8560 O   0  0  0  0  0  1  0  0  0  0  0  0
  183.1100  179.1700  143.8720 C   0  0  0  0  0  2  0  0  0  0  0  0
  182.9820  179.1630  145.2480 F   0  0  0  0  0  0  0  0  0  0  0  0
  1  2  2  0  0  0  0
  2 17  1  0  0  0  0
  2  6  1  0  0  0  0
  3  9  2  0  0  0  0
  4  1  1  0  0  0  0
  4 12  1  0  0  0  0
  5 30  1  1  0  0  0
  5 12  1  0  0  0  0
  6  3  1  0  0  0  0
  7 11  1  0  0  0  0
  8 17  2  0  0  0  0
 10  7  2  0  0  0  0
 10 14  1  0  0  0  0
 11 16  2  0  0  0  0
 11  1  1  0  0  0  0
 14  4  2  0  0  0  0
 15 14  1  0  0  0  0
 15  5  1  0  0  0  0
 16  8  1  0  0  0  0
 17 18  1  0  0  0  0
 18 13  2  0  0  0  0
 18  9  1  0  0  0  0
 19 20  2  0  0  0  0
 20 21  1  0  0  0  0
 21  7  1  0  0  0  0
 23 22  1  6  0  0  0
 23 25  1  0  0  0  0
 23 20  1  0  0  0  0
 25 24  1  1  0  0  0
 25 26  1  0  0  0  0
 27 26  1  0  0  0  0
 27 29  1  0  0  0  0
 28 27  2  0  0  0  0
 30 31  1  0  0  0  0
M  END
>  <MODEL>
6

>  <REMARK>
 VINA RESULT:      -8.4      3.451      5.617
  Name = 
  6 active torsions:
  status: ('A' for Active; 'I' for Inactive)
    1  A    between atoms: C_1  and  O_24
    2  A    between atoms: C_2  and  C_13
    3  A    between atoms: C_9  and  C_22
    4  A    between atoms: C_15  and  N_23
    5  A    between atoms: C_19  and  C_22
    6  A    between atoms: C_19  and  O_24
                            x       y       z     vdW  Elec       q    Type
                         _______ _______ _______ _____ _____    ______ ____

>  <TORSDO>
F 6

$$$$
=
 OpenBabel10272400373D

 31 34  0  0  1  0  0  0  0  0999 V2000
  188.3660  177.7030  144.2350 C   0  0  0  0  0  0  0  0  0  0  0  0
  189.0670  177.4530  145.4430 C   0  0  0  0  0  0  0  0  0  0  0  0
  189.1310  177.3150  147.8120 C   0  0  0  0  0  3  0  0  0  0  0  0
  187.0020  178.0880  144.1730 C   0  0  0  0  0  0  0  0  0  0  0  0
  184.4720  178.2370  144.3970 C   0  0  2  0  0  3  0  0  0  0  0  0
  188.4610  177.5560  146.6570 N   0  0  0  0  0  2  0  0  0  0  0  0
  188.4380  177.8090  141.7750 C   0  0  0  0  0  0  0  0  0  0  0  0
  191.0700  176.9710  144.1630 C   0  0  0  0  0  3  0  0  0  0  0  0
  190.4420  176.9600  147.7790 N   0  0  0  0  0  0  0  0  0  0  0  0
  187.0860  178.1680  141.7580 C   0  0  0  0  0  3  0  0  0  0  0  0
  189.0790  177.5710  143.0070 C   0  0  0  0  0  0  0  0  0  0  0  0
  185.8850  178.3300  145.5520 S   0  0  0  0  0  0  0  0  0  0  0  0
  192.3200  176.5080  146.6030 O   0  0  0  0  0  0  0  0  0  0  0  0
  186.3860  178.2930  142.9520 C   0  0  0  0  0  0  0  0  0  0  0  0
  184.9490  178.6410  143.0080 C   0  0  0  0  0  2  0  0  0  0  0  0
  190.3910  177.2140  143.0160 N   0  0  0  0  0  0  0  0  0  0  0  0
  190.4280  177.0830  145.3960 C   0  0  0  0  0  0  0  0  0  0  0  0
  191.1030  176.8390  146.5990 C   0  0  0  0  0  0  0  0  0  0  0  0
  187.7490  178.7870  139.0750 O   0  0  0  0  0  0  0  0  0  0  0  0
  188.8240  178.1590  139.2570 C   0  0  0  0  0  0  0  0  0  0  0  0
  189.1870  177.6710  140.5570 N   0  0  0  0  0  2  0  0  0  0  0  0
  189.0340  178.2720  136.7880 C   0  0  0  0  0  1  0  0  0  0  0  0
  189.7340  177.9250  138.0950 C   0  0  2  0  0  3  0  0  0  0  0  0
  191.7750  176.5010  138.3920 C   0  0  0  0  0  1  0  0  0  0  0  0
  190.2830  176.4970  138.1020 C   0  0  2  0  0  3  0  0  0  0  0  0
  190.0210  175.8420  136.8640 O   0  0  0  0  0  0  0  0  0  0  0  0
  189.3890  174.5990  136.7940 C   0  0  0  0  0  0  0  0  0  0  0  0
  188.2700  174.4740  136.2300 O   0  0  0  0  0  0  0  0  0  0  0  0
  190.0060  173.4860  137.3470 O   0  0  0  0  0  1  0  0  0  0  0  0
  183.3550  179.1590  144.8470 C   0  0  0  0  0  2  0  0  0  0  0  0
  182.3590  179.1940  143.8900 F   0  0  0  0  0  0  0  0  0  0  0  0
  1  2  2  0  0  0  0
  2  6  1  0  0  0  0
  4  1  1  0  0  0  0
  4 12  1  0  0  0  0
  5 30  1  1  0  0  0
  5 12  1  0  0  0  0
  6  3  1  0  0  0  0
  7 11  1  0  0  0  0
  8 17  2  0  0  0  0
  9  3  2  0  0  0  0
 10  7  2  0  0  0  0
 10 14  1  0  0  0  0
 11 16  2  0  0  0  0
 11  1  1  0  0  0  0
 14 15  1  0  0  0  0
 14  4  2  0  0  0  0
 15  5  1  0  0  0  0
 16  8  1  0  0  0  0
 17  2  1  0  0  0  0
 17 18  1  0  0  0  0
 18 13  2  0  0  0  0
 18  9  1  0  0  0  0
 19 20  2  0  0  0  0
 20 21  1  0  0  0  0
 21  7  1  0  0  0  0
 23 22  1  6  0  0  0
 23 25  1  0  0  0  0
 23 20  1  0  0  0  0
 25 24  1  6  0  0  0
 26 25  1  0  0  0  0
 27 26  1  0  0  0  0
 27 29  1  0  0  0  0
 28 27  2  0  0  0  0
 31 30  1  0  0  0  0
M  END
>  <MODEL>
7

>  <REMARK>
 VINA RESULT:      -8.2      3.515      5.309
  Name = 
  6 active torsions:
  status: ('A' for Active; 'I' for Inactive)
    1  A    between atoms: C_1  and  O_24
    2  A    between atoms: C_2  and  C_13
    3  A    between atoms: C_9  and  C_22
    4  A    between atoms: C_15  and  N_23
    5  A    between atoms: C_19  and  C_22
    6  A    between atoms: C_19  and  O_24
                            x       y       z     vdW  Elec       q    Type
                         _______ _______ _______ _____ _____    ______ ____

>  <TORSDO>
F 6

$$$$
=
 OpenBabel10272400373D

 31 34  0  0  1  0  0  0  0  0999 V2000
  188.3050  177.6880  143.4970 C   0  0  0  0  0  0  0  0  0  0  0  0
  189.6010  177.5460  142.9360 C   0  0  0  0  0  0  0  0  0  0  0  0
  191.9530  177.3430  143.1780 C   0  0  0  0  0  3  0  0  0  0  0  0
  188.0480  177.7840  144.8900 C   0  0  0  0  0  0  0  0  0  0  0  0
  187.9050  177.3980  147.4000 C   0  0  2  0  0  3  0  0  0  0  0  0
  190.7140  177.4800  143.7150 N   0  0  0  0  0  0  0  0  0  0  0  0
  185.8820  177.8920  143.1040 C   0  0  0  0  0  0  0  0  0  0  0  0
  188.6220  177.5340  140.7170 C   0  0  0  0  0  3  0  0  0  0  0  0
  192.1080  177.2680  141.8300 N   0  0  0  0  0  2  0  0  0  0  0  0
  185.6710  177.9620  144.4860 C   0  0  0  0  0  3  0  0  0  0  0  0
  187.1930  177.7490  142.6080 C   0  0  0  0  0  0  0  0  0  0  0  0
  189.2520  177.7420  146.2140 S   0  0  0  0  0  0  0  0  0  0  0  0
  191.2150  177.2550  139.7530 O   0  0  0  0  0  0  0  0  0  0  0  0
  186.7520  177.8990  145.3560 C   0  0  0  0  0  0  0  0  0  0  0  0
  186.6020  177.9400  146.8280 C   0  0  0  0  0  2  0  0  0  0  0  0
  187.3890  177.6700  141.2640 N   0  0  0  0  0  0  0  0  0  0  0  0
  189.7490  177.4680  141.5350 C   0  0  0  0  0  0  0  0  0  0  0  0
  191.0370  177.3270  140.9990 C   0  0  0  0  0  0  0  0  0  0  0  0
  185.4160  179.8430  140.9360 O   0  0  0  0  0  0  0  0  0  0  0  0
  184.5860  178.9170  141.1340 C   0  0  0  0  0  0  0  0  0  0  0  0
  184.7850  177.9540  142.1790 N   0  0  0  0  0  2  0  0  0  0  0  0
  182.5130  177.6400  140.6620 C   0  0  0  0  0  1  0  0  0  0  0  0
  183.3790  178.8260  140.2590 C   0  0  2  0  0  3  0  0  0  0  0  0
  182.5320  178.6960  137.9040 C   0  0  0  0  0  1  0  0  0  0  0  0
  183.7700  178.7870  138.7800 C   0  0  2  0  0  3  0  0  0  0  0  0
  184.6480  177.6980  138.5120 O   0  0  0  0  0  0  0  0  0  0  0  0
  185.8290  177.8500  137.7820 C   0  0  0  0  0  0  0  0  0  0  0  0
  186.5740  178.8500  137.9620 O   0  0  0  0  0  1  0  0  0  0  0  0
  186.1880  176.8840  136.8530 O   0  0  0  0  0  0  0  0  0  0  0  0
  188.1930  178.0530  148.7370 C   0  0  0  0  0  2  0  0  0  0  0  0
  189.5060  178.4830  148.7780 F   0  0  0  0  0  0  0  0  0  0  0  0
  1  4  1  0  0  0  0
  2  1  1  0  0  0  0
  2  6  1  0  0  0  0
  3  6  2  0  0  0  0
  4 14  2  0  0  0  0
  4 12  1  0  0  0  0
  5 30  1  1  0  0  0
  7 10  2  0  0  0  0
  8 16  2  0  0  0  0
  8 17  1  0  0  0  0
  9  3  1  0  0  0  0
 10 14  1  0  0  0  0
 11  7  1  0  0  0  0
 11  1  2  0  0  0  0
 12  5  1  0  0  0  0
 13 18  2  0  0  0  0
 14 15  1  0  0  0  0
 15  5  1  0  0  0  0
 16 11  1  0  0  0  0
 17  2  2  0  0  0  0
 18 17  1  0  0  0  0
 18  9  1  0  0  0  0
 19 20  2  0  0  0  0
 20 21  1  0  0  0  0
 21  7  1  0  0  0  0
 23 22  1  1  0  0  0
 23 20  1  0  0  0  0
 25 24  1  6  0  0  0
 25 23  1  0  0  0  0
 26 25  1  0  0  0  0
 27 28  1  0  0  0  0
 27 26  1  0  0  0  0
 29 27  2  0  0  0  0
 30 31  1  0  0  0  0
M  END
>  <MODEL>
8

>  <REMARK>
 VINA RESULT:      -8.1      2.315      4.791
  Name = 
  6 active torsions:
  status: ('A' for Active; 'I' for Inactive)
    1  A    between atoms: C_1  and  O_24
    2  A    between atoms: C_2  and  C_13
    3  A    between atoms: C_9  and  C_22
    4  A    between atoms: C_15  and  N_23
    5  A    between atoms: C_19  and  C_22
    6  A    between atoms: C_19  and  O_24
                            x       y       z     vdW  Elec       q    Type
                         _______ _______ _______ _____ _____    ______ ____

>  <TORSDO>
F 6

$$$$
=
 OpenBabel10272400373D

 31 34  0  0  1  0  0  0  0  0999 V2000
  188.1720  177.8360  143.5190 C   0  0  0  0  0  0  0  0  0  0  0  0
  189.4390  177.6430  142.9100 C   0  0  0  0  0  0  0  0  0  0  0  0
  191.7780  177.2700  143.0630 C   0  0  0  0  0  3  0  0  0  0  0  0
  187.9620  177.8650  144.9230 C   0  0  0  0  0  0  0  0  0  0  0  0
  187.8630  177.3380  147.4090 C   0  0  2  0  0  3  0  0  0  0  0  0
  190.5670  177.4560  143.6470 N   0  0  0  0  0  0  0  0  0  0  0  0
  185.7590  178.2240  143.2170 C   0  0  0  0  0  0  0  0  0  0  0  0
  188.4000  177.8300  140.7260 C   0  0  0  0  0  3  0  0  0  0  0  0
  191.8900  177.2660  141.7100 N   0  0  0  0  0  2  0  0  0  0  0  0
  185.5920  178.2250  144.6070 C   0  0  0  0  0  3  0  0  0  0  0  0
  187.0420  178.0250  142.6710 C   0  0  0  0  0  0  0  0  0  0  0  0
  189.1970  177.6620  146.2030 S   0  0  0  0  0  0  0  0  0  0  0  0
  190.9390  177.4380  139.6650 O   0  0  0  0  0  0  0  0  0  0  0  0
  186.6910  178.0370  145.4370 C   0  0  0  0  0  0  0  0  0  0  0  0
  186.5850  177.9990  146.9130 C   0  0  0  0  0  2  0  0  0  0  0  0
  187.1950  178.0150  141.3190 N   0  0  0  0  0  0  0  0  0  0  0  0
  189.5420  177.6400  141.5030 C   0  0  0  0  0  0  0  0  0  0  0  0
  190.8020  177.4470  140.9180 C   0  0  0  0  0  0  0  0  0  0  0  0
  182.9670  178.8980  143.9050 O   0  0  0  0  0  0  0  0  0  0  0  0
  183.2940  178.7430  142.6990 C   0  0  0  0  0  0  0  0  0  0  0  0
  184.6430  178.4150  142.3330 N   0  0  0  0  0  2  0  0  0  0  0  0
  180.8850  178.5010  142.1620 C   0  0  0  0  0  1  0  0  0  0  0  0
  182.2550  178.9080  141.6380 C   0  0  2  0  0  3  0  0  0  0  0  0
  183.0560  179.1260  139.2740 C   0  0  0  0  0  1  0  0  0  0  0  0
  182.6420  178.1530  140.3650 C   0  0  2  0  0  3  0  0  0  0  0  0
  181.5700  177.3290  139.9130 O   0  0  0  0  0  0  0  0  0  0  0  0
  181.7390  175.9750  139.6190 C   0  0  0  0  0  0  0  0  0  0  0  0
  180.8300  175.1410  139.8730 O   0  0  0  0  0  1  0  0  0  0  0  0
  182.9210  175.5450  139.0340 O   0  0  0  0  0  0  0  0  0  0  0  0
  188.2330  177.8890  148.7720 C   0  0  0  0  0  2  0  0  0  0  0  0
  189.4860  178.4710  148.7210 F   0  0  0  0  0  0  0  0  0  0  0  0
  1  4  1  0  0  0  0
  2  1  1  0  0  0  0
  2  6  1  0  0  0  0
  3  6  2  0  0  0  0
  4 14  2  0  0  0  0
  4 12  1  0  0  0  0
  5 30  1  1  0  0  0
  7 10  2  0  0  0  0
  8 16  2  0  0  0  0
  8 17  1  0  0  0  0
  9  3  1  0  0  0  0
 10 14  1  0  0  0  0
 11  7  1  0  0  0  0
 11  1  2  0  0  0  0
 12  5  1  0  0  0  0
 13 18  2  0  0  0  0
 14 15  1  0  0  0  0
 15  5  1  0  0  0  0
 16 11  1  0  0  0  0
 17  2  2  0  0  0  0
 18 17  1  0  0  0  0
 18  9  1  0  0  0  0
 20 19  2  0  0  0  0
 21 20  1  0  0  0  0
 21  7  1  0  0  0  0
 23 22  1  1  0  0  0
 23 20  1  0  0  0  0
 25 24  1  6  0  0  0
 25 23  1  0  0  0  0
 26 25  1  0  0  0  0
 27 28  1  0  0  0  0
 27 26  1  0  0  0  0
 29 27  2  0  0  0  0
 31 30  1  0  0  0  0
M  END
>  <MODEL>
9

>  <REMARK>
 VINA RESULT:      -8.0      2.663      5.339
  Name = 
  6 active torsions:
  status: ('A' for Active; 'I' for Inactive)
    1  A    between atoms: C_1  and  O_24
    2  A    between atoms: C_2  and  C_13
    3  A    between atoms: C_9  and  C_22
    4  A    between atoms: C_15  and  N_23
    5  A    between atoms: C_19  and  C_22
    6  A    between atoms: C_19  and  O_24
                            x       y       z     vdW  Elec       q    Type
                         _______ _______ _______ _____ _____    ______ ____

>  <TORSDO>
F 6

$$$$
