=
 OpenBabel10272414593D

 37 44  0  0  1  0  0  0  0  0999 V2000
  181.5610  177.7500  137.9140 C   0  0  1  0  0  3  0  0  0  0  0  0
  186.4650  175.0110  135.4790 C   0  0  0  0  0  2  0  0  0  0  0  0
  186.1770  178.3850  138.5970 C   0  0  2  0  0  3  0  0  0  0  0  0
  180.6220  178.7980  137.2930 C   0  0  1  0  0  3  0  0  0  0  0  0
  183.3540  178.7130  141.1530 C   0  0  0  0  0  2  0  0  0  0  0  0
  187.0690  177.3070  136.3960 C   0  0  1  0  0  3  0  0  0  0  0  0
  185.0810  177.8960  139.5210 C   0  0  1  0  0  3  0  0  0  0  0  0
  180.1070  176.5990  136.2910 C   0  0  0  0  0  1  0  0  0  0  0  0
  185.8510  177.7270  137.2460 C   0  0  1  0  0  3  0  0  0  0  0  0
  184.8090  178.8370  140.6990 C   0  0  2  0  0  3  0  0  0  0  0  0
  188.2560  176.7950  137.2010 C   0  0  0  0  0  2  0  0  0  0  0  0
  181.2810  179.9870  136.8980 O   0  0  0  0  0  0  0  0  0  0  0  0
  184.7740  176.6870  137.5360 C   0  0  2  0  0  3  0  0  0  0  0  0
  184.0760  175.0290  136.2430 C   0  0  0  0  0  2  0  0  0  0  0  0
  187.8400  178.9460  140.3440 C   0  0  0  0  0  2  0  0  0  0  0  0
  181.1730  177.6610  136.4530 C   0  0  2  0  0  3  0  0  0  0  0  0
  188.6270  177.8400  138.2400 C   0  0  0  0  0  2  0  0  0  0  0  0
  184.0080  176.4170  136.3970 O   0  0  0  0  0  0  0  0  0  0  0  0
  181.8690  180.6210  138.0190 C   0  0  2  0  0  3  0  0  0  0  0  0
  182.4070  179.5590  140.3060 C   0  0  0  0  0  2  0  0  0  0  0  0
  187.4930  177.9510  139.2450 C   0  0  2  0  0  3  0  0  0  0  0  0
  183.9530  177.3110  138.6660 C   0  0  2  0  0  3  0  0  0  0  0  0
  186.7540  176.4700  135.1540 C   0  0  0  0  0  2  0  0  0  0  0  0
  185.7990  178.5540  141.8220 C   0  0  0  0  0  0  0  0  0  0  0  0
  185.0300  174.6640  135.1140 C   0  0  0  0  0  2  0  0  0  0  0  0
  182.8250  179.7010  138.8320 C   0  0  1  0  0  3  0  0  0  0  0  0
  182.9500  178.3510  138.1030 C   0  0  2  0  0  3  0  0  0  0  0  0
  187.1380  178.6070  141.6320 C   0  0  0  0  0  3  0  0  0  0  0  0
  184.4610  179.2850  143.8290 C   0  0  0  0  0  2  0  0  0  0  0  0
  185.2940  178.1730  143.1900 C   0  0  2  0  0  3  0  0  0  0  0  0
  186.4120  177.7020  144.0860 C   0  0  0  0  0  3  0  0  0  0  0  0
  187.5250  177.3720  146.2300 C   0  0  0  0  0  1  0  0  0  0  0  0
  185.2930  178.6580  146.1010 C   0  0  0  0  0  2  0  0  0  0  0  0
  186.3750  177.8550  145.4190 C   0  0  0  0  0  0  0  0  0  0  0  0
  184.0520  178.8500  145.2280 C   0  0  0  0  0  2  0  0  0  0  0  0
  180.8500  181.4470  138.8050 C   0  0  0  0  0  2  0  0  0  0  0  0
  180.2970  182.5600  137.9350 C   0  0  0  0  0  1  0  0  0  0  0  0
  1 27  1  0  0  0  0
  3 21  1  0  0  0  0
  3  7  1  0  0  0  0
  4  1  1  0  0  0  0
  6 11  1  0  0  0  0
  6  9  1  0  0  0  0
  7 10  1  0  0  0  0
  8 16  1  0  0  0  0
  9 13  1  0  0  0  0
  9  3  1  0  0  0  0
 10  5  1  0  0  0  0
 10 24  1  0  0  0  0
 11 17  1  0  0  0  0
 12  4  1  0  0  0  0
 12 19  1  0  0  0  0
 13 22  1  0  0  0  0
 14 18  1  0  0  0  0
 15 28  1  0  0  0  0
 16  4  1  0  0  0  0
 16  1  1  0  0  0  0
 17 21  1  0  0  0  0
 18 13  1  0  0  0  0
 19 36  1  0  0  0  0
 19 26  1  0  0  0  0
 20  5  1  0  0  0  0
 21 15  1  0  0  0  0
 22  7  1  0  0  0  0
 23  2  1  0  0  0  0
 23  6  1  0  0  0  0
 24 30  1  0  0  0  0
 25  2  1  0  0  0  0
 25 14  1  0  0  0  0
 26 20  1  0  0  0  0
 27 22  1  0  0  0  0
 27 26  1  0  0  0  0
 28 24  2  0  0  0  0
 29 35  1  0  0  0  0
 30 29  1  0  0  0  0
 30 31  1  0  0  0  0
 31 34  2  0  0  0  0
 34 33  1  0  0  0  0
 34 32  1  0  0  0  0
 35 33  1  0  0  0  0
 37 36  1  0  0  0  0
M  END
>  <MODEL>
1

>  <REMARK>
 VINA RESULT:      -8.7      0.000      0.000
  Name = 
  2 active torsions:
  status: ('A' for Active; 'I' for Inactive)
    1  A    between atoms: C_6  and  C_31
    2  A    between atoms: C_11  and  C_26
                            x       y       z     vdW  Elec       q    Type
                         _______ _______ _______ _____ _____    ______ ____

>  <TORSDO>
F 2

$$$$
=
 OpenBabel10272414593D

 37 44  0  0  1  0  0  0  0  0999 V2000
  183.6670  172.6300  136.4950 C   0  0  1  0  0  3  0  0  0  0  0  0
  189.5540  174.2900  136.2160 C   0  0  0  0  0  2  0  0  0  0  0  0
  185.7570  176.8450  136.7170 C   0  0  2  0  0  3  0  0  0  0  0  0
  182.7250  172.1850  135.3630 C   0  0  1  0  0  3  0  0  0  0  0  0
  182.6090  175.6810  138.5480 C   0  0  0  0  0  2  0  0  0  0  0  0
  188.0310  176.2330  135.5970 C   0  0  1  0  0  3  0  0  0  0  0  0
  184.9580  176.0620  137.7390 C   0  0  1  0  0  3  0  0  0  0  0  0
  184.2810  170.3300  135.8580 C   0  0  0  0  0  1  0  0  0  0  0  0
  186.6170  175.7800  136.0180 C   0  0  1  0  0  3  0  0  0  0  0  0
  183.6350  176.7330  138.1240 C   0  0  2  0  0  3  0  0  0  0  0  0
  188.6970  177.2060  136.5610 C   0  0  0  0  0  2  0  0  0  0  0  0
  182.5630  173.1560  134.3460 O   0  0  0  0  0  0  0  0  0  0  0  0
  186.4810  174.5130  136.8570 C   0  0  2  0  0  3  0  0  0  0  0  0
  187.7200  172.6790  136.7950 C   0  0  0  0  0  2  0  0  0  0  0  0
  185.5860  179.0610  137.8060 C   0  0  0  0  0  2  0  0  0  0  0  0
  184.1820  171.7590  135.3690 C   0  0  2  0  0  3  0  0  0  0  0  0
  187.7670  178.3870  136.7790 C   0  0  0  0  0  2  0  0  0  0  0  0
  186.7260  173.3680  136.0940 O   0  0  0  0  0  0  0  0  0  0  0  0
  181.9870  174.3360  134.8780 C   0  0  2  0  0  3  0  0  0  0  0  0
  181.8990  175.0490  137.3540 C   0  0  0  0  0  2  0  0  0  0  0  0
  186.5270  177.9020  137.5100 C   0  0  2  0  0  3  0  0  0  0  0  0
  185.0460  174.5750  137.3870 C   0  0  2  0  0  3  0  0  0  0  0  0
  188.9600  175.1270  135.0910 C   0  0  0  0  0  2  0  0  0  0  0  0
  183.8850  177.7770  139.2060 C   0  0  0  0  0  0  0  0  0  0  0  0
  189.0710  172.8510  136.1140 C   0  0  0  0  0  2  0  0  0  0  0  0
  182.7660  174.9260  136.0880 C   0  0  1  0  0  3  0  0  0  0  0  0
  184.0440  174.0960  136.3050 C   0  0  2  0  0  3  0  0  0  0  0  0
  184.7590  178.7950  139.0360 C   0  0  0  0  0  3  0  0  0  0  0  0
  181.8670  178.4790  140.5430 C   0  0  0  0  0  2  0  0  0  0  0  0
  183.1670  177.6740  140.5280 C   0  0  2  0  0  3  0  0  0  0  0  0
  184.0730  178.0200  141.6830 C   0  0  0  0  0  3  0  0  0  0  0  0
  184.5710  178.8800  143.9090 C   0  0  0  0  0  1  0  0  0  0  0  0
  182.1740  179.0080  142.9660 C   0  0  0  0  0  2  0  0  0  0  0  0
  183.6080  178.5570  142.8220 C   0  0  0  0  0  0  0  0  0  0  0  0
  181.2430  178.3800  141.9280 C   0  0  0  0  0  2  0  0  0  0  0  0
  180.4680  174.2180  135.0080 C   0  0  0  0  0  2  0  0  0  0  0  0
  179.9860  172.9320  134.3640 C   0  0  0  0  0  1  0  0  0  0  0  0
  3 21  1  0  0  0  0
  3  7  1  0  0  0  0
  4 16  1  0  0  0  0
  4  1  1  0  0  0  0
  6  9  1  0  0  0  0
  6 11  1  0  0  0  0
  7 10  1  0  0  0  0
  9  3  1  0  0  0  0
  9 13  1  0  0  0  0
 10  5  1  0  0  0  0
 10 24  1  0  0  0  0
 11 17  1  0  0  0  0
 12 19  1  0  0  0  0
 12  4  1  0  0  0  0
 13 22  1  0  0  0  0
 15 28  1  0  0  0  0
 16  8  1  0  0  0  0
 16  1  1  0  0  0  0
 17 21  1  0  0  0  0
 18 14  1  0  0  0  0
 18 13  1  0  0  0  0
 19 36  1  0  0  0  0
 19 26  1  0  0  0  0
 20  5  1  0  0  0  0
 21 15  1  0  0  0  0
 22  7  1  0  0  0  0
 23  6  1  0  0  0  0
 23  2  1  0  0  0  0
 24 30  1  0  0  0  0
 25  2  1  0  0  0  0
 25 14  1  0  0  0  0
 26 27  1  0  0  0  0
 26 20  1  0  0  0  0
 27  1  1  0  0  0  0
 27 22  1  0  0  0  0
 28 24  2  0  0  0  0
 29 35  1  0  0  0  0
 30 29  1  0  0  0  0
 30 31  1  0  0  0  0
 31 34  2  0  0  0  0
 34 33  1  0  0  0  0
 34 32  1  0  0  0  0
 35 33  1  0  0  0  0
 37 36  1  0  0  0  0
M  END
>  <MODEL>
2

>  <REMARK>
 VINA RESULT:      -6.3      2.579      4.770
  Name = 
  2 active torsions:
  status: ('A' for Active; 'I' for Inactive)
    1  A    between atoms: C_6  and  C_31
    2  A    between atoms: C_11  and  C_26
                            x       y       z     vdW  Elec       q    Type
                         _______ _______ _______ _____ _____    ______ ____

>  <TORSDO>
F 2

$$$$
=
 OpenBabel10272414593D

 37 44  0  0  1  0  0  0  0  0999 V2000
  187.9840  174.4970  135.9680 C   0  0  1  0  0  3  0  0  0  0  0  0
  193.6840  172.3030  135.5310 C   0  0  0  0  0  2  0  0  0  0  0  0
  192.1210  176.1770  137.4660 C   0  0  2  0  0  3  0  0  0  0  0  0
  187.1130  175.1660  134.8930 C   0  0  1  0  0  3  0  0  0  0  0  0
  188.7000  176.5150  139.1390 C   0  0  0  0  0  2  0  0  0  0  0  0
  193.7050  174.8210  135.8990 C   0  0  1  0  0  3  0  0  0  0  0  0
  190.8940  175.7050  138.2190 C   0  0  1  0  0  3  0  0  0  0  0  0
  187.1850  172.7380  134.4390 C   0  0  0  0  0  1  0  0  0  0  0  0
  192.2600  175.1750  136.3090 C   0  0  1  0  0  3  0  0  0  0  0  0
  190.1930  176.8190  139.0050 C   0  0  2  0  0  3  0  0  0  0  0  0
  194.6920  174.7540  137.0570 C   0  0  0  0  0  2  0  0  0  0  0  0
  187.6860  176.3390  134.3460 O   0  0  0  0  0  0  0  0  0  0  0  0
  191.2940  174.0360  136.6230 C   0  0  2  0  0  3  0  0  0  0  0  0
  191.1970  172.0210  135.7080 C   0  0  0  0  0  2  0  0  0  0  0  0
  193.1660  177.4430  139.3200 C   0  0  0  0  0  2  0  0  0  0  0  0
  188.0160  173.9990  134.5390 C   0  0  2  0  0  3  0  0  0  0  0  0
  194.6280  176.0620  137.8280 C   0  0  0  0  0  2  0  0  0  0  0  0
  190.9040  173.3650  135.4590 O   0  0  0  0  0  0  0  0  0  0  0  0
  187.8630  177.3170  135.3540 C   0  0  2  0  0  3  0  0  0  0  0  0
  187.9090  176.9380  137.9040 C   0  0  0  0  0  2  0  0  0  0  0  0
  193.2630  176.1740  138.4850 C   0  0  2  0  0  3  0  0  0  0  0  0
  190.1250  174.7270  137.3270 C   0  0  2  0  0  3  0  0  0  0  0  0
  193.8490  173.6770  134.8940 C   0  0  0  0  0  2  0  0  0  0  0  0
  190.8770  177.0030  140.3540 C   0  0  0  0  0  0  0  0  0  0  0  0
  192.4580  171.6030  134.9640 C   0  0  0  0  0  2  0  0  0  0  0  0
  188.6820  176.8180  136.5790 C   0  0  1  0  0  3  0  0  0  0  0  0
  189.1780  175.3890  136.2930 C   0  0  2  0  0  3  0  0  0  0  0  0
  192.1980  177.2760  140.4610 C   0  0  0  0  0  3  0  0  0  0  0  0
  189.1850  178.0640  141.8920 C   0  0  0  0  0  2  0  0  0  0  0  0
  190.0810  176.8540  141.6260 C   0  0  2  0  0  3  0  0  0  0  0  0
  190.9650  176.5210  142.8010 C   0  0  0  0  0  3  0  0  0  0  0  0
  191.5910  176.5300  145.1580 C   0  0  0  0  0  1  0  0  0  0  0  0
  189.4950  177.8030  144.3580 C   0  0  0  0  0  2  0  0  0  0  0  0
  190.6580  176.8890  144.0550 C   0  0  0  0  0  0  0  0  0  0  0  0
  188.4730  177.8660  143.2220 C   0  0  0  0  0  2  0  0  0  0  0  0
  186.5690  178.0820  135.6370 C   0  0  0  0  0  2  0  0  0  0  0  0
  185.6540  178.0260  134.4290 C   0  0  0  0  0  1  0  0  0  0  0  0
  1 27  1  0  0  0  0
  3  7  1  0  0  0  0
  3 21  1  0  0  0  0
  4  1  1  0  0  0  0
  6  9  1  0  0  0  0
  6 11  1  0  0  0  0
  7 10  1  0  0  0  0
  8 16  1  0  0  0  0
  9 13  1  0  0  0  0
  9  3  1  0  0  0  0
 10  5  1  0  0  0  0
 10 24  1  0  0  0  0
 11 17  1  0  0  0  0
 12  4  1  0  0  0  0
 12 19  1  0  0  0  0
 13 22  1  0  0  0  0
 15 28  1  0  0  0  0
 16  4  1  0  0  0  0
 16  1  1  0  0  0  0
 17 21  1  0  0  0  0
 18 14  1  0  0  0  0
 18 13  1  0  0  0  0
 19 36  1  0  0  0  0
 19 26  1  0  0  0  0
 20  5  1  0  0  0  0
 21 15  1  0  0  0  0
 22  7  1  0  0  0  0
 23  2  1  0  0  0  0
 23  6  1  0  0  0  0
 24 28  2  0  0  0  0
 24 30  1  0  0  0  0
 25  2  1  0  0  0  0
 25 14  1  0  0  0  0
 26 20  1  0  0  0  0
 27 26  1  0  0  0  0
 27 22  1  0  0  0  0
 29 35  1  0  0  0  0
 30 29  1  0  0  0  0
 30 31  1  0  0  0  0
 31 34  2  0  0  0  0
 34 33  1  0  0  0  0
 34 32  1  0  0  0  0
 35 33  1  0  0  0  0
 37 36  1  0  0  0  0
M  END
>  <MODEL>
3

>  <REMARK>
 VINA RESULT:      -6.2      4.270      6.675
  Name = 
  2 active torsions:
  status: ('A' for Active; 'I' for Inactive)
    1  A    between atoms: C_6  and  C_31
    2  A    between atoms: C_11  and  C_26
                            x       y       z     vdW  Elec       q    Type
                         _______ _______ _______ _____ _____    ______ ____

>  <TORSDO>
F 2

$$$$
=
 OpenBabel10272414593D

 37 44  0  0  1  0  0  0  0  0999 V2000
  183.5780  179.4280  140.9840 C   0  0  1  0  0  3  0  0  0  0  0  0
  186.3210  176.5330  136.3390 C   0  0  0  0  0  2  0  0  0  0  0  0
  181.9590  177.9210  136.8260 C   0  0  2  0  0  3  0  0  0  0  0  0
  183.1250  178.8750  142.3450 C   0  0  1  0  0  3  0  0  0  0  0  0
  180.8990  181.0350  138.7740 C   0  0  0  0  0  2  0  0  0  0  0  0
  183.8040  176.1600  136.2830 C   0  0  1  0  0  3  0  0  0  0  0  0
  182.1120  179.3140  137.4020 C   0  0  1  0  0  3  0  0  0  0  0  0
  185.5850  179.1050  142.3770 C   0  0  0  0  0  1  0  0  0  0  0  0
  183.2290  177.1840  137.2830 C   0  0  1  0  0  3  0  0  0  0  0  0
  180.7770  180.0330  137.6250 C   0  0  2  0  0  3  0  0  0  0  0  0
  183.6670  176.5600  134.8190 C   0  0  0  0  0  2  0  0  0  0  0  0
  182.1850  177.8210  142.2450 O   0  0  0  0  0  0  0  0  0  0  0  0
  184.1580  178.2580  137.8400 C   0  0  2  0  0  3  0  0  0  0  0  0
  186.3210  178.1070  138.2920 C   0  0  0  0  0  2  0  0  0  0  0  0
  180.3680  178.4960  135.0180 C   0  0  0  0  0  2  0  0  0  0  0  0
  184.4200  178.4030  141.7120 C   0  0  2  0  0  3  0  0  0  0  0  0
  182.2070  176.8680  134.5340 C   0  0  0  0  0  2  0  0  0  0  0  0
  185.0630  177.7200  138.7610 O   0  0  0  0  0  0  0  0  0  0  0  0
  181.0040  178.2730  141.6070 C   0  0  2  0  0  3  0  0  0  0  0  0
  180.7310  180.3750  140.1400 C   0  0  0  0  0  2  0  0  0  0  0  0
  181.8090  178.1080  135.3150 C   0  0  2  0  0  3  0  0  0  0  0  0
  183.2080  179.2780  138.4700 C   0  0  2  0  0  3  0  0  0  0  0  0
  185.1730  175.5790  136.6410 C   0  0  0  0  0  2  0  0  0  0  0  0
  180.3220  180.6850  136.3250 C   0  0  0  0  0  0  0  0  0  0  0  0
  187.0270  176.9340  137.6250 C   0  0  0  0  0  2  0  0  0  0  0  0
  181.2510  178.9290  140.2190 C   0  0  1  0  0  3  0  0  0  0  0  0
  182.7450  178.8010  139.8700 C   0  0  2  0  0  3  0  0  0  0  0  0
  180.1520  179.9770  135.1850 C   0  0  0  0  0  3  0  0  0  0  0  0
  180.1910  182.7320  134.8600 C   0  0  0  0  0  2  0  0  0  0  0  0
  180.0730  182.1710  136.2780 C   0  0  2  0  0  3  0  0  0  0  0  0
  180.9380  182.9130  137.2660 C   0  0  0  0  0  3  0  0  0  0  0  0
  182.2060  184.8310  138.0760 C   0  0  0  0  0  1  0  0  0  0  0  0
  181.1070  184.8830  135.7440 C   0  0  0  0  0  2  0  0  0  0  0  0
  181.3440  184.1750  137.0560 C   0  0  0  0  0  0  0  0  0  0  0  0
  179.9970  184.2400  134.9100 C   0  0  0  0  0  2  0  0  0  0  0  0
  180.0780  179.0060  142.5780 C   0  0  0  0  0  2  0  0  0  0  0  0
  179.9820  178.2450  143.8860 C   0  0  0  0  0  1  0  0  0  0  0  0
  1 16  1  0  0  0  0
  1  4  1  0  0  0  0
  2 23  1  0  0  0  0
  2 25  1  0  0  0  0
  3  9  1  0  0  0  0
  3  7  1  0  0  0  0
  5 20  1  0  0  0  0
  6 23  1  0  0  0  0
  6  9  1  0  0  0  0
  7 10  1  0  0  0  0
  7 22  1  0  0  0  0
  9 13  1  0  0  0  0
 10  5  1  0  0  0  0
 11  6  1  0  0  0  0
 12  4  1  0  0  0  0
 13 22  1  0  0  0  0
 13 18  1  0  0  0  0
 14 18  1  0  0  0  0
 15 28  1  0  0  0  0
 15 21  1  0  0  0  0
 16  4  1  0  0  0  0
 16  8  1  0  0  0  0
 17 11  1  0  0  0  0
 17 21  1  0  0  0  0
 19 12  1  0  0  0  0
 19 36  1  0  0  0  0
 20 26  1  0  0  0  0
 21  3  1  0  0  0  0
 22 27  1  0  0  0  0
 24 10  1  0  0  0  0
 25 14  1  0  0  0  0
 26 19  1  0  0  0  0
 27 26  1  0  0  0  0
 27  1  1  0  0  0  0
 28 24  2  0  0  0  0
 29 35  1  0  0  0  0
 29 30  1  0  0  0  0
 30 24  1  0  0  0  0
 30 31  1  0  0  0  0
 33 34  1  0  0  0  0
 34 31  2  0  0  0  0
 34 32  1  0  0  0  0
 35 33  1  0  0  0  0
 36 37  1  0  0  0  0
M  END
>  <MODEL>
4

>  <REMARK>
 VINA RESULT:      -6.1      2.191      6.851
  Name = 
  2 active torsions:
  status: ('A' for Active; 'I' for Inactive)
    1  A    between atoms: C_6  and  C_31
    2  A    between atoms: C_11  and  C_26
                            x       y       z     vdW  Elec       q    Type
                         _______ _______ _______ _____ _____    ______ ____

>  <TORSDO>
F 2

$$$$
=
 OpenBabel10272414593D

 37 44  0  0  1  0  0  0  0  0999 V2000
  182.0380  176.9920  139.2250 C   0  0  1  0  0  3  0  0  0  0  0  0
  183.9560  172.7260  135.2740 C   0  0  0  0  0  2  0  0  0  0  0  0
  185.6280  176.9190  136.1780 C   0  0  2  0  0  3  0  0  0  0  0  0
  180.8320  177.9410  139.1250 C   0  0  1  0  0  3  0  0  0  0  0  0
  185.4910  178.5930  139.6130 C   0  0  0  0  0  2  0  0  0  0  0  0
  184.7770  175.0350  134.5880 C   0  0  1  0  0  3  0  0  0  0  0  0
  185.5930  176.9760  137.6920 C   0  0  1  0  0  3  0  0  0  0  0  0
  180.0000  175.6770  139.6620 C   0  0  0  0  0  1  0  0  0  0  0  0
  184.5060  175.9340  135.8130 C   0  0  1  0  0  3  0  0  0  0  0  0
  186.1500  178.2820  138.2680 C   0  0  2  0  0  3  0  0  0  0  0  0
  186.2270  174.5960  134.4350 C   0  0  0  0  0  2  0  0  0  0  0  0
  180.8690  178.7880  137.9920 O   0  0  0  0  0  0  0  0  0  0  0  0
  184.0890  175.2700  137.1220 C   0  0  2  0  0  3  0  0  0  0  0  0
  182.8640  173.4480  137.4140 C   0  0  0  0  0  2  0  0  0  0  0  0
  187.9630  177.6870  135.8830 C   0  0  0  0  0  2  0  0  0  0  0  0
  180.7310  176.5090  138.6320 C   0  0  2  0  0  3  0  0  0  0  0  0
  187.1130  175.8300  134.4360 C   0  0  0  0  0  2  0  0  0  0  0  0
  182.7750  174.7970  137.0560 O   0  0  0  0  0  0  0  0  0  0  0  0
  182.0090  179.6260  138.0400 C   0  0  2  0  0  3  0  0  0  0  0  0
  184.1390  179.2820  139.4510 C   0  0  0  0  0  2  0  0  0  0  0  0
  187.0450  176.4750  135.8090 C   0  0  2  0  0  3  0  0  0  0  0  0
  184.2690  176.3720  138.1680 C   0  0  2  0  0  3  0  0  0  0  0  0
  183.7600  173.9180  134.3460 C   0  0  0  0  0  2  0  0  0  0  0  0
  187.6680  178.1940  138.3650 C   0  0  0  0  0  0  0  0  0  0  0  0
  182.7470  172.5610  136.1820 C   0  0  0  0  0  2  0  0  0  0  0  0
  183.3510  178.8560  138.2000 C   0  0  1  0  0  3  0  0  0  0  0  0
  183.0620  177.3450  138.1510 C   0  0  2  0  0  3  0  0  0  0  0  0
  188.4440  177.9260  137.2900 C   0  0  0  0  0  3  0  0  0  0  0  0
  189.5640  177.4710  139.8590 C   0  0  0  0  0  2  0  0  0  0  0  0
  188.3470  178.3820  139.6990 C   0  0  2  0  0  3  0  0  0  0  0  0
  187.3730  178.2510  140.8430 C   0  0  0  0  0  3  0  0  0  0  0  0
  186.7190  177.6980  143.1250 C   0  0  0  0  0  1  0  0  0  0  0  0
  189.1250  177.2500  142.3100 C   0  0  0  0  0  2  0  0  0  0  0  0
  187.7460  177.8080  142.0530 C   0  0  0  0  0  0  0  0  0  0  0  0
  190.1460  177.6700  141.2520 C   0  0  0  0  0  2  0  0  0  0  0  0
  181.7830  180.8420  138.9400 C   0  0  0  0  0  2  0  0  0  0  0  0
  181.3400  182.0320  138.1110 C   0  0  0  0  0  1  0  0  0  0  0  0
  2 25  1  0  0  0  0
  3  7  1  0  0  0  0
  4  1  1  0  0  0  0
  6  9  1  0  0  0  0
  7 22  1  0  0  0  0
  7 10  1  0  0  0  0
  9  3  1  0  0  0  0
  9 13  1  0  0  0  0
 10 24  1  0  0  0  0
 10  5  1  0  0  0  0
 11 17  1  0  0  0  0
 11  6  1  0  0  0  0
 12 19  1  0  0  0  0
 12  4  1  0  0  0  0
 13 22  1  0  0  0  0
 15 28  1  0  0  0  0
 16  4  1  0  0  0  0
 16  1  1  0  0  0  0
 16  8  1  0  0  0  0
 17 21  1  0  0  0  0
 18 13  1  0  0  0  0
 18 14  1  0  0  0  0
 19 26  1  0  0  0  0
 19 36  1  0  0  0  0
 20  5  1  0  0  0  0
 21 15  1  0  0  0  0
 21  3  1  0  0  0  0
 23  6  1  0  0  0  0
 23  2  1  0  0  0  0
 24 30  1  0  0  0  0
 25 14  1  0  0  0  0
 26 20  1  0  0  0  0
 27 22  1  0  0  0  0
 27 26  1  0  0  0  0
 27  1  1  0  0  0  0
 28 24  2  0  0  0  0
 29 35  1  0  0  0  0
 30 29  1  0  0  0  0
 30 31  1  0  0  0  0
 31 34  2  0  0  0  0
 34 33  1  0  0  0  0
 34 32  1  0  0  0  0
 35 33  1  0  0  0  0
 37 36  1  0  0  0  0
M  END
>  <MODEL>
5

>  <REMARK>
 VINA RESULT:      -5.8      1.699      3.431
  Name = 
  2 active torsions:
  status: ('A' for Active; 'I' for Inactive)
    1  A    between atoms: C_6  and  C_31
    2  A    between atoms: C_11  and  C_26
                            x       y       z     vdW  Elec       q    Type
                         _______ _______ _______ _____ _____    ______ ____

>  <TORSDO>
F 2

$$$$
