=
 OpenBabel10272402003D

 28 31  0  0  1  0  0  0  0  0999 V2000
  189.3180  179.4260  146.9010 O   0  0  0  0  0  1  0  0  0  0  0  0
  186.9940  178.2240  145.2760 C   0  0  2  0  0  3  0  0  0  0  0  0
  186.6100  179.5560  147.2550 O   0  0  0  0  0  1  0  0  0  0  0  0
  189.3070  177.0460  146.5710 C   0  0  0  0  0  0  0  0  0  0  0  0
  187.5150  176.8680  144.7950 C   0  0  0  0  0  2  0  0  0  0  0  0
  189.2500  175.8280  147.4680 C   0  0  0  0  0  2  0  0  0  0  0  0
  188.6280  178.2530  147.2190 C   0  0  2  0  0  3  0  0  0  0  0  0
  190.5730  176.5320  147.2240 C   0  0  0  0  0  2  0  0  0  0  0  0
  187.1560  178.3530  146.7980 C   0  0  2  0  0  3  0  0  0  0  0  0
  189.0090  176.6820  145.1020 C   0  0  1  0  0  3  0  0  0  0  0  0
  189.9510  177.3080  144.0320 C   0  0  1  0  0  0  0  0  0  0  0  0
  191.3340  176.6100  144.0150 C   0  0  2  0  0  3  0  0  0  0  0  0
  191.5950  177.5070  141.7370 C   0  0  0  0  0  0  0  0  0  0  0  0
  190.2090  177.6060  141.6050 O   0  0  0  0  0  0  0  0  0  0  0  0
  189.3320  177.1430  142.6320 C   0  0  0  0  0  2  0  0  0  0  0  0
  192.3430  177.8280  140.7780 O   0  0  0  0  0  0  0  0  0  0  0  0
  190.1480  178.7960  144.3010 C   0  0  0  0  0  1  0  0  0  0  0  0
  192.1500  177.1150  142.9560 O   0  0  0  0  0  0  0  0  0  0  0  0
  191.2140  175.0910  143.8820 C   0  0  0  0  0  2  0  0  0  0  0  0
  192.2570  174.4060  144.7420 C   0  0  0  0  0  1  0  0  0  0  0  0
  184.5410  178.4860  145.7950 C   0  0  0  0  0  3  0  0  0  0  0  0
  185.2420  178.5080  143.4710 C   0  0  0  0  0  0  0  0  0  0  0  0
  182.8980  178.7530  144.0400 C   0  0  0  0  0  0  0  0  0  0  0  0
  185.5660  178.4130  144.8390 C   0  0  0  0  0  0  0  0  0  0  0  0
  183.9110  178.6780  143.0810 C   0  0  0  0  0  3  0  0  0  0  0  0
  186.2930  178.4320  142.4150 C   0  0  0  0  0  1  0  0  0  0  0  0
  181.2340  178.9660  143.5410 Cl  0  0  0  0  0  0  0  0  0  0  0  0
  183.2130  178.6560  145.3970 C   0  0  0  0  0  3  0  0  0  0  0  0
  2 24  1  1  0  0  0
  2  9  1  0  0  0  0
  4  7  1  0  0  0  0
  4  8  1  0  0  0  0
  4  6  1  0  0  0  0
  5  2  1  0  0  0  0
  7  1  1  6  0  0  0
  8  6  1  0  0  0  0
  9  7  1  0  0  0  0
  9  3  1  6  0  0  0
 10  5  1  6  0  0  0
 10  4  1  0  0  0  0
 11 17  1  1  0  0  0
 11 10  1  0  0  0  0
 12 19  1  6  0  0  0
 12 11  1  0  0  0  0
 13 18  1  0  0  0  0
 14 13  1  0  0  0  0
 14 15  1  0  0  0  0
 15 11  1  0  0  0  0
 16 13  2  0  0  0  0
 18 12  1  0  0  0  0
 19 20  1  0  0  0  0
 22 24  1  0  0  0  0
 23 28  2  0  0  0  0
 24 21  2  0  0  0  0
 25 22  2  0  0  0  0
 25 23  1  0  0  0  0
 26 22  1  0  0  0  0
 27 23  1  0  0  0  0
 28 21  1  0  0  0  0
M  END
>  <MODEL>
1

>  <REMARK>
 VINA RESULT:      -6.5      0.000      0.000
  Name = 
  3 active torsions:
  status: ('A' for Active; 'I' for Inactive)
    1  A    between atoms: C_1  and  C_27
    2  A    between atoms: C_2  and  C_3
    3  A    between atoms: C_10  and  C_13
                            x       y       z     vdW  Elec       q    Type
                         _______ _______ _______ _____ _____    ______ ____

>  <TORSDO>
F 3

$$$$
=
 OpenBabel10272402003D

 28 31  0  0  1  0  0  0  0  0999 V2000
  187.5160  179.5730  136.4500 O   0  0  0  0  0  1  0  0  0  0  0  0
  188.1750  177.6300  138.7470 C   0  0  2  0  0  3  0  0  0  0  0  0
  189.2630  179.7780  138.5420 O   0  0  0  0  0  1  0  0  0  0  0  0
  188.2540  177.3640  135.8590 C   0  0  0  0  0  0  0  0  0  0  0  0
  188.0860  176.2380  138.1180 C   0  0  0  0  0  2  0  0  0  0  0  0
  189.4210  176.7820  135.0920 C   0  0  0  0  0  2  0  0  0  0  0  0
  188.6130  178.7100  136.4910 C   0  0  2  0  0  3  0  0  0  0  0  0
  188.2040  177.3030  134.3470 C   0  0  0  0  0  2  0  0  0  0  0  0
  189.1140  178.5300  137.9300 C   0  0  2  0  0  3  0  0  0  0  0  0
  187.5250  176.2860  136.6870 C   0  0  1  0  0  3  0  0  0  0  0  0
  185.9700  176.3020  136.6250 C   0  0  1  0  0  0  0  0  0  0  0  0
  185.3990  174.8940  136.3230 C   0  0  2  0  0  3  0  0  0  0  0  0
  183.2820  175.7070  137.2830 C   0  0  0  0  0  0  0  0  0  0  0  0
  183.9720  176.6810  138.0070 O   0  0  0  0  0  0  0  0  0  0  0  0
  185.3980  176.7530  137.9810 C   0  0  0  0  0  2  0  0  0  0  0  0
  182.0350  175.6000  137.4020 O   0  0  0  0  0  0  0  0  0  0  0  0
  185.4900  177.2750  135.5510 C   0  0  0  0  0  1  0  0  0  0  0  0
  183.9700  174.8970  136.3790 O   0  0  0  0  0  0  0  0  0  0  0  0
  185.9410  173.8330  137.2800 C   0  0  0  0  0  2  0  0  0  0  0  0
  184.8870  172.7760  137.5430 C   0  0  0  0  0  1  0  0  0  0  0  0
  189.8130  176.8880  140.5140 C   0  0  0  0  0  3  0  0  0  0  0  0
  187.7940  178.0390  141.2160 C   0  0  0  0  0  0  0  0  0  0  0  0
  189.4100  177.2960  142.8630 C   0  0  0  0  0  0  0  0  0  0  0  0
  188.6040  177.5200  140.1850 C   0  0  0  0  0  0  0  0  0  0  0  0
  188.2030  177.9230  142.5470 C   0  0  0  0  0  3  0  0  0  0  0  0
  186.4970  178.7150  140.9220 C   0  0  0  0  0  1  0  0  0  0  0  0
  189.9130  177.1580  144.5340 Cl  0  0  0  0  0  0  0  0  0  0  0  0
  190.2150  176.7770  141.8470 C   0  0  0  0  0  3  0  0  0  0  0  0
  2 24  1  1  0  0  0
  4  7  1  0  0  0  0
  4 10  1  0  0  0  0
  5  2  1  0  0  0  0
  6  4  1  0  0  0  0
  7  1  1  1  0  0  0
  7  9  1  0  0  0  0
  8  6  1  0  0  0  0
  8  4  1  0  0  0  0
  9  3  1  1  0  0  0
  9  2  1  0  0  0  0
 10  5  1  1  0  0  0
 11 17  1  6  0  0  0
 11 10  1  0  0  0  0
 11 15  1  0  0  0  0
 12 18  1  0  0  0  0
 12 11  1  0  0  0  0
 12 19  1  1  0  0  0
 13 16  2  0  0  0  0
 13 14  1  0  0  0  0
 15 14  1  0  0  0  0
 18 13  1  0  0  0  0
 19 20  1  0  0  0  0
 21 28  1  0  0  0  0
 22 25  2  0  0  0  0
 23 27  1  0  0  0  0
 24 21  2  0  0  0  0
 24 22  1  0  0  0  0
 25 23  1  0  0  0  0
 26 22  1  0  0  0  0
 28 23  2  0  0  0  0
M  END
>  <MODEL>
2

>  <REMARK>
 VINA RESULT:      -6.1      5.905      8.831
  Name = 
  3 active torsions:
  status: ('A' for Active; 'I' for Inactive)
    1  A    between atoms: C_1  and  C_27
    2  A    between atoms: C_2  and  C_3
    3  A    between atoms: C_10  and  C_13
                            x       y       z     vdW  Elec       q    Type
                         _______ _______ _______ _____ _____    ______ ____

>  <TORSDO>
F 3

$$$$
=
 OpenBabel10272402003D

 28 31  0  0  1  0  0  0  0  0999 V2000
  186.6930  177.0480  134.3480 O   0  0  0  0  0  1  0  0  0  0  0  0
  186.2120  174.4820  135.9840 C   0  0  2  0  0  3  0  0  0  0  0  0
  184.5900  175.3010  134.3900 O   0  0  0  0  0  1  0  0  0  0  0  0
  186.7830  177.2240  136.7430 C   0  0  0  0  0  0  0  0  0  0  0  0
  186.8370  174.7690  137.3510 C   0  0  0  0  0  2  0  0  0  0  0  0
  186.0190  177.9880  137.8020 C   0  0  0  0  0  2  0  0  0  0  0  0
  185.9200  176.9600  135.5090 C   0  0  2  0  0  3  0  0  0  0  0  0
  187.1440  178.6640  137.0380 C   0  0  0  0  0  2  0  0  0  0  0  0
  185.2250  175.5950  135.6010 C   0  0  2  0  0  3  0  0  0  0  0  0
  187.6260  176.0880  137.3600 C   0  0  1  0  0  3  0  0  0  0  0  0
  189.0850  175.9490  136.8360 C   0  0  1  0  0  0  0  0  0  0  0  0
  190.0630  176.8440  137.6380 C   0  0  2  0  0  3  0  0  0  0  0  0
  191.8540  175.3620  136.8230 C   0  0  0  0  0  0  0  0  0  0  0  0
  190.9280  174.3360  136.6220 O   0  0  0  0  0  0  0  0  0  0  0  0
  189.5570  174.4920  136.9900 C   0  0  0  0  0  2  0  0  0  0  0  0
  193.0730  175.1650  136.5850 O   0  0  0  0  0  0  0  0  0  0  0  0
  189.1600  176.3280  135.3600 C   0  0  0  0  0  1  0  0  0  0  0  0
  191.4140  176.6250  137.2240 O   0  0  0  0  0  0  0  0  0  0  0  0
  189.9520  176.6160  139.1450 C   0  0  0  0  0  2  0  0  0  0  0  0
  189.5020  177.8880  139.8360 C   0  0  0  0  0  1  0  0  0  0  0  0
  184.4300  172.8860  136.7800 C   0  0  0  0  0  3  0  0  0  0  0  0
  186.0910  172.0770  135.2050 C   0  0  0  0  0  0  0  0  0  0  0  0
  184.3510  170.5940  136.0130 C   0  0  0  0  0  0  0  0  0  0  0  0
  185.5640  173.1240  135.9870 C   0  0  0  0  0  0  0  0  0  0  0  0
  185.4800  170.8200  135.2220 C   0  0  0  0  0  3  0  0  0  0  0  0
  187.2960  172.2760  134.3480 C   0  0  0  0  0  1  0  0  0  0  0  0
  183.5950  169.0160  136.0270 Cl  0  0  0  0  0  0  0  0  0  0  0  0
  183.8260  171.6270  136.7920 C   0  0  0  0  0  3  0  0  0  0  0  0
  2 24  1  1  0  0  0
  2  5  1  0  0  0  0
  4  8  1  0  0  0  0
  4 10  1  0  0  0  0
  4  6  1  0  0  0  0
  7  1  1  6  0  0  0
  7  9  1  0  0  0  0
  7  4  1  0  0  0  0
  8  6  1  0  0  0  0
  9  3  1  6  0  0  0
  9  2  1  0  0  0  0
 10  5  1  6  0  0  0
 11 17  1  6  0  0  0
 11 15  1  0  0  0  0
 11 10  1  0  0  0  0
 11 12  1  0  0  0  0
 12 19  1  1  0  0  0
 13 18  1  0  0  0  0
 14 13  1  0  0  0  0
 14 15  1  0  0  0  0
 16 13  2  0  0  0  0
 18 12  1  0  0  0  0
 19 20  1  0  0  0  0
 21 28  1  0  0  0  0
 22 25  2  0  0  0  0
 22 24  1  0  0  0  0
 23 27  1  0  0  0  0
 23 28  2  0  0  0  0
 24 21  2  0  0  0  0
 25 23  1  0  0  0  0
 26 22  1  0  0  0  0
M  END
>  <MODEL>
3

>  <REMARK>
 VINA RESULT:      -6.0      7.350      9.617
  Name = 
  3 active torsions:
  status: ('A' for Active; 'I' for Inactive)
    1  A    between atoms: C_1  and  C_27
    2  A    between atoms: C_2  and  C_3
    3  A    between atoms: C_10  and  C_13
                            x       y       z     vdW  Elec       q    Type
                         _______ _______ _______ _____ _____    ______ ____

>  <TORSDO>
F 3

$$$$
=
 OpenBabel10272402003D

 28 31  0  0  1  0  0  0  0  0999 V2000
  187.8520  178.5080  135.9560 O   0  0  0  0  0  1  0  0  0  0  0  0
  188.7070  177.1720  138.5970 C   0  0  2  0  0  3  0  0  0  0  0  0
  188.9910  179.5420  138.2160 O   0  0  0  0  0  1  0  0  0  0  0  0
  189.4140  176.6880  135.8250 C   0  0  0  0  0  0  0  0  0  0  0  0
  189.2310  175.7950  138.1850 C   0  0  0  0  0  2  0  0  0  0  0  0
  190.8330  176.5120  135.3290 C   0  0  0  0  0  2  0  0  0  0  0  0
  189.1540  178.1230  136.2840 C   0  0  2  0  0  3  0  0  0  0  0  0
  189.6740  176.4710  134.3490 C   0  0  0  0  0  2  0  0  0  0  0  0
  189.4070  178.2770  137.7900 C   0  0  2  0  0  3  0  0  0  0  0  0
  188.9680  175.4980  136.7000 C   0  0  1  0  0  3  0  0  0  0  0  0
  187.5470  174.9290  136.4170 C   0  0  1  0  0  0  0  0  0  0  0  0
  187.5730  173.8740  135.2830 C   0  0  2  0  0  3  0  0  0  0  0  0
  185.4360  173.0570  136.1920 C   0  0  0  0  0  0  0  0  0  0  0  0
  185.7440  173.6060  137.4380 O   0  0  0  0  0  0  0  0  0  0  0  0
  187.0010  174.2370  137.6800 C   0  0  0  0  0  2  0  0  0  0  0  0
  184.3640  172.4170  136.0330 O   0  0  0  0  0  0  0  0  0  0  0  0
  186.5900  176.0520  136.0300 C   0  0  0  0  0  1  0  0  0  0  0  0
  186.2860  173.2770  135.1070 O   0  0  0  0  0  0  0  0  0  0  0  0
  188.6090  172.7790  135.5350 C   0  0  0  0  0  2  0  0  0  0  0  0
  189.5450  172.6580  134.3490 C   0  0  0  0  0  1  0  0  0  0  0  0
  190.0420  176.9370  140.7220 C   0  0  0  0  0  3  0  0  0  0  0  0
  187.8440  177.9620  140.8410 C   0  0  0  0  0  0  0  0  0  0  0  0
  189.1800  177.7030  142.8480 C   0  0  0  0  0  0  0  0  0  0  0  0
  188.8690  177.3640  140.0800 C   0  0  0  0  0  0  0  0  0  0  0  0
  188.0080  178.1290  142.2200 C   0  0  0  0  0  3  0  0  0  0  0  0
  186.5760  178.4290  140.2100 C   0  0  0  0  0  1  0  0  0  0  0  0
  189.3740  177.9160  144.5740 Cl  0  0  0  0  0  0  0  0  0  0  0  0
  190.1970  177.1070  142.1000 C   0  0  0  0  0  3  0  0  0  0  0  0
  2 24  1  1  0  0  0
  4  7  1  0  0  0  0
  4 10  1  0  0  0  0
  5  2  1  0  0  0  0
  6  4  1  0  0  0  0
  7  1  1  1  0  0  0
  7  9  1  0  0  0  0
  8  6  1  0  0  0  0
  8  4  1  0  0  0  0
  9  3  1  1  0  0  0
  9  2  1  0  0  0  0
 10  5  1  1  0  0  0
 11 17  1  6  0  0  0
 11 10  1  0  0  0  0
 11 15  1  0  0  0  0
 12 19  1  1  0  0  0
 12 11  1  0  0  0  0
 13 14  1  0  0  0  0
 14 15  1  0  0  0  0
 16 13  2  0  0  0  0
 18 12  1  0  0  0  0
 18 13  1  0  0  0  0
 20 19  1  0  0  0  0
 21 28  1  0  0  0  0
 22 25  2  0  0  0  0
 23 27  1  0  0  0  0
 24 21  2  0  0  0  0
 24 22  1  0  0  0  0
 25 23  1  0  0  0  0
 26 22  1  0  0  0  0
 28 23  2  0  0  0  0
M  END
>  <MODEL>
4

>  <REMARK>
 VINA RESULT:      -5.9      6.163      8.828
  Name = 
  3 active torsions:
  status: ('A' for Active; 'I' for Inactive)
    1  A    between atoms: C_1  and  C_27
    2  A    between atoms: C_2  and  C_3
    3  A    between atoms: C_10  and  C_13
                            x       y       z     vdW  Elec       q    Type
                         _______ _______ _______ _____ _____    ______ ____

>  <TORSDO>
F 3

$$$$
=
 OpenBabel10272402003D

 28 31  0  0  1  0  0  0  0  0999 V2000
  188.8220  180.0700  141.5380 O   0  0  0  0  0  1  0  0  0  0  0  0
  189.6640  177.3400  140.3870 C   0  0  2  0  0  3  0  0  0  0  0  0
  188.9960  179.1730  138.9610 O   0  0  0  0  0  1  0  0  0  0  0  0
  187.6170  178.1300  142.2860 C   0  0  0  0  0  0  0  0  0  0  0  0
  189.1340  176.3130  141.3900 C   0  0  0  0  0  2  0  0  0  0  0  0
  186.1800  177.6590  142.2300 C   0  0  0  0  0  2  0  0  0  0  0  0
  187.9480  179.0630  141.1200 C   0  0  2  0  0  3  0  0  0  0  0  0
  186.6220  178.6310  143.3100 C   0  0  0  0  0  2  0  0  0  0  0  0
  188.5380  178.2840  139.9370 C   0  0  2  0  0  3  0  0  0  0  0  0
  188.5760  176.9800  142.6580 C   0  0  1  0  0  3  0  0  0  0  0  0
  189.6640  177.3070  143.7230 C   0  0  1  0  0  0  0  0  0  0  0  0
  189.0300  177.7910  145.0510 C   0  0  2  0  0  3  0  0  0  0  0  0
  191.1540  177.1570  146.1250 C   0  0  0  0  0  0  0  0  0  0  0  0
  191.4260  176.2660  145.0860 O   0  0  0  0  0  0  0  0  0  0  0  0
  190.4850  176.0430  144.0350 C   0  0  0  0  0  2  0  0  0  0  0  0
  191.9530  177.2610  147.0910 O   0  0  0  0  0  0  0  0  0  0  0  0
  190.6120  178.3830  143.2040 C   0  0  0  0  0  1  0  0  0  0  0  0
  190.0290  177.9800  146.0570 O   0  0  0  0  0  0  0  0  0  0  0  0
  187.9650  176.8240  145.5710 C   0  0  0  0  0  2  0  0  0  0  0  0
  187.2320  177.4340  146.7470 C   0  0  0  0  0  1  0  0  0  0  0  0
  189.5300  175.9350  138.2980 C   0  0  0  0  0  3  0  0  0  0  0  0
  191.7140  176.6700  139.0620 C   0  0  0  0  0  0  0  0  0  0  0  0
  191.5140  175.3150  137.0620 C   0  0  0  0  0  0  0  0  0  0  0  0
  190.3150  176.6380  139.2260 C   0  0  0  0  0  0  0  0  0  0  0  0
  192.3040  176.0090  137.9810 C   0  0  0  0  0  3  0  0  0  0  0  0
  192.5940  177.3990  140.0220 C   0  0  0  0  0  1  0  0  0  0  0  0
  192.2630  174.4910  135.7120 Cl  0  0  0  0  0  0  0  0  0  0  0  0
  190.1270  175.2770  137.2200 C   0  0  0  0  0  3  0  0  0  0  0  0
  2 24  1  6  0  0  0
  2  5  1  0  0  0  0
  4 10  1  0  0  0  0
  4  8  1  0  0  0  0
  6  4  1  0  0  0  0
  6  8  1  0  0  0  0
  7  1  1  1  0  0  0
  7  4  1  0  0  0  0
  9  3  1  6  0  0  0
  9  2  1  0  0  0  0
  9  7  1  0  0  0  0
 10  5  1  6  0  0  0
 10 11  1  0  0  0  0
 11 17  1  6  0  0  0
 11 15  1  0  0  0  0
 11 12  1  0  0  0  0
 12 19  1  1  0  0  0
 12 18  1  0  0  0  0
 13 16  2  0  0  0  0
 14 13  1  0  0  0  0
 15 14  1  0  0  0  0
 18 13  1  0  0  0  0
 19 20  1  0  0  0  0
 21 24  1  0  0  0  0
 22 24  2  0  0  0  0
 22 26  1  0  0  0  0
 23 28  1  0  0  0  0
 23 25  2  0  0  0  0
 25 22  1  0  0  0  0
 27 23  1  0  0  0  0
 28 21  2  0  0  0  0
M  END
>  <MODEL>
5

>  <REMARK>
 VINA RESULT:      -5.8      3.712      6.877
  Name = 
  3 active torsions:
  status: ('A' for Active; 'I' for Inactive)
    1  A    between atoms: C_1  and  C_27
    2  A    between atoms: C_2  and  C_3
    3  A    between atoms: C_10  and  C_13
                            x       y       z     vdW  Elec       q    Type
                         _______ _______ _______ _____ _____    ______ ____

>  <TORSDO>
F 3

$$$$
=
 OpenBabel10272402003D

 28 31  0  0  1  0  0  0  0  0999 V2000
  190.8510  175.6690  139.1410 O   0  0  0  0  0  1  0  0  0  0  0  0
  192.7470  175.6760  136.7130 C   0  0  2  0  0  3  0  0  0  0  0  0
  193.3890  176.6390  138.8350 O   0  0  0  0  0  1  0  0  0  0  0  0
  190.0590  176.6920  137.1170 C   0  0  0  0  0  0  0  0  0  0  0  0
  191.8310  175.8790  135.5040 C   0  0  0  0  0  2  0  0  0  0  0  0
  189.6040  178.0760  136.7090 C   0  0  0  0  0  2  0  0  0  0  0  0
  191.0550  176.7460  138.2760 C   0  0  2  0  0  3  0  0  0  0  0  0
  188.6390  177.1320  137.4040 C   0  0  0  0  0  2  0  0  0  0  0  0
  192.5010  176.7710  137.7630 C   0  0  2  0  0  3  0  0  0  0  0  0
  190.3440  175.8040  135.8880 C   0  0  1  0  0  3  0  0  0  0  0  0
  189.7840  174.3530  135.9400 C   0  0  1  0  0  0  0  0  0  0  0  0
  188.2630  174.3210  135.6460 C   0  0  2  0  0  3  0  0  0  0  0  0
  188.5720  171.9440  135.0780 C   0  0  0  0  0  0  0  0  0  0  0  0
  189.9230  172.1730  134.8120 O   0  0  0  0  0  0  0  0  0  0  0  0
  190.4800  173.4860  134.8750 C   0  0  0  0  0  2  0  0  0  0  0  0
  188.0830  170.7960  134.9170 O   0  0  0  0  0  0  0  0  0  0  0  0
  190.0390  173.7320  137.3100 C   0  0  0  0  0  1  0  0  0  0  0  0
  187.7810  172.9760  135.5860 O   0  0  0  0  0  0  0  0  0  0  0  0
  187.9090  175.0440  134.3470 C   0  0  0  0  0  2  0  0  0  0  0  0
  186.6740  175.8990  134.5420 C   0  0  0  0  0  1  0  0  0  0  0  0
  194.7020  176.6400  135.4460 C   0  0  0  0  0  3  0  0  0  0  0  0
  195.0200  174.5660  136.6670 C   0  0  0  0  0  0  0  0  0  0  0  0
  196.8580  175.5450  135.4250 C   0  0  0  0  0  0  0  0  0  0  0  0
  194.1840  175.6280  136.2700 C   0  0  0  0  0  0  0  0  0  0  0  0
  196.3520  174.5320  136.2420 C   0  0  0  0  0  3  0  0  0  0  0  0
  194.5190  173.4630  137.5370 C   0  0  0  0  0  1  0  0  0  0  0  0
  198.5270  175.4940  134.8990 Cl  0  0  0  0  0  0  0  0  0  0  0  0
  196.0330  176.5990  135.0260 C   0  0  0  0  0  3  0  0  0  0  0  0
  2 24  1  6  0  0  0
  2  9  1  0  0  0  0
  4  8  1  0  0  0  0
  4  7  1  0  0  0  0
  5  2  1  0  0  0  0
  6  4  1  0  0  0  0
  6  8  1  0  0  0  0
  7  1  1  1  0  0  0
  9  7  1  0  0  0  0
  9  3  1  1  0  0  0
 10  5  1  1  0  0  0
 10 11  1  0  0  0  0
 10  4  1  0  0  0  0
 11 17  1  1  0  0  0
 12 19  1  6  0  0  0
 12 11  1  0  0  0  0
 13 18  1  0  0  0  0
 14 15  1  0  0  0  0
 14 13  1  0  0  0  0
 15 11  1  0  0  0  0
 16 13  2  0  0  0  0
 18 12  1  0  0  0  0
 19 20  1  0  0  0  0
 21 24  1  0  0  0  0
 22 26  1  0  0  0  0
 23 25  2  0  0  0  0
 24 22  2  0  0  0  0
 25 22  1  0  0  0  0
 27 23  1  0  0  0  0
 28 23  1  0  0  0  0
 28 21  2  0  0  0  0
M  END
>  <MODEL>
6

>  <REMARK>
 VINA RESULT:      -5.8      8.204     11.532
  Name = 
  3 active torsions:
  status: ('A' for Active; 'I' for Inactive)
    1  A    between atoms: C_1  and  C_27
    2  A    between atoms: C_2  and  C_3
    3  A    between atoms: C_10  and  C_13
                            x       y       z     vdW  Elec       q    Type
                         _______ _______ _______ _____ _____    ______ ____

>  <TORSDO>
F 3

$$$$
=
 OpenBabel10272402003D

 28 31  0  0  1  0  0  0  0  0999 V2000
  190.1070  175.1550  142.9710 O   0  0  0  0  0  1  0  0  0  0  0  0
  189.0520  177.4690  141.2320 C   0  0  2  0  0  3  0  0  0  0  0  0
  190.5480  175.7880  140.3480 O   0  0  0  0  0  1  0  0  0  0  0  0
  190.5210  177.3960  143.7330 C   0  0  0  0  0  0  0  0  0  0  0  0
  188.9820  178.6680  142.1790 C   0  0  0  0  0  2  0  0  0  0  0  0
  191.7490  178.2330  144.0210 C   0  0  0  0  0  2  0  0  0  0  0  0
  190.8040  176.3290  142.6750 C   0  0  2  0  0  3  0  0  0  0  0  0
  191.2310  177.2560  145.0630 C   0  0  0  0  0  2  0  0  0  0  0  0
  190.4510  176.8350  141.2700 C   0  0  2  0  0  3  0  0  0  0  0  0
  189.2510  178.2670  143.6390 C   0  0  1  0  0  3  0  0  0  0  0  0
  187.9930  177.7350  144.3840 C   0  0  1  0  0  0  0  0  0  0  0  0
  188.2960  177.4480  145.8760 C   0  0  2  0  0  3  0  0  0  0  0  0
  185.8680  177.6150  146.2500 C   0  0  0  0  0  0  0  0  0  0  0  0
  185.7330  178.3900  145.0970 O   0  0  0  0  0  0  0  0  0  0  0  0
  186.8720  178.7890  144.3340 C   0  0  0  0  0  2  0  0  0  0  0  0
  184.8610  177.3620  146.9600 O   0  0  0  0  0  0  0  0  0  0  0  0
  187.4840  176.4570  143.7250 C   0  0  0  0  0  1  0  0  0  0  0  0
  187.1090  177.0670  146.5760 O   0  0  0  0  0  0  0  0  0  0  0  0
  188.9360  178.6460  146.5770 C   0  0  0  0  0  2  0  0  0  0  0  0
  188.9830  178.4130  148.0740 C   0  0  0  0  0  1  0  0  0  0  0  0
  189.6140  177.9220  138.8160 C   0  0  0  0  0  3  0  0  0  0  0  0
  187.3250  178.2510  139.5560 C   0  0  0  0  0  0  0  0  0  0  0  0
  187.9340  178.6720  137.2470 C   0  0  0  0  0  0  0  0  0  0  0  0
  188.6560  177.8850  139.8410 C   0  0  0  0  0  0  0  0  0  0  0  0
  186.9730  178.6410  138.2600 C   0  0  0  0  0  3  0  0  0  0  0  0
  186.2690  178.2340  140.6090 C   0  0  0  0  0  1  0  0  0  0  0  0
  187.4820  179.1610  135.6280 Cl  0  0  0  0  0  0  0  0  0  0  0  0
  189.2540  178.3130  137.5240 C   0  0  0  0  0  3  0  0  0  0  0  0
  2 24  1  6  0  0  0
  2  9  1  0  0  0  0
  2  5  1  0  0  0  0
  4  6  1  0  0  0  0
  4  8  1  0  0  0  0
  6  8  1  0  0  0  0
  7  1  1  1  0  0  0
  7  4  1  0  0  0  0
  9  3  1  6  0  0  0
  9  7  1  0  0  0  0
 10  5  1  6  0  0  0
 10  4  1  0  0  0  0
 10 11  1  0  0  0  0
 11 17  1  6  0  0  0
 11 12  1  0  0  0  0
 12 18  1  0  0  0  0
 12 19  1  1  0  0  0
 13 18  1  0  0  0  0
 13 16  2  0  0  0  0
 14 13  1  0  0  0  0
 15 11  1  0  0  0  0
 15 14  1  0  0  0  0
 19 20  1  0  0  0  0
 21 24  1  0  0  0  0
 22 24  2  0  0  0  0
 22 26  1  0  0  0  0
 23 28  1  0  0  0  0
 23 25  2  0  0  0  0
 25 22  1  0  0  0  0
 27 23  1  0  0  0  0
 28 21  2  0  0  0  0
M  END
>  <MODEL>
7

>  <REMARK>
 VINA RESULT:      -5.4      3.082      6.044
  Name = 
  3 active torsions:
  status: ('A' for Active; 'I' for Inactive)
    1  A    between atoms: C_1  and  C_27
    2  A    between atoms: C_2  and  C_3
    3  A    between atoms: C_10  and  C_13
                            x       y       z     vdW  Elec       q    Type
                         _______ _______ _______ _____ _____    ______ ____

>  <TORSDO>
F 3

$$$$
=
 OpenBabel10272402003D

 28 31  0  0  1  0  0  0  0  0999 V2000
  184.2910  177.8890  140.8760 O   0  0  0  0  0  1  0  0  0  0  0  0
  185.4890  177.5330  138.0610 C   0  0  2  0  0  3  0  0  0  0  0  0
  186.7530  178.5180  139.8700 O   0  0  0  0  0  1  0  0  0  0  0  0
  183.1200  178.8950  139.0350 C   0  0  0  0  0  0  0  0  0  0  0  0
  184.3210  177.7840  137.1050 C   0  0  0  0  0  2  0  0  0  0  0  0
  182.7270  180.3020  138.6400 C   0  0  0  0  0  2  0  0  0  0  0  0
  184.3800  178.8860  139.9020 C   0  0  2  0  0  3  0  0  0  0  0  0
  181.8770  179.5240  139.6290 C   0  0  0  0  0  2  0  0  0  0  0  0
  185.6390  178.7030  139.0450 C   0  0  2  0  0  3  0  0  0  0  0  0
  182.9830  177.9160  137.8510 C   0  0  1  0  0  3  0  0  0  0  0  0
  182.3020  176.5510  138.1610 C   0  0  1  0  0  0  0  0  0  0  0  0
  180.7760  176.6070  137.9060 C   0  0  2  0  0  3  0  0  0  0  0  0
  180.8600  174.1510  137.7450 C   0  0  0  0  0  0  0  0  0  0  0  0
  182.2160  174.2080  137.4180 O   0  0  0  0  0  0  0  0  0  0  0  0
  182.8850  175.4580  137.2460 C   0  0  0  0  0  2  0  0  0  0  0  0
  180.2700  173.0410  137.7920 O   0  0  0  0  0  0  0  0  0  0  0  0
  182.5500  176.1480  139.6120 C   0  0  0  0  0  1  0  0  0  0  0  0
  180.1780  175.3200  138.0850 O   0  0  0  0  0  0  0  0  0  0  0  0
  180.4410  177.1310  136.5090 C   0  0  0  0  0  2  0  0  0  0  0  0
  179.9820  178.5730  136.5860 C   0  0  0  0  0  1  0  0  0  0  0  0
  187.5470  178.3610  136.8640 C   0  0  0  0  0  3  0  0  0  0  0  0
  187.1390  175.9690  136.9500 C   0  0  0  0  0  0  0  0  0  0  0  0
  189.0990  176.8330  135.8120 C   0  0  0  0  0  0  0  0  0  0  0  0
  186.7500  177.2830  137.2800 C   0  0  0  0  0  0  0  0  0  0  0  0
  188.3110  175.7530  136.2180 C   0  0  0  0  0  3  0  0  0  0  0  0
  186.3260  174.7890  137.3630 C   0  0  0  0  0  1  0  0  0  0  0  0
  190.5640  176.5500  134.8980 Cl  0  0  0  0  0  0  0  0  0  0  0  0
  188.7170  178.1360  136.1340 C   0  0  0  0  0  3  0  0  0  0  0  0
  2 24  1  6  0  0  0
  2  9  1  0  0  0  0
  4  8  1  0  0  0  0
  4  7  1  0  0  0  0
  5  2  1  0  0  0  0
  6  4  1  0  0  0  0
  6  8  1  0  0  0  0
  7  1  1  1  0  0  0
  9  3  1  1  0  0  0
  9  7  1  0  0  0  0
 10  5  1  1  0  0  0
 10 11  1  0  0  0  0
 10  4  1  0  0  0  0
 11 17  1  1  0  0  0
 12 19  1  6  0  0  0
 12 18  1  0  0  0  0
 12 11  1  0  0  0  0
 13 16  2  0  0  0  0
 13 18  1  0  0  0  0
 14 13  1  0  0  0  0
 15 14  1  0  0  0  0
 15 11  1  0  0  0  0
 19 20  1  0  0  0  0
 21 24  1  0  0  0  0
 22 24  2  0  0  0  0
 22 26  1  0  0  0  0
 23 28  1  0  0  0  0
 23 25  2  0  0  0  0
 25 22  1  0  0  0  0
 27 23  1  0  0  0  0
 28 21  2  0  0  0  0
M  END
>  <MODEL>
8

>  <REMARK>
 VINA RESULT:      -5.4      7.069     10.272
  Name = 
  3 active torsions:
  status: ('A' for Active; 'I' for Inactive)
    1  A    between atoms: C_1  and  C_27
    2  A    between atoms: C_2  and  C_3
    3  A    between atoms: C_10  and  C_13
                            x       y       z     vdW  Elec       q    Type
                         _______ _______ _______ _____ _____    ______ ____

>  <TORSDO>
F 3

$$$$
=
 OpenBabel10272402003D

 28 31  0  0  1  0  0  0  0  0999 V2000
  179.9820  178.0700  140.2550 O   0  0  0  0  0  1  0  0  0  0  0  0
  182.7550  178.6400  141.4670 C   0  0  2  0  0  3  0  0  0  0  0  0
  180.7210  178.9480  142.7360 O   0  0  0  0  0  1  0  0  0  0  0  0
  181.3890  179.6500  139.1160 C   0  0  0  0  0  0  0  0  0  0  0  0
  183.5760  179.2150  140.3110 C   0  0  0  0  0  2  0  0  0  0  0  0
  181.2970  181.1150  138.7510 C   0  0  0  0  0  2  0  0  0  0  0  0
  180.5720  179.3310  140.3690 C   0  0  2  0  0  3  0  0  0  0  0  0
  180.6220  180.0700  137.8800 C   0  0  0  0  0  2  0  0  0  0  0  0
  181.4400  179.4160  141.6310 C   0  0  2  0  0  3  0  0  0  0  0  0
  182.8300  179.1180  138.9700 C   0  0  1  0  0  3  0  0  0  0  0  0
  182.9890  177.7410  138.2630 C   0  0  1  0  0  0  0  0  0  0  0  0
  184.2680  177.6950  137.3910 C   0  0  2  0  0  3  0  0  0  0  0  0
  184.1080  175.2420  137.5440 C   0  0  0  0  0  0  0  0  0  0  0  0
  183.3620  175.3530  138.7190 O   0  0  0  0  0  0  0  0  0  0  0  0
  183.1060  176.6240  139.3170 C   0  0  0  0  0  2  0  0  0  0  0  0
  184.4050  174.1060  137.0920 O   0  0  0  0  0  0  0  0  0  0  0  0
  181.7770  177.4490  137.3840 C   0  0  0  0  0  1  0  0  0  0  0  0
  184.4650  176.3910  136.8370 O   0  0  0  0  0  0  0  0  0  0  0  0
  185.5170  178.1060  138.1730 C   0  0  0  0  0  2  0  0  0  0  0  0
  186.7560  177.5230  137.5250 C   0  0  0  0  0  1  0  0  0  0  0  0
  182.9460  178.7830  143.9770 C   0  0  0  0  0  3  0  0  0  0  0  0
  184.9750  178.4990  142.6750 C   0  0  0  0  0  0  0  0  0  0  0  0
  185.0880  178.6470  145.0920 C   0  0  0  0  0  0  0  0  0  0  0  0
  183.5740  178.6370  142.7300 C   0  0  0  0  0  0  0  0  0  0  0  0
  185.7230  178.5040  143.8560 C   0  0  0  0  0  3  0  0  0  0  0  0
  185.6920  178.3460  141.3760 C   0  0  0  0  0  1  0  0  0  0  0  0
  186.0330  178.6510  146.5650 Cl  0  0  0  0  0  0  0  0  0  0  0  0
  183.7000  178.7870  145.1530 C   0  0  0  0  0  3  0  0  0  0  0  0
  2  9  1  0  0  0  0
  2 24  1  1  0  0  0
  4  7  1  0  0  0  0
  5  2  1  0  0  0  0
  6  4  1  0  0  0  0
  7  1  1  6  0  0  0
  7  9  1  0  0  0  0
  8  6  1  0  0  0  0
  8  4  1  0  0  0  0
  9  3  1  1  0  0  0
 10  4  1  0  0  0  0
 10  5  1  1  0  0  0
 11 17  1  6  0  0  0
 11 10  1  0  0  0  0
 11 15  1  0  0  0  0
 12 19  1  1  0  0  0
 12 11  1  0  0  0  0
 13 14  1  0  0  0  0
 14 15  1  0  0  0  0
 16 13  2  0  0  0  0
 18 12  1  0  0  0  0
 18 13  1  0  0  0  0
 20 19  1  0  0  0  0
 21 28  1  0  0  0  0
 22 24  1  0  0  0  0
 22 25  2  0  0  0  0
 23 28  2  0  0  0  0
 23 27  1  0  0  0  0
 24 21  2  0  0  0  0
 25 23  1  0  0  0  0
 26 22  1  0  0  0  0
M  END
>  <MODEL>
9

>  <REMARK>
 VINA RESULT:      -5.3      5.304      8.253
  Name = 
  3 active torsions:
  status: ('A' for Active; 'I' for Inactive)
    1  A    between atoms: C_1  and  C_27
    2  A    between atoms: C_2  and  C_3
    3  A    between atoms: C_10  and  C_13
                            x       y       z     vdW  Elec       q    Type
                         _______ _______ _______ _____ _____    ______ ____

>  <TORSDO>
F 3

$$$$
