=
 OpenBabel10272415113D

 34 37  0  0  1  0  0  0  0  0999 V2000
  182.7500  178.4900  141.2030 C   0  0  2  0  0  3  0  0  0  0  0  0
  181.1680  178.9370  143.7360 C   0  0  0  0  0  2  0  0  0  0  0  0
  183.3340  179.1180  142.4780 C   0  0  0  0  0  2  0  0  0  0  0  0
  180.5000  178.8110  142.3580 C   0  0  2  0  0  3  0  0  0  0  0  0
  182.6620  178.5800  143.7370 C   0  0  1  0  0  3  0  0  0  0  0  0
  181.3230  177.9500  141.3910 C   0  0  1  0  0  3  0  0  0  0  0  0
  180.0980  176.6710  140.1760 O   0  0  0  0  0  1  0  0  0  0  0  0
  180.6780  177.8530  140.1560 O   0  0  0  0  0  0  0  0  0  0  0  0
  180.2860  180.0840  141.8230 O   0  0  0  0  0  0  0  0  0  0  0  0
  180.0220  180.8420  142.8680 O   0  0  0  0  0  1  0  0  0  0  0  0
  183.3580  179.1540  144.9680 C   0  0  0  0  0  2  0  0  0  0  0  0
  186.8220  177.8400  143.8780 C   0  0  0  0  0  2  0  0  0  0  0  0
  185.3690  178.5660  146.3920 C   0  0  0  0  0  2  0  0  0  0  0  0
  189.4740  177.2560  146.5290 C   0  0  0  0  0  0  0  0  0  0  0  0
  188.8030  177.3050  145.2990 C   0  0  0  0  0  3  0  0  0  0  0  0
  187.4750  177.7340  145.2280 C   0  0  0  0  0  0  0  0  0  0  0  0
  187.4790  178.0960  147.6300 C   0  0  0  0  0  3  0  0  0  0  0  0
  186.8130  178.1530  146.4040 C   0  0  0  0  0  0  0  0  0  0  0  0
  188.8030  177.6550  147.6930 C   0  0  0  0  0  3  0  0  0  0  0  0
  184.8700  178.9220  144.9900 C   0  0  1  0  0  3  0  0  0  0  0  0
  185.3000  177.8670  143.9760 C   0  0  0  0  0  2  0  0  0  0  0  0
  190.8700  176.7890  146.6000 C   0  0  0  0  0  0  0  0  0  0  0  0
  191.5800  176.4550  145.4090 N   0  0  0  0  0  1  0  0  0  0  0  0
  191.4520  176.6860  147.7120 O   0  0  0  0  0  0  0  0  0  0  0  0
  183.6560  177.3720  140.7040 C   0  0  0  0  0  2  0  0  0  0  0  0
  182.8110  176.0970  138.1820 O   0  0  0  0  0  0  0  0  0  0  0  0
  184.4080  177.4400  136.9730 C   0  0  0  0  0  2  0  0  0  0  0  0
  185.3650  178.5120  137.5160 C   0  0  1  0  0  3  0  0  0  0  0  0
  185.1940  178.5730  139.0440 C   0  0  0  0  0  2  0  0  0  0  0  0
  183.6940  176.9910  138.1830 C   0  0  0  0  0  0  0  0  0  0  0  0
  184.1180  177.6560  139.3540 N   0  0  0  0  0  0  0  0  0  0  0  0
  187.2380  176.7940  136.9290 C   0  0  0  0  0  1  0  0  0  0  0  0
  187.5820  179.1160  137.0200 O   0  0  0  0  0  0  0  0  0  0  0  0
  186.7840  178.2020  137.1460 C   0  0  0  0  0  0  0  0  0  0  0  0
  1 25  1  1  0  0  0
  1  6  1  0  0  0  0
  1  3  1  0  0  0  0
  2  5  1  0  0  0  0
  3  5  1  0  0  0  0
  4  9  1  6  0  0  0
  4  2  1  0  0  0  0
  5 11  1  1  0  0  0
  6  8  1  6  0  0  0
  6  4  1  0  0  0  0
  8  7  1  0  0  0  0
  9 10  1  0  0  0  0
 12 21  1  0  0  0  0
 12 16  1  0  0  0  0
 13 18  1  0  0  0  0
 14 22  1  0  0  0  0
 14 19  1  0  0  0  0
 15 14  2  0  0  0  0
 16 15  1  0  0  0  0
 16 18  2  0  0  0  0
 17 19  2  0  0  0  0
 18 17  1  0  0  0  0
 20 11  1  1  0  0  0
 20 13  1  0  0  0  0
 21 20  1  0  0  0  0
 22 24  2  0  0  0  0
 23 22  1  0  0  0  0
 26 30  2  0  0  0  0
 27 28  1  0  0  0  0
 27 30  1  0  0  0  0
 28 34  1  1  0  0  0
 28 29  1  0  0  0  0
 29 31  1  0  0  0  0
 30 31  1  0  0  0  0
 31 25  1  0  0  0  0
 32 34  1  0  0  0  0
 33 34  2  0  0  0  0
M  END
>  <MODEL>
1

>  <REMARK>
 VINA RESULT:      -9.0      0.000      0.000
  Name = 
  8 active torsions:
  status: ('A' for Active; 'I' for Inactive)
    1  A    between atoms: C_1  and  C_34
    2  A    between atoms: C_7  and  C_11
    3  A    between atoms: C_10  and  O_12
    4  A    between atoms: C_17  and  C_18
    5  A    between atoms: C_18  and  C_30
    6  A    between atoms: O_19  and  C_20
    7  A    between atoms: C_24  and  C_25
    8  A    between atoms: N_33  and  C_34
                            x       y       z     vdW  Elec       q    Type
                         _______ _______ _______ _____ _____    ______ ____

>  <TORSDO>
F 8

$$$$
=
 OpenBabel10272415113D

 34 37  0  0  1  0  0  0  0  0999 V2000
  189.6690  177.6060  143.6040 C   0  0  2  0  0  3  0  0  0  0  0  0
  189.0130  177.7160  146.5500 C   0  0  0  0  0  2  0  0  0  0  0  0
  188.3050  177.2130  144.1930 C   0  0  0  0  0  2  0  0  0  0  0  0
  190.4550  177.6000  146.0300 C   0  0  2  0  0  3  0  0  0  0  0  0
  187.9790  178.0080  145.4530 C   0  0  1  0  0  3  0  0  0  0  0  0
  190.6210  178.2270  144.6390 C   0  0  1  0  0  3  0  0  0  0  0  0
  192.4240  179.3350  144.2680 O   0  0  0  0  0  1  0  0  0  0  0  0
  191.9450  178.1100  144.2080 O   0  0  0  0  0  0  0  0  0  0  0  0
  190.8410  176.2580  146.0140 O   0  0  0  0  0  0  0  0  0  0  0  0
  191.7950  176.1770  146.9190 O   0  0  0  0  0  1  0  0  0  0  0  0
  186.5710  177.6560  145.9250 C   0  0  0  0  0  2  0  0  0  0  0  0
  183.0870  179.0950  145.0830 C   0  0  0  0  0  2  0  0  0  0  0  0
  185.3880  177.7830  143.6880 C   0  0  0  0  0  2  0  0  0  0  0  0
  181.9290  179.0860  141.4690 C   0  0  0  0  0  0  0  0  0  0  0  0
  181.9580  179.2440  142.8620 C   0  0  0  0  0  3  0  0  0  0  0  0
  183.0720  178.8370  143.6030 C   0  0  0  0  0  0  0  0  0  0  0  0
  184.1580  178.1250  141.5490 C   0  0  0  0  0  3  0  0  0  0  0  0
  184.1910  178.2900  142.9350 C   0  0  0  0  0  0  0  0  0  0  0  0
  183.0370  178.5250  140.8190 C   0  0  0  0  0  3  0  0  0  0  0  0
  185.4590  178.3280  145.1160 C   0  0  1  0  0  3  0  0  0  0  0  0
  184.1050  178.2200  145.8090 C   0  0  0  0  0  2  0  0  0  0  0  0
  180.7460  179.5040  140.6950 C   0  0  0  0  0  0  0  0  0  0  0  0
  180.1230  180.7600  140.9540 N   0  0  0  0  0  1  0  0  0  0  0  0
  180.2780  178.7590  139.7950 O   0  0  0  0  0  0  0  0  0  0  0  0
  189.4820  178.5710  142.4410 C   0  0  0  0  0  2  0  0  0  0  0  0
  191.8740  177.4170  141.1580 O   0  0  0  0  0  0  0  0  0  0  0  0
  190.5340  176.7640  139.2610 C   0  0  0  0  0  2  0  0  0  0  0  0
  189.0260  176.9490  139.0440 C   0  0  1  0  0  3  0  0  0  0  0  0
  188.4600  177.7090  140.2560 C   0  0  0  0  0  2  0  0  0  0  0  0
  190.7520  177.3540  140.5950 C   0  0  0  0  0  0  0  0  0  0  0  0
  189.5680  177.8630  141.1730 N   0  0  0  0  0  0  0  0  0  0  0  0
  188.9510  177.0380  136.4380 C   0  0  0  0  0  1  0  0  0  0  0  0
  188.3610  178.8440  137.8210 O   0  0  0  0  0  0  0  0  0  0  0  0
  188.7530  177.6890  137.7700 C   0  0  0  0  0  0  0  0  0  0  0  0
  1 25  1  6  0  0  0
  1  3  1  0  0  0  0
  1  6  1  0  0  0  0
  3  5  1  0  0  0  0
  4  9  1  6  0  0  0
  4  2  1  0  0  0  0
  5 11  1  1  0  0  0
  5  2  1  0  0  0  0
  6  8  1  6  0  0  0
  6  4  1  0  0  0  0
  8  7  1  0  0  0  0
  9 10  1  0  0  0  0
 12 21  1  0  0  0  0
 13 20  1  0  0  0  0
 14 15  1  0  0  0  0
 15 16  2  0  0  0  0
 16 12  1  0  0  0  0
 17 18  2  0  0  0  0
 18 16  1  0  0  0  0
 18 13  1  0  0  0  0
 19 14  2  0  0  0  0
 19 17  1  0  0  0  0
 20 21  1  0  0  0  0
 20 11  1  1  0  0  0
 22 23  1  0  0  0  0
 22 14  1  0  0  0  0
 24 22  2  0  0  0  0
 27 30  1  0  0  0  0
 28 34  1  6  0  0  0
 28 27  1  0  0  0  0
 28 29  1  0  0  0  0
 29 31  1  0  0  0  0
 30 26  2  0  0  0  0
 30 31  1  0  0  0  0
 31 25  1  0  0  0  0
 32 34  1  0  0  0  0
 34 33  2  0  0  0  0
M  END
>  <MODEL>
2

>  <REMARK>
 VINA RESULT:      -8.8      2.632      8.056
  Name = 
  8 active torsions:
  status: ('A' for Active; 'I' for Inactive)
    1  A    between atoms: C_1  and  C_34
    2  A    between atoms: C_7  and  C_11
    3  A    between atoms: C_10  and  O_12
    4  A    between atoms: C_17  and  C_18
    5  A    between atoms: C_18  and  C_30
    6  A    between atoms: O_19  and  C_20
    7  A    between atoms: C_24  and  C_25
    8  A    between atoms: N_33  and  C_34
                            x       y       z     vdW  Elec       q    Type
                         _______ _______ _______ _____ _____    ______ ____

>  <TORSDO>
F 8

$$$$
=
 OpenBabel10272415113D

 34 37  0  0  1  0  0  0  0  0999 V2000
  183.2500  177.0780  138.2410 C   0  0  2  0  0  3  0  0  0  0  0  0
  181.4560  177.5420  140.6260 C   0  0  0  0  0  2  0  0  0  0  0  0
  183.4520  178.2130  139.2570 C   0  0  0  0  0  2  0  0  0  0  0  0
  180.9850  176.7840  139.3740 C   0  0  2  0  0  3  0  0  0  0  0  0
  182.9650  177.8240  140.6490 C   0  0  1  0  0  3  0  0  0  0  0  0
  182.1440  176.0910  138.6460 C   0  0  1  0  0  3  0  0  0  0  0  0
  181.1430  174.3020  138.0040 O   0  0  0  0  0  1  0  0  0  0  0  0
  181.6730  175.4060  137.5230 O   0  0  0  0  0  0  0  0  0  0  0  0
  180.3210  177.6640  138.5160 O   0  0  0  0  0  0  0  0  0  0  0  0
  180.0090  178.6940  139.2750 O   0  0  0  0  0  1  0  0  0  0  0  0
  183.2940  178.9440  141.6330 C   0  0  0  0  0  2  0  0  0  0  0  0
  184.2980  178.7590  145.3580 C   0  0  0  0  0  2  0  0  0  0  0  0
  185.5090  178.2730  142.6640 C   0  0  0  0  0  2  0  0  0  0  0  0
  187.7830  177.5540  146.2550 C   0  0  0  0  0  0  0  0  0  0  0  0
  186.4780  178.0560  146.3510 C   0  0  0  0  0  3  0  0  0  0  0  0
  185.7170  178.2900  145.2010 C   0  0  0  0  0  0  0  0  0  0  0  0
  187.5630  177.4930  143.8370 C   0  0  0  0  0  3  0  0  0  0  0  0
  186.2600  177.9860  143.9320 C   0  0  0  0  0  0  0  0  0  0  0  0
  188.3190  177.2730  144.9910 C   0  0  0  0  0  3  0  0  0  0  0  0
  184.0090  178.4660  142.8990 C   0  0  1  0  0  3  0  0  0  0  0  0
  183.7590  179.3960  144.0810 C   0  0  0  0  0  2  0  0  0  0  0  0
  188.5840  177.3230  147.4700 C   0  0  0  0  0  0  0  0  0  0  0  0
  188.2940  178.0330  148.6720 N   0  0  0  0  0  1  0  0  0  0  0  0
  189.5310  176.4920  147.4610 O   0  0  0  0  0  0  0  0  0  0  0  0
  184.5550  176.3230  138.0290 C   0  0  0  0  0  2  0  0  0  0  0  0
  185.3170  175.9680  135.2020 O   0  0  0  0  0  0  0  0  0  0  0  0
  186.8630  177.8100  135.3930 C   0  0  0  0  0  2  0  0  0  0  0  0
  187.1450  178.7020  136.6110 C   0  0  1  0  0  3  0  0  0  0  0  0
  186.2930  178.1890  137.7840 C   0  0  0  0  0  2  0  0  0  0  0  0
  185.8290  176.8850  135.8930 C   0  0  0  0  0  0  0  0  0  0  0  0
  185.4830  177.1200  137.2410 N   0  0  0  0  0  0  0  0  0  0  0  0
  189.4730  177.5250  136.6100 C   0  0  0  0  0  1  0  0  0  0  0  0
  189.0870  179.6480  137.5390 O   0  0  0  0  0  0  0  0  0  0  0  0
  188.6030  178.6900  136.9600 C   0  0  0  0  0  0  0  0  0  0  0  0
  1 25  1  1  0  0  0
  1  6  1  0  0  0  0
  1  3  1  0  0  0  0
  2  5  1  0  0  0  0
  3  5  1  0  0  0  0
  4  9  1  6  0  0  0
  4  2  1  0  0  0  0
  5 11  1  1  0  0  0
  6  8  1  6  0  0  0
  6  4  1  0  0  0  0
  8  7  1  0  0  0  0
  9 10  1  0  0  0  0
 13 20  1  0  0  0  0
 13 18  1  0  0  0  0
 14 15  1  0  0  0  0
 14 22  1  0  0  0  0
 16 12  1  0  0  0  0
 16 15  2  0  0  0  0
 17 18  2  0  0  0  0
 17 19  1  0  0  0  0
 18 16  1  0  0  0  0
 19 14  2  0  0  0  0
 20 11  1  6  0  0  0
 20 21  1  0  0  0  0
 21 12  1  0  0  0  0
 22 23  1  0  0  0  0
 24 22  2  0  0  0  0
 26 30  2  0  0  0  0
 27 30  1  0  0  0  0
 27 28  1  0  0  0  0
 28 34  1  1  0  0  0
 28 29  1  0  0  0  0
 30 31  1  0  0  0  0
 31 29  1  0  0  0  0
 31 25  1  0  0  0  0
 32 34  1  0  0  0  0
 34 33  2  0  0  0  0
M  END
>  <MODEL>
3

>  <REMARK>
 VINA RESULT:      -8.6      1.835      3.058
  Name = 
  8 active torsions:
  status: ('A' for Active; 'I' for Inactive)
    1  A    between atoms: C_1  and  C_34
    2  A    between atoms: C_7  and  C_11
    3  A    between atoms: C_10  and  O_12
    4  A    between atoms: C_17  and  C_18
    5  A    between atoms: C_18  and  C_30
    6  A    between atoms: O_19  and  C_20
    7  A    between atoms: C_24  and  C_25
    8  A    between atoms: N_33  and  C_34
                            x       y       z     vdW  Elec       q    Type
                         _______ _______ _______ _____ _____    ______ ____

>  <TORSDO>
F 8

$$$$
=
 OpenBabel10272415113D

 34 37  0  0  1  0  0  0  0  0999 V2000
  188.5060  176.7840  137.2630 C   0  0  2  0  0  3  0  0  0  0  0  0
  191.3150  176.5300  138.3430 C   0  0  0  0  0  2  0  0  0  0  0  0
  188.8390  176.6260  138.7550 C   0  0  0  0  0  2  0  0  0  0  0  0
  190.9530  176.1710  136.8930 C   0  0  2  0  0  3  0  0  0  0  0  0
  190.1890  177.2440  139.1050 C   0  0  1  0  0  3  0  0  0  0  0  0
  189.7500  176.9730  136.3800 C   0  0  1  0  0  3  0  0  0  0  0  0
  189.8660  177.6560  134.3470 O   0  0  0  0  0  1  0  0  0  0  0  0
  189.4600  176.6250  135.0590 O   0  0  0  0  0  0  0  0  0  0  0  0
  190.7070  174.7990  136.7980 O   0  0  0  0  0  0  0  0  0  0  0  0
  191.3750  174.2720  137.8040 O   0  0  0  0  0  1  0  0  0  0  0  0
  190.4120  177.1560  140.6130 C   0  0  0  0  0  2  0  0  0  0  0  0
  186.9050  178.3510  141.7040 C   0  0  0  0  0  2  0  0  0  0  0  0
  189.4150  177.2840  142.9380 C   0  0  0  0  0  2  0  0  0  0  0  0
  185.9780  178.1850  145.3810 C   0  0  0  0  0  0  0  0  0  0  0  0
  185.9310  178.4310  144.0010 C   0  0  0  0  0  3  0  0  0  0  0  0
  187.0300  178.1390  143.1870 C   0  0  0  0  0  0  0  0  0  0  0  0
  188.2360  177.3240  145.1320 C   0  0  0  0  0  3  0  0  0  0  0  0
  188.1870  177.5620  143.7570 C   0  0  0  0  0  0  0  0  0  0  0  0
  187.1370  177.6290  145.9390 C   0  0  0  0  0  3  0  0  0  0  0  0
  189.1250  177.2480  141.4360 C   0  0  1  0  0  3  0  0  0  0  0  0
  188.2650  178.4370  141.0190 C   0  0  0  0  0  2  0  0  0  0  0  0
  184.8220  178.5070  146.2350 C   0  0  0  0  0  0  0  0  0  0  0  0
  183.6420  179.0740  145.6700 N   0  0  0  0  0  1  0  0  0  0  0  0
  184.8630  178.2810  147.4740 O   0  0  0  0  0  0  0  0  0  0  0  0
  187.5530  177.9530  137.0580 C   0  0  0  0  0  2  0  0  0  0  0  0
  185.3640  179.1860  138.6030 O   0  0  0  0  0  0  0  0  0  0  0  0
  183.8900  177.3980  137.9330 C   0  0  0  0  0  2  0  0  0  0  0  0
  184.1890  176.2030  137.0160 C   0  0  1  0  0  3  0  0  0  0  0  0
  185.6690  176.2780  136.6040 C   0  0  0  0  0  2  0  0  0  0  0  0
  185.1700  178.1300  137.9500 C   0  0  0  0  0  0  0  0  0  0  0  0
  186.1710  177.5100  137.1710 N   0  0  0  0  0  0  0  0  0  0  0  0
  184.5770  173.6400  137.3100 C   0  0  0  0  0  1  0  0  0  0  0  0
  183.0680  174.8870  138.6100 O   0  0  0  0  0  0  0  0  0  0  0  0
  183.8880  174.9070  137.7070 C   0  0  0  0  0  0  0  0  0  0  0  0
  1 25  1  1  0  0  0
  1  3  1  0  0  0  0
  2  5  1  0  0  0  0
  3  5  1  0  0  0  0
  4  9  1  1  0  0  0
  4  2  1  0  0  0  0
  5 11  1  1  0  0  0
  6  8  1  6  0  0  0
  6  4  1  0  0  0  0
  6  1  1  0  0  0  0
  7  8  1  0  0  0  0
  9 10  1  0  0  0  0
 12 16  1  0  0  0  0
 13 18  1  0  0  0  0
 14 19  1  0  0  0  0
 14 22  1  0  0  0  0
 15 14  2  0  0  0  0
 16 18  2  0  0  0  0
 16 15  1  0  0  0  0
 17 19  2  0  0  0  0
 18 17  1  0  0  0  0
 20 11  1  6  0  0  0
 20 13  1  0  0  0  0
 21 20  1  0  0  0  0
 21 12  1  0  0  0  0
 22 24  2  0  0  0  0
 23 22  1  0  0  0  0
 25 31  1  0  0  0  0
 27 30  1  0  0  0  0
 28 34  1  1  0  0  0
 28 27  1  0  0  0  0
 29 28  1  0  0  0  0
 29 31  1  0  0  0  0
 30 26  2  0  0  0  0
 31 30  1  0  0  0  0
 32 34  1  0  0  0  0
 34 33  2  0  0  0  0
M  END
>  <MODEL>
4

>  <REMARK>
 VINA RESULT:      -8.5      3.432      7.028
  Name = 
  8 active torsions:
  status: ('A' for Active; 'I' for Inactive)
    1  A    between atoms: C_1  and  C_34
    2  A    between atoms: C_7  and  C_11
    3  A    between atoms: C_10  and  O_12
    4  A    between atoms: C_17  and  C_18
    5  A    between atoms: C_18  and  C_30
    6  A    between atoms: O_19  and  C_20
    7  A    between atoms: C_24  and  C_25
    8  A    between atoms: N_33  and  C_34
                            x       y       z     vdW  Elec       q    Type
                         _______ _______ _______ _____ _____    ______ ____

>  <TORSDO>
F 8

$$$$
=
 OpenBabel10272415113D

 34 37  0  0  1  0  0  0  0  0999 V2000
  184.7330  177.3940  137.3510 C   0  0  2  0  0  3  0  0  0  0  0  0
  182.6400  177.9120  139.4660 C   0  0  0  0  0  2  0  0  0  0  0  0
  184.8700  178.4600  138.4490 C   0  0  0  0  0  2  0  0  0  0  0  0
  182.3050  177.2560  138.1180 C   0  0  2  0  0  3  0  0  0  0  0  0
  184.1460  178.0560  139.7290 C   0  0  1  0  0  3  0  0  0  0  0  0
  183.5000  176.4930  137.5310 C   0  0  1  0  0  3  0  0  0  0  0  0
  182.9200  174.6430  136.6080 O   0  0  0  0  0  1  0  0  0  0  0  0
  183.1520  175.9050  136.3130 O   0  0  0  0  0  0  0  0  0  0  0  0
  181.8540  178.2290  137.2220 O   0  0  0  0  0  0  0  0  0  0  0  0
  181.3770  179.1890  137.9880 O   0  0  0  0  0  1  0  0  0  0  0  0
  184.4120  179.0970  140.8130 C   0  0  0  0  0  2  0  0  0  0  0  0
  184.8290  178.5490  144.6140 C   0  0  0  0  0  2  0  0  0  0  0  0
  186.4630  178.3720  142.1120 C   0  0  0  0  0  2  0  0  0  0  0  0
  188.1750  177.3350  145.9300 C   0  0  0  0  0  0  0  0  0  0  0  0
  186.8520  177.7960  145.8660 C   0  0  0  0  0  3  0  0  0  0  0  0
  186.2720  178.1300  144.6390 C   0  0  0  0  0  0  0  0  0  0  0  0
  188.3380  177.5210  143.5140 C   0  0  0  0  0  3  0  0  0  0  0  0
  187.0180  177.9720  143.4490 C   0  0  0  0  0  0  0  0  0  0  0  0
  188.9130  177.2000  144.7460 C   0  0  0  0  0  3  0  0  0  0  0  0
  184.9390  178.5060  142.1230 C   0  0  1  0  0  3  0  0  0  0  0  0
  184.4710  179.3030  143.3370 C   0  0  0  0  0  2  0  0  0  0  0  0
  188.7860  176.9980  147.2290 C   0  0  0  0  0  0  0  0  0  0  0  0
  190.1360  176.5440  147.2950 N   0  0  0  0  0  1  0  0  0  0  0  0
  188.1220  177.1110  148.2930 O   0  0  0  0  0  0  0  0  0  0  0  0
  185.9880  176.5340  137.2930 C   0  0  0  0  0  2  0  0  0  0  0  0
  187.4160  178.4270  135.5390 O   0  0  0  0  0  0  0  0  0  0  0  0
  189.0430  178.8040  137.2800 C   0  0  0  0  0  2  0  0  0  0  0  0
  189.0900  178.2050  138.6920 C   0  0  1  0  0  3  0  0  0  0  0  0
  187.9140  177.2240  138.8340 C   0  0  0  0  0  2  0  0  0  0  0  0
  187.8240  178.2040  136.7060 C   0  0  0  0  0  0  0  0  0  0  0  0
  187.1660  177.3300  137.6000 N   0  0  0  0  0  0  0  0  0  0  0  0
  191.0230  176.6440  137.8980 C   0  0  0  0  0  1  0  0  0  0  0  0
  190.9630  177.6700  140.0100 O   0  0  0  0  0  0  0  0  0  0  0  0
  190.3980  177.5160  138.9400 C   0  0  0  0  0  0  0  0  0  0  0  0
  1 25  1  1  0  0  0
  1  6  1  0  0  0  0
  1  3  1  0  0  0  0
  2  5  1  0  0  0  0
  3  5  1  0  0  0  0
  4  9  1  6  0  0  0
  4  2  1  0  0  0  0
  5 11  1  1  0  0  0
  6  8  1  6  0  0  0
  6  4  1  0  0  0  0
  8  7  1  0  0  0  0
  9 10  1  0  0  0  0
 12 16  1  0  0  0  0
 13 20  1  0  0  0  0
 13 18  1  0  0  0  0
 14 22  1  0  0  0  0
 15 14  1  0  0  0  0
 16 15  2  0  0  0  0
 17 19  1  0  0  0  0
 18 17  2  0  0  0  0
 18 16  1  0  0  0  0
 19 14  2  0  0  0  0
 20 11  1  6  0  0  0
 20 21  1  0  0  0  0
 21 12  1  0  0  0  0
 22 23  1  0  0  0  0
 22 24  2  0  0  0  0
 25 31  1  0  0  0  0
 26 30  2  0  0  0  0
 27 28  1  0  0  0  0
 28 29  1  0  0  0  0
 28 34  1  6  0  0  0
 30 27  1  0  0  0  0
 30 31  1  0  0  0  0
 31 29  1  0  0  0  0
 32 34  1  0  0  0  0
 34 33  2  0  0  0  0
M  END
>  <MODEL>
5

>  <REMARK>
 VINA RESULT:      -8.5      2.211      3.975
  Name = 
  8 active torsions:
  status: ('A' for Active; 'I' for Inactive)
    1  A    between atoms: C_1  and  C_34
    2  A    between atoms: C_7  and  C_11
    3  A    between atoms: C_10  and  O_12
    4  A    between atoms: C_17  and  C_18
    5  A    between atoms: C_18  and  C_30
    6  A    between atoms: O_19  and  C_20
    7  A    between atoms: C_24  and  C_25
    8  A    between atoms: N_33  and  C_34
                            x       y       z     vdW  Elec       q    Type
                         _______ _______ _______ _____ _____    ______ ____

>  <TORSDO>
F 8

$$$$
=
 OpenBabel10272415113D

 34 37  0  0  1  0  0  0  0  0999 V2000
  188.5240  176.7880  137.0510 C   0  0  2  0  0  3  0  0  0  0  0  0
  191.2870  176.5420  138.2470 C   0  0  0  0  0  2  0  0  0  0  0  0
  188.7960  176.6440  138.5570 C   0  0  0  0  0  2  0  0  0  0  0  0
  190.9840  176.1700  136.7870 C   0  0  2  0  0  3  0  0  0  0  0  0
  190.1310  177.2640  138.9560 C   0  0  1  0  0  3  0  0  0  0  0  0
  189.8030  176.9690  136.2180 C   0  0  1  0  0  3  0  0  0  0  0  0
  190.7650  176.5370  134.3460 O   0  0  0  0  0  1  0  0  0  0  0  0
  189.5680  176.6090  134.8890 O   0  0  0  0  0  0  0  0  0  0  0  0
  190.7400  174.7980  136.6940 O   0  0  0  0  0  0  0  0  0  0  0  0
  191.3170  174.2860  137.7620 O   0  0  0  0  0  1  0  0  0  0  0  0
  190.2920  177.1890  140.4720 C   0  0  0  0  0  2  0  0  0  0  0  0
  186.8160  178.5370  141.4790 C   0  0  0  0  0  2  0  0  0  0  0  0
  189.1950  177.2440  142.7550 C   0  0  0  0  0  2  0  0  0  0  0  0
  185.7070  178.2170  145.0950 C   0  0  0  0  0  0  0  0  0  0  0  0
  185.7400  178.5450  143.7320 C   0  0  0  0  0  3  0  0  0  0  0  0
  186.8570  178.2320  142.9500 C   0  0  0  0  0  0  0  0  0  0  0  0
  187.9170  177.2310  144.8940 C   0  0  0  0  0  3  0  0  0  0  0  0
  187.9480  177.5510  143.5340 C   0  0  0  0  0  0  0  0  0  0  0  0
  186.8030  177.5580  145.6690 C   0  0  0  0  0  3  0  0  0  0  0  0
  188.9760  177.3150  141.2420 C   0  0  1  0  0  3  0  0  0  0  0  0
  188.2100  178.5770  140.8610 C   0  0  0  0  0  2  0  0  0  0  0  0
  184.5330  178.5610  145.9160 C   0  0  0  0  0  0  0  0  0  0  0  0
  183.3580  179.0930  145.3080 N   0  0  0  0  0  1  0  0  0  0  0  0
  184.5540  178.3850  147.1630 O   0  0  0  0  0  0  0  0  0  0  0  0
  187.5810  177.9560  136.7960 C   0  0  0  0  0  2  0  0  0  0  0  0
  185.7340  176.3010  135.2010 O   0  0  0  0  0  0  0  0  0  0  0  0
  184.0000  176.6680  136.8370 C   0  0  0  0  0  2  0  0  0  0  0  0
  184.0730  177.4630  138.1480 C   0  0  1  0  0  3  0  0  0  0  0  0
  185.4780  178.0810  138.2530 C   0  0  0  0  0  2  0  0  0  0  0  0
  185.3630  176.8050  136.2910 C   0  0  0  0  0  0  0  0  0  0  0  0
  186.2100  177.5820  137.1100 N   0  0  0  0  0  0  0  0  0  0  0  0
  183.0930  179.6540  139.1690 C   0  0  0  0  0  1  0  0  0  0  0  0
  182.0730  178.4630  137.4200 O   0  0  0  0  0  0  0  0  0  0  0  0
  183.0140  178.5230  138.1940 C   0  0  0  0  0  0  0  0  0  0  0  0
  1 25  1  1  0  0  0
  1  3  1  0  0  0  0
  2  5  1  0  0  0  0
  3  5  1  0  0  0  0
  4  9  1  1  0  0  0
  4  2  1  0  0  0  0
  5 11  1  1  0  0  0
  6  8  1  6  0  0  0
  6  4  1  0  0  0  0
  6  1  1  0  0  0  0
  7  8  1  0  0  0  0
  9 10  1  0  0  0  0
 12 16  1  0  0  0  0
 13 18  1  0  0  0  0
 14 19  1  0  0  0  0
 14 22  1  0  0  0  0
 15 14  2  0  0  0  0
 16 18  2  0  0  0  0
 16 15  1  0  0  0  0
 17 19  2  0  0  0  0
 18 17  1  0  0  0  0
 20 11  1  6  0  0  0
 20 13  1  0  0  0  0
 21 20  1  0  0  0  0
 21 12  1  0  0  0  0
 22 24  2  0  0  0  0
 23 22  1  0  0  0  0
 25 31  1  0  0  0  0
 26 30  2  0  0  0  0
 27 28  1  0  0  0  0
 28 34  1  6  0  0  0
 28 29  1  0  0  0  0
 30 27  1  0  0  0  0
 30 31  1  0  0  0  0
 31 29  1  0  0  0  0
 33 34  2  0  0  0  0
 34 32  1  0  0  0  0
M  END
>  <MODEL>
6

>  <REMARK>
 VINA RESULT:      -8.3      3.263      7.124
  Name = 
  8 active torsions:
  status: ('A' for Active; 'I' for Inactive)
    1  A    between atoms: C_1  and  C_34
    2  A    between atoms: C_7  and  C_11
    3  A    between atoms: C_10  and  O_12
    4  A    between atoms: C_17  and  C_18
    5  A    between atoms: C_18  and  C_30
    6  A    between atoms: O_19  and  C_20
    7  A    between atoms: C_24  and  C_25
    8  A    between atoms: N_33  and  C_34
                            x       y       z     vdW  Elec       q    Type
                         _______ _______ _______ _____ _____    ______ ____

>  <TORSDO>
F 8

$$$$
=
 OpenBabel10272415113D

 34 37  0  0  1  0  0  0  0  0999 V2000
  188.1630  177.1430  138.2870 C   0  0  2  0  0  3  0  0  0  0  0  0
  191.0830  176.3900  138.1150 C   0  0  0  0  0  2  0  0  0  0  0  0
  189.0360  176.8150  139.5080 C   0  0  0  0  0  2  0  0  0  0  0  0
  190.1140  176.2090  136.9360 C   0  0  2  0  0  3  0  0  0  0  0  0
  190.4950  177.1960  139.2830 C   0  0  1  0  0  3  0  0  0  0  0  0
  188.9590  177.2190  136.9750 C   0  0  1  0  0  3  0  0  0  0  0  0
  188.6970  177.6590  134.8880 O   0  0  0  0  0  1  0  0  0  0  0  0
  188.1090  177.0270  135.8830 O   0  0  0  0  0  0  0  0  0  0  0  0
  189.6230  174.9010  136.9300 O   0  0  0  0  0  0  0  0  0  0  0  0
  190.4980  174.2160  137.6370 O   0  0  0  0  0  1  0  0  0  0  0  0
  191.2870  176.9520  140.5650 C   0  0  0  0  0  2  0  0  0  0  0  0
  190.9370  178.3500  144.1490 C   0  0  0  0  0  2  0  0  0  0  0  0
  189.3640  176.7140  142.1960 C   0  0  0  0  0  2  0  0  0  0  0  0
  187.7110  177.7240  146.0480 C   0  0  0  0  0  0  0  0  0  0  0  0
  189.0120  178.1340  145.7240 C   0  0  0  0  0  3  0  0  0  0  0  0
  189.5670  177.8260  144.4780 C   0  0  0  0  0  0  0  0  0  0  0  0
  187.5020  176.7070  143.8530 C   0  0  0  0  0  3  0  0  0  0  0  0
  188.7960  177.1220  143.5260 C   0  0  0  0  0  0  0  0  0  0  0  0
  186.9610  177.0100  145.1040 C   0  0  0  0  0  3  0  0  0  0  0  0
  190.6170  177.5090  141.8230 C   0  0  1  0  0  3  0  0  0  0  0  0
  191.5840  177.5840  143.0000 C   0  0  0  0  0  2  0  0  0  0  0  0
  187.1370  178.0400  147.3680 C   0  0  0  0  0  0  0  0  0  0  0  0
  187.8620  177.7440  148.5600 N   0  0  0  0  0  1  0  0  0  0  0  0
  186.0020  178.5800  147.4570 O   0  0  0  0  0  0  0  0  0  0  0  0
  187.4180  178.4520  138.5080 C   0  0  0  0  0  2  0  0  0  0  0  0
  185.4250  179.5380  140.3910 O   0  0  0  0  0  0  0  0  0  0  0  0
  183.6960  178.2730  139.2820 C   0  0  0  0  0  2  0  0  0  0  0  0
  183.8170  177.3520  138.0600 C   0  0  1  0  0  3  0  0  0  0  0  0
  185.2990  177.2990  137.6480 C   0  0  0  0  0  2  0  0  0  0  0  0
  185.0770  178.7530  139.4730 C   0  0  0  0  0  0  0  0  0  0  0  0
  185.9810  178.2250  138.5260 N   0  0  0  0  0  0  0  0  0  0  0  0
  182.1340  175.7820  139.2870 C   0  0  0  0  0  1  0  0  0  0  0  0
  183.8270  175.0100  137.8540 O   0  0  0  0  0  0  0  0  0  0  0  0
  183.2950  175.9810  138.3660 C   0  0  0  0  0  0  0  0  0  0  0  0
  1 25  1  1  0  0  0
  1  3  1  0  0  0  0
  2  5  1  0  0  0  0
  4  9  1  1  0  0  0
  4  6  1  0  0  0  0
  4  2  1  0  0  0  0
  5  3  1  0  0  0  0
  5 11  1  1  0  0  0
  6  8  1  6  0  0  0
  6  1  1  0  0  0  0
  7  8  1  0  0  0  0
  9 10  1  0  0  0  0
 12 16  1  0  0  0  0
 13 18  1  0  0  0  0
 14 22  1  0  0  0  0
 15 14  1  0  0  0  0
 16 15  2  0  0  0  0
 17 19  1  0  0  0  0
 18 17  2  0  0  0  0
 18 16  1  0  0  0  0
 19 14  2  0  0  0  0
 20 11  1  6  0  0  0
 20 13  1  0  0  0  0
 20 21  1  0  0  0  0
 21 12  1  0  0  0  0
 22 24  2  0  0  0  0
 22 23  1  0  0  0  0
 25 31  1  0  0  0  0
 27 30  1  0  0  0  0
 28 34  1  1  0  0  0
 28 27  1  0  0  0  0
 29 28  1  0  0  0  0
 29 31  1  0  0  0  0
 30 26  2  0  0  0  0
 31 30  1  0  0  0  0
 33 34  2  0  0  0  0
 34 32  1  0  0  0  0
M  END
>  <MODEL>
7

>  <REMARK>
 VINA RESULT:      -8.2      3.148      6.668
  Name = 
  8 active torsions:
  status: ('A' for Active; 'I' for Inactive)
    1  A    between atoms: C_1  and  C_34
    2  A    between atoms: C_7  and  C_11
    3  A    between atoms: C_10  and  O_12
    4  A    between atoms: C_17  and  C_18
    5  A    between atoms: C_18  and  C_30
    6  A    between atoms: O_19  and  C_20
    7  A    between atoms: C_24  and  C_25
    8  A    between atoms: N_33  and  C_34
                            x       y       z     vdW  Elec       q    Type
                         _______ _______ _______ _____ _____    ______ ____

>  <TORSDO>
F 8

$$$$
=
 OpenBabel10272415113D

 34 37  0  0  1  0  0  0  0  0999 V2000
  191.0240  176.3520  137.1540 C   0  0  2  0  0  3  0  0  0  0  0  0
  188.0620  176.2070  137.7270 C   0  0  0  0  0  2  0  0  0  0  0  0
  190.2340  177.4620  137.8650 C   0  0  0  0  0  2  0  0  0  0  0  0
  188.7260  175.3910  136.6060 C   0  0  2  0  0  3  0  0  0  0  0  0
  189.0610  176.9030  138.6640 C   0  0  1  0  0  3  0  0  0  0  0  0
  190.1980  175.0790  136.9110 C   0  0  1  0  0  3  0  0  0  0  0  0
  190.8990  173.1200  136.3760 O   0  0  0  0  0  1  0  0  0  0  0  0
  190.7610  174.3290  135.8750 O   0  0  0  0  0  0  0  0  0  0  0  0
  188.6100  176.0770  135.3950 O   0  0  0  0  0  0  0  0  0  0  0  0
  187.5680  176.8660  135.5610 O   0  0  0  0  0  1  0  0  0  0  0  0
  188.3860  178.0340  139.4340 C   0  0  0  0  0  2  0  0  0  0  0  0
  190.5290  177.5440  142.6100 C   0  0  0  0  0  2  0  0  0  0  0  0
  187.6440  177.7760  141.8420 C   0  0  0  0  0  2  0  0  0  0  0  0
  188.7880  177.3350  145.9760 C   0  0  0  0  0  0  0  0  0  0  0  0
  189.7750  177.3310  144.9800 C   0  0  0  0  0  3  0  0  0  0  0  0
  189.4300  177.4810  143.6330 C   0  0  0  0  0  0  0  0  0  0  0  0
  187.0920  177.6660  144.2690 C   0  0  0  0  0  3  0  0  0  0  0  0
  188.0760  177.6700  143.2770 C   0  0  0  0  0  0  0  0  0  0  0  0
  187.4460  177.5050  145.6110 C   0  0  0  0  0  3  0  0  0  0  0  0
  188.8030  178.1180  140.9040 C   0  0  1  0  0  3  0  0  0  0  0  0
  190.0200  177.2490  141.2020 C   0  0  0  0  0  2  0  0  0  0  0  0
  189.1570  177.1630  147.3920 C   0  0  0  0  0  0  0  0  0  0  0  0
  190.5280  177.0800  147.7760 N   0  0  0  0  0  1  0  0  0  0  0  0
  188.2660  177.0920  148.2790 O   0  0  0  0  0  0  0  0  0  0  0  0
  192.2750  176.0030  137.9500 C   0  0  0  0  0  2  0  0  0  0  0  0
  194.1690  173.7480  138.1030 O   0  0  0  0  0  0  0  0  0  0  0  0
  195.3430  174.6110  136.1800 C   0  0  0  0  0  2  0  0  0  0  0  0
  195.0200  175.8540  135.3390 C   0  0  1  0  0  3  0  0  0  0  0  0
  193.8010  176.5510  135.9670 C   0  0  0  0  0  2  0  0  0  0  0  0
  194.2720  174.6100  137.1940 C   0  0  0  0  0  0  0  0  0  0  0  0
  193.3790  175.6950  137.0540 N   0  0  0  0  0  0  0  0  0  0  0  0
  196.1290  178.0670  134.5170 C   0  0  0  0  0  1  0  0  0  0  0  0
  197.2260  176.4800  135.8580 O   0  0  0  0  0  0  0  0  0  0  0  0
  196.1960  176.7810  135.2770 C   0  0  0  0  0  0  0  0  0  0  0  0
  1  3  1  0  0  0  0
  1 25  1  1  0  0  0
  2  5  1  0  0  0  0
  3  5  1  0  0  0  0
  4  9  1  6  0  0  0
  4  6  1  0  0  0  0
  4  2  1  0  0  0  0
  5 11  1  6  0  0  0
  6  8  1  6  0  0  0
  6  1  1  0  0  0  0
  8  7  1  0  0  0  0
  9 10  1  0  0  0  0
 12 16  1  0  0  0  0
 13 18  1  0  0  0  0
 14 22  1  0  0  0  0
 15 14  2  0  0  0  0
 16 15  1  0  0  0  0
 17 19  2  0  0  0  0
 18 16  2  0  0  0  0
 18 17  1  0  0  0  0
 19 14  1  0  0  0  0
 20 11  1  6  0  0  0
 20 21  1  0  0  0  0
 20 13  1  0  0  0  0
 21 12  1  0  0  0  0
 22 23  1  0  0  0  0
 22 24  2  0  0  0  0
 27 30  1  0  0  0  0
 28 34  1  1  0  0  0
 28 29  1  0  0  0  0
 28 27  1  0  0  0  0
 29 31  1  0  0  0  0
 30 26  2  0  0  0  0
 31 30  1  0  0  0  0
 31 25  1  0  0  0  0
 32 34  1  0  0  0  0
 34 33  2  0  0  0  0
M  END
>  <MODEL>
8

>  <REMARK>
 VINA RESULT:      -8.1      5.167      8.271
  Name = 
  8 active torsions:
  status: ('A' for Active; 'I' for Inactive)
    1  A    between atoms: C_1  and  C_34
    2  A    between atoms: C_7  and  C_11
    3  A    between atoms: C_10  and  O_12
    4  A    between atoms: C_17  and  C_18
    5  A    between atoms: C_18  and  C_30
    6  A    between atoms: O_19  and  C_20
    7  A    between atoms: C_24  and  C_25
    8  A    between atoms: N_33  and  C_34
                            x       y       z     vdW  Elec       q    Type
                         _______ _______ _______ _____ _____    ______ ____

>  <TORSDO>
F 8

$$$$
=
 OpenBabel10272415113D

 34 37  0  0  1  0  0  0  0  0999 V2000
  191.6240  175.6450  137.0310 C   0  0  2  0  0  3  0  0  0  0  0  0
  189.0820  176.5770  138.3690 C   0  0  0  0  0  2  0  0  0  0  0  0
  191.5890  176.6120  138.2250 C   0  0  0  0  0  2  0  0  0  0  0  0
  189.1110  176.0640  136.9210 C   0  0  2  0  0  3  0  0  0  0  0  0
  190.3940  176.3500  139.1350 C   0  0  1  0  0  3  0  0  0  0  0  0
  190.2460  175.0580  136.6850 C   0  0  1  0  0  3  0  0  0  0  0  0
  189.1770  173.8250  135.2890 O   0  0  0  0  0  1  0  0  0  0  0  0
  190.2310  174.6100  135.3620 O   0  0  0  0  0  0  0  0  0  0  0  0
  189.2210  177.1450  136.0430 O   0  0  0  0  0  0  0  0  0  0  0  0
  188.7140  178.1640  136.7070 O   0  0  0  0  0  1  0  0  0  0  0  0
  190.4750  177.2620  140.3560 C   0  0  0  0  0  2  0  0  0  0  0  0
  186.9530  178.4760  141.3750 C   0  0  0  0  0  2  0  0  0  0  0  0
  189.4200  177.3660  142.6570 C   0  0  0  0  0  2  0  0  0  0  0  0
  185.9310  178.2670  145.0240 C   0  0  0  0  0  0  0  0  0  0  0  0
  185.9210  178.5320  143.6470 C   0  0  0  0  0  3  0  0  0  0  0  0
  187.0380  178.2420  142.8570 C   0  0  0  0  0  0  0  0  0  0  0  0
  188.1850  177.3870  144.8210 C   0  0  0  0  0  3  0  0  0  0  0  0
  188.1740  177.6440  143.4480 C   0  0  0  0  0  0  0  0  0  0  0  0
  187.0700  177.6910  145.6040 C   0  0  0  0  0  3  0  0  0  0  0  0
  189.1690  177.3550  141.1480 C   0  0  1  0  0  3  0  0  0  0  0  0
  188.3310  178.5580  140.7270 C   0  0  0  0  0  2  0  0  0  0  0  0
  184.7560  178.5880  145.8540 C   0  0  0  0  0  0  0  0  0  0  0  0
  183.5730  179.1140  145.2560 N   0  0  0  0  0  1  0  0  0  0  0  0
  184.7840  178.3970  147.0980 O   0  0  0  0  0  0  0  0  0  0  0  0
  192.6070  174.5140  137.2980 C   0  0  0  0  0  2  0  0  0  0  0  0
  194.9790  172.7650  137.1770 O   0  0  0  0  0  0  0  0  0  0  0  0
  195.9790  174.2430  135.5540 C   0  0  0  0  0  2  0  0  0  0  0  0
  195.3990  175.5240  134.9380 C   0  0  1  0  0  3  0  0  0  0  0  0
  194.0270  175.7830  135.5850 C   0  0  0  0  0  2  0  0  0  0  0  0
  194.9050  173.7940  136.4590 C   0  0  0  0  0  0  0  0  0  0  0  0
  193.7840  174.6520  136.4530 N   0  0  0  0  0  0  0  0  0  0  0  0
  196.0380  178.0200  134.5330 C   0  0  0  0  0  1  0  0  0  0  0  0
  197.3190  176.5420  135.8360 O   0  0  0  0  0  0  0  0  0  0  0  0
  196.3210  176.6860  135.1490 C   0  0  0  0  0  0  0  0  0  0  0  0
  1 25  1  1  0  0  0
  1  3  1  0  0  0  0
  2  5  1  0  0  0  0
  3  5  1  0  0  0  0
  4  9  1  6  0  0  0
  4  2  1  0  0  0  0
  5 11  1  1  0  0  0
  6  8  1  6  0  0  0
  6  4  1  0  0  0  0
  6  1  1  0  0  0  0
  7  8  1  0  0  0  0
  9 10  1  0  0  0  0
 12 16  1  0  0  0  0
 13 18  1  0  0  0  0
 14 19  1  0  0  0  0
 14 22  1  0  0  0  0
 15 14  2  0  0  0  0
 16 18  2  0  0  0  0
 16 15  1  0  0  0  0
 17 19  2  0  0  0  0
 18 17  1  0  0  0  0
 20 11  1  6  0  0  0
 20 13  1  0  0  0  0
 21 20  1  0  0  0  0
 21 12  1  0  0  0  0
 22 24  2  0  0  0  0
 23 22  1  0  0  0  0
 27 30  1  0  0  0  0
 28 34  1  1  0  0  0
 28 27  1  0  0  0  0
 28 29  1  0  0  0  0
 29 31  1  0  0  0  0
 30 26  2  0  0  0  0
 31 30  1  0  0  0  0
 31 25  1  0  0  0  0
 32 34  1  0  0  0  0
 34 33  2  0  0  0  0
M  END
>  <MODEL>
9

>  <REMARK>
 VINA RESULT:      -8.1      5.609      8.794
  Name = 
  8 active torsions:
  status: ('A' for Active; 'I' for Inactive)
    1  A    between atoms: C_1  and  C_34
    2  A    between atoms: C_7  and  C_11
    3  A    between atoms: C_10  and  O_12
    4  A    between atoms: C_17  and  C_18
    5  A    between atoms: C_18  and  C_30
    6  A    between atoms: O_19  and  C_20
    7  A    between atoms: C_24  and  C_25
    8  A    between atoms: N_33  and  C_34
                            x       y       z     vdW  Elec       q    Type
                         _______ _______ _______ _____ _____    ______ ____

>  <TORSDO>
F 8

$$$$
