=
 OpenBabel10272414253D

 43 48  0  0  1  0  0  0  0  0999 V2000
  181.9390  179.3570  143.1710 C   0  0  0  0  0  0  0  0  0  0  0  0
  186.3140  177.6810  145.0840 C   0  0  0  0  0  0  0  0  0  0  0  0
  188.0130  177.3860  142.8920 C   0  0  0  0  0  0  0  0  0  0  0  0
  183.6940  178.6040  144.6610 C   0  0  0  0  0  0  0  0  0  0  0  0
  182.7940  179.1980  142.0770 C   0  0  0  0  0  3  0  0  0  0  0  0
  180.6720  179.7980  142.9810 F   0  0  0  0  0  0  0  0  0  0  0  0
  184.5650  178.4410  143.5570 C   0  0  0  0  0  0  0  0  0  0  0  0
  182.3870  179.0600  144.4610 C   0  0  0  0  0  3  0  0  0  0  0  0
  184.1010  178.7430  142.2680 C   0  0  0  0  0  3  0  0  0  0  0  0
  186.7370  177.8250  142.7250 N   0  0  0  0  0  0  0  0  0  0  0  0
  185.8780  177.9810  143.7710 C   0  0  0  0  0  0  0  0  0  0  0  0
  185.4350  177.8550  146.1630 C   0  0  0  0  0  3  0  0  0  0  0  0
  187.6270  177.2170  145.2780 C   0  0  0  0  0  0  0  0  0  0  0  0
  188.4750  177.0750  144.1770 C   0  0  0  0  0  3  0  0  0  0  0  0
  184.1340  178.3120  145.9520 C   0  0  0  0  0  3  0  0  0  0  0  0
  188.8760  177.2470  141.7120 C   0  0  0  0  0  3  0  0  0  0  0  0
  188.6410  177.8890  140.5680 C   0  0  0  0  0  3  0  0  0  0  0  0
  189.6790  178.9600  138.7510 F   0  0  0  0  0  0  0  0  0  0  0  0
  189.5320  177.7340  139.3780 C   0  0  1  0  0  0  0  0  0  0  0  0
  190.8940  177.2210  139.8190 C   0  0  0  0  0  1  0  0  0  0  0  0
  188.8820  176.7310  138.4260 C   0  0  0  0  0  2  0  0  0  0  0  0
  189.8600  176.1550  137.4080 C   0  0  2  0  0  3  0  0  0  0  0  0
  189.5440  174.8300  134.7100 C   0  0  0  0  0  2  0  0  0  0  0  0
  188.7980  174.3410  135.9650 C   0  0  2  0  0  3  0  0  0  0  0  0
  189.7720  176.9390  136.0900 C   0  0  0  0  0  2  0  0  0  0  0  0
  189.5980  174.6500  137.2420 C   0  0  1  0  0  3  0  0  0  0  0  0
  190.8040  173.9690  137.2340 F   0  0  0  0  0  0  0  0  0  0  0  0
  190.3390  176.1230  134.9330 C   0  0  0  0  0  2  0  0  0  0  0  0
  188.4290  172.8530  135.8590 C   0  0  0  0  0  3  0  0  0  0  0  0
  186.3140  172.8120  137.2160 C   0  0  0  0  0  2  0  0  0  0  0  0
  186.0800  173.0300  134.9840 C   0  0  0  0  0  2  0  0  0  0  0  0
  185.6010  172.3290  136.1050 O   0  0  0  0  0  0  0  0  0  0  0  0
  187.5080  172.5830  134.6600 C   0  0  0  0  0  2  0  0  0  0  0  0
  187.7690  172.3400  137.1480 C   0  0  0  0  0  2  0  0  0  0  0  0
  188.1420  176.8580  146.6410 C   0  0  0  0  0  2  0  0  0  0  0  0
  189.0920  177.9240  147.1770 C   0  0  1  0  0  3  0  0  0  0  0  0
  188.4750  178.6110  148.3820 C   0  0  0  0  0  1  0  0  0  0  0  0
  190.4680  177.3570  147.5210 C   0  0  0  0  0  2  0  0  0  0  0  0
  191.9750  177.8700  145.4060 O   0  0  0  0  0  1  0  0  0  0  0  0
  191.6620  175.6590  144.5410 O   0  0  0  0  0  1  0  0  0  0  0  0
  190.7770  176.1850  146.7060 N   0  0  0  0  0  0  0  0  0  0  0  0
  191.7500  176.5070  145.6430 C   0  0  0  0  0  0  0  0  0  0  0  0
  192.2280  175.9390  146.8850 C   0  0  0  0  0  2  0  0  0  0  0  0
  1  8  1  0  0  0  0
  2 13  1  0  0  0  0
  2 12  1  0  0  0  0
  3 14  1  0  0  0  0
  4 15  1  0  0  0  0
  5  9  1  0  0  0  0
  5  1  2  0  0  0  0
  6  1  1  0  0  0  0
  7 11  1  0  0  0  0
  7  4  1  0  0  0  0
  8  4  2  0  0  0  0
  9  7  2  0  0  0  0
 10  3  2  0  0  0  0
 10 11  1  0  0  0  0
 11  2  2  0  0  0  0
 13 35  1  0  0  0  0
 14 13  2  0  0  0  0
 15 12  2  0  0  0  0
 16  3  1  0  0  0  0
 17 16  2  0  0  0  0
 18 19  1  0  0  0  0
 19 20  1  1  0  0  0
 19 17  1  0  0  0  0
 21 19  1  0  0  0  0
 22 21  1  1  0  0  0
 23 28  1  0  0  0  0
 23 24  1  0  0  0  0
 24 29  1  6  0  0  0
 24 26  1  0  0  0  0
 25 22  1  0  0  0  0
 26 27  1  6  0  0  0
 26 22  1  0  0  0  0
 28 25  1  0  0  0  0
 29 34  1  0  0  0  0
 31 32  1  0  0  0  0
 32 30  1  0  0  0  0
 33 31  1  0  0  0  0
 33 29  1  0  0  0  0
 34 30  1  0  0  0  0
 35 36  1  0  0  0  0
 36 38  1  0  0  0  0
 36 37  1  1  0  0  0
 39 42  1  0  0  0  0
 40 42  1  0  0  0  0
 41 43  1  0  0  0  0
 41 38  1  0  0  0  0
 42 41  1  0  0  0  0
 42 43  1  0  0  0  0
M  END
>  <MODEL>
1

>  <REMARK>
 VINA RESULT:      -9.9      0.000      0.000
  Name = 
  9 active torsions:
  status: ('A' for Active; 'I' for Inactive)
    1  A    between atoms: C_1  and  C_9
    2  A    between atoms: C_1  and  C_35
    3  A    between atoms: C_2  and  C_13
    4  A    between atoms: C_3  and  C_4
    5  A    between atoms: C_3  and  C_12
    6  A    between atoms: C_6  and  C_12
    7  A    between atoms: C_9  and  N_32
    8  A    between atoms: C_11  and  C_14
    9  A    between atoms: C_34  and  C_35
                            x       y       z     vdW  Elec       q    Type
                         _______ _______ _______ _____ _____    ______ ____

>  <TORSDO>
F 9

$$$$
=
 OpenBabel10272414253D

 43 48  0  0  1  0  0  0  0  0999 V2000
  181.7810  179.1520  142.0730 C   0  0  0  0  0  0  0  0  0  0  0  0
  185.8560  178.1240  144.8920 C   0  0  0  0  0  0  0  0  0  0  0  0
  187.9080  177.6300  143.0690 C   0  0  0  0  0  0  0  0  0  0  0  0
  183.2990  178.7690  143.9210 C   0  0  0  0  0  0  0  0  0  0  0  0
  182.8130  178.8950  141.1660 C   0  0  0  0  0  3  0  0  0  0  0  0
  180.5430  179.4620  141.6180 F   0  0  0  0  0  0  0  0  0  0  0  0
  184.3500  178.5080  143.0080 C   0  0  0  0  0  0  0  0  0  0  0  0
  182.0230  179.0890  143.4480 C   0  0  0  0  0  3  0  0  0  0  0  0
  184.0920  178.5750  141.6310 C   0  0  0  0  0  3  0  0  0  0  0  0
  186.6580  177.9400  142.6360 N   0  0  0  0  0  0  0  0  0  0  0  0
  185.6300  178.1870  143.4960 C   0  0  0  0  0  0  0  0  0  0  0  0
  184.8020  178.3920  145.7780 C   0  0  0  0  0  3  0  0  0  0  0  0
  187.1400  177.7950  145.3620 C   0  0  0  0  0  0  0  0  0  0  0  0
  188.1650  177.5530  144.4440 C   0  0  0  0  0  3  0  0  0  0  0  0
  183.5330  178.7110  145.2950 C   0  0  0  0  0  3  0  0  0  0  0  0
  188.9620  177.3800  142.0770 C   0  0  0  0  0  3  0  0  0  0  0  0
  188.7850  177.5830  140.7720 C   0  0  0  0  0  3  0  0  0  0  0  0
  190.2300  178.5130  139.1670 F   0  0  0  0  0  0  0  0  0  0  0  0
  189.8700  177.3230  139.7780 C   0  0  1  0  0  0  0  0  0  0  0  0
  191.0790  176.7260  140.4810 C   0  0  0  0  0  1  0  0  0  0  0  0
  189.3340  176.3390  138.7390 C   0  0  0  0  0  2  0  0  0  0  0  0
  188.6840  177.0270  137.5440 C   0  0  2  0  0  3  0  0  0  0  0  0
  185.8570  177.1750  136.4880 C   0  0  0  0  0  2  0  0  0  0  0  0
  186.5650  175.8370  136.7770 C   0  0  2  0  0  3  0  0  0  0  0  0
  187.6580  178.0630  138.0260 C   0  0  0  0  0  2  0  0  0  0  0  0
  188.0870  175.9680  136.6050 C   0  0  1  0  0  3  0  0  0  0  0  0
  188.4020  176.2810  135.2930 F   0  0  0  0  0  0  0  0  0  0  0  0
  186.6680  178.4040  136.9180 C   0  0  0  0  0  2  0  0  0  0  0  0
  185.9830  174.6960  135.9290 C   0  0  0  0  0  3  0  0  0  0  0  0
  186.0340  172.8190  137.6000 C   0  0  0  0  0  2  0  0  0  0  0  0
  184.0930  173.9510  137.4100 C   0  0  0  0  0  2  0  0  0  0  0  0
  184.6430  172.6580  137.4750 O   0  0  0  0  0  0  0  0  0  0  0  0
  184.4560  174.6060  136.0740 C   0  0  0  0  0  2  0  0  0  0  0  0
  186.6190  173.3440  136.2870 C   0  0  0  0  0  2  0  0  0  0  0  0
  187.4390  177.6880  146.8280 C   0  0  0  0  0  2  0  0  0  0  0  0
  188.9090  177.9680  147.1200 C   0  0  1  0  0  3  0  0  0  0  0  0
  189.0650  178.5070  148.5300 C   0  0  0  0  0  1  0  0  0  0  0  0
  189.7890  176.7370  146.9100 C   0  0  0  0  0  2  0  0  0  0  0  0
  191.2330  174.7440  147.8870 O   0  0  0  0  0  1  0  0  0  0  0  0
  193.1320  176.1650  148.2100 O   0  0  0  0  0  1  0  0  0  0  0  0
  191.2010  177.0560  147.1020 N   0  0  0  0  0  0  0  0  0  0  0  0
  191.9780  175.8610  147.4900 C   0  0  0  0  0  0  0  0  0  0  0  0
  191.9390  176.2530  146.0980 C   0  0  0  0  0  2  0  0  0  0  0  0
  1  8  1  0  0  0  0
  2 13  1  0  0  0  0
  2 12  1  0  0  0  0
  3 14  1  0  0  0  0
  4 15  1  0  0  0  0
  5  9  1  0  0  0  0
  5  1  2  0  0  0  0
  6  1  1  0  0  0  0
  7 11  1  0  0  0  0
  7  4  1  0  0  0  0
  8  4  2  0  0  0  0
  9  7  2  0  0  0  0
 10  3  2  0  0  0  0
 10 11  1  0  0  0  0
 11  2  2  0  0  0  0
 13 35  1  0  0  0  0
 14 13  2  0  0  0  0
 15 12  2  0  0  0  0
 16  3  1  0  0  0  0
 17 16  2  0  0  0  0
 18 19  1  0  0  0  0
 19 20  1  1  0  0  0
 19 17  1  0  0  0  0
 21 19  1  0  0  0  0
 22 25  1  0  0  0  0
 22 21  1  1  0  0  0
 23 24  1  0  0  0  0
 23 28  1  0  0  0  0
 24 29  1  6  0  0  0
 26 27  1  6  0  0  0
 26 24  1  0  0  0  0
 26 22  1  0  0  0  0
 28 25  1  0  0  0  0
 29 33  1  0  0  0  0
 29 34  1  0  0  0  0
 31 32  1  0  0  0  0
 32 30  1  0  0  0  0
 33 31  1  0  0  0  0
 34 30  1  0  0  0  0
 35 36  1  0  0  0  0
 36 37  1  1  0  0  0
 38 41  1  0  0  0  0
 38 36  1  0  0  0  0
 41 42  1  0  0  0  0
 42 39  1  0  0  0  0
 42 40  1  0  0  0  0
 43 41  1  0  0  0  0
 43 42  1  0  0  0  0
M  END
>  <MODEL>
2

>  <REMARK>
 VINA RESULT:      -9.7      1.630      2.042
  Name = 
  9 active torsions:
  status: ('A' for Active; 'I' for Inactive)
    1  A    between atoms: C_1  and  C_9
    2  A    between atoms: C_1  and  C_35
    3  A    between atoms: C_2  and  C_13
    4  A    between atoms: C_3  and  C_4
    5  A    between atoms: C_3  and  C_12
    6  A    between atoms: C_6  and  C_12
    7  A    between atoms: C_9  and  N_32
    8  A    between atoms: C_11  and  C_14
    9  A    between atoms: C_34  and  C_35
                            x       y       z     vdW  Elec       q    Type
                         _______ _______ _______ _____ _____    ______ ____

>  <TORSDO>
F 9

$$$$
=
 OpenBabel10272414253D

 43 48  0  0  1  0  0  0  0  0999 V2000
  191.3030  176.5830  147.2190 C   0  0  0  0  0  0  0  0  0  0  0  0
  186.9990  177.9790  144.9510 C   0  0  0  0  0  0  0  0  0  0  0  0
  187.5680  177.9660  142.2200 C   0  0  0  0  0  0  0  0  0  0  0  0
  189.0260  177.2730  146.7660 C   0  0  0  0  0  0  0  0  0  0  0  0
  191.5810  176.5870  145.8500 C   0  0  0  0  0  3  0  0  0  0  0  0
  192.2710  176.2470  148.1050 F   0  0  0  0  0  0  0  0  0  0  0  0
  189.3010  177.2790  145.3770 C   0  0  0  0  0  0  0  0  0  0  0  0
  190.0280  176.9260  147.6770 C   0  0  0  0  0  3  0  0  0  0  0  0
  190.5860  176.9330  144.9320 C   0  0  0  0  0  3  0  0  0  0  0  0
  188.5240  177.6350  143.1270 N   0  0  0  0  0  0  0  0  0  0  0  0
  188.2840  177.6300  144.4690 C   0  0  0  0  0  0  0  0  0  0  0  0
  186.7480  177.9610  146.3310 C   0  0  0  0  0  3  0  0  0  0  0  0
  185.9980  178.3340  144.0300 C   0  0  0  0  0  0  0  0  0  0  0  0
  186.2870  178.3210  142.6630 C   0  0  0  0  0  3  0  0  0  0  0  0
  187.7550  177.6110  147.2310 C   0  0  0  0  0  3  0  0  0  0  0  0
  187.9070  177.9440  140.7910 C   0  0  0  0  0  3  0  0  0  0  0  0
  189.1310  177.6650  140.3460 C   0  0  0  0  0  3  0  0  0  0  0  0
  189.5890  178.9490  138.4300 F   0  0  0  0  0  0  0  0  0  0  0  0
  189.4560  177.6480  138.8870 C   0  0  1  0  0  0  0  0  0  0  0  0
  190.7570  176.8930  138.6600 C   0  0  0  0  0  1  0  0  0  0  0  0
  188.3130  176.9460  138.1550 C   0  0  0  0  0  2  0  0  0  0  0  0
  188.7800  176.1570  136.9370 C   0  0  2  0  0  3  0  0  0  0  0  0
  187.3620  174.8580  134.6060 C   0  0  0  0  0  2  0  0  0  0  0  0
  186.9890  174.5630  136.0720 C   0  0  2  0  0  3  0  0  0  0  0  0
  188.4140  176.9090  135.6490 C   0  0  0  0  0  2  0  0  0  0  0  0
  188.2040  174.7340  136.9980 C   0  0  1  0  0  3  0  0  0  0  0  0
  189.1930  173.8200  136.6720 F   0  0  0  0  0  0  0  0  0  0  0  0
  188.4110  175.9660  134.4510 C   0  0  0  0  0  2  0  0  0  0  0  0
  186.3370  173.1800  136.2210 C   0  0  0  0  0  3  0  0  0  0  0  0
  184.3760  173.7590  137.6830 C   0  0  0  0  0  2  0  0  0  0  0  0
  183.9980  173.6970  135.4610 C   0  0  0  0  0  2  0  0  0  0  0  0
  183.4920  173.2750  136.7030 O   0  0  0  0  0  0  0  0  0  0  0  0
  185.2820  172.9320  135.1330 C   0  0  0  0  0  2  0  0  0  0  0  0
  185.7030  173.0000  137.6090 C   0  0  0  0  0  2  0  0  0  0  0  0
  184.6240  178.7360  144.4770 C   0  0  0  0  0  2  0  0  0  0  0  0
  183.5750  178.4090  143.4200 C   0  0  1  0  0  3  0  0  0  0  0  0
  182.1890  178.7420  143.9420 C   0  0  0  0  0  1  0  0  0  0  0  0
  183.8400  179.1230  142.0960 C   0  0  0  0  0  2  0  0  0  0  0  0
  184.4610  179.8840  139.6370 O   0  0  0  0  0  1  0  0  0  0  0  0
  182.3070  179.2510  138.8060 O   0  0  0  0  0  1  0  0  0  0  0  0
  182.8570  178.7450  141.0840 N   0  0  0  0  0  0  0  0  0  0  0  0
  183.3380  179.0510  139.7210 C   0  0  0  0  0  0  0  0  0  0  0  0
  183.5140  177.7130  140.2460 C   0  0  0  0  0  2  0  0  0  0  0  0
  1  8  1  0  0  0  0
  1  6  1  0  0  0  0
  2 12  1  0  0  0  0
  3 14  2  0  0  0  0
  3 10  1  0  0  0  0
  4 15  1  0  0  0  0
  4  8  2  0  0  0  0
  5  1  2  0  0  0  0
  7  4  1  0  0  0  0
  9  7  2  0  0  0  0
  9  5  1  0  0  0  0
 10 11  2  0  0  0  0
 11  2  1  0  0  0  0
 11  7  1  0  0  0  0
 12 15  2  0  0  0  0
 13 35  1  0  0  0  0
 13  2  2  0  0  0  0
 14 13  1  0  0  0  0
 16  3  1  0  0  0  0
 17 16  2  0  0  0  0
 18 19  1  0  0  0  0
 19 20  1  6  0  0  0
 19 17  1  0  0  0  0
 21 19  1  0  0  0  0
 22 26  1  0  0  0  0
 22 21  1  1  0  0  0
 23 24  1  0  0  0  0
 24 29  1  6  0  0  0
 24 26  1  0  0  0  0
 25 22  1  0  0  0  0
 26 27  1  6  0  0  0
 28 23  1  0  0  0  0
 28 25  1  0  0  0  0
 29 34  1  0  0  0  0
 31 32  1  0  0  0  0
 32 30  1  0  0  0  0
 33 31  1  0  0  0  0
 33 29  1  0  0  0  0
 34 30  1  0  0  0  0
 36 37  1  1  0  0  0
 36 35  1  0  0  0  0
 38 36  1  0  0  0  0
 39 42  1  0  0  0  0
 40 42  1  0  0  0  0
 41 38  1  0  0  0  0
 42 43  1  0  0  0  0
 42 41  1  0  0  0  0
 43 41  1  0  0  0  0
M  END
>  <MODEL>
3

>  <REMARK>
 VINA RESULT:      -9.7      2.937      5.774
  Name = 
  9 active torsions:
  status: ('A' for Active; 'I' for Inactive)
    1  A    between atoms: C_1  and  C_9
    2  A    between atoms: C_1  and  C_35
    3  A    between atoms: C_2  and  C_13
    4  A    between atoms: C_3  and  C_4
    5  A    between atoms: C_3  and  C_12
    6  A    between atoms: C_6  and  C_12
    7  A    between atoms: C_9  and  N_32
    8  A    between atoms: C_11  and  C_14
    9  A    between atoms: C_34  and  C_35
                            x       y       z     vdW  Elec       q    Type
                         _______ _______ _______ _____ _____    ______ ____

>  <TORSDO>
F 9

$$$$
=
 OpenBabel10272414253D

 43 48  0  0  1  0  0  0  0  0999 V2000
  181.7460  179.1090  142.1250 C   0  0  0  0  0  0  0  0  0  0  0  0
  185.6840  178.1220  145.1480 C   0  0  0  0  0  0  0  0  0  0  0  0
  187.7790  177.4520  143.4330 C   0  0  0  0  0  0  0  0  0  0  0  0
  183.1850  178.7910  144.0470 C   0  0  0  0  0  0  0  0  0  0  0  0
  182.7990  178.7650  141.2740 C   0  0  0  0  0  3  0  0  0  0  0  0
  180.5360  179.4320  141.6080 F   0  0  0  0  0  0  0  0  0  0  0  0
  184.2570  178.4400  143.1900 C   0  0  0  0  0  0  0  0  0  0  0  0
  181.9380  179.1230  143.5100 C   0  0  0  0  0  3  0  0  0  0  0  0
  184.0490  178.4320  141.8030 C   0  0  0  0  0  3  0  0  0  0  0  0
  186.5550  177.7760  142.9370 N   0  0  0  0  0  0  0  0  0  0  0  0
  185.5080  178.1080  143.7430 C   0  0  0  0  0  0  0  0  0  0  0  0
  184.6100  178.4780  145.9770 C   0  0  0  0  0  3  0  0  0  0  0  0
  186.9380  177.7810  145.6820 C   0  0  0  0  0  0  0  0  0  0  0  0
  187.9850  177.4500  144.8190 C   0  0  0  0  0  3  0  0  0  0  0  0
  183.3700  178.8090  145.4300 C   0  0  0  0  0  3  0  0  0  0  0  0
  188.8560  177.1080  142.4970 C   0  0  0  0  0  3  0  0  0  0  0  0
  190.0730  177.6460  142.5690 C   0  0  0  0  0  3  0  0  0  0  0  0
  191.7980  178.4330  141.1790 F   0  0  0  0  0  0  0  0  0  0  0  0
  191.1570  177.2820  141.6070 C   0  0  1  0  0  0  0  0  0  0  0  0
  192.1600  176.3630  142.2870 C   0  0  0  0  0  1  0  0  0  0  0  0
  190.5150  176.5640  140.4200 C   0  0  0  0  0  2  0  0  0  0  0  0
  190.6240  177.3500  139.1180 C   0  0  2  0  0  3  0  0  0  0  0  0
  189.0650  177.3490  136.5290 C   0  0  0  0  0  2  0  0  0  0  0  0
  189.6710  176.0670  137.1320 C   0  0  2  0  0  3  0  0  0  0  0  0
  189.3540  178.1860  138.8990 C   0  0  0  0  0  2  0  0  0  0  0  0
  190.9260  176.3850  137.9620 C   0  0  1  0  0  3  0  0  0  0  0  0
  191.9160  176.9240  137.1560 F   0  0  0  0  0  0  0  0  0  0  0  0
  189.2080  178.5800  137.4330 C   0  0  0  0  0  2  0  0  0  0  0  0
  189.9440  175.0090  136.0520 C   0  0  0  0  0  3  0  0  0  0  0  0
  188.6030  173.0850  136.9530 C   0  0  0  0  0  2  0  0  0  0  0  0
  187.5920  174.3910  135.4180 C   0  0  0  0  0  2  0  0  0  0  0  0
  187.8400  173.0530  135.7730 O   0  0  0  0  0  0  0  0  0  0  0  0
  188.8870  175.0520  134.9390 C   0  0  0  0  0  2  0  0  0  0  0  0
  190.0140  173.5960  136.6480 C   0  0  0  0  0  2  0  0  0  0  0  0
  187.1830  177.7530  147.1620 C   0  0  0  0  0  2  0  0  0  0  0  0
  188.6480  178.0170  147.4910 C   0  0  1  0  0  3  0  0  0  0  0  0
  188.7880  178.4330  148.9450 C   0  0  0  0  0  1  0  0  0  0  0  0
  189.5390  176.8150  147.1840 C   0  0  0  0  0  2  0  0  0  0  0  0
  191.1150  174.7600  147.7350 O   0  0  0  0  0  1  0  0  0  0  0  0
  192.9950  176.1930  148.1100 O   0  0  0  0  0  1  0  0  0  0  0  0
  190.9530  177.1580  147.3060 N   0  0  0  0  0  0  0  0  0  0  0  0
  191.7930  175.9520  147.4480 C   0  0  0  0  0  0  0  0  0  0  0  0
  191.6230  176.5400  146.1370 C   0  0  0  0  0  2  0  0  0  0  0  0
  1  8  1  0  0  0  0
  2 13  1  0  0  0  0
  2 12  1  0  0  0  0
  3 14  1  0  0  0  0
  4 15  1  0  0  0  0
  5  9  1  0  0  0  0
  5  1  2  0  0  0  0
  6  1  1  0  0  0  0
  7 11  1  0  0  0  0
  7  4  1  0  0  0  0
  8  4  2  0  0  0  0
  9  7  2  0  0  0  0
 10  3  2  0  0  0  0
 10 11  1  0  0  0  0
 11  2  2  0  0  0  0
 13 35  1  0  0  0  0
 14 13  2  0  0  0  0
 15 12  2  0  0  0  0
 16 17  2  0  0  0  0
 16  3  1  0  0  0  0
 18 19  1  0  0  0  0
 19 20  1  1  0  0  0
 19 17  1  0  0  0  0
 21 19  1  0  0  0  0
 22 21  1  1  0  0  0
 23 24  1  0  0  0  0
 23 28  1  0  0  0  0
 24 29  1  6  0  0  0
 24 26  1  0  0  0  0
 25 22  1  0  0  0  0
 26 27  1  6  0  0  0
 26 22  1  0  0  0  0
 28 25  1  0  0  0  0
 29 34  1  0  0  0  0
 31 32  1  0  0  0  0
 32 30  1  0  0  0  0
 33 31  1  0  0  0  0
 33 29  1  0  0  0  0
 34 30  1  0  0  0  0
 35 36  1  0  0  0  0
 36 37  1  1  0  0  0
 38 41  1  0  0  0  0
 38 36  1  0  0  0  0
 41 42  1  0  0  0  0
 42 39  1  0  0  0  0
 42 40  1  0  0  0  0
 43 41  1  0  0  0  0
 43 42  1  0  0  0  0
M  END
>  <MODEL>
4

>  <REMARK>
 VINA RESULT:      -9.6      1.485      2.093
  Name = 
  9 active torsions:
  status: ('A' for Active; 'I' for Inactive)
    1  A    between atoms: C_1  and  C_9
    2  A    between atoms: C_1  and  C_35
    3  A    between atoms: C_2  and  C_13
    4  A    between atoms: C_3  and  C_4
    5  A    between atoms: C_3  and  C_12
    6  A    between atoms: C_6  and  C_12
    7  A    between atoms: C_9  and  N_32
    8  A    between atoms: C_11  and  C_14
    9  A    between atoms: C_34  and  C_35
                            x       y       z     vdW  Elec       q    Type
                         _______ _______ _______ _____ _____    ______ ____

>  <TORSDO>
F 9

$$$$
=
 OpenBabel10272414253D

 43 48  0  0  1  0  0  0  0  0999 V2000
  181.4690  179.1610  142.5570 C   0  0  0  0  0  0  0  0  0  0  0  0
  185.7880  178.1180  144.9800 C   0  0  0  0  0  0  0  0  0  0  0  0
  187.6410  177.5530  142.9740 C   0  0  0  0  0  0  0  0  0  0  0  0
  183.1580  178.7890  144.2530 C   0  0  0  0  0  0  0  0  0  0  0  0
  182.4020  178.8690  141.5580 C   0  0  0  0  0  3  0  0  0  0  0  0
  180.1970  179.4840  142.2200 F   0  0  0  0  0  0  0  0  0  0  0  0
  184.1080  178.4910  143.2470 C   0  0  0  0  0  0  0  0  0  0  0  0
  181.8460  179.1210  143.9020 C   0  0  0  0  0  3  0  0  0  0  0  0
  183.7160  178.5350  141.9000 C   0  0  0  0  0  3  0  0  0  0  0  0
  186.3590  177.8760  142.6600 N   0  0  0  0  0  0  0  0  0  0  0  0
  185.4260  178.1580  143.6120 C   0  0  0  0  0  0  0  0  0  0  0  0
  184.8320  178.4210  145.9600 C   0  0  0  0  0  3  0  0  0  0  0  0
  187.1070  177.7760  145.3270 C   0  0  0  0  0  0  0  0  0  0  0  0
  188.0320  177.4980  144.3180 C   0  0  0  0  0  3  0  0  0  0  0  0
  183.5260  178.7540  145.5980 C   0  0  0  0  0  3  0  0  0  0  0  0
  188.5870  177.2650  141.8880 C   0  0  0  0  0  3  0  0  0  0  0  0
  188.6370  177.9840  140.7670 C   0  0  0  0  0  3  0  0  0  0  0  0
  189.6130  178.7130  138.7560 F   0  0  0  0  0  0  0  0  0  0  0  0
  189.6080  177.6750  139.6730 C   0  0  1  0  0  0  0  0  0  0  0  0
  191.0020  177.5040  140.2570 C   0  0  0  0  0  1  0  0  0  0  0  0
  189.1640  176.3780  138.9990 C   0  0  0  0  0  2  0  0  0  0  0  0
  188.8930  176.5440  137.5070 C   0  0  2  0  0  3  0  0  0  0  0  0
  189.4530  174.8480  135.0700 C   0  0  0  0  0  2  0  0  0  0  0  0
  190.5520  175.2470  136.0720 C   0  0  2  0  0  3  0  0  0  0  0  0
  187.9480  175.4370  137.0160 C   0  0  0  0  0  2  0  0  0  0  0  0
  190.2270  176.5890  136.7470 C   0  0  1  0  0  3  0  0  0  0  0  0
  190.1900  177.6070  135.8080 F   0  0  0  0  0  0  0  0  0  0  0  0
  188.0440  175.2720  135.5040 C   0  0  0  0  0  2  0  0  0  0  0  0
  191.9410  175.2510  135.4140 C   0  0  0  0  0  3  0  0  0  0  0  0
  193.3930  174.8150  137.4180 C   0  0  0  0  0  2  0  0  0  0  0  0
  192.8120  173.0220  136.1810 C   0  0  0  0  0  2  0  0  0  0  0  0
  193.9000  173.6540  136.8090 O   0  0  0  0  0  0  0  0  0  0  0  0
  192.3600  173.8420  134.9700 C   0  0  0  0  0  2  0  0  0  0  0  0
  193.0080  175.8400  136.3490 C   0  0  0  0  0  2  0  0  0  0  0  0
  187.5480  177.6920  146.7590 C   0  0  0  0  0  2  0  0  0  0  0  0
  189.0400  177.9740  146.9000 C   0  0  1  0  0  3  0  0  0  0  0  0
  189.3570  178.3960  148.3240 C   0  0  0  0  0  1  0  0  0  0  0  0
  189.9000  176.7830  146.4840 C   0  0  0  0  0  2  0  0  0  0  0  0
  191.0710  174.8540  147.8700 O   0  0  0  0  0  1  0  0  0  0  0  0
  193.0500  176.1640  148.1820 O   0  0  0  0  0  1  0  0  0  0  0  0
  191.3120  177.0220  146.7720 N   0  0  0  0  0  0  0  0  0  0  0  0
  191.9440  175.8430  147.3990 C   0  0  0  0  0  0  0  0  0  0  0  0
  192.0640  176.0280  145.9680 C   0  0  0  0  0  2  0  0  0  0  0  0
  1  8  1  0  0  0  0
  2 13  1  0  0  0  0
  2 12  1  0  0  0  0
  3 14  1  0  0  0  0
  4 15  1  0  0  0  0
  5  9  1  0  0  0  0
  5  1  2  0  0  0  0
  6  1  1  0  0  0  0
  7 11  1  0  0  0  0
  7  4  1  0  0  0  0
  8  4  2  0  0  0  0
  9  7  2  0  0  0  0
 10  3  2  0  0  0  0
 10 11  1  0  0  0  0
 11  2  2  0  0  0  0
 13 35  1  0  0  0  0
 14 13  2  0  0  0  0
 15 12  2  0  0  0  0
 16  3  1  0  0  0  0
 17 16  2  0  0  0  0
 18 19  1  0  0  0  0
 19 20  1  1  0  0  0
 19 17  1  0  0  0  0
 21 19  1  0  0  0  0
 22 21  1  1  0  0  0
 23 28  1  0  0  0  0
 23 24  1  0  0  0  0
 24 29  1  6  0  0  0
 24 26  1  0  0  0  0
 25 22  1  0  0  0  0
 26 27  1  6  0  0  0
 26 22  1  0  0  0  0
 28 25  1  0  0  0  0
 29 34  1  0  0  0  0
 31 32  1  0  0  0  0
 32 30  1  0  0  0  0
 33 29  1  0  0  0  0
 33 31  1  0  0  0  0
 34 30  1  0  0  0  0
 35 36  1  0  0  0  0
 36 37  1  1  0  0  0
 38 41  1  0  0  0  0
 38 36  1  0  0  0  0
 41 42  1  0  0  0  0
 42 39  1  0  0  0  0
 42 40  1  0  0  0  0
 43 41  1  0  0  0  0
 43 42  1  0  0  0  0
M  END
>  <MODEL>
5

>  <REMARK>
 VINA RESULT:      -9.5      2.022      2.824
  Name = 
  9 active torsions:
  status: ('A' for Active; 'I' for Inactive)
    1  A    between atoms: C_1  and  C_9
    2  A    between atoms: C_1  and  C_35
    3  A    between atoms: C_2  and  C_13
    4  A    between atoms: C_3  and  C_4
    5  A    between atoms: C_3  and  C_12
    6  A    between atoms: C_6  and  C_12
    7  A    between atoms: C_9  and  N_32
    8  A    between atoms: C_11  and  C_14
    9  A    between atoms: C_34  and  C_35
                            x       y       z     vdW  Elec       q    Type
                         _______ _______ _______ _____ _____    ______ ____

>  <TORSDO>
F 9

$$$$
=
 OpenBabel10272414253D

 43 48  0  0  1  0  0  0  0  0999 V2000
  190.7730  176.8750  137.5230 C   0  0  0  0  0  0  0  0  0  0  0  0
  185.8580  178.0280  137.8840 C   0  0  0  0  0  0  0  0  0  0  0  0
  185.4880  178.8620  140.5200 C   0  0  0  0  0  0  0  0  0  0  0  0
  188.4260  177.2470  137.0510 C   0  0  0  0  0  0  0  0  0  0  0  0
  190.5770  177.2870  138.8440 C   0  0  0  0  0  3  0  0  0  0  0  0
  192.0050  176.4940  137.1090 F   0  0  0  0  0  0  0  0  0  0  0  0
  188.2210  177.6660  138.3880 C   0  0  0  0  0  0  0  0  0  0  0  0
  189.7000  176.8550  136.6280 C   0  0  0  0  0  3  0  0  0  0  0  0
  189.3070  177.6810  139.2760 C   0  0  0  0  0  3  0  0  0  0  0  0
  186.7150  178.4720  140.0830 N   0  0  0  0  0  0  0  0  0  0  0  0
  186.9350  178.0590  138.8030 C   0  0  0  0  0  0  0  0  0  0  0  0
  186.0860  177.6150  136.5630 C   0  0  0  0  0  3  0  0  0  0  0  0
  184.5790  178.4170  138.3180 C   0  0  0  0  0  0  0  0  0  0  0  0
  184.4000  178.8380  139.6380 C   0  0  0  0  0  3  0  0  0  0  0  0
  187.3610  177.2270  136.1510 C   0  0  0  0  0  3  0  0  0  0  0  0
  185.3360  179.2970  141.9140 C   0  0  0  0  0  3  0  0  0  0  0  0
  184.2730  178.9830  142.6540 C   0  0  0  0  0  3  0  0  0  0  0  0
  183.4910  180.6590  144.1050 F   0  0  0  0  0  0  0  0  0  0  0  0
  184.1370  179.4350  144.0720 C   0  0  1  0  0  0  0  0  0  0  0  0
  183.3320  178.4140  144.8610 C   0  0  0  0  0  1  0  0  0  0  0  0
  185.5390  179.5620  144.6660 C   0  0  0  0  0  2  0  0  0  0  0  0
  185.8720  178.4500  145.6540 C   0  0  2  0  0  3  0  0  0  0  0  0
  188.3940  177.5980  147.0850 C   0  0  0  0  0  2  0  0  0  0  0  0
  188.3270  177.7720  145.5550 C   0  0  2  0  0  3  0  0  0  0  0  0
  186.3250  179.0510  146.9920 C   0  0  0  0  0  2  0  0  0  0  0  0
  186.9080  177.5040  145.0280 C   0  0  1  0  0  3  0  0  0  0  0  0
  186.5410  176.1900  145.2710 F   0  0  0  0  0  0  0  0  0  0  0  0
  187.1120  178.0320  147.8080 C   0  0  0  0  0  2  0  0  0  0  0  0
  189.3820  176.9120  144.8430 C   0  0  0  0  0  3  0  0  0  0  0  0
  189.4900  178.0760  142.6190 C   0  0  0  0  0  2  0  0  0  0  0  0
  191.0250  178.6850  144.1550 C   0  0  0  0  0  2  0  0  0  0  0  0
  190.8620  178.3240  142.8060 O   0  0  0  0  0  0  0  0  0  0  0  0
  190.7990  177.4650  145.0530 C   0  0  0  0  0  2  0  0  0  0  0  0
  189.0900  176.7870  143.3400 C   0  0  0  0  0  2  0  0  0  0  0  0
  183.3920  178.3840  137.4000 C   0  0  0  0  0  2  0  0  0  0  0  0
  182.0900  178.6010  138.1640 C   0  0  1  0  0  3  0  0  0  0  0  0
  181.3100  179.7470  137.5450 C   0  0  0  0  0  1  0  0  0  0  0  0
  181.2350  177.3360  138.2290 C   0  0  0  0  0  2  0  0  0  0  0  0
  182.6160  175.7760  139.8630 O   0  0  0  0  0  1  0  0  0  0  0  0
  183.5830  174.5720  138.0330 O   0  0  0  0  0  1  0  0  0  0  0  0
  181.8990  176.2140  137.5700 N   0  0  0  0  0  0  0  0  0  0  0  0
  182.5110  175.2950  138.5510 C   0  0  0  0  0  0  0  0  0  0  0  0
  181.1930  174.9960  138.0330 C   0  0  0  0  0  2  0  0  0  0  0  0
  1  5  1  0  0  0  0
  2 13  2  0  0  0  0
  2 11  1  0  0  0  0
  3 16  1  0  0  0  0
  4  7  2  0  0  0  0
  5  9  2  0  0  0  0
  6  1  1  0  0  0  0
  7 11  1  0  0  0  0
  7  9  1  0  0  0  0
  8  4  1  0  0  0  0
  8  1  2  0  0  0  0
 10  3  1  0  0  0  0
 11 10  2  0  0  0  0
 12  2  1  0  0  0  0
 13 14  1  0  0  0  0
 14  3  2  0  0  0  0
 15 12  2  0  0  0  0
 15  4  1  0  0  0  0
 16 17  2  0  0  0  0
 17 19  1  0  0  0  0
 19 18  1  0  0  0  0
 19 21  1  0  0  0  0
 19 20  1  1  0  0  0
 22 21  1  6  0  0  0
 22 25  1  0  0  0  0
 23 28  1  0  0  0  0
 24 29  1  6  0  0  0
 24 23  1  0  0  0  0
 25 28  1  0  0  0  0
 26 27  1  1  0  0  0
 26 24  1  0  0  0  0
 26 22  1  0  0  0  0
 29 33  1  0  0  0  0
 30 32  1  0  0  0  0
 30 34  1  0  0  0  0
 31 33  1  0  0  0  0
 32 31  1  0  0  0  0
 34 29  1  0  0  0  0
 35 36  1  0  0  0  0
 35 13  1  0  0  0  0
 36 37  1  6  0  0  0
 36 38  1  0  0  0  0
 40 42  1  0  0  0  0
 41 43  1  0  0  0  0
 41 38  1  0  0  0  0
 41 42  1  0  0  0  0
 42 39  1  0  0  0  0
 43 42  1  0  0  0  0
M  END
>  <MODEL>
6

>  <REMARK>
 VINA RESULT:      -9.4      3.131      9.784
  Name = 
  9 active torsions:
  status: ('A' for Active; 'I' for Inactive)
    1  A    between atoms: C_1  and  C_9
    2  A    between atoms: C_1  and  C_35
    3  A    between atoms: C_2  and  C_13
    4  A    between atoms: C_3  and  C_4
    5  A    between atoms: C_3  and  C_12
    6  A    between atoms: C_6  and  C_12
    7  A    between atoms: C_9  and  N_32
    8  A    between atoms: C_11  and  C_14
    9  A    between atoms: C_34  and  C_35
                            x       y       z     vdW  Elec       q    Type
                         _______ _______ _______ _____ _____    ______ ____

>  <TORSDO>
F 9

$$$$
=
 OpenBabel10272414253D

 43 48  0  0  1  0  0  0  0  0999 V2000
  191.1610  176.5310  147.0820 C   0  0  0  0  0  0  0  0  0  0  0  0
  187.2200  178.0370  144.2860 C   0  0  0  0  0  0  0  0  0  0  0  0
  188.1220  177.9750  141.6480 C   0  0  0  0  0  0  0  0  0  0  0  0
  188.9820  177.2880  146.3440 C   0  0  0  0  0  0  0  0  0  0  0  0
  191.6070  176.5110  145.7580 C   0  0  0  0  0  3  0  0  0  0  0  0
  192.0000  176.1740  148.0840 F   0  0  0  0  0  0  0  0  0  0  0  0
  189.4270  177.2690  145.0000 C   0  0  0  0  0  0  0  0  0  0  0  0
  189.8500  176.9190  147.3750 C   0  0  0  0  0  3  0  0  0  0  0  0
  190.7450  176.8780  144.7210 C   0  0  0  0  0  3  0  0  0  0  0  0
  188.9470  177.6240  142.6690 N   0  0  0  0  0  0  0  0  0  0  0  0
  188.5430  177.6420  143.9710 C   0  0  0  0  0  0  0  0  0  0  0  0
  186.7990  178.0430  145.6240 C   0  0  0  0  0  3  0  0  0  0  0  0
  186.3530  178.4130  143.2460 C   0  0  0  0  0  0  0  0  0  0  0  0
  186.8090  178.3760  141.9260 C   0  0  0  0  0  3  0  0  0  0  0  0
  187.6740  177.6720  146.6450 C   0  0  0  0  0  3  0  0  0  0  0  0
  188.6350  177.9260  140.2720 C   0  0  0  0  0  3  0  0  0  0  0  0
  187.8420  178.0170  139.2050 C   0  0  0  0  0  3  0  0  0  0  0  0
  187.3590  177.6570  136.9320 F   0  0  0  0  0  0  0  0  0  0  0  0
  188.3830  177.9650  137.8130 C   0  0  1  0  0  0  0  0  0  0  0  0
  188.9820  179.3140  137.4450 C   0  0  0  0  0  1  0  0  0  0  0  0
  189.4630  176.8860  137.7640 C   0  0  0  0  0  2  0  0  0  0  0  0
  189.3320  175.9660  136.5550 C   0  0  2  0  0  3  0  0  0  0  0  0
  190.5490  173.3050  135.8000 C   0  0  0  0  0  2  0  0  0  0  0  0
  191.4030  174.5190  136.2120 C   0  0  2  0  0  3  0  0  0  0  0  0
  188.7360  174.6160  136.9810 C   0  0  0  0  0  2  0  0  0  0  0  0
  190.6960  175.8380  135.8590 C   0  0  1  0  0  3  0  0  0  0  0  0
  190.5280  175.9470  134.4880 F   0  0  0  0  0  0  0  0  0  0  0  0
  189.0400  173.5370  135.9480 C   0  0  0  0  0  2  0  0  0  0  0  0
  192.8170  174.4430  135.6160 C   0  0  0  0  0  3  0  0  0  0  0  0
  193.9370  176.3130  136.8670 C   0  0  0  0  0  2  0  0  0  0  0  0
  194.1820  174.2390  137.7170 C   0  0  0  0  0  2  0  0  0  0  0  0
  194.8840  175.4120  137.3840 O   0  0  0  0  0  0  0  0  0  0  0  0
  193.7290  173.5230  136.4420 C   0  0  0  0  0  2  0  0  0  0  0  0
  193.4560  175.8340  135.4950 C   0  0  0  0  0  2  0  0  0  0  0  0
  184.9480  178.8650  143.5150 C   0  0  0  0  0  2  0  0  0  0  0  0
  183.9900  178.3850  142.4300 C   0  0  1  0  0  3  0  0  0  0  0  0
  182.5550  178.6490  142.8510 C   0  0  0  0  0  1  0  0  0  0  0  0
  184.2820  179.0220  141.0730 C   0  0  0  0  0  2  0  0  0  0  0  0
  184.2010  180.5620  138.9210 O   0  0  0  0  0  1  0  0  0  0  0  0
  182.2440  179.4560  138.0990 O   0  0  0  0  0  1  0  0  0  0  0  0
  183.3080  178.6010  140.0700 N   0  0  0  0  0  0  0  0  0  0  0  0
  183.4270  179.3980  138.8320 C   0  0  0  0  0  0  0  0  0  0  0  0
  184.0990  178.1190  138.9130 C   0  0  0  0  0  2  0  0  0  0  0  0
  1  8  1  0  0  0  0
  1  6  1  0  0  0  0
  2 12  1  0  0  0  0
  3 14  2  0  0  0  0
  3 10  1  0  0  0  0
  4 15  1  0  0  0  0
  4  8  2  0  0  0  0
  5  1  2  0  0  0  0
  7  4  1  0  0  0  0
  9  7  2  0  0  0  0
  9  5  1  0  0  0  0
 10 11  2  0  0  0  0
 11  2  1  0  0  0  0
 11  7  1  0  0  0  0
 12 15  2  0  0  0  0
 13 35  1  0  0  0  0
 13  2  2  0  0  0  0
 14 13  1  0  0  0  0
 16  3  1  0  0  0  0
 17 16  2  0  0  0  0
 18 19  1  0  0  0  0
 19 20  1  6  0  0  0
 19 17  1  0  0  0  0
 21 19  1  0  0  0  0
 22 25  1  0  0  0  0
 22 21  1  1  0  0  0
 23 28  1  0  0  0  0
 23 24  1  0  0  0  0
 24 29  1  6  0  0  0
 26 27  1  6  0  0  0
 26 24  1  0  0  0  0
 26 22  1  0  0  0  0
 28 25  1  0  0  0  0
 29 33  1  0  0  0  0
 30 32  1  0  0  0  0
 32 31  1  0  0  0  0
 33 31  1  0  0  0  0
 34 29  1  0  0  0  0
 34 30  1  0  0  0  0
 36 37  1  1  0  0  0
 36 35  1  0  0  0  0
 38 36  1  0  0  0  0
 40 42  1  0  0  0  0
 41 38  1  0  0  0  0
 42 43  1  0  0  0  0
 42 39  1  0  0  0  0
 42 41  1  0  0  0  0
 43 41  1  0  0  0  0
M  END
>  <MODEL>
7

>  <REMARK>
 VINA RESULT:      -9.4      3.388      6.607
  Name = 
  9 active torsions:
  status: ('A' for Active; 'I' for Inactive)
    1  A    between atoms: C_1  and  C_9
    2  A    between atoms: C_1  and  C_35
    3  A    between atoms: C_2  and  C_13
    4  A    between atoms: C_3  and  C_4
    5  A    between atoms: C_3  and  C_12
    6  A    between atoms: C_6  and  C_12
    7  A    between atoms: C_9  and  N_32
    8  A    between atoms: C_11  and  C_14
    9  A    between atoms: C_34  and  C_35
                            x       y       z     vdW  Elec       q    Type
                         _______ _______ _______ _____ _____    ______ ____

>  <TORSDO>
F 9

$$$$
=
 OpenBabel10272414253D

 43 48  0  0  1  0  0  0  0  0999 V2000
  191.2280  176.5580  147.0790 C   0  0  0  0  0  0  0  0  0  0  0  0
  187.0660  178.0220  144.5990 C   0  0  0  0  0  0  0  0  0  0  0  0
  187.7590  177.9640  141.8980 C   0  0  0  0  0  0  0  0  0  0  0  0
  188.9900  177.2930  146.5130 C   0  0  0  0  0  0  0  0  0  0  0  0
  191.5690  176.5400  145.7240 C   0  0  0  0  0  3  0  0  0  0  0  0
  192.1470  176.2110  148.0120 F   0  0  0  0  0  0  0  0  0  0  0  0
  189.3290  177.2760  145.1390 C   0  0  0  0  0  0  0  0  0  0  0  0
  189.9410  176.9340  147.4730 C   0  0  0  0  0  3  0  0  0  0  0  0
  190.6250  176.8970  144.7570 C   0  0  0  0  0  3  0  0  0  0  0  0
  188.6650  177.6230  142.8520 N   0  0  0  0  0  0  0  0  0  0  0  0
  188.3640  177.6390  144.1810 C   0  0  0  0  0  0  0  0  0  0  0  0
  186.7510  178.0250  145.9660 C   0  0  0  0  0  3  0  0  0  0  0  0
  186.1160  178.3880  143.6290 C   0  0  0  0  0  0  0  0  0  0  0  0
  186.4680  178.3530  142.2780 C   0  0  0  0  0  3  0  0  0  0  0  0
  187.7070  177.6640  146.9150 C   0  0  0  0  0  3  0  0  0  0  0  0
  188.1620  177.9180  140.4870 C   0  0  0  0  0  3  0  0  0  0  0  0
  189.0130  177.0100  140.0100 C   0  0  0  0  0  3  0  0  0  0  0  0
  188.3670  176.4720  137.8150 F   0  0  0  0  0  0  0  0  0  0  0  0
  189.4110  176.9800  138.5700 C   0  0  1  0  0  0  0  0  0  0  0  0
  189.7420  178.3880  138.0990 C   0  0  0  0  0  1  0  0  0  0  0  0
  190.6420  176.0850  138.4370 C   0  0  0  0  0  2  0  0  0  0  0  0
  190.7880  175.4740  137.0480 C   0  0  2  0  0  3  0  0  0  0  0  0
  192.2160  173.0420  135.9630 C   0  0  0  0  0  2  0  0  0  0  0  0
  192.9300  174.1120  136.8100 C   0  0  2  0  0  3  0  0  0  0  0  0
  190.1610  174.0720  137.0190 C   0  0  0  0  0  2  0  0  0  0  0  0
  192.2680  175.4890  136.6360 C   0  0  1  0  0  3  0  0  0  0  0  0
  192.3780  175.9160  135.3230 F   0  0  0  0  0  0  0  0  0  0  0  0
  190.7020  173.2590  135.8490 C   0  0  0  0  0  2  0  0  0  0  0  0
  194.4370  174.1530  136.5160 C   0  0  0  0  0  3  0  0  0  0  0  0
  195.3600  173.9550  138.8450 C   0  0  0  0  0  2  0  0  0  0  0  0
  195.1800  172.0430  137.6630 C   0  0  0  0  0  2  0  0  0  0  0  0
  196.0500  172.7860  138.4820 O   0  0  0  0  0  0  0  0  0  0  0  0
  195.0110  172.7430  136.3120 C   0  0  0  0  0  2  0  0  0  0  0  0
  195.2120  174.8730  137.6290 C   0  0  0  0  0  2  0  0  0  0  0  0
  184.7320  178.8260  144.0080 C   0  0  0  0  0  2  0  0  0  0  0  0
  183.7180  178.4660  142.9280 C   0  0  1  0  0  3  0  0  0  0  0  0
  182.3150  178.8020  143.4000 C   0  0  0  0  0  1  0  0  0  0  0  0
  184.0190  179.1500  141.5950 C   0  0  0  0  0  2  0  0  0  0  0  0
  184.4550  180.2390  139.2220 O   0  0  0  0  0  1  0  0  0  0  0  0
  182.3740  179.4180  138.3690 O   0  0  0  0  0  1  0  0  0  0  0  0
  183.0600  178.7540  140.5680 N   0  0  0  0  0  0  0  0  0  0  0  0
  183.4520  179.2610  139.2370 C   0  0  0  0  0  0  0  0  0  0  0  0
  183.8160  177.9110  139.6110 C   0  0  0  0  0  2  0  0  0  0  0  0
  1  8  1  0  0  0  0
  1  6  1  0  0  0  0
  2 12  1  0  0  0  0
  3 14  2  0  0  0  0
  3 10  1  0  0  0  0
  4 15  1  0  0  0  0
  4  8  2  0  0  0  0
  5  1  2  0  0  0  0
  7  4  1  0  0  0  0
  9  7  2  0  0  0  0
  9  5  1  0  0  0  0
 10 11  2  0  0  0  0
 11  2  1  0  0  0  0
 11  7  1  0  0  0  0
 12 15  2  0  0  0  0
 13 35  1  0  0  0  0
 13  2  2  0  0  0  0
 14 13  1  0  0  0  0
 16  3  1  0  0  0  0
 17 16  2  0  0  0  0
 18 19  1  0  0  0  0
 19 20  1  6  0  0  0
 19 17  1  0  0  0  0
 21 19  1  0  0  0  0
 22 21  1  1  0  0  0
 23 24  1  0  0  0  0
 24 29  1  6  0  0  0
 25 22  1  0  0  0  0
 26 27  1  6  0  0  0
 26 24  1  0  0  0  0
 26 22  1  0  0  0  0
 28 23  1  0  0  0  0
 28 25  1  0  0  0  0
 29 34  1  0  0  0  0
 31 32  1  0  0  0  0
 32 30  1  0  0  0  0
 33 29  1  0  0  0  0
 33 31  1  0  0  0  0
 34 30  1  0  0  0  0
 36 37  1  1  0  0  0
 36 35  1  0  0  0  0
 38 36  1  0  0  0  0
 39 42  1  0  0  0  0
 40 42  1  0  0  0  0
 41 38  1  0  0  0  0
 42 43  1  0  0  0  0
 42 41  1  0  0  0  0
 43 41  1  0  0  0  0
M  END
>  <MODEL>
8

>  <REMARK>
 VINA RESULT:      -9.2      3.657      6.726
  Name = 
  9 active torsions:
  status: ('A' for Active; 'I' for Inactive)
    1  A    between atoms: C_1  and  C_9
    2  A    between atoms: C_1  and  C_35
    3  A    between atoms: C_2  and  C_13
    4  A    between atoms: C_3  and  C_4
    5  A    between atoms: C_3  and  C_12
    6  A    between atoms: C_6  and  C_12
    7  A    between atoms: C_9  and  N_32
    8  A    between atoms: C_11  and  C_14
    9  A    between atoms: C_34  and  C_35
                            x       y       z     vdW  Elec       q    Type
                         _______ _______ _______ _____ _____    ______ ____

>  <TORSDO>
F 9

$$$$
=
 OpenBabel10272414253D

 43 48  0  0  1  0  0  0  0  0999 V2000
  187.8590  177.8540  148.1960 C   0  0  0  0  0  0  0  0  0  0  0  0
  189.2320  177.1610  143.3740 C   0  0  0  0  0  0  0  0  0  0  0  0
  187.1050  178.1340  141.8550 C   0  0  0  0  0  0  0  0  0  0  0  0
  189.0670  177.2760  146.1770 C   0  0  0  0  0  0  0  0  0  0  0  0
  186.7940  178.3310  147.4270 C   0  0  0  0  0  3  0  0  0  0  0  0
  187.7910  177.9010  149.5480 F   0  0  0  0  0  0  0  0  0  0  0  0
  187.9920  177.7590  145.3920 C   0  0  0  0  0  0  0  0  0  0  0  0
  188.9930  177.3270  147.5720 C   0  0  0  0  0  3  0  0  0  0  0  0
  186.8590  178.2850  146.0310 C   0  0  0  0  0  3  0  0  0  0  0  0
  187.0580  178.1690  143.2130 N   0  0  0  0  0  0  0  0  0  0  0  0
  188.0770  177.7030  143.9880 C   0  0  0  0  0  0  0  0  0  0  0  0
  190.2870  176.6940  144.1710 C   0  0  0  0  0  3  0  0  0  0  0  0
  189.2970  177.1070  141.9700 C   0  0  0  0  0  0  0  0  0  0  0  0
  188.2300  177.6000  141.2140 C   0  0  0  0  0  3  0  0  0  0  0  0
  190.2040  176.7510  145.5620 C   0  0  0  0  0  3  0  0  0  0  0  0
  185.9650  178.6590  141.0910 C   0  0  0  0  0  3  0  0  0  0  0  0
  184.7850  178.0420  141.0450 C   0  0  0  0  0  3  0  0  0  0  0  0
  182.6130  178.9390  141.1290 F   0  0  0  0  0  0  0  0  0  0  0  0
  183.6360  178.5920  140.2620 C   0  0  1  0  0  0  0  0  0  0  0  0
  184.0850  179.8220  139.4880 C   0  0  0  0  0  1  0  0  0  0  0  0
  183.1620  177.5110  139.2930 C   0  0  0  0  0  2  0  0  0  0  0  0
  183.4690  177.8400  137.8360 C   0  0  2  0  0  3  0  0  0  0  0  0
  183.3580  176.2650  135.2590 C   0  0  0  0  0  2  0  0  0  0  0  0
  184.1330  175.7750  136.4970 C   0  0  2  0  0  3  0  0  0  0  0  0
  182.1980  177.7060  136.9850 C   0  0  0  0  0  2  0  0  0  0  0  0
  184.6280  176.9580  137.3460 C   0  0  1  0  0  3  0  0  0  0  0  0
  185.5240  177.7300  136.6250 F   0  0  0  0  0  0  0  0  0  0  0  0
  182.5450  177.5420  135.5100 C   0  0  0  0  0  2  0  0  0  0  0  0
  185.2750  174.8240  136.1080 C   0  0  0  0  0  3  0  0  0  0  0  0
  184.8660  172.9400  137.7210 C   0  0  0  0  0  2  0  0  0  0  0  0
  183.9790  172.7180  135.6590 C   0  0  0  0  0  2  0  0  0  0  0  0
  184.7170  172.0430  136.6490 O   0  0  0  0  0  0  0  0  0  0  0  0
  184.8340  173.8210  135.0320 C   0  0  0  0  0  2  0  0  0  0  0  0
  185.8230  174.0680  137.3290 C   0  0  0  0  0  2  0  0  0  0  0  0
  190.4820  176.5240  141.2590 C   0  0  0  0  0  2  0  0  0  0  0  0
  191.0110  177.4700  140.1860 C   0  0  1  0  0  3  0  0  0  0  0  0
  192.5070  177.6630  140.3560 C   0  0  0  0  0  1  0  0  0  0  0  0
  190.6830  176.9910  138.7740 C   0  0  0  0  0  2  0  0  0  0  0  0
  189.6990  176.0110  136.5190 O   0  0  0  0  0  1  0  0  0  0  0  0
  189.7830  173.7700  137.3570 O   0  0  0  0  0  1  0  0  0  0  0  0
  190.7140  175.5330  138.6880 N   0  0  0  0  0  0  0  0  0  0  0  0
  190.3080  175.0600  137.3490 C   0  0  0  0  0  0  0  0  0  0  0  0
  191.7160  175.2090  137.6460 C   0  0  0  0  0  2  0  0  0  0  0  0
  1  6  1  0  0  0  0
  2 11  1  0  0  0  0
  2 12  1  0  0  0  0
  3 10  1  0  0  0  0
  4  8  2  0  0  0  0
  5  1  2  0  0  0  0
  7  9  2  0  0  0  0
  7  4  1  0  0  0  0
  8  1  1  0  0  0  0
  9  5  1  0  0  0  0
 10 11  2  0  0  0  0
 11  7  1  0  0  0  0
 12 15  2  0  0  0  0
 13  2  2  0  0  0  0
 14  3  2  0  0  0  0
 14 13  1  0  0  0  0
 15  4  1  0  0  0  0
 16  3  1  0  0  0  0
 17 16  2  0  0  0  0
 19 20  1  6  0  0  0
 19 17  1  0  0  0  0
 19 18  1  0  0  0  0
 21 19  1  0  0  0  0
 22 21  1  1  0  0  0
 23 28  1  0  0  0  0
 23 24  1  0  0  0  0
 24 29  1  6  0  0  0
 24 26  1  0  0  0  0
 25 22  1  0  0  0  0
 26 27  1  6  0  0  0
 26 22  1  0  0  0  0
 28 25  1  0  0  0  0
 29 34  1  0  0  0  0
 31 32  1  0  0  0  0
 32 30  1  0  0  0  0
 33 31  1  0  0  0  0
 33 29  1  0  0  0  0
 34 30  1  0  0  0  0
 35 13  1  0  0  0  0
 36 37  1  6  0  0  0
 36 35  1  0  0  0  0
 38 36  1  0  0  0  0
 39 42  1  0  0  0  0
 41 38  1  0  0  0  0
 42 40  1  0  0  0  0
 42 43  1  0  0  0  0
 42 41  1  0  0  0  0
 43 41  1  0  0  0  0
M  END
>  <MODEL>
9

>  <REMARK>
 VINA RESULT:      -9.1      3.168      6.109
  Name = 
  9 active torsions:
  status: ('A' for Active; 'I' for Inactive)
    1  A    between atoms: C_1  and  C_9
    2  A    between atoms: C_1  and  C_35
    3  A    between atoms: C_2  and  C_13
    4  A    between atoms: C_3  and  C_4
    5  A    between atoms: C_3  and  C_12
    6  A    between atoms: C_6  and  C_12
    7  A    between atoms: C_9  and  N_32
    8  A    between atoms: C_11  and  C_14
    9  A    between atoms: C_34  and  C_35
                            x       y       z     vdW  Elec       q    Type
                         _______ _______ _______ _____ _____    ______ ____

>  <TORSDO>
F 9

$$$$
