=
 OpenBabel10272413133D

 32 37  0  0  1  0  0  0  0  0999 V2000
  186.0350  178.5870  139.6110 C   0  0  0  0  0  0  0  0  0  0  0  0
  187.0540  178.4910  141.8820 C   0  0  2  0  0  3  0  0  0  0  0  0
  186.1030  178.4750  138.2550 N   0  0  0  0  0  0  0  0  0  0  0  0
  187.1770  178.3730  140.3890 C   0  0  0  0  0  0  0  0  0  0  0  0
  188.1500  177.7640  142.7160 C   0  0  1  0  0  3  0  0  0  0  0  0
  184.2640  178.8960  145.7950 C   0  0  0  0  0  3  0  0  0  0  0  0
  185.5970  178.2070  142.2890 C   0  0  2  0  0  3  0  0  0  0  0  0
  186.3400  177.6540  145.9560 C   0  0  0  0  0  3  0  0  0  0  0  0
  186.4490  177.6540  144.5640 C   0  0  0  0  0  0  0  0  0  0  0  0
  188.3780  178.0180  139.7710 C   0  0  0  0  0  0  0  0  0  0  0  0
  187.5870  176.9430  143.8900 C   0  0  0  0  0  2  0  0  0  0  0  0
  189.5770  177.7040  140.6080 C   0  0  0  0  0  2  0  0  0  0  0  0
  188.4350  177.9350  138.3780 C   0  0  0  0  0  3  0  0  0  0  0  0
  184.7720  179.1330  141.6160 O   0  0  0  0  0  0  0  0  0  0  0  0
  184.7790  178.7670  140.2960 N   0  0  0  0  0  0  0  0  0  0  0  0
  185.4620  178.2780  143.7800 C   0  0  0  0  0  0  0  0  0  0  0  0
  189.1510  176.9490  141.8720 C   0  0  1  0  0  3  0  0  0  0  0  0
  187.2760  178.1740  137.6300 C   0  0  0  0  0  3  0  0  0  0  0  0
  185.2510  178.2800  146.5720 C   0  0  0  0  0  3  0  0  0  0  0  0
  184.3630  178.8890  144.4000 C   0  0  0  0  0  3  0  0  0  0  0  0
  181.0420  178.9850  139.9880 C   0  0  1  0  0  3  0  0  0  0  0  0
  180.7290  176.3490  137.3090 O   0  0  0  0  0  1  0  0  0  0  0  0
  180.1960  180.0490  140.3010 O   0  0  0  0  0  1  0  0  0  0  0  0
  182.1200  176.2640  139.2530 C   0  0  0  0  0  2  0  0  0  0  0  0
  183.5350  178.3660  139.6490 C   0  0  1  0  0  3  0  0  0  0  0  0
  180.4570  178.1740  138.8260 C   0  0  0  0  0  2  0  0  0  0  0  0
  183.0620  177.0170  140.2060 C   0  0  0  0  0  2  0  0  0  0  0  0
  182.4850  179.4830  139.7830 C   0  0  1  0  0  3  0  0  0  0  0  0
  182.5960  180.4460  138.6100 C   0  0  0  0  0  1  0  0  0  0  0  0
  181.4180  177.1500  138.2170 C   0  0  2  0  0  3  0  0  0  0  0  0
  190.3810  176.5550  142.6860 C   0  0  0  0  0  2  0  0  0  0  0  0
  190.4290  175.1720  142.8730 O   0  0  0  0  0  1  0  0  0  0  0  0
  1 15  1  0  0  0  0
  1  4  1  0  0  0  0
  2  4  1  6  0  0  0
  2  7  1  0  0  0  0
  2  5  1  0  0  0  0
  3  1  2  0  0  0  0
  5 11  1  1  0  0  0
  6 19  1  0  0  0  0
  7 14  1  6  0  0  0
  7 16  1  0  0  0  0
  8 19  2  0  0  0  0
  9  8  1  0  0  0  0
 10  4  2  0  0  0  0
 10 12  1  0  0  0  0
 11  9  1  0  0  0  0
 12 17  1  0  0  0  0
 13 10  1  0  0  0  0
 15 14  1  0  0  0  0
 16 20  1  0  0  0  0
 16  9  2  0  0  0  0
 17 31  1  1  0  0  0
 17  5  1  0  0  0  0
 18  3  1  0  0  0  0
 18 13  2  0  0  0  0
 20  6  2  0  0  0  0
 21 23  1  6  0  0  0
 24 27  1  0  0  0  0
 25 28  1  0  0  0  0
 25 27  1  1  0  0  0
 25 15  1  0  0  0  0
 26 21  1  0  0  0  0
 28 29  1  6  0  0  0
 28 21  1  0  0  0  0
 30 22  1  6  0  0  0
 30 26  1  0  0  0  0
 30 24  1  0  0  0  0
 31 32  1  0  0  0  0
M  END
>  <MODEL>
1

>  <REMARK>
 VINA RESULT:     -10.6      0.000      0.000
  Name = 
  2 active torsions:
  status: ('A' for Active; 'I' for Inactive)
    1  A    between atoms: C_13  and  C_29
    2  A    between atoms: C_16  and  N_27
                            x       y       z     vdW  Elec       q    Type
                         _______ _______ _______ _____ _____    ______ ____

>  <TORSDO>
F 2

$$$$
=
 OpenBabel10272413133D

 32 37  0  0  1  0  0  0  0  0999 V2000
  186.4350  178.8020  139.7850 C   0  0  0  0  0  0  0  0  0  0  0  0
  187.3430  178.4260  142.0740 C   0  0  2  0  0  3  0  0  0  0  0  0
  186.5280  178.7380  138.4280 N   0  0  0  0  0  0  0  0  0  0  0  0
  187.4940  178.3540  140.5810 C   0  0  0  0  0  0  0  0  0  0  0  0
  188.2640  177.4790  142.9000 C   0  0  1  0  0  3  0  0  0  0  0  0
  184.5360  179.1520  145.9290 C   0  0  0  0  0  3  0  0  0  0  0  0
  185.8450  178.3900  142.4290 C   0  0  2  0  0  3  0  0  0  0  0  0
  186.3530  177.5540  146.0830 C   0  0  0  0  0  3  0  0  0  0  0  0
  186.5080  177.5950  144.6950 C   0  0  0  0  0  0  0  0  0  0  0  0
  188.6330  177.8160  139.9780 C   0  0  0  0  0  0  0  0  0  0  0  0
  187.5240  176.7220  144.0180 C   0  0  0  0  0  2  0  0  0  0  0  0
  189.7280  177.2580  140.8290 C   0  0  0  0  0  2  0  0  0  0  0  0
  188.7220  177.7850  138.5840 C   0  0  0  0  0  3  0  0  0  0  0  0
  185.2210  179.4770  141.7810 O   0  0  0  0  0  0  0  0  0  0  0  0
  185.2080  179.1720  140.4450 N   0  0  0  0  0  0  0  0  0  0  0  0
  185.6740  178.4180  143.9180 C   0  0  0  0  0  0  0  0  0  0  0  0
  189.1320  176.5370  142.0430 C   0  0  1  0  0  3  0  0  0  0  0  0
  187.6500  178.2600  137.8200 C   0  0  0  0  0  3  0  0  0  0  0  0
  185.3720  178.3370  146.7000 C   0  0  0  0  0  3  0  0  0  0  0  0
  184.6810  179.1880  144.5390 C   0  0  0  0  0  3  0  0  0  0  0  0
  183.1600  177.7120  137.6560 C   0  0  1  0  0  3  0  0  0  0  0  0
  179.9930  179.5780  138.4960 O   0  0  0  0  0  1  0  0  0  0  0  0
  183.3360  176.5070  136.9750 O   0  0  0  0  0  1  0  0  0  0  0  0
  182.2180  180.4550  138.4870 C   0  0  0  0  0  2  0  0  0  0  0  0
  183.9350  179.0280  139.7480 C   0  0  1  0  0  3  0  0  0  0  0  0
  181.6700  178.0680  137.7150 C   0  0  0  0  0  2  0  0  0  0  0  0
  183.7010  180.2300  138.8250 C   0  0  0  0  0  2  0  0  0  0  0  0
  183.8830  177.6760  139.0150 C   0  0  1  0  0  3  0  0  0  0  0  0
  183.3160  176.6050  139.9350 C   0  0  0  0  0  1  0  0  0  0  0  0
  181.3280  179.2200  138.6640 C   0  0  2  0  0  3  0  0  0  0  0  0
  190.2440  175.8940  142.8680 C   0  0  0  0  0  2  0  0  0  0  0  0
  191.3390  176.7550  142.9820 O   0  0  0  0  0  1  0  0  0  0  0  0
  1 15  1  0  0  0  0
  1  4  1  0  0  0  0
  2  4  1  6  0  0  0
  2  7  1  0  0  0  0
  2  5  1  0  0  0  0
  3  1  2  0  0  0  0
  5 11  1  1  0  0  0
  6 19  1  0  0  0  0
  7 14  1  6  0  0  0
  7 16  1  0  0  0  0
  8 19  2  0  0  0  0
  9  8  1  0  0  0  0
 10  4  2  0  0  0  0
 10 12  1  0  0  0  0
 11  9  1  0  0  0  0
 12 17  1  0  0  0  0
 13 10  1  0  0  0  0
 15 14  1  0  0  0  0
 16 20  1  0  0  0  0
 16  9  2  0  0  0  0
 17 31  1  1  0  0  0
 17  5  1  0  0  0  0
 18  3  1  0  0  0  0
 18 13  2  0  0  0  0
 20  6  2  0  0  0  0
 21 23  1  1  0  0  0
 21 26  1  0  0  0  0
 21 28  1  0  0  0  0
 24 30  1  0  0  0  0
 24 27  1  0  0  0  0
 25 27  1  6  0  0  0
 25 15  1  0  0  0  0
 26 30  1  0  0  0  0
 28 25  1  0  0  0  0
 28 29  1  1  0  0  0
 30 22  1  6  0  0  0
 31 32  1  0  0  0  0
M  END
>  <MODEL>
2

>  <REMARK>
 VINA RESULT:      -9.4      0.934      1.984
  Name = 
  2 active torsions:
  status: ('A' for Active; 'I' for Inactive)
    1  A    between atoms: C_13  and  C_29
    2  A    between atoms: C_16  and  N_27
                            x       y       z     vdW  Elec       q    Type
                         _______ _______ _______ _____ _____    ______ ____

>  <TORSDO>
F 2

$$$$
=
 OpenBabel10272413133D

 32 37  0  0  1  0  0  0  0  0999 V2000
  187.3450  178.7030  141.1090 C   0  0  0  0  0  0  0  0  0  0  0  0
  188.5300  178.0360  139.0220 C   0  0  2  0  0  3  0  0  0  0  0  0
  186.2180  179.0270  141.8030 N   0  0  0  0  0  0  0  0  0  0  0  0
  187.2650  178.4050  139.7450 C   0  0  0  0  0  0  0  0  0  0  0  0
  188.3510  177.2310  137.7010 C   0  0  1  0  0  3  0  0  0  0  0  0
  193.2020  176.8490  139.1800 C   0  0  0  0  0  3  0  0  0  0  0  0
  189.5360  177.4580  140.0340 C   0  0  2  0  0  3  0  0  0  0  0  0
  191.8050  175.8920  137.4440 C   0  0  0  0  0  3  0  0  0  0  0  0
  190.6640  176.3390  138.1160 C   0  0  0  0  0  0  0  0  0  0  0  0
  186.0240  178.4130  139.1060 C   0  0  0  0  0  0  0  0  0  0  0  0
  189.2960  176.0220  137.5840 C   0  0  0  0  0  2  0  0  0  0  0  0
  185.9270  178.0100  137.6700 C   0  0  0  0  0  2  0  0  0  0  0  0
  184.8830  178.7750  139.8270 C   0  0  0  0  0  3  0  0  0  0  0  0
  189.7600  178.4350  141.0280 O   0  0  0  0  0  0  0  0  0  0  0  0
  188.6100  178.5000  141.7700 N   0  0  0  0  0  0  0  0  0  0  0  0
  190.7900  177.0440  139.3260 C   0  0  0  0  0  0  0  0  0  0  0  0
  186.8900  176.8530  137.3850 C   0  0  1  0  0  3  0  0  0  0  0  0
  185.0040  179.0860  141.1870 C   0  0  0  0  0  3  0  0  0  0  0  0
  193.0740  176.1530  137.9730 C   0  0  0  0  0  3  0  0  0  0  0  0
  192.0630  177.2880  139.8610 C   0  0  0  0  0  3  0  0  0  0  0  0
  190.2570  176.7950  144.6830 C   0  0  1  0  0  3  0  0  0  0  0  0
  187.5780  177.6600  147.1910 O   0  0  0  0  0  1  0  0  0  0  0  0
  191.6070  176.5010  144.8790 O   0  0  0  0  0  1  0  0  0  0  0  0
  187.2530  176.9130  144.9420 C   0  0  0  0  0  2  0  0  0  0  0  0
  188.6440  178.1650  143.1890 C   0  0  1  0  0  3  0  0  0  0  0  0
  189.5740  177.0520  146.0320 C   0  0  0  0  0  2  0  0  0  0  0  0
  187.7070  176.9860  143.4750 C   0  0  0  0  0  2  0  0  0  0  0  0
  190.0950  177.9160  143.6380 C   0  0  1  0  0  3  0  0  0  0  0  0
  190.7310  179.2190  144.0960 C   0  0  0  0  0  1  0  0  0  0  0  0
  188.1680  177.6470  145.9290 C   0  0  2  0  0  3  0  0  0  0  0  0
  186.7330  176.3850  135.9400 C   0  0  0  0  0  2  0  0  0  0  0  0
  186.9380  177.4420  135.0510 O   0  0  0  0  0  1  0  0  0  0  0  0
  1 15  1  0  0  0  0
  1  3  1  0  0  0  0
  2  4  1  1  0  0  0
  2  7  1  0  0  0  0
  4  1  2  0  0  0  0
  5 11  1  1  0  0  0
  5  2  1  0  0  0  0
  6 20  1  0  0  0  0
  7 16  1  6  0  0  0
  7 14  1  0  0  0  0
  8 19  1  0  0  0  0
  8  9  2  0  0  0  0
  9 16  1  0  0  0  0
 10  4  1  0  0  0  0
 10 13  2  0  0  0  0
 11  9  1  0  0  0  0
 12 10  1  0  0  0  0
 13 18  1  0  0  0  0
 14 15  1  0  0  0  0
 16 20  2  0  0  0  0
 17 31  1  6  0  0  0
 17 12  1  0  0  0  0
 17  5  1  0  0  0  0
 18  3  2  0  0  0  0
 19  6  2  0  0  0  0
 21 23  1  1  0  0  0
 21 26  1  0  0  0  0
 24 30  1  0  0  0  0
 25 15  1  6  0  0  0
 25 27  1  0  0  0  0
 25 28  1  0  0  0  0
 27 24  1  0  0  0  0
 28 29  1  1  0  0  0
 28 21  1  0  0  0  0
 30 26  1  0  0  0  0
 30 22  1  1  0  0  0
 32 31  1  0  0  0  0
M  END
>  <MODEL>
3

>  <REMARK>
 VINA RESULT:      -9.2      3.180      7.742
  Name = 
  2 active torsions:
  status: ('A' for Active; 'I' for Inactive)
    1  A    between atoms: C_13  and  C_29
    2  A    between atoms: C_16  and  N_27
                            x       y       z     vdW  Elec       q    Type
                         _______ _______ _______ _____ _____    ______ ____

>  <TORSDO>
F 2

$$$$
=
 OpenBabel10272413133D

 32 37  0  0  1  0  0  0  0  0999 V2000
  190.1870  177.7810  139.9430 C   0  0  0  0  0  0  0  0  0  0  0  0
  189.0960  178.2500  142.1330 C   0  0  2  0  0  3  0  0  0  0  0  0
  191.2610  177.4200  139.1860 N   0  0  0  0  0  0  0  0  0  0  0  0
  190.3090  177.8650  141.3340 C   0  0  0  0  0  0  0  0  0  0  0  0
  189.1090  177.8390  143.6350 C   0  0  1  0  0  3  0  0  0  0  0  0
  184.3430  179.0480  142.3340 C   0  0  0  0  0  3  0  0  0  0  0  0
  187.8320  177.8710  141.3400 C   0  0  2  0  0  3  0  0  0  0  0  0
  185.4630  178.1300  144.2780 C   0  0  0  0  0  3  0  0  0  0  0  0
  186.5980  177.8760  143.5040 C   0  0  0  0  0  0  0  0  0  0  0  0
  191.5260  177.5490  141.9430 C   0  0  0  0  0  0  0  0  0  0  0  0
  187.7930  177.1960  144.1090 C   0  0  0  0  0  2  0  0  0  0  0  0
  191.6310  177.5550  143.4340 C   0  0  0  0  0  2  0  0  0  0  0  0
  192.6220  177.2080  141.1480 C   0  0  0  0  0  3  0  0  0  0  0  0
  187.8820  178.5400  140.0990 O   0  0  0  0  0  0  0  0  0  0  0  0
  188.8720  177.9300  139.3730 N   0  0  0  0  0  0  0  0  0  0  0  0
  186.6090  178.2090  142.1380 C   0  0  0  0  0  0  0  0  0  0  0  0
  190.3390  177.0100  144.0530 C   0  0  1  0  0  3  0  0  0  0  0  0
  192.4690  177.1530  139.7570 C   0  0  0  0  0  3  0  0  0  0  0  0
  184.3380  178.7210  143.6940 C   0  0  0  0  0  3  0  0  0  0  0  0
  185.4740  178.7860  141.5540 C   0  0  0  0  0  3  0  0  0  0  0  0
  186.3250  176.6160  136.9450 C   0  0  1  0  0  3  0  0  0  0  0  0
  188.8220  175.0830  134.5720 O   0  0  0  0  0  1  0  0  0  0  0  0
  185.0230  177.0610  136.7120 O   0  0  0  0  0  1  0  0  0  0  0  0
  188.8710  174.9970  136.9610 C   0  0  0  0  0  2  0  0  0  0  0  0
  188.5420  177.2610  138.1200 C   0  0  1  0  0  3  0  0  0  0  0  0
  186.9220  176.0410  135.6550 C   0  0  0  0  0  2  0  0  0  0  0  0
  188.6540  175.7410  138.2890 C   0  0  0  0  0  2  0  0  0  0  0  0
  187.1600  177.7200  137.6230 C   0  0  1  0  0  3  0  0  0  0  0  0
  187.3050  178.9490  136.7400 C   0  0  0  0  0  1  0  0  0  0  0  0
  188.4280  175.7730  135.7160 C   0  0  2  0  0  3  0  0  0  0  0  0
  190.4770  176.9360  145.5710 C   0  0  0  0  0  2  0  0  0  0  0  0
  191.8150  177.0540  145.9550 O   0  0  0  0  0  1  0  0  0  0  0  0
  1  4  1  0  0  0  0
  2  4  1  6  0  0  0
  2  5  1  0  0  0  0
  3 18  1  0  0  0  0
  3  1  2  0  0  0  0
  4 10  2  0  0  0  0
  5 17  1  0  0  0  0
  5 11  1  6  0  0  0
  6 19  1  0  0  0  0
  7 14  1  6  0  0  0
  7  2  1  0  0  0  0
  7 16  1  0  0  0  0
  9 11  1  0  0  0  0
  9  8  1  0  0  0  0
 10 12  1  0  0  0  0
 12 17  1  0  0  0  0
 13 10  1  0  0  0  0
 15  1  1  0  0  0  0
 15 14  1  0  0  0  0
 16  9  2  0  0  0  0
 17 31  1  1  0  0  0
 18 13  2  0  0  0  0
 19  8  2  0  0  0  0
 20 16  1  0  0  0  0
 20  6  2  0  0  0  0
 21 23  1  6  0  0  0
 21 28  1  0  0  0  0
 24 27  1  0  0  0  0
 25 27  1  1  0  0  0
 25 15  1  0  0  0  0
 26 30  1  0  0  0  0
 26 21  1  0  0  0  0
 28 29  1  6  0  0  0
 28 25  1  0  0  0  0
 30 22  1  6  0  0  0
 30 24  1  0  0  0  0
 31 32  1  0  0  0  0
M  END
>  <MODEL>
4

>  <REMARK>
 VINA RESULT:      -9.0      3.016      4.698
  Name = 
  2 active torsions:
  status: ('A' for Active; 'I' for Inactive)
    1  A    between atoms: C_13  and  C_29
    2  A    between atoms: C_16  and  N_27
                            x       y       z     vdW  Elec       q    Type
                         _______ _______ _______ _____ _____    ______ ____

>  <TORSDO>
F 2

$$$$
=
 OpenBabel10272413133D

 32 37  0  0  1  0  0  0  0  0999 V2000
  188.0690  178.2890  140.0590 C   0  0  0  0  0  0  0  0  0  0  0  0
  189.1860  177.3620  138.0350 C   0  0  2  0  0  3  0  0  0  0  0  0
  186.9750  178.7580  140.7220 N   0  0  0  0  0  0  0  0  0  0  0  0
  187.9590  177.8880  138.7240 C   0  0  0  0  0  0  0  0  0  0  0  0
  188.9370  176.4690  136.7840 C   0  0  1  0  0  3  0  0  0  0  0  0
  193.7500  175.8240  138.2940 C   0  0  0  0  0  3  0  0  0  0  0  0
  190.1490  176.7900  139.0920 C   0  0  2  0  0  3  0  0  0  0  0  0
  192.2720  174.8430  136.6410 C   0  0  0  0  0  3  0  0  0  0  0  0
  191.1740  175.4320  137.2730 C   0  0  0  0  0  0  0  0  0  0  0  0
  186.7180  177.9430  138.0840 C   0  0  0  0  0  0  0  0  0  0  0  0
  189.7830  175.1830  136.7670 C   0  0  0  0  0  2  0  0  0  0  0  0
  186.5820  177.4330  136.6850 C   0  0  0  0  0  2  0  0  0  0  0  0
  185.6140  178.4520  138.7720 C   0  0  0  0  0  3  0  0  0  0  0  0
  190.4550  177.8240  140.0020 O   0  0  0  0  0  0  0  0  0  0  0  0
  189.3170  178.0410  140.7350 N   0  0  0  0  0  0  0  0  0  0  0  0
  191.3620  176.2220  138.4210 C   0  0  0  0  0  0  0  0  0  0  0  0
  187.4490  176.1830  136.4970 C   0  0  1  0  0  3  0  0  0  0  0  0
  185.7660  178.8630  140.1020 C   0  0  0  0  0  3  0  0  0  0  0  0
  193.5610  175.0440  137.1480 C   0  0  0  0  0  3  0  0  0  0  0  0
  192.6530  176.4070  138.9350 C   0  0  0  0  0  3  0  0  0  0  0  0
  190.6350  176.2250  143.7470 C   0  0  1  0  0  3  0  0  0  0  0  0
  188.3520  177.9080  146.2320 O   0  0  0  0  0  1  0  0  0  0  0  0
  191.8820  175.6290  143.9370 O   0  0  0  0  0  1  0  0  0  0  0  0
  187.7610  177.0870  144.0650 C   0  0  0  0  0  2  0  0  0  0  0  0
  189.3330  177.8210  142.1760 C   0  0  1  0  0  3  0  0  0  0  0  0
  190.0930  176.7450  145.0840 C   0  0  0  0  0  2  0  0  0  0  0  0
  188.1540  176.9300  142.5870 C   0  0  0  0  0  2  0  0  0  0  0  0
  190.7000  177.2650  142.6120 C   0  0  1  0  0  3  0  0  0  0  0  0
  191.6480  178.4070  142.9390 C   0  0  0  0  0  1  0  0  0  0  0  0
  188.8670  177.6530  144.9620 C   0  0  2  0  0  3  0  0  0  0  0  0
  187.2470  175.6130  135.0960 C   0  0  0  0  0  2  0  0  0  0  0  0
  186.7190  174.3210  135.1570 O   0  0  0  0  0  1  0  0  0  0  0  0
  1  3  1  0  0  0  0
  1 15  1  0  0  0  0
  2  4  1  1  0  0  0
  2  7  1  0  0  0  0
  4  1  2  0  0  0  0
  5 11  1  1  0  0  0
  5  2  1  0  0  0  0
  6 20  1  0  0  0  0
  7 16  1  6  0  0  0
  7 14  1  0  0  0  0
  8 19  1  0  0  0  0
  8  9  2  0  0  0  0
  9 16  1  0  0  0  0
 10  4  1  0  0  0  0
 10 13  2  0  0  0  0
 11  9  1  0  0  0  0
 12 10  1  0  0  0  0
 13 18  1  0  0  0  0
 14 15  1  0  0  0  0
 16 20  2  0  0  0  0
 17 31  1  6  0  0  0
 17 12  1  0  0  0  0
 17  5  1  0  0  0  0
 18  3  2  0  0  0  0
 19  6  2  0  0  0  0
 21 23  1  1  0  0  0
 21 26  1  0  0  0  0
 24 30  1  0  0  0  0
 25 15  1  6  0  0  0
 25 27  1  0  0  0  0
 25 28  1  0  0  0  0
 27 24  1  0  0  0  0
 28 29  1  1  0  0  0
 28 21  1  0  0  0  0
 30 26  1  0  0  0  0
 30 22  1  1  0  0  0
 31 32  1  0  0  0  0
M  END
>  <MODEL>
5

>  <REMARK>
 VINA RESULT:      -8.3      3.546      8.145
  Name = 
  2 active torsions:
  status: ('A' for Active; 'I' for Inactive)
    1  A    between atoms: C_13  and  C_29
    2  A    between atoms: C_16  and  N_27
                            x       y       z     vdW  Elec       q    Type
                         _______ _______ _______ _____ _____    ______ ____

>  <TORSDO>
F 2

$$$$
=
 OpenBabel10272413133D

 32 37  0  0  1  0  0  0  0  0999 V2000
  188.2540  178.4110  141.0530 C   0  0  0  0  0  0  0  0  0  0  0  0
  188.8630  177.6880  138.7480 C   0  0  2  0  0  3  0  0  0  0  0  0
  187.3530  178.8310  141.9840 N   0  0  0  0  0  0  0  0  0  0  0  0
  187.8400  178.1670  139.7390 C   0  0  0  0  0  0  0  0  0  0  0  0
  188.3060  176.9510  137.4950 C   0  0  1  0  0  3  0  0  0  0  0  0
  193.2900  176.0010  137.8430 C   0  0  0  0  0  3  0  0  0  0  0  0
  189.9980  176.9730  139.5040 C   0  0  2  0  0  3  0  0  0  0  0  0
  191.4440  175.2580  136.4580 C   0  0  0  0  0  3  0  0  0  0  0  0
  190.5390  175.8020  137.3730 C   0  0  0  0  0  0  0  0  0  0  0  0
  186.4970  178.3300  139.3950 C   0  0  0  0  0  0  0  0  0  0  0  0
  189.0600  175.6510  137.1590 C   0  0  0  0  0  2  0  0  0  0  0  0
  186.0390  177.9870  138.0140 C   0  0  0  0  0  2  0  0  0  0  0  0
  185.5930  178.7880  140.3560 C   0  0  0  0  0  3  0  0  0  0  0  0
  190.5450  177.8870  140.4290 O   0  0  0  0  0  0  0  0  0  0  0  0
  189.6030  178.0510  141.4110 N   0  0  0  0  0  0  0  0  0  0  0  0
  191.0090  176.4500  138.5290 C   0  0  0  0  0  0  0  0  0  0  0  0
  186.7790  176.7420  137.5110 C   0  0  1  0  0  3  0  0  0  0  0  0
  186.0470  179.0400  141.6570 C   0  0  0  0  0  3  0  0  0  0  0  0
  192.8200  175.3630  136.6910 C   0  0  0  0  0  3  0  0  0  0  0  0
  192.3880  176.5380  138.7660 C   0  0  0  0  0  3  0  0  0  0  0  0
  188.5890  177.6910  145.0090 C   0  0  1  0  0  3  0  0  0  0  0  0
  191.9630  176.5380  146.2380 O   0  0  0  0  0  1  0  0  0  0  0  0
  187.3190  177.4790  145.5470 O   0  0  0  0  0  1  0  0  0  0  0  0
  191.5270  178.2950  144.6760 C   0  0  0  0  0  2  0  0  0  0  0  0
  189.9140  177.6690  142.7830 C   0  0  1  0  0  3  0  0  0  0  0  0
  189.6520  177.0390  145.9010 C   0  0  0  0  0  2  0  0  0  0  0  0
  190.6990  178.7880  143.4780 C   0  0  0  0  0  2  0  0  0  0  0  0
  188.6260  177.2730  143.5270 C   0  0  1  0  0  3  0  0  0  0  0  0
  188.3530  175.7880  143.3460 C   0  0  0  0  0  1  0  0  0  0  0  0
  191.0490  176.9700  145.2790 C   0  0  2  0  0  3  0  0  0  0  0  0
  186.2530  176.3410  136.1350 C   0  0  0  0  0  2  0  0  0  0  0  0
  186.2880  177.4250  135.2550 O   0  0  0  0  0  1  0  0  0  0  0  0
  1 15  1  0  0  0  0
  1  3  1  0  0  0  0
  2  7  1  0  0  0  0
  2  4  1  1  0  0  0
  4  1  2  0  0  0  0
  5 11  1  1  0  0  0
  5 17  1  0  0  0  0
  5  2  1  0  0  0  0
  6 20  1  0  0  0  0
  7 16  1  6  0  0  0
  7 14  1  0  0  0  0
  8 19  1  0  0  0  0
  8  9  2  0  0  0  0
  9 16  1  0  0  0  0
 10  4  1  0  0  0  0
 10 13  2  0  0  0  0
 11  9  1  0  0  0  0
 12 10  1  0  0  0  0
 13 18  1  0  0  0  0
 14 15  1  0  0  0  0
 16 20  2  0  0  0  0
 17 31  1  6  0  0  0
 17 12  1  0  0  0  0
 18  3  2  0  0  0  0
 19  6  2  0  0  0  0
 21 23  1  1  0  0  0
 21 26  1  0  0  0  0
 24 30  1  0  0  0  0
 25 15  1  6  0  0  0
 25 27  1  0  0  0  0
 25 28  1  0  0  0  0
 27 24  1  0  0  0  0
 28 29  1  1  0  0  0
 28 21  1  0  0  0  0
 30 26  1  0  0  0  0
 30 22  1  1  0  0  0
 32 31  1  0  0  0  0
M  END
>  <MODEL>
6

>  <REMARK>
 VINA RESULT:      -8.1      3.424      8.158
  Name = 
  2 active torsions:
  status: ('A' for Active; 'I' for Inactive)
    1  A    between atoms: C_13  and  C_29
    2  A    between atoms: C_16  and  N_27
                            x       y       z     vdW  Elec       q    Type
                         _______ _______ _______ _____ _____    ______ ____

>  <TORSDO>
F 2

$$$$
=
 OpenBabel10272413133D

 32 37  0  0  1  0  0  0  0  0999 V2000
  189.9980  178.0310  141.2580 C   0  0  0  0  0  0  0  0  0  0  0  0
  187.8610  178.5210  142.4410 C   0  0  2  0  0  3  0  0  0  0  0  0
  191.3090  177.6630  141.2450 N   0  0  0  0  0  0  0  0  0  0  0  0
  189.3110  178.1290  142.4720 C   0  0  0  0  0  0  0  0  0  0  0  0
  187.0190  178.1260  143.6900 C   0  0  1  0  0  3  0  0  0  0  0  0
  183.8330  179.3140  139.9090 C   0  0  0  0  0  3  0  0  0  0  0  0
  187.2660  178.1320  141.0750 C   0  0  2  0  0  3  0  0  0  0  0  0
  183.6520  178.4180  142.1540 C   0  0  0  0  0  3  0  0  0  0  0  0
  185.0240  178.1570  142.1610 C   0  0  0  0  0  0  0  0  0  0  0  0
  189.9680  177.8220  143.6660 C   0  0  0  0  0  0  0  0  0  0  0  0
  185.6640  177.4850  143.3420 C   0  0  0  0  0  2  0  0  0  0  0  0
  189.2110  177.8430  144.9550 C   0  0  0  0  0  2  0  0  0  0  0  0
  191.3210  177.4740  143.6350 C   0  0  0  0  0  3  0  0  0  0  0  0
  188.0130  178.7880  140.0740 O   0  0  0  0  0  0  0  0  0  0  0  0
  189.2370  178.1720  140.0420 N   0  0  0  0  0  0  0  0  0  0  0  0
  185.8080  178.4760  141.0380 C   0  0  0  0  0  0  0  0  0  0  0  0
  187.7930  177.3020  144.7390 C   0  0  1  0  0  3  0  0  0  0  0  0
  191.9810  177.4040  142.4020 C   0  0  0  0  0  3  0  0  0  0  0  0
  183.0570  179.0020  141.0300 C   0  0  0  0  0  3  0  0  0  0  0  0
  185.2050  179.0460  139.9080 C   0  0  0  0  0  3  0  0  0  0  0  0
  188.4390  176.2820  136.8960 C   0  0  1  0  0  3  0  0  0  0  0  0
  192.0250  175.6350  135.9240 O   0  0  0  0  0  1  0  0  0  0  0  0
  187.2930  176.3420  136.1030 O   0  0  0  0  0  1  0  0  0  0  0  0
  191.0770  175.4670  138.1140 C   0  0  0  0  0  2  0  0  0  0  0  0
  189.6710  177.4890  138.8290 C   0  0  1  0  0  3  0  0  0  0  0  0
  189.6610  175.9580  136.0280 C   0  0  0  0  0  2  0  0  0  0  0  0
  190.1190  176.0600  139.1600 C   0  0  0  0  0  2  0  0  0  0  0  0
  188.5630  177.5500  137.7620 C   0  0  1  0  0  3  0  0  0  0  0  0
  188.7200  178.8050  136.9180 C   0  0  0  0  0  1  0  0  0  0  0  0
  191.0070  176.1330  136.7350 C   0  0  2  0  0  3  0  0  0  0  0  0
  187.0470  177.2440  146.0690 C   0  0  0  0  0  2  0  0  0  0  0  0
  187.9400  177.2890  147.1420 O   0  0  0  0  0  1  0  0  0  0  0  0
  1  4  1  0  0  0  0
  2  4  1  1  0  0  0
  2  5  1  0  0  0  0
  3  1  2  0  0  0  0
  3 18  1  0  0  0  0
  4 10  2  0  0  0  0
  5 11  1  6  0  0  0
  5 17  1  0  0  0  0
  6 19  1  0  0  0  0
  7 14  1  6  0  0  0
  7  2  1  0  0  0  0
  8  9  1  0  0  0  0
  9 11  1  0  0  0  0
 10 12  1  0  0  0  0
 13 10  1  0  0  0  0
 15 14  1  0  0  0  0
 15  1  1  0  0  0  0
 16  7  1  0  0  0  0
 16  9  2  0  0  0  0
 17 12  1  0  0  0  0
 17 31  1  1  0  0  0
 18 13  2  0  0  0  0
 19  8  2  0  0  0  0
 20  6  2  0  0  0  0
 20 16  1  0  0  0  0
 21 23  1  6  0  0  0
 21 28  1  0  0  0  0
 24 27  1  0  0  0  0
 25 27  1  1  0  0  0
 25 15  1  0  0  0  0
 26 30  1  0  0  0  0
 26 21  1  0  0  0  0
 28 29  1  6  0  0  0
 28 25  1  0  0  0  0
 30 22  1  6  0  0  0
 30 24  1  0  0  0  0
 31 32  1  0  0  0  0
M  END
>  <MODEL>
7

>  <REMARK>
 VINA RESULT:      -8.1      2.915      6.013
  Name = 
  2 active torsions:
  status: ('A' for Active; 'I' for Inactive)
    1  A    between atoms: C_13  and  C_29
    2  A    between atoms: C_16  and  N_27
                            x       y       z     vdW  Elec       q    Type
                         _______ _______ _______ _____ _____    ______ ____

>  <TORSDO>
F 2

$$$$
=
 OpenBabel10272413133D

 32 37  0  0  1  0  0  0  0  0999 V2000
  185.2840  178.8770  142.0000 C   0  0  0  0  0  0  0  0  0  0  0  0
  185.2280  178.7170  139.5140 C   0  0  2  0  0  3  0  0  0  0  0  0
  184.6750  178.9180  143.2180 N   0  0  0  0  0  0  0  0  0  0  0  0
  184.5150  178.7770  140.8360 C   0  0  0  0  0  0  0  0  0  0  0  0
  184.4230  178.1000  138.3320 C   0  0  1  0  0  3  0  0  0  0  0  0
  189.3390  178.2470  137.0370 C   0  0  0  0  0  3  0  0  0  0  0  0
  186.6440  178.1550  139.7330 C   0  0  2  0  0  3  0  0  0  0  0  0
  187.2910  177.3580  136.0930 C   0  0  0  0  0  3  0  0  0  0  0  0
  186.6520  177.5200  137.3250 C   0  0  0  0  0  0  0  0  0  0  0  0
  183.1240  178.6910  140.9310 C   0  0  0  0  0  0  0  0  0  0  0  0
  185.2280  177.0810  137.5060 C   0  0  0  0  0  2  0  0  0  0  0  0
  182.3080  178.4970  139.6930 C   0  0  0  0  0  2  0  0  0  0  0  0
  182.5160  178.7630  142.1860 C   0  0  0  0  0  3  0  0  0  0  0  0
  187.3060  178.9960  140.6540 O   0  0  0  0  0  0  0  0  0  0  0  0
  186.7160  178.7730  141.8710 N   0  0  0  0  0  0  0  0  0  0  0  0
  187.3580  178.0480  138.4200 C   0  0  0  0  0  0  0  0  0  0  0  0
  183.0370  177.5550  138.7270 C   0  0  1  0  0  3  0  0  0  0  0  0
  183.3170  178.8820  143.3280 C   0  0  0  0  0  3  0  0  0  0  0  0
  188.6320  177.7280  135.9470 C   0  0  0  0  0  3  0  0  0  0  0  0
  188.7070  178.4010  138.2740 C   0  0  0  0  0  3  0  0  0  0  0  0
  189.1790  176.2740  143.2090 C   0  0  1  0  0  3  0  0  0  0  0  0
  189.0320  177.4760  146.7810 O   0  0  0  0  0  1  0  0  0  0  0  0
  190.1920  175.5920  142.5350 O   0  0  0  0  0  1  0  0  0  0  0  0
  187.1880  177.1830  145.2870 C   0  0  0  0  0  2  0  0  0  0  0  0
  187.5080  178.2400  142.9720 C   0  0  1  0  0  3  0  0  0  0  0  0
  189.5880  176.5120  144.6680 C   0  0  0  0  0  2  0  0  0  0  0  0
  186.6400  177.3380  143.8590 C   0  0  0  0  0  2  0  0  0  0  0  0
  188.7640  177.5350  142.4280 C   0  0  1  0  0  3  0  0  0  0  0  0
  189.9070  178.5300  142.3000 C   0  0  0  0  0  1  0  0  0  0  0  0
  188.6840  177.4820  145.4320 C   0  0  2  0  0  3  0  0  0  0  0  0
  182.1680  177.2890  137.5010 C   0  0  0  0  0  2  0  0  0  0  0  0
  181.8680  178.4810  136.8370 O   0  0  0  0  0  1  0  0  0  0  0  0
  1  3  1  0  0  0  0
  2  7  1  0  0  0  0
  2  4  1  1  0  0  0
  3 18  2  0  0  0  0
  4 10  1  0  0  0  0
  4  1  2  0  0  0  0
  5 11  1  1  0  0  0
  5 17  1  0  0  0  0
  5  2  1  0  0  0  0
  6 20  1  0  0  0  0
  7 16  1  6  0  0  0
  7 14  1  0  0  0  0
  8  9  2  0  0  0  0
  9 11  1  0  0  0  0
  9 16  1  0  0  0  0
 10 13  2  0  0  0  0
 12 10  1  0  0  0  0
 13 18  1  0  0  0  0
 14 15  1  0  0  0  0
 15  1  1  0  0  0  0
 17 31  1  6  0  0  0
 17 12  1  0  0  0  0
 19  8  1  0  0  0  0
 19  6  2  0  0  0  0
 20 16  2  0  0  0  0
 21 23  1  6  0  0  0
 21 26  1  0  0  0  0
 24 30  1  0  0  0  0
 25 15  1  6  0  0  0
 25 27  1  0  0  0  0
 26 30  1  0  0  0  0
 27 24  1  0  0  0  0
 28 29  1  1  0  0  0
 28 25  1  0  0  0  0
 28 21  1  0  0  0  0
 30 22  1  1  0  0  0
 32 31  1  0  0  0  0
M  END
>  <MODEL>
8

>  <REMARK>
 VINA RESULT:      -7.9      1.828      7.694
  Name = 
  2 active torsions:
  status: ('A' for Active; 'I' for Inactive)
    1  A    between atoms: C_13  and  C_29
    2  A    between atoms: C_16  and  N_27
                            x       y       z     vdW  Elec       q    Type
                         _______ _______ _______ _____ _____    ______ ____

>  <TORSDO>
F 2

$$$$
=
 OpenBabel10272413133D

 32 37  0  0  1  0  0  0  0  0999 V2000
  182.0360  178.7900  141.4450 C   0  0  0  0  0  0  0  0  0  0  0  0
  184.3630  178.1720  142.0840 C   0  0  2  0  0  3  0  0  0  0  0  0
  180.7510  179.1250  141.7520 N   0  0  0  0  0  0  0  0  0  0  0  0
  182.9520  178.5220  142.4670 C   0  0  0  0  0  0  0  0  0  0  0  0
  185.4420  178.3890  143.1860 C   0  0  1  0  0  3  0  0  0  0  0  0
  187.7900  177.8710  138.7040 C   0  0  0  0  0  3  0  0  0  0  0  0
  184.6740  178.7810  140.7050 C   0  0  2  0  0  3  0  0  0  0  0  0
  188.4280  178.4150  140.9790 C   0  0  0  0  0  3  0  0  0  0  0  0
  187.0880  178.6400  141.3020 C   0  0  0  0  0  0  0  0  0  0  0  0
  182.5520  178.6260  143.8010 C   0  0  0  0  0  0  0  0  0  0  0  0
  186.7050  179.1070  142.6770 C   0  0  0  0  0  2  0  0  0  0  0  0
  183.5530  178.4240  144.8930 C   0  0  0  0  0  2  0  0  0  0  0  0
  181.2240  178.9440  144.0960 C   0  0  0  0  0  3  0  0  0  0  0  0
  183.7340  178.2700  139.7840 O   0  0  0  0  0  0  0  0  0  0  0  0
  182.5340  178.8550  140.0940 N   0  0  0  0  0  0  0  0  0  0  0  0
  186.0910  178.4800  140.3230 C   0  0  0  0  0  0  0  0  0  0  0  0
  184.9030  179.0240  144.4830 C   0  0  1  0  0  3  0  0  0  0  0  0
  180.3290  179.1870  143.0460 C   0  0  0  0  0  3  0  0  0  0  0  0
  188.7790  178.0250  139.6820 C   0  0  0  0  0  3  0  0  0  0  0  0
  186.4480  178.1050  139.0200 C   0  0  0  0  0  3  0  0  0  0  0  0
  181.5000  179.5650  136.5540 C   0  0  1  0  0  3  0  0  0  0  0  0
  179.9830  182.9410  137.2740 O   0  0  0  0  0  1  0  0  0  0  0  0
  181.2360  178.6670  135.5200 O   0  0  0  0  0  1  0  0  0  0  0  0
  182.0360  182.0740  138.1420 C   0  0  0  0  0  2  0  0  0  0  0  0
  181.8700  179.7070  139.1140 C   0  0  1  0  0  3  0  0  0  0  0  0
  180.6370  180.8220  136.3900 C   0  0  0  0  0  2  0  0  0  0  0  0
  182.7940  180.8620  138.7090 C   0  0  0  0  0  2  0  0  0  0  0  0
  181.3880  178.8630  137.9210 C   0  0  1  0  0  3  0  0  0  0  0  0
  179.9820  178.3450  138.1830 C   0  0  0  0  0  1  0  0  0  0  0  0
  180.6370  181.7560  137.6020 C   0  0  2  0  0  3  0  0  0  0  0  0
  185.9030  178.8930  145.6290 C   0  0  0  0  0  2  0  0  0  0  0  0
  185.2700  179.0710  146.8620 O   0  0  0  0  0  1  0  0  0  0  0  0
  1  3  2  0  0  0  0
  1  4  1  0  0  0  0
  2  4  1  1  0  0  0
  2  5  1  0  0  0  0
  3 18  1  0  0  0  0
  4 10  2  0  0  0  0
  5 11  1  6  0  0  0
  5 17  1  0  0  0  0
  6 20  2  0  0  0  0
  6 19  1  0  0  0  0
  7 14  1  6  0  0  0
  7  2  1  0  0  0  0
  8  9  1  0  0  0  0
  9 11  1  0  0  0  0
 10 13  1  0  0  0  0
 10 12  1  0  0  0  0
 14 15  1  0  0  0  0
 15  1  1  0  0  0  0
 16  7  1  0  0  0  0
 16  9  2  0  0  0  0
 17 12  1  0  0  0  0
 17 31  1  1  0  0  0
 18 13  2  0  0  0  0
 19  8  2  0  0  0  0
 20 16  1  0  0  0  0
 21 23  1  6  0  0  0
 21 28  1  0  0  0  0
 24 27  1  0  0  0  0
 25 27  1  6  0  0  0
 25 15  1  0  0  0  0
 26 21  1  0  0  0  0
 26 30  1  0  0  0  0
 28 29  1  1  0  0  0
 28 25  1  0  0  0  0
 30 22  1  6  0  0  0
 30 24  1  0  0  0  0
 31 32  1  0  0  0  0
M  END
>  <MODEL>
9

>  <REMARK>
 VINA RESULT:      -7.8      2.321      5.341
  Name = 
  2 active torsions:
  status: ('A' for Active; 'I' for Inactive)
    1  A    between atoms: C_13  and  C_29
    2  A    between atoms: C_16  and  N_27
                            x       y       z     vdW  Elec       q    Type
                         _______ _______ _______ _____ _____    ______ ____

>  <TORSDO>
F 2

$$$$
