=
 OpenBabel10272400113D

 34 37  0  0  1  0  0  0  0  0999 V2000
  191.4850  176.5470  146.0260 C   0  0  2  0  0  3  0  0  0  0  0  0
  189.3970  176.6990  144.5180 C   0  0  2  0  0  3  0  0  0  0  0  0
  187.5880  177.3230  142.8530 C   0  0  1  0  0  3  0  0  0  0  0  0
  187.0520  177.1980  145.3170 C   0  0  0  0  0  2  0  0  0  0  0  0
  190.0370  177.0440  145.8910 C   0  0  2  0  0  3  0  0  0  0  0  0
  185.6140  177.4220  144.8340 C   0  0  0  0  0  2  0  0  0  0  0  0
  186.4050  178.2530  142.5630 C   0  0  0  0  0  2  0  0  0  0  0  0
  190.4230  176.8160  143.4550 N   0  0  2  0  0  0  0  0  0  0  0  0
  191.7430  175.3760  145.0900 C   0  0  0  0  0  2  0  0  0  0  0  0
  188.6860  177.5910  141.8530 C   0  0  0  0  0  2  0  0  0  0  0  0
  189.8450  176.6350  142.1070 C   0  0  1  0  0  3  0  0  0  0  0  0
  185.5430  178.5480  143.8020 C   0  0  1  0  0  3  0  0  0  0  0  0
  188.1270  177.5340  144.2670 C   0  0  1  0  0  3  0  0  0  0  0  0
  191.4280  175.7430  143.6300 C   0  0  0  0  0  2  0  0  0  0  0  0
  191.5170  176.6770  138.6990 C   0  0  0  0  0  0  0  0  0  0  0  0
  192.7600  177.2410  138.9970 C   0  0  0  0  0  3  0  0  0  0  0  0
  190.8740  176.8470  141.0310 C   0  0  0  0  0  0  0  0  0  0  0  0
  193.0640  177.6120  140.3110 C   0  0  0  0  0  3  0  0  0  0  0  0
  190.5750  176.4820  139.7140 C   0  0  0  0  0  3  0  0  0  0  0  0
  192.1230  177.4180  141.3270 C   0  0  0  0  0  3  0  0  0  0  0  0
  191.2220  176.3230  137.4260 F   0  0  0  0  0  0  0  0  0  0  0  0
  183.2280  179.2480  144.3990 O   0  0  0  0  0  1  0  0  0  0  0  0
  183.7250  178.7470  142.1800 C   0  0  0  0  0  0  0  0  0  0  0  0
  183.3320  178.6410  140.9410 C   0  0  0  0  0  0  0  0  0  0  0  0
  184.1280  178.8520  143.4180 C   0  0  0  0  0  0  0  0  0  0  0  0
  182.1480  177.7890  140.6160 C   0  0  0  0  0  2  0  0  0  0  0  0
  180.8880  178.3760  141.2230 C   0  0  0  0  0  1  0  0  0  0  0  0
  184.0930  179.3490  139.8690 C   0  0  0  0  0  2  0  0  0  0  0  0
  184.8570  178.3540  139.0150 C   0  0  0  0  0  1  0  0  0  0  0  0
  191.7880  176.1710  147.4390 C   0  0  0  0  0  0  0  0  0  0  0  0
  192.3170  177.1210  148.3020 O   0  0  0  0  0  1  0  0  0  0  0  0
  191.5680  175.0020  147.8540 O   0  0  0  0  0  0  0  0  0  0  0  0
  189.8830  178.3930  146.2940 O   0  0  0  0  0  0  0  0  0  0  0  0
  189.2580  178.4300  147.5530 C   0  0  0  0  0  1  0  0  0  0  0  0
  1 30  1  1  0  0  0
  2  5  1  0  0  0  0
  3 13  1  0  0  0  0
  5  1  1  0  0  0  0
  5 33  1  0  0  0  0
  6  4  1  0  0  0  0
  7  3  1  0  0  0  0
  7 12  1  0  0  0  0
  8 14  1  0  0  0  0
  8  2  1  0  0  0  0
  9  1  1  0  0  0  0
 10 11  1  0  0  0  0
 10  3  1  0  0  0  0
 11  8  1  0  0  0  0
 12  6  1  0  0  0  0
 13  2  1  0  0  0  0
 13  4  1  0  0  0  0
 14  9  1  0  0  0  0
 15 16  2  0  0  0  0
 15 19  1  0  0  0  0
 16 18  1  0  0  0  0
 17 20  1  0  0  0  0
 17 11  1  0  0  0  0
 18 20  2  0  0  0  0
 19 17  2  0  0  0  0
 21 15  1  0  0  0  0
 23 25  2  0  0  0  0
 24 23  2  0  0  0  0
 25 12  1  0  0  0  0
 25 22  1  0  0  0  0
 26 24  1  0  0  0  0
 26 27  1  0  0  0  0
 28 24  1  0  0  0  0
 29 28  1  0  0  0  0
 30 32  2  0  0  0  0
 30 31  1  0  0  0  0
 33 34  1  0  0  0  0
M  END
>  <MODEL>
1

>  <REMARK>
 VINA RESULT:      -8.5      0.000      0.000
  Name = 
  6 active torsions:
  status: ('A' for Active; 'I' for Inactive)
    1  A    between atoms: C_1  and  C_6
    2  A    between atoms: O_2  and  C_15
    3  A    between atoms: C_11  and  C_20
    4  A    between atoms: C_12  and  C_28
    5  A    between atoms: C_14  and  C_20
    6  A    between atoms: C_29  and  C_33
                            x       y       z     vdW  Elec       q    Type
                         _______ _______ _______ _____ _____    ______ ____

>  <TORSDO>
F 6

$$$$
=
 OpenBabel10272400113D

 34 37  0  0  1  0  0  0  0  0999 V2000
  187.8770  176.4670  135.4030 C   0  0  2  0  0  3  0  0  0  0  0  0
  189.1210  177.1750  137.5490 C   0  0  2  0  0  3  0  0  0  0  0  0
  190.4150  177.3140  139.7270 C   0  0  1  0  0  3  0  0  0  0  0  0
  188.0370  178.1540  139.6120 C   0  0  0  0  0  2  0  0  0  0  0  0
  187.7610  176.8010  136.9000 C   0  0  2  0  0  3  0  0  0  0  0  0
  188.3290  178.6440  141.0350 C   0  0  0  0  0  2  0  0  0  0  0  0
  190.3550  177.1210  141.2460 C   0  0  0  0  0  2  0  0  0  0  0  0
  190.1940  176.3380  136.9610 N   0  0  2  0  0  0  0  0  0  0  0  0
  189.1050  177.1270  134.7970 C   0  0  0  0  0  2  0  0  0  0  0  0
  191.3930  176.3260  139.1390 C   0  0  0  0  0  2  0  0  0  0  0  0
  191.4920  176.5490  137.6350 C   0  0  1  0  0  3  0  0  0  0  0  0
  189.0190  177.5610  141.8650 C   0  0  1  0  0  3  0  0  0  0  0  0
  189.0430  177.1130  139.0880 C   0  0  1  0  0  3  0  0  0  0  0  0
  190.3870  176.7240  135.5440 C   0  0  0  0  0  2  0  0  0  0  0  0
  194.7530  175.3310  136.1220 C   0  0  0  0  0  0  0  0  0  0  0  0
  194.5550  173.9480  136.0880 C   0  0  0  0  0  3  0  0  0  0  0  0
  192.5510  175.6290  137.0930 C   0  0  0  0  0  0  0  0  0  0  0  0
  193.3560  173.4020  136.5590 C   0  0  0  0  0  3  0  0  0  0  0  0
  193.7540  176.1700  136.6250 C   0  0  0  0  0  3  0  0  0  0  0  0
  192.3570  174.2390  137.0620 C   0  0  0  0  0  3  0  0  0  0  0  0
  195.9170  175.8590  135.6720 F   0  0  0  0  0  0  0  0  0  0  0  0
  190.3990  178.5610  143.6830 O   0  0  0  0  0  1  0  0  0  0  0  0
  188.2400  177.8360  144.1670 C   0  0  0  0  0  0  0  0  0  0  0  0
  187.2810  177.6770  145.0350 C   0  0  0  0  0  0  0  0  0  0  0  0
  189.1960  177.9910  143.2890 C   0  0  0  0  0  0  0  0  0  0  0  0
  187.5530  176.9400  146.3060 C   0  0  0  0  0  2  0  0  0  0  0  0
  188.9000  177.3440  146.8770 C   0  0  0  0  0  1  0  0  0  0  0  0
  185.9200  178.2090  144.7270 C   0  0  0  0  0  2  0  0  0  0  0  0
  185.2810  178.7880  145.9770 C   0  0  0  0  0  1  0  0  0  0  0  0
  186.6410  176.8760  134.6720 C   0  0  0  0  0  0  0  0  0  0  0  0
  185.6880  175.9190  134.3480 O   0  0  0  0  0  1  0  0  0  0  0  0
  186.4560  178.0780  134.3460 O   0  0  0  0  0  0  0  0  0  0  0  0
  187.0060  175.8410  137.6160 O   0  0  0  0  0  0  0  0  0  0  0  0
  187.2570  174.5650  137.0830 C   0  0  0  0  0  1  0  0  0  0  0  0
  1 30  1  6  0  0  0
  1  5  1  0  0  0  0
  2 13  1  0  0  0  0
  3  7  1  0  0  0  0
  4  6  1  0  0  0  0
  5  2  1  0  0  0  0
  5 33  1  0  0  0  0
  6 12  1  0  0  0  0
  7 12  1  0  0  0  0
  8  2  1  0  0  0  0
  8 11  1  0  0  0  0
  9  1  1  0  0  0  0
  9 14  1  0  0  0  0
 10  3  1  0  0  0  0
 11 10  1  0  0  0  0
 12 25  1  0  0  0  0
 13  4  1  0  0  0  0
 13  3  1  0  0  0  0
 14  8  1  0  0  0  0
 15 19  1  0  0  0  0
 16 15  2  0  0  0  0
 16 18  1  0  0  0  0
 17 11  1  0  0  0  0
 18 20  2  0  0  0  0
 19 17  2  0  0  0  0
 20 17  1  0  0  0  0
 21 15  1  0  0  0  0
 23 24  2  0  0  0  0
 24 26  1  0  0  0  0
 25 22  1  0  0  0  0
 25 23  2  0  0  0  0
 26 27  1  0  0  0  0
 28 24  1  0  0  0  0
 28 29  1  0  0  0  0
 31 30  1  0  0  0  0
 32 30  2  0  0  0  0
 34 33  1  0  0  0  0
M  END
>  <MODEL>
2

>  <REMARK>
 VINA RESULT:      -8.2      4.219      7.806
  Name = 
  6 active torsions:
  status: ('A' for Active; 'I' for Inactive)
    1  A    between atoms: C_1  and  C_6
    2  A    between atoms: O_2  and  C_15
    3  A    between atoms: C_11  and  C_20
    4  A    between atoms: C_12  and  C_28
    5  A    between atoms: C_14  and  C_20
    6  A    between atoms: C_29  and  C_33
                            x       y       z     vdW  Elec       q    Type
                         _______ _______ _______ _____ _____    ______ ____

>  <TORSDO>
F 6

$$$$
=
 OpenBabel10272400113D

 34 37  0  0  1  0  0  0  0  0999 V2000
  187.0320  177.5320  145.6180 C   0  0  2  0  0  3  0  0  0  0  0  0
  186.8080  178.3970  143.1980 C   0  0  2  0  0  3  0  0  0  0  0  0
  186.2600  178.7920  140.7520 C   0  0  1  0  0  3  0  0  0  0  0  0
  188.6480  178.3820  141.4650 C   0  0  0  0  0  2  0  0  0  0  0  0
  187.6150  177.5210  144.1960 C   0  0  2  0  0  3  0  0  0  0  0  0
  188.9550  178.7150  140.0000 C   0  0  0  0  0  2  0  0  0  0  0  0
  186.5340  178.3510  139.3100 C   0  0  0  0  0  2  0  0  0  0  0  0
  185.3630  178.2910  143.5090 N   0  0  2  0  0  0  0  0  0  0  0  0
  186.2140  178.7920  145.8570 C   0  0  0  0  0  2  0  0  0  0  0  0
  184.8180  178.5090  141.0930 C   0  0  0  0  0  2  0  0  0  0  0  0
  184.5290  178.9910  142.5090 C   0  0  1  0  0  3  0  0  0  0  0  0
  188.0040  177.9840  139.0530 C   0  0  1  0  0  3  0  0  0  0  0  0
  187.1680  178.0570  141.7380 C   0  0  1  0  0  3  0  0  0  0  0  0
  185.0980  178.9450  144.8110 C   0  0  0  0  0  2  0  0  0  0  0  0
  180.8230  178.4000  141.9430 C   0  0  0  0  0  0  0  0  0  0  0  0
  180.3260  178.4260  143.2490 C   0  0  0  0  0  3  0  0  0  0  0  0
  183.0630  178.8000  142.7810 C   0  0  0  0  0  0  0  0  0  0  0  0
  181.1950  178.6360  144.3240 C   0  0  0  0  0  3  0  0  0  0  0  0
  182.1900  178.5850  141.7100 C   0  0  0  0  0  3  0  0  0  0  0  0
  182.5610  178.8210  144.0930 C   0  0  0  0  0  3  0  0  0  0  0  0
  179.9820  178.1900  140.9020 F   0  0  0  0  0  0  0  0  0  0  0  0
  187.8600  179.3090  136.9480 O   0  0  0  0  0  1  0  0  0  0  0  0
  189.1760  177.3890  136.9900 C   0  0  0  0  0  0  0  0  0  0  0  0
  189.9740  176.5650  136.3710 C   0  0  0  0  0  0  0  0  0  0  0  0
  188.3770  178.2100  137.6190 C   0  0  0  0  0  0  0  0  0  0  0  0
  189.5360  175.9440  135.0840 C   0  0  0  0  0  2  0  0  0  0  0  0
  188.0250  175.8170  135.0430 C   0  0  0  0  0  1  0  0  0  0  0  0
  191.2980  176.2350  136.9780 C   0  0  0  0  0  2  0  0  0  0  0  0
  191.1760  176.1150  138.4860 C   0  0  0  0  0  1  0  0  0  0  0  0
  188.1160  177.4030  146.6370 C   0  0  0  0  0  0  0  0  0  0  0  0
  189.3640  177.9560  146.3840 O   0  0  0  0  0  0  0  0  0  0  0  0
  187.9080  176.7980  147.7220 O   0  0  0  0  0  1  0  0  0  0  0  0
  187.9080  176.2150  143.7350 O   0  0  0  0  0  0  0  0  0  0  0  0
  189.2950  176.0930  143.5430 C   0  0  0  0  0  1  0  0  0  0  0  0
  1  9  1  0  0  0  0
  1 30  1  1  0  0  0
  2  8  1  0  0  0  0
  2  5  1  0  0  0  0
  3 10  1  0  0  0  0
  3 13  1  0  0  0  0
  4 13  1  0  0  0  0
  5  1  1  0  0  0  0
  6  4  1  0  0  0  0
  7  3  1  0  0  0  0
  8 14  1  0  0  0  0
 10 11  1  0  0  0  0
 11 17  1  0  0  0  0
 11  8  1  0  0  0  0
 12  7  1  0  0  0  0
 12  6  1  0  0  0  0
 13  2  1  0  0  0  0
 14  9  1  0  0  0  0
 15 16  1  0  0  0  0
 16 18  2  0  0  0  0
 17 20  2  0  0  0  0
 19 15  2  0  0  0  0
 19 17  1  0  0  0  0
 20 18  1  0  0  0  0
 21 15  1  0  0  0  0
 22 25  1  0  0  0  0
 23 25  2  0  0  0  0
 24 28  1  0  0  0  0
 24 23  2  0  0  0  0
 25 12  1  0  0  0  0
 26 24  1  0  0  0  0
 27 26  1  0  0  0  0
 28 29  1  0  0  0  0
 30 32  1  0  0  0  0
 31 30  2  0  0  0  0
 33  5  1  0  0  0  0
 34 33  1  0  0  0  0
M  END
>  <MODEL>
3

>  <REMARK>
 VINA RESULT:      -7.8      3.439      7.301
  Name = 
  6 active torsions:
  status: ('A' for Active; 'I' for Inactive)
    1  A    between atoms: C_1  and  C_6
    2  A    between atoms: O_2  and  C_15
    3  A    between atoms: C_11  and  C_20
    4  A    between atoms: C_12  and  C_28
    5  A    between atoms: C_14  and  C_20
    6  A    between atoms: C_29  and  C_33
                            x       y       z     vdW  Elec       q    Type
                         _______ _______ _______ _____ _____    ______ ____

>  <TORSDO>
F 6

$$$$
=
 OpenBabel10272400113D

 34 37  0  0  1  0  0  0  0  0999 V2000
  192.6010  176.1300  138.8400 C   0  0  2  0  0  3  0  0  0  0  0  0
  190.4770  177.4660  139.4370 C   0  0  2  0  0  3  0  0  0  0  0  0
  188.2550  178.3170  140.3180 C   0  0  1  0  0  3  0  0  0  0  0  0
  188.6060  178.0290  137.8340 C   0  0  0  0  0  2  0  0  0  0  0  0
  191.1610  176.4910  138.4400 C   0  0  2  0  0  3  0  0  0  0  0  0
  187.2320  178.7030  137.7420 C   0  0  0  0  0  2  0  0  0  0  0  0
  186.7300  178.2320  140.1900 C   0  0  0  0  0  2  0  0  0  0  0  0
  190.9030  177.1370  140.8180 N   0  0  2  0  0  0  0  0  0  0  0  0
  193.2030  177.2100  139.7250 C   0  0  0  0  0  2  0  0  0  0  0  0
  188.6690  177.8110  141.6780 C   0  0  0  0  0  2  0  0  0  0  0  0
  190.1800  177.9400  141.8260 C   0  0  1  0  0  3  0  0  0  0  0  0
  186.2460  178.0930  138.7380 C   0  0  1  0  0  3  0  0  0  0  0  0
  188.9490  177.4920  139.2360 C   0  0  1  0  0  3  0  0  0  0  0  0
  192.3390  177.4610  140.9730 C   0  0  0  0  0  2  0  0  0  0  0  0
  191.6470  175.9700  144.7190 C   0  0  0  0  0  0  0  0  0  0  0  0
  191.2730  176.7510  145.8170 C   0  0  0  0  0  3  0  0  0  0  0  0
  190.5510  177.5340  143.2260 C   0  0  0  0  0  0  0  0  0  0  0  0
  190.5400  177.9260  145.6220 C   0  0  0  0  0  3  0  0  0  0  0  0
  191.2880  176.3620  143.4260 C   0  0  0  0  0  3  0  0  0  0  0  0
  190.1810  178.3190  144.3290 C   0  0  0  0  0  3  0  0  0  0  0  0
  192.3620  174.8350  144.9080 F   0  0  0  0  0  0  0  0  0  0  0  0
  184.5730  179.8990  139.1270 O   0  0  0  0  0  1  0  0  0  0  0  0
  183.9470  178.0170  137.9070 C   0  0  0  0  0  0  0  0  0  0  0  0
  183.0330  177.3650  137.2450 C   0  0  0  0  0  0  0  0  0  0  0  0
  184.8710  178.6630  138.5680 C   0  0  0  0  0  0  0  0  0  0  0  0
  181.7160  177.0850  137.8920 C   0  0  0  0  0  2  0  0  0  0  0  0
  181.9150  176.3590  139.2100 C   0  0  0  0  0  1  0  0  0  0  0  0
  183.3320  176.8850  135.8630 C   0  0  0  0  0  2  0  0  0  0  0  0
  184.6310  176.1000  135.8440 C   0  0  0  0  0  1  0  0  0  0  0  0
  193.4470  175.9040  137.6300 C   0  0  0  0  0  0  0  0  0  0  0  0
  193.8290  174.6140  137.2920 O   0  0  0  0  0  1  0  0  0  0  0  0
  193.8150  176.8740  136.9160 O   0  0  0  0  0  0  0  0  0  0  0  0
  190.3880  175.3550  138.0980 O   0  0  0  0  0  0  0  0  0  0  0  0
  190.3750  175.2100  136.7000 C   0  0  0  0  0  1  0  0  0  0  0  0
  1 30  1  6  0  0  0
  1  9  1  0  0  0  0
  2  8  1  0  0  0  0
  3 10  1  0  0  0  0
  4 13  1  0  0  0  0
  5  1  1  0  0  0  0
  5  2  1  0  0  0  0
  6  4  1  0  0  0  0
  6 12  1  0  0  0  0
  7  3  1  0  0  0  0
  8 14  1  0  0  0  0
  8 11  1  0  0  0  0
  9 14  1  0  0  0  0
 10 11  1  0  0  0  0
 11 17  1  0  0  0  0
 12  7  1  0  0  0  0
 13  2  1  0  0  0  0
 13  3  1  0  0  0  0
 15 21  1  0  0  0  0
 15 16  1  0  0  0  0
 17 19  1  0  0  0  0
 17 20  2  0  0  0  0
 18 16  2  0  0  0  0
 19 15  2  0  0  0  0
 20 18  1  0  0  0  0
 23 25  2  0  0  0  0
 24 26  1  0  0  0  0
 24 23  2  0  0  0  0
 25 12  1  0  0  0  0
 25 22  1  0  0  0  0
 26 27  1  0  0  0  0
 28 24  1  0  0  0  0
 29 28  1  0  0  0  0
 31 30  1  0  0  0  0
 32 30  2  0  0  0  0
 33  5  1  0  0  0  0
 34 33  1  0  0  0  0
M  END
>  <MODEL>
4

>  <REMARK>
 VINA RESULT:      -7.6      3.899      6.163
  Name = 
  6 active torsions:
  status: ('A' for Active; 'I' for Inactive)
    1  A    between atoms: C_1  and  C_6
    2  A    between atoms: O_2  and  C_15
    3  A    between atoms: C_11  and  C_20
    4  A    between atoms: C_12  and  C_28
    5  A    between atoms: C_14  and  C_20
    6  A    between atoms: C_29  and  C_33
                            x       y       z     vdW  Elec       q    Type
                         _______ _______ _______ _____ _____    ______ ____

>  <TORSDO>
F 6

$$$$
=
 OpenBabel10272400113D

 34 37  0  0  1  0  0  0  0  0999 V2000
  187.7250  177.4160  136.3780 C   0  0  2  0  0  3  0  0  0  0  0  0
  187.7480  177.4200  138.9570 C   0  0  2  0  0  3  0  0  0  0  0  0
  187.6550  177.9730  141.4320 C   0  0  1  0  0  3  0  0  0  0  0  0
  189.8050  177.1440  140.4000 C   0  0  0  0  0  2  0  0  0  0  0  0
  188.5740  177.5720  137.6500 C   0  0  2  0  0  3  0  0  0  0  0  0
  190.2880  177.1280  141.8550 C   0  0  0  0  0  2  0  0  0  0  0  0
  188.3830  178.6370  142.6060 C   0  0  0  0  0  2  0  0  0  0  0  0
  186.4090  178.0260  138.7670 N   0  0  2  0  0  0  0  0  0  0  0  0
  186.4750  176.5960  136.6600 C   0  0  0  0  0  2  0  0  0  0  0  0
  186.3750  178.7240  141.1530 C   0  0  0  0  0  2  0  0  0  0  0  0
  185.6240  178.0380  140.0190 C   0  0  1  0  0  3  0  0  0  0  0  0
  189.9040  178.4160  142.5830 C   0  0  1  0  0  3  0  0  0  0  0  0
  188.5220  177.9650  140.1740 C   0  0  1  0  0  3  0  0  0  0  0  0
  185.6420  177.2130  137.7960 C   0  0  0  0  0  2  0  0  0  0  0  0
  181.9490  178.9130  140.3790 C   0  0  0  0  0  0  0  0  0  0  0  0
  181.8350  180.0230  139.5370 C   0  0  0  0  0  3  0  0  0  0  0  0
  184.3060  178.7380  139.8380 C   0  0  0  0  0  0  0  0  0  0  0  0
  182.9550  180.4950  138.8460 C   0  0  0  0  0  3  0  0  0  0  0  0
  183.1820  178.2730  140.5300 C   0  0  0  0  0  3  0  0  0  0  0  0
  184.1890  179.8560  138.9960 C   0  0  0  0  0  3  0  0  0  0  0  0
  180.8640  178.4600  141.0520 F   0  0  0  0  0  0  0  0  0  0  0  0
  191.7550  178.9700  144.1560 O   0  0  0  0  0  1  0  0  0  0  0  0
  189.8040  178.0150  144.9930 C   0  0  0  0  0  0  0  0  0  0  0  0
  189.1220  177.5720  146.0120 C   0  0  0  0  0  0  0  0  0  0  0  0
  190.4790  178.4570  143.9660 C   0  0  0  0  0  0  0  0  0  0  0  0
  189.7240  176.5390  146.9070 C   0  0  0  0  0  2  0  0  0  0  0  0
  191.2280  176.7190  146.9900 C   0  0  0  0  0  1  0  0  0  0  0  0
  187.7390  178.0860  146.2460 C   0  0  0  0  0  2  0  0  0  0  0  0
  186.7330  177.2880  145.4380 C   0  0  0  0  0  1  0  0  0  0  0  0
  188.5260  176.7990  135.2780 C   0  0  0  0  0  0  0  0  0  0  0  0
  189.1760  177.6150  134.3630 O   0  0  0  0  0  0  0  0  0  0  0  0
  188.6150  175.5470  135.1740 O   0  0  0  0  0  1  0  0  0  0  0  0
  189.4150  178.7100  137.6090 O   0  0  0  0  0  0  0  0  0  0  0  0
  188.7030  179.7910  137.0610 C   0  0  0  0  0  1  0  0  0  0  0  0
  1 30  1  6  0  0  0
  1  9  1  0  0  0  0
  1  5  1  0  0  0  0
  2 13  1  0  0  0  0
  3  7  1  0  0  0  0
  4  6  1  0  0  0  0
  5  2  1  0  0  0  0
  6 12  1  0  0  0  0
  8  2  1  0  0  0  0
  8 11  1  0  0  0  0
  9 14  1  0  0  0  0
 10  3  1  0  0  0  0
 11 10  1  0  0  0  0
 12  7  1  0  0  0  0
 12 25  1  0  0  0  0
 13  4  1  0  0  0  0
 13  3  1  0  0  0  0
 14  8  1  0  0  0  0
 15 19  1  0  0  0  0
 15 21  1  0  0  0  0
 16 15  2  0  0  0  0
 17 11  1  0  0  0  0
 17 19  2  0  0  0  0
 18 20  2  0  0  0  0
 18 16  1  0  0  0  0
 20 17  1  0  0  0  0
 23 24  2  0  0  0  0
 24 28  1  0  0  0  0
 24 26  1  0  0  0  0
 25 22  1  0  0  0  0
 25 23  2  0  0  0  0
 26 27  1  0  0  0  0
 29 28  1  0  0  0  0
 31 30  2  0  0  0  0
 32 30  1  0  0  0  0
 33  5  1  0  0  0  0
 34 33  1  0  0  0  0
M  END
>  <MODEL>
5

>  <REMARK>
 VINA RESULT:      -7.4      4.355      8.556
  Name = 
  6 active torsions:
  status: ('A' for Active; 'I' for Inactive)
    1  A    between atoms: C_1  and  C_6
    2  A    between atoms: O_2  and  C_15
    3  A    between atoms: C_11  and  C_20
    4  A    between atoms: C_12  and  C_28
    5  A    between atoms: C_14  and  C_20
    6  A    between atoms: C_29  and  C_33
                            x       y       z     vdW  Elec       q    Type
                         _______ _______ _______ _____ _____    ______ ____

>  <TORSDO>
F 6

$$$$
=
 OpenBabel10272400113D

 34 37  0  0  1  0  0  0  0  0999 V2000
  193.0050  175.8750  138.4570 C   0  0  2  0  0  3  0  0  0  0  0  0
  190.7380  177.0710  138.7520 C   0  0  2  0  0  3  0  0  0  0  0  0
  188.3910  177.8050  139.3750 C   0  0  1  0  0  3  0  0  0  0  0  0
  188.9620  177.2950  136.9690 C   0  0  0  0  0  2  0  0  0  0  0  0
  191.5770  176.0630  137.9190 C   0  0  2  0  0  3  0  0  0  0  0  0
  187.5490  177.8300  136.7070 C   0  0  0  0  0  2  0  0  0  0  0  0
  186.8930  177.5710  139.1510 C   0  0  0  0  0  2  0  0  0  0  0  0
  191.0780  176.9250  140.1880 N   0  0  2  0  0  0  0  0  0  0  0  0
  193.4450  177.0900  139.2580 C   0  0  0  0  0  2  0  0  0  0  0  0
  188.7350  177.4810  140.8080 C   0  0  0  0  0  2  0  0  0  0  0  0
  190.2140  177.7600  141.0480 C   0  0  1  0  0  3  0  0  0  0  0  0
  186.5400  177.2410  137.6910 C   0  0  1  0  0  3  0  0  0  0  0  0
  189.2340  176.9380  138.4420 C   0  0  1  0  0  3  0  0  0  0  0  0
  192.4660  177.3900  140.4070 C   0  0  0  0  0  2  0  0  0  0  0  0
  191.4940  176.1670  144.2460 C   0  0  0  0  0  0  0  0  0  0  0  0
  191.0760  177.0880  145.2120 C   0  0  0  0  0  3  0  0  0  0  0  0
  190.5040  177.5350  142.5060 C   0  0  0  0  0  0  0  0  0  0  0  0
  190.3750  178.2350  144.8280 C   0  0  0  0  0  3  0  0  0  0  0  0
  191.2090  176.3910  142.8960 C   0  0  0  0  0  3  0  0  0  0  0  0
  190.0910  178.4600  143.4780 C   0  0  0  0  0  3  0  0  0  0  0  0
  192.1780  175.0590  144.6190 F   0  0  0  0  0  0  0  0  0  0  0  0
  184.6440  177.4400  136.0860 O   0  0  0  0  0  1  0  0  0  0  0  0
  184.3820  178.2440  138.2550 C   0  0  0  0  0  0  0  0  0  0  0  0
  183.6320  178.8210  139.1520 C   0  0  0  0  0  0  0  0  0  0  0  0
  185.1410  177.6640  137.3630 C   0  0  0  0  0  0  0  0  0  0  0  0
  183.0030  180.1410  138.8460 C   0  0  0  0  0  2  0  0  0  0  0  0
  181.5290  180.1230  139.2070 C   0  0  0  0  0  1  0  0  0  0  0  0
  183.4440  178.1650  140.4800 C   0  0  0  0  0  2  0  0  0  0  0  0
  184.3620  178.7880  141.5160 C   0  0  0  0  0  1  0  0  0  0  0  0
  193.9600  175.6020  137.3410 C   0  0  0  0  0  0  0  0  0  0  0  0
  194.4530  174.3180  137.1590 O   0  0  0  0  0  1  0  0  0  0  0  0
  194.3220  176.5280  136.5670 O   0  0  0  0  0  0  0  0  0  0  0  0
  190.9290  174.8330  137.6500 O   0  0  0  0  0  0  0  0  0  0  0  0
  191.0210  174.5540  136.2750 C   0  0  0  0  0  1  0  0  0  0  0  0
  1 30  1  6  0  0  0
  1  9  1  0  0  0  0
  2  8  1  0  0  0  0
  3 10  1  0  0  0  0
  4 13  1  0  0  0  0
  5  1  1  0  0  0  0
  5  2  1  0  0  0  0
  6  4  1  0  0  0  0
  6 12  1  0  0  0  0
  7  3  1  0  0  0  0
  8 14  1  0  0  0  0
  8 11  1  0  0  0  0
  9 14  1  0  0  0  0
 10 11  1  0  0  0  0
 11 17  1  0  0  0  0
 12  7  1  0  0  0  0
 13  2  1  0  0  0  0
 13  3  1  0  0  0  0
 15 21  1  0  0  0  0
 15 16  1  0  0  0  0
 17 19  1  0  0  0  0
 17 20  2  0  0  0  0
 18 16  2  0  0  0  0
 19 15  2  0  0  0  0
 20 18  1  0  0  0  0
 22 25  1  0  0  0  0
 23 24  2  0  0  0  0
 24 28  1  0  0  0  0
 25 12  1  0  0  0  0
 25 23  2  0  0  0  0
 26 24  1  0  0  0  0
 26 27  1  0  0  0  0
 28 29  1  0  0  0  0
 31 30  1  0  0  0  0
 32 30  2  0  0  0  0
 33  5  1  0  0  0  0
 34 33  1  0  0  0  0
M  END
>  <MODEL>
6

>  <REMARK>
 VINA RESULT:      -7.3      4.070      6.477
  Name = 
  6 active torsions:
  status: ('A' for Active; 'I' for Inactive)
    1  A    between atoms: C_1  and  C_6
    2  A    between atoms: O_2  and  C_15
    3  A    between atoms: C_11  and  C_20
    4  A    between atoms: C_12  and  C_28
    5  A    between atoms: C_14  and  C_20
    6  A    between atoms: C_29  and  C_33
                            x       y       z     vdW  Elec       q    Type
                         _______ _______ _______ _____ _____    ______ ____

>  <TORSDO>
F 6

$$$$
=
 OpenBabel10272400113D

 34 37  0  0  1  0  0  0  0  0999 V2000
  191.5780  176.6980  139.7520 C   0  0  2  0  0  3  0  0  0  0  0  0
  189.7200  177.6370  141.2750 C   0  0  2  0  0  3  0  0  0  0  0  0
  187.8570  178.0250  142.9530 C   0  0  1  0  0  3  0  0  0  0  0  0
  187.4500  178.4260  140.4930 C   0  0  0  0  0  2  0  0  0  0  0  0
  190.0820  177.0200  139.8960 C   0  0  2  0  0  3  0  0  0  0  0  0
  186.1050  178.9730  140.9870 C   0  0  0  0  0  2  0  0  0  0  0  0
  186.3650  177.8380  143.2490 C   0  0  0  0  0  2  0  0  0  0  0  0
  190.5430  176.9990  142.3310 N   0  0  2  0  0  0  0  0  0  0  0  0
  192.4090  177.5610  140.6900 C   0  0  0  0  0  2  0  0  0  0  0  0
  188.6640  177.2220  143.9440 C   0  0  0  0  0  2  0  0  0  0  0  0
  190.1490  177.4440  143.6840 C   0  0  1  0  0  3  0  0  0  0  0  0
  185.4690  178.0390  142.0160 C   0  0  1  0  0  3  0  0  0  0  0  0
  188.2020  177.5760  141.5340 C   0  0  1  0  0  3  0  0  0  0  0  0
  191.9570  177.4000  142.1510 C   0  0  0  0  0  2  0  0  0  0  0  0
  191.6300  176.5630  147.0650 C   0  0  0  0  0  0  0  0  0  0  0  0
  192.3490  175.4010  146.7690 C   0  0  0  0  0  3  0  0  0  0  0  0
  190.9250  176.7240  144.7500 C   0  0  0  0  0  0  0  0  0  0  0  0
  192.3560  174.8960  145.4650 C   0  0  0  0  0  3  0  0  0  0  0  0
  190.9180  177.2220  146.0580 C   0  0  0  0  0  3  0  0  0  0  0  0
  191.6450  175.5540  144.4570 C   0  0  0  0  0  3  0  0  0  0  0  0
  191.6190  177.0480  148.3300 F   0  0  0  0  0  0  0  0  0  0  0  0
  183.8680  178.8970  143.7210 O   0  0  0  0  0  1  0  0  0  0  0  0
  183.1240  178.5510  141.5420 C   0  0  0  0  0  0  0  0  0  0  0  0
  182.1570  178.5910  140.6690 C   0  0  0  0  0  0  0  0  0  0  0  0
  184.1010  178.5070  142.4090 C   0  0  0  0  0  0  0  0  0  0  0  0
  180.8730  177.8850  140.9620 C   0  0  0  0  0  2  0  0  0  0  0  0
  180.6450  176.7620  139.9670 C   0  0  0  0  0  1  0  0  0  0  0  0
  182.3640  179.3170  139.3810 C   0  0  0  0  0  2  0  0  0  0  0  0
  183.4750  178.6660  138.5780 C   0  0  0  0  0  1  0  0  0  0  0  0
  192.0250  176.8720  138.3380 C   0  0  0  0  0  0  0  0  0  0  0  0
  191.0780  176.9790  137.3280 O   0  0  0  0  0  0  0  0  0  0  0  0
  193.2510  176.9220  138.0530 O   0  0  0  0  0  1  0  0  0  0  0  0
  189.2510  175.9470  139.4910 O   0  0  0  0  0  0  0  0  0  0  0  0
  188.5660  176.3120  138.3200 C   0  0  0  0  0  1  0  0  0  0  0  0
  1 30  1  6  0  0  0
  1  5  1  0  0  0  0
  1  9  1  0  0  0  0
  2 13  1  0  0  0  0
  2  8  1  0  0  0  0
  3  7  1  0  0  0  0
  3 10  1  0  0  0  0
  4  6  1  0  0  0  0
  4 13  1  0  0  0  0
  5  2  1  0  0  0  0
  6 12  1  0  0  0  0
  8 11  1  0  0  0  0
  9 14  1  0  0  0  0
 11 10  1  0  0  0  0
 11 17  1  0  0  0  0
 12 25  1  0  0  0  0
 12  7  1  0  0  0  0
 13  3  1  0  0  0  0
 14  8  1  0  0  0  0
 15 21  1  0  0  0  0
 16 15  1  0  0  0  0
 17 19  1  0  0  0  0
 18 16  2  0  0  0  0
 19 15  2  0  0  0  0
 20 17  2  0  0  0  0
 20 18  1  0  0  0  0
 23 25  2  0  0  0  0
 24 26  1  0  0  0  0
 24 23  2  0  0  0  0
 25 22  1  0  0  0  0
 27 26  1  0  0  0  0
 28 24  1  0  0  0  0
 29 28  1  0  0  0  0
 31 30  2  0  0  0  0
 32 30  1  0  0  0  0
 33  5  1  0  0  0  0
 34 33  1  0  0  0  0
M  END
>  <MODEL>
7

>  <REMARK>
 VINA RESULT:      -7.3      3.339      5.431
  Name = 
  6 active torsions:
  status: ('A' for Active; 'I' for Inactive)
    1  A    between atoms: C_1  and  C_6
    2  A    between atoms: O_2  and  C_15
    3  A    between atoms: C_11  and  C_20
    4  A    between atoms: C_12  and  C_28
    5  A    between atoms: C_14  and  C_20
    6  A    between atoms: C_29  and  C_33
                            x       y       z     vdW  Elec       q    Type
                         _______ _______ _______ _____ _____    ______ ____

>  <TORSDO>
F 6

$$$$
=
 OpenBabel10272400113D

 34 37  0  0  1  0  0  0  0  0999 V2000
  190.3990  176.6540  146.3820 C   0  0  2  0  0  3  0  0  0  0  0  0
  189.9520  177.4950  143.9850 C   0  0  2  0  0  3  0  0  0  0  0  0
  189.1180  177.9180  141.6260 C   0  0  1  0  0  3  0  0  0  0  0  0
  191.5040  177.1860  142.0140 C   0  0  0  0  0  2  0  0  0  0  0  0
  190.7650  176.5330  144.8930 C   0  0  2  0  0  3  0  0  0  0  0  0
  191.6410  177.4450  140.5090 C   0  0  0  0  0  2  0  0  0  0  0  0
  189.1190  177.4160  140.1780 C   0  0  0  0  0  2  0  0  0  0  0  0
  188.5650  177.6020  144.4980 N   0  0  2  0  0  0  0  0  0  0  0  0
  189.8060  178.0210  146.6830 C   0  0  0  0  0  2  0  0  0  0  0  0
  187.7140  177.8500  142.1750 C   0  0  0  0  0  2  0  0  0  0  0  0
  187.7010  178.3940  143.5980 C   0  0  1  0  0  3  0  0  0  0  0  0
  190.4720  176.8380  139.7320 C   0  0  1  0  0  3  0  0  0  0  0  0
  190.0480  177.0810  142.5030 C   0  0  1  0  0  3  0  0  0  0  0  0
  188.5830  178.3110  145.7970 C   0  0  0  0  0  2  0  0  0  0  0  0
  184.6980  178.3350  145.9160 C   0  0  0  0  0  0  0  0  0  0  0  0
  183.6380  178.4740  145.0160 C   0  0  0  0  0  3  0  0  0  0  0  0
  186.2770  178.4190  144.0790 C   0  0  0  0  0  0  0  0  0  0  0  0
  183.8940  178.5880  143.6460 C   0  0  0  0  0  3  0  0  0  0  0  0
  186.0150  178.3100  145.4490 C   0  0  0  0  0  3  0  0  0  0  0  0
  185.2110  178.5620  143.1770 C   0  0  0  0  0  3  0  0  0  0  0  0
  184.4490  178.2310  147.2440 F   0  0  0  0  0  0  0  0  0  0  0  0
  189.9060  177.9140  137.5580 O   0  0  0  0  0  1  0  0  0  0  0  0
  191.5250  176.2420  137.6070 C   0  0  0  0  0  0  0  0  0  0  0  0
  192.3890  175.5010  136.9710 C   0  0  0  0  0  0  0  0  0  0  0  0
  190.6630  176.9820  138.2530 C   0  0  0  0  0  0  0  0  0  0  0  0
  191.9420  174.6970  135.7940 C   0  0  0  0  0  2  0  0  0  0  0  0
  190.8100  173.7640  136.1860 C   0  0  0  0  0  1  0  0  0  0  0  0
  193.8010  175.4470  137.4530 C   0  0  0  0  0  2  0  0  0  0  0  0
  194.2270  174.0090  137.6870 C   0  0  0  0  0  1  0  0  0  0  0  0
  191.5900  176.3910  147.2440 C   0  0  0  0  0  0  0  0  0  0  0  0
  192.0100  177.3590  148.1460 O   0  0  0  0  0  1  0  0  0  0  0  0
  192.2160  175.3010  147.1590 O   0  0  0  0  0  0  0  0  0  0  0  0
  190.8060  175.1900  144.4480 O   0  0  0  0  0  0  0  0  0  0  0  0
  192.1450  174.8050  144.2640 C   0  0  0  0  0  1  0  0  0  0  0  0
  1  9  1  0  0  0  0
  1 30  1  1  0  0  0
  2  8  1  0  0  0  0
  2  5  1  0  0  0  0
  3 10  1  0  0  0  0
  3 13  1  0  0  0  0
  4 13  1  0  0  0  0
  5  1  1  0  0  0  0
  6  4  1  0  0  0  0
  7  3  1  0  0  0  0
  8 14  1  0  0  0  0
 10 11  1  0  0  0  0
 11 17  1  0  0  0  0
 11  8  1  0  0  0  0
 12  7  1  0  0  0  0
 12  6  1  0  0  0  0
 13  2  1  0  0  0  0
 14  9  1  0  0  0  0
 15 21  1  0  0  0  0
 16 15  2  0  0  0  0
 17 19  2  0  0  0  0
 18 16  1  0  0  0  0
 19 15  1  0  0  0  0
 20 18  2  0  0  0  0
 20 17  1  0  0  0  0
 22 25  1  0  0  0  0
 23 25  2  0  0  0  0
 24 28  1  0  0  0  0
 24 23  2  0  0  0  0
 25 12  1  0  0  0  0
 26 27  1  0  0  0  0
 26 24  1  0  0  0  0
 28 29  1  0  0  0  0
 30 31  1  0  0  0  0
 32 30  2  0  0  0  0
 33  5  1  0  0  0  0
 34 33  1  0  0  0  0
M  END
>  <MODEL>
8

>  <REMARK>
 VINA RESULT:      -7.2      3.108      7.116
  Name = 
  6 active torsions:
  status: ('A' for Active; 'I' for Inactive)
    1  A    between atoms: C_1  and  C_6
    2  A    between atoms: O_2  and  C_15
    3  A    between atoms: C_11  and  C_20
    4  A    between atoms: C_12  and  C_28
    5  A    between atoms: C_14  and  C_20
    6  A    between atoms: C_29  and  C_33
                            x       y       z     vdW  Elec       q    Type
                         _______ _______ _______ _____ _____    ______ ____

>  <TORSDO>
F 6

$$$$
=
 OpenBabel10272400113D

 34 37  0  0  1  0  0  0  0  0999 V2000
  182.2160  178.7410  138.9950 C   0  0  2  0  0  3  0  0  0  0  0  0
  183.8920  178.9840  140.9410 C   0  0  2  0  0  3  0  0  0  0  0  0
  185.6790  178.6930  142.7180 C   0  0  1  0  0  3  0  0  0  0  0  0
  183.2800  179.1010  143.3900 C   0  0  0  0  0  2  0  0  0  0  0  0
  182.4540  178.5890  140.5060 C   0  0  2  0  0  3  0  0  0  0  0  0
  183.8760  179.1880  144.8000 C   0  0  0  0  0  2  0  0  0  0  0  0
  186.0280  178.0490  144.0640 C   0  0  0  0  0  2  0  0  0  0  0  0
  184.8550  178.5610  139.8970 N   0  0  2  0  0  0  0  0  0  0  0  0
  183.1790  179.7550  138.3960 C   0  0  0  0  0  2  0  0  0  0  0  0
  186.5660  178.1100  141.6440 C   0  0  0  0  0  2  0  0  0  0  0  0
  186.2560  178.7830  140.3130 C   0  0  1  0  0  3  0  0  0  0  0  0
  184.8570  178.0460  145.0610 C   0  0  1  0  0  3  0  0  0  0  0  0
  184.2150  178.4540  142.3520 C   0  0  1  0  0  3  0  0  0  0  0  0
  184.6420  179.3780  138.6810 C   0  0  0  0  0  2  0  0  0  0  0  0
  189.4950  177.6620  138.6850 C   0  0  0  0  0  0  0  0  0  0  0  0
  189.0620  177.2930  137.4090 C   0  0  0  0  0  3  0  0  0  0  0  0
  187.2260  178.2660  139.2870 C   0  0  0  0  0  0  0  0  0  0  0  0
  187.7100  177.4060  137.0690 C   0  0  0  0  0  3  0  0  0  0  0  0
  188.5790  178.1460  139.6240 C   0  0  0  0  0  3  0  0  0  0  0  0
  186.7920  177.8900  138.0060 C   0  0  0  0  0  3  0  0  0  0  0  0
  190.8040  177.5470  139.0150 F   0  0  0  0  0  0  0  0  0  0  0  0
  184.4310  178.1410  147.5140 O   0  0  0  0  0  1  0  0  0  0  0  0
  186.6250  177.9920  146.7490 C   0  0  0  0  0  0  0  0  0  0  0  0
  187.9010  177.9270  147.0120 C   0  0  0  0  0  0  0  0  0  0  0  0
  185.3490  178.0560  146.4760 C   0  0  0  0  0  0  0  0  0  0  0  0
  188.5280  178.9730  147.8750 C   0  0  0  0  0  2  0  0  0  0  0  0
  189.4290  178.3340  148.9150 C   0  0  0  0  0  1  0  0  0  0  0  0
  188.7140  176.8240  146.4200 C   0  0  0  0  0  2  0  0  0  0  0  0
  189.5120  177.3320  145.2320 C   0  0  0  0  0  1  0  0  0  0  0  0
  180.8000  179.1270  138.7170 C   0  0  0  0  0  0  0  0  0  0  0  0
  180.3840  180.4290  138.9580 O   0  0  0  0  0  1  0  0  0  0  0  0
  179.9820  178.2810  138.2670 O   0  0  0  0  0  0  0  0  0  0  0  0
  182.0050  177.3430  141.0070 O   0  0  0  0  0  0  0  0  0  0  0  0
  182.2560  176.3440  140.0510 C   0  0  0  0  0  1  0  0  0  0  0  0
  1 30  1  1  0  0  0
  1  5  1  0  0  0  0
  2 13  1  0  0  0  0
  3  7  1  0  0  0  0
  4  6  1  0  0  0  0
  5  2  1  0  0  0  0
  5 33  1  0  0  0  0
  6 12  1  0  0  0  0
  7 12  1  0  0  0  0
  8 11  1  0  0  0  0
  8  2  1  0  0  0  0
  9 14  1  0  0  0  0
  9  1  1  0  0  0  0
 10  3  1  0  0  0  0
 11 10  1  0  0  0  0
 12 25  1  0  0  0  0
 13  3  1  0  0  0  0
 13  4  1  0  0  0  0
 14  8  1  0  0  0  0
 15 21  1  0  0  0  0
 15 19  1  0  0  0  0
 16 15  2  0  0  0  0
 17 19  2  0  0  0  0
 17 11  1  0  0  0  0
 18 16  1  0  0  0  0
 18 20  2  0  0  0  0
 20 17  1  0  0  0  0
 23 24  2  0  0  0  0
 24 26  1  0  0  0  0
 25 23  2  0  0  0  0
 25 22  1  0  0  0  0
 26 27  1  0  0  0  0
 28 24  1  0  0  0  0
 29 28  1  0  0  0  0
 30 31  1  0  0  0  0
 32 30  2  0  0  0  0
 34 33  1  0  0  0  0
M  END
>  <MODEL>
9

>  <REMARK>
 VINA RESULT:      -7.1      3.192      7.883
  Name = 
  6 active torsions:
  status: ('A' for Active; 'I' for Inactive)
    1  A    between atoms: C_1  and  C_6
    2  A    between atoms: O_2  and  C_15
    3  A    between atoms: C_11  and  C_20
    4  A    between atoms: C_12  and  C_28
    5  A    between atoms: C_14  and  C_20
    6  A    between atoms: C_29  and  C_33
                            x       y       z     vdW  Elec       q    Type
                         _______ _______ _______ _____ _____    ______ ____

>  <TORSDO>
F 6

$$$$
