=
 OpenBabel10272402033D

 28 30  0  0  1  0  0  0  0  0999 V2000
  186.9320  178.7890  138.1220 O   0  0  0  0  0  0  0  0  0  0  0  0
  184.0590  177.6440  139.8830 C   0  0  1  0  0  3  0  0  0  0  0  0
  184.0700  179.9660  138.8340 C   0  0  0  0  0  1  0  0  0  0  0  0
  185.2990  177.2860  137.2900 C   0  0  2  0  0  3  0  0  0  0  0  0
  183.5170  176.6710  138.8180 C   0  0  0  0  0  2  0  0  0  0  0  0
  185.8130  178.3210  138.2560 C   0  0  0  0  0  0  0  0  0  0  0  0
  184.9160  178.8120  139.3550 C   0  0  2  0  0  3  0  0  0  0  0  0
  183.8380  177.1080  137.4480 N   0  0  2  0  0  0  0  0  0  0  0  0
  183.2910  176.1640  136.4560 C   0  0  1  0  0  3  0  0  0  0  0  0
  181.9270  175.5600  136.9090 C   0  0  1  0  0  3  0  0  0  0  0  0
  180.7220  176.4140  136.8410 N   0  0  0  0  0  0  0  0  0  0  0  0
  181.0480  177.8380  136.8070 C   0  0  0  0  0  2  0  0  0  0  0  0
  181.3580  178.2870  135.3790 C   0  0  0  0  0  2  0  0  0  0  0  0
  181.6500  177.1820  134.5700 O   0  0  0  0  0  0  0  0  0  0  0  0
  183.3380  176.8810  134.7440 S   0  0  0  0  0  0  0  0  0  0  0  0
  179.9820  176.1980  138.0730 C   0  0  0  0  0  1  0  0  0  0  0  0
  181.6760  174.1570  136.3540 C   0  0  0  0  0  2  0  0  0  0  0  0
  182.6720  173.1370  136.8800 C   0  0  0  0  0  1  0  0  0  0  0  0
  181.6720  178.0420  140.5830 C   0  0  0  0  0  3  0  0  0  0  0  0
  183.4330  178.4070  142.2120 C   0  0  0  0  0  0  0  0  0  0  0  0
  181.1140  178.7780  142.8180 C   0  0  0  0  0  0  0  0  0  0  0  0
  183.0350  178.0310  140.9150 C   0  0  0  0  0  0  0  0  0  0  0  0
  182.4700  178.7770  143.1570 C   0  0  0  0  0  3  0  0  0  0  0  0
  185.1260  178.4270  142.6850 Cl  0  0  0  0  0  0  0  0  0  0  0  0
  180.0970  179.1720  143.8270 C   0  0  0  0  0  1  0  0  0  0  0  0
  180.7160  178.4120  141.5310 C   0  0  0  0  0  3  0  0  0  0  0  0
  186.1070  175.9770  137.3480 C   0  0  0  0  0  2  0  0  0  0  0  0
  187.1000  175.9410  136.3670 O   0  0  0  0  0  1  0  0  0  0  0  0
  1  6  2  0  0  0  0
  2 22  1  6  0  0  0
  4 27  1  1  0  0  0
  4  8  1  0  0  0  0
  4  6  1  0  0  0  0
  5  2  1  0  0  0  0
  6  7  1  0  0  0  0
  7  3  1  6  0  0  0
  7  2  1  0  0  0  0
  8  5  1  1  0  0  0
  9 15  1  6  0  0  0
  9 10  1  0  0  0  0
  9  8  1  0  0  0  0
 10 17  1  6  0  0  0
 11 10  1  0  0  0  0
 11 16  1  0  0  0  0
 12 11  1  0  0  0  0
 13 12  1  0  0  0  0
 14 15  1  0  0  0  0
 14 13  1  0  0  0  0
 17 18  1  0  0  0  0
 19 22  2  0  0  0  0
 19 26  1  0  0  0  0
 20 24  1  0  0  0  0
 20 23  2  0  0  0  0
 21 23  1  0  0  0  0
 21 25  1  0  0  0  0
 22 20  1  0  0  0  0
 26 21  2  0  0  0  0
 28 27  1  0  0  0  0
M  END
>  <MODEL>
1

>  <REMARK>
 VINA RESULT:      -5.3      0.000      0.000
  Name = 
  4 active torsions:
  status: ('A' for Active; 'I' for Inactive)
    1  A    between atoms: C_1  and  N_27
    2  A    between atoms: C_2  and  C_7
    3  A    between atoms: C_10  and  C_13
    4  A    between atoms: C_16  and  C_19
                            x       y       z     vdW  Elec       q    Type
                         _______ _______ _______ _____ _____    ______ ____

>  <TORSDO>
F 4

$$$$
=
 OpenBabel10272402033D

 28 30  0  0  1  0  0  0  0  0999 V2000
  189.8370  177.5310  134.3460 O   0  0  0  0  0  0  0  0  0  0  0  0
  189.3950  176.5280  137.7320 C   0  0  1  0  0  3  0  0  0  0  0  0
  188.6260  178.8360  136.9750 C   0  0  0  0  0  1  0  0  0  0  0  0
  188.1390  176.0900  135.1590 C   0  0  2  0  0  3  0  0  0  0  0  0
  188.2070  175.5670  137.5270 C   0  0  0  0  0  2  0  0  0  0  0  0
  189.2340  177.1120  135.3210 C   0  0  0  0  0  0  0  0  0  0  0  0
  189.5400  177.6520  136.6860 C   0  0  2  0  0  3  0  0  0  0  0  0
  187.3470  175.9760  136.4040 N   0  0  2  0  0  0  0  0  0  0  0  0
  186.2130  175.0450  136.2470 C   0  0  1  0  0  3  0  0  0  0  0  0
  185.0660  175.3410  137.2610 C   0  0  1  0  0  3  0  0  0  0  0  0
  184.2030  176.5190  137.0240 N   0  0  0  0  0  0  0  0  0  0  0  0
  184.8300  177.5030  136.1440 C   0  0  0  0  0  2  0  0  0  0  0  0
  184.6080  177.1350  134.6760 C   0  0  0  0  0  2  0  0  0  0  0  0
  184.2420  175.7880  134.5580 O   0  0  0  0  0  0  0  0  0  0  0  0
  185.7100  174.8890  134.4670 S   0  0  0  0  0  0  0  0  0  0  0  0
  184.0260  177.1770  138.3060 C   0  0  0  0  0  1  0  0  0  0  0  0
  184.2600  174.0970  137.6370 C   0  0  0  0  0  2  0  0  0  0  0  0
  185.1140  172.8410  137.6770 C   0  0  0  0  0  1  0  0  0  0  0  0
  188.4500  177.3500  139.9180 C   0  0  0  0  0  3  0  0  0  0  0  0
  190.8490  177.0270  139.7410 C   0  0  0  0  0  0  0  0  0  0  0  0
  189.8740  177.8230  141.8140 C   0  0  0  0  0  0  0  0  0  0  0  0
  189.5680  176.9690  139.1590 C   0  0  0  0  0  0  0  0  0  0  0  0
  190.9940  177.4520  141.0650 C   0  0  0  0  0  3  0  0  0  0  0  0
  192.2880  176.5780  138.8380 Cl  0  0  0  0  0  0  0  0  0  0  0  0
  190.0370  178.2720  143.2210 C   0  0  0  0  0  1  0  0  0  0  0  0
  188.6020  177.7720  141.2400 C   0  0  0  0  0  3  0  0  0  0  0  0
  188.6660  174.7480  134.6170 C   0  0  0  0  0  2  0  0  0  0  0  0
  190.0290  174.5880  134.8780 O   0  0  0  0  0  1  0  0  0  0  0  0
  1  6  2  0  0  0  0
  2 22  1  1  0  0  0
  4 27  1  1  0  0  0
  4  6  1  0  0  0  0
  4  8  1  0  0  0  0
  5  2  1  0  0  0  0
  6  7  1  0  0  0  0
  7  3  1  1  0  0  0
  7  2  1  0  0  0  0
  8  5  1  1  0  0  0
  9 15  1  6  0  0  0
  9  8  1  0  0  0  0
  9 10  1  0  0  0  0
 10 17  1  6  0  0  0
 11 10  1  0  0  0  0
 11 16  1  0  0  0  0
 12 11  1  0  0  0  0
 13 12  1  0  0  0  0
 14 13  1  0  0  0  0
 15 14  1  0  0  0  0
 17 18  1  0  0  0  0
 19 26  1  0  0  0  0
 20 23  2  0  0  0  0
 21 25  1  0  0  0  0
 22 20  1  0  0  0  0
 22 19  2  0  0  0  0
 23 21  1  0  0  0  0
 24 20  1  0  0  0  0
 26 21  2  0  0  0  0
 27 28  1  0  0  0  0
M  END
>  <MODEL>
2

>  <REMARK>
 VINA RESULT:      -5.3      3.837      5.587
  Name = 
  4 active torsions:
  status: ('A' for Active; 'I' for Inactive)
    1  A    between atoms: C_1  and  N_27
    2  A    between atoms: C_2  and  C_7
    3  A    between atoms: C_10  and  C_13
    4  A    between atoms: C_16  and  C_19
                            x       y       z     vdW  Elec       q    Type
                         _______ _______ _______ _____ _____    ______ ____

>  <TORSDO>
F 4

$$$$
=
 OpenBabel10272402033D

 28 30  0  0  1  0  0  0  0  0999 V2000
  197.3070  176.1190  136.1860 O   0  0  0  0  0  0  0  0  0  0  0  0
  194.3610  174.5560  137.4270 C   0  0  1  0  0  3  0  0  0  0  0  0
  194.6800  174.8690  134.9180 C   0  0  0  0  0  1  0  0  0  0  0  0
  197.1340  173.8770  136.9350 C   0  0  2  0  0  3  0  0  0  0  0  0
  194.9710  173.1880  137.7910 C   0  0  0  0  0  2  0  0  0  0  0  0
  196.5660  175.1930  136.4710 C   0  0  0  0  0  0  0  0  0  0  0  0
  195.0820  175.3380  136.3100 C   0  0  2  0  0  3  0  0  0  0  0  0
  196.0930  172.8250  136.9090 N   0  0  2  0  0  0  0  0  0  0  0  0
  196.6410  171.5050  137.2760 C   0  0  1  0  0  3  0  0  0  0  0  0
  195.5380  170.4030  137.3220 C   0  0  1  0  0  3  0  0  0  0  0  0
  195.0040  169.8880  136.0430 N   0  0  0  0  0  0  0  0  0  0  0  0
  195.2390  170.8050  134.9300 C   0  0  0  0  0  2  0  0  0  0  0  0
  196.6380  170.5980  134.3460 C   0  0  0  0  0  2  0  0  0  0  0  0
  197.4520  169.9100  135.2550 O   0  0  0  0  0  0  0  0  0  0  0  0
  198.1560  171.1030  136.2810 S   0  0  0  0  0  0  0  0  0  0  0  0
  193.5620  169.7970  136.1940 C   0  0  0  0  0  1  0  0  0  0  0  0
  195.8480  169.2830  138.3160 C   0  0  0  0  0  2  0  0  0  0  0  0
  196.2490  167.9900  137.6280 C   0  0  0  0  0  1  0  0  0  0  0  0
  192.2300  173.5050  136.5900 C   0  0  0  0  0  3  0  0  0  0  0  0
  192.0810  175.5420  137.9020 C   0  0  0  0  0  0  0  0  0  0  0  0
  190.0680  174.4820  137.0600 C   0  0  0  0  0  0  0  0  0  0  0  0
  192.8620  174.5300  137.3110 C   0  0  0  0  0  0  0  0  0  0  0  0
  190.6880  175.5110  137.7740 C   0  0  0  0  0  3  0  0  0  0  0  0
  192.8140  176.8590  138.8050 Cl  0  0  0  0  0  0  0  0  0  0  0  0
  188.5880  174.4570  136.9300 C   0  0  0  0  0  1  0  0  0  0  0  0
  190.8390  173.4800  136.4670 C   0  0  0  0  0  3  0  0  0  0  0  0
  197.8780  174.0010  138.2780 C   0  0  0  0  0  2  0  0  0  0  0  0
  197.3900  175.0650  139.0400 O   0  0  0  0  0  1  0  0  0  0  0  0
  1  6  2  0  0  0  0
  2 22  1  6  0  0  0
  2  5  1  0  0  0  0
  4 27  1  1  0  0  0
  6  4  1  0  0  0  0
  7  3  1  6  0  0  0
  7  6  1  0  0  0  0
  7  2  1  0  0  0  0
  8  4  1  0  0  0  0
  8  9  1  0  0  0  0
  8  5  1  1  0  0  0
  9 15  1  6  0  0  0
  9 10  1  0  0  0  0
 10 17  1  6  0  0  0
 11 16  1  0  0  0  0
 11 10  1  0  0  0  0
 12 11  1  0  0  0  0
 13 12  1  0  0  0  0
 13 14  1  0  0  0  0
 14 15  1  0  0  0  0
 18 17  1  0  0  0  0
 19 22  1  0  0  0  0
 20 24  1  0  0  0  0
 21 23  2  0  0  0  0
 22 20  2  0  0  0  0
 23 20  1  0  0  0  0
 25 21  1  0  0  0  0
 26 19  2  0  0  0  0
 26 21  1  0  0  0  0
 27 28  1  0  0  0  0
M  END
>  <MODEL>
3

>  <REMARK>
 VINA RESULT:      -5.1     10.117     13.074
  Name = 
  4 active torsions:
  status: ('A' for Active; 'I' for Inactive)
    1  A    between atoms: C_1  and  N_27
    2  A    between atoms: C_2  and  C_7
    3  A    between atoms: C_10  and  C_13
    4  A    between atoms: C_16  and  C_19
                            x       y       z     vdW  Elec       q    Type
                         _______ _______ _______ _____ _____    ______ ____

>  <TORSDO>
F 4

$$$$
=
 OpenBabel10272402033D

 28 30  0  0  1  0  0  0  0  0999 V2000
  185.6070  179.6210  147.2380 O   0  0  0  0  0  0  0  0  0  0  0  0
  185.0620  178.1180  144.0590 C   0  0  1  0  0  3  0  0  0  0  0  0
  185.7530  180.5650  144.2110 C   0  0  0  0  0  1  0  0  0  0  0  0
  187.1150  178.1890  146.1010 C   0  0  2  0  0  3  0  0  0  0  0  0
  186.3580  177.2880  143.9800 C   0  0  0  0  0  2  0  0  0  0  0  0
  185.9130  179.0940  146.1810 C   0  0  0  0  0  0  0  0  0  0  0  0
  185.1260  179.3840  144.9380 C   0  0  2  0  0  3  0  0  0  0  0  0
  187.4770  177.9310  144.6900 N   0  0  2  0  0  0  0  0  0  0  0  0
  188.7030  177.1180  144.5790 C   0  0  1  0  0  3  0  0  0  0  0  0
  189.0250  176.7390  143.1010 C   0  0  1  0  0  3  0  0  0  0  0  0
  189.5720  177.7840  142.2090 N   0  0  0  0  0  0  0  0  0  0  0  0
  189.2950  179.1340  142.6960 C   0  0  0  0  0  2  0  0  0  0  0  0
  190.3450  179.5640  143.7230 C   0  0  0  0  0  2  0  0  0  0  0  0
  191.0260  178.4470  144.2240 O   0  0  0  0  0  0  0  0  0  0  0  0
  190.0970  177.8640  145.5530 S   0  0  0  0  0  0  0  0  0  0  0  0
  188.8760  177.6620  140.9400 C   0  0  0  0  0  1  0  0  0  0  0  0
  189.7760  175.4130  142.9710 C   0  0  0  0  0  2  0  0  0  0  0  0
  191.2430  175.5360  143.3470 C   0  0  0  0  0  1  0  0  0  0  0  0
  185.1430  178.2250  141.5430 C   0  0  0  0  0  3  0  0  0  0  0  0
  183.0160  178.5980  142.6510 C   0  0  0  0  0  0  0  0  0  0  0  0
  183.1660  178.6940  140.2320 C   0  0  0  0  0  0  0  0  0  0  0  0
  184.3920  178.3100  142.7260 C   0  0  0  0  0  0  0  0  0  0  0  0
  182.4110  178.7880  141.4050 C   0  0  0  0  0  3  0  0  0  0  0  0
  182.0250  178.7320  144.0960 Cl  0  0  0  0  0  0  0  0  0  0  0  0
  182.5150  178.8960  138.9120 C   0  0  0  0  0  1  0  0  0  0  0  0
  184.5320  178.4140  140.3020 C   0  0  0  0  0  3  0  0  0  0  0  0
  186.9510  176.9190  146.9560 C   0  0  0  0  0  2  0  0  0  0  0  0
  187.8340  176.9100  148.0380 O   0  0  0  0  0  1  0  0  0  0  0  0
  2 22  1  6  0  0  0
  2  7  1  0  0  0  0
  4  6  1  0  0  0  0
  4 27  1  6  0  0  0
  5  2  1  0  0  0  0
  6  1  2  0  0  0  0
  7  3  1  6  0  0  0
  7  6  1  0  0  0  0
  8  5  1  1  0  0  0
  8  4  1  0  0  0  0
  9  8  1  0  0  0  0
  9 15  1  6  0  0  0
 10 17  1  1  0  0  0
 10  9  1  0  0  0  0
 11 12  1  0  0  0  0
 11 10  1  0  0  0  0
 12 13  1  0  0  0  0
 13 14  1  0  0  0  0
 14 15  1  0  0  0  0
 16 11  1  0  0  0  0
 17 18  1  0  0  0  0
 19 22  1  0  0  0  0
 20 22  2  0  0  0  0
 20 24  1  0  0  0  0
 21 26  1  0  0  0  0
 21 23  2  0  0  0  0
 23 20  1  0  0  0  0
 25 21  1  0  0  0  0
 26 19  2  0  0  0  0
 27 28  1  0  0  0  0
M  END
>  <MODEL>
4

>  <REMARK>
 VINA RESULT:      -5.0      5.845      8.358
  Name = 
  4 active torsions:
  status: ('A' for Active; 'I' for Inactive)
    1  A    between atoms: C_1  and  N_27
    2  A    between atoms: C_2  and  C_7
    3  A    between atoms: C_10  and  C_13
    4  A    between atoms: C_16  and  C_19
                            x       y       z     vdW  Elec       q    Type
                         _______ _______ _______ _____ _____    ______ ____

>  <TORSDO>
F 4

$$$$
=
 OpenBabel10272402033D

 28 30  0  0  1  0  0  0  0  0999 V2000
  180.0790  176.8430  137.5450 O   0  0  0  0  0  0  0  0  0  0  0  0
  182.8850  178.3340  139.1470 C   0  0  1  0  0  3  0  0  0  0  0  0
  182.3340  175.8820  139.5640 C   0  0  0  0  0  1  0  0  0  0  0  0
  182.1840  177.2740  136.5440 C   0  0  2  0  0  3  0  0  0  0  0  0
  183.8350  178.3830  137.9340 C   0  0  0  0  0  2  0  0  0  0  0  0
  181.2560  177.1130  137.7200 C   0  0  0  0  0  0  0  0  0  0  0  0
  181.8030  177.2360  139.1120 C   0  0  2  0  0  3  0  0  0  0  0  0
  183.5950  177.2760  136.9930 N   0  0  2  0  0  0  0  0  0  0  0  0
  184.5300  177.3440  135.8550 C   0  0  1  0  0  3  0  0  0  0  0  0
  186.0180  177.3890  136.3190 C   0  0  1  0  0  3  0  0  0  0  0  0
  186.6360  176.1440  136.8230 N   0  0  0  0  0  0  0  0  0  0  0  0
  185.6440  175.1630  137.2570 C   0  0  0  0  0  2  0  0  0  0  0  0
  185.1380  174.3450  136.0680 C   0  0  0  0  0  2  0  0  0  0  0  0
  185.4280  174.9990  134.8640 O   0  0  0  0  0  0  0  0  0  0  0  0
  184.1160  176.0750  134.5640 S   0  0  0  0  0  0  0  0  0  0  0  0
  187.3970  176.5010  138.0090 C   0  0  0  0  0  1  0  0  0  0  0  0
  186.9300  178.1370  135.3450 C   0  0  0  0  0  2  0  0  0  0  0  0
  188.1280  177.3080  134.9170 C   0  0  0  0  0  1  0  0  0  0  0  0
  184.9950  178.4310  140.5210 C   0  0  0  0  0  3  0  0  0  0  0  0
  182.8600  178.6410  141.6580 C   0  0  0  0  0  0  0  0  0  0  0  0
  184.9290  178.7180  142.9220 C   0  0  0  0  0  0  0  0  0  0  0  0
  183.5930  178.4790  140.4660 C   0  0  0  0  0  0  0  0  0  0  0  0
  183.5320  178.7600  142.8780 C   0  0  0  0  0  3  0  0  0  0  0  0
  181.1030  178.6930  141.6560 Cl  0  0  0  0  0  0  0  0  0  0  0  0
  185.6350  178.8470  144.2230 C   0  0  0  0  0  1  0  0  0  0  0  0
  185.6590  178.5520  141.7430 C   0  0  0  0  0  3  0  0  0  0  0  0
  181.8000  178.4700  135.6530 C   0  0  0  0  0  2  0  0  0  0  0  0
  181.1560  178.0550  134.4850 O   0  0  0  0  0  1  0  0  0  0  0  0
  1  6  2  0  0  0  0
  2 22  1  1  0  0  0
  4 27  1  1  0  0  0
  4  8  1  0  0  0  0
  4  6  1  0  0  0  0
  5  2  1  0  0  0  0
  6  7  1  0  0  0  0
  7  2  1  0  0  0  0
  7  3  1  6  0  0  0
  8  5  1  1  0  0  0
  9 15  1  6  0  0  0
  9 10  1  0  0  0  0
  9  8  1  0  0  0  0
 10 17  1  6  0  0  0
 10 11  1  0  0  0  0
 11 12  1  0  0  0  0
 11 16  1  0  0  0  0
 13 12  1  0  0  0  0
 14 13  1  0  0  0  0
 15 14  1  0  0  0  0
 18 17  1  0  0  0  0
 19 26  1  0  0  0  0
 20 23  2  0  0  0  0
 21 25  1  0  0  0  0
 22 19  2  0  0  0  0
 22 20  1  0  0  0  0
 23 21  1  0  0  0  0
 24 20  1  0  0  0  0
 26 21  2  0  0  0  0
 28 27  1  0  0  0  0
M  END
>  <MODEL>
5

>  <REMARK>
 VINA RESULT:      -4.8      2.174      4.565
  Name = 
  4 active torsions:
  status: ('A' for Active; 'I' for Inactive)
    1  A    between atoms: C_1  and  N_27
    2  A    between atoms: C_2  and  C_7
    3  A    between atoms: C_10  and  C_13
    4  A    between atoms: C_16  and  C_19
                            x       y       z     vdW  Elec       q    Type
                         _______ _______ _______ _____ _____    ______ ____

>  <TORSDO>
F 4

$$$$
=
 OpenBabel10272402033D

 28 30  0  0  1  0  0  0  0  0999 V2000
  186.8840  177.9930  134.3530 O   0  0  0  0  0  0  0  0  0  0  0  0
  187.3740  177.0350  137.7450 C   0  0  1  0  0  3  0  0  0  0  0  0
  187.4820  179.4930  137.0860 C   0  0  0  0  0  1  0  0  0  0  0  0
  185.1790  177.4090  135.8930 C   0  0  2  0  0  3  0  0  0  0  0  0
  185.9070  176.7290  138.1050 C   0  0  0  0  0  2  0  0  0  0  0  0
  186.5810  177.8160  135.5220 C   0  0  0  0  0  0  0  0  0  0  0  0
  187.5900  178.0530  136.6070 C   0  0  2  0  0  3  0  0  0  0  0  0
  184.9610  177.5660  137.3480 N   0  0  2  0  0  0  0  0  0  0  0  0
  183.5690  177.2580  137.7290 C   0  0  1  0  0  3  0  0  0  0  0  0
  183.3960  177.1370  139.2740 C   0  0  1  0  0  3  0  0  0  0  0  0
  183.4010  178.3750  140.0820 N   0  0  0  0  0  0  0  0  0  0  0  0
  184.0340  179.4940  139.3860 C   0  0  0  0  0  2  0  0  0  0  0  0
  183.0340  180.1880  138.4610 C   0  0  0  0  0  2  0  0  0  0  0  0
  181.9370  179.3550  138.2090 O   0  0  0  0  0  0  0  0  0  0  0  0
  182.3680  178.3750  136.8580 S   0  0  0  0  0  0  0  0  0  0  0  0
  184.2210  178.1110  141.2520 C   0  0  0  0  0  1  0  0  0  0  0  0
  182.2720  176.1820  139.6790 C   0  0  0  0  0  2  0  0  0  0  0  0
  181.0290  176.9160  140.1530 C   0  0  0  0  0  1  0  0  0  0  0  0
  187.7600  177.9150  140.0740 C   0  0  0  0  0  3  0  0  0  0  0  0
  189.5840  176.7770  138.9480 C   0  0  0  0  0  0  0  0  0  0  0  0
  189.8900  177.6540  141.1880 C   0  0  0  0  0  0  0  0  0  0  0  0
  188.2540  177.2390  138.9470 C   0  0  0  0  0  0  0  0  0  0  0  0
  190.3940  176.9860  140.0690 C   0  0  0  0  0  3  0  0  0  0  0  0
  190.2650  175.9370  137.5630 Cl  0  0  0  0  0  0  0  0  0  0  0  0
  190.7580  177.8720  142.3750 C   0  0  0  0  0  1  0  0  0  0  0  0
  188.5740  178.1190  141.1900 C   0  0  0  0  0  3  0  0  0  0  0  0
  184.8060  176.0200  135.3420 C   0  0  0  0  0  2  0  0  0  0  0  0
  185.9390  175.2310  135.1280 O   0  0  0  0  0  1  0  0  0  0  0  0
  1  6  2  0  0  0  0
  2  5  1  0  0  0  0
  2 22  1  1  0  0  0
  4 27  1  1  0  0  0
  4  8  1  0  0  0  0
  6  4  1  0  0  0  0
  6  7  1  0  0  0  0
  7  3  1  1  0  0  0
  7  2  1  0  0  0  0
  8  9  1  0  0  0  0
  8  5  1  1  0  0  0
  9 15  1  1  0  0  0
  9 10  1  0  0  0  0
 10 17  1  6  0  0  0
 10 11  1  0  0  0  0
 11 16  1  0  0  0  0
 12 11  1  0  0  0  0
 13 12  1  0  0  0  0
 14 13  1  0  0  0  0
 15 14  1  0  0  0  0
 17 18  1  0  0  0  0
 19 26  1  0  0  0  0
 20 23  2  0  0  0  0
 21 26  2  0  0  0  0
 21 25  1  0  0  0  0
 22 20  1  0  0  0  0
 22 19  2  0  0  0  0
 23 21  1  0  0  0  0
 24 20  1  0  0  0  0
 28 27  1  0  0  0  0
M  END
>  <MODEL>
6

>  <REMARK>
 VINA RESULT:      -4.6      3.174      5.253
  Name = 
  4 active torsions:
  status: ('A' for Active; 'I' for Inactive)
    1  A    between atoms: C_1  and  N_27
    2  A    between atoms: C_2  and  C_7
    3  A    between atoms: C_10  and  C_13
    4  A    between atoms: C_16  and  C_19
                            x       y       z     vdW  Elec       q    Type
                         _______ _______ _______ _____ _____    ______ ____

>  <TORSDO>
F 4

$$$$
=
 OpenBabel10272402033D

 28 30  0  0  1  0  0  0  0  0999 V2000
  180.9440  179.4850  141.3940 O   0  0  0  0  0  0  0  0  0  0  0  0
  183.9830  179.1870  139.5660 C   0  0  1  0  0  3  0  0  0  0  0  0
  183.2240  177.2970  141.0960 C   0  0  0  0  0  1  0  0  0  0  0  0
  181.1350  178.9410  139.0940 C   0  0  2  0  0  3  0  0  0  0  0  0
  183.3800  178.9090  138.1740 C   0  0  0  0  0  2  0  0  0  0  0  0
  181.6760  179.1160  140.4900 C   0  0  0  0  0  0  0  0  0  0  0  0
  183.1110  178.7800  140.7710 C   0  0  2  0  0  3  0  0  0  0  0  0
  182.0970  178.1910  138.2560 N   0  0  2  0  0  0  0  0  0  0  0  0
  181.5580  177.9280  136.9080 C   0  0  1  0  0  3  0  0  0  0  0  0
  182.6590  177.4300  135.9220 C   0  0  1  0  0  3  0  0  0  0  0  0
  183.1480  176.0410  136.0570 N   0  0  0  0  0  0  0  0  0  0  0  0
  182.8790  175.4800  137.3790 C   0  0  0  0  0  2  0  0  0  0  0  0
  181.4610  174.9100  137.4460 C   0  0  0  0  0  2  0  0  0  0  0  0
  180.6760  175.4270  136.4070 O   0  0  0  0  0  0  0  0  0  0  0  0
  180.0100  176.9070  136.9880 S   0  0  0  0  0  0  0  0  0  0  0  0
  184.5940  176.0890  135.9250 C   0  0  0  0  0  1  0  0  0  0  0  0
  182.3790  177.8090  134.4670 C   0  0  0  0  0  2  0  0  0  0  0  0
  181.5040  179.0450  134.3460 C   0  0  0  0  0  1  0  0  0  0  0  0
  186.1110  178.2880  138.5610 C   0  0  0  0  0  3  0  0  0  0  0  0
  186.1140  178.9240  140.9040 C   0  0  0  0  0  0  0  0  0  0  0  0
  188.1270  178.0450  139.8750 C   0  0  0  0  0  0  0  0  0  0  0  0
  185.4320  178.8000  139.6780 C   0  0  0  0  0  0  0  0  0  0  0  0
  187.4570  178.5470  140.9950 C   0  0  0  0  0  3  0  0  0  0  0  0
  185.3150  179.5450  142.3400 Cl  0  0  0  0  0  0  0  0  0  0  0  0
  189.5540  177.6470  139.9810 C   0  0  0  0  0  1  0  0  0  0  0  0
  187.4530  177.9140  138.6590 C   0  0  0  0  0  3  0  0  0  0  0  0
  180.6590  180.2700  138.4800 C   0  0  0  0  0  2  0  0  0  0  0  0
  181.4100  181.3510  138.9470 O   0  0  0  0  0  1  0  0  0  0  0  0
  2 22  1  6  0  0  0
  2  7  1  0  0  0  0
  4 27  1  6  0  0  0
  4  6  1  0  0  0  0
  5  2  1  0  0  0  0
  6  7  1  0  0  0  0
  6  1  2  0  0  0  0
  7  3  1  6  0  0  0
  8  5  1  6  0  0  0
  8  4  1  0  0  0  0
  9 15  1  1  0  0  0
  9  8  1  0  0  0  0
 10 17  1  6  0  0  0
 10 11  1  0  0  0  0
 10  9  1  0  0  0  0
 11 12  1  0  0  0  0
 12 13  1  0  0  0  0
 14 15  1  0  0  0  0
 14 13  1  0  0  0  0
 16 11  1  0  0  0  0
 18 17  1  0  0  0  0
 19 26  2  0  0  0  0
 19 22  1  0  0  0  0
 20 23  1  0  0  0  0
 20 24  1  0  0  0  0
 21 25  1  0  0  0  0
 21 23  2  0  0  0  0
 22 20  2  0  0  0  0
 26 21  1  0  0  0  0
 27 28  1  0  0  0  0
M  END
>  <MODEL>
7

>  <REMARK>
 VINA RESULT:      -4.5      2.585      4.946
  Name = 
  4 active torsions:
  status: ('A' for Active; 'I' for Inactive)
    1  A    between atoms: C_1  and  N_27
    2  A    between atoms: C_2  and  C_7
    3  A    between atoms: C_10  and  C_13
    4  A    between atoms: C_16  and  C_19
                            x       y       z     vdW  Elec       q    Type
                         _______ _______ _______ _____ _____    ______ ____

>  <TORSDO>
F 4

$$$$
=
 OpenBabel10272402033D

 28 30  0  0  1  0  0  0  0  0999 V2000
  187.7280  174.6450  137.0740 O   0  0  0  0  0  0  0  0  0  0  0  0
  184.6780  173.5680  135.5920 C   0  0  1  0  0  3  0  0  0  0  0  0
  185.2190  172.9350  137.9990 C   0  0  0  0  0  1  0  0  0  0  0  0
  185.7890  175.9730  136.7640 C   0  0  2  0  0  3  0  0  0  0  0  0
  183.9210  174.9100  135.6370 C   0  0  0  0  0  2  0  0  0  0  0  0
  186.5320  174.6640  136.8330 C   0  0  0  0  0  0  0  0  0  0  0  0
  185.7790  173.3790  136.6550 C   0  0  2  0  0  3  0  0  0  0  0  0
  184.3270  175.7400  136.7840 N   0  0  2  0  0  0  0  0  0  0  0  0
  183.5730  177.0080  136.8050 C   0  0  1  0  0  3  0  0  0  0  0  0
  182.0450  176.7860  136.5810 C   0  0  1  0  0  3  0  0  0  0  0  0
  181.2450  176.2260  137.6910 N   0  0  0  0  0  0  0  0  0  0  0  0
  182.0670  175.5240  138.6740 C   0  0  0  0  0  2  0  0  0  0  0  0
  182.6530  176.5060  139.6880 C   0  0  0  0  0  2  0  0  0  0  0  0
  182.6010  177.8150  139.1910 O   0  0  0  0  0  0  0  0  0  0  0  0
  184.0400  178.0460  138.2720 S   0  0  0  0  0  0  0  0  0  0  0  0
  180.3630  175.2270  137.1130 C   0  0  0  0  0  1  0  0  0  0  0  0
  181.3580  177.9760  135.9100 C   0  0  0  0  0  2  0  0  0  0  0  0
  181.9120  178.2630  134.5260 C   0  0  0  0  0  1  0  0  0  0  0  0
  182.4310  172.4470  135.7960 C   0  0  0  0  0  3  0  0  0  0  0  0
  184.2750  171.1840  134.8480 C   0  0  0  0  0  0  0  0  0  0  0  0
  182.0870  170.1630  135.0790 C   0  0  0  0  0  0  0  0  0  0  0  0
  183.7760  172.3790  135.4010 C   0  0  0  0  0  0  0  0  0  0  0  0
  183.4270  170.0830  134.6890 C   0  0  0  0  0  3  0  0  0  0  0  0
  185.9520  171.0330  134.3480 Cl  0  0  0  0  0  0  0  0  0  0  0  0
  181.1920  168.9890  134.9070 C   0  0  0  0  0  1  0  0  0  0  0  0
  181.5900  171.3440  135.6330 C   0  0  0  0  0  3  0  0  0  0  0  0
  186.2740  176.8620  135.6050 C   0  0  0  0  0  2  0  0  0  0  0  0
  187.0990  177.8940  136.0590 O   0  0  0  0  0  1  0  0  0  0  0  0
  2 22  1  1  0  0  0
  2  5  1  0  0  0  0
  2  7  1  0  0  0  0
  4 27  1  6  0  0  0
  4  8  1  0  0  0  0
  4  6  1  0  0  0  0
  6  1  2  0  0  0  0
  7  6  1  0  0  0  0
  7  3  1  1  0  0  0
  8  5  1  6  0  0  0
  8  9  1  0  0  0  0
  9 15  1  1  0  0  0
 10 17  1  1  0  0  0
 10  9  1  0  0  0  0
 10 11  1  0  0  0  0
 11 12  1  0  0  0  0
 12 13  1  0  0  0  0
 14 13  1  0  0  0  0
 15 14  1  0  0  0  0
 16 11  1  0  0  0  0
 18 17  1  0  0  0  0
 20 22  1  0  0  0  0
 21 26  2  0  0  0  0
 22 19  2  0  0  0  0
 23 20  2  0  0  0  0
 23 21  1  0  0  0  0
 24 20  1  0  0  0  0
 25 21  1  0  0  0  0
 26 19  1  0  0  0  0
 27 28  1  0  0  0  0
M  END
>  <MODEL>
8

>  <REMARK>
 VINA RESULT:      -4.5      3.369      6.577
  Name = 
  4 active torsions:
  status: ('A' for Active; 'I' for Inactive)
    1  A    between atoms: C_1  and  N_27
    2  A    between atoms: C_2  and  C_7
    3  A    between atoms: C_10  and  C_13
    4  A    between atoms: C_16  and  C_19
                            x       y       z     vdW  Elec       q    Type
                         _______ _______ _______ _____ _____    ______ ____

>  <TORSDO>
F 4

$$$$
=
 OpenBabel10272402033D

 28 30  0  0  1  0  0  0  0  0999 V2000
  182.9920  179.9330  139.1080 O   0  0  0  0  0  0  0  0  0  0  0  0
  183.0650  176.4500  138.3830 C   0  0  1  0  0  3  0  0  0  0  0  0
  182.2420  178.1010  136.6260 C   0  0  0  0  0  1  0  0  0  0  0  0
  184.9150  178.6750  138.5240 C   0  0  2  0  0  3  0  0  0  0  0  0
  184.5860  176.2960  138.1790 C   0  0  0  0  0  2  0  0  0  0  0  0
  183.4280  178.8960  138.6340 C   0  0  0  0  0  0  0  0  0  0  0  0
  182.4880  177.8530  138.1080 C   0  0  2  0  0  3  0  0  0  0  0  0
  185.2030  177.5210  137.6430 N   0  0  2  0  0  0  0  0  0  0  0  0
  186.6530  177.3330  137.4460 C   0  0  1  0  0  3  0  0  0  0  0  0
  186.9900  175.9210  136.8760 C   0  0  1  0  0  3  0  0  0  0  0  0
  186.7060  175.6530  135.4500 N   0  0  0  0  0  0  0  0  0  0  0  0
  185.7220  176.5790  134.8920 C   0  0  0  0  0  2  0  0  0  0  0  0
  186.3970  177.8740  134.4380 C   0  0  0  0  0  2  0  0  0  0  0  0
  187.6590  178.0040  135.0330 O   0  0  0  0  0  0  0  0  0  0  0  0
  187.4050  178.7760  136.5530 S   0  0  0  0  0  0  0  0  0  0  0  0
  186.1020  174.3330  135.3820 C   0  0  0  0  0  1  0  0  0  0  0  0
  188.3700  175.4160  137.2980 C   0  0  0  0  0  2  0  0  0  0  0  0
  189.3010  175.2090  136.1160 C   0  0  0  0  0  1  0  0  0  0  0  0
  182.7700  174.5870  136.7130 C   0  0  0  0  0  3  0  0  0  0  0  0
  181.0030  174.9870  138.3280 C   0  0  0  0  0  0  0  0  0  0  0  0
  180.7790  173.2140  136.6880 C   0  0  0  0  0  0  0  0  0  0  0  0
  182.2670  175.3150  137.8020 C   0  0  0  0  0  0  0  0  0  0  0  0
  180.2660  173.9380  137.7680 C   0  0  0  0  0  3  0  0  0  0  0  0
  180.3130  175.8700  139.6810 Cl  0  0  0  0  0  0  0  0  0  0  0  0
  179.9910  172.1000  136.0990 C   0  0  0  0  0  1  0  0  0  0  0  0
  182.0300  173.5400  136.1600 C   0  0  0  0  0  3  0  0  0  0  0  0
  185.6010  178.6100  139.9010 C   0  0  0  0  0  2  0  0  0  0  0  0
  185.1110  179.5900  140.7670 O   0  0  0  0  0  1  0  0  0  0  0  0
  2 22  1  6  0  0  0
  4  6  1  0  0  0  0
  4 27  1  1  0  0  0
  5  2  1  0  0  0  0
  6  1  2  0  0  0  0
  7  3  1  6  0  0  0
  7  2  1  0  0  0  0
  7  6  1  0  0  0  0
  8  5  1  1  0  0  0
  8  4  1  0  0  0  0
  9 15  1  6  0  0  0
  9  8  1  0  0  0  0
 10 17  1  6  0  0  0
 10  9  1  0  0  0  0
 11 10  1  0  0  0  0
 12 11  1  0  0  0  0
 13 12  1  0  0  0  0
 13 14  1  0  0  0  0
 14 15  1  0  0  0  0
 16 11  1  0  0  0  0
 18 17  1  0  0  0  0
 19 22  1  0  0  0  0
 20 24  1  0  0  0  0
 21 23  2  0  0  0  0
 22 20  2  0  0  0  0
 23 20  1  0  0  0  0
 25 21  1  0  0  0  0
 26 21  1  0  0  0  0
 26 19  2  0  0  0  0
 27 28  1  0  0  0  0
M  END
>  <MODEL>
9

>  <REMARK>
 VINA RESULT:      -4.4      3.132      5.508
  Name = 
  4 active torsions:
  status: ('A' for Active; 'I' for Inactive)
    1  A    between atoms: C_1  and  N_27
    2  A    between atoms: C_2  and  C_7
    3  A    between atoms: C_10  and  C_13
    4  A    between atoms: C_16  and  C_19
                            x       y       z     vdW  Elec       q    Type
                         _______ _______ _______ _____ _____    ______ ____

>  <TORSDO>
F 4

$$$$
