=
 OpenBabel10272413223D

 32 37  0  0  1  0  0  0  0  0999 V2000
  189.3740  178.4480  136.8140 C   0  0  0  0  0  2  0  0  0  0  0  0
  188.6440  177.7840  141.8140 C   0  0  2  0  0  3  0  0  0  0  0  0
  183.9350  179.3150  142.6930 C   0  0  0  0  0  2  0  0  0  0  0  0
  184.5120  179.5810  144.0860 C   0  0  0  0  0  2  0  0  0  0  0  0
  189.5300  177.3260  144.1690 C   0  0  0  0  0  0  0  0  0  0  0  0
  190.8610  177.7540  144.0350 C   0  0  0  0  0  0  0  0  0  0  0  0
  189.6570  177.7080  139.5450 C   0  0  2  0  0  3  0  0  0  0  0  0
  187.3610  178.6930  139.9780 O   0  0  0  0  0  0  0  0  0  0  0  0
  189.7780  177.1180  146.5600 C   0  0  0  0  0  0  0  0  0  0  0  0
  188.2680  178.7530  137.7900 C   0  0  0  0  0  3  0  0  0  0  0  0
  185.0370  179.1360  141.6330 C   0  0  0  0  0  2  0  0  0  0  0  0
  187.2590  177.9730  141.2050 C   0  0  2  0  0  3  0  0  0  0  0  0
  186.3690  178.6570  142.2290 C   0  0  2  0  0  3  0  0  0  0  0  0
  187.2910  176.7690  143.7780 C   0  0  2  0  0  3  0  0  0  0  0  0
  191.1130  177.5310  146.4480 C   0  0  0  0  0  3  0  0  0  0  0  0
  188.3870  178.4010  139.0720 C   0  0  0  0  0  0  0  0  0  0  0  0
  191.6520  177.8500  145.1900 C   0  0  0  0  0  3  0  0  0  0  0  0
  190.2140  176.8190  138.4670 C   0  0  0  0  0  3  0  0  0  0  0  0
  190.0890  177.1630  137.1810 C   0  0  0  0  0  0  0  0  0  0  0  0
  185.4010  178.4220  144.5640 C   0  0  0  0  0  2  0  0  0  0  0  0
  186.1050  177.6990  143.4020 C   0  0  1  0  0  3  0  0  0  0  0  0
  187.5710  176.6570  145.2940 C   0  0  0  0  0  2  0  0  0  0  0  0
  189.4520  176.9290  140.8460 C   0  0  0  0  0  2  0  0  0  0  0  0
  191.4020  178.0810  142.7990 O   0  0  0  0  0  1  0  0  0  0  0  0
  189.2500  176.8250  147.7730 F   0  0  0  0  0  0  0  0  0  0  0  0
  188.5560  177.1780  143.1450 N   0  0  0  0  0  0  0  0  0  0  0  0
  189.0080  177.0250  145.4000 C   0  0  0  0  0  0  0  0  0  0  0  0
  190.6390  176.3320  136.2010 O   0  0  0  0  0  0  0  0  0  0  0  0
  189.9550  175.1990  135.6770 C   0  0  0  0  0  2  0  0  0  0  0  0
  190.6090  173.9140  136.1570 C   0  0  2  0  0  3  0  0  0  0  0  0
  190.0620  173.5340  137.3820 O   0  0  0  0  0  1  0  0  0  0  0  0
  192.0970  174.1380  136.3190 C   0  0  0  0  0  1  0  0  0  0  0  0
  1 19  1  0  0  0  0
  1 10  1  0  0  0  0
  2 23  1  6  0  0  0
  2 26  1  0  0  0  0
  3  4  1  0  0  0  0
  4 20  1  0  0  0  0
  5 27  1  0  0  0  0
  6  5  2  0  0  0  0
  6 17  1  0  0  0  0
  7 18  1  6  0  0  0
  7 23  1  0  0  0  0
  9 25  1  0  0  0  0
 10 16  2  0  0  0  0
 11  3  1  0  0  0  0
 12  8  1  6  0  0  0
 12  2  1  0  0  0  0
 12 13  1  0  0  0  0
 13 11  1  6  0  0  0
 13 21  1  0  0  0  0
 14 22  1  1  0  0  0
 15  9  1  0  0  0  0
 16  7  1  0  0  0  0
 16  8  1  0  0  0  0
 17 15  2  0  0  0  0
 19 18  2  0  0  0  0
 21 14  1  0  0  0  0
 21 20  1  1  0  0  0
 22 27  1  0  0  0  0
 24  6  1  0  0  0  0
 26 14  1  0  0  0  0
 26  5  1  0  0  0  0
 27  9  2  0  0  0  0
 28 19  1  0  0  0  0
 29 30  1  0  0  0  0
 29 28  1  0  0  0  0
 30 32  1  1  0  0  0
 30 31  1  0  0  0  0
M  END
>  <MODEL>
1

>  <REMARK>
 VINA RESULT:      -9.1      0.000      0.000
  Name = 
  3 active torsions:
  status: ('A' for Active; 'I' for Inactive)
    1  A    between atoms: C_1  and  C_10
    2  A    between atoms: C_10  and  O_19
    3  A    between atoms: O_19  and  C_24
                            x       y       z     vdW  Elec       q    Type
                         _______ _______ _______ _____ _____    ______ ____

>  <TORSDO>
F 3

$$$$
=
 OpenBabel10272413223D

 32 37  0  0  1  0  0  0  0  0999 V2000
  181.2210  179.6430  143.1470 C   0  0  0  0  0  2  0  0  0  0  0  0
  186.0740  178.0880  143.0310 C   0  0  2  0  0  3  0  0  0  0  0  0
  187.5790  178.0470  147.8300 C   0  0  0  0  0  2  0  0  0  0  0  0
  188.9470  178.2660  147.1770 C   0  0  0  0  0  2  0  0  0  0  0  0
  188.2350  177.5730  141.7650 C   0  0  0  0  0  0  0  0  0  0  0  0
  188.0710  178.3830  140.6290 C   0  0  0  0  0  0  0  0  0  0  0  0
  183.7520  178.6330  142.3310 C   0  0  2  0  0  3  0  0  0  0  0  0
  184.5320  178.8390  144.7350 O   0  0  0  0  0  0  0  0  0  0  0  0
  190.5260  177.1070  141.1700 C   0  0  0  0  0  0  0  0  0  0  0  0
  182.3220  179.4710  144.1620 C   0  0  0  0  0  3  0  0  0  0  0  0
  186.4190  178.3480  146.8630 C   0  0  0  0  0  2  0  0  0  0  0  0
  185.6190  177.9520  144.4800 C   0  0  2  0  0  3  0  0  0  0  0  0
  186.8140  178.1950  145.3870 C   0  0  2  0  0  3  0  0  0  0  0  0
  187.9350  176.4540  143.7970 C   0  0  2  0  0  3  0  0  0  0  0  0
  190.3810  177.9010  140.0230 C   0  0  0  0  0  3  0  0  0  0  0  0
  183.5090  178.9890  143.7910 C   0  0  0  0  0  0  0  0  0  0  0  0
  189.1570  178.5380  139.7550 C   0  0  0  0  0  3  0  0  0  0  0  0
  182.4950  178.1080  141.6930 C   0  0  0  0  0  3  0  0  0  0  0  0
  181.3020  178.5820  142.0680 C   0  0  0  0  0  0  0  0  0  0  0  0
  189.1440  177.3590  145.9520 C   0  0  0  0  0  2  0  0  0  0  0  0
  187.8220  177.0450  145.2300 C   0  0  1  0  0  3  0  0  0  0  0  0
  189.3810  176.2120  143.3080 C   0  0  0  0  0  2  0  0  0  0  0  0
  184.9110  177.6510  142.1500 C   0  0  0  0  0  2  0  0  0  0  0  0
  186.8700  179.0260  140.3580 O   0  0  0  0  0  1  0  0  0  0  0  0
  191.7090  176.5030  141.4400 F   0  0  0  0  0  0  0  0  0  0  0  0
  187.2830  177.2980  142.7820 N   0  0  0  0  0  0  0  0  0  0  0  0
  189.4330  176.9610  142.0250 C   0  0  0  0  0  0  0  0  0  0  0  0
  180.1520  178.0940  141.4400 O   0  0  0  0  0  0  0  0  0  0  0  0
  179.9820  178.1040  140.0270 C   0  0  0  0  0  2  0  0  0  0  0  0
  179.9850  176.6860  139.4810 C   0  0  2  0  0  3  0  0  0  0  0  0
  179.9820  175.7740  140.5370 O   0  0  0  0  0  1  0  0  0  0  0  0
  181.2230  176.4740  138.6380 C   0  0  0  0  0  1  0  0  0  0  0  0
  1 10  1  0  0  0  0
  2 23  1  6  0  0  0
  2 12  1  0  0  0  0
  4  3  1  0  0  0  0
  5 27  1  0  0  0  0
  5 26  1  0  0  0  0
  6  5  2  0  0  0  0
  7 18  1  1  0  0  0
  7 16  1  0  0  0  0
  9 25  1  0  0  0  0
  9 27  2  0  0  0  0
 11  3  1  0  0  0  0
 12  8  1  1  0  0  0
 12 13  1  0  0  0  0
 13 11  1  1  0  0  0
 14 22  1  6  0  0  0
 14 21  1  0  0  0  0
 15  9  1  0  0  0  0
 16 10  2  0  0  0  0
 16  8  1  0  0  0  0
 17 15  2  0  0  0  0
 17  6  1  0  0  0  0
 18 19  2  0  0  0  0
 19  1  1  0  0  0  0
 20  4  1  0  0  0  0
 21 13  1  0  0  0  0
 21 20  1  6  0  0  0
 23  7  1  0  0  0  0
 24  6  1  0  0  0  0
 26  2  1  0  0  0  0
 26 14  1  0  0  0  0
 27 22  1  0  0  0  0
 28 19  1  0  0  0  0
 29 28  1  0  0  0  0
 30 32  1  1  0  0  0
 30 29  1  0  0  0  0
 30 31  1  0  0  0  0
M  END
>  <MODEL>
2

>  <REMARK>
 VINA RESULT:      -9.0      3.270      6.926
  Name = 
  3 active torsions:
  status: ('A' for Active; 'I' for Inactive)
    1  A    between atoms: C_1  and  C_10
    2  A    between atoms: C_10  and  O_19
    3  A    between atoms: O_19  and  C_24
                            x       y       z     vdW  Elec       q    Type
                         _______ _______ _______ _____ _____    ______ ____

>  <TORSDO>
F 3

$$$$
=
 OpenBabel10272413223D

 32 37  0  0  1  0  0  0  0  0999 V2000
  189.7610  177.9510  137.8280 C   0  0  0  0  0  2  0  0  0  0  0  0
  188.4030  177.6890  142.7340 C   0  0  2  0  0  3  0  0  0  0  0  0
  183.7000  179.4600  142.9150 C   0  0  0  0  0  2  0  0  0  0  0  0
  184.1160  179.8060  144.3470 C   0  0  0  0  0  2  0  0  0  0  0  0
  188.9750  177.3730  145.2060 C   0  0  0  0  0  0  0  0  0  0  0  0
  190.3310  177.7380  145.2080 C   0  0  0  0  0  0  0  0  0  0  0  0
  189.6770  177.4050  140.6170 C   0  0  2  0  0  3  0  0  0  0  0  0
  187.3950  178.5080  140.6950 O   0  0  0  0  0  0  0  0  0  0  0  0
  188.9230  177.3340  147.6170 C   0  0  0  0  0  0  0  0  0  0  0  0
  188.5600  178.3700  138.6370 C   0  0  0  0  0  3  0  0  0  0  0  0
  184.9120  179.1600  142.0150 C   0  0  0  0  0  2  0  0  0  0  0  0
  187.1120  177.8840  141.9460 C   0  0  2  0  0  3  0  0  0  0  0  0
  186.1380  178.6760  142.8020 C   0  0  2  0  0  3  0  0  0  0  0  0
  186.7770  176.8740  144.5800 C   0  0  2  0  0  3  0  0  0  0  0  0
  190.2810  177.6860  147.6430 C   0  0  0  0  0  3  0  0  0  0  0  0
  188.5080  178.1090  139.9450 C   0  0  0  0  0  0  0  0  0  0  0  0
  190.9810  177.8890  146.4420 C   0  0  0  0  0  3  0  0  0  0  0  0
  190.3170  176.4190  139.6810 C   0  0  0  0  0  3  0  0  0  0  0  0
  190.3650  176.6710  138.3680 C   0  0  0  0  0  0  0  0  0  0  0  0
  184.8860  178.6530  145.0100 C   0  0  0  0  0  2  0  0  0  0  0  0
  185.6900  177.8190  143.9970 C   0  0  1  0  0  3  0  0  0  0  0  0
  186.8660  176.8650  146.1240 C   0  0  0  0  0  2  0  0  0  0  0  0
  189.2800  176.7340  141.9340 C   0  0  0  0  0  2  0  0  0  0  0  0
  191.0320  177.9520  144.0290 O   0  0  0  0  0  1  0  0  0  0  0  0
  188.2400  177.1520  148.7740 F   0  0  0  0  0  0  0  0  0  0  0  0
  188.1260  177.1870  144.0820 N   0  0  0  0  0  0  0  0  0  0  0  0
  188.2950  177.1840  146.3800 C   0  0  0  0  0  0  0  0  0  0  0  0
  190.9900  175.7480  137.5240 O   0  0  0  0  0  0  0  0  0  0  0  0
  192.0640  176.0980  136.6590 C   0  0  0  0  0  2  0  0  0  0  0  0
  193.3720  176.1540  137.4310 C   0  0  2  0  0  3  0  0  0  0  0  0
  194.3410  176.8100  136.6720 O   0  0  0  0  0  1  0  0  0  0  0  0
  193.8380  174.7470  137.7330 C   0  0  0  0  0  1  0  0  0  0  0  0
  1 19  1  0  0  0  0
  1 10  1  0  0  0  0
  2 23  1  6  0  0  0
  2 26  1  0  0  0  0
  3  4  1  0  0  0  0
  4 20  1  0  0  0  0
  5  6  2  0  0  0  0
  5 27  1  0  0  0  0
  6 17  1  0  0  0  0
  7 18  1  6  0  0  0
  7 23  1  0  0  0  0
  9 15  1  0  0  0  0
  9 25  1  0  0  0  0
 10 16  2  0  0  0  0
 11  3  1  0  0  0  0
 12  8  1  6  0  0  0
 12  2  1  0  0  0  0
 12 13  1  0  0  0  0
 13 11  1  6  0  0  0
 13 21  1  0  0  0  0
 14 22  1  1  0  0  0
 16  7  1  0  0  0  0
 16  8  1  0  0  0  0
 17 15  2  0  0  0  0
 19 18  2  0  0  0  0
 21 14  1  0  0  0  0
 21 20  1  1  0  0  0
 22 27  1  0  0  0  0
 24  6  1  0  0  0  0
 26 14  1  0  0  0  0
 26  5  1  0  0  0  0
 27  9  2  0  0  0  0
 28 19  1  0  0  0  0
 29 30  1  0  0  0  0
 29 28  1  0  0  0  0
 30 32  1  6  0  0  0
 31 30  1  0  0  0  0
M  END
>  <MODEL>
3

>  <REMARK>
 VINA RESULT:      -9.0      1.327      1.662
  Name = 
  3 active torsions:
  status: ('A' for Active; 'I' for Inactive)
    1  A    between atoms: C_1  and  C_10
    2  A    between atoms: C_10  and  O_19
    3  A    between atoms: O_19  and  C_24
                            x       y       z     vdW  Elec       q    Type
                         _______ _______ _______ _____ _____    ______ ____

>  <TORSDO>
F 3

$$$$
=
 OpenBabel10272413223D

 32 37  0  0  1  0  0  0  0  0999 V2000
  191.1840  178.5830  144.2300 C   0  0  0  0  0  2  0  0  0  0  0  0
  189.7140  177.0740  139.5890 C   0  0  2  0  0  3  0  0  0  0  0  0
  193.9420  175.7350  137.2170 C   0  0  0  0  0  2  0  0  0  0  0  0
  193.1130  176.1100  135.9850 C   0  0  0  0  0  2  0  0  0  0  0  0
  187.9580  176.9000  137.7390 C   0  0  0  0  0  0  0  0  0  0  0  0
  187.1290  177.9860  138.0630 C   0  0  0  0  0  0  0  0  0  0  0  0
  189.6520  177.8070  141.9640 C   0  0  2  0  0  3  0  0  0  0  0  0
  191.8240  177.3540  140.7360 O   0  0  0  0  0  0  0  0  0  0  0  0
  186.8230  176.5900  135.6320 C   0  0  0  0  0  0  0  0  0  0  0  0
  191.8830  178.1350  142.9720 C   0  0  0  0  0  3  0  0  0  0  0  0
  193.3350  176.2940  138.5170 C   0  0  0  0  0  2  0  0  0  0  0  0
  191.1380  176.5590  139.7710 C   0  0  2  0  0  3  0  0  0  0  0  0
  191.8230  176.5390  138.4150 C   0  0  2  0  0  3  0  0  0  0  0  0
  189.6450  175.2790  137.7210 C   0  0  2  0  0  3  0  0  0  0  0  0
  185.9760  177.6640  135.9410 C   0  0  0  0  0  3  0  0  0  0  0  0
  191.1720  177.7600  141.9060 C   0  0  0  0  0  0  0  0  0  0  0  0
  186.1290  178.3600  137.1520 C   0  0  0  0  0  3  0  0  0  0  0  0
  189.1590  177.4830  143.3470 C   0  0  0  0  0  3  0  0  0  0  0  0
  189.8720  177.8490  144.4180 C   0  0  0  0  0  0  0  0  0  0  0  0
  191.6800  175.5620  136.0760 C   0  0  0  0  0  2  0  0  0  0  0  0
  191.1750  175.4650  137.5270 C   0  0  1  0  0  3  0  0  0  0  0  0
  188.8350  175.1650  136.4090 C   0  0  0  0  0  2  0  0  0  0  0  0
  188.9960  176.9000  140.9210 C   0  0  0  0  0  2  0  0  0  0  0  0
  187.2770  178.6880  139.2520 O   0  0  0  0  0  1  0  0  0  0  0  0
  186.6880  175.9260  134.4580 F   0  0  0  0  0  0  0  0  0  0  0  0
  189.0350  176.3690  138.4980 N   0  0  0  0  0  0  0  0  0  0  0  0
  187.8080  176.2300  136.5530 C   0  0  0  0  0  0  0  0  0  0  0  0
  189.3770  177.5570  145.6930 O   0  0  0  0  0  0  0  0  0  0  0  0
  187.9950  177.3330  145.9510 C   0  0  0  0  0  2  0  0  0  0  0  0
  187.6730  177.6210  147.4080 C   0  0  2  0  0  3  0  0  0  0  0  0
  186.7330  178.6480  147.4890 O   0  0  0  0  0  1  0  0  0  0  0  0
  188.9370  178.0390  148.1290 C   0  0  0  0  0  1  0  0  0  0  0  0
  1 19  1  0  0  0  0
  2 12  1  0  0  0  0
  2 23  1  1  0  0  0
  3 11  1  0  0  0  0
  4 20  1  0  0  0  0
  4  3  1  0  0  0  0
  5  6  1  0  0  0  0
  5 26  1  0  0  0  0
  6 24  1  0  0  0  0
  7 23  1  6  0  0  0
  7 18  1  0  0  0  0
  8 16  1  0  0  0  0
  9 15  2  0  0  0  0
  9 27  1  0  0  0  0
 10  1  1  0  0  0  0
 12  8  1  1  0  0  0
 13 11  1  1  0  0  0
 13 12  1  0  0  0  0
 14 22  1  6  0  0  0
 14 26  1  0  0  0  0
 15 17  1  0  0  0  0
 16  7  1  0  0  0  0
 16 10  2  0  0  0  0
 17  6  2  0  0  0  0
 18 19  2  0  0  0  0
 19 28  1  0  0  0  0
 21 20  1  6  0  0  0
 21 14  1  0  0  0  0
 21 13  1  0  0  0  0
 22 27  1  0  0  0  0
 25  9  1  0  0  0  0
 26  2  1  0  0  0  0
 27  5  2  0  0  0  0
 28 29  1  0  0  0  0
 29 30  1  0  0  0  0
 30 31  1  0  0  0  0
 30 32  1  1  0  0  0
M  END
>  <MODEL>
4

>  <REMARK>
 VINA RESULT:      -8.1      3.592      8.698
  Name = 
  3 active torsions:
  status: ('A' for Active; 'I' for Inactive)
    1  A    between atoms: C_1  and  C_10
    2  A    between atoms: C_10  and  O_19
    3  A    between atoms: O_19  and  C_24
                            x       y       z     vdW  Elec       q    Type
                         _______ _______ _______ _____ _____    ______ ____

>  <TORSDO>
F 3

$$$$
=
 OpenBabel10272413223D

 32 37  0  0  1  0  0  0  0  0999 V2000
  189.8190  176.9310  139.4420 C   0  0  0  0  0  2  0  0  0  0  0  0
  185.6390  178.2060  142.0650 C   0  0  2  0  0  3  0  0  0  0  0  0
  186.9950  178.0380  146.9050 C   0  0  0  0  0  2  0  0  0  0  0  0
  185.5010  177.7580  147.0900 C   0  0  0  0  0  2  0  0  0  0  0  0
  183.1210  178.6280  142.2060 C   0  0  0  0  0  0  0  0  0  0  0  0
  182.6670  177.8580  141.1220 C   0  0  0  0  0  0  0  0  0  0  0  0
  187.2210  177.8140  140.1870 C   0  0  2  0  0  3  0  0  0  0  0  0
  187.8860  177.5020  142.6140 O   0  0  0  0  0  0  0  0  0  0  0  0
  180.8620  178.9770  142.9780 C   0  0  0  0  0  0  0  0  0  0  0  0
  189.4460  177.0130  140.9000 C   0  0  0  0  0  3  0  0  0  0  0  0
  187.4490  177.8290  145.4490 C   0  0  0  0  0  2  0  0  0  0  0  0
  186.8060  178.3310  143.0390 C   0  0  2  0  0  3  0  0  0  0  0  0
  186.3080  177.9970  144.4350 C   0  0  2  0  0  3  0  0  0  0  0  0
  184.4430  179.7110  143.8040 C   0  0  2  0  0  3  0  0  0  0  0  0
  180.3850  178.2220  141.8960 C   0  0  0  0  0  3  0  0  0  0  0  0
  188.2320  177.4350  141.2590 C   0  0  0  0  0  0  0  0  0  0  0  0
  181.2860  177.6630  140.9730 C   0  0  0  0  0  3  0  0  0  0  0  0
  187.9070  178.4260  138.9980 C   0  0  0  0  0  3  0  0  0  0  0  0
  189.1270  178.0130  138.6380 C   0  0  0  0  0  0  0  0  0  0  0  0
  184.6370  178.6830  146.2180 C   0  0  0  0  0  2  0  0  0  0  0  0
  185.3390  179.0910  144.9110 C   0  0  1  0  0  3  0  0  0  0  0  0
  182.9560  179.8810  144.1930 C   0  0  0  0  0  2  0  0  0  0  0  0
  186.1170  178.7320  140.7170 C   0  0  0  0  0  2  0  0  0  0  0  0
  183.5460  177.2920  140.2090 O   0  0  0  0  0  1  0  0  0  0  0  0
  179.9980  179.5050  143.8790 F   0  0  0  0  0  0  0  0  0  0  0  0
  184.4640  178.9320  142.5550 N   0  0  0  0  0  0  0  0  0  0  0  0
  182.2390  179.1630  143.1070 C   0  0  0  0  0  0  0  0  0  0  0  0
  189.7300  178.5820  137.5120 O   0  0  0  0  0  0  0  0  0  0  0  0
  189.2170  178.4150  136.1950 C   0  0  0  0  0  2  0  0  0  0  0  0
  189.2600  176.9520  135.7890 C   0  0  2  0  0  3  0  0  0  0  0  0
  190.0440  176.8020  134.6450 O   0  0  0  0  0  1  0  0  0  0  0  0
  187.8550  176.4690  135.5010 C   0  0  0  0  0  1  0  0  0  0  0  0
  1 10  1  0  0  0  0
  2 23  1  6  0  0  0
  2 26  1  0  0  0  0
  2 12  1  0  0  0  0
  3  4  1  0  0  0  0
  5 26  1  0  0  0  0
  5 27  1  0  0  0  0
  6  5  2  0  0  0  0
  7 18  1  6  0  0  0
  7 23  1  0  0  0  0
  7 16  1  0  0  0  0
  9 27  2  0  0  0  0
  9 25  1  0  0  0  0
 10 16  2  0  0  0  0
 11  3  1  0  0  0  0
 12  8  1  6  0  0  0
 12 13  1  0  0  0  0
 13 21  1  0  0  0  0
 13 11  1  1  0  0  0
 14 22  1  1  0  0  0
 14 21  1  0  0  0  0
 15  9  1  0  0  0  0
 16  8  1  0  0  0  0
 17  6  1  0  0  0  0
 17 15  2  0  0  0  0
 19 18  2  0  0  0  0
 19  1  1  0  0  0  0
 20  4  1  0  0  0  0
 21 20  1  1  0  0  0
 24  6  1  0  0  0  0
 26 14  1  0  0  0  0
 27 22  1  0  0  0  0
 28 19  1  0  0  0  0
 29 28  1  0  0  0  0
 30 32  1  6  0  0  0
 30 29  1  0  0  0  0
 31 30  1  0  0  0  0
M  END
>  <MODEL>
5

>  <REMARK>
 VINA RESULT:      -7.5      2.962      5.633
  Name = 
  3 active torsions:
  status: ('A' for Active; 'I' for Inactive)
    1  A    between atoms: C_1  and  C_10
    2  A    between atoms: C_10  and  O_19
    3  A    between atoms: O_19  and  C_24
                            x       y       z     vdW  Elec       q    Type
                         _______ _______ _______ _____ _____    ______ ____

>  <TORSDO>
F 3

$$$$
=
 OpenBabel10272413223D

 32 37  0  0  1  0  0  0  0  0999 V2000
  181.8370  178.5940  137.3370 C   0  0  0  0  0  2  0  0  0  0  0  0
  186.1830  178.1080  139.9560 C   0  0  2  0  0  3  0  0  0  0  0  0
  189.5050  176.2110  136.6920 C   0  0  0  0  0  2  0  0  0  0  0  0
  190.1350  175.6720  137.9790 C   0  0  0  0  0  2  0  0  0  0  0  0
  187.4830  178.0770  142.1570 C   0  0  0  0  0  0  0  0  0  0  0  0
  186.4590  177.7500  143.0610 C   0  0  0  0  0  0  0  0  0  0  0  0
  183.8560  178.7280  139.3350 C   0  0  2  0  0  3  0  0  0  0  0  0
  185.4320  177.5680  137.7220 O   0  0  0  0  0  0  0  0  0  0  0  0
  189.1630  177.7650  143.8610 C   0  0  0  0  0  0  0  0  0  0  0  0
  183.2070  178.0330  137.0560 C   0  0  0  0  0  3  0  0  0  0  0  0
  188.0510  176.6690  136.9050 C   0  0  0  0  0  2  0  0  0  0  0  0
  186.5600  177.9970  138.4830 C   0  0  2  0  0  3  0  0  0  0  0  0
  187.7540  177.0650  138.3590 C   0  0  2  0  0  3  0  0  0  0  0  0
  188.7110  178.6050  140.2370 C   0  0  2  0  0  3  0  0  0  0  0  0
  188.1550  177.4470  144.7830 C   0  0  0  0  0  3  0  0  0  0  0  0
  184.1640  178.0990  137.9840 C   0  0  0  0  0  0  0  0  0  0  0  0
  186.8080  177.4380  144.3830 C   0  0  0  0  0  3  0  0  0  0  0  0
  182.8730  179.8550  139.1880 C   0  0  0  0  0  3  0  0  0  0  0  0
  181.9170  179.7980  138.2540 C   0  0  0  0  0  0  0  0  0  0  0  0
  190.1630  176.7360  139.0880 C   0  0  0  0  0  2  0  0  0  0  0  0
  188.9910  177.7280  138.9860 C   0  0  1  0  0  3  0  0  0  0  0  0
  189.6950  178.3940  141.4100 C   0  0  0  0  0  2  0  0  0  0  0  0
  185.1170  179.1910  140.0690 C   0  0  0  0  0  2  0  0  0  0  0  0
  185.1250  177.7270  142.6760 O   0  0  0  0  0  1  0  0  0  0  0  0
  190.4650  177.7600  144.2380 F   0  0  0  0  0  0  0  0  0  0  0  0
  187.3580  178.4030  140.7800 N   0  0  0  0  0  0  0  0  0  0  0  0
  188.7960  178.0770  142.5510 C   0  0  0  0  0  0  0  0  0  0  0  0
  181.0000  180.8480  138.1580 O   0  0  0  0  0  0  0  0  0  0  0  0
  181.3960  182.2110  138.0540 C   0  0  0  0  0  2  0  0  0  0  0  0
  180.6300  182.9040  136.9400 C   0  0  2  0  0  3  0  0  0  0  0  0
  180.7050  182.1450  135.7720 O   0  0  0  0  0  1  0  0  0  0  0  0
  181.2320  184.2700  136.6900 C   0  0  0  0  0  1  0  0  0  0  0  0
  1 19  1  0  0  0  0
  2 23  1  6  0  0  0
  2 26  1  0  0  0  0
  3 11  1  0  0  0  0
  3  4  1  0  0  0  0
  4 20  1  0  0  0  0
  5 27  2  0  0  0  0
  5  6  1  0  0  0  0
  6 17  2  0  0  0  0
  7 18  1  6  0  0  0
  7 23  1  0  0  0  0
  8 16  1  0  0  0  0
  9 25  1  0  0  0  0
  9 15  2  0  0  0  0
 10  1  1  0  0  0  0
 10 16  2  0  0  0  0
 12  8  1  6  0  0  0
 12  2  1  0  0  0  0
 13 11  1  6  0  0  0
 13 12  1  0  0  0  0
 13 21  1  0  0  0  0
 14 26  1  0  0  0  0
 14 22  1  1  0  0  0
 16  7  1  0  0  0  0
 17 15  1  0  0  0  0
 19 18  2  0  0  0  0
 21 20  1  1  0  0  0
 21 14  1  0  0  0  0
 22 27  1  0  0  0  0
 24  6  1  0  0  0  0
 26  5  1  0  0  0  0
 27  9  1  0  0  0  0
 28 19  1  0  0  0  0
 29 28  1  0  0  0  0
 30 32  1  6  0  0  0
 30 29  1  0  0  0  0
 31 30  1  0  0  0  0
M  END
>  <MODEL>
6

>  <REMARK>
 VINA RESULT:      -7.2      3.803      7.129
  Name = 
  3 active torsions:
  status: ('A' for Active; 'I' for Inactive)
    1  A    between atoms: C_1  and  C_10
    2  A    between atoms: C_10  and  O_19
    3  A    between atoms: O_19  and  C_24
                            x       y       z     vdW  Elec       q    Type
                         _______ _______ _______ _____ _____    ______ ____

>  <TORSDO>
F 3

$$$$
=
 OpenBabel10272413223D

 32 37  0  0  1  0  0  0  0  0999 V2000
  194.1180  175.1500  136.8740 C   0  0  0  0  0  2  0  0  0  0  0  0
  189.3160  176.5770  137.8120 C   0  0  2  0  0  3  0  0  0  0  0  0
  189.2980  178.1510  142.5880 C   0  0  0  0  0  2  0  0  0  0  0  0
  187.8280  177.7320  142.4940 C   0  0  0  0  0  2  0  0  0  0  0  0
  186.8370  176.6550  137.1900 C   0  0  0  0  0  0  0  0  0  0  0  0
  186.7400  175.5240  136.3620 C   0  0  0  0  0  0  0  0  0  0  0  0
  191.3710  175.8410  136.6220 C   0  0  2  0  0  3  0  0  0  0  0  0
  191.3600  176.4140  139.0920 O   0  0  0  0  0  0  0  0  0  0  0  0
  184.4370  176.9020  137.2280 C   0  0  0  0  0  0  0  0  0  0  0  0
  193.3550  175.6370  138.0790 C   0  0  0  0  0  3  0  0  0  0  0  0
  190.1450  177.5580  141.4480 C   0  0  0  0  0  2  0  0  0  0  0  0
  190.1620  177.1710  138.9330 C   0  0  2  0  0  3  0  0  0  0  0  0
  189.3190  177.2290  140.1960 C   0  0  2  0  0  3  0  0  0  0  0  0
  187.6080  178.3670  138.5850 C   0  0  2  0  0  3  0  0  0  0  0  0
  184.3180  175.7820  136.3910 C   0  0  0  0  0  3  0  0  0  0  0  0
  192.0680  175.9720  137.9690 C   0  0  0  0  0  0  0  0  0  0  0  0
  185.4660  175.0950  135.9620 C   0  0  0  0  0  3  0  0  0  0  0  0
  192.3230  176.1360  135.4970 C   0  0  0  0  0  3  0  0  0  0  0  0
  193.6160  175.8100  135.6050 C   0  0  0  0  0  0  0  0  0  0  0  0
  187.1870  178.1980  141.1770 C   0  0  0  0  0  2  0  0  0  0  0  0
  188.1980  178.2670  140.0190 C   0  0  1  0  0  3  0  0  0  0  0  0
  186.0650  178.4370  138.5230 C   0  0  0  0  0  2  0  0  0  0  0  0
  190.1160  176.7110  136.5230 C   0  0  0  0  0  2  0  0  0  0  0  0
  187.8660  174.8300  135.9390 O   0  0  0  0  0  1  0  0  0  0  0  0
  183.3320  177.5590  137.6560 F   0  0  0  0  0  0  0  0  0  0  0  0
  188.0140  177.2440  137.7250 N   0  0  0  0  0  0  0  0  0  0  0  0
  185.7130  177.3160  137.6120 C   0  0  0  0  0  0  0  0  0  0  0  0
  194.4730  176.0720  134.5330 O   0  0  0  0  0  0  0  0  0  0  0  0
  195.8010  175.5650  134.4650 C   0  0  0  0  0  2  0  0  0  0  0  0
  196.8050  176.6590  134.7870 C   0  0  2  0  0  3  0  0  0  0  0  0
  197.3030  176.4770  136.0770 O   0  0  0  0  0  1  0  0  0  0  0  0
  196.1260  178.0080  134.6970 C   0  0  0  0  0  1  0  0  0  0  0  0
  1 10  1  0  0  0  0
  2 23  1  6  0  0  0
  2 12  1  0  0  0  0
  4  3  1  0  0  0  0
  5 27  1  0  0  0  0
  5 26  1  0  0  0  0
  6  5  2  0  0  0  0
  7 18  1  6  0  0  0
  7 16  1  0  0  0  0
  9 27  2  0  0  0  0
  9 25  1  0  0  0  0
 11  3  1  0  0  0  0
 12  8  1  1  0  0  0
 12 13  1  0  0  0  0
 13 11  1  1  0  0  0
 14 22  1  1  0  0  0
 14 21  1  0  0  0  0
 15  9  1  0  0  0  0
 16 10  2  0  0  0  0
 16  8  1  0  0  0  0
 17  6  1  0  0  0  0
 17 15  2  0  0  0  0
 18 19  2  0  0  0  0
 19  1  1  0  0  0  0
 20  4  1  0  0  0  0
 21 13  1  0  0  0  0
 21 20  1  1  0  0  0
 23  7  1  0  0  0  0
 24  6  1  0  0  0  0
 26  2  1  0  0  0  0
 26 14  1  0  0  0  0
 27 22  1  0  0  0  0
 28 19  1  0  0  0  0
 29 28  1  0  0  0  0
 29 30  1  0  0  0  0
 30 32  1  1  0  0  0
 30 31  1  0  0  0  0
M  END
>  <MODEL>
7

>  <REMARK>
 VINA RESULT:      -6.9      3.818      6.737
  Name = 
  3 active torsions:
  status: ('A' for Active; 'I' for Inactive)
    1  A    between atoms: C_1  and  C_10
    2  A    between atoms: C_10  and  O_19
    3  A    between atoms: O_19  and  C_24
                            x       y       z     vdW  Elec       q    Type
                         _______ _______ _______ _____ _____    ______ ____

>  <TORSDO>
F 3

$$$$
=
 OpenBabel10272413223D

 32 37  0  0  1  0  0  0  0  0999 V2000
  180.5090  179.5400  138.1750 C   0  0  0  0  0  2  0  0  0  0  0  0
  185.3890  178.1660  138.7010 C   0  0  2  0  0  3  0  0  0  0  0  0
  186.1580  174.6080  135.2310 C   0  0  0  0  0  2  0  0  0  0  0  0
  187.2320  174.1700  136.2300 C   0  0  0  0  0  2  0  0  0  0  0  0
  187.5890  178.1580  140.0040 C   0  0  0  0  0  0  0  0  0  0  0  0
  187.1210  178.3970  141.3070 C   0  0  0  0  0  0  0  0  0  0  0  0
  183.2420  179.3950  138.9470 C   0  0  2  0  0  3  0  0  0  0  0  0
  183.5230  177.4560  137.3380 O   0  0  0  0  0  0  0  0  0  0  0  0
  189.8000  177.6590  140.8290 C   0  0  0  0  0  0  0  0  0  0  0  0
  181.4070  178.5000  137.5570 C   0  0  0  0  0  3  0  0  0  0  0  0
  185.1330  175.5680  135.8630 C   0  0  0  0  0  2  0  0  0  0  0  0
  184.9390  177.6250  137.3480 C   0  0  2  0  0  3  0  0  0  0  0  0
  185.6970  176.3380  137.0660 C   0  0  2  0  0  3  0  0  0  0  0  0
  187.7530  177.8190  137.6950 C   0  0  2  0  0  3  0  0  0  0  0  0
  189.3580  177.9050  142.1370 C   0  0  0  0  0  3  0  0  0  0  0  0
  182.6940  178.4300  137.9060 C   0  0  0  0  0  0  0  0  0  0  0  0
  188.0220  178.2710  142.3750 C   0  0  0  0  0  3  0  0  0  0  0  0
  182.5630  180.7330  138.8460 C   0  0  0  0  0  3  0  0  0  0  0  0
  181.2760  180.8090  138.4880 C   0  0  0  0  0  0  0  0  0  0  0  0
  188.0250  175.3690  136.7740 C   0  0  0  0  0  2  0  0  0  0  0  0
  187.1830  176.6560  136.8370 C   0  0  1  0  0  3  0  0  0  0  0  0
  189.1310  177.5370  138.3350 C   0  0  0  0  0  2  0  0  0  0  0  0
  184.7630  179.5450  138.8670 C   0  0  0  0  0  2  0  0  0  0  0  0
  185.8020  178.7500  141.5560 O   0  0  0  0  0  1  0  0  0  0  0  0
  191.0840  177.2900  140.5970 F   0  0  0  0  0  0  0  0  0  0  0  0
  186.8510  178.2090  138.7910 N   0  0  0  0  0  0  0  0  0  0  0  0
  188.8910  177.7930  139.7800 C   0  0  0  0  0  0  0  0  0  0  0  0
  180.6630  182.0640  138.4270 O   0  0  0  0  0  0  0  0  0  0  0  0
  180.4320  182.7510  137.2030 C   0  0  0  0  0  2  0  0  0  0  0  0
  180.9380  184.1810  137.2920 C   0  0  2  0  0  3  0  0  0  0  0  0
  180.0380  184.9560  138.0220 O   0  0  0  0  0  1  0  0  0  0  0  0
  181.0770  184.7530  135.8980 C   0  0  0  0  0  1  0  0  0  0  0  0
  1 19  1  0  0  0  0
  2 26  1  0  0  0  0
  2 23  1  6  0  0  0
  3 11  1  0  0  0  0
  3  4  1  0  0  0  0
  4 20  1  0  0  0  0
  5  6  1  0  0  0  0
  6 24  1  0  0  0  0
  6 17  2  0  0  0  0
  7 18  1  6  0  0  0
  8 16  1  0  0  0  0
  9 15  2  0  0  0  0
 10 16  2  0  0  0  0
 10  1  1  0  0  0  0
 12  8  1  1  0  0  0
 12  2  1  0  0  0  0
 13 11  1  6  0  0  0
 13 12  1  0  0  0  0
 14 22  1  1  0  0  0
 14 26  1  0  0  0  0
 15 17  1  0  0  0  0
 16  7  1  0  0  0  0
 19 18  2  0  0  0  0
 21 20  1  1  0  0  0
 21 13  1  0  0  0  0
 21 14  1  0  0  0  0
 22 27  1  0  0  0  0
 23  7  1  0  0  0  0
 25  9  1  0  0  0  0
 26  5  1  0  0  0  0
 27  5  2  0  0  0  0
 27  9  1  0  0  0  0
 28 19  1  0  0  0  0
 29 30  1  0  0  0  0
 29 28  1  0  0  0  0
 30 32  1  6  0  0  0
 30 31  1  0  0  0  0
M  END
>  <MODEL>
8

>  <REMARK>
 VINA RESULT:      -6.7      4.682      8.214
  Name = 
  3 active torsions:
  status: ('A' for Active; 'I' for Inactive)
    1  A    between atoms: C_1  and  C_10
    2  A    between atoms: C_10  and  O_19
    3  A    between atoms: O_19  and  C_24
                            x       y       z     vdW  Elec       q    Type
                         _______ _______ _______ _____ _____    ______ ____

>  <TORSDO>
F 3

$$$$
=
 OpenBabel10272413223D

 32 37  0  0  1  0  0  0  0  0999 V2000
  189.5900  176.7580  138.3530 C   0  0  0  0  0  2  0  0  0  0  0  0
  188.9300  177.3870  143.3680 C   0  0  2  0  0  3  0  0  0  0  0  0
  192.7200  174.8960  145.5390 C   0  0  0  0  0  2  0  0  0  0  0  0
  191.7140  174.8000  146.6890 C   0  0  0  0  0  2  0  0  0  0  0  0
  187.5070  178.0930  145.3720 C   0  0  0  0  0  0  0  0  0  0  0  0
  186.2160  177.9610  144.8350 C   0  0  0  0  0  0  0  0  0  0  0  0
  188.6770  177.6180  140.9060 C   0  0  2  0  0  3  0  0  0  0  0  0
  190.4720  176.1700  141.9600 O   0  0  0  0  0  0  0  0  0  0  0  0
  186.6110  178.4170  147.5890 C   0  0  0  0  0  0  0  0  0  0  0  0
  190.2640  176.2480  139.6010 C   0  0  0  0  0  3  0  0  0  0  0  0
  192.0480  175.2800  144.2080 C   0  0  0  0  0  2  0  0  0  0  0  0
  190.3580  176.8860  143.1880 C   0  0  2  0  0  3  0  0  0  0  0  0
  190.7350  176.0540  144.4020 C   0  0  2  0  0  3  0  0  0  0  0  0
  189.8250  178.1400  145.6810 C   0  0  2  0  0  3  0  0  0  0  0  0
  185.3130  178.3000  147.0720 C   0  0  0  0  0  3  0  0  0  0  0  0
  189.8490  176.6530  140.8030 C   0  0  0  0  0  0  0  0  0  0  0  0
  185.1160  178.0710  145.6990 C   0  0  0  0  0  3  0  0  0  0  0  0
  188.6700  178.5760  139.7460 C   0  0  0  0  0  3  0  0  0  0  0  0
  189.0930  178.1770  138.5420 C   0  0  0  0  0  0  0  0  0  0  0  0
  190.9940  176.1380  146.9260 C   0  0  0  0  0  2  0  0  0  0  0  0
  190.8390  176.9630  145.6370 C   0  0  1  0  0  3  0  0  0  0  0  0
  189.1390  178.3520  147.0500 C   0  0  0  0  0  2  0  0  0  0  0  0
  188.6500  178.3700  142.2390 C   0  0  0  0  0  2  0  0  0  0  0  0
  186.0080  177.7250  143.4820 O   0  0  0  0  0  1  0  0  0  0  0  0
  186.8060  178.6220  148.9150 F   0  0  0  0  0  0  0  0  0  0  0  0
  188.7480  177.9970  144.6880 N   0  0  0  0  0  0  0  0  0  0  0  0
  187.6920  178.3080  146.7130 C   0  0  0  0  0  0  0  0  0  0  0  0
  189.0510  179.0810  137.4760 O   0  0  0  0  0  0  0  0  0  0  0  0
  188.7880  178.6810  136.1360 C   0  0  0  0  0  2  0  0  0  0  0  0
  187.2940  178.6900  135.8610 C   0  0  2  0  0  3  0  0  0  0  0  0
  186.5960  178.4170  137.0380 O   0  0  0  0  0  1  0  0  0  0  0  0
  186.9660  177.6350  134.8270 C   0  0  0  0  0  1  0  0  0  0  0  0
  1 19  1  0  0  0  0
  1 10  1  0  0  0  0
  2 23  1  6  0  0  0
  2 26  1  0  0  0  0
  3  4  1  0  0  0  0
  4 20  1  0  0  0  0
  5 27  1  0  0  0  0
  6  5  2  0  0  0  0
  6 17  1  0  0  0  0
  7 18  1  6  0  0  0
  7 23  1  0  0  0  0
  9 25  1  0  0  0  0
 10 16  2  0  0  0  0
 11  3  1  0  0  0  0
 12  8  1  6  0  0  0
 12  2  1  0  0  0  0
 12 13  1  0  0  0  0
 13 11  1  6  0  0  0
 13 21  1  0  0  0  0
 14 22  1  1  0  0  0
 15  9  1  0  0  0  0
 16  7  1  0  0  0  0
 16  8  1  0  0  0  0
 17 15  2  0  0  0  0
 19 18  2  0  0  0  0
 21 14  1  0  0  0  0
 21 20  1  1  0  0  0
 24  6  1  0  0  0  0
 26  5  1  0  0  0  0
 26 14  1  0  0  0  0
 27 22  1  0  0  0  0
 27  9  2  0  0  0  0
 28 19  1  0  0  0  0
 29 28  1  0  0  0  0
 30 32  1  6  0  0  0
 30 29  1  0  0  0  0
 30 31  1  0  0  0  0
M  END
>  <MODEL>
9

>  <REMARK>
 VINA RESULT:      -6.6      2.314      4.886
  Name = 
  3 active torsions:
  status: ('A' for Active; 'I' for Inactive)
    1  A    between atoms: C_1  and  C_10
    2  A    between atoms: C_10  and  O_19
    3  A    between atoms: O_19  and  C_24
                            x       y       z     vdW  Elec       q    Type
                         _______ _______ _______ _____ _____    ______ ____

>  <TORSDO>
F 3

$$$$
