=
 OpenBabel10272415033D

 37 37  0  0  1  0  0  0  0  0999 V2000
  189.1660  177.3290  140.8450 C   0  0  2  0  0  3  0  0  0  0  0  0
  188.0520  178.1250  140.1580 C   0  0  2  0  0  3  0  0  0  0  0  0
  188.6020  179.1040  139.3290 O   0  0  0  0  0  1  0  0  0  0  0  0
  187.0980  178.7560  141.1680 C   0  0  0  0  0  2  0  0  0  0  0  0
  185.2680  179.7230  139.9610 O   0  0  0  0  0  1  0  0  0  0  0  0
  185.6510  178.6140  140.7190 C   0  0  2  0  0  3  0  0  0  0  0  0
  184.7460  178.4700  141.9030 C   0  0  0  0  0  0  0  0  0  0  0  0
  185.2670  178.1000  143.0710 C   0  0  0  0  0  2  0  0  0  0  0  0
  182.8060  177.5140  140.6940 C   0  0  0  0  0  1  0  0  0  0  0  0
  183.2580  178.5200  141.7350 C   0  0  0  0  0  2  0  0  0  0  0  0
  189.3830  177.8100  142.1420 O   0  0  0  0  0  0  0  0  0  0  0  0
  189.2740  176.4690  143.1840 P   0  0  2  0  0  0  0  0  0  0  0  0
  190.4370  175.3150  142.7580 O   0  0  0  0  0  0  0  0  0  0  0  0
  187.9050  175.8500  143.0180 O   0  0  0  0  0  1  0  0  0  0  0  0
  189.4850  176.9410  144.9430 C   0  0  1  0  0  3  0  0  0  0  0  0
  191.6940  176.3780  146.2540 C   0  0  0  0  0  1  0  0  0  0  0  0
  190.9290  177.2150  145.2780 C   0  0  0  0  0  0  0  0  0  0  0  0
  191.5960  178.1310  144.5800 C   0  0  0  0  0  2  0  0  0  0  0  0
  188.5640  178.0990  145.3040 C   0  0  0  0  0  2  0  0  0  0  0  0
  187.4600  177.6290  146.2360 C   0  0  0  0  0  2  0  0  0  0  0  0
  188.0510  176.9370  147.4510 C   0  0  0  0  0  2  0  0  0  0  0  0
  188.1910  177.9140  148.6030 C   0  0  0  0  0  2  0  0  0  0  0  0
  189.6080  178.4480  148.6380 C   0  0  0  0  0  1  0  0  0  0  0  0
  190.4630  177.3840  140.0430 C   0  0  0  0  0  2  0  0  0  0  0  0
  190.2290  176.9950  138.7220 O   0  0  0  0  0  0  0  0  0  0  0  0
  190.6700  174.9520  137.4590 C   0  0  0  0  0  0  0  0  0  0  0  0
  190.5300  175.6740  138.6880 N   0  0  0  0  0  2  0  0  0  0  0  0
  190.8960  173.7140  137.5000 O   0  0  0  0  0  0  0  0  0  0  0  0
  188.9910  175.6900  135.6450 C   0  0  2  0  0  3  0  0  0  0  0  0
  189.9270  174.6380  135.0910 C   0  0  0  0  0  2  0  0  0  0  0  0
  190.4520  175.6190  136.1250 C   0  0  2  0  0  3  0  0  0  0  0  0
  187.9500  175.0240  136.5620 C   0  0  2  0  0  3  0  0  0  0  0  0
  187.0130  174.0940  135.8000 C   0  0  0  0  0  1  0  0  0  0  0  0
  187.2570  175.9480  137.3790 O   0  0  0  0  0  0  0  0  0  0  0  0
  187.0940  177.1550  136.6770 C   0  0  0  0  0  2  0  0  0  0  0  0
  185.0190  177.0050  137.4070 C   0  0  0  0  0  1  0  0  0  0  0  0
  186.0760  177.9030  137.2690 O   0  0  0  0  0  0  0  0  0  0  0  0
  1 24  1  6  0  0  0
  1 11  1  0  0  0  0
  2  3  1  1  0  0  0
  2  1  1  0  0  0  0
  2  4  1  0  0  0  0
  6  5  1  1  0  0  0
  6  4  1  0  0  0  0
  6  7  1  0  0  0  0
  7  8  2  0  0  0  0
  9 10  1  0  0  0  0
 10  7  1  0  0  0  0
 11 12  1  0  0  0  0
 12 13  2  6  0  0  0
 12 15  1  0  0  0  0
 14 12  1  0  0  0  0
 15 17  1  0  0  0  0
 15 19  1  6  0  0  0
 17 16  1  0  0  0  0
 18 17  2  0  0  0  0
 19 20  1  0  0  0  0
 20 21  1  0  0  0  0
 21 22  1  0  0  0  0
 22 23  1  0  0  0  0
 25 24  1  0  0  0  0
 26 28  2  0  0  0  0
 26 27  1  0  0  0  0
 27 25  1  0  0  0  0
 29 31  1  0  0  0  0
 29 32  1  1  0  0  0
 30 29  1  0  0  0  0
 30 31  1  0  0  0  0
 31 26  1  1  0  0  0
 32 33  1  6  0  0  0
 32 34  1  0  0  0  0
 35 37  1  0  0  0  0
 35 34  1  0  0  0  0
 37 36  1  0  0  0  0
M  END
>  <MODEL>
1

>  <REMARK>
 VINA RESULT:      -6.6      0.000      0.000
  Name = 
  21 active torsions:
  status: ('A' for Active; 'I' for Inactive)
    1  A    between atoms: C_1  and  O_17
    2  A    between atoms: C_1  and  C_26
    3  A    between atoms: C_2  and  C_19
    4  A    between atoms: C_2  and  C_35
    5  A    between atoms: C_3  and  C_32
    6  A    between atoms: P_4  and  O_10
    7  A    between atoms: P_4  and  C_13
    8  A    between atoms: C_5  and  O_17
    9  A    between atoms: C_5  and  O_23
   10  A    between atoms: C_6  and  C_31
   11  A    between atoms: C_6  and  C_35
   12  A    between atoms: C_7  and  C_14
   13  A    between atoms: C_7  and  O_27
   14  A    between atoms: O_10  and  C_14
   15  A    between atoms: C_11  and  C_36
   16  A    between atoms: C_13  and  C_16
   17  A    between atoms: C_13  and  C_20
   18  A    between atoms: C_14  and  C_31
   19  A    between atoms: C_20  and  C_25
   20  A    between atoms: C_25  and  C_32
   21  A    between atoms: O_27  and  N_33
                            x       y       z     vdW  Elec       q    Type
                         _______ _______ _______ _____ _____    ______ ____

>  <TORSDO>
F 21

$$$$
=
 OpenBabel10272415033D

 37 37  0  0  1  0  0  0  0  0999 V2000
  188.3680  177.7910  142.0070 C   0  0  2  0  0  3  0  0  0  0  0  0
  187.1940  177.7790  142.9890 C   0  0  2  0  0  3  0  0  0  0  0  0
  187.0790  176.5220  143.5870 O   0  0  0  0  0  1  0  0  0  0  0  0
  185.8820  178.1720  142.3140 C   0  0  0  0  0  2  0  0  0  0  0  0
  185.4730  178.9720  144.5350 O   0  0  0  0  0  1  0  0  0  0  0  0
  185.0590  179.0890  143.2070 C   0  0  2  0  0  3  0  0  0  0  0  0
  183.6030  178.7580  143.0970 C   0  0  0  0  0  0  0  0  0  0  0  0
  183.0630  178.6200  141.8880 C   0  0  0  0  0  2  0  0  0  0  0  0
  181.2580  178.8070  143.8960 C   0  0  0  0  0  1  0  0  0  0  0  0
  182.7190  178.8000  144.3050 C   0  0  0  0  0  2  0  0  0  0  0  0
  189.4970  178.3680  142.6010 O   0  0  0  0  0  0  0  0  0  0  0  0
  190.5450  177.0890  143.0040 P   0  0  2  0  0  0  0  0  0  0  0  0
  192.1440  177.5300  142.6680 O   0  0  0  0  0  1  0  0  0  0  0  0
  190.1890  175.8970  142.1450 O   0  0  0  0  0  0  0  0  0  0  0  0
  190.3930  176.6000  144.7640 C   0  0  1  0  0  3  0  0  0  0  0  0
  192.1380  175.9460  146.6190 C   0  0  0  0  0  1  0  0  0  0  0  0
  191.5940  175.8180  145.2320 C   0  0  0  0  0  0  0  0  0  0  0  0
  192.1000  174.8710  144.4440 C   0  0  0  0  0  2  0  0  0  0  0  0
  190.1000  177.8130  145.6370 C   0  0  0  0  0  2  0  0  0  0  0  0
  188.7830  177.6330  146.3730 C   0  0  0  0  0  2  0  0  0  0  0  0
  189.0300  177.4190  147.8550 C   0  0  0  0  0  2  0  0  0  0  0  0
  187.9880  178.1540  148.6780 C   0  0  0  0  0  2  0  0  0  0  0  0
  186.8310  178.5510  147.7860 C   0  0  0  0  0  1  0  0  0  0  0  0
  188.0120  178.5380  140.7250 C   0  0  0  0  0  2  0  0  0  0  0  0
  188.2230  177.7160  139.6150 O   0  0  0  0  0  0  0  0  0  0  0  0
  187.3020  178.4450  137.4740 C   0  0  0  0  0  0  0  0  0  0  0  0
  188.2370  178.5580  138.5530 N   0  0  0  0  0  2  0  0  0  0  0  0
  187.4060  179.2260  136.4920 O   0  0  0  0  0  0  0  0  0  0  0  0
  186.7620  175.9760  136.9590 C   0  0  2  0  0  3  0  0  0  0  0  0
  185.9940  176.8830  136.0220 C   0  0  0  0  0  2  0  0  0  0  0  0
  186.2660  177.3510  137.4420 C   0  0  2  0  0  3  0  0  0  0  0  0
  188.2360  175.9090  136.5220 C   0  0  2  0  0  3  0  0  0  0  0  0
  188.3890  175.6730  135.0230 C   0  0  0  0  0  1  0  0  0  0  0  0
  189.0050  175.0110  137.2980 O   0  0  0  0  0  0  0  0  0  0  0  0
  190.3220  175.4930  137.3930 C   0  0  0  0  0  2  0  0  0  0  0  0
  191.5110  176.6680  138.8300 C   0  0  0  0  0  1  0  0  0  0  0  0
  190.7080  175.5320  138.7330 O   0  0  0  0  0  0  0  0  0  0  0  0
  1 24  1  6  0  0  0
  1 11  1  0  0  0  0
  1  2  1  0  0  0  0
  2  3  1  6  0  0  0
  4  2  1  0  0  0  0
  4  6  1  0  0  0  0
  6  5  1  1  0  0  0
  7  6  1  0  0  0  0
  7 10  1  0  0  0  0
  8  7  2  0  0  0  0
  9 10  1  0  0  0  0
 11 12  1  0  0  0  0
 12 14  2  6  0  0  0
 12 15  1  0  0  0  0
 13 12  1  0  0  0  0
 15 17  1  0  0  0  0
 15 19  1  1  0  0  0
 17 16  1  0  0  0  0
 18 17  2  0  0  0  0
 19 20  1  0  0  0  0
 20 21  1  0  0  0  0
 21 22  1  0  0  0  0
 23 22  1  0  0  0  0
 25 24  1  0  0  0  0
 26 27  1  0  0  0  0
 27 25  1  0  0  0  0
 28 26  2  0  0  0  0
 29 32  1  6  0  0  0
 29 31  1  0  0  0  0
 30 29  1  0  0  0  0
 30 31  1  0  0  0  0
 31 26  1  6  0  0  0
 32 33  1  6  0  0  0
 32 34  1  0  0  0  0
 34 35  1  0  0  0  0
 35 37  1  0  0  0  0
 37 36  1  0  0  0  0
M  END
>  <MODEL>
2

>  <REMARK>
 VINA RESULT:      -6.3      1.729      3.234
  Name = 
  21 active torsions:
  status: ('A' for Active; 'I' for Inactive)
    1  A    between atoms: C_1  and  O_17
    2  A    between atoms: C_1  and  C_26
    3  A    between atoms: C_2  and  C_19
    4  A    between atoms: C_2  and  C_35
    5  A    between atoms: C_3  and  C_32
    6  A    between atoms: P_4  and  O_10
    7  A    between atoms: P_4  and  C_13
    8  A    between atoms: C_5  and  O_17
    9  A    between atoms: C_5  and  O_23
   10  A    between atoms: C_6  and  C_31
   11  A    between atoms: C_6  and  C_35
   12  A    between atoms: C_7  and  C_14
   13  A    between atoms: C_7  and  O_27
   14  A    between atoms: O_10  and  C_14
   15  A    between atoms: C_11  and  C_36
   16  A    between atoms: C_13  and  C_16
   17  A    between atoms: C_13  and  C_20
   18  A    between atoms: C_14  and  C_31
   19  A    between atoms: C_20  and  C_25
   20  A    between atoms: C_25  and  C_32
   21  A    between atoms: O_27  and  N_33
                            x       y       z     vdW  Elec       q    Type
                         _______ _______ _______ _____ _____    ______ ____

>  <TORSDO>
F 21

$$$$
=
 OpenBabel10272415033D

 37 37  0  0  1  0  0  0  0  0999 V2000
  189.0050  177.2870  140.8940 C   0  0  2  0  0  3  0  0  0  0  0  0
  187.9450  178.0970  140.1420 C   0  0  2  0  0  3  0  0  0  0  0  0
  188.5580  179.0370  139.3110 O   0  0  0  0  0  1  0  0  0  0  0  0
  186.9700  178.7830  141.0960 C   0  0  0  0  0  2  0  0  0  0  0  0
  185.2660  179.6290  139.6400 O   0  0  0  0  0  1  0  0  0  0  0  0
  185.5360  178.6530  140.6020 C   0  0  2  0  0  3  0  0  0  0  0  0
  184.5760  178.7840  141.7420 C   0  0  0  0  0  0  0  0  0  0  0  0
  185.0080  179.2940  142.8940 C   0  0  0  0  0  2  0  0  0  0  0  0
  183.0950  177.2960  140.4270 C   0  0  0  0  0  1  0  0  0  0  0  0
  183.2200  178.1510  141.6730 C   0  0  0  0  0  2  0  0  0  0  0  0
  189.1870  177.7980  142.1850 O   0  0  0  0  0  0  0  0  0  0  0  0
  189.2070  176.4630  143.2400 P   0  0  2  0  0  0  0  0  0  0  0  0
  190.3270  175.3170  142.6940 O   0  0  0  0  0  0  0  0  0  0  0  0
  187.8350  175.8310  143.2300 O   0  0  0  0  0  1  0  0  0  0  0  0
  189.6070  176.9490  144.9620 C   0  0  1  0  0  3  0  0  0  0  0  0
  191.7980  178.2630  144.3390 C   0  0  0  0  0  1  0  0  0  0  0  0
  191.0790  177.2220  145.1380 C   0  0  0  0  0  0  0  0  0  0  0  0
  191.7350  176.6320  146.1340 C   0  0  0  0  0  2  0  0  0  0  0  0
  188.7310  178.1120  145.4100 C   0  0  0  0  0  2  0  0  0  0  0  0
  188.4670  178.0340  146.9040 C   0  0  0  0  0  2  0  0  0  0  0  0
  187.0500  177.5580  147.1680 C   0  0  0  0  0  2  0  0  0  0  0  0
  186.0950  178.7350  147.2170 C   0  0  0  0  0  2  0  0  0  0  0  0
  184.8690  178.4230  146.3840 C   0  0  0  0  0  1  0  0  0  0  0  0
  190.3330  177.2780  140.1430 C   0  0  0  0  0  2  0  0  0  0  0  0
  190.3940  176.1750  139.2870 O   0  0  0  0  0  0  0  0  0  0  0  0
  191.9110  176.3710  137.3840 C   0  0  0  0  0  0  0  0  0  0  0  0
  191.6510  176.1940  138.7810 N   0  0  0  0  0  2  0  0  0  0  0  0
  193.1000  176.3240  136.9730 O   0  0  0  0  0  0  0  0  0  0  0  0
  190.0870  175.2020  135.9840 C   0  0  2  0  0  3  0  0  0  0  0  0
  191.1230  175.8240  135.0740 C   0  0  0  0  0  2  0  0  0  0  0  0
  190.7900  176.5120  136.3860 C   0  0  2  0  0  3  0  0  0  0  0  0
  190.6530  173.9170  136.6100 C   0  0  2  0  0  3  0  0  0  0  0  0
  191.3620  173.0340  135.5880 C   0  0  0  0  0  1  0  0  0  0  0  0
  189.7010  173.2070  137.3790 O   0  0  0  0  0  0  0  0  0  0  0  0
  188.4250  173.3880  136.8170 C   0  0  0  0  0  2  0  0  0  0  0  0
  186.3400  172.9640  137.3910 C   0  0  0  0  0  1  0  0  0  0  0  0
  187.5840  172.3560  137.2310 O   0  0  0  0  0  0  0  0  0  0  0  0
  1 24  1  6  0  0  0
  1 11  1  0  0  0  0
  2  3  1  1  0  0  0
  2  1  1  0  0  0  0
  2  4  1  0  0  0  0
  6  5  1  6  0  0  0
  6  4  1  0  0  0  0
  6  7  1  0  0  0  0
  7  8  2  0  0  0  0
  9 10  1  0  0  0  0
 10  7  1  0  0  0  0
 11 12  1  0  0  0  0
 12 13  2  6  0  0  0
 12 15  1  0  0  0  0
 14 12  1  0  0  0  0
 15 17  1  0  0  0  0
 15 19  1  6  0  0  0
 16 17  1  0  0  0  0
 17 18  2  0  0  0  0
 19 20  1  0  0  0  0
 20 21  1  0  0  0  0
 21 22  1  0  0  0  0
 23 22  1  0  0  0  0
 25 24  1  0  0  0  0
 26 27  1  0  0  0  0
 27 25  1  0  0  0  0
 28 26  2  0  0  0  0
 29 31  1  0  0  0  0
 29 32  1  1  0  0  0
 30 29  1  0  0  0  0
 30 31  1  0  0  0  0
 31 26  1  1  0  0  0
 32 33  1  6  0  0  0
 32 34  1  0  0  0  0
 35 37  1  0  0  0  0
 35 34  1  0  0  0  0
 37 36  1  0  0  0  0
M  END
>  <MODEL>
3

>  <REMARK>
 VINA RESULT:      -6.3      1.439      2.234
  Name = 
  21 active torsions:
  status: ('A' for Active; 'I' for Inactive)
    1  A    between atoms: C_1  and  O_17
    2  A    between atoms: C_1  and  C_26
    3  A    between atoms: C_2  and  C_19
    4  A    between atoms: C_2  and  C_35
    5  A    between atoms: C_3  and  C_32
    6  A    between atoms: P_4  and  O_10
    7  A    between atoms: P_4  and  C_13
    8  A    between atoms: C_5  and  O_17
    9  A    between atoms: C_5  and  O_23
   10  A    between atoms: C_6  and  C_31
   11  A    between atoms: C_6  and  C_35
   12  A    between atoms: C_7  and  C_14
   13  A    between atoms: C_7  and  O_27
   14  A    between atoms: O_10  and  C_14
   15  A    between atoms: C_11  and  C_36
   16  A    between atoms: C_13  and  C_16
   17  A    between atoms: C_13  and  C_20
   18  A    between atoms: C_14  and  C_31
   19  A    between atoms: C_20  and  C_25
   20  A    between atoms: C_25  and  C_32
   21  A    between atoms: O_27  and  N_33
                            x       y       z     vdW  Elec       q    Type
                         _______ _______ _______ _____ _____    ______ ____

>  <TORSDO>
F 21

$$$$
=
 OpenBabel10272415033D

 37 37  0  0  1  0  0  0  0  0999 V2000
  186.3300  178.1930  142.5250 C   0  0  2  0  0  3  0  0  0  0  0  0
  185.4890  177.9750  143.7860 C   0  0  2  0  0  3  0  0  0  0  0  0
  184.1430  178.2290  143.5160 O   0  0  0  0  0  1  0  0  0  0  0  0
  185.9730  178.8370  144.9490 C   0  0  0  0  0  2  0  0  0  0  0  0
  185.1360  178.7080  147.1900 O   0  0  0  0  0  1  0  0  0  0  0  0
  185.9470  178.0580  146.2570 C   0  0  2  0  0  3  0  0  0  0  0  0
  187.3320  177.9080  146.8040 C   0  0  0  0  0  0  0  0  0  0  0  0
  188.2470  177.2700  146.0770 C   0  0  0  0  0  2  0  0  0  0  0  0
  189.1210  178.1740  148.4970 C   0  0  0  0  0  1  0  0  0  0  0  0
  187.6310  178.2640  148.2280 C   0  0  0  0  0  2  0  0  0  0  0  0
  187.6530  178.5030  142.8660 O   0  0  0  0  0  0  0  0  0  0  0  0
  188.6400  177.3610  142.0810 P   0  0  2  0  0  0  0  0  0  0  0  0
  188.1630  177.2050  140.4650 O   0  0  0  0  0  0  0  0  0  0  0  0
  188.4550  176.0250  142.7630 O   0  0  0  0  0  1  0  0  0  0  0  0
  190.4150  177.8110  142.1620 C   0  0  1  0  0  3  0  0  0  0  0  0
  191.4430  176.9540  144.4260 C   0  0  0  0  0  1  0  0  0  0  0  0
  190.8680  178.0460  143.5810 C   0  0  0  0  0  0  0  0  0  0  0  0
  190.9010  179.2900  144.0540 C   0  0  0  0  0  2  0  0  0  0  0  0
  191.2660  176.7780  141.4330 C   0  0  0  0  0  2  0  0  0  0  0  0
  191.6690  177.2940  140.0620 C   0  0  0  0  0  2  0  0  0  0  0  0
  190.9180  176.5490  138.9730 C   0  0  0  0  0  2  0  0  0  0  0  0
  191.8880  175.8120  138.0690 C   0  0  0  0  0  2  0  0  0  0  0  0
  193.2090  176.5500  138.0420 C   0  0  0  0  0  1  0  0  0  0  0  0
  185.7440  179.2970  141.6500 C   0  0  0  0  0  2  0  0  0  0  0  0
  185.6630  178.8680  140.3230 O   0  0  0  0  0  0  0  0  0  0  0  0
  183.4650  179.3950  139.3990 C   0  0  0  0  0  0  0  0  0  0  0  0
  184.8170  179.7400  139.7230 N   0  0  0  0  0  2  0  0  0  0  0  0
  182.7500  180.2340  138.7920 O   0  0  0  0  0  0  0  0  0  0  0  0
  183.2960  176.9310  138.6530 C   0  0  2  0  0  3  0  0  0  0  0  0
  181.9330  177.5850  138.6020 C   0  0  0  0  0  2  0  0  0  0  0  0
  182.9160  178.0180  139.6760 C   0  0  2  0  0  3  0  0  0  0  0  0
  184.1400  177.4000  137.4560 C   0  0  2  0  0  3  0  0  0  0  0  0
  183.4350  177.1760  136.1230 C   0  0  0  0  0  1  0  0  0  0  0  0
  185.4580  176.8860  137.4700 O   0  0  0  0  0  0  0  0  0  0  0  0
  186.3440  177.8710  137.0000 C   0  0  0  0  0  2  0  0  0  0  0  0
  187.5870  176.0550  137.1200 C   0  0  0  0  0  1  0  0  0  0  0  0
  187.4600  177.2600  136.4300 O   0  0  0  0  0  0  0  0  0  0  0  0
  1 24  1  1  0  0  0
  1 11  1  0  0  0  0
  1  2  1  0  0  0  0
  2  3  1  6  0  0  0
  2  4  1  0  0  0  0
  4  6  1  0  0  0  0
  6  7  1  0  0  0  0
  6  5  1  1  0  0  0
  7 10  1  0  0  0  0
  8  7  2  0  0  0  0
 10  9  1  0  0  0  0
 12 13  2  6  0  0  0
 12 15  1  0  0  0  0
 12 14  1  0  0  0  0
 12 11  1  0  0  0  0
 15 19  1  1  0  0  0
 15 17  1  0  0  0  0
 17 18  2  0  0  0  0
 17 16  1  0  0  0  0
 20 19  1  0  0  0  0
 21 20  1  0  0  0  0
 22 21  1  0  0  0  0
 23 22  1  0  0  0  0
 25 24  1  0  0  0  0
 26 27  1  0  0  0  0
 27 25  1  0  0  0  0
 28 26  2  0  0  0  0
 29 32  1  6  0  0  0
 29 31  1  0  0  0  0
 30 29  1  0  0  0  0
 30 31  1  0  0  0  0
 31 26  1  6  0  0  0
 32 33  1  6  0  0  0
 32 34  1  0  0  0  0
 35 34  1  0  0  0  0
 37 35  1  0  0  0  0
 37 36  1  0  0  0  0
M  END
>  <MODEL>
4

>  <REMARK>
 VINA RESULT:      -6.1      2.253      6.137
  Name = 
  21 active torsions:
  status: ('A' for Active; 'I' for Inactive)
    1  A    between atoms: C_1  and  O_17
    2  A    between atoms: C_1  and  C_26
    3  A    between atoms: C_2  and  C_19
    4  A    between atoms: C_2  and  C_35
    5  A    between atoms: C_3  and  C_32
    6  A    between atoms: P_4  and  O_10
    7  A    between atoms: P_4  and  C_13
    8  A    between atoms: C_5  and  O_17
    9  A    between atoms: C_5  and  O_23
   10  A    between atoms: C_6  and  C_31
   11  A    between atoms: C_6  and  C_35
   12  A    between atoms: C_7  and  C_14
   13  A    between atoms: C_7  and  O_27
   14  A    between atoms: O_10  and  C_14
   15  A    between atoms: C_11  and  C_36
   16  A    between atoms: C_13  and  C_16
   17  A    between atoms: C_13  and  C_20
   18  A    between atoms: C_14  and  C_31
   19  A    between atoms: C_20  and  C_25
   20  A    between atoms: C_25  and  C_32
   21  A    between atoms: O_27  and  N_33
                            x       y       z     vdW  Elec       q    Type
                         _______ _______ _______ _____ _____    ______ ____

>  <TORSDO>
F 21

$$$$
=
 OpenBabel10272415033D

 37 37  0  0  1  0  0  0  0  0999 V2000
  189.5670  177.3020  140.8150 C   0  0  2  0  0  3  0  0  0  0  0  0
  188.5870  178.1280  139.9760 C   0  0  2  0  0  3  0  0  0  0  0  0
  187.7300  178.8490  140.8090 O   0  0  0  0  0  1  0  0  0  0  0  0
  187.7870  177.2560  139.0120 C   0  0  0  0  0  2  0  0  0  0  0  0
  188.3020  179.1390  137.6250 O   0  0  0  0  0  1  0  0  0  0  0  0
  187.8010  177.8360  137.6050 C   0  0  2  0  0  3  0  0  0  0  0  0
  186.4230  177.8300  137.0230 C   0  0  0  0  0  0  0  0  0  0  0  0
  185.3960  178.1840  137.7920 C   0  0  0  0  0  2  0  0  0  0  0  0
  186.6720  178.1400  134.5770 C   0  0  0  0  0  1  0  0  0  0  0  0
  186.1680  177.2250  135.6760 C   0  0  0  0  0  2  0  0  0  0  0  0
  189.6220  177.7920  142.1260 O   0  0  0  0  0  0  0  0  0  0  0  0
  189.3960  176.4570  143.1560 P   0  0  2  0  0  0  0  0  0  0  0  0
  190.4890  175.2300  142.7520 O   0  0  0  0  0  0  0  0  0  0  0  0
  187.9940  175.9310  142.9500 O   0  0  0  0  0  1  0  0  0  0  0  0
  189.5910  176.9050  144.9220 C   0  0  1  0  0  3  0  0  0  0  0  0
  191.7900  176.3760  146.2640 C   0  0  0  0  0  1  0  0  0  0  0  0
  191.0300  177.1940  145.2690 C   0  0  0  0  0  0  0  0  0  0  0  0
  191.6970  178.1070  144.5660 C   0  0  0  0  0  2  0  0  0  0  0  0
  188.6510  178.0440  145.2960 C   0  0  0  0  0  2  0  0  0  0  0  0
  187.2680  177.5070  145.6220 C   0  0  0  0  0  2  0  0  0  0  0  0
  186.6390  178.3090  146.7460 C   0  0  0  0  0  2  0  0  0  0  0  0
  185.4840  179.1420  146.2230 C   0  0  0  0  0  2  0  0  0  0  0  0
  184.9820  178.5450  144.9250 C   0  0  0  0  0  1  0  0  0  0  0  0
  190.9630  177.3030  140.1990 C   0  0  0  0  0  2  0  0  0  0  0  0
  191.1410  176.1620  139.4120 O   0  0  0  0  0  0  0  0  0  0  0  0
  191.3690  175.7500  137.0160 C   0  0  0  0  0  0  0  0  0  0  0  0
  191.1320  176.6130  138.1340 N   0  0  0  0  0  2  0  0  0  0  0  0
  191.4010  176.2450  135.8590 O   0  0  0  0  0  0  0  0  0  0  0  0
  193.1700  173.9370  137.3660 C   0  0  2  0  0  3  0  0  0  0  0  0
  192.4790  173.7340  136.0350 C   0  0  0  0  0  2  0  0  0  0  0  0
  191.6800  174.2870  137.2030 C   0  0  2  0  0  3  0  0  0  0  0  0
  194.1520  175.1170  137.2650 C   0  0  2  0  0  3  0  0  0  0  0  0
  194.9910  175.0690  135.9920 C   0  0  0  0  0  1  0  0  0  0  0  0
  194.9350  175.2900  138.4300 O   0  0  0  0  0  0  0  0  0  0  0  0
  195.4060  174.0380  138.8610 C   0  0  0  0  0  2  0  0  0  0  0  0
  197.5500  174.5300  138.7140 C   0  0  0  0  0  1  0  0  0  0  0  0
  196.5520  174.2140  139.6360 O   0  0  0  0  0  0  0  0  0  0  0  0
  1 24  1  6  0  0  0
  1 11  1  0  0  0  0
  2  3  1  1  0  0  0
  2  1  1  0  0  0  0
  4  2  1  0  0  0  0
  6  5  1  1  0  0  0
  6  4  1  0  0  0  0
  7  6  1  0  0  0  0
  7  8  2  0  0  0  0
  9 10  1  0  0  0  0
 10  7  1  0  0  0  0
 11 12  1  0  0  0  0
 12 13  2  6  0  0  0
 12 15  1  0  0  0  0
 14 12  1  0  0  0  0
 15 17  1  0  0  0  0
 15 19  1  6  0  0  0
 17 16  1  0  0  0  0
 18 17  2  0  0  0  0
 19 20  1  0  0  0  0
 20 21  1  0  0  0  0
 22 21  1  0  0  0  0
 23 22  1  0  0  0  0
 25 24  1  0  0  0  0
 26 27  1  0  0  0  0
 27 25  1  0  0  0  0
 28 26  2  0  0  0  0
 29 32  1  6  0  0  0
 30 31  1  0  0  0  0
 30 29  1  0  0  0  0
 31 26  1  6  0  0  0
 31 29  1  0  0  0  0
 32 33  1  6  0  0  0
 32 34  1  0  0  0  0
 34 35  1  0  0  0  0
 35 37  1  0  0  0  0
 36 37  1  0  0  0  0
M  END
>  <MODEL>
5

>  <REMARK>
 VINA RESULT:      -6.0      2.474      4.771
  Name = 
  21 active torsions:
  status: ('A' for Active; 'I' for Inactive)
    1  A    between atoms: C_1  and  O_17
    2  A    between atoms: C_1  and  C_26
    3  A    between atoms: C_2  and  C_19
    4  A    between atoms: C_2  and  C_35
    5  A    between atoms: C_3  and  C_32
    6  A    between atoms: P_4  and  O_10
    7  A    between atoms: P_4  and  C_13
    8  A    between atoms: C_5  and  O_17
    9  A    between atoms: C_5  and  O_23
   10  A    between atoms: C_6  and  C_31
   11  A    between atoms: C_6  and  C_35
   12  A    between atoms: C_7  and  C_14
   13  A    between atoms: C_7  and  O_27
   14  A    between atoms: O_10  and  C_14
   15  A    between atoms: C_11  and  C_36
   16  A    between atoms: C_13  and  C_16
   17  A    between atoms: C_13  and  C_20
   18  A    between atoms: C_14  and  C_31
   19  A    between atoms: C_20  and  C_25
   20  A    between atoms: C_25  and  C_32
   21  A    between atoms: O_27  and  N_33
                            x       y       z     vdW  Elec       q    Type
                         _______ _______ _______ _____ _____    ______ ____

>  <TORSDO>
F 21

$$$$
=
 OpenBabel10272415033D

 37 37  0  0  1  0  0  0  0  0999 V2000
  187.6140  177.9910  141.2830 C   0  0  2  0  0  3  0  0  0  0  0  0
  186.1420  178.3360  141.0380 C   0  0  2  0  0  3  0  0  0  0  0  0
  186.0120  179.0870  139.8690 O   0  0  0  0  0  1  0  0  0  0  0  0
  185.5270  179.0790  142.2210 C   0  0  0  0  0  2  0  0  0  0  0  0
  183.1940  178.5890  141.9800 O   0  0  0  0  0  1  0  0  0  0  0  0
  184.3170  178.3340  142.7680 C   0  0  2  0  0  3  0  0  0  0  0  0
  184.0490  178.7400  144.1840 C   0  0  0  0  0  0  0  0  0  0  0  0
  182.7880  178.9140  144.5760 C   0  0  0  0  0  2  0  0  0  0  0  0
  185.0360  178.5130  146.4450 C   0  0  0  0  0  1  0  0  0  0  0  0
  185.1710  179.1630  145.0810 C   0  0  0  0  0  2  0  0  0  0  0  0
  188.0180  178.4410  142.5470 O   0  0  0  0  0  0  0  0  0  0  0  0
  188.4760  177.0620  143.4320 P   0  0  2  0  0  0  0  0  0  0  0  0
  188.7320  175.7630  142.3790 O   0  0  0  0  0  0  0  0  0  0  0  0
  187.3440  176.7020  144.3670 O   0  0  0  0  0  1  0  0  0  0  0  0
  189.9820  177.3530  144.4350 C   0  0  1  0  0  3  0  0  0  0  0  0
  191.6000  177.3820  142.3610 C   0  0  0  0  0  1  0  0  0  0  0  0
  191.0780  177.9950  143.6220 C   0  0  0  0  0  0  0  0  0  0  0  0
  191.4960  179.2170  143.9460 C   0  0  0  0  0  2  0  0  0  0  0  0
  189.6460  178.1350  145.6980 C   0  0  0  0  0  2  0  0  0  0  0  0
  190.0990  177.3730  146.9310 C   0  0  0  0  0  2  0  0  0  0  0  0
  188.9980  176.4480  147.4170 C   0  0  0  0  0  2  0  0  0  0  0  0
  187.9440  177.2300  148.1780 C   0  0  0  0  0  2  0  0  0  0  0  0
  188.6050  178.3750  148.9170 C   0  0  0  0  0  1  0  0  0  0  0  0
  188.5110  178.5900  140.2040 C   0  0  0  0  0  2  0  0  0  0  0  0
  188.5330  177.7580  139.0810 O   0  0  0  0  0  0  0  0  0  0  0  0
  190.3390  176.2950  138.3330 C   0  0  0  0  0  0  0  0  0  0  0  0
  189.4850  176.8320  139.3490 N   0  0  0  0  0  2  0  0  0  0  0  0
  191.1660  175.3970  138.6410 O   0  0  0  0  0  0  0  0  0  0  0  0
  189.1140  175.9640  136.0870 C   0  0  2  0  0  3  0  0  0  0  0  0
  190.5690  175.5730  135.9490 C   0  0  0  0  0  2  0  0  0  0  0  0
  190.1990  176.7070  136.8890 C   0  0  2  0  0  3  0  0  0  0  0  0
  188.3520  174.8640  136.8450 C   0  0  2  0  0  3  0  0  0  0  0  0
  188.3690  173.5290  136.1080 C   0  0  0  0  0  1  0  0  0  0  0  0
  187.0500  175.2570  137.2340 O   0  0  0  0  0  0  0  0  0  0  0  0
  186.5880  176.2570  136.3600 C   0  0  0  0  0  2  0  0  0  0  0  0
  184.7980  176.7770  135.1830 C   0  0  0  0  0  1  0  0  0  0  0  0
  185.6470  175.7130  135.4870 O   0  0  0  0  0  0  0  0  0  0  0  0
  1 24  1  6  0  0  0
  1 11  1  0  0  0  0
  2  3  1  6  0  0  0
  2  1  1  0  0  0  0
  2  4  1  0  0  0  0
  4  6  1  0  0  0  0
  6  5  1  6  0  0  0
  6  7  1  0  0  0  0
  7  8  2  0  0  0  0
  7 10  1  0  0  0  0
 10  9  1  0  0  0  0
 11 12  1  0  0  0  0
 12 13  2  6  0  0  0
 12 14  1  0  0  0  0
 12 15  1  0  0  0  0
 15 19  1  1  0  0  0
 16 17  1  0  0  0  0
 17 18  2  0  0  0  0
 17 15  1  0  0  0  0
 19 20  1  0  0  0  0
 20 21  1  0  0  0  0
 21 22  1  0  0  0  0
 22 23  1  0  0  0  0
 25 27  1  0  0  0  0
 25 24  1  0  0  0  0
 26 28  2  0  0  0  0
 26 27  1  0  0  0  0
 29 32  1  1  0  0  0
 29 31  1  0  0  0  0
 30 29  1  0  0  0  0
 30 31  1  0  0  0  0
 31 26  1  1  0  0  0
 32 33  1  6  0  0  0
 32 34  1  0  0  0  0
 35 34  1  0  0  0  0
 36 37  1  0  0  0  0
 37 35  1  0  0  0  0
M  END
>  <MODEL>
6

>  <REMARK>
 VINA RESULT:      -6.0      1.558      2.245
  Name = 
  21 active torsions:
  status: ('A' for Active; 'I' for Inactive)
    1  A    between atoms: C_1  and  O_17
    2  A    between atoms: C_1  and  C_26
    3  A    between atoms: C_2  and  C_19
    4  A    between atoms: C_2  and  C_35
    5  A    between atoms: C_3  and  C_32
    6  A    between atoms: P_4  and  O_10
    7  A    between atoms: P_4  and  C_13
    8  A    between atoms: C_5  and  O_17
    9  A    between atoms: C_5  and  O_23
   10  A    between atoms: C_6  and  C_31
   11  A    between atoms: C_6  and  C_35
   12  A    between atoms: C_7  and  C_14
   13  A    between atoms: C_7  and  O_27
   14  A    between atoms: O_10  and  C_14
   15  A    between atoms: C_11  and  C_36
   16  A    between atoms: C_13  and  C_16
   17  A    between atoms: C_13  and  C_20
   18  A    between atoms: C_14  and  C_31
   19  A    between atoms: C_20  and  C_25
   20  A    between atoms: C_25  and  C_32
   21  A    between atoms: O_27  and  N_33
                            x       y       z     vdW  Elec       q    Type
                         _______ _______ _______ _____ _____    ______ ____

>  <TORSDO>
F 21

$$$$
=
 OpenBabel10272415033D

 37 37  0  0  1  0  0  0  0  0999 V2000
  187.2240  177.9850  141.8860 C   0  0  2  0  0  3  0  0  0  0  0  0
  185.8320  178.4350  141.4340 C   0  0  2  0  0  3  0  0  0  0  0  0
  185.7910  179.8250  141.3140 O   0  0  0  0  0  1  0  0  0  0  0  0
  184.7400  177.9490  142.3830 C   0  0  0  0  0  2  0  0  0  0  0  0
  183.7740  179.2390  144.1560 O   0  0  0  0  0  1  0  0  0  0  0  0
  183.8020  179.0840  142.7680 C   0  0  2  0  0  3  0  0  0  0  0  0
  182.4210  178.8180  142.2590 C   0  0  0  0  0  0  0  0  0  0  0  0
  181.3890  178.9580  143.0890 C   0  0  0  0  0  2  0  0  0  0  0  0
  182.3430  179.2310  139.8170 C   0  0  0  0  0  1  0  0  0  0  0  0
  182.2120  178.1920  140.9140 C   0  0  0  0  0  2  0  0  0  0  0  0
  187.4930  178.4520  143.1790 O   0  0  0  0  0  0  0  0  0  0  0  0
  187.8430  177.0840  144.1290 P   0  0  2  0  0  0  0  0  0  0  0  0
  187.9830  175.7190  143.1390 O   0  0  0  0  0  0  0  0  0  0  0  0
  186.6930  176.8640  145.0840 O   0  0  0  0  0  1  0  0  0  0  0  0
  189.3770  177.2990  145.1100 C   0  0  1  0  0  3  0  0  0  0  0  0
  191.3680  176.5910  143.5440 C   0  0  0  0  0  1  0  0  0  0  0  0
  190.5560  177.6410  144.2350 C   0  0  0  0  0  0  0  0  0  0  0  0
  190.7990  178.9160  143.9420 C   0  0  0  0  0  2  0  0  0  0  0  0
  189.1620  178.3040  146.2340 C   0  0  0  0  0  2  0  0  0  0  0  0
  189.3280  177.6330  147.5860 C   0  0  0  0  0  2  0  0  0  0  0  0
  190.1490  176.3640  147.4510 C   0  0  0  0  0  2  0  0  0  0  0  0
  191.6210  176.6570  147.6740 C   0  0  0  0  0  2  0  0  0  0  0  0
  192.4480  175.4960  147.1610 C   0  0  0  0  0  1  0  0  0  0  0  0
  188.3040  178.4660  140.9220 C   0  0  0  0  0  2  0  0  0  0  0  0
  188.2150  177.7690  139.7140 O   0  0  0  0  0  0  0  0  0  0  0  0
  187.4590  178.4560  137.4960 C   0  0  0  0  0  0  0  0  0  0  0  0
  188.0610  178.7260  138.7670 N   0  0  0  0  0  2  0  0  0  0  0  0
  187.3960  179.3780  136.6420 O   0  0  0  0  0  0  0  0  0  0  0  0
  188.0160  176.2040  136.3690 C   0  0  2  0  0  3  0  0  0  0  0  0
  186.9020  176.9000  135.6180 C   0  0  0  0  0  2  0  0  0  0  0  0
  186.9920  177.0710  137.1250 C   0  0  2  0  0  3  0  0  0  0  0  0
  189.3590  176.8790  136.0440 C   0  0  2  0  0  3  0  0  0  0  0  0
  189.4940  177.2260  134.5650 C   0  0  0  0  0  1  0  0  0  0  0  0
  190.4740  176.1650  136.5420 O   0  0  0  0  0  0  0  0  0  0  0  0
  190.0270  175.1610  137.4180 C   0  0  0  0  0  2  0  0  0  0  0  0
  192.1650  174.6560  137.6020 C   0  0  0  0  0  1  0  0  0  0  0  0
  191.0190  174.8900  138.3610 O   0  0  0  0  0  0  0  0  0  0  0  0
  1 24  1  6  0  0  0
  1 11  1  0  0  0  0
  2  3  1  1  0  0  0
  2  1  1  0  0  0  0
  2  4  1  0  0  0  0
  4  6  1  0  0  0  0
  6  5  1  1  0  0  0
  7  6  1  0  0  0  0
  7  8  2  0  0  0  0
  9 10  1  0  0  0  0
 10  7  1  0  0  0  0
 11 12  1  0  0  0  0
 12 13  2  6  0  0  0
 12 14  1  0  0  0  0
 12 15  1  0  0  0  0
 15 19  1  1  0  0  0
 16 17  1  0  0  0  0
 17 15  1  0  0  0  0
 18 17  2  0  0  0  0
 19 20  1  0  0  0  0
 21 20  1  0  0  0  0
 21 22  1  0  0  0  0
 23 22  1  0  0  0  0
 25 24  1  0  0  0  0
 26 27  1  0  0  0  0
 27 25  1  0  0  0  0
 28 26  2  0  0  0  0
 29 32  1  6  0  0  0
 29 31  1  0  0  0  0
 30 29  1  0  0  0  0
 30 31  1  0  0  0  0
 31 26  1  6  0  0  0
 32 33  1  6  0  0  0
 32 34  1  0  0  0  0
 34 35  1  0  0  0  0
 35 37  1  0  0  0  0
 36 37  1  0  0  0  0
M  END
>  <MODEL>
7

>  <REMARK>
 VINA RESULT:      -6.0      1.758      3.406
  Name = 
  21 active torsions:
  status: ('A' for Active; 'I' for Inactive)
    1  A    between atoms: C_1  and  O_17
    2  A    between atoms: C_1  and  C_26
    3  A    between atoms: C_2  and  C_19
    4  A    between atoms: C_2  and  C_35
    5  A    between atoms: C_3  and  C_32
    6  A    between atoms: P_4  and  O_10
    7  A    between atoms: P_4  and  C_13
    8  A    between atoms: C_5  and  O_17
    9  A    between atoms: C_5  and  O_23
   10  A    between atoms: C_6  and  C_31
   11  A    between atoms: C_6  and  C_35
   12  A    between atoms: C_7  and  C_14
   13  A    between atoms: C_7  and  O_27
   14  A    between atoms: O_10  and  C_14
   15  A    between atoms: C_11  and  C_36
   16  A    between atoms: C_13  and  C_16
   17  A    between atoms: C_13  and  C_20
   18  A    between atoms: C_14  and  C_31
   19  A    between atoms: C_20  and  C_25
   20  A    between atoms: C_25  and  C_32
   21  A    between atoms: O_27  and  N_33
                            x       y       z     vdW  Elec       q    Type
                         _______ _______ _______ _____ _____    ______ ____

>  <TORSDO>
F 21

$$$$
=
 OpenBabel10272415033D

 37 37  0  0  1  0  0  0  0  0999 V2000
  187.7870  178.1380  142.1020 C   0  0  2  0  0  3  0  0  0  0  0  0
  188.3140  177.2390  143.2240 C   0  0  2  0  0  3  0  0  0  0  0  0
  187.3680  176.2600  143.5390 O   0  0  0  0  0  1  0  0  0  0  0  0
  188.6890  178.0390  144.4670 C   0  0  0  0  0  2  0  0  0  0  0  0
  190.8620  177.5150  143.6050 O   0  0  0  0  0  1  0  0  0  0  0  0
  190.1840  177.9590  144.7420 C   0  0  2  0  0  3  0  0  0  0  0  0
  190.4560  177.0350  145.8880 C   0  0  0  0  0  0  0  0  0  0  0  0
  189.5800  176.9750  146.8900 C   0  0  0  0  0  2  0  0  0  0  0  0
  191.9910  175.8680  147.4440 C   0  0  0  0  0  1  0  0  0  0  0  0
  191.7870  176.3610  146.0240 C   0  0  0  0  0  2  0  0  0  0  0  0
  186.5000  177.7410  141.7190 O   0  0  0  0  0  0  0  0  0  0  0  0
  185.5600  179.1560  141.6240 P   0  0  2  0  0  0  0  0  0  0  0  0
  185.2450  179.5270  140.0030 O   0  0  0  0  0  0  0  0  0  0  0  0
  186.3530  180.2930  142.2270 O   0  0  0  0  0  1  0  0  0  0  0  0
  183.9810  179.0000  142.5420 C   0  0  1  0  0  3  0  0  0  0  0  0
  183.1410  177.3390  140.6840 C   0  0  0  0  0  1  0  0  0  0  0  0
  182.8860  178.4280  141.6780 C   0  0  0  0  0  0  0  0  0  0  0  0
  181.6250  178.7900  141.9030 C   0  0  0  0  0  2  0  0  0  0  0  0
  184.1840  178.2200  143.8340 C   0  0  0  0  0  2  0  0  0  0  0  0
  184.8250  179.1010  144.8920 C   0  0  0  0  0  2  0  0  0  0  0  0
  184.6430  178.4920  146.2710 C   0  0  0  0  0  2  0  0  0  0  0  0
  185.9550  177.9230  146.7780 C   0  0  0  0  0  2  0  0  0  0  0  0
  186.6810  178.9770  147.5870 C   0  0  0  0  0  1  0  0  0  0  0  0
  188.7200  178.1230  140.8940 C   0  0  0  0  0  2  0  0  0  0  0  0
  188.0890  177.5100  139.8080 O   0  0  0  0  0  0  0  0  0  0  0  0
  187.3610  178.3500  137.6340 C   0  0  0  0  0  0  0  0  0  0  0  0
  188.2070  178.3950  138.7890 N   0  0  0  0  0  2  0  0  0  0  0  0
  187.5600  179.1690  136.6990 O   0  0  0  0  0  0  0  0  0  0  0  0
  186.7980  175.9470  136.8850 C   0  0  2  0  0  3  0  0  0  0  0  0
  186.0780  176.9480  136.0080 C   0  0  0  0  0  2  0  0  0  0  0  0
  186.3070  177.2840  137.4710 C   0  0  2  0  0  3  0  0  0  0  0  0
  188.2840  175.8900  136.4930 C   0  0  2  0  0  3  0  0  0  0  0  0
  188.4840  175.6440  135.0010 C   0  0  0  0  0  1  0  0  0  0  0  0
  189.0370  175.0050  137.2990 O   0  0  0  0  0  0  0  0  0  0  0  0
  190.3520  175.4900  137.4140 C   0  0  0  0  0  2  0  0  0  0  0  0
  191.5340  176.6810  138.8430 C   0  0  0  0  0  1  0  0  0  0  0  0
  190.7040  175.5630  138.7620 O   0  0  0  0  0  0  0  0  0  0  0  0
  1 24  1  6  0  0  0
  1  2  1  0  0  0  0
  2  3  1  1  0  0  0
  2  4  1  0  0  0  0
  4  6  1  0  0  0  0
  6  5  1  6  0  0  0
  6  7  1  0  0  0  0
  7 10  1  0  0  0  0
  7  8  2  0  0  0  0
 10  9  1  0  0  0  0
 11  1  1  0  0  0  0
 12 13  2  6  0  0  0
 12 11  1  0  0  0  0
 12 14  1  0  0  0  0
 12 15  1  0  0  0  0
 15 19  1  1  0  0  0
 16 17  1  0  0  0  0
 17 18  2  0  0  0  0
 17 15  1  0  0  0  0
 19 20  1  0  0  0  0
 20 21  1  0  0  0  0
 21 22  1  0  0  0  0
 22 23  1  0  0  0  0
 25 24  1  0  0  0  0
 26 27  1  0  0  0  0
 27 25  1  0  0  0  0
 28 26  2  0  0  0  0
 29 32  1  6  0  0  0
 29 31  1  0  0  0  0
 30 29  1  0  0  0  0
 30 31  1  0  0  0  0
 31 26  1  6  0  0  0
 32 33  1  6  0  0  0
 32 34  1  0  0  0  0
 34 35  1  0  0  0  0
 35 37  1  0  0  0  0
 37 36  1  0  0  0  0
M  END
>  <MODEL>
8

>  <REMARK>
 VINA RESULT:      -5.9      1.809      5.681
  Name = 
  21 active torsions:
  status: ('A' for Active; 'I' for Inactive)
    1  A    between atoms: C_1  and  O_17
    2  A    between atoms: C_1  and  C_26
    3  A    between atoms: C_2  and  C_19
    4  A    between atoms: C_2  and  C_35
    5  A    between atoms: C_3  and  C_32
    6  A    between atoms: P_4  and  O_10
    7  A    between atoms: P_4  and  C_13
    8  A    between atoms: C_5  and  O_17
    9  A    between atoms: C_5  and  O_23
   10  A    between atoms: C_6  and  C_31
   11  A    between atoms: C_6  and  C_35
   12  A    between atoms: C_7  and  C_14
   13  A    between atoms: C_7  and  O_27
   14  A    between atoms: O_10  and  C_14
   15  A    between atoms: C_11  and  C_36
   16  A    between atoms: C_13  and  C_16
   17  A    between atoms: C_13  and  C_20
   18  A    between atoms: C_14  and  C_31
   19  A    between atoms: C_20  and  C_25
   20  A    between atoms: C_25  and  C_32
   21  A    between atoms: O_27  and  N_33
                            x       y       z     vdW  Elec       q    Type
                         _______ _______ _______ _____ _____    ______ ____

>  <TORSDO>
F 21

$$$$
=
 OpenBabel10272415033D

 37 37  0  0  1  0  0  0  0  0999 V2000
  186.9500  178.6550  139.9390 C   0  0  2  0  0  3  0  0  0  0  0  0
  185.4920  178.8140  140.3770 C   0  0  2  0  0  3  0  0  0  0  0  0
  184.8580  179.7830  139.5980 O   0  0  0  0  0  1  0  0  0  0  0  0
  185.3770  179.1600  141.8590 C   0  0  0  0  0  2  0  0  0  0  0  0
  183.4560  177.7330  141.7330 O   0  0  0  0  0  1  0  0  0  0  0  0
  184.4710  178.1750  142.5850 C   0  0  2  0  0  3  0  0  0  0  0  0
  183.8730  178.8110  143.8000 C   0  0  0  0  0  0  0  0  0  0  0  0
  182.5590  179.0250  143.8360 C   0  0  0  0  0  2  0  0  0  0  0  0
  184.9020  178.4420  146.0230 C   0  0  0  0  0  1  0  0  0  0  0  0
  184.7500  179.4030  144.8600 C   0  0  0  0  0  2  0  0  0  0  0  0
  187.0770  177.5930  139.0350 O   0  0  0  0  0  0  0  0  0  0  0  0
  187.7600  178.2380  137.6160 P   0  0  2  0  0  0  0  0  0  0  0  0
  189.1290  179.1550  138.0040 O   0  0  0  0  0  1  0  0  0  0  0  0
  186.7420  179.1510  136.9730 O   0  0  0  0  0  0  0  0  0  0  0  0
  188.2100  176.9330  136.4110 C   0  0  1  0  0  3  0  0  0  0  0  0
  190.1040  175.7780  137.8240 C   0  0  0  0  0  1  0  0  0  0  0  0
  189.6370  176.4780  136.5860 C   0  0  0  0  0  0  0  0  0  0  0  0
  190.4760  176.5600  135.5570 C   0  0  0  0  0  2  0  0  0  0  0  0
  187.2110  175.7830  136.4620 C   0  0  0  0  0  2  0  0  0  0  0  0
  186.1850  175.9210  135.3510 C   0  0  0  0  0  2  0  0  0  0  0  0
  184.7910  175.6310  135.8780 C   0  0  0  0  0  2  0  0  0  0  0  0
  183.9820  176.9110  135.9690 C   0  0  0  0  0  2  0  0  0  0  0  0
  183.7940  177.2840  137.4250 C   0  0  0  0  0  1  0  0  0  0  0  0
  187.8690  178.4340  141.1370 C   0  0  0  0  0  2  0  0  0  0  0  0
  188.5370  177.2130  141.0110 O   0  0  0  0  0  0  0  0  0  0  0  0
  190.8930  176.9150  141.5790 C   0  0  0  0  0  0  0  0  0  0  0  0
  189.8400  177.5420  140.8380 N   0  0  0  0  0  2  0  0  0  0  0  0
  192.0770  177.3070  141.4080 O   0  0  0  0  0  0  0  0  0  0  0  0
  190.1730  176.4070  144.0020 C   0  0  2  0  0  3  0  0  0  0  0  0
  191.5950  175.9440  143.7750 C   0  0  0  0  0  2  0  0  0  0  0  0
  190.6040  175.8690  142.6260 C   0  0  2  0  0  3  0  0  0  0  0  0
  190.1430  177.9380  144.1470 C   0  0  2  0  0  3  0  0  0  0  0  0
  191.4340  178.4920  144.7400 C   0  0  0  0  0  1  0  0  0  0  0  0
  188.9880  178.4110  144.8130 O   0  0  0  0  0  0  0  0  0  0  0  0
  188.4820  177.3940  145.6400 C   0  0  0  0  0  2  0  0  0  0  0  0
  189.3330  177.3350  147.6730 C   0  0  0  0  0  1  0  0  0  0  0  0
  188.2940  177.8920  146.9290 O   0  0  0  0  0  0  0  0  0  0  0  0
  1  2  1  0  0  0  0
  1 24  1  1  0  0  0
  2  3  1  6  0  0  0
  2  4  1  0  0  0  0
  4  6  1  0  0  0  0
  6  5  1  6  0  0  0
  6  7  1  0  0  0  0
  7  8  2  0  0  0  0
  7 10  1  0  0  0  0
 10  9  1  0  0  0  0
 11  1  1  0  0  0  0
 12 14  2  6  0  0  0
 12 13  1  0  0  0  0
 12 11  1  0  0  0  0
 15 19  1  1  0  0  0
 15 17  1  0  0  0  0
 15 12  1  0  0  0  0
 17 16  1  0  0  0  0
 18 17  2  0  0  0  0
 20 21  1  0  0  0  0
 20 19  1  0  0  0  0
 21 22  1  0  0  0  0
 22 23  1  0  0  0  0
 25 24  1  0  0  0  0
 27 25  1  0  0  0  0
 27 26  1  0  0  0  0
 28 26  2  0  0  0  0
 29 32  1  6  0  0  0
 30 29  1  0  0  0  0
 31 26  1  6  0  0  0
 31 30  1  0  0  0  0
 31 29  1  0  0  0  0
 32 33  1  1  0  0  0
 32 34  1  0  0  0  0
 34 35  1  0  0  0  0
 35 37  1  0  0  0  0
 37 36  1  0  0  0  0
M  END
>  <MODEL>
9

>  <REMARK>
 VINA RESULT:      -5.8      2.122      7.500
  Name = 
  21 active torsions:
  status: ('A' for Active; 'I' for Inactive)
    1  A    between atoms: C_1  and  O_17
    2  A    between atoms: C_1  and  C_26
    3  A    between atoms: C_2  and  C_19
    4  A    between atoms: C_2  and  C_35
    5  A    between atoms: C_3  and  C_32
    6  A    between atoms: P_4  and  O_10
    7  A    between atoms: P_4  and  C_13
    8  A    between atoms: C_5  and  O_17
    9  A    between atoms: C_5  and  O_23
   10  A    between atoms: C_6  and  C_31
   11  A    between atoms: C_6  and  C_35
   12  A    between atoms: C_7  and  C_14
   13  A    between atoms: C_7  and  O_27
   14  A    between atoms: O_10  and  C_14
   15  A    between atoms: C_11  and  C_36
   16  A    between atoms: C_13  and  C_16
   17  A    between atoms: C_13  and  C_20
   18  A    between atoms: C_14  and  C_31
   19  A    between atoms: C_20  and  C_25
   20  A    between atoms: C_25  and  C_32
   21  A    between atoms: O_27  and  N_33
                            x       y       z     vdW  Elec       q    Type
                         _______ _______ _______ _____ _____    ______ ____

>  <TORSDO>
F 21

$$$$
