=
 OpenBabel10272402023D

 28 29  0  0  1  0  0  0  0  0999 V2000
  189.3770  176.5770  146.4150 C   0  0  0  0  0  3  0  0  0  0  0  0
  191.0850  175.5380  144.3260 O   0  0  0  0  0  1  0  0  0  0  0  0
  191.7240  176.7670  144.5220 C   0  0  1  0  0  3  0  0  0  0  0  0
  186.0330  178.2500  146.5130 O   0  0  0  0  0  1  0  0  0  0  0  0
  192.2470  176.2710  146.8240 O   0  0  0  0  0  1  0  0  0  0  0  0
  190.6750  177.2670  142.2020 C   0  0  0  0  0  2  0  0  0  0  0  0
  189.1470  177.3620  142.1800 C   0  0  2  0  0  3  0  0  0  0  0  0
  191.3220  177.8340  143.4770 C   0  0  1  0  0  3  0  0  0  0  0  0
  187.6340  178.2900  144.7280 C   0  0  0  0  0  2  0  0  0  0  0  0
  188.5140  176.3540  143.1450 C   0  0  0  0  0  2  0  0  0  0  0  0
  187.9240  176.9600  148.2430 O   0  0  0  0  0  1  0  0  0  0  0  0
  186.8980  176.9260  143.7700 S   0  0  0  0  0  0  0  0  0  0  0  0
  187.3970  178.1530  146.2340 C   0  0  2  0  0  3  0  0  0  0  0  0
  187.9720  176.8720  146.8510 C   0  0  1  0  0  3  0  0  0  0  0  0
  190.2900  177.4830  146.4300 N   0  0  0  0  0  0  0  0  0  0  0  0
  191.6460  177.2180  145.9910 C   0  0  2  0  0  3  0  0  0  0  0  0
  187.6900  178.6620  139.1140 O   0  0  0  0  0  0  0  0  0  0  0  0
  189.7090  177.5620  139.7240 C   0  0  1  0  0  3  0  0  0  0  0  0
  189.0840  178.7450  138.9810 C   0  0  1  0  0  3  0  0  0  0  0  0
  188.6510  177.2180  140.7350 C   0  0  2  0  0  3  0  0  0  0  0  0
  187.4860  178.1380  140.4010 C   0  0  0  0  0  2  0  0  0  0  0  0
  190.0580  176.3140  138.8920 C   0  0  0  0  0  3  0  0  0  0  0  0
  191.4090  176.4570  138.2180 C   0  0  0  0  0  1  0  0  0  0  0  0
  188.9890  175.9270  137.8790 C   0  0  0  0  0  1  0  0  0  0  0  0
  188.2540  179.0730  136.8180 C   0  0  0  0  0  1  0  0  0  0  0  0
  189.4640  178.8130  137.5760 N   0  0  0  0  0  2  0  0  0  0  0  0
  191.4830  179.9650  144.0700 C   0  0  0  0  0  1  0  0  0  0  0  0
  190.5860  178.8980  144.0150 O   0  0  0  0  0  0  0  0  0  0  0  0
  1 15  2  0  0  0  0
  1 14  1  0  0  0  0
  3  2  1  1  0  0  0
  3 16  1  0  0  0  0
  6  8  1  0  0  0  0
  7  6  1  6  0  0  0
  7 10  1  0  0  0  0
  8 28  1  1  0  0  0
  8  3  1  0  0  0  0
  9 13  1  0  0  0  0
 10 12  1  0  0  0  0
 12  9  1  0  0  0  0
 13  4  1  6  0  0  0
 13 14  1  0  0  0  0
 14 11  1  1  0  0  0
 16 15  1  0  0  0  0
 16  5  1  1  0  0  0
 17 21  1  0  0  0  0
 18 22  1  6  0  0  0
 18 20  1  0  0  0  0
 19 26  1  6  0  0  0
 19 17  1  0  0  0  0
 19 18  1  0  0  0  0
 20 21  1  1  0  0  0
 20  7  1  0  0  0  0
 23 22  1  0  0  0  0
 24 22  1  0  0  0  0
 25 26  1  0  0  0  0
 28 27  1  0  0  0  0
M  END
>  <MODEL>
1

>  <REMARK>
 VINA RESULT:      -6.5      0.000      0.000
  Name = 
  4 active torsions:
  status: ('A' for Active; 'I' for Inactive)
    1  A    between atoms: C_9  and  C_14
    2  A    between atoms: C_10  and  C_13
    3  A    between atoms: C_11  and  O_22
    4  A    between atoms: C_12  and  N_23
                            x       y       z     vdW  Elec       q    Type
                         _______ _______ _______ _____ _____    ______ ____

>  <TORSDO>
F 4

$$$$
=
 OpenBabel10272402023D

 28 29  0  0  1  0  0  0  0  0999 V2000
  192.3020  173.2480  136.0150 C   0  0  0  0  0  3  0  0  0  0  0  0
  189.7480  173.3570  137.3680 O   0  0  0  0  0  1  0  0  0  0  0  0
  189.3350  173.8120  136.1120 C   0  0  1  0  0  3  0  0  0  0  0  0
  195.3170  175.4570  135.8710 O   0  0  0  0  0  1  0  0  0  0  0  0
  189.9970  171.7700  135.0130 O   0  0  0  0  0  1  0  0  0  0  0  0
  189.1200  176.0540  137.4010 C   0  0  0  0  0  2  0  0  0  0  0  0
  190.4410  176.6660  137.8770 C   0  0  2  0  0  3  0  0  0  0  0  0
  189.2080  175.3520  136.0360 C   0  0  1  0  0  3  0  0  0  0  0  0
  193.0470  176.1100  136.2810 C   0  0  0  0  0  2  0  0  0  0  0  0
  191.4300  175.5810  138.3150 C   0  0  0  0  0  2  0  0  0  0  0  0
  194.4790  172.7930  135.2110 O   0  0  0  0  0  1  0  0  0  0  0  0
  193.1640  176.1070  138.0990 S   0  0  0  0  0  0  0  0  0  0  0  0
  193.9900  175.1010  135.6240 C   0  0  2  0  0  3  0  0  0  0  0  0
  193.7480  173.6450  136.0390 C   0  0  1  0  0  3  0  0  0  0  0  0
  191.5480  173.5160  135.0070 N   0  0  0  0  0  0  0  0  0  0  0  0
  190.1440  173.1590  134.9770 C   0  0  2  0  0  3  0  0  0  0  0  0
  188.3140  179.0820  139.5640 O   0  0  0  0  0  0  0  0  0  0  0  0
  189.4930  177.1080  140.1770 C   0  0  1  0  0  3  0  0  0  0  0  0
  188.1570  177.8550  140.2270 C   0  0  1  0  0  3  0  0  0  0  0  0
  190.1540  177.7070  138.9670 C   0  0  2  0  0  3  0  0  0  0  0  0
  189.2070  178.8100  138.5160 C   0  0  0  0  0  2  0  0  0  0  0  0
  190.4210  177.2470  141.3970 C   0  0  0  0  0  3  0  0  0  0  0  0
  191.8380  177.5900  140.9800 C   0  0  0  0  0  1  0  0  0  0  0  0
  190.4100  176.0400  142.3240 C   0  0  0  0  0  1  0  0  0  0  0  0
  186.4510  178.8600  141.4730 C   0  0  0  0  0  1  0  0  0  0  0  0
  187.6570  178.0590  141.5790 N   0  0  0  0  0  2  0  0  0  0  0  0
  189.4100  176.8030  134.3710 C   0  0  0  0  0  1  0  0  0  0  0  0
  190.1520  175.9530  135.1920 O   0  0  0  0  0  0  0  0  0  0  0  0
  1 14  1  0  0  0  0
  3  2  1  1  0  0  0
  7  6  1  1  0  0  0
  7 10  1  0  0  0  0
  7 20  1  0  0  0  0
  8 28  1  1  0  0  0
  8  3  1  0  0  0  0
  8  6  1  0  0  0  0
  9 12  1  0  0  0  0
 12 10  1  0  0  0  0
 13  4  1  1  0  0  0
 13 14  1  0  0  0  0
 13  9  1  0  0  0  0
 14 11  1  6  0  0  0
 15  1  2  0  0  0  0
 16 15  1  0  0  0  0
 16  5  1  1  0  0  0
 16  3  1  0  0  0  0
 17 19  1  0  0  0  0
 18 19  1  0  0  0  0
 18 22  1  1  0  0  0
 19 26  1  1  0  0  0
 20 21  1  6  0  0  0
 20 18  1  0  0  0  0
 21 17  1  0  0  0  0
 22 24  1  0  0  0  0
 23 22  1  0  0  0  0
 25 26  1  0  0  0  0
 27 28  1  0  0  0  0
M  END
>  <MODEL>
2

>  <REMARK>
 VINA RESULT:      -6.3      4.431      8.666
  Name = 
  4 active torsions:
  status: ('A' for Active; 'I' for Inactive)
    1  A    between atoms: C_9  and  C_14
    2  A    between atoms: C_10  and  C_13
    3  A    between atoms: C_11  and  O_22
    4  A    between atoms: C_12  and  N_23
                            x       y       z     vdW  Elec       q    Type
                         _______ _______ _______ _____ _____    ______ ____

>  <TORSDO>
F 4

$$$$
=
 OpenBabel10272402023D

 28 29  0  0  1  0  0  0  0  0999 V2000
  187.5960  177.1740  143.6910 C   0  0  0  0  0  3  0  0  0  0  0  0
  189.9980  175.6000  143.3550 O   0  0  0  0  0  1  0  0  0  0  0  0
  190.5610  176.6920  144.0220 C   0  0  1  0  0  3  0  0  0  0  0  0
  185.6120  179.4730  141.5080 O   0  0  0  0  0  1  0  0  0  0  0  0
  189.1990  176.3550  145.9840 O   0  0  0  0  0  1  0  0  0  0  0  0
  191.5780  177.1360  141.6770 C   0  0  0  0  0  2  0  0  0  0  0  0
  190.5730  177.5260  140.5890 C   0  0  2  0  0  3  0  0  0  0  0  0
  191.2480  177.6990  143.0700 C   0  0  1  0  0  3  0  0  0  0  0  0
  187.9590  179.0040  141.3810 C   0  0  0  0  0  2  0  0  0  0  0  0
  189.2500  176.7730  140.7590 C   0  0  0  0  0  2  0  0  0  0  0  0
  185.4100  178.0310  143.9810 O   0  0  0  0  0  1  0  0  0  0  0  0
  187.8350  177.7160  140.0980 S   0  0  0  0  0  0  0  0  0  0  0  0
  186.7150  179.0800  142.2670 C   0  0  2  0  0  3  0  0  0  0  0  0
  186.3990  177.7860  143.0270 C   0  0  1  0  0  3  0  0  0  0  0  0
  188.4030  177.8780  144.4040 N   0  0  0  0  0  0  0  0  0  0  0  0
  189.5760  177.3070  145.0340 C   0  0  2  0  0  3  0  0  0  0  0  0
  193.1500  176.2320  138.3760 O   0  0  0  0  0  0  0  0  0  0  0  0
  190.7840  176.0470  138.5500 C   0  0  1  0  0  3  0  0  0  0  0  0
  192.1070  175.2930  138.3950 C   0  0  1  0  0  3  0  0  0  0  0  0
  191.2170  177.3270  139.2100 C   0  0  2  0  0  3  0  0  0  0  0  0
  192.7350  177.2430  139.2570 C   0  0  0  0  0  2  0  0  0  0  0  0
  190.0020  176.3650  137.2640 C   0  0  0  0  0  3  0  0  0  0  0  0
  189.7460  177.8540  137.1240 C   0  0  0  0  0  1  0  0  0  0  0  0
  188.7060  175.5810  137.1170 C   0  0  0  0  0  1  0  0  0  0  0  0
  193.4920  173.8820  137.1440 C   0  0  0  0  0  1  0  0  0  0  0  0
  192.1560  174.4450  137.2120 N   0  0  0  0  0  2  0  0  0  0  0  0
  191.3090  179.7660  143.8690 C   0  0  0  0  0  1  0  0  0  0  0  0
  190.6000  178.9380  142.9980 O   0  0  0  0  0  0  0  0  0  0  0  0
  1 15  2  0  0  0  0
  3  2  1  6  0  0  0
  3 16  1  0  0  0  0
  6  8  1  0  0  0  0
  7 10  1  6  0  0  0
  7  6  1  0  0  0  0
  8 28  1  6  0  0  0
  8  3  1  0  0  0  0
  9 13  1  0  0  0  0
 12 10  1  0  0  0  0
 12  9  1  0  0  0  0
 13  4  1  6  0  0  0
 13 14  1  0  0  0  0
 14  1  1  0  0  0  0
 14 11  1  1  0  0  0
 15 16  1  0  0  0  0
 16  5  1  1  0  0  0
 17 19  1  0  0  0  0
 17 21  1  0  0  0  0
 18 22  1  6  0  0  0
 18 20  1  0  0  0  0
 19 26  1  6  0  0  0
 19 18  1  0  0  0  0
 20 21  1  1  0  0  0
 20  7  1  0  0  0  0
 23 22  1  0  0  0  0
 24 22  1  0  0  0  0
 25 26  1  0  0  0  0
 28 27  1  0  0  0  0
M  END
>  <MODEL>
3

>  <REMARK>
 VINA RESULT:      -6.1      2.392      3.569
  Name = 
  4 active torsions:
  status: ('A' for Active; 'I' for Inactive)
    1  A    between atoms: C_9  and  C_14
    2  A    between atoms: C_10  and  C_13
    3  A    between atoms: C_11  and  O_22
    4  A    between atoms: C_12  and  N_23
                            x       y       z     vdW  Elec       q    Type
                         _______ _______ _______ _____ _____    ______ ____

>  <TORSDO>
F 4

$$$$
=
 OpenBabel10272402023D

 28 29  0  0  1  0  0  0  0  0999 V2000
  190.6050  175.2770  137.2970 C   0  0  0  0  0  3  0  0  0  0  0  0
  187.8290  175.5190  138.0690 O   0  0  0  0  0  1  0  0  0  0  0  0
  187.8780  176.5700  137.1480 C   0  0  1  0  0  3  0  0  0  0  0  0
  193.8670  176.3590  138.7720 O   0  0  0  0  0  1  0  0  0  0  0  0
  188.4670  175.1090  135.3220 O   0  0  0  0  0  1  0  0  0  0  0  0
  187.6910  177.9910  139.3120 C   0  0  0  0  0  2  0  0  0  0  0  0
  188.9040  177.9290  140.2440 C   0  0  2  0  0  3  0  0  0  0  0  0
  188.0450  177.9560  137.8150 C   0  0  1  0  0  3  0  0  0  0  0  0
  191.7220  177.3940  139.0530 C   0  0  0  0  0  2  0  0  0  0  0  0
  189.5240  176.5270  140.2560 C   0  0  0  0  0  2  0  0  0  0  0  0
  192.8090  174.6080  136.7590 O   0  0  0  0  0  1  0  0  0  0  0  0
  191.3100  176.5720  140.6260 S   0  0  0  0  0  0  0  0  0  0  0  0
  192.6270  176.5440  138.1590 C   0  0  2  0  0  3  0  0  0  0  0  0
  192.0290  175.1890  137.7590 C   0  0  1  0  0  3  0  0  0  0  0  0
  190.2300  176.1580  136.4370 N   0  0  0  0  0  0  0  0  0  0  0  0
  188.8540  176.2690  135.9970 C   0  0  2  0  0  3  0  0  0  0  0  0
  186.4920  178.5060  142.9000 O   0  0  0  0  0  0  0  0  0  0  0  0
  188.5590  177.3490  142.6790 C   0  0  1  0  0  3  0  0  0  0  0  0
  187.1070  177.2710  143.1570 C   0  0  1  0  0  3  0  0  0  0  0  0
  188.4990  178.4300  141.6370 C   0  0  2  0  0  3  0  0  0  0  0  0
  187.0710  178.9500  141.7010 C   0  0  0  0  0  2  0  0  0  0  0  0
  189.6260  177.7000  143.7310 C   0  0  0  0  0  3  0  0  0  0  0  0
  190.4300  178.9190  143.3190 C   0  0  0  0  0  1  0  0  0  0  0  0
  190.5490  176.5430  144.0870 C   0  0  0  0  0  1  0  0  0  0  0  0
  186.2900  178.0100  145.2220 C   0  0  0  0  0  1  0  0  0  0  0  0
  186.9770  176.9140  144.5630 N   0  0  0  0  0  2  0  0  0  0  0  0
  188.9820  179.9100  137.3460 C   0  0  0  0  0  1  0  0  0  0  0  0
  189.2800  178.5620  137.5500 O   0  0  0  0  0  0  0  0  0  0  0  0
  1 14  1  0  0  0  0
  3  8  1  0  0  0  0
  3  2  1  1  0  0  0
  7  6  1  6  0  0  0
  7 10  1  0  0  0  0
  7 20  1  0  0  0  0
  8 28  1  1  0  0  0
  8  6  1  0  0  0  0
  9 12  1  0  0  0  0
 10 12  1  0  0  0  0
 13  4  1  1  0  0  0
 13  9  1  0  0  0  0
 14 11  1  6  0  0  0
 14 13  1  0  0  0  0
 15  1  2  0  0  0  0
 16  5  1  1  0  0  0
 16 15  1  0  0  0  0
 16  3  1  0  0  0  0
 17 19  1  0  0  0  0
 18 19  1  0  0  0  0
 18 22  1  1  0  0  0
 19 26  1  1  0  0  0
 20 21  1  6  0  0  0
 20 18  1  0  0  0  0
 21 17  1  0  0  0  0
 22 24  1  0  0  0  0
 23 22  1  0  0  0  0
 26 25  1  0  0  0  0
 27 28  1  0  0  0  0
M  END
>  <MODEL>
4

>  <REMARK>
 VINA RESULT:      -5.9      3.023      7.520
  Name = 
  4 active torsions:
  status: ('A' for Active; 'I' for Inactive)
    1  A    between atoms: C_9  and  C_14
    2  A    between atoms: C_10  and  C_13
    3  A    between atoms: C_11  and  O_22
    4  A    between atoms: C_12  and  N_23
                            x       y       z     vdW  Elec       q    Type
                         _______ _______ _______ _____ _____    ______ ____

>  <TORSDO>
F 4

$$$$
=
 OpenBabel10272402023D

 28 29  0  0  1  0  0  0  0  0999 V2000
  189.4490  177.6780  137.2000 C   0  0  0  0  0  3  0  0  0  0  0  0
  190.3640  176.7770  134.6090 O   0  0  0  0  0  1  0  0  0  0  0  0
  189.4550  175.7480  134.8750 C   0  0  1  0  0  3  0  0  0  0  0  0
  190.7710  177.4710  140.6930 O   0  0  0  0  0  1  0  0  0  0  0  0
  187.5830  177.2640  134.9990 O   0  0  0  0  0  1  0  0  0  0  0  0
  191.6430  174.3790  135.1450 C   0  0  0  0  0  2  0  0  0  0  0  0
  192.5120  174.7620  136.3470 C   0  0  2  0  0  3  0  0  0  0  0  0
  190.1300  174.4640  135.4100 C   0  0  1  0  0  3  0  0  0  0  0  0
  191.1740  175.9460  138.8870 C   0  0  0  0  0  2  0  0  0  0  0  0
  192.4750  176.2730  136.6000 C   0  0  0  0  0  2  0  0  0  0  0  0
  188.7930  178.8570  139.1430 O   0  0  0  0  0  1  0  0  0  0  0  0
  192.7550  176.6790  138.3560 S   0  0  0  0  0  0  0  0  0  0  0  0
  190.2240  176.9710  139.5110 C   0  0  2  0  0  3  0  0  0  0  0  0
  189.8390  178.1260  138.5780 C   0  0  1  0  0  3  0  0  0  0  0  0
  188.6210  176.7110  137.0160 N   0  0  0  0  0  0  0  0  0  0  0  0
  188.2520  176.2530  135.6920 C   0  0  2  0  0  3  0  0  0  0  0  0
  195.7630  174.7140  134.7230 O   0  0  0  0  0  0  0  0  0  0  0  0
  194.9590  174.9530  136.9490 C   0  0  1  0  0  3  0  0  0  0  0  0
  195.8800  175.5190  135.8660 C   0  0  1  0  0  3  0  0  0  0  0  0
  193.9290  174.2110  136.1430 C   0  0  2  0  0  3  0  0  0  0  0  0
  194.4180  174.3130  134.7060 C   0  0  0  0  0  2  0  0  0  0  0  0
  195.5910  174.0040  137.9830 C   0  0  0  0  0  3  0  0  0  0  0  0
  194.8940  172.6560  137.9980 C   0  0  0  0  0  1  0  0  0  0  0  0
  195.6690  174.5830  139.3890 C   0  0  0  0  0  1  0  0  0  0  0  0
  198.0900  175.3840  135.1080 C   0  0  0  0  0  1  0  0  0  0  0  0
  197.2720  175.6210  136.2840 N   0  0  0  0  0  2  0  0  0  0  0  0
  189.1020  172.9730  136.6910 C   0  0  0  0  0  1  0  0  0  0  0  0
  189.8110  174.1740  136.7440 O   0  0  0  0  0  0  0  0  0  0  0  0
  1 14  1  0  0  0  0
  3  2  1  1  0  0  0
  3  8  1  0  0  0  0
  3 16  1  0  0  0  0
  6  8  1  0  0  0  0
  7  6  1  6  0  0  0
  7 10  1  0  0  0  0
  8 28  1  1  0  0  0
  9 13  1  0  0  0  0
 10 12  1  0  0  0  0
 12  9  1  0  0  0  0
 13  4  1  1  0  0  0
 14 11  1  1  0  0  0
 14 13  1  0  0  0  0
 15  1  2  0  0  0  0
 16  5  1  6  0  0  0
 16 15  1  0  0  0  0
 17 19  1  0  0  0  0
 18 22  1  1  0  0  0
 19 26  1  1  0  0  0
 19 18  1  0  0  0  0
 20 21  1  6  0  0  0
 20  7  1  0  0  0  0
 20 18  1  0  0  0  0
 21 17  1  0  0  0  0
 22 23  1  0  0  0  0
 22 24  1  0  0  0  0
 25 26  1  0  0  0  0
 27 28  1  0  0  0  0
M  END
>  <MODEL>
5

>  <REMARK>
 VINA RESULT:      -5.7      5.107      8.732
  Name = 
  4 active torsions:
  status: ('A' for Active; 'I' for Inactive)
    1  A    between atoms: C_9  and  C_14
    2  A    between atoms: C_10  and  C_13
    3  A    between atoms: C_11  and  O_22
    4  A    between atoms: C_12  and  N_23
                            x       y       z     vdW  Elec       q    Type
                         _______ _______ _______ _____ _____    ______ ____

>  <TORSDO>
F 4

$$$$
=
 OpenBabel10272402023D

 28 29  0  0  1  0  0  0  0  0999 V2000
  188.6300  177.9000  137.8720 C   0  0  0  0  0  3  0  0  0  0  0  0
  189.5360  177.3820  135.1750 O   0  0  0  0  0  1  0  0  0  0  0  0
  188.6890  176.2790  135.3230 C   0  0  1  0  0  3  0  0  0  0  0  0
  190.0370  177.3340  141.2910 O   0  0  0  0  0  1  0  0  0  0  0  0
  186.7410  177.6600  135.6650 O   0  0  0  0  0  1  0  0  0  0  0  0
  190.9530  175.0120  135.3870 C   0  0  0  0  0  2  0  0  0  0  0  0
  191.8260  175.2900  136.6140 C   0  0  2  0  0  3  0  0  0  0  0  0
  189.4440  174.9770  135.6830 C   0  0  1  0  0  3  0  0  0  0  0  0
  190.4820  176.0720  139.3020 C   0  0  0  0  0  2  0  0  0  0  0  0
  191.7130  176.7530  137.0550 C   0  0  0  0  0  2  0  0  0  0  0  0
  187.9530  178.7880  139.9580 O   0  0  0  0  0  1  0  0  0  0  0  0
  192.0090  176.9530  138.8450 S   0  0  0  0  0  0  0  0  0  0  0  0
  189.4920  176.9550  140.0640 C   0  0  2  0  0  3  0  0  0  0  0  0
  189.0240  178.1940  139.2890 C   0  0  1  0  0  3  0  0  0  0  0  0
  187.8510  176.9190  137.5810 N   0  0  0  0  0  0  0  0  0  0  0  0
  187.4790  176.6090  136.2150 C   0  0  2  0  0  3  0  0  0  0  0  0
  195.4050  175.3040  137.2440 O   0  0  0  0  0  0  0  0  0  0  0  0
  193.6860  173.6630  137.1450 C   0  0  1  0  0  3  0  0  0  0  0  0
  194.8630  174.2200  137.9500 C   0  0  1  0  0  3  0  0  0  0  0  0
  193.2660  174.8500  136.3210 C   0  0  2  0  0  3  0  0  0  0  0  0
  194.3020  175.9200  136.6330 C   0  0  0  0  0  2  0  0  0  0  0  0
  193.9710  172.4650  136.2210 C   0  0  0  0  0  3  0  0  0  0  0  0
  194.7290  172.8920  134.9780 C   0  0  0  0  0  1  0  0  0  0  0  0
  192.7320  171.6640  135.8460 C   0  0  0  0  0  1  0  0  0  0  0  0
  197.1740  173.8590  138.0020 C   0  0  0  0  0  1  0  0  0  0  0  0
  195.8890  173.2270  138.2380 N   0  0  0  0  0  2  0  0  0  0  0  0
  188.8170  173.1680  136.8010 C   0  0  0  0  0  1  0  0  0  0  0  0
  189.1700  174.5070  136.9740 O   0  0  0  0  0  0  0  0  0  0  0  0
  1 14  1  0  0  0  0
  3  2  1  1  0  0  0
  3  8  1  0  0  0  0
  3 16  1  0  0  0  0
  6  8  1  0  0  0  0
  7  6  1  6  0  0  0
  7 10  1  0  0  0  0
  8 28  1  1  0  0  0
  9 13  1  0  0  0  0
 10 12  1  0  0  0  0
 12  9  1  0  0  0  0
 13  4  1  1  0  0  0
 14 11  1  1  0  0  0
 14 13  1  0  0  0  0
 15  1  2  0  0  0  0
 16  5  1  6  0  0  0
 16 15  1  0  0  0  0
 17 19  1  0  0  0  0
 18 22  1  6  0  0  0
 18 19  1  0  0  0  0
 19 26  1  6  0  0  0
 20  7  1  0  0  0  0
 20 21  1  1  0  0  0
 20 18  1  0  0  0  0
 21 17  1  0  0  0  0
 23 22  1  0  0  0  0
 24 22  1  0  0  0  0
 25 26  1  0  0  0  0
 27 28  1  0  0  0  0
M  END
>  <MODEL>
6

>  <REMARK>
 VINA RESULT:      -5.7      4.647      8.205
  Name = 
  4 active torsions:
  status: ('A' for Active; 'I' for Inactive)
    1  A    between atoms: C_9  and  C_14
    2  A    between atoms: C_10  and  C_13
    3  A    between atoms: C_11  and  O_22
    4  A    between atoms: C_12  and  N_23
                            x       y       z     vdW  Elec       q    Type
                         _______ _______ _______ _____ _____    ______ ____

>  <TORSDO>
F 4

$$$$
=
 OpenBabel10272402023D

 28 29  0  0  1  0  0  0  0  0999 V2000
  188.2150  178.5210  139.4860 C   0  0  0  0  0  3  0  0  0  0  0  0
  188.9110  178.7650  136.6900 O   0  0  0  0  0  1  0  0  0  0  0  0
  187.9440  177.7620  136.5740 C   0  0  1  0  0  3  0  0  0  0  0  0
  189.7130  176.7940  142.4460 O   0  0  0  0  0  1  0  0  0  0  0  0
  186.2010  179.1640  137.4780 O   0  0  0  0  0  1  0  0  0  0  0  0
  190.0340  176.3120  136.0620 C   0  0  0  0  0  2  0  0  0  0  0  0
  190.9960  176.1100  137.2360 C   0  0  2  0  0  3  0  0  0  0  0  0
  188.5490  176.3430  136.4630 C   0  0  1  0  0  3  0  0  0  0  0  0
  189.8970  176.1630  140.1400 C   0  0  0  0  0  2  0  0  0  0  0  0
  191.0870  177.3710  138.1020 C   0  0  0  0  0  2  0  0  0  0  0  0
  187.7600  178.7920  141.7920 O   0  0  0  0  0  1  0  0  0  0  0  0
  191.4960  176.9810  139.8370 S   0  0  0  0  0  0  0  0  0  0  0  0
  189.0630  176.8680  141.2130 C   0  0  2  0  0  3  0  0  0  0  0  0
  188.7140  178.3250  140.8870 C   0  0  1  0  0  3  0  0  0  0  0  0
  187.3070  177.7610  138.9830 N   0  0  0  0  0  0  0  0  0  0  0  0
  186.8300  177.9250  137.6240 C   0  0  2  0  0  3  0  0  0  0  0  0
  194.6090  175.7720  137.4290 O   0  0  0  0  0  0  0  0  0  0  0  0
  192.7530  174.2940  137.2530 C   0  0  1  0  0  3  0  0  0  0  0  0
  194.0520  174.6160  137.9970 C   0  0  1  0  0  3  0  0  0  0  0  0
  192.3540  175.6350  136.7030 C   0  0  2  0  0  3  0  0  0  0  0  0
  193.5050  176.5600  137.0690 C   0  0  0  0  0  2  0  0  0  0  0  0
  192.8340  173.2670  136.1090 C   0  0  0  0  0  3  0  0  0  0  0  0
  193.4410  173.8760  134.8590 C   0  0  0  0  0  1  0  0  0  0  0  0
  191.5090  172.5900  135.7890 C   0  0  0  0  0  1  0  0  0  0  0  0
  196.1150  173.9110  138.8460 C   0  0  0  0  0  1  0  0  0  0  0  0
  195.0130  173.5210  137.9850 N   0  0  0  0  0  2  0  0  0  0  0  0
  187.6580  174.3990  137.0490 C   0  0  0  0  0  1  0  0  0  0  0  0
  188.2850  175.5300  137.5730 O   0  0  0  0  0  0  0  0  0  0  0  0
  1 14  1  0  0  0  0
  3  2  1  1  0  0  0
  3 16  1  0  0  0  0
  6  8  1  0  0  0  0
  7  6  1  6  0  0  0
  7 10  1  0  0  0  0
  8  3  1  0  0  0  0
  8 28  1  1  0  0  0
  9 13  1  0  0  0  0
 10 12  1  0  0  0  0
 12  9  1  0  0  0  0
 13  4  1  1  0  0  0
 14 13  1  0  0  0  0
 14 11  1  1  0  0  0
 15  1  2  0  0  0  0
 16  5  1  1  0  0  0
 16 15  1  0  0  0  0
 17 19  1  0  0  0  0
 18 22  1  6  0  0  0
 18 19  1  0  0  0  0
 19 26  1  6  0  0  0
 20 21  1  1  0  0  0
 20  7  1  0  0  0  0
 20 18  1  0  0  0  0
 21 17  1  0  0  0  0
 23 22  1  0  0  0  0
 24 22  1  0  0  0  0
 26 25  1  0  0  0  0
 27 28  1  0  0  0  0
M  END
>  <MODEL>
7

>  <REMARK>
 VINA RESULT:      -5.4      3.888      7.201
  Name = 
  4 active torsions:
  status: ('A' for Active; 'I' for Inactive)
    1  A    between atoms: C_9  and  C_14
    2  A    between atoms: C_10  and  C_13
    3  A    between atoms: C_11  and  O_22
    4  A    between atoms: C_12  and  N_23
                            x       y       z     vdW  Elec       q    Type
                         _______ _______ _______ _____ _____    ______ ____

>  <TORSDO>
F 4

$$$$
=
 OpenBabel10272402023D

 28 29  0  0  1  0  0  0  0  0999 V2000
  188.3100  174.9480  135.0260 C   0  0  0  0  0  3  0  0  0  0  0  0
  187.7230  177.7700  134.8010 O   0  0  0  0  0  1  0  0  0  0  0  0
  188.6410  177.8340  135.8540 C   0  0  1  0  0  3  0  0  0  0  0  0
  186.6240  172.0120  136.6160 O   0  0  0  0  0  1  0  0  0  0  0  0
  190.4210  176.8940  134.5250 O   0  0  0  0  0  1  0  0  0  0  0  0
  186.4980  178.3940  137.2060 C   0  0  0  0  0  2  0  0  0  0  0  0
  185.4870  177.2510  137.3360 C   0  0  2  0  0  3  0  0  0  0  0  0
  187.9680  177.9420  137.2420 C   0  0  1  0  0  3  0  0  0  0  0  0
  186.4870  174.3120  137.2820 C   0  0  0  0  0  2  0  0  0  0  0  0
  185.4310  176.4110  136.0550 C   0  0  0  0  0  2  0  0  0  0  0  0
  188.6980  172.6320  134.7330 O   0  0  0  0  0  1  0  0  0  0  0  0
  184.9440  174.6850  136.3900 S   0  0  0  0  0  0  0  0  0  0  0  0
  187.3180  173.2230  136.6000 C   0  0  2  0  0  3  0  0  0  0  0  0
  187.7530  173.5620  135.1690 C   0  0  1  0  0  3  0  0  0  0  0  0
  189.1940  175.4050  135.8400 N   0  0  0  0  0  0  0  0  0  0  0  0
  189.7250  176.7490  135.7280 C   0  0  2  0  0  3  0  0  0  0  0  0
  181.8740  177.0750  137.6880 O   0  0  0  0  0  0  0  0  0  0  0  0
  183.7270  177.4130  139.1420 C   0  0  1  0  0  3  0  0  0  0  0  0
  182.4330  176.6340  138.8980 C   0  0  1  0  0  3  0  0  0  0  0  0
  184.1260  177.8240  137.7520 C   0  0  2  0  0  3  0  0  0  0  0  0
  182.9780  177.3570  136.8680 C   0  0  0  0  0  2  0  0  0  0  0  0
  183.6380  178.6570  140.0440 C   0  0  0  0  0  3  0  0  0  0  0  0
  183.4880  179.9260  139.2260 C   0  0  0  0  0  1  0  0  0  0  0  0
  184.7880  178.7890  141.0330 C   0  0  0  0  0  1  0  0  0  0  0  0
  180.2070  177.1580  139.3930 C   0  0  0  0  0  1  0  0  0  0  0  0
  181.4700  176.7530  139.9840 N   0  0  0  0  0  2  0  0  0  0  0  0
  188.7610  177.2870  139.2070 C   0  0  0  0  0  1  0  0  0  0  0  0
  188.1520  176.8090  138.0460 O   0  0  0  0  0  0  0  0  0  0  0  0
  1 14  1  0  0  0  0
  1 15  2  0  0  0  0
  3  2  1  6  0  0  0
  3  8  1  0  0  0  0
  6  8  1  0  0  0  0
  6  7  1  0  0  0  0
  7 10  1  6  0  0  0
  7 20  1  0  0  0  0
  8 28  1  6  0  0  0
 10 12  1  0  0  0  0
 12  9  1  0  0  0  0
 13  4  1  6  0  0  0
 13  9  1  0  0  0  0
 14 11  1  1  0  0  0
 14 13  1  0  0  0  0
 16  5  1  6  0  0  0
 16 15  1  0  0  0  0
 16  3  1  0  0  0  0
 17 19  1  0  0  0  0
 18 22  1  1  0  0  0
 19 18  1  0  0  0  0
 19 26  1  1  0  0  0
 20 21  1  6  0  0  0
 20 18  1  0  0  0  0
 21 17  1  0  0  0  0
 22 24  1  0  0  0  0
 23 22  1  0  0  0  0
 25 26  1  0  0  0  0
 28 27  1  0  0  0  0
M  END
>  <MODEL>
8

>  <REMARK>
 VINA RESULT:      -5.4      5.820      8.899
  Name = 
  4 active torsions:
  status: ('A' for Active; 'I' for Inactive)
    1  A    between atoms: C_9  and  C_14
    2  A    between atoms: C_10  and  C_13
    3  A    between atoms: C_11  and  O_22
    4  A    between atoms: C_12  and  N_23
                            x       y       z     vdW  Elec       q    Type
                         _______ _______ _______ _____ _____    ______ ____

>  <TORSDO>
F 4

$$$$
=
 OpenBabel10272402023D

 28 29  0  0  1  0  0  0  0  0999 V2000
  181.5060  176.4760  137.1770 C   0  0  0  0  0  3  0  0  0  0  0  0
  183.1000  176.1060  134.7930 O   0  0  0  0  0  1  0  0  0  0  0  0
  183.1400  174.7930  135.2730 C   0  0  1  0  0  3  0  0  0  0  0  0
  182.1550  177.7980  140.6150 O   0  0  0  0  0  1  0  0  0  0  0  0
  180.7450  174.5370  135.1380 O   0  0  0  0  0  1  0  0  0  0  0  0
  185.6070  175.4330  135.7590 C   0  0  0  0  0  2  0  0  0  0  0  0
  185.8070  176.4950  136.8450 C   0  0  2  0  0  3  0  0  0  0  0  0
  184.4450  174.4630  136.0340 C   0  0  1  0  0  3  0  0  0  0  0  0
  183.7230  176.7540  139.1330 C   0  0  0  0  0  2  0  0  0  0  0  0
  184.6990  177.5520  136.8000 C   0  0  0  0  0  2  0  0  0  0  0  0
  179.9820  177.1230  138.8670 O   0  0  0  0  0  1  0  0  0  0  0  0
  184.3970  178.2970  138.4370 S   0  0  0  0  0  0  0  0  0  0  0  0
  182.2610  176.8870  139.5650 C   0  0  2  0  0  3  0  0  0  0  0  0
  181.3000  177.2700  138.4330 C   0  0  1  0  0  3  0  0  0  0  0  0
  181.6160  175.1950  137.2020 N   0  0  0  0  0  0  0  0  0  0  0  0
  181.8370  174.4160  136.0010 C   0  0  2  0  0  3  0  0  0  0  0  0
  188.3800  178.9270  137.6650 O   0  0  0  0  0  0  0  0  0  0  0  0
  188.1560  176.5610  137.7770 C   0  0  1  0  0  3  0  0  0  0  0  0
  188.5490  177.8350  138.5300 C   0  0  1  0  0  3  0  0  0  0  0  0
  187.2190  177.0840  136.7230 C   0  0  2  0  0  3  0  0  0  0  0  0
  187.2590  178.5960  136.8880 C   0  0  0  0  0  2  0  0  0  0  0  0
  189.2890  175.7600  137.1120 C   0  0  0  0  0  3  0  0  0  0  0  0
  189.6190  176.3050  135.7350 C   0  0  0  0  0  1  0  0  0  0  0  0
  189.0340  174.2610  137.0500 C   0  0  0  0  0  1  0  0  0  0  0  0
  189.8120  177.4200  140.4550 C   0  0  0  0  0  1  0  0  0  0  0  0
  189.9060  177.8000  139.0570 N   0  0  0  0  0  2  0  0  0  0  0  0
  184.9020  173.0310  137.6640 C   0  0  0  0  0  1  0  0  0  0  0  0
  184.2560  174.2410  137.4040 O   0  0  0  0  0  0  0  0  0  0  0  0
  1 15  2  0  0  0  0
  1 14  1  0  0  0  0
  3  2  1  1  0  0  0
  3 16  1  0  0  0  0
  3  8  1  0  0  0  0
  6  8  1  0  0  0  0
  7  6  1  6  0  0  0
  8 28  1  1  0  0  0
  9 13  1  0  0  0  0
 10  7  1  0  0  0  0
 10 12  1  0  0  0  0
 12  9  1  0  0  0  0
 13  4  1  1  0  0  0
 14 11  1  1  0  0  0
 14 13  1  0  0  0  0
 16  5  1  6  0  0  0
 16 15  1  0  0  0  0
 17 19  1  0  0  0  0
 18 22  1  6  0  0  0
 18 19  1  0  0  0  0
 19 26  1  6  0  0  0
 20  7  1  0  0  0  0
 20 21  1  1  0  0  0
 20 18  1  0  0  0  0
 21 17  1  0  0  0  0
 23 22  1  0  0  0  0
 24 22  1  0  0  0  0
 26 25  1  0  0  0  0
 28 27  1  0  0  0  0
M  END
>  <MODEL>
9

>  <REMARK>
 VINA RESULT:      -5.1      5.090      8.826
  Name = 
  4 active torsions:
  status: ('A' for Active; 'I' for Inactive)
    1  A    between atoms: C_9  and  C_14
    2  A    between atoms: C_10  and  C_13
    3  A    between atoms: C_11  and  O_22
    4  A    between atoms: C_12  and  N_23
                            x       y       z     vdW  Elec       q    Type
                         _______ _______ _______ _____ _____    ______ ____

>  <TORSDO>
F 4

$$$$
