=
 OpenBabel10262423513D

 34 41  0  0  1  0  0  0  0  0999 V2000
  189.3310  177.1490  145.8400 C   0  0  0  0  0  0  0  0  0  0  0  0
  190.9250  176.8010  144.0230 C   0  0  0  0  0  0  0  0  0  0  0  0
  188.5980  177.4340  143.5490 C   0  0  0  0  0  0  0  0  0  0  0  0
  187.9140  177.7470  141.2820 C   0  0  0  0  0  0  0  0  0  0  0  0
  191.6170  176.5250  146.2840 C   0  0  0  0  0  3  0  0  0  0  0  0
  191.8800  176.5100  144.9480 N   0  0  0  0  0  0  0  0  0  0  0  0
  190.1220  177.1310  141.6640 C   0  0  0  0  0  0  0  0  0  0  0  0
  189.6160  177.1270  144.4630 C   0  0  0  0  0  0  0  0  0  0  0  0
  188.5610  177.6680  139.7290 S   0  0  0  0  0  0  0  0  0  0  0  0
  190.3400  176.8450  146.7540 C   0  0  0  0  0  3  0  0  0  0  0  0
  187.2880  177.7620  143.9740 C   0  0  0  0  0  0  0  0  0  0  0  0
  188.0450  177.4810  146.2800 C   0  0  0  0  0  3  0  0  0  0  0  0
  191.2900  176.7680  142.5460 C   0  0  0  0  0  3  0  0  0  0  0  0
  186.6500  178.0650  141.6550 N   0  0  0  0  0  0  0  0  0  0  0  0
  186.2950  178.0760  142.9830 C   0  0  0  0  0  0  0  0  0  0  0  0
  190.1090  177.2190  140.2740 C   0  0  0  0  0  0  0  0  0  0  0  0
  188.8790  177.4300  142.2000 C   0  0  1  0  0  3  0  0  0  0  0  0
  187.0350  177.7860  145.3560 C   0  0  0  0  0  3  0  0  0  0  0  0
  182.5710  178.8270  142.6780 C   0  0  0  0  0  0  0  0  0  0  0  0
  182.2570  179.1510  143.9990 C   0  0  0  0  0  3  0  0  0  0  0  0
  184.8870  178.4230  143.3160 C   0  0  0  0  0  0  0  0  0  0  0  0
  183.2490  179.1200  144.9800 C   0  0  0  0  0  3  0  0  0  0  0  0
  183.8800  178.4710  142.3390 C   0  0  0  0  0  3  0  0  0  0  0  0
  184.5570  178.7620  144.6390 C   0  0  0  0  0  3  0  0  0  0  0  0
  181.6100  178.8620  141.7240 F   0  0  0  0  0  0  0  0  0  0  0  0
  191.8340  176.6300  138.1070 C   0  0  1  0  0  3  0  0  0  0  0  0
  192.6910  176.9630  139.1390 C   0  0  2  0  0  3  0  0  0  0  0  0
  193.0310  175.7350  138.3260 C   0  0  2  0  0  3  0  0  0  0  0  0
  191.2260  176.9750  139.4260 N   0  0  0  0  0  0  0  0  0  0  0  0
  194.1150  176.0650  137.3080 C   0  0  1  0  0  3  0  0  0  0  0  0
  195.2060  175.2160  137.5170 O   0  0  0  0  0  1  0  0  0  0  0  0
  193.5710  174.4330  135.4850 C   0  0  0  0  0  1  0  0  0  0  0  0
  193.5900  175.8980  135.8810 C   0  0  0  0  0  3  0  0  0  0  0  0
  194.4630  176.6490  134.8900 C   0  0  0  0  0  1  0  0  0  0  0  0
  1 12  1  0  0  0  0
  1 10  2  0  0  0  0
  2  8  1  0  0  0  0
  2  6  1  0  0  0  0
  3 11  1  0  0  0  0
  3  8  2  0  0  0  0
  4 14  2  0  0  0  0
  5 10  1  0  0  0  0
  6  5  2  0  0  0  0
  7 17  1  0  0  0  0
  7 13  1  0  0  0  0
  8  1  1  0  0  0  0
  9 16  1  0  0  0  0
  9  4  1  0  0  0  0
 11 18  1  0  0  0  0
 13  2  2  0  0  0  0
 14 15  1  0  0  0  0
 15 21  1  0  0  0  0
 15 11  2  0  0  0  0
 16  7  2  0  0  0  0
 17  4  1  1  0  0  0
 17  3  1  0  0  0  0
 18 12  2  0  0  0  0
 19 20  1  0  0  0  0
 20 22  2  0  0  0  0
 21 24  2  0  0  0  0
 23 19  2  0  0  0  0
 23 21  1  0  0  0  0
 24 22  1  0  0  0  0
 25 19  1  0  0  0  0
 26 28  1  0  0  0  0
 26 27  1  0  0  0  0
 26 29  1  1  0  0  0
 27 29  1  1  0  0  0
 28 30  1  6  0  0  0
 28 27  1  0  0  0  0
 29 16  1  0  0  0  0
 30 31  1  1  0  0  0
 32 33  1  0  0  0  0
 33 30  1  0  0  0  0
 34 33  1  0  0  0  0
M  END
>  <MODEL>
1

>  <REMARK>
 VINA RESULT:     -10.8      0.000      0.000
  Name = 
  4 active torsions:
  status: ('A' for Active; 'I' for Inactive)
    1  A    between atoms: C_12  and  C_28
    2  A    between atoms: C_13  and  C_14
    3  A    between atoms: C_14  and  C_22
    4  A    between atoms: N_17  and  C_29
                            x       y       z     vdW  Elec       q    Type
                         _______ _______ _______ _____ _____    ______ ____

>  <TORSDO>
F 4

$$$$
=
 OpenBabel10262423513D

 34 41  0  0  1  0  0  0  0  0999 V2000
  189.3870  177.1670  145.6030 C   0  0  0  0  0  0  0  0  0  0  0  0
  191.0310  176.7940  143.8370 C   0  0  0  0  0  0  0  0  0  0  0  0
  188.7200  177.4270  143.2890 C   0  0  0  0  0  0  0  0  0  0  0  0
  188.1030  177.7160  141.0000 C   0  0  0  0  0  0  0  0  0  0  0  0
  191.6570  176.5420  146.1200 C   0  0  0  0  0  3  0  0  0  0  0  0
  191.9580  176.5110  144.7920 N   0  0  0  0  0  0  0  0  0  0  0  0
  190.2970  177.0990  141.4520 C   0  0  0  0  0  0  0  0  0  0  0  0
  189.7100  177.1280  144.2350 C   0  0  0  0  0  0  0  0  0  0  0  0
  188.7930  177.6180  139.4670 S   0  0  0  0  0  0  0  0  0  0  0  0
  190.3670  176.8710  146.5490 C   0  0  0  0  0  3  0  0  0  0  0  0
  187.4000  177.7640  143.6720 C   0  0  0  0  0  0  0  0  0  0  0  0
  188.0900  177.5080  146.0030 C   0  0  0  0  0  3  0  0  0  0  0  0
  191.4370  176.7430  142.3710 C   0  0  0  0  0  3  0  0  0  0  0  0
  186.8300  178.0420  141.3330 N   0  0  0  0  0  0  0  0  0  0  0  0
  186.4370  178.0690  142.6500 C   0  0  0  0  0  0  0  0  0  0  0  0
  190.3240  177.1710  140.0610 C   0  0  0  0  0  0  0  0  0  0  0  0
  189.0400  177.4070  141.9490 C   0  0  1  0  0  3  0  0  0  0  0  0
  187.1070  177.8050  145.0460 C   0  0  0  0  0  3  0  0  0  0  0  0
  183.2310  179.0150  144.4800 C   0  0  0  0  0  0  0  0  0  0  0  0
  182.3160  179.0240  143.4260 C   0  0  0  0  0  3  0  0  0  0  0  0
  185.0210  178.4240  142.9380 C   0  0  0  0  0  0  0  0  0  0  0  0
  182.7420  178.7280  142.1310 C   0  0  0  0  0  3  0  0  0  0  0  0
  184.5730  178.7120  144.2370 C   0  0  0  0  0  3  0  0  0  0  0  0
  184.0850  178.4260  141.8890 C   0  0  0  0  0  3  0  0  0  0  0  0
  182.8170  179.2970  145.7390 F   0  0  0  0  0  0  0  0  0  0  0  0
  192.1120  176.6030  137.9400 C   0  0  1  0  0  3  0  0  0  0  0  0
  192.9380  176.8460  139.0220 C   0  0  2  0  0  3  0  0  0  0  0  0
  193.2570  175.6430  138.1630 C   0  0  2  0  0  3  0  0  0  0  0  0
  191.4640  176.9140  139.2490 N   0  0  0  0  0  0  0  0  0  0  0  0
  194.3970  175.9690  137.2080 C   0  0  1  0  0  3  0  0  0  0  0  0
  195.4100  175.0200  137.3730 O   0  0  0  0  0  1  0  0  0  0  0  0
  193.8990  174.5540  135.2000 C   0  0  0  0  0  1  0  0  0  0  0  0
  193.9100  175.9650  135.7580 C   0  0  0  0  0  3  0  0  0  0  0  0
  194.8100  176.8190  134.8810 C   0  0  0  0  0  1  0  0  0  0  0  0
  1 12  1  0  0  0  0
  1 10  2  0  0  0  0
  2  8  1  0  0  0  0
  2  6  1  0  0  0  0
  3 11  1  0  0  0  0
  3  8  2  0  0  0  0
  4 14  2  0  0  0  0
  5 10  1  0  0  0  0
  6  5  2  0  0  0  0
  7 17  1  0  0  0  0
  7 13  1  0  0  0  0
  8  1  1  0  0  0  0
  9 16  1  0  0  0  0
  9  4  1  0  0  0  0
 11 18  1  0  0  0  0
 13  2  2  0  0  0  0
 14 15  1  0  0  0  0
 15 21  1  0  0  0  0
 15 11  2  0  0  0  0
 16  7  2  0  0  0  0
 17  4  1  1  0  0  0
 17  3  1  0  0  0  0
 18 12  2  0  0  0  0
 19 25  1  0  0  0  0
 20 19  2  0  0  0  0
 21 23  2  0  0  0  0
 22 20  1  0  0  0  0
 23 19  1  0  0  0  0
 24 22  2  0  0  0  0
 24 21  1  0  0  0  0
 26 28  1  0  0  0  0
 26 27  1  0  0  0  0
 26 29  1  1  0  0  0
 27 29  1  1  0  0  0
 28 30  1  6  0  0  0
 28 27  1  0  0  0  0
 29 16  1  0  0  0  0
 30 31  1  6  0  0  0
 32 33  1  0  0  0  0
 33 30  1  0  0  0  0
 34 33  1  0  0  0  0
M  END
>  <MODEL>
2

>  <REMARK>
 VINA RESULT:     -10.4      0.801      1.151
  Name = 
  4 active torsions:
  status: ('A' for Active; 'I' for Inactive)
    1  A    between atoms: C_12  and  C_28
    2  A    between atoms: C_13  and  C_14
    3  A    between atoms: C_14  and  C_22
    4  A    between atoms: N_17  and  C_29
                            x       y       z     vdW  Elec       q    Type
                         _______ _______ _______ _____ _____    ______ ____

>  <TORSDO>
F 4

$$$$
=
 OpenBabel10262423513D

 34 41  0  0  1  0  0  0  0  0999 V2000
  187.8770  177.5540  145.9110 C   0  0  0  0  0  0  0  0  0  0  0  0
  189.6550  177.2260  144.2700 C   0  0  0  0  0  0  0  0  0  0  0  0
  187.3700  177.7790  143.5530 C   0  0  0  0  0  0  0  0  0  0  0  0
  186.9100  178.0340  141.2240 C   0  0  0  0  0  0  0  0  0  0  0  0
  190.1240  177.0070  146.5940 C   0  0  0  0  0  3  0  0  0  0  0  0
  190.5200  176.9790  145.2910 N   0  0  0  0  0  0  0  0  0  0  0  0
  189.0850  177.4930  141.8360 C   0  0  0  0  0  0  0  0  0  0  0  0
  188.3000  177.5180  144.5700 C   0  0  0  0  0  0  0  0  0  0  0  0
  187.7110  177.9510  139.7460 S   0  0  0  0  0  0  0  0  0  0  0  0
  188.7970  177.2960  146.9270 C   0  0  0  0  0  3  0  0  0  0  0  0
  186.0160  178.0730  143.8390 C   0  0  0  0  0  0  0  0  0  0  0  0
  186.5450  177.8530  146.2140 C   0  0  0  0  0  3  0  0  0  0  0  0
  190.1680  177.1810  142.8380 C   0  0  0  0  0  3  0  0  0  0  0  0
  185.6060  178.3200  141.4620 N   0  0  0  0  0  0  0  0  0  0  0  0
  185.1190  178.3400  142.7470 C   0  0  0  0  0  0  0  0  0  0  0  0
  189.2100  177.5590  140.4510 C   0  0  0  0  0  0  0  0  0  0  0  0
  187.7860  177.7620  142.2400 C   0  0  1  0  0  3  0  0  0  0  0  0
  185.6240  178.1120  145.1880 C   0  0  0  0  0  3  0  0  0  0  0  0
  181.4420  179.0590  142.0480 C   0  0  0  0  0  0  0  0  0  0  0  0
  180.9690  179.3020  143.3390 C   0  0  0  0  0  3  0  0  0  0  0  0
  183.6750  178.6490  142.9310 C   0  0  0  0  0  0  0  0  0  0  0  0
  181.8400  179.2270  144.4260 C   0  0  0  0  0  3  0  0  0  0  0  0
  182.7880  178.7400  141.8470 C   0  0  0  0  0  3  0  0  0  0  0  0
  183.1860  178.9070  144.2230 C   0  0  0  0  0  3  0  0  0  0  0  0
  180.5980  179.1360  140.9910 F   0  0  0  0  0  0  0  0  0  0  0  0
  191.1740  177.1480  138.4530 C   0  0  1  0  0  3  0  0  0  0  0  0
  191.8980  177.2090  139.6310 C   0  0  2  0  0  3  0  0  0  0  0  0
  192.2450  176.1020  138.6620 C   0  0  2  0  0  3  0  0  0  0  0  0
  190.4120  177.3360  139.7240 N   0  0  0  0  0  0  0  0  0  0  0  0
  193.4900  176.4740  137.8680 C   0  0  1  0  0  3  0  0  0  0  0  0
  194.5680  175.7180  138.3370 O   0  0  0  0  0  1  0  0  0  0  0  0
  192.9180  174.7590  136.1310 C   0  0  0  0  0  1  0  0  0  0  0  0
  193.2810  176.2130  136.3750 C   0  0  0  0  0  3  0  0  0  0  0  0
  194.5400  176.5290  135.5860 C   0  0  0  0  0  1  0  0  0  0  0  0
  1 12  1  0  0  0  0
  1 10  2  0  0  0  0
  2  8  1  0  0  0  0
  2  6  1  0  0  0  0
  3 11  1  0  0  0  0
  3  8  2  0  0  0  0
  4 14  2  0  0  0  0
  5 10  1  0  0  0  0
  6  5  2  0  0  0  0
  7 17  1  0  0  0  0
  7 13  1  0  0  0  0
  8  1  1  0  0  0  0
  9 16  1  0  0  0  0
  9  4  1  0  0  0  0
 11 18  1  0  0  0  0
 13  2  2  0  0  0  0
 14 15  1  0  0  0  0
 15 21  1  0  0  0  0
 15 11  2  0  0  0  0
 16  7  2  0  0  0  0
 17  4  1  1  0  0  0
 17  3  1  0  0  0  0
 18 12  2  0  0  0  0
 19 20  1  0  0  0  0
 20 22  2  0  0  0  0
 21 24  2  0  0  0  0
 23 19  2  0  0  0  0
 23 21  1  0  0  0  0
 24 22  1  0  0  0  0
 25 19  1  0  0  0  0
 26 28  1  0  0  0  0
 26 27  1  0  0  0  0
 26 29  1  1  0  0  0
 27 29  1  1  0  0  0
 28 30  1  6  0  0  0
 28 27  1  0  0  0  0
 29 16  1  0  0  0  0
 30 31  1  1  0  0  0
 32 33  1  0  0  0  0
 33 30  1  0  0  0  0
 34 33  1  0  0  0  0
M  END
>  <MODEL>
3

>  <REMARK>
 VINA RESULT:      -9.9      0.964      1.231
  Name = 
  4 active torsions:
  status: ('A' for Active; 'I' for Inactive)
    1  A    between atoms: C_12  and  C_28
    2  A    between atoms: C_13  and  C_14
    3  A    between atoms: C_14  and  C_22
    4  A    between atoms: N_17  and  C_29
                            x       y       z     vdW  Elec       q    Type
                         _______ _______ _______ _____ _____    ______ ____

>  <TORSDO>
F 4

$$$$
=
 OpenBabel10262423513D

 34 41  0  0  1  0  0  0  0  0999 V2000
  186.1210  178.1250  146.1300 C   0  0  0  0  0  0  0  0  0  0  0  0
  185.8900  178.3140  143.7060 C   0  0  0  0  0  0  0  0  0  0  0  0
  188.0350  177.6680  144.7170 C   0  0  0  0  0  0  0  0  0  0  0  0
  189.8930  177.1840  143.2970 C   0  0  0  0  0  0  0  0  0  0  0  0
  184.0270  178.7610  145.1180 C   0  0  0  0  0  3  0  0  0  0  0  0
  184.5880  178.6680  143.8810 N   0  0  0  0  0  0  0  0  0  0  0  0
  187.8980  177.8070  142.2810 C   0  0  0  0  0  0  0  0  0  0  0  0
  186.6890  178.0370  144.8450 C   0  0  0  0  0  0  0  0  0  0  0  0
  190.2700  177.1340  141.6570 S   0  0  0  0  0  0  0  0  0  0  0  0
  184.7820  178.4910  146.2640 C   0  0  0  0  0  3  0  0  0  0  0  0
  188.8430  177.3870  145.8450 C   0  0  0  0  0  0  0  0  0  0  0  0
  186.9000  177.8410  147.2560 C   0  0  0  0  0  3  0  0  0  0  0  0
  186.4510  178.2280  142.2940 C   0  0  0  0  0  3  0  0  0  0  0  0
  190.6940  176.9080  144.3550 N   0  0  0  0  0  0  0  0  0  0  0  0
  190.2130  177.0050  145.6390 C   0  0  0  0  0  0  0  0  0  0  0  0
  188.7110  177.6100  141.1680 C   0  0  0  0  0  0  0  0  0  0  0  0
  188.5880  177.5630  143.4600 C   0  0  1  0  0  3  0  0  0  0  0  0
  188.2460  177.4730  147.1150 C   0  0  0  0  0  3  0  0  0  0  0  0
  192.2680  177.2800  148.8380 C   0  0  0  0  0  0  0  0  0  0  0  0
  192.9940  176.0890  148.7900 C   0  0  0  0  0  3  0  0  0  0  0  0
  191.1530  176.6990  146.7510 C   0  0  0  0  0  0  0  0  0  0  0  0
  192.8110  175.2030  147.7270 C   0  0  0  0  0  3  0  0  0  0  0  0
  191.3570  177.5840  147.8220 C   0  0  0  0  0  3  0  0  0  0  0  0
  191.9000  175.5090  146.7120 C   0  0  0  0  0  3  0  0  0  0  0  0
  192.4470  178.1430  149.8660 F   0  0  0  0  0  0  0  0  0  0  0  0
  187.2740  177.7560  138.7320 C   0  0  1  0  0  3  0  0  0  0  0  0
  188.5410  178.2030  138.4040 C   0  0  2  0  0  3  0  0  0  0  0  0
  187.8920  177.2100  137.4650 C   0  0  2  0  0  3  0  0  0  0  0  0
  188.3030  177.7770  139.8150 N   0  0  0  0  0  0  0  0  0  0  0  0
  187.3150  177.9350  136.2570 C   0  0  1  0  0  3  0  0  0  0  0  0
  188.2260  177.8500  135.2000 O   0  0  0  0  0  1  0  0  0  0  0  0
  186.0250  175.8050  135.9600 C   0  0  0  0  0  1  0  0  0  0  0  0
  185.9770  177.3180  135.8420 C   0  0  0  0  0  3  0  0  0  0  0  0
  185.6370  177.6740  134.4050 C   0  0  0  0  0  1  0  0  0  0  0  0
  1 10  2  0  0  0  0
  1 12  1  0  0  0  0
  2  6  1  0  0  0  0
  2  8  1  0  0  0  0
  3  8  2  0  0  0  0
  3 11  1  0  0  0  0
  4 17  1  0  0  0  0
  4 14  2  0  0  0  0
  5 10  1  0  0  0  0
  6  5  2  0  0  0  0
  7 13  1  0  0  0  0
  8  1  1  0  0  0  0
  9  4  1  0  0  0  0
 11 18  1  0  0  0  0
 13  2  2  0  0  0  0
 14 15  1  0  0  0  0
 15 11  2  0  0  0  0
 15 21  1  0  0  0  0
 16  9  1  0  0  0  0
 16  7  2  0  0  0  0
 17  7  1  6  0  0  0
 17  3  1  0  0  0  0
 18 12  2  0  0  0  0
 19 25  1  0  0  0  0
 20 19  1  0  0  0  0
 21 23  1  0  0  0  0
 22 20  2  0  0  0  0
 23 19  2  0  0  0  0
 24 21  2  0  0  0  0
 24 22  1  0  0  0  0
 26 29  1  1  0  0  0
 27 26  1  0  0  0  0
 27 29  1  1  0  0  0
 28 30  1  6  0  0  0
 28 27  1  0  0  0  0
 28 26  1  0  0  0  0
 29 16  1  0  0  0  0
 30 31  1  6  0  0  0
 33 32  1  0  0  0  0
 33 30  1  0  0  0  0
 34 33  1  0  0  0  0
M  END
>  <MODEL>
4

>  <REMARK>
 VINA RESULT:      -9.9      3.964      6.643
  Name = 
  4 active torsions:
  status: ('A' for Active; 'I' for Inactive)
    1  A    between atoms: C_12  and  C_28
    2  A    between atoms: C_13  and  C_14
    3  A    between atoms: C_14  and  C_22
    4  A    between atoms: N_17  and  C_29
                            x       y       z     vdW  Elec       q    Type
                         _______ _______ _______ _____ _____    ______ ____

>  <TORSDO>
F 4

$$$$
=
 OpenBabel10262423513D

 34 41  0  0  1  0  0  0  0  0999 V2000
  184.5530  178.5360  144.8730 C   0  0  0  0  0  0  0  0  0  0  0  0
  184.4690  178.6050  142.4340 C   0  0  0  0  0  0  0  0  0  0  0  0
  186.5810  178.1490  143.6060 C   0  0  0  0  0  0  0  0  0  0  0  0
  188.5550  177.7310  142.3290 C   0  0  0  0  0  0  0  0  0  0  0  0
  182.4920  178.9850  143.7050 C   0  0  0  0  0  3  0  0  0  0  0  0
  183.1380  178.8780  142.5110 N   0  0  0  0  0  0  0  0  0  0  0  0
  186.5950  178.1750  141.1630 C   0  0  0  0  0  0  0  0  0  0  0  0
  185.2080  178.4310  143.6330 C   0  0  0  0  0  0  0  0  0  0  0  0
  189.0410  177.6370  140.7200 S   0  0  0  0  0  0  0  0  0  0  0  0
  183.1870  178.8150  144.9060 C   0  0  0  0  0  3  0  0  0  0  0  0
  187.3290  177.9710  144.7940 C   0  0  0  0  0  0  0  0  0  0  0  0
  185.2730  178.3530  146.0590 C   0  0  0  0  0  3  0  0  0  0  0  0
  185.1250  178.4960  141.0650 C   0  0  0  0  0  3  0  0  0  0  0  0
  189.3010  177.5550  143.4470 N   0  0  0  0  0  0  0  0  0  0  0  0
  188.7320  177.6750  144.6930 C   0  0  0  0  0  0  0  0  0  0  0  0
  187.4900  177.9850  140.1120 C   0  0  0  0  0  0  0  0  0  0  0  0
  187.2200  178.0280  142.3920 C   0  0  1  0  0  3  0  0  0  0  0  0
  186.6470  178.0710  146.0190 C   0  0  0  0  0  3  0  0  0  0  0  0
  191.5890  176.5330  146.9410 C   0  0  0  0  0  0  0  0  0  0  0  0
  191.2080  177.0940  148.1610 C   0  0  0  0  0  3  0  0  0  0  0  0
  189.6150  177.4800  145.8740 C   0  0  0  0  0  0  0  0  0  0  0  0
  190.0320  177.8410  148.2470 C   0  0  0  0  0  3  0  0  0  0  0  0
  190.7940  176.7210  145.8070 C   0  0  0  0  0  3  0  0  0  0  0  0
  189.2390  178.0290  147.1120 C   0  0  0  0  0  3  0  0  0  0  0  0
  192.7280  175.8030  146.8570 F   0  0  0  0  0  0  0  0  0  0  0  0
  186.1860  178.0340  137.5990 C   0  0  1  0  0  3  0  0  0  0  0  0
  187.5010  178.3470  137.3040 C   0  0  2  0  0  3  0  0  0  0  0  0
  186.8150  177.3330  136.4170 C   0  0  2  0  0  3  0  0  0  0  0  0
  187.1610  178.0660  138.7310 N   0  0  0  0  0  0  0  0  0  0  0  0
  186.3580  177.9930  135.1230 C   0  0  1  0  0  3  0  0  0  0  0  0
  187.4800  178.2910  134.3460 O   0  0  0  0  0  1  0  0  0  0  0  0
  183.9760  177.2880  134.7800 C   0  0  0  0  0  1  0  0  0  0  0  0
  185.4150  177.0720  134.3460 C   0  0  0  0  0  3  0  0  0  0  0  0
  185.7690  175.6130  134.5780 C   0  0  0  0  0  1  0  0  0  0  0  0
  1 10  2  0  0  0  0
  1 12  1  0  0  0  0
  2  6  1  0  0  0  0
  2  8  1  0  0  0  0
  3  8  2  0  0  0  0
  3 11  1  0  0  0  0
  4 17  1  0  0  0  0
  4 14  2  0  0  0  0
  5 10  1  0  0  0  0
  6  5  2  0  0  0  0
  8  1  1  0  0  0  0
  9  4  1  0  0  0  0
 11 18  1  0  0  0  0
 13  7  1  0  0  0  0
 13  2  2  0  0  0  0
 14 15  1  0  0  0  0
 15 11  2  0  0  0  0
 15 21  1  0  0  0  0
 16  9  1  0  0  0  0
 16  7  2  0  0  0  0
 17  7  1  6  0  0  0
 17  3  1  0  0  0  0
 18 12  2  0  0  0  0
 19 20  1  0  0  0  0
 20 22  2  0  0  0  0
 21 24  2  0  0  0  0
 23 21  1  0  0  0  0
 23 19  2  0  0  0  0
 24 22  1  0  0  0  0
 25 19  1  0  0  0  0
 26 29  1  1  0  0  0
 27 26  1  0  0  0  0
 27 29  1  1  0  0  0
 28 30  1  6  0  0  0
 28 27  1  0  0  0  0
 28 26  1  0  0  0  0
 29 16  1  0  0  0  0
 30 31  1  6  0  0  0
 33 34  1  0  0  0  0
 33 32  1  0  0  0  0
 33 30  1  0  0  0  0
M  END
>  <MODEL>
5

>  <REMARK>
 VINA RESULT:      -9.8      4.220      6.669
  Name = 
  4 active torsions:
  status: ('A' for Active; 'I' for Inactive)
    1  A    between atoms: C_12  and  C_28
    2  A    between atoms: C_13  and  C_14
    3  A    between atoms: C_14  and  C_22
    4  A    between atoms: N_17  and  C_29
                            x       y       z     vdW  Elec       q    Type
                         _______ _______ _______ _____ _____    ______ ____

>  <TORSDO>
F 4

$$$$
=
 OpenBabel10262423513D

 34 41  0  0  1  0  0  0  0  0999 V2000
  185.6230  178.6290  140.8210 C   0  0  0  0  0  0  0  0  0  0  0  0
  187.3700  178.1280  139.1900 C   0  0  0  0  0  0  0  0  0  0  0  0
  187.8120  177.9430  141.6010 C   0  0  0  0  0  0  0  0  0  0  0  0
  189.9660  177.2250  142.3380 C   0  0  0  0  0  0  0  0  0  0  0  0
  185.2110  178.8070  138.4520 C   0  0  0  0  0  3  0  0  0  0  0  0
  186.4910  178.4200  138.1930 N   0  0  0  0  0  0  0  0  0  0  0  0
  189.6170  177.3970  140.0470 C   0  0  0  0  0  0  0  0  0  0  0  0
  186.9440  178.2330  140.5390 C   0  0  0  0  0  0  0  0  0  0  0  0
  191.4480  176.7540  141.6920 S   0  0  0  0  0  0  0  0  0  0  0  0
  184.7550  178.9180  139.7690 C   0  0  0  0  0  3  0  0  0  0  0  0
  187.3990  178.0430  142.9510 C   0  0  0  0  0  0  0  0  0  0  0  0
  185.1930  178.7230  142.1490 C   0  0  0  0  0  3  0  0  0  0  0  0
  188.7840  177.6970  138.8270 C   0  0  0  0  0  3  0  0  0  0  0  0
  189.6040  177.3100  143.6420 N   0  0  0  0  0  0  0  0  0  0  0  0
  188.3390  177.7210  143.9890 C   0  0  0  0  0  0  0  0  0  0  0  0
  190.9400  176.9610  140.0810 C   0  0  0  0  0  0  0  0  0  0  0  0
  189.0990  177.5370  141.3260 C   0  0  1  0  0  3  0  0  0  0  0  0
  186.0720  178.4310  143.2020 C   0  0  0  0  0  3  0  0  0  0  0  0
  186.4720  178.2480  147.2700 C   0  0  0  0  0  0  0  0  0  0  0  0
  187.4870  177.9990  148.1960 C   0  0  0  0  0  3  0  0  0  0  0  0
  188.0160  177.8010  145.4400 C   0  0  0  0  0  0  0  0  0  0  0  0
  188.7660  177.6580  147.7530 C   0  0  0  0  0  3  0  0  0  0  0  0
  186.7380  178.1540  145.9010 C   0  0  0  0  0  3  0  0  0  0  0  0
  189.0290  177.5640  146.3840 C   0  0  0  0  0  3  0  0  0  0  0  0
  185.2320  178.5840  147.6980 F   0  0  0  0  0  0  0  0  0  0  0  0
  191.9800  176.1610  137.5710 C   0  0  1  0  0  3  0  0  0  0  0  0
  192.9970  176.9110  138.1350 C   0  0  2  0  0  3  0  0  0  0  0  0
  193.3800  175.5990  137.4870 C   0  0  2  0  0  3  0  0  0  0  0  0
  191.7520  176.7190  138.9380 N   0  0  0  0  0  0  0  0  0  0  0  0
  193.9530  175.8500  136.0990 C   0  0  1  0  0  3  0  0  0  0  0  0
  195.3040  176.1860  136.2200 O   0  0  0  0  0  1  0  0  0  0  0  0
  192.5620  174.7190  134.3460 C   0  0  0  0  0  1  0  0  0  0  0  0
  193.8010  174.6090  135.2160 C   0  0  0  0  0  3  0  0  0  0  0  0
  193.6810  173.3530  136.0620 C   0  0  0  0  0  1  0  0  0  0  0  0
  1 12  1  0  0  0  0
  2  8  1  0  0  0  0
  3 11  1  0  0  0  0
  4 14  2  0  0  0  0
  5 10  1  0  0  0  0
  6  5  2  0  0  0  0
  6  2  1  0  0  0  0
  7 16  2  0  0  0  0
  8  1  1  0  0  0  0
  8  3  2  0  0  0  0
  9  4  1  0  0  0  0
 10  1  2  0  0  0  0
 11 18  1  0  0  0  0
 11 15  2  0  0  0  0
 12 18  2  0  0  0  0
 13  2  2  0  0  0  0
 13  7  1  0  0  0  0
 14 15  1  0  0  0  0
 15 21  1  0  0  0  0
 16  9  1  0  0  0  0
 17  7  1  6  0  0  0
 17  3  1  0  0  0  0
 17  4  1  0  0  0  0
 19 25  1  0  0  0  0
 19 20  1  0  0  0  0
 21 23  1  0  0  0  0
 21 24  2  0  0  0  0
 22 20  2  0  0  0  0
 23 19  2  0  0  0  0
 24 22  1  0  0  0  0
 26 27  1  0  0  0  0
 26 29  1  1  0  0  0
 27 29  1  1  0  0  0
 28 30  1  6  0  0  0
 28 26  1  0  0  0  0
 28 27  1  0  0  0  0
 29 16  1  0  0  0  0
 30 31  1  1  0  0  0
 32 33  1  0  0  0  0
 33 34  1  0  0  0  0
 33 30  1  0  0  0  0
M  END
>  <MODEL>
6

>  <REMARK>
 VINA RESULT:      -9.5      2.122      4.636
  Name = 
  4 active torsions:
  status: ('A' for Active; 'I' for Inactive)
    1  A    between atoms: C_12  and  C_28
    2  A    between atoms: C_13  and  C_14
    3  A    between atoms: C_14  and  C_22
    4  A    between atoms: N_17  and  C_29
                            x       y       z     vdW  Elec       q    Type
                         _______ _______ _______ _____ _____    ______ ____

>  <TORSDO>
F 4

$$$$
=
 OpenBabel10262423513D

 34 41  0  0  1  0  0  0  0  0999 V2000
  189.6670  177.6430  140.6180 C   0  0  0  0  0  0  0  0  0  0  0  0
  187.6310  178.1410  139.3650 C   0  0  0  0  0  0  0  0  0  0  0  0
  187.5940  178.0060  141.8190 C   0  0  0  0  0  0  0  0  0  0  0  0
  185.5460  178.4090  142.9770 C   0  0  0  0  0  0  0  0  0  0  0  0
  189.6810  177.7760  138.2100 C   0  0  0  0  0  3  0  0  0  0  0  0
  188.3480  178.0550  138.2120 N   0  0  0  0  0  0  0  0  0  0  0  0
  185.5110  178.5330  140.6570 C   0  0  0  0  0  0  0  0  0  0  0  0
  188.2900  177.9290  140.6030 C   0  0  0  0  0  0  0  0  0  0  0  0
  183.9410  178.7930  142.6420 S   0  0  0  0  0  0  0  0  0  0  0  0
  190.3640  177.5660  139.4120 C   0  0  0  0  0  3  0  0  0  0  0  0
  188.2400  177.7980  143.0610 C   0  0  0  0  0  0  0  0  0  0  0  0
  190.3250  177.4450  141.8360 C   0  0  0  0  0  3  0  0  0  0  0  0
  186.1440  178.4600  139.2910 C   0  0  0  0  0  3  0  0  0  0  0  0
  186.1320  178.2160  144.1840 N   0  0  0  0  0  0  0  0  0  0  0  0
  187.4680  177.9020  144.2690 C   0  0  0  0  0  0  0  0  0  0  0  0
  184.1820  178.8220  140.9570 C   0  0  0  0  0  0  0  0  0  0  0  0
  186.2500  178.3040  141.8080 C   0  0  1  0  0  3  0  0  0  0  0  0
  189.6180  177.5240  143.0460 C   0  0  0  0  0  3  0  0  0  0  0  0
  189.8060  176.9120  147.1120 C   0  0  0  0  0  0  0  0  0  0  0  0
  189.0380  177.2640  148.2230 C   0  0  0  0  0  3  0  0  0  0  0  0
  188.0400  177.6930  145.6270 C   0  0  0  0  0  0  0  0  0  0  0  0
  187.7710  177.8230  148.0450 C   0  0  0  0  0  3  0  0  0  0  0  0
  189.3070  177.1220  145.8230 C   0  0  0  0  0  3  0  0  0  0  0  0
  187.2740  178.0320  146.7560 C   0  0  0  0  0  3  0  0  0  0  0  0
  191.0340  176.3650  147.2820 F   0  0  0  0  0  0  0  0  0  0  0  0
  182.6280  179.1070  138.6070 C   0  0  1  0  0  3  0  0  0  0  0  0
  181.7890  179.5350  139.6200 C   0  0  2  0  0  3  0  0  0  0  0  0
  181.8560  180.3850  138.3710 C   0  0  2  0  0  3  0  0  0  0  0  0
  183.1680  179.1060  139.9990 N   0  0  0  0  0  0  0  0  0  0  0  0
  180.6520  180.1030  137.4830 C   0  0  1  0  0  3  0  0  0  0  0  0
  179.9820  181.3050  137.2330 O   0  0  0  0  0  1  0  0  0  0  0  0
  180.8160  180.4030  134.9990 C   0  0  0  0  0  1  0  0  0  0  0  0
  181.0890  179.4660  136.1620 C   0  0  0  0  0  3  0  0  0  0  0  0
  180.3410  178.1660  135.9130 C   0  0  0  0  0  1  0  0  0  0  0  0
  1 12  1  0  0  0  0
  2  8  1  0  0  0  0
  3 11  1  0  0  0  0
  4 14  2  0  0  0  0
  5  6  2  0  0  0  0
  5 10  1  0  0  0  0
  6  2  1  0  0  0  0
  7 16  2  0  0  0  0
  8  1  1  0  0  0  0
  8  3  2  0  0  0  0
  9  4  1  0  0  0  0
 10  1  2  0  0  0  0
 11 15  2  0  0  0  0
 12 18  2  0  0  0  0
 13  2  2  0  0  0  0
 13  7  1  0  0  0  0
 14 15  1  0  0  0  0
 15 21  1  0  0  0  0
 16  9  1  0  0  0  0
 17  7  1  1  0  0  0
 17  3  1  0  0  0  0
 17  4  1  0  0  0  0
 18 11  1  0  0  0  0
 19 25  1  0  0  0  0
 19 20  1  0  0  0  0
 21 23  1  0  0  0  0
 21 24  2  0  0  0  0
 22 20  2  0  0  0  0
 23 19  2  0  0  0  0
 24 22  1  0  0  0  0
 26 27  1  0  0  0  0
 26 29  1  1  0  0  0
 27 29  1  1  0  0  0
 28 30  1  6  0  0  0
 28 26  1  0  0  0  0
 28 27  1  0  0  0  0
 29 16  1  0  0  0  0
 30 31  1  6  0  0  0
 32 33  1  0  0  0  0
 33 30  1  0  0  0  0
 34 33  1  0  0  0  0
M  END
>  <MODEL>
7

>  <REMARK>
 VINA RESULT:      -9.4      4.666      8.242
  Name = 
  4 active torsions:
  status: ('A' for Active; 'I' for Inactive)
    1  A    between atoms: C_12  and  C_28
    2  A    between atoms: C_13  and  C_14
    3  A    between atoms: C_14  and  C_22
    4  A    between atoms: N_17  and  C_29
                            x       y       z     vdW  Elec       q    Type
                         _______ _______ _______ _____ _____    ______ ____

>  <TORSDO>
F 4

$$$$
=
 OpenBabel10262423513D

 34 41  0  0  1  0  0  0  0  0999 V2000
  190.6850  177.3490  141.8860 C   0  0  0  0  0  0  0  0  0  0  0  0
  188.3110  177.8100  141.5450 C   0  0  0  0  0  0  0  0  0  0  0  0
  189.2100  177.4540  143.8050 C   0  0  0  0  0  0  0  0  0  0  0  0
  187.7400  177.6050  145.6800 C   0  0  0  0  0  0  0  0  0  0  0  0
  189.7830  177.6970  139.6770 C   0  0  0  0  0  3  0  0  0  0  0  0
  188.5410  177.8800  140.2060 N   0  0  0  0  0  0  0  0  0  0  0  0
  186.8260  177.9330  143.5690 C   0  0  0  0  0  0  0  0  0  0  0  0
  189.3960  177.5360  142.4180 C   0  0  0  0  0  0  0  0  0  0  0  0
  186.1160  177.9030  146.0120 S   0  0  0  0  0  0  0  0  0  0  0  0
  190.8760  177.4300  140.5070 C   0  0  0  0  0  3  0  0  0  0  0  0
  190.2840  177.1840  144.6870 C   0  0  0  0  0  0  0  0  0  0  0  0
  191.7610  177.0900  142.7420 C   0  0  0  0  0  3  0  0  0  0  0  0
  186.8980  178.0280  142.0670 C   0  0  0  0  0  3  0  0  0  0  0  0
  188.7450  177.3480  146.5530 N   0  0  0  0  0  0  0  0  0  0  0  0
  190.0230  177.1230  146.0990 C   0  0  0  0  0  0  0  0  0  0  0  0
  185.7000  178.0990  144.3730 C   0  0  0  0  0  0  0  0  0  0  0  0
  187.9520  177.6560  144.3290 C   0  0  1  0  0  3  0  0  0  0  0  0
  191.5620  177.0110  144.1290 C   0  0  0  0  0  3  0  0  0  0  0  0
  192.3520  177.4260  149.1010 C   0  0  0  0  0  0  0  0  0  0  0  0
  193.1150  176.2650  148.9630 C   0  0  0  0  0  3  0  0  0  0  0  0
  191.0730  176.8350  147.1140 C   0  0  0  0  0  0  0  0  0  0  0  0
  192.8690  175.3900  147.9030 C   0  0  0  0  0  3  0  0  0  0  0  0
  191.3410  177.7100  148.1790 C   0  0  0  0  0  3  0  0  0  0  0  0
  191.8570  175.6760  146.9830 C   0  0  0  0  0  3  0  0  0  0  0  0
  192.5940  178.2780  150.1250 F   0  0  0  0  0  0  0  0  0  0  0  0
  183.3630  178.4750  142.8200 C   0  0  1  0  0  3  0  0  0  0  0  0
  182.9600  178.7630  144.1110 C   0  0  2  0  0  3  0  0  0  0  0  0
  182.5220  179.7150  143.0210 C   0  0  2  0  0  3  0  0  0  0  0  0
  184.3910  178.3940  143.8990 N   0  0  0  0  0  0  0  0  0  0  0  0
  181.0800  179.4290  142.6250 C   0  0  1  0  0  3  0  0  0  0  0  0
  180.3000  180.5520  142.9160 O   0  0  0  0  0  1  0  0  0  0  0  0
  180.3000  180.2240  140.3790 C   0  0  0  0  0  1  0  0  0  0  0  0
  180.9800  179.0970  141.1350 C   0  0  0  0  0  3  0  0  0  0  0  0
  180.1810  177.8240  140.9150 C   0  0  0  0  0  1  0  0  0  0  0  0
  1  8  1  0  0  0  0
  1 12  1  0  0  0  0
  2 13  2  0  0  0  0
  2  8  1  0  0  0  0
  3 17  1  0  0  0  0
  3 11  1  0  0  0  0
  4  9  1  0  0  0  0
  4 14  2  0  0  0  0
  5  6  2  0  0  0  0
  5 10  1  0  0  0  0
  6  2  1  0  0  0  0
  7 16  2  0  0  0  0
  8  3  2  0  0  0  0
 10  1  2  0  0  0  0
 11 15  2  0  0  0  0
 12 18  2  0  0  0  0
 13  7  1  0  0  0  0
 15 14  1  0  0  0  0
 15 21  1  0  0  0  0
 16  9  1  0  0  0  0
 17  7  1  1  0  0  0
 17  4  1  0  0  0  0
 18 11  1  0  0  0  0
 19 25  1  0  0  0  0
 20 19  1  0  0  0  0
 21 23  1  0  0  0  0
 22 20  2  0  0  0  0
 23 19  2  0  0  0  0
 24 21  2  0  0  0  0
 24 22  1  0  0  0  0
 26 28  1  0  0  0  0
 26 29  1  1  0  0  0
 26 27  1  0  0  0  0
 27 29  1  1  0  0  0
 28 30  1  6  0  0  0
 28 27  1  0  0  0  0
 29 16  1  0  0  0  0
 30 31  1  6  0  0  0
 32 33  1  0  0  0  0
 33 30  1  0  0  0  0
 34 33  1  0  0  0  0
M  END
>  <MODEL>
8

>  <REMARK>
 VINA RESULT:      -9.4      4.614      9.114
  Name = 
  4 active torsions:
  status: ('A' for Active; 'I' for Inactive)
    1  A    between atoms: C_12  and  C_28
    2  A    between atoms: C_13  and  C_14
    3  A    between atoms: C_14  and  C_22
    4  A    between atoms: N_17  and  C_29
                            x       y       z     vdW  Elec       q    Type
                         _______ _______ _______ _____ _____    ______ ____

>  <TORSDO>
F 4

$$$$
=
 OpenBabel10262423513D

 34 41  0  0  1  0  0  0  0  0999 V2000
  186.4440  178.0450  143.8310 C   0  0  0  0  0  0  0  0  0  0  0  0
  188.5430  177.4180  142.7530 C   0  0  0  0  0  0  0  0  0  0  0  0
  186.6200  178.1660  141.4180 C   0  0  0  0  0  0  0  0  0  0  0  0
  186.8360  178.3150  139.0450 C   0  0  0  0  0  0  0  0  0  0  0  0
  188.3420  177.3050  145.1220 C   0  0  0  0  0  3  0  0  0  0  0  0
  189.0660  177.1480  143.9790 N   0  0  0  0  0  0  0  0  0  0  0  0
  188.6840  177.5830  140.2480 C   0  0  0  0  0  0  0  0  0  0  0  0
  187.2030  177.8740  142.6590 C   0  0  0  0  0  0  0  0  0  0  0  0
  187.9880  178.0470  137.8460 S   0  0  0  0  0  0  0  0  0  0  0  0
  187.0190  177.7570  145.0680 C   0  0  0  0  0  3  0  0  0  0  0  0
  185.2850  178.6240  141.3110 C   0  0  0  0  0  0  0  0  0  0  0  0
  185.1260  178.5060  143.7460 C   0  0  0  0  0  3  0  0  0  0  0  0
  189.4120  177.2230  141.5180 C   0  0  0  0  0  3  0  0  0  0  0  0
  185.5610  178.7550  138.9060 N   0  0  0  0  0  0  0  0  0  0  0  0
  184.7530  178.9130  140.0070 C   0  0  0  0  0  0  0  0  0  0  0  0
  189.1830  177.5430  138.9480 C   0  0  0  0  0  0  0  0  0  0  0  0
  187.3670  178.0180  140.2700 C   0  0  1  0  0  3  0  0  0  0  0  0
  184.5540  178.7940  142.4990 C   0  0  0  0  0  3  0  0  0  0  0  0
  181.7480  180.8400  138.6720 C   0  0  0  0  0  0  0  0  0  0  0  0
  180.7180  180.2880  139.4350 C   0  0  0  0  0  3  0  0  0  0  0  0
  183.3620  179.3880  139.7770 C   0  0  0  0  0  0  0  0  0  0  0  0
  181.0010  179.2940  140.3730 C   0  0  0  0  0  3  0  0  0  0  0  0
  183.0620  180.3960  138.8460 C   0  0  0  0  0  3  0  0  0  0  0  0
  182.3160  178.8500  140.5450 C   0  0  0  0  0  3  0  0  0  0  0  0
  181.4760  181.8090  137.7650 F   0  0  0  0  0  0  0  0  0  0  0  0
  191.5280  176.7260  137.5880 C   0  0  1  0  0  3  0  0  0  0  0  0
  191.9430  176.9130  138.8940 C   0  0  2  0  0  3  0  0  0  0  0  0
  192.4100  175.6580  138.1920 C   0  0  2  0  0  3  0  0  0  0  0  0
  190.5000  177.1430  138.5880 N   0  0  0  0  0  0  0  0  0  0  0  0
  193.8410  175.8330  137.7030 C   0  0  1  0  0  3  0  0  0  0  0  0
  194.6840  175.0250  138.4710 O   0  0  0  0  0  1  0  0  0  0  0  0
  194.7280  174.1550  136.0650 C   0  0  0  0  0  1  0  0  0  0  0  0
  193.9600  175.4560  136.2250 C   0  0  0  0  0  3  0  0  0  0  0  0
  194.6870  176.5380  135.4460 C   0  0  0  0  0  1  0  0  0  0  0  0
  1 10  2  0  0  0  0
  2  6  1  0  0  0  0
  3  8  2  0  0  0  0
  6  5  2  0  0  0  0
  7 17  1  0  0  0  0
  7 13  1  0  0  0  0
  8  2  1  0  0  0  0
  8  1  1  0  0  0  0
  9 16  1  0  0  0  0
  9  4  1  0  0  0  0
 10  5  1  0  0  0  0
 11  3  1  0  0  0  0
 11 18  1  0  0  0  0
 12  1  1  0  0  0  0
 13  2  2  0  0  0  0
 14  4  2  0  0  0  0
 14 15  1  0  0  0  0
 15 11  2  0  0  0  0
 16  7  2  0  0  0  0
 17  4  1  1  0  0  0
 17  3  1  0  0  0  0
 18 12  2  0  0  0  0
 19 23  2  0  0  0  0
 19 20  1  0  0  0  0
 20 22  2  0  0  0  0
 21 15  1  0  0  0  0
 21 24  2  0  0  0  0
 22 24  1  0  0  0  0
 23 21  1  0  0  0  0
 25 19  1  0  0  0  0
 26 28  1  0  0  0  0
 26 29  1  1  0  0  0
 26 27  1  0  0  0  0
 27 29  1  1  0  0  0
 28 30  1  6  0  0  0
 28 27  1  0  0  0  0
 29 16  1  0  0  0  0
 30 31  1  1  0  0  0
 32 33  1  0  0  0  0
 33 30  1  0  0  0  0
 34 33  1  0  0  0  0
M  END
>  <MODEL>
9

>  <REMARK>
 VINA RESULT:      -8.8      2.142      3.096
  Name = 
  4 active torsions:
  status: ('A' for Active; 'I' for Inactive)
    1  A    between atoms: C_12  and  C_28
    2  A    between atoms: C_13  and  C_14
    3  A    between atoms: C_14  and  C_22
    4  A    between atoms: N_17  and  C_29
                            x       y       z     vdW  Elec       q    Type
                         _______ _______ _______ _____ _____    ______ ____

>  <TORSDO>
F 4

$$$$
