=
 OpenBabel10272400023D

 34 40  0  0  1  0  0  0  0  0999 V2000
  189.0540  177.2030  145.9010 C   0  0  0  0  0  0  0  0  0  0  0  0
  190.6080  177.1090  143.9800 C   0  0  0  0  0  0  0  0  0  0  0  0
  188.2750  177.8910  143.7620 C   0  0  0  0  0  0  0  0  0  0  0  0
  186.8670  178.4130  140.5490 C   0  0  0  0  0  3  0  0  0  0  0  0
  191.3510  176.5390  146.2360 C   0  0  0  0  0  3  0  0  0  0  0  0
  191.6070  176.6930  144.8700 C   0  0  0  0  0  3  0  0  0  0  0  0
  190.3030  177.4060  141.4060 C   0  0  0  0  0  0  0  0  0  0  0  0
  189.3240  177.4040  144.5190 C   0  0  0  0  0  0  0  0  0  0  0  0
  188.2190  178.0500  140.1910 O   0  0  0  0  0  0  0  0  0  0  0  0
  190.0770  176.7810  146.7480 C   0  0  0  0  0  2  0  0  0  0  0  0
  186.9860  178.0650  144.2330 C   0  0  0  0  0  0  0  0  0  0  0  0
  187.7530  177.4090  146.4170 C   0  0  0  0  0  3  0  0  0  0  0  0
  190.9860  177.1180  142.6160 C   0  0  0  0  0  3  0  0  0  0  0  0
  186.9740  178.4930  142.0370 C   0  0  0  0  0  0  0  0  0  0  0  0
  186.1400  178.4100  143.1550 C   0  0  0  0  0  0  0  0  0  0  0  0
  188.9940  177.8740  141.3440 C   0  0  0  0  0  0  0  0  0  0  0  0
  188.2260  178.1960  142.3930 C   0  0  0  0  0  0  0  0  0  0  0  0
  186.6980  177.8240  145.5780 C   0  0  0  0  0  3  0  0  0  0  0  0
  182.5340  178.5410  141.9950 C   0  0  0  0  0  0  0  0  0  0  0  0
  181.8680  178.7870  143.1980 C   0  0  0  0  0  3  0  0  0  0  0  0
  184.6660  178.5430  143.1640 C   0  0  0  0  0  0  0  0  0  0  0  0
  182.5950  178.9110  144.3850 C   0  0  0  0  0  3  0  0  0  0  0  0
  183.9260  178.4180  141.9790 C   0  0  0  0  0  3  0  0  0  0  0  0
  183.9870  178.7880  144.3680 C   0  0  0  0  0  3  0  0  0  0  0  0
  181.8130  178.4180  140.8150 O   0  0  0  0  0  1  0  0  0  0  0  0
  190.6730  176.2620  139.3690 N   0  0  0  0  0  0  0  0  0  0  0  0
  190.9840  177.2060  140.1630 N   0  0  0  0  0  0  0  0  0  0  0  0
  190.1770  174.0570  137.7210 O   0  0  0  0  0  0  0  0  0  0  0  0
  191.3860  176.0880  138.1140 C   0  0  2  0  0  3  0  0  0  0  0  0
  191.2820  174.6590  137.6490 C   0  0  0  0  0  0  0  0  0  0  0  0
  193.6920  174.5430  137.0870 C   0  0  0  0  0  2  0  0  0  0  0  0
  193.6840  176.0650  137.0990 C   0  0  0  0  0  2  0  0  0  0  0  0
  192.8440  176.5240  138.2800 C   0  0  0  0  0  2  0  0  0  0  0  0
  192.3630  174.0290  137.0220 O   0  0  0  0  0  0  0  0  0  0  0  0
  1 12  1  0  0  0  0
  1 10  1  0  0  0  0
  2  8  1  0  0  0  0
  2  6  1  0  0  0  0
  3 11  1  0  0  0  0
  3  8  1  0  0  0  0
  4 14  2  0  0  0  0
  5 10  1  0  0  0  0
  6  5  2  0  0  0  0
  7 13  1  0  0  0  0
  8  1  2  0  0  0  0
  9  4  1  0  0  0  0
  9 16  1  0  0  0  0
 11 18  1  0  0  0  0
 13  2  2  0  0  0  0
 14 17  1  0  0  0  0
 14 15  1  0  0  0  0
 15 21  1  0  0  0  0
 15 11  2  0  0  0  0
 16  7  2  0  0  0  0
 16 17  1  0  0  0  0
 17  3  2  0  0  0  0
 18 12  2  0  0  0  0
 19 20  1  0  0  0  0
 20 22  2  0  0  0  0
 21 24  2  0  0  0  0
 23 19  2  0  0  0  0
 23 21  1  0  0  0  0
 24 22  1  0  0  0  0
 25 19  1  0  0  0  0
 26 27  2  0  0  0  0
 27  7  1  0  0  0  0
 29 33  1  0  0  0  0
 29 26  1  1  0  0  0
 30 28  2  0  0  0  0
 30 29  1  0  0  0  0
 31 32  1  0  0  0  0
 32 33  1  0  0  0  0
 34 31  1  0  0  0  0
 34 30  1  0  0  0  0
M  END
>  <MODEL>
1

>  <REMARK>
 VINA RESULT:     -12.4      0.000      0.000
  Name = 
  3 active torsions:
  status: ('A' for Active; 'I' for Inactive)
    1  A    between atoms: N_3  and  C_13
    2  A    between atoms: C_10  and  N_17
    3  A    between atoms: C_12  and  C_28
                            x       y       z     vdW  Elec       q    Type
                         _______ _______ _______ _____ _____    ______ ____

>  <TORSDO>
F 3

$$$$
=
 OpenBabel10272400023D

 34 40  0  0  1  0  0  0  0  0999 V2000
  184.0230  178.6020  144.7100 C   0  0  0  0  0  0  0  0  0  0  0  0
  184.4440  178.6390  142.2730 C   0  0  0  0  0  0  0  0  0  0  0  0
  186.1790  177.9980  143.9100 C   0  0  0  0  0  0  0  0  0  0  0  0
  189.5490  177.6140  142.8720 C   0  0  0  0  0  3  0  0  0  0  0  0
  182.2290  179.1250  143.1800 C   0  0  0  0  0  3  0  0  0  0  0  0
  183.0970  178.9820  142.0940 C   0  0  0  0  0  3  0  0  0  0  0  0
  186.5970  178.4060  140.8190 C   0  0  0  0  0  0  0  0  0  0  0  0
  184.8960  178.4090  143.6030 C   0  0  0  0  0  0  0  0  0  0  0  0
  188.9130  177.9050  141.6080 O   0  0  0  0  0  0  0  0  0  0  0  0
  182.6920  178.9480  144.4840 C   0  0  0  0  0  2  0  0  0  0  0  0
  186.6790  177.8900  145.1950 C   0  0  0  0  0  0  0  0  0  0  0  0
  184.4990  178.4610  146.0350 C   0  0  0  0  0  3  0  0  0  0  0  0
  185.2240  178.6330  141.0920 C   0  0  0  0  0  3  0  0  0  0  0  0
  188.3620  177.5020  143.7730 C   0  0  0  0  0  0  0  0  0  0  0  0
  188.0640  177.6130  145.1340 C   0  0  0  0  0  0  0  0  0  0  0  0
  187.5270  178.0160  141.7780 C   0  0  0  0  0  0  0  0  0  0  0  0
  187.2580  177.7200  143.0560 C   0  0  0  0  0  0  0  0  0  0  0  0
  185.8430  178.1230  146.2890 C   0  0  0  0  0  3  0  0  0  0  0  0
  191.1680  176.8620  147.1740 C   0  0  0  0  0  0  0  0  0  0  0  0
  190.8610  177.4920  148.3830 C   0  0  0  0  0  3  0  0  0  0  0  0
  189.0310  177.5660  146.2530 C   0  0  0  0  0  0  0  0  0  0  0  0
  189.6430  178.1600  148.5310 C   0  0  0  0  0  3  0  0  0  0  0  0
  190.2580  176.9000  146.1150 C   0  0  0  0  0  3  0  0  0  0  0  0
  188.7330  178.1970  147.4700 C   0  0  0  0  0  3  0  0  0  0  0  0
  192.3790  176.1980  147.0250 O   0  0  0  0  0  1  0  0  0  0  0  0
  186.4050  178.2140  138.4690 N   0  0  0  0  0  0  0  0  0  0  0  0
  187.0770  178.5880  139.4830 N   0  0  0  0  0  0  0  0  0  0  0  0
  184.9900  177.3160  136.2290 O   0  0  0  0  0  0  0  0  0  0  0  0
  186.9220  178.4140  137.1250 C   0  0  2  0  0  3  0  0  0  0  0  0
  186.2370  177.4830  136.1590 C   0  0  0  0  0  0  0  0  0  0  0  0
  188.3710  176.8550  135.0690 C   0  0  0  0  0  2  0  0  0  0  0  0
  188.9660  178.1070  135.6960 C   0  0  0  0  0  2  0  0  0  0  0  0
  188.4400  178.2190  137.1190 C   0  0  0  0  0  2  0  0  0  0  0  0
  186.9460  176.8970  135.1040 O   0  0  0  0  0  0  0  0  0  0  0  0
  1 12  1  0  0  0  0
  2  8  1  0  0  0  0
  3 11  1  0  0  0  0
  4 14  2  0  0  0  0
  5 10  1  0  0  0  0
  6  2  1  0  0  0  0
  6  5  2  0  0  0  0
  7 13  1  0  0  0  0
  7 16  2  0  0  0  0
  8  3  1  0  0  0  0
  8  1  2  0  0  0  0
  9 16  1  0  0  0  0
  9  4  1  0  0  0  0
 10  1  1  0  0  0  0
 11 18  1  0  0  0  0
 12 18  2  0  0  0  0
 13  2  2  0  0  0  0
 14 15  1  0  0  0  0
 15 11  2  0  0  0  0
 15 21  1  0  0  0  0
 16 17  1  0  0  0  0
 17 14  1  0  0  0  0
 17  3  2  0  0  0  0
 19 20  1  0  0  0  0
 20 22  2  0  0  0  0
 21 24  2  0  0  0  0
 23 21  1  0  0  0  0
 23 19  2  0  0  0  0
 24 22  1  0  0  0  0
 25 19  1  0  0  0  0
 26 27  2  0  0  0  0
 27  7  1  0  0  0  0
 29 26  1  1  0  0  0
 30 28  2  0  0  0  0
 30 29  1  0  0  0  0
 31 34  1  0  0  0  0
 31 32  1  0  0  0  0
 32 33  1  0  0  0  0
 33 29  1  0  0  0  0
 34 30  1  0  0  0  0
M  END
>  <MODEL>
2

>  <REMARK>
 VINA RESULT:     -12.2      2.890      6.133
  Name = 
  3 active torsions:
  status: ('A' for Active; 'I' for Inactive)
    1  A    between atoms: N_3  and  C_13
    2  A    between atoms: C_10  and  N_17
    3  A    between atoms: C_12  and  C_28
                            x       y       z     vdW  Elec       q    Type
                         _______ _______ _______ _____ _____    ______ ____

>  <TORSDO>
F 3

$$$$
=
 OpenBabel10272400023D

 34 40  0  0  1  0  0  0  0  0999 V2000
  186.9060  177.8620  146.3570 C   0  0  0  0  0  0  0  0  0  0  0  0
  188.6620  177.7670  144.6190 C   0  0  0  0  0  0  0  0  0  0  0  0
  186.3290  178.3990  144.1140 C   0  0  0  0  0  0  0  0  0  0  0  0
  185.2520  178.6810  140.7460 C   0  0  0  0  0  3  0  0  0  0  0  0
  189.1860  177.3520  146.9680 C   0  0  0  0  0  3  0  0  0  0  0  0
  189.5790  177.4530  145.6310 C   0  0  0  0  0  3  0  0  0  0  0  0
  188.6230  177.9190  142.0150 C   0  0  0  0  0  0  0  0  0  0  0  0
  187.3140  178.0120  145.0020 C   0  0  0  0  0  0  0  0  0  0  0  0
  186.6520  178.3810  140.5530 O   0  0  0  0  0  0  0  0  0  0  0  0
  187.8530  177.5430  147.3290 C   0  0  0  0  0  2  0  0  0  0  0  0
  184.9890  178.5200  144.4360 C   0  0  0  0  0  0  0  0  0  0  0  0
  185.5480  178.0180  146.7210 C   0  0  0  0  0  3  0  0  0  0  0  0
  189.1850  177.7310  143.3030 C   0  0  0  0  0  3  0  0  0  0  0  0
  185.1920  178.8390  142.2300 C   0  0  0  0  0  0  0  0  0  0  0  0
  184.2470  178.7630  143.2570 C   0  0  0  0  0  0  0  0  0  0  0  0
  187.3050  178.3060  141.7890 C   0  0  0  0  0  0  0  0  0  0  0  0
  186.4120  178.6340  142.7320 C   0  0  0  0  0  0  0  0  0  0  0  0
  184.5700  178.3290  145.7530 C   0  0  0  0  0  3  0  0  0  0  0  0
  180.7960  178.8470  141.6920 C   0  0  0  0  0  0  0  0  0  0  0  0
  179.9820  178.8880  142.8270 C   0  0  0  0  0  3  0  0  0  0  0  0
  182.7760  178.8090  143.1030 C   0  0  0  0  0  0  0  0  0  0  0  0
  180.5590  178.8890  144.1000 C   0  0  0  0  0  3  0  0  0  0  0  0
  182.1860  178.8060  141.8310 C   0  0  0  0  0  3  0  0  0  0  0  0
  181.9490  178.8490  144.2360 C   0  0  0  0  0  3  0  0  0  0  0  0
  180.2240  178.8450  140.4270 O   0  0  0  0  0  1  0  0  0  0  0  0
  189.1210  178.1360  139.7120 N   0  0  0  0  0  0  0  0  0  0  0  0
  189.4430  177.6990  140.8630 N   0  0  0  0  0  0  0  0  0  0  0  0
  188.7440  179.5230  137.3130 O   0  0  0  0  0  0  0  0  0  0  0  0
  189.9780  177.8940  138.5630 C   0  0  2  0  0  3  0  0  0  0  0  0
  189.3220  178.4030  137.3070 C   0  0  0  0  0  0  0  0  0  0  0  0
  189.8940  176.3540  136.0380 C   0  0  0  0  0  2  0  0  0  0  0  0
  190.9280  176.0720  137.1180 C   0  0  0  0  0  2  0  0  0  0  0  0
  190.3070  176.4020  138.4660 C   0  0  0  0  0  2  0  0  0  0  0  0
  189.4520  177.7080  136.0990 O   0  0  0  0  0  0  0  0  0  0  0  0
  1 12  1  0  0  0  0
  1 10  1  0  0  0  0
  2  8  1  0  0  0  0
  2  6  1  0  0  0  0
  3 11  1  0  0  0  0
  3  8  1  0  0  0  0
  4 14  2  0  0  0  0
  5 10  1  0  0  0  0
  6  5  2  0  0  0  0
  7 13  1  0  0  0  0
  8  1  2  0  0  0  0
  9  4  1  0  0  0  0
  9 16  1  0  0  0  0
 11 18  1  0  0  0  0
 13  2  2  0  0  0  0
 14 17  1  0  0  0  0
 14 15  1  0  0  0  0
 15 11  2  0  0  0  0
 16  7  2  0  0  0  0
 16 17  1  0  0  0  0
 17  3  2  0  0  0  0
 18 12  2  0  0  0  0
 19 23  2  0  0  0  0
 19 20  1  0  0  0  0
 20 22  2  0  0  0  0
 21 15  1  0  0  0  0
 21 24  2  0  0  0  0
 22 24  1  0  0  0  0
 23 21  1  0  0  0  0
 25 19  1  0  0  0  0
 26 27  2  0  0  0  0
 27  7  1  0  0  0  0
 29 26  1  1  0  0  0
 30 28  2  0  0  0  0
 30 29  1  0  0  0  0
 31 34  1  0  0  0  0
 31 32  1  0  0  0  0
 32 33  1  0  0  0  0
 33 29  1  0  0  0  0
 34 30  1  0  0  0  0
M  END
>  <MODEL>
3

>  <REMARK>
 VINA RESULT:     -11.6      1.825      2.557
  Name = 
  3 active torsions:
  status: ('A' for Active; 'I' for Inactive)
    1  A    between atoms: N_3  and  C_13
    2  A    between atoms: C_10  and  N_17
    3  A    between atoms: C_12  and  C_28
                            x       y       z     vdW  Elec       q    Type
                         _______ _______ _______ _____ _____    ______ ____

>  <TORSDO>
F 3

$$$$
=
 OpenBabel10272400023D

 34 40  0  0  1  0  0  0  0  0999 V2000
  185.3350  178.3160  145.5210 C   0  0  0  0  0  0  0  0  0  0  0  0
  185.3800  178.6310  143.0690 C   0  0  0  0  0  0  0  0  0  0  0  0
  187.2760  177.6570  144.3160 C   0  0  0  0  0  0  0  0  0  0  0  0
  190.3960  177.1550  142.7040 C   0  0  0  0  0  3  0  0  0  0  0  0
  183.3860  179.1640  144.3750 C   0  0  0  0  0  3  0  0  0  0  0  0
  184.0610  179.0950  143.1520 C   0  0  0  0  0  3  0  0  0  0  0  0
  187.2530  178.4230  141.2650 C   0  0  0  0  0  0  0  0  0  0  0  0
  186.0070  178.2000  144.2710 C   0  0  0  0  0  0  0  0  0  0  0  0
  189.6040  177.6510  141.6020 O   0  0  0  0  0  0  0  0  0  0  0  0
  184.0240  178.7880  145.5560 C   0  0  0  0  0  2  0  0  0  0  0  0
  187.9550  177.3490  145.4810 C   0  0  0  0  0  0  0  0  0  0  0  0
  185.9930  177.9720  146.7250 C   0  0  0  0  0  3  0  0  0  0  0  0
  185.9660  178.7160  141.7820 C   0  0  0  0  0  3  0  0  0  0  0  0
  189.3560  177.0190  143.7680 C   0  0  0  0  0  0  0  0  0  0  0  0
  189.2810  176.9780  145.1630 C   0  0  0  0  0  0  0  0  0  0  0  0
  188.2780  177.8440  142.0080 C   0  0  0  0  0  0  0  0  0  0  0  0
  188.1810  177.4090  143.2710 C   0  0  0  0  0  0  0  0  0  0  0  0
  187.3230  177.5040  146.7160 C   0  0  0  0  0  3  0  0  0  0  0  0
  191.6280  177.2410  148.1280 C   0  0  0  0  0  0  0  0  0  0  0  0
  192.5200  176.1990  147.8640 C   0  0  0  0  0  3  0  0  0  0  0  0
  190.3990  176.7160  146.0960 C   0  0  0  0  0  0  0  0  0  0  0  0
  192.3570  175.4130  146.7200 C   0  0  0  0  0  3  0  0  0  0  0  0
  190.5720  177.4960  147.2490 C   0  0  0  0  0  3  0  0  0  0  0  0
  191.3000  175.6710  145.8420 C   0  0  0  0  0  3  0  0  0  0  0  0
  191.7890  178.0220  149.2650 O   0  0  0  0  0  1  0  0  0  0  0  0
  187.6380  177.8340  139.0060 N   0  0  0  0  0  0  0  0  0  0  0  0
  187.5370  178.7370  139.8970 N   0  0  0  0  0  0  0  0  0  0  0  0
  185.5940  178.0380  137.1080 O   0  0  0  0  0  0  0  0  0  0  0  0
  187.9290  178.1880  137.6260 C   0  0  2  0  0  3  0  0  0  0  0  0
  186.7750  177.8050  136.7360 C   0  0  0  0  0  0  0  0  0  0  0  0
  188.2710  176.8170  135.0260 C   0  0  0  0  0  2  0  0  0  0  0  0
  189.3980  177.6080  135.6730 C   0  0  0  0  0  2  0  0  0  0  0  0
  189.2330  177.5210  137.1820 C   0  0  0  0  0  2  0  0  0  0  0  0
  187.0000  177.3070  135.4470 O   0  0  0  0  0  0  0  0  0  0  0  0
  1 10  1  0  0  0  0
  1 12  1  0  0  0  0
  2  6  1  0  0  0  0
  2  8  1  0  0  0  0
  3 11  1  0  0  0  0
  4 14  2  0  0  0  0
  5 10  1  0  0  0  0
  6  5  2  0  0  0  0
  7 13  1  0  0  0  0
  7 16  2  0  0  0  0
  8  3  1  0  0  0  0
  8  1  2  0  0  0  0
  9 16  1  0  0  0  0
  9  4  1  0  0  0  0
 11 18  1  0  0  0  0
 13  2  2  0  0  0  0
 14 15  1  0  0  0  0
 15 11  2  0  0  0  0
 15 21  1  0  0  0  0
 16 17  1  0  0  0  0
 17 14  1  0  0  0  0
 17  3  2  0  0  0  0
 18 12  2  0  0  0  0
 19 25  1  0  0  0  0
 20 19  1  0  0  0  0
 21 23  1  0  0  0  0
 22 20  2  0  0  0  0
 23 19  2  0  0  0  0
 24 21  2  0  0  0  0
 24 22  1  0  0  0  0
 26 27  2  0  0  0  0
 27  7  1  0  0  0  0
 29 26  1  1  0  0  0
 30 28  2  0  0  0  0
 30 29  1  0  0  0  0
 31 34  1  0  0  0  0
 31 32  1  0  0  0  0
 32 33  1  0  0  0  0
 33 29  1  0  0  0  0
 34 30  1  0  0  0  0
M  END
>  <MODEL>
4

>  <REMARK>
 VINA RESULT:     -11.3      2.751      6.184
  Name = 
  3 active torsions:
  status: ('A' for Active; 'I' for Inactive)
    1  A    between atoms: N_3  and  C_13
    2  A    between atoms: C_10  and  N_17
    3  A    between atoms: C_12  and  C_28
                            x       y       z     vdW  Elec       q    Type
                         _______ _______ _______ _____ _____    ______ ____

>  <TORSDO>
F 3

$$$$
=
 OpenBabel10272400023D

 34 40  0  0  1  0  0  0  0  0999 V2000
  190.2020  176.9080  145.7030 C   0  0  0  0  0  0  0  0  0  0  0  0
  187.8520  177.6690  145.5970 C   0  0  0  0  0  0  0  0  0  0  0  0
  189.1690  177.1430  143.5740 C   0  0  0  0  0  0  0  0  0  0  0  0
  187.9110  177.9790  140.3650 C   0  0  0  0  0  3  0  0  0  0  0  0
  188.9580  177.2810  147.7390 C   0  0  0  0  0  3  0  0  0  0  0  0
  187.8360  177.6600  146.9970 C   0  0  0  0  0  3  0  0  0  0  0  0
  186.2910  178.4130  143.6420 C   0  0  0  0  0  0  0  0  0  0  0  0
  189.0460  177.2480  144.9460 C   0  0  0  0  0  0  0  0  0  0  0  0
  186.8050  178.3900  141.1990 O   0  0  0  0  0  0  0  0  0  0  0  0
  190.1410  176.9180  147.0960 C   0  0  0  0  0  2  0  0  0  0  0  0
  190.3520  176.8600  142.9150 C   0  0  0  0  0  0  0  0  0  0  0  0
  191.4150  176.5770  145.0540 C   0  0  0  0  0  3  0  0  0  0  0  0
  186.6790  178.1750  144.9860 C   0  0  0  0  0  3  0  0  0  0  0  0
  188.8010  177.3210  141.3690 C   0  0  0  0  0  0  0  0  0  0  0  0
  190.1530  177.0010  141.5230 C   0  0  0  0  0  0  0  0  0  0  0  0
  187.0630  178.0670  142.5370 C   0  0  0  0  0  0  0  0  0  0  0  0
  188.2220  177.3980  142.5690 C   0  0  0  0  0  0  0  0  0  0  0  0
  191.5040  176.5710  143.6470 C   0  0  0  0  0  3  0  0  0  0  0  0
  191.7960  176.4600  138.1500 C   0  0  0  0  0  0  0  0  0  0  0  0
  193.1100  176.8490  138.4200 C   0  0  0  0  0  3  0  0  0  0  0  0
  191.1700  176.9430  140.4500 C   0  0  0  0  0  0  0  0  0  0  0  0
  193.4590  177.2860  139.7010 C   0  0  0  0  0  3  0  0  0  0  0  0
  190.8310  176.5080  139.1600 C   0  0  0  0  0  3  0  0  0  0  0  0
  192.4930  177.3330  140.7100 C   0  0  0  0  0  3  0  0  0  0  0  0
  191.4480  176.0260  136.8780 O   0  0  0  0  0  1  0  0  0  0  0  0
  184.0790  178.4430  142.8060 N   0  0  0  0  0  0  0  0  0  0  0  0
  185.0350  179.0490  143.3870 N   0  0  0  0  0  0  0  0  0  0  0  0
  182.2090  178.7940  144.8560 O   0  0  0  0  0  0  0  0  0  0  0  0
  182.8160  179.1200  142.5610 C   0  0  2  0  0  3  0  0  0  0  0  0
  181.8310  178.7960  143.6540 C   0  0  0  0  0  0  0  0  0  0  0  0
  179.9940  178.3960  142.0400 C   0  0  0  0  0  2  0  0  0  0  0  0
  180.8280  179.1640  141.0250 C   0  0  0  0  0  2  0  0  0  0  0  0
  182.2780  178.7330  141.1810 C   0  0  0  0  0  2  0  0  0  0  0  0
  180.4720  178.6210  143.3650 O   0  0  0  0  0  0  0  0  0  0  0  0
  1 10  1  0  0  0  0
  2  6  1  0  0  0  0
  3  8  1  0  0  0  0
  4  9  1  0  0  0  0
  4 14  2  0  0  0  0
  6  5  2  0  0  0  0
  7 13  1  0  0  0  0
  8  2  1  0  0  0  0
  8  1  2  0  0  0  0
  9 16  1  0  0  0  0
 10  5  1  0  0  0  0
 11  3  1  0  0  0  0
 11 18  1  0  0  0  0
 12  1  1  0  0  0  0
 13  2  2  0  0  0  0
 14 15  1  0  0  0  0
 14 17  1  0  0  0  0
 15 11  2  0  0  0  0
 16 17  1  0  0  0  0
 16  7  2  0  0  0  0
 17  3  2  0  0  0  0
 18 12  2  0  0  0  0
 19 20  2  0  0  0  0
 19 23  1  0  0  0  0
 20 22  1  0  0  0  0
 21 24  1  0  0  0  0
 21 15  1  0  0  0  0
 22 24  2  0  0  0  0
 23 21  2  0  0  0  0
 25 19  1  0  0  0  0
 26 27  2  0  0  0  0
 27  7  1  0  0  0  0
 29 26  1  1  0  0  0
 29 30  1  0  0  0  0
 30 28  2  0  0  0  0
 31 34  1  0  0  0  0
 32 33  1  0  0  0  0
 32 31  1  0  0  0  0
 33 29  1  0  0  0  0
 34 30  1  0  0  0  0
M  END
>  <MODEL>
5

>  <REMARK>
 VINA RESULT:     -11.0      2.257      7.923
  Name = 
  3 active torsions:
  status: ('A' for Active; 'I' for Inactive)
    1  A    between atoms: N_3  and  C_13
    2  A    between atoms: C_10  and  N_17
    3  A    between atoms: C_12  and  C_28
                            x       y       z     vdW  Elec       q    Type
                         _______ _______ _______ _____ _____    ______ ____

>  <TORSDO>
F 3

$$$$
=
 OpenBabel10272400023D

 34 40  0  0  1  0  0  0  0  0999 V2000
  184.3880  178.6550  142.5340 C   0  0  0  0  0  0  0  0  0  0  0  0
  185.7090  178.4380  140.4550 C   0  0  0  0  0  0  0  0  0  0  0  0
  186.6500  177.9370  142.6840 C   0  0  0  0  0  0  0  0  0  0  0  0
  190.1340  177.3940  143.0620 C   0  0  0  0  0  3  0  0  0  0  0  0
  183.3450  179.0500  140.3930 C   0  0  0  0  0  3  0  0  0  0  0  0
  184.5530  178.7830  139.7420 C   0  0  0  0  0  3  0  0  0  0  0  0
  188.2380  178.0230  139.9690 C   0  0  0  0  0  0  0  0  0  0  0  0
  185.6060  178.3360  141.8710 C   0  0  1  0  0  3  0  0  0  0  0  0
  190.0460  177.5650  141.6300 O   0  0  0  0  0  0  0  0  0  0  0  0
  183.2650  178.9990  141.7840 C   0  0  0  0  0  3  0  0  0  0  0  0
  186.6150  177.9520  144.0660 C   0  0  0  0  0  0  0  0  0  0  0  0
  184.3130  178.6410  143.9470 C   0  0  0  0  0  3  0  0  0  0  0  0
  186.8790  178.2980  139.6710 C   0  0  0  0  0  3  0  0  0  0  0  0
  188.6890  177.3930  143.4420 C   0  0  0  0  0  0  0  0  0  0  0  0
  187.9000  177.6470  144.5670 C   0  0  0  0  0  0  0  0  0  0  0  0
  188.7090  177.7160  141.2430 C   0  0  0  0  0  0  0  0  0  0  0  0
  187.9560  177.5560  142.3390 C   0  0  0  0  0  0  0  0  0  0  0  0
  185.4390  178.3080  144.7290 C   0  0  0  0  0  3  0  0  0  0  0  0
  190.1250  177.4500  147.6300 C   0  0  0  0  0  0  0  0  0  0  0  0
  189.2290  177.8060  148.6420 C   0  0  0  0  0  3  0  0  0  0  0  0
  188.3630  177.6970  145.9720 C   0  0  0  0  0  0  0  0  0  0  0  0
  187.9030  178.1080  148.3250 C   0  0  0  0  0  3  0  0  0  0  0  0
  189.6930  177.3980  146.3020 C   0  0  0  0  0  3  0  0  0  0  0  0
  187.4720  178.0550  146.9960 C   0  0  0  0  0  3  0  0  0  0  0  0
  191.4430  177.1500  147.9440 O   0  0  0  0  0  1  0  0  0  0  0  0
  189.6540  176.9990  138.3740 N   0  0  0  0  0  0  0  0  0  0  0  0
  189.2000  178.0600  138.9100 N   0  0  0  0  0  0  0  0  0  0  0  0
  188.8770  176.7750  135.6970 O   0  0  0  0  0  0  0  0  0  0  0  0
  190.6310  177.0730  137.3010 C   0  0  2  0  0  3  0  0  0  0  0  0
  190.0580  176.4950  136.0330 C   0  0  0  0  0  0  0  0  0  0  0  0
  192.1220  175.2140  135.5470 C   0  0  0  0  0  2  0  0  0  0  0  0
  192.8310  176.1420  136.5220 C   0  0  0  0  0  2  0  0  0  0  0  0
  191.9180  176.3570  137.7190 C   0  0  0  0  0  2  0  0  0  0  0  0
  190.8600  175.7530  135.1580 O   0  0  0  0  0  0  0  0  0  0  0  0
  1 12  1  0  0  0  0
  3 11  1  0  0  0  0
  4 14  2  0  0  0  0
  5 10  1  0  0  0  0
  6  5  2  0  0  0  0
  6  2  1  0  0  0  0
  7 16  2  0  0  0  0
  8  2  1  1  0  0  0
  8  1  1  0  0  0  0
  8  3  1  0  0  0  0
  9  4  1  0  0  0  0
 10  1  2  0  0  0  0
 11 15  2  0  0  0  0
 11 18  1  0  0  0  0
 12 18  2  0  0  0  0
 13  7  1  0  0  0  0
 13  2  2  0  0  0  0
 14 15  1  0  0  0  0
 15 21  1  0  0  0  0
 16  9  1  0  0  0  0
 16 17  1  0  0  0  0
 17  3  2  0  0  0  0
 17 14  1  0  0  0  0
 19 25  1  0  0  0  0
 19 20  1  0  0  0  0
 21 23  1  0  0  0  0
 21 24  2  0  0  0  0
 22 20  2  0  0  0  0
 23 19  2  0  0  0  0
 24 22  1  0  0  0  0
 26 27  2  0  0  0  0
 27  7  1  0  0  0  0
 28 30  2  0  0  0  0
 29 33  1  0  0  0  0
 29 26  1  1  0  0  0
 30 29  1  0  0  0  0
 31 32  1  0  0  0  0
 32 33  1  0  0  0  0
 34 31  1  0  0  0  0
 34 30  1  0  0  0  0
M  END
>  <MODEL>
6

>  <REMARK>
 VINA RESULT:     -11.0      2.157      5.310
  Name = 
  3 active torsions:
  status: ('A' for Active; 'I' for Inactive)
    1  A    between atoms: N_3  and  C_13
    2  A    between atoms: C_10  and  N_17
    3  A    between atoms: C_12  and  C_28
                            x       y       z     vdW  Elec       q    Type
                         _______ _______ _______ _____ _____    ______ ____

>  <TORSDO>
F 3

$$$$
=
 OpenBabel10272400023D

 34 40  0  0  1  0  0  0  0  0999 V2000
  188.9700  177.3340  144.8090 C   0  0  0  0  0  0  0  0  0  0  0  0
  190.2490  177.3250  142.6930 C   0  0  0  0  0  0  0  0  0  0  0  0
  187.8940  178.0600  142.8170 C   0  0  0  0  0  0  0  0  0  0  0  0
  186.0510  178.6340  139.8410 C   0  0  0  0  0  3  0  0  0  0  0  0
  191.3030  176.7130  144.8100 C   0  0  0  0  0  3  0  0  0  0  0  0
  191.3670  176.9070  143.4270 C   0  0  0  0  0  3  0  0  0  0  0  0
  189.5900  177.6810  140.1940 C   0  0  0  0  0  0  0  0  0  0  0  0
  189.0450  177.5770  143.4090 C   0  0  0  0  0  0  0  0  0  0  0  0
  187.3480  178.3110  139.2920 O   0  0  0  0  0  0  0  0  0  0  0  0
  190.1070  176.9130  145.4970 C   0  0  0  0  0  2  0  0  0  0  0  0
  186.6780  178.1930  143.4630 C   0  0  0  0  0  0  0  0  0  0  0  0
  187.7470  177.4990  145.5030 C   0  0  0  0  0  3  0  0  0  0  0  0
  190.4370  177.3770  141.2910 C   0  0  0  0  0  3  0  0  0  0  0  0
  186.3590  178.6770  141.3020 C   0  0  0  0  0  0  0  0  0  0  0  0
  185.6870  178.5470  142.5210 C   0  0  0  0  0  0  0  0  0  0  0  0
  188.2760  178.1210  140.3240 C   0  0  0  0  0  0  0  0  0  0  0  0
  187.6530  178.3990  141.4760 C   0  0  0  0  0  0  0  0  0  0  0  0
  186.5810  177.9110  144.8270 C   0  0  0  0  0  3  0  0  0  0  0  0
  181.9550  178.6400  141.8640 C   0  0  0  0  0  0  0  0  0  0  0  0
  181.4540  178.8290  143.1540 C   0  0  0  0  0  3  0  0  0  0  0  0
  184.2260  178.6470  142.7340 C   0  0  0  0  0  0  0  0  0  0  0  0
  182.3330  178.9250  144.2360 C   0  0  0  0  0  3  0  0  0  0  0  0
  183.3340  178.5490  141.6560 C   0  0  0  0  0  3  0  0  0  0  0  0
  183.7120  178.8340  144.0260 C   0  0  0  0  0  3  0  0  0  0  0  0
  181.0830  178.5440  140.7880 O   0  0  0  0  0  1  0  0  0  0  0  0
  189.6110  176.6810  138.0500 N   0  0  0  0  0  0  0  0  0  0  0  0
  190.0980  177.5290  138.8650 N   0  0  0  0  0  0  0  0  0  0  0  0
  188.0690  175.6300  135.9670 O   0  0  0  0  0  0  0  0  0  0  0  0
  190.1520  176.5520  136.7070 C   0  0  2  0  0  3  0  0  0  0  0  0
  189.3260  175.5830  135.9030 C   0  0  0  0  0  0  0  0  0  0  0  0
  191.3310  174.4420  135.0000 C   0  0  0  0  0  2  0  0  0  0  0  0
  192.1190  175.6770  135.4120 C   0  0  0  0  0  2  0  0  0  0  0  0
  191.6200  176.1230  136.7770 C   0  0  0  0  0  2  0  0  0  0  0  0
  189.9310  174.7130  134.9880 O   0  0  0  0  0  0  0  0  0  0  0  0
  1 10  1  0  0  0  0
  1 12  1  0  0  0  0
  2  8  1  0  0  0  0
  2  6  1  0  0  0  0
  3  8  1  0  0  0  0
  3 11  1  0  0  0  0
  4 14  2  0  0  0  0
  5 10  1  0  0  0  0
  6  5  2  0  0  0  0
  7 16  2  0  0  0  0
  7 13  1  0  0  0  0
  8  1  2  0  0  0  0
  9  4  1  0  0  0  0
  9 16  1  0  0  0  0
 11 18  1  0  0  0  0
 13  2  2  0  0  0  0
 14 17  1  0  0  0  0
 14 15  1  0  0  0  0
 15 21  1  0  0  0  0
 15 11  2  0  0  0  0
 16 17  1  0  0  0  0
 17  3  2  0  0  0  0
 18 12  2  0  0  0  0
 19 20  1  0  0  0  0
 20 22  2  0  0  0  0
 21 24  2  0  0  0  0
 23 19  2  0  0  0  0
 23 21  1  0  0  0  0
 24 22  1  0  0  0  0
 25 19  1  0  0  0  0
 26 27  2  0  0  0  0
 27  7  1  0  0  0  0
 29 33  1  0  0  0  0
 29 26  1  1  0  0  0
 30 28  2  0  0  0  0
 30 29  1  0  0  0  0
 31 32  1  0  0  0  0
 32 33  1  0  0  0  0
 34 31  1  0  0  0  0
 34 30  1  0  0  0  0
M  END
>  <MODEL>
7

>  <REMARK>
 VINA RESULT:     -10.9      1.391      1.572
  Name = 
  3 active torsions:
  status: ('A' for Active; 'I' for Inactive)
    1  A    between atoms: N_3  and  C_13
    2  A    between atoms: C_10  and  N_17
    3  A    between atoms: C_12  and  C_28
                            x       y       z     vdW  Elec       q    Type
                         _______ _______ _______ _____ _____    ______ ____

>  <TORSDO>
F 3

$$$$
=
 OpenBabel10272400023D

 34 40  0  0  1  0  0  0  0  0999 V2000
  187.5360  177.7510  145.3100 C   0  0  0  0  0  0  0  0  0  0  0  0
  189.1880  177.7070  143.4710 C   0  0  0  0  0  0  0  0  0  0  0  0
  186.8220  178.3190  143.1140 C   0  0  0  0  0  0  0  0  0  0  0  0
  185.5470  178.6450  139.8200 C   0  0  0  0  0  3  0  0  0  0  0  0
  189.8530  177.2580  145.7790 C   0  0  0  0  0  3  0  0  0  0  0  0
  190.1660  177.3870  144.4220 C   0  0  0  0  0  3  0  0  0  0  0  0
  188.9950  177.9030  140.8770 C   0  0  0  0  0  0  0  0  0  0  0  0
  187.8620  177.9290  143.9360 C   0  0  0  0  0  0  0  0  0  0  0  0
  186.9370  178.3660  139.5410 O   0  0  0  0  0  0  0  0  0  0  0  0
  188.5410  177.4270  146.2200 C   0  0  0  0  0  2  0  0  0  0  0  0
  185.5020  178.4180  143.5150 C   0  0  0  0  0  0  0  0  0  0  0  0
  186.1990  177.8830  145.7550 C   0  0  0  0  0  3  0  0  0  0  0  0
  189.6340  177.7010  142.1270 C   0  0  0  0  0  3  0  0  0  0  0  0
  185.5730  178.7770  141.3080 C   0  0  0  0  0  0  0  0  0  0  0  0
  184.6900  178.6710  142.3870 C   0  0  0  0  0  0  0  0  0  0  0  0
  187.6620  178.2780  140.7350 C   0  0  0  0  0  0  0  0  0  0  0  0
  186.8220  178.5780  141.7340 C   0  0  0  0  0  0  0  0  0  0  0  0
  185.1630  178.1990  144.8520 C   0  0  0  0  0  3  0  0  0  0  0  0
  181.0460  178.8010  143.4190 C   0  0  0  0  0  0  0  0  0  0  0  0
  180.4080  178.7710  142.1770 C   0  0  0  0  0  3  0  0  0  0  0  0
  183.2130  178.7020  142.3200 C   0  0  0  0  0  0  0  0  0  0  0  0
  181.1660  178.7070  141.0050 C   0  0  0  0  0  3  0  0  0  0  0  0
  182.4410  178.7680  143.4890 C   0  0  0  0  0  3  0  0  0  0  0  0
  182.5620  178.6740  141.0770 C   0  0  0  0  0  3  0  0  0  0  0  0
  180.2930  178.8650  144.5840 O   0  0  0  0  0  1  0  0  0  0  0  0
  190.8690  177.1090  139.6720 N   0  0  0  0  0  0  0  0  0  0  0  0
  189.7500  177.7140  139.6760 N   0  0  0  0  0  0  0  0  0  0  0  0
  189.8110  175.6180  137.5550 O   0  0  0  0  0  0  0  0  0  0  0  0
  191.6100  176.9350  138.4330 C   0  0  2  0  0  3  0  0  0  0  0  0
  191.0580  175.7690  137.6550 C   0  0  0  0  0  0  0  0  0  0  0  0
  193.3160  174.8800  137.1580 C   0  0  0  0  0  2  0  0  0  0  0  0
  193.8480  176.2610  137.5120 C   0  0  0  0  0  2  0  0  0  0  0  0
  193.0990  176.7570  138.7390 C   0  0  0  0  0  2  0  0  0  0  0  0
  191.9080  174.9200  136.9370 O   0  0  0  0  0  0  0  0  0  0  0  0
  1 12  1  0  0  0  0
  1 10  1  0  0  0  0
  2  8  1  0  0  0  0
  2  6  1  0  0  0  0
  3 11  1  0  0  0  0
  3  8  1  0  0  0  0
  4 14  2  0  0  0  0
  5 10  1  0  0  0  0
  6  5  2  0  0  0  0
  7 13  1  0  0  0  0
  8  1  2  0  0  0  0
  9  4  1  0  0  0  0
  9 16  1  0  0  0  0
 11 18  1  0  0  0  0
 13  2  2  0  0  0  0
 14 17  1  0  0  0  0
 14 15  1  0  0  0  0
 15 11  2  0  0  0  0
 16  7  2  0  0  0  0
 16 17  1  0  0  0  0
 17  3  2  0  0  0  0
 18 12  2  0  0  0  0
 19 23  1  0  0  0  0
 19 25  1  0  0  0  0
 20 19  2  0  0  0  0
 21 15  1  0  0  0  0
 21 23  2  0  0  0  0
 22 24  2  0  0  0  0
 22 20  1  0  0  0  0
 24 21  1  0  0  0  0
 26 27  2  0  0  0  0
 27  7  1  0  0  0  0
 28 30  2  0  0  0  0
 29 33  1  0  0  0  0
 29 26  1  1  0  0  0
 30 29  1  0  0  0  0
 31 32  1  0  0  0  0
 32 33  1  0  0  0  0
 34 31  1  0  0  0  0
 34 30  1  0  0  0  0
M  END
>  <MODEL>
8

>  <REMARK>
 VINA RESULT:     -10.7      1.209      1.844
  Name = 
  3 active torsions:
  status: ('A' for Active; 'I' for Inactive)
    1  A    between atoms: N_3  and  C_13
    2  A    between atoms: C_10  and  N_17
    3  A    between atoms: C_12  and  C_28
                            x       y       z     vdW  Elec       q    Type
                         _______ _______ _______ _____ _____    ______ ____

>  <TORSDO>
F 3

$$$$
=
 OpenBabel10272400023D

 34 40  0  0  1  0  0  0  0  0999 V2000
  183.7300  178.8350  142.5470 C   0  0  0  0  0  0  0  0  0  0  0  0
  185.5560  178.4090  144.1590 C   0  0  0  0  0  0  0  0  0  0  0  0
  185.9370  178.5150  141.7210 C   0  0  0  0  0  0  0  0  0  0  0  0
  189.0590  177.5180  140.3640 C   0  0  0  0  0  3  0  0  0  0  0  0
  183.2800  178.8700  144.9190 C   0  0  0  0  0  3  0  0  0  0  0  0
  184.6200  178.5760  145.1890 C   0  0  0  0  0  3  0  0  0  0  0  0
  188.0480  177.6850  143.9000 C   0  0  0  0  0  0  0  0  0  0  0  0
  185.1030  178.5820  142.8210 C   0  0  0  0  0  0  0  0  0  0  0  0
  189.3220  177.3640  141.7760 O   0  0  0  0  0  0  0  0  0  0  0  0
  182.8340  178.9870  143.6030 C   0  0  0  0  0  2  0  0  0  0  0  0
  185.5040  178.5530  140.4080 C   0  0  0  0  0  0  0  0  0  0  0  0
  183.2660  178.9160  141.2120 C   0  0  0  0  0  3  0  0  0  0  0  0
  186.8480  178.0120  144.5810 C   0  0  0  0  0  3  0  0  0  0  0  0
  187.7040  178.1490  140.3900 C   0  0  0  0  0  0  0  0  0  0  0  0
  186.5960  178.2890  139.5500 C   0  0  0  0  0  0  0  0  0  0  0  0
  188.2170  177.7920  142.5230 C   0  0  0  0  0  0  0  0  0  0  0  0
  187.3210  178.2890  141.6600 C   0  0  0  0  0  0  0  0  0  0  0  0
  184.1510  178.7540  140.1270 C   0  0  0  0  0  3  0  0  0  0  0  0
  185.5200  177.1560  136.0970 C   0  0  0  0  0  0  0  0  0  0  0  0
  186.5290  177.7050  135.3020 C   0  0  0  0  0  3  0  0  0  0  0  0
  186.5700  178.0820  138.0850 C   0  0  0  0  0  0  0  0  0  0  0  0
  187.5590  178.4430  135.8920 C   0  0  0  0  0  3  0  0  0  0  0  0
  185.5400  177.3450  137.4810 C   0  0  0  0  0  3  0  0  0  0  0  0
  187.5780  178.6310  137.2770 C   0  0  0  0  0  3  0  0  0  0  0  0
  184.4960  176.4230  135.5110 O   0  0  0  0  0  1  0  0  0  0  0  0
  190.2400  177.8830  144.7700 N   0  0  0  0  0  0  0  0  0  0  0  0
  189.1660  177.2100  144.6580 N   0  0  0  0  0  0  0  0  0  0  0  0
  191.9100  175.8840  143.7520 O   0  0  0  0  0  0  0  0  0  0  0  0
  191.3560  177.3710  145.5470 C   0  0  2  0  0  3  0  0  0  0  0  0
  191.8080  176.0430  144.9970 C   0  0  0  0  0  0  0  0  0  0  0  0
  191.9600  175.0290  147.2530 C   0  0  0  0  0  2  0  0  0  0  0  0
  191.9750  176.4480  147.8010 C   0  0  0  0  0  2  0  0  0  0  0  0
  190.9580  177.2670  147.0210 C   0  0  0  0  0  2  0  0  0  0  0  0
  192.2360  175.0220  145.8540 O   0  0  0  0  0  0  0  0  0  0  0  0
  1  8  2  0  0  0  0
  1 10  1  0  0  0  0
  2 13  2  0  0  0  0
  2  6  1  0  0  0  0
  3  8  1  0  0  0  0
  4 14  2  0  0  0  0
  4  9  1  0  0  0  0
  5  6  2  0  0  0  0
  7 13  1  0  0  0  0
  7 27  1  0  0  0  0
  8  2  1  0  0  0  0
  9 16  1  0  0  0  0
 10  5  1  0  0  0  0
 11  3  1  0  0  0  0
 12  1  1  0  0  0  0
 14 17  1  0  0  0  0
 15 14  1  0  0  0  0
 15 11  2  0  0  0  0
 16  7  2  0  0  0  0
 17  3  2  0  0  0  0
 17 16  1  0  0  0  0
 18 11  1  0  0  0  0
 18 12  2  0  0  0  0
 19 23  1  0  0  0  0
 20 22  1  0  0  0  0
 20 19  2  0  0  0  0
 21 15  1  0  0  0  0
 22 24  2  0  0  0  0
 23 21  2  0  0  0  0
 24 21  1  0  0  0  0
 25 19  1  0  0  0  0
 27 26  2  0  0  0  0
 28 30  2  0  0  0  0
 29 26  1  6  0  0  0
 29 33  1  0  0  0  0
 30 29  1  0  0  0  0
 30 34  1  0  0  0  0
 31 32  1  0  0  0  0
 33 32  1  0  0  0  0
 34 31  1  0  0  0  0
M  END
>  <MODEL>
9

>  <REMARK>
 VINA RESULT:     -10.6      3.130      6.506
  Name = 
  3 active torsions:
  status: ('A' for Active; 'I' for Inactive)
    1  A    between atoms: N_3  and  C_13
    2  A    between atoms: C_10  and  N_17
    3  A    between atoms: C_12  and  C_28
                            x       y       z     vdW  Elec       q    Type
                         _______ _______ _______ _____ _____    ______ ____

>  <TORSDO>
F 3

$$$$
