=
 OpenBabel10272414083D

 43 50  0  0  1  0  0  0  0  0999 V2000
  184.7140  178.6080  145.4660 C   0  0  0  0  0  0  0  0  0  0  0  0
  182.4380  178.8600  140.9640 C   0  0  0  0  0  0  0  0  0  0  0  0
  184.4220  178.3140  139.0240 C   0  0  0  0  0  0  0  0  0  0  0  0
  183.0860  178.8720  143.6930 C   0  0  0  0  0  0  0  0  0  0  0  0
  185.7070  178.3340  144.5200 C   0  0  0  0  0  3  0  0  0  0  0  0
  185.0200  178.6160  146.7850 F   0  0  0  0  0  0  0  0  0  0  0  0
  184.0870  178.5950  142.7320 C   0  0  0  0  0  0  0  0  0  0  0  0
  183.4060  178.8780  145.0540 C   0  0  0  0  0  3  0  0  0  0  0  0
  185.3950  178.3270  143.1580 C   0  0  0  0  0  3  0  0  0  0  0  0
  184.7270  178.3250  140.3940 O   0  0  0  0  0  0  0  0  0  0  0  0
  183.7570  178.5920  141.3690 C   0  0  0  0  0  0  0  0  0  0  0  0
  181.4550  179.1360  141.9250 C   0  0  0  0  0  3  0  0  0  0  0  0
  182.1340  178.8450  139.5580 N   0  0  0  0  0  0  0  0  0  0  0  0
  183.1730  178.5650  138.6120 C   0  0  0  0  0  3  0  0  0  0  0  0
  181.7790  179.1410  143.2840 C   0  0  0  0  0  3  0  0  0  0  0  0
  185.4820  178.0250  138.0480 C   0  0  0  0  0  0  0  0  0  0  0  0
  186.7640  178.6440  138.1730 N   0  0  0  0  0  2  0  0  0  0  0  0
  185.2510  177.2320  137.0950 O   0  0  0  0  0  0  0  0  0  0  0  0
  189.1880  178.5950  137.9320 C   0  0  1  0  0  3  0  0  0  0  0  0
  189.4830  177.5140  138.9470 C   0  0  2  0  0  0  0  0  0  0  0  0
  188.6560  177.1760  137.7260 C   0  0  1  0  0  3  0  0  0  0  0  0
  188.7070  177.5840  140.2560 C   0  0  0  0  0  1  0  0  0  0  0  0
  187.8520  178.3710  137.2450 C   0  0  1  0  0  3  0  0  0  0  0  0
  190.9040  176.9520  138.9250 C   0  0  1  0  0  3  0  0  0  0  0  0
  191.6440  177.2920  140.1810 C   0  0  0  0  0  3  0  0  0  0  0  0
  192.8590  177.4240  140.1710 O   0  0  0  0  0  0  0  0  0  0  0  0
  190.8650  175.5610  138.7690 O   0  0  0  0  0  0  0  0  0  0  0  0
  191.5270  174.2380  137.0200 C   0  0  0  0  0  0  0  0  0  0  0  0
  191.2440  176.1160  135.3610 C   0  0  0  0  0  3  0  0  0  0  0  0
  190.8180  173.6190  134.9410 C   0  0  0  0  0  3  0  0  0  0  0  0
  190.8550  175.0200  134.5130 C   0  0  0  0  0  3  0  0  0  0  0  0
  191.1650  173.1650  136.2620 C   0  0  0  0  0  3  0  0  0  0  0  0
  191.5650  175.6330  136.5940 C   0  0  0  0  0  0  0  0  0  0  0  0
  191.9180  175.2600  137.9010 C   0  0  1  0  0  3  0  0  0  0  0  0
  180.7720  179.0300  139.0690 C   0  0  0  0  0  2  0  0  0  0  0  0
  180.4150  181.1080  135.9190 C   0  0  0  0  0  3  0  0  0  0  0  0
  180.6790  182.3930  136.4050 C   0  0  0  0  0  0  0  0  0  0  0  0
  180.9860  181.4840  138.6340 C   0  0  0  0  0  3  0  0  0  0  0  0
  180.4280  180.0140  136.7890 C   0  0  0  0  0  3  0  0  0  0  0  0
  180.7080  180.2020  138.1490 C   0  0  0  0  0  0  0  0  0  0  0  0
  180.9690  182.5780  137.7640 C   0  0  0  0  0  3  0  0  0  0  0  0
  181.0340  184.8270  136.2270 C   0  0  0  0  0  1  0  0  0  0  0  0
  180.6830  183.5550  135.4740 C   0  0  0  0  0  2  0  0  0  0  0  0
  1  6  1  0  0  0  0
  2 11  2  0  0  0  0
  2 12  1  0  0  0  0
  3 10  1  0  0  0  0
  4  8  2  0  0  0  0
  5  1  2  0  0  0  0
  7  9  2  0  0  0  0
  7  4  1  0  0  0  0
  8  1  1  0  0  0  0
  9  5  1  0  0  0  0
 10 11  1  0  0  0  0
 11  7  1  0  0  0  0
 12 15  2  0  0  0  0
 13  2  1  0  0  0  0
 14  3  2  0  0  0  0
 14 13  1  0  0  0  0
 15  4  1  0  0  0  0
 16 17  1  0  0  0  0
 16  3  1  0  0  0  0
 18 16  2  0  0  0  0
 19 20  1  0  0  0  0
 20 22  1  0  0  0  0
 21 19  1  0  0  0  0
 21 20  1  0  0  0  0
 23 21  1  0  0  0  0
 23 19  1  0  0  0  0
 23 17  1  0  0  0  0
 24 20  1  0  0  0  0
 24 25  1  0  0  0  0
 26 25  2  0  0  0  0
 27 24  1  0  0  0  0
 28 34  1  0  0  0  0
 29 33  2  0  0  0  0
 30 32  1  0  0  0  0
 31 30  2  0  0  0  0
 31 29  1  0  0  0  0
 32 28  2  0  0  0  0
 33 28  1  0  0  0  0
 33 34  1  0  0  0  0
 34 27  1  0  0  0  0
 35 13  1  0  0  0  0
 36 37  2  0  0  0  0
 36 39  1  0  0  0  0
 37 41  1  0  0  0  0
 39 40  2  0  0  0  0
 40 38  1  0  0  0  0
 40 35  1  0  0  0  0
 41 38  2  0  0  0  0
 43 42  1  0  0  0  0
 43 37  1  0  0  0  0
M  END
>  <MODEL>
1

>  <REMARK>
 VINA RESULT:      -9.6      0.000      0.000
  Name = 
  9 active torsions:
  status: ('A' for Active; 'I' for Inactive)
    1  A    between atoms: C_1  and  N_34
    2  A    between atoms: C_1  and  C_35
    3  A    between atoms: C_2  and  C_13
    4  A    between atoms: C_4  and  C_22
    5  A    between atoms: N_6  and  C_17
    6  A    between atoms: C_10  and  C_22
    7  A    between atoms: O_14  and  C_22
    8  A    between atoms: O_14  and  C_41
    9  A    between atoms: C_19  and  C_37
                            x       y       z     vdW  Elec       q    Type
                         _______ _______ _______ _____ _____    ______ ____

>  <TORSDO>
F 9

$$$$
=
 OpenBabel10272414083D

 43 50  0  0  1  0  0  0  0  0999 V2000
  190.7890  176.8360  147.1000 C   0  0  0  0  0  0  0  0  0  0  0  0
  186.3420  178.3040  145.2070 C   0  0  0  0  0  0  0  0  0  0  0  0
  186.6480  178.3920  142.3970 C   0  0  0  0  0  0  0  0  0  0  0  0
  188.4900  177.5520  146.8470 C   0  0  0  0  0  0  0  0  0  0  0  0
  190.9570  176.8720  145.7110 C   0  0  0  0  0  3  0  0  0  0  0  0
  191.8220  176.4750  147.8970 F   0  0  0  0  0  0  0  0  0  0  0  0
  188.6550  177.5890  145.4430 C   0  0  0  0  0  0  0  0  0  0  0  0
  189.5580  177.1760  147.6670 C   0  0  0  0  0  3  0  0  0  0  0  0
  189.8940  177.2470  144.8860 C   0  0  0  0  0  3  0  0  0  0  0  0
  187.7110  178.0190  143.2340 O   0  0  0  0  0  0  0  0  0  0  0  0
  187.5770  177.9680  144.6280 C   0  0  0  0  0  0  0  0  0  0  0  0
  186.1900  178.2660  146.6000 C   0  0  0  0  0  3  0  0  0  0  0  0
  185.2570  178.6840  144.3410 N   0  0  0  0  0  0  0  0  0  0  0  0
  185.4610  178.7160  142.9240 C   0  0  0  0  0  3  0  0  0  0  0  0
  187.2600  177.8900  147.4160 C   0  0  0  0  0  3  0  0  0  0  0  0
  186.8490  178.4240  140.9420 C   0  0  0  0  0  0  0  0  0  0  0  0
  188.1070  178.0410  140.3800 N   0  0  0  0  0  2  0  0  0  0  0  0
  185.9080  178.7980  140.1920 O   0  0  0  0  0  0  0  0  0  0  0  0
  189.8370  178.1110  138.6650 C   0  0  1  0  0  3  0  0  0  0  0  0
  190.5380  176.8170  139.0150 C   0  0  2  0  0  0  0  0  0  0  0  0
  189.0990  176.7760  138.5500 C   0  0  1  0  0  3  0  0  0  0  0  0
  190.7470  176.5400  140.4980 C   0  0  0  0  0  1  0  0  0  0  0  0
  188.3450  178.0340  138.9440 C   0  0  1  0  0  3  0  0  0  0  0  0
  191.5510  176.3120  137.9880 C   0  0  1  0  0  3  0  0  0  0  0  0
  192.9530  176.6350  138.4020 C   0  0  0  0  0  3  0  0  0  0  0  0
  193.8290  176.7890  137.5650 O   0  0  0  0  0  0  0  0  0  0  0  0
  191.4190  174.9280  137.8280 O   0  0  0  0  0  0  0  0  0  0  0  0
  190.5570  174.0060  135.9160 C   0  0  0  0  0  0  0  0  0  0  0  0
  189.9260  176.2660  134.9920 C   0  0  0  0  0  3  0  0  0  0  0  0
  188.6500  174.0610  134.6650 C   0  0  0  0  0  3  0  0  0  0  0  0
  188.8320  175.4990  134.4540 C   0  0  0  0  0  3  0  0  0  0  0  0
  189.5420  173.2350  135.4350 C   0  0  0  0  0  3  0  0  0  0  0  0
  190.7390  175.4390  135.7060 C   0  0  0  0  0  0  0  0  0  0  0  0
  191.6510  174.6920  136.4700 C   0  0  1  0  0  3  0  0  0  0  0  0
  183.9240  178.9630  144.8650 C   0  0  0  0  0  2  0  0  0  0  0  0
  180.6020  178.6660  143.0640 C   0  0  0  0  0  3  0  0  0  0  0  0
  181.0170  178.6030  141.7300 C   0  0  0  0  0  0  0  0  0  0  0  0
  183.3280  178.7940  142.4410 C   0  0  0  0  0  3  0  0  0  0  0  0
  181.5470  178.7990  144.0850 C   0  0  0  0  0  3  0  0  0  0  0  0
  182.9110  178.8700  143.7740 C   0  0  0  0  0  0  0  0  0  0  0  0
  182.3820  178.6630  141.4200 C   0  0  0  0  0  3  0  0  0  0  0  0
  180.2520  177.1410  139.8960 C   0  0  0  0  0  1  0  0  0  0  0  0
  180.0100  178.4410  140.6430 C   0  0  0  0  0  2  0  0  0  0  0  0
  1  8  1  0  0  0  0
  1  6  1  0  0  0  0
  2 12  1  0  0  0  0
  3 14  2  0  0  0  0
  3 10  1  0  0  0  0
  4 15  1  0  0  0  0
  4  8  2  0  0  0  0
  5  1  2  0  0  0  0
  7  4  1  0  0  0  0
  9  7  2  0  0  0  0
  9  5  1  0  0  0  0
 10 11  1  0  0  0  0
 11  2  2  0  0  0  0
 11  7  1  0  0  0  0
 12 15  2  0  0  0  0
 13 35  1  0  0  0  0
 13  2  1  0  0  0  0
 14 13  1  0  0  0  0
 16  3  1  0  0  0  0
 17 16  1  0  0  0  0
 18 16  2  0  0  0  0
 19 23  1  0  0  0  0
 19 20  1  0  0  0  0
 20 22  1  0  0  0  0
 21 19  1  0  0  0  0
 21 23  1  0  0  0  0
 21 20  1  0  0  0  0
 23 17  1  0  0  0  0
 24 25  1  0  0  0  0
 24 20  1  0  0  0  0
 26 25  2  0  0  0  0
 27 24  1  0  0  0  0
 28 34  1  0  0  0  0
 29 33  2  0  0  0  0
 30 32  1  0  0  0  0
 31 30  2  0  0  0  0
 31 29  1  0  0  0  0
 32 28  2  0  0  0  0
 33 28  1  0  0  0  0
 33 34  1  0  0  0  0
 34 27  1  0  0  0  0
 36 39  1  0  0  0  0
 37 36  2  0  0  0  0
 38 40  1  0  0  0  0
 40 39  2  0  0  0  0
 40 35  1  0  0  0  0
 41 37  1  0  0  0  0
 41 38  2  0  0  0  0
 42 43  1  0  0  0  0
 43 37  1  0  0  0  0
M  END
>  <MODEL>
2

>  <REMARK>
 VINA RESULT:      -8.8      3.109      4.852
  Name = 
  9 active torsions:
  status: ('A' for Active; 'I' for Inactive)
    1  A    between atoms: C_1  and  N_34
    2  A    between atoms: C_1  and  C_35
    3  A    between atoms: C_2  and  C_13
    4  A    between atoms: C_4  and  C_22
    5  A    between atoms: N_6  and  C_17
    6  A    between atoms: C_10  and  C_22
    7  A    between atoms: O_14  and  C_22
    8  A    between atoms: O_14  and  C_41
    9  A    between atoms: C_19  and  C_37
                            x       y       z     vdW  Elec       q    Type
                         _______ _______ _______ _____ _____    ______ ____

>  <TORSDO>
F 9

$$$$
=
 OpenBabel10272414083D

 43 50  0  0  1  0  0  0  0  0999 V2000
  190.8850  176.6880  146.6390 C   0  0  0  0  0  0  0  0  0  0  0  0
  189.6730  177.6580  141.8320 C   0  0  0  0  0  0  0  0  0  0  0  0
  186.9480  178.4140  141.8220 C   0  0  0  0  0  0  0  0  0  0  0  0
  190.9510  176.9830  144.2360 C   0  0  0  0  0  0  0  0  0  0  0  0
  189.5370  177.0620  146.6520 C   0  0  0  0  0  3  0  0  0  0  0  0
  191.5080  176.3600  147.7960 F   0  0  0  0  0  0  0  0  0  0  0  0
  189.5880  177.3620  144.2450 C   0  0  0  0  0  0  0  0  0  0  0  0
  191.5910  176.6480  145.4330 C   0  0  0  0  0  3  0  0  0  0  0  0
  188.8910  177.3980  145.4600 C   0  0  0  0  0  3  0  0  0  0  0  0
  187.6040  178.0730  143.0150 O   0  0  0  0  0  0  0  0  0  0  0  0
  188.9540  177.6970  143.0390 C   0  0  0  0  0  0  0  0  0  0  0  0
  191.0230  177.2780  141.8350 C   0  0  0  0  0  3  0  0  0  0  0  0
  188.9930  178.0110  140.6140 N   0  0  0  0  0  0  0  0  0  0  0  0
  187.6100  178.3850  140.6590 C   0  0  0  0  0  3  0  0  0  0  0  0
  191.6580  176.9430  143.0330 C   0  0  0  0  0  3  0  0  0  0  0  0
  185.5310  178.8020  141.8610 C   0  0  0  0  0  0  0  0  0  0  0  0
  184.5430  177.9810  141.2340 N   0  0  0  0  0  2  0  0  0  0  0  0
  185.1930  179.8670  142.4430 O   0  0  0  0  0  0  0  0  0  0  0  0
  182.7660  179.1710  140.0650 C   0  0  1  0  0  3  0  0  0  0  0  0
  182.7810  178.3710  138.7810 C   0  0  2  0  0  0  0  0  0  0  0  0
  182.4190  177.6810  140.0790 C   0  0  1  0  0  3  0  0  0  0  0  0
  184.1510  178.0160  138.2200 C   0  0  0  0  0  1  0  0  0  0  0  0
  183.1260  178.3120  141.2660 C   0  0  1  0  0  3  0  0  0  0  0  0
  181.6000  178.6070  137.8390 C   0  0  1  0  0  3  0  0  0  0  0  0
  181.4350  180.0620  137.5280 C   0  0  0  0  0  3  0  0  0  0  0  0
  181.0180  180.4210  136.4370 O   0  0  0  0  0  0  0  0  0  0  0  0
  181.7900  177.8930  136.6490 O   0  0  0  0  0  0  0  0  0  0  0  0
  181.0790  175.9470  135.6720 C   0  0  0  0  0  0  0  0  0  0  0  0
  181.8350  174.5650  137.6410 C   0  0  0  0  0  3  0  0  0  0  0  0
  181.8650  173.8640  135.1710 C   0  0  0  0  0  3  0  0  0  0  0  0
  182.1090  173.6150  136.5940 C   0  0  0  0  0  3  0  0  0  0  0  0
  181.3220  175.0880  134.6430 C   0  0  0  0  0  3  0  0  0  0  0  0
  181.3210  175.6990  137.0900 C   0  0  0  0  0  0  0  0  0  0  0  0
  180.7870  176.9190  136.6440 C   0  0  1  0  0  3  0  0  0  0  0  0
  189.6960  178.0750  139.3380 C   0  0  0  0  0  2  0  0  0  0  0  0
  187.4370  178.4810  136.3210 C   0  0  0  0  0  3  0  0  0  0  0  0
  186.9400  177.1830  136.1720 C   0  0  0  0  0  0  0  0  0  0  0  0
  188.2560  176.4630  138.0790 C   0  0  0  0  0  3  0  0  0  0  0  0
  188.3470  178.7700  137.3410 C   0  0  0  0  0  3  0  0  0  0  0  0
  188.7620  177.7590  138.2180 C   0  0  0  0  0  0  0  0  0  0  0  0
  187.3470  176.1740  137.0560 C   0  0  0  0  0  3  0  0  0  0  0  0
  185.1110  175.6790  135.4830 C   0  0  0  0  0  1  0  0  0  0  0  0
  185.9550  176.8800  135.0960 C   0  0  0  0  0  2  0  0  0  0  0  0
  1  5  1  0  0  0  0
  1  6  1  0  0  0  0
  2 12  2  0  0  0  0
  2 11  1  0  0  0  0
  3 16  1  0  0  0  0
  3 10  1  0  0  0  0
  4  7  1  0  0  0  0
  4  8  1  0  0  0  0
  7  9  1  0  0  0  0
  8  1  2  0  0  0  0
  9  5  2  0  0  0  0
 10 11  1  0  0  0  0
 11  7  2  0  0  0  0
 12 15  1  0  0  0  0
 13 14  1  0  0  0  0
 13  2  1  0  0  0  0
 14  3  2  0  0  0  0
 15  4  2  0  0  0  0
 16 18  2  0  0  0  0
 17 23  1  0  0  0  0
 17 16  1  0  0  0  0
 19 21  1  0  0  0  0
 19 23  1  0  0  0  0
 20 19  1  0  0  0  0
 20 21  1  0  0  0  0
 21 23  1  0  0  0  0
 22 20  1  0  0  0  0
 24 20  1  0  0  0  0
 25 24  1  0  0  0  0
 26 25  2  0  0  0  0
 27 24  1  0  0  0  0
 28 34  1  0  0  0  0
 28 33  1  0  0  0  0
 30 31  2  0  0  0  0
 31 29  1  0  0  0  0
 32 30  1  0  0  0  0
 32 28  2  0  0  0  0
 33 29  2  0  0  0  0
 34 27  1  0  0  0  0
 34 33  1  0  0  0  0
 35 13  1  0  0  0  0
 36 39  1  0  0  0  0
 37 36  2  0  0  0  0
 37 41  1  0  0  0  0
 38 40  1  0  0  0  0
 39 40  2  0  0  0  0
 40 35  1  0  0  0  0
 41 38  2  0  0  0  0
 43 42  1  0  0  0  0
 43 37  1  0  0  0  0
M  END
>  <MODEL>
3

>  <REMARK>
 VINA RESULT:      -8.7      3.364      8.069
  Name = 
  9 active torsions:
  status: ('A' for Active; 'I' for Inactive)
    1  A    between atoms: C_1  and  N_34
    2  A    between atoms: C_1  and  C_35
    3  A    between atoms: C_2  and  C_13
    4  A    between atoms: C_4  and  C_22
    5  A    between atoms: N_6  and  C_17
    6  A    between atoms: C_10  and  C_22
    7  A    between atoms: O_14  and  C_22
    8  A    between atoms: O_14  and  C_41
    9  A    between atoms: C_19  and  C_37
                            x       y       z     vdW  Elec       q    Type
                         _______ _______ _______ _____ _____    ______ ____

>  <TORSDO>
F 9

$$$$
=
 OpenBabel10272414083D

 43 50  0  0  1  0  0  0  0  0999 V2000
  187.9600  177.6350  147.7080 C   0  0  0  0  0  0  0  0  0  0  0  0
  185.5820  178.6570  143.3700 C   0  0  0  0  0  0  0  0  0  0  0  0
  187.4620  178.2340  141.2990 C   0  0  0  0  0  0  0  0  0  0  0  0
  186.3070  178.2540  146.0500 C   0  0  0  0  0  0  0  0  0  0  0  0
  188.9010  177.4180  146.6960 C   0  0  0  0  0  3  0  0  0  0  0  0
  188.3030  177.4420  149.0040 F   0  0  0  0  0  0  0  0  0  0  0  0
  187.2560  178.0360  145.0230 C   0  0  0  0  0  0  0  0  0  0  0  0
  186.6650  178.0520  147.3860 C   0  0  0  0  0  3  0  0  0  0  0  0
  188.5510  177.6180  145.3580 C   0  0  0  0  0  3  0  0  0  0  0  0
  187.8060  178.0380  142.6460 O   0  0  0  0  0  0  0  0  0  0  0  0
  186.8880  178.2410  143.6850 C   0  0  0  0  0  0  0  0  0  0  0  0
  184.6510  178.8710  144.3960 C   0  0  0  0  0  3  0  0  0  0  0  0
  185.2380  178.8540  141.9870 N   0  0  0  0  0  0  0  0  0  0  0  0
  186.2250  178.6290  140.9730 C   0  0  0  0  0  3  0  0  0  0  0  0
  185.0130  178.6690  145.7300 C   0  0  0  0  0  3  0  0  0  0  0  0
  188.4680  178.0030  140.2530 C   0  0  0  0  0  0  0  0  0  0  0  0
  188.3060  178.5850  138.9580 N   0  0  0  0  0  2  0  0  0  0  0  0
  189.4700  177.2810  140.5030 O   0  0  0  0  0  0  0  0  0  0  0  0
  189.1690  177.0050  137.3150 C   0  0  1  0  0  3  0  0  0  0  0  0
  187.9130  176.8490  136.4870 C   0  0  2  0  0  0  0  0  0  0  0  0
  188.5820  178.2040  136.5680 C   0  0  1  0  0  3  0  0  0  0  0  0
  186.6050  176.7270  137.2580 C   0  0  0  0  0  1  0  0  0  0  0  0
  189.2870  178.4040  137.8980 C   0  0  1  0  0  3  0  0  0  0  0  0
  188.0860  176.1360  135.1470 C   0  0  1  0  0  3  0  0  0  0  0  0
  189.3240  175.2950  135.1340 C   0  0  0  0  0  3  0  0  0  0  0  0
  190.2350  175.5390  134.3570 O   0  0  0  0  0  0  0  0  0  0  0  0
  186.9710  175.3300  134.8870 O   0  0  0  0  0  0  0  0  0  0  0  0
  186.4940  173.6340  136.3520 C   0  0  0  0  0  0  0  0  0  0  0  0
  185.3670  172.2670  134.5560 C   0  0  0  0  0  3  0  0  0  0  0  0
  184.7170  172.3770  137.0390 C   0  0  0  0  0  3  0  0  0  0  0  0
  184.5400  171.8830  135.6710 C   0  0  0  0  0  3  0  0  0  0  0  0
  185.7400  173.3070  137.4380 C   0  0  0  0  0  3  0  0  0  0  0  0
  186.3180  173.1410  134.9890 C   0  0  0  0  0  0  0  0  0  0  0  0
  187.3400  174.0490  135.3090 C   0  0  1  0  0  3  0  0  0  0  0  0
  183.8810  179.2010  141.5800 C   0  0  0  0  0  2  0  0  0  0  0  0
  183.0770  178.3150  137.9830 C   0  0  0  0  0  3  0  0  0  0  0  0
  182.6650  176.9850  138.1130 C   0  0  0  0  0  0  0  0  0  0  0  0
  183.0640  177.0960  140.5030 C   0  0  0  0  0  3  0  0  0  0  0  0
  183.4890  179.0330  139.1090 C   0  0  0  0  0  3  0  0  0  0  0  0
  183.4890  178.4220  140.3700 C   0  0  0  0  0  0  0  0  0  0  0  0
  182.6550  176.3780  139.3760 C   0  0  0  0  0  3  0  0  0  0  0  0
  183.3970  175.8620  136.0430 C   0  0  0  0  0  1  0  0  0  0  0  0
  182.2080  176.2270  136.9140 C   0  0  0  0  0  2  0  0  0  0  0  0
  1  6  1  0  0  0  0
  2 11  2  0  0  0  0
  2 12  1  0  0  0  0
  3 10  1  0  0  0  0
  4  8  2  0  0  0  0
  5  1  2  0  0  0  0
  7  9  2  0  0  0  0
  7  4  1  0  0  0  0
  8  1  1  0  0  0  0
  9  5  1  0  0  0  0
 10 11  1  0  0  0  0
 11  7  1  0  0  0  0
 12 15  2  0  0  0  0
 13  2  1  0  0  0  0
 14  3  2  0  0  0  0
 14 13  1  0  0  0  0
 15  4  1  0  0  0  0
 16 18  2  0  0  0  0
 16  3  1  0  0  0  0
 17 16  1  0  0  0  0
 19 23  1  0  0  0  0
 20 21  1  0  0  0  0
 20 22  1  0  0  0  0
 20 19  1  0  0  0  0
 21 19  1  0  0  0  0
 21 23  1  0  0  0  0
 23 17  1  0  0  0  0
 24 20  1  0  0  0  0
 25 24  1  0  0  0  0
 26 25  2  0  0  0  0
 27 24  1  0  0  0  0
 27 34  1  0  0  0  0
 28 32  1  0  0  0  0
 29 33  1  0  0  0  0
 29 31  2  0  0  0  0
 30 32  2  0  0  0  0
 31 30  1  0  0  0  0
 33 34  1  0  0  0  0
 33 28  2  0  0  0  0
 34 28  1  0  0  0  0
 35 13  1  0  0  0  0
 36 37  2  0  0  0  0
 36 39  1  0  0  0  0
 37 41  1  0  0  0  0
 39 40  2  0  0  0  0
 40 38  1  0  0  0  0
 40 35  1  0  0  0  0
 41 38  2  0  0  0  0
 42 43  1  0  0  0  0
 43 37  1  0  0  0  0
M  END
>  <MODEL>
4

>  <REMARK>
 VINA RESULT:      -8.6      3.027      4.896
  Name = 
  9 active torsions:
  status: ('A' for Active; 'I' for Inactive)
    1  A    between atoms: C_1  and  N_34
    2  A    between atoms: C_1  and  C_35
    3  A    between atoms: C_2  and  C_13
    4  A    between atoms: C_4  and  C_22
    5  A    between atoms: N_6  and  C_17
    6  A    between atoms: C_10  and  C_22
    7  A    between atoms: O_14  and  C_22
    8  A    between atoms: O_14  and  C_41
    9  A    between atoms: C_19  and  C_37
                            x       y       z     vdW  Elec       q    Type
                         _______ _______ _______ _____ _____    ______ ____

>  <TORSDO>
F 9

$$$$
=
 OpenBabel10272414083D

 43 50  0  0  1  0  0  0  0  0999 V2000
  188.0910  177.3510  146.3510 C   0  0  0  0  0  0  0  0  0  0  0  0
  190.3430  177.4040  141.8290 C   0  0  0  0  0  0  0  0  0  0  0  0
  188.3410  178.0420  139.9370 C   0  0  0  0  0  0  0  0  0  0  0  0
  189.7120  177.2170  144.5560 C   0  0  0  0  0  0  0  0  0  0  0  0
  187.0900  177.6700  145.4280 C   0  0  0  0  0  3  0  0  0  0  0  0
  187.7940  177.2580  147.6680 F   0  0  0  0  0  0  0  0  0  0  0  0
  188.7020  177.5390  143.6190 C   0  0  0  0  0  0  0  0  0  0  0  0
  189.4000  177.1240  145.9150 C   0  0  0  0  0  3  0  0  0  0  0  0
  187.3930  177.7640  144.0670 C   0  0  0  0  0  3  0  0  0  0  0  0
  188.0440  177.9440  141.3050 O   0  0  0  0  0  0  0  0  0  0  0  0
  189.0230  177.6300  142.2570 C   0  0  0  0  0  0  0  0  0  0  0  0
  191.3350  177.0830  142.7660 C   0  0  0  0  0  3  0  0  0  0  0  0
  190.6380  177.5090  140.4250 N   0  0  0  0  0  0  0  0  0  0  0  0
  189.5900  177.8330  139.5040 C   0  0  0  0  0  3  0  0  0  0  0  0
  191.0200  176.9910  144.1240 C   0  0  0  0  0  3  0  0  0  0  0  0
  187.2710  178.3770  138.9860 C   0  0  0  0  0  0  0  0  0  0  0  0
  185.9120  178.4420  139.4250 N   0  0  0  0  0  2  0  0  0  0  0  0
  187.5580  178.5980  137.7790 O   0  0  0  0  0  0  0  0  0  0  0  0
  183.5530  178.0700  138.9440 C   0  0  1  0  0  3  0  0  0  0  0  0
  182.9800  178.6410  140.2230 C   0  0  2  0  0  0  0  0  0  0  0  0
  183.7470  179.5490  139.2860 C   0  0  1  0  0  3  0  0  0  0  0  0
  183.7080  178.2780  141.5110 C   0  0  0  0  0  1  0  0  0  0  0  0
  184.8230  178.7930  138.5260 C   0  0  1  0  0  3  0  0  0  0  0  0
  181.4690  178.8680  140.2300 C   0  0  1  0  0  3  0  0  0  0  0  0
  180.8410  178.3140  141.4710 C   0  0  0  0  0  3  0  0  0  0  0  0
  180.0100  177.4210  141.4020 O   0  0  0  0  0  0  0  0  0  0  0  0
  181.1920  180.2370  140.1380 O   0  0  0  0  0  0  0  0  0  0  0  0
  180.0780  181.4750  138.5650 C   0  0  0  0  0  0  0  0  0  0  0  0
  180.6770  179.8580  136.7240 C   0  0  0  0  0  3  0  0  0  0  0  0
  180.4340  182.4060  136.5120 C   0  0  0  0  0  3  0  0  0  0  0  0
  180.7090  181.0770  135.9580 C   0  0  0  0  0  3  0  0  0  0  0  0
  180.0980  182.6580  137.8890 C   0  0  0  0  0  3  0  0  0  0  0  0
  180.3510  180.1510  138.0140 C   0  0  0  0  0  0  0  0  0  0  0  0
  180.0280  180.3240  139.3690 C   0  0  1  0  0  3  0  0  0  0  0  0
  192.0000  177.3730  139.9190 C   0  0  0  0  0  2  0  0  0  0  0  0
  191.0310  174.7520  137.3570 C   0  0  0  0  0  3  0  0  0  0  0  0
  192.0860  174.8560  136.4450 C   0  0  0  0  0  0  0  0  0  0  0  0
  193.0750  176.6150  137.7910 C   0  0  0  0  0  3  0  0  0  0  0  0
  190.9930  175.5820  138.4800 C   0  0  0  0  0  3  0  0  0  0  0  0
  192.0120  176.5200  138.6950 C   0  0  0  0  0  0  0  0  0  0  0  0
  193.1110  175.7860  136.6660 C   0  0  0  0  0  3  0  0  0  0  0  0
  192.1570  172.5050  135.7020 C   0  0  0  0  0  1  0  0  0  0  0  0
  192.1360  173.9570  135.2580 C   0  0  0  0  0  2  0  0  0  0  0  0
  1  6  1  0  0  0  0
  2 11  2  0  0  0  0
  2 12  1  0  0  0  0
  3 10  1  0  0  0  0
  4  8  2  0  0  0  0
  5  1  2  0  0  0  0
  7  9  2  0  0  0  0
  7  4  1  0  0  0  0
  8  1  1  0  0  0  0
  9  5  1  0  0  0  0
 10 11  1  0  0  0  0
 11  7  1  0  0  0  0
 12 15  2  0  0  0  0
 13  2  1  0  0  0  0
 14  3  2  0  0  0  0
 14 13  1  0  0  0  0
 15  4  1  0  0  0  0
 16 17  1  0  0  0  0
 16  3  1  0  0  0  0
 18 16  2  0  0  0  0
 19 21  1  0  0  0  0
 19 20  1  0  0  0  0
 20 24  1  0  0  0  0
 20 22  1  0  0  0  0
 21 20  1  0  0  0  0
 23 19  1  0  0  0  0
 23 21  1  0  0  0  0
 23 17  1  0  0  0  0
 24 25  1  0  0  0  0
 26 25  2  0  0  0  0
 27 24  1  0  0  0  0
 28 34  1  0  0  0  0
 29 33  2  0  0  0  0
 30 32  1  0  0  0  0
 31 30  2  0  0  0  0
 31 29  1  0  0  0  0
 32 28  2  0  0  0  0
 33 28  1  0  0  0  0
 33 34  1  0  0  0  0
 34 27  1  0  0  0  0
 35 13  1  0  0  0  0
 36 39  1  0  0  0  0
 37 41  1  0  0  0  0
 37 36  2  0  0  0  0
 38 40  1  0  0  0  0
 39 40  2  0  0  0  0
 40 35  1  0  0  0  0
 41 38  2  0  0  0  0
 43 42  1  0  0  0  0
 43 37  1  0  0  0  0
M  END
>  <MODEL>
5

>  <REMARK>
 VINA RESULT:      -8.6      2.237      9.674
  Name = 
  9 active torsions:
  status: ('A' for Active; 'I' for Inactive)
    1  A    between atoms: C_1  and  N_34
    2  A    between atoms: C_1  and  C_35
    3  A    between atoms: C_2  and  C_13
    4  A    between atoms: C_4  and  C_22
    5  A    between atoms: N_6  and  C_17
    6  A    between atoms: C_10  and  C_22
    7  A    between atoms: O_14  and  C_22
    8  A    between atoms: O_14  and  C_41
    9  A    between atoms: C_19  and  C_37
                            x       y       z     vdW  Elec       q    Type
                         _______ _______ _______ _____ _____    ______ ____

>  <TORSDO>
F 9

$$$$
=
 OpenBabel10272414083D

 43 50  0  0  1  0  0  0  0  0999 V2000
  191.2050  176.6300  146.8200 C   0  0  0  0  0  0  0  0  0  0  0  0
  186.6930  178.1160  145.1050 C   0  0  0  0  0  0  0  0  0  0  0  0
  186.9320  178.3460  142.2960 C   0  0  0  0  0  0  0  0  0  0  0  0
  188.8900  177.3190  146.6560 C   0  0  0  0  0  0  0  0  0  0  0  0
  191.3400  176.7370  145.4320 C   0  0  0  0  0  3  0  0  0  0  0  0
  192.2620  176.2470  147.5750 F   0  0  0  0  0  0  0  0  0  0  0  0
  189.0210  177.4280  145.2510 C   0  0  0  0  0  0  0  0  0  0  0  0
  189.9830  176.9220  147.4310 C   0  0  0  0  0  3  0  0  0  0  0  0
  190.2520  177.1340  144.6500 C   0  0  0  0  0  3  0  0  0  0  0  0
  188.0190  177.9500  143.0890 O   0  0  0  0  0  0  0  0  0  0  0  0
  187.9190  177.8280  144.4810 C   0  0  0  0  0  0  0  0  0  0  0  0
  186.5740  178.0060  146.4970 C   0  0  0  0  0  3  0  0  0  0  0  0
  185.5820  178.5190  144.2840 N   0  0  0  0  0  0  0  0  0  0  0  0
  185.7520  178.6240  142.8650 C   0  0  0  0  0  3  0  0  0  0  0  0
  187.6690  177.6090  147.2680 C   0  0  0  0  0  3  0  0  0  0  0  0
  187.0970  178.4530  140.8400 C   0  0  0  0  0  0  0  0  0  0  0  0
  188.3720  178.2090  140.2410 N   0  0  0  0  0  2  0  0  0  0  0  0
  186.1100  178.7680  140.1220 O   0  0  0  0  0  0  0  0  0  0  0  0
  190.0660  178.2240  138.4880 C   0  0  1  0  0  3  0  0  0  0  0  0
  190.6360  176.8440  138.7290 C   0  0  2  0  0  0  0  0  0  0  0  0
  189.1910  176.9830  138.3020 C   0  0  1  0  0  3  0  0  0  0  0  0
  190.8450  176.4430  140.1840 C   0  0  0  0  0  1  0  0  0  0  0  0
  188.5800  178.2800  138.8020 C   0  0  1  0  0  3  0  0  0  0  0  0
  191.5700  176.3130  137.6420 C   0  0  1  0  0  3  0  0  0  0  0  0
  192.9990  176.3510  138.0870 C   0  0  0  0  0  3  0  0  0  0  0  0
  193.8670  176.8010  137.3540 O   0  0  0  0  0  0  0  0  0  0  0  0
  191.2190  174.9990  137.3120 O   0  0  0  0  0  0  0  0  0  0  0  0
  192.1190  174.1020  135.4060 C   0  0  0  0  0  0  0  0  0  0  0  0
  190.1780  172.5190  135.1140 C   0  0  0  0  0  3  0  0  0  0  0  0
  192.6340  172.0650  134.5160 C   0  0  0  0  0  3  0  0  0  0  0  0
  191.2240  171.6730  134.6010 C   0  0  0  0  0  3  0  0  0  0  0  0
  193.1470  173.3430  134.9340 C   0  0  0  0  0  3  0  0  0  0  0  0
  190.7140  173.7130  135.4900 C   0  0  0  0  0  0  0  0  0  0  0  0
  191.1470  174.9790  135.9160 C   0  0  1  0  0  3  0  0  0  0  0  0
  184.2580  178.7500  144.8500 C   0  0  0  0  0  2  0  0  0  0  0  0
  180.9480  179.1910  143.0560 C   0  0  0  0  0  3  0  0  0  0  0  0
  181.3030  178.8750  141.7410 C   0  0  0  0  0  0  0  0  0  0  0  0
  183.5910  178.4960  142.4520 C   0  0  0  0  0  3  0  0  0  0  0  0
  181.9130  179.1670  144.0670 C   0  0  0  0  0  3  0  0  0  0  0  0
  183.2370  178.8250  143.7650 C   0  0  0  0  0  0  0  0  0  0  0  0
  182.6260  178.5230  141.4410 C   0  0  0  0  0  3  0  0  0  0  0  0
  179.9830  180.3080  140.2300 C   0  0  0  0  0  1  0  0  0  0  0  0
  180.2700  178.8830  140.6680 C   0  0  0  0  0  2  0  0  0  0  0  0
  1  8  1  0  0  0  0
  1  6  1  0  0  0  0
  2 12  1  0  0  0  0
  3 14  2  0  0  0  0
  3 10  1  0  0  0  0
  4 15  1  0  0  0  0
  4  8  2  0  0  0  0
  5  1  2  0  0  0  0
  7  4  1  0  0  0  0
  9  7  2  0  0  0  0
  9  5  1  0  0  0  0
 10 11  1  0  0  0  0
 11  2  2  0  0  0  0
 11  7  1  0  0  0  0
 12 15  2  0  0  0  0
 13 35  1  0  0  0  0
 13  2  1  0  0  0  0
 14 13  1  0  0  0  0
 16  3  1  0  0  0  0
 17 16  1  0  0  0  0
 18 16  2  0  0  0  0
 19 20  1  0  0  0  0
 19 23  1  0  0  0  0
 20 22  1  0  0  0  0
 21 19  1  0  0  0  0
 21 20  1  0  0  0  0
 21 23  1  0  0  0  0
 23 17  1  0  0  0  0
 24 25  1  0  0  0  0
 24 20  1  0  0  0  0
 26 25  2  0  0  0  0
 27 24  1  0  0  0  0
 28 33  1  0  0  0  0
 28 34  1  0  0  0  0
 29 33  2  0  0  0  0
 30 31  2  0  0  0  0
 30 32  1  0  0  0  0
 31 29  1  0  0  0  0
 32 28  2  0  0  0  0
 33 34  1  0  0  0  0
 34 27  1  0  0  0  0
 36 39  1  0  0  0  0
 37 36  2  0  0  0  0
 38 40  1  0  0  0  0
 40 39  2  0  0  0  0
 40 35  1  0  0  0  0
 41 37  1  0  0  0  0
 41 38  2  0  0  0  0
 42 43  1  0  0  0  0
 43 37  1  0  0  0  0
M  END
>  <MODEL>
6

>  <REMARK>
 VINA RESULT:      -8.4      2.836      4.962
  Name = 
  9 active torsions:
  status: ('A' for Active; 'I' for Inactive)
    1  A    between atoms: C_1  and  N_34
    2  A    between atoms: C_1  and  C_35
    3  A    between atoms: C_2  and  C_13
    4  A    between atoms: C_4  and  C_22
    5  A    between atoms: N_6  and  C_17
    6  A    between atoms: C_10  and  C_22
    7  A    between atoms: O_14  and  C_22
    8  A    between atoms: O_14  and  C_41
    9  A    between atoms: C_19  and  C_37
                            x       y       z     vdW  Elec       q    Type
                         _______ _______ _______ _____ _____    ______ ____

>  <TORSDO>
F 9

$$$$
=
 OpenBabel10272414083D

 43 50  0  0  1  0  0  0  0  0999 V2000
  187.6790  177.7380  147.0180 C   0  0  0  0  0  0  0  0  0  0  0  0
  184.1120  178.6460  143.5580 C   0  0  0  0  0  0  0  0  0  0  0  0
  185.4040  178.6310  141.0420 C   0  0  0  0  0  0  0  0  0  0  0  0
  185.5760  178.1990  145.9090 C   0  0  0  0  0  0  0  0  0  0  0  0
  188.3330  177.7250  145.7810 C   0  0  0  0  0  3  0  0  0  0  0  0
  188.3800  177.5240  148.1560 F   0  0  0  0  0  0  0  0  0  0  0  0
  186.2340  178.1870  144.6560 C   0  0  0  0  0  0  0  0  0  0  0  0
  186.3030  177.9760  147.0810 C   0  0  0  0  0  3  0  0  0  0  0  0
  187.6140  177.9480  144.6040 C   0  0  0  0  0  3  0  0  0  0  0  0
  186.1190  178.4100  142.2290 O   0  0  0  0  0  0  0  0  0  0  0  0
  185.4960  178.4120  143.4840 C   0  0  0  0  0  0  0  0  0  0  0  0
  183.4720  178.6580  144.8050 C   0  0  0  0  0  3  0  0  0  0  0  0
  183.3860  178.8700  142.3360 N   0  0  0  0  0  0  0  0  0  0  0  0
  184.0850  178.8550  141.0850 C   0  0  0  0  0  3  0  0  0  0  0  0
  184.2020  178.4350  145.9750 C   0  0  0  0  0  3  0  0  0  0  0  0
  186.1130  178.6140  139.7550 C   0  0  0  0  0  0  0  0  0  0  0  0
  187.3830  177.9670  139.6410 N   0  0  0  0  0  2  0  0  0  0  0  0
  185.5980  179.1790  138.7540 O   0  0  0  0  0  0  0  0  0  0  0  0
  189.5750  178.2420  138.6130 C   0  0  1  0  0  3  0  0  0  0  0  0
  190.2960  177.1320  139.3450 C   0  0  2  0  0  0  0  0  0  0  0  0
  189.1380  176.7860  138.4340 C   0  0  1  0  0  3  0  0  0  0  0  0
  190.0070  177.0050  140.8350 C   0  0  0  0  0  1  0  0  0  0  0  0
  188.1110  177.9040  138.3830 C   0  0  1  0  0  3  0  0  0  0  0  0
  191.6710  176.7570  138.7920 C   0  0  1  0  0  3  0  0  0  0  0  0
  192.7440  176.9720  139.8130 C   0  0  0  0  0  3  0  0  0  0  0  0
  193.7700  177.5670  139.5210 O   0  0  0  0  0  0  0  0  0  0  0  0
  191.6730  175.4160  138.3880 O   0  0  0  0  0  0  0  0  0  0  0  0
  193.3640  174.3200  137.3000 C   0  0  0  0  0  0  0  0  0  0  0  0
  191.7480  173.1580  135.7500 C   0  0  0  0  0  3  0  0  0  0  0  0
  193.9460  172.2030  136.6750 C   0  0  0  0  0  3  0  0  0  0  0  0
  192.7270  172.1080  135.8680 C   0  0  0  0  0  3  0  0  0  0  0  0
  194.3180  173.3590  137.4490 C   0  0  0  0  0  3  0  0  0  0  0  0
  192.1490  174.2250  136.4960 C   0  0  0  0  0  0  0  0  0  0  0  0
  192.4510  175.3850  137.2270 C   0  0  1  0  0  3  0  0  0  0  0  0
  181.9370  179.0340  142.3280 C   0  0  0  0  0  2  0  0  0  0  0  0
  180.9950  177.2580  139.1150 C   0  0  0  0  0  3  0  0  0  0  0  0
  180.4620  178.3110  138.3640 C   0  0  0  0  0  0  0  0  0  0  0  0
  180.8750  179.8320  140.2080 C   0  0  0  0  0  3  0  0  0  0  0  0
  181.4600  177.4890  140.4110 C   0  0  0  0  0  3  0  0  0  0  0  0
  181.3950  178.7750  140.9620 C   0  0  0  0  0  0  0  0  0  0  0  0
  180.4070  179.6000  138.9120 C   0  0  0  0  0  3  0  0  0  0  0  0
  180.5890  179.0890  136.0270 C   0  0  0  0  0  1  0  0  0  0  0  0
  179.9840  178.0680  136.9740 C   0  0  0  0  0  2  0  0  0  0  0  0
  1  8  1  0  0  0  0
  1  6  1  0  0  0  0
  2 12  1  0  0  0  0
  3 14  2  0  0  0  0
  3 10  1  0  0  0  0
  4 15  1  0  0  0  0
  4  8  2  0  0  0  0
  5  1  2  0  0  0  0
  7  4  1  0  0  0  0
  9  7  2  0  0  0  0
  9  5  1  0  0  0  0
 10 11  1  0  0  0  0
 11  2  2  0  0  0  0
 11  7  1  0  0  0  0
 12 15  2  0  0  0  0
 13  2  1  0  0  0  0
 14 13  1  0  0  0  0
 16  3  1  0  0  0  0
 17 16  1  0  0  0  0
 18 16  2  0  0  0  0
 19 20  1  0  0  0  0
 20 22  1  0  0  0  0
 21 19  1  0  0  0  0
 21 20  1  0  0  0  0
 23 21  1  0  0  0  0
 23 19  1  0  0  0  0
 23 17  1  0  0  0  0
 24 20  1  0  0  0  0
 24 25  1  0  0  0  0
 26 25  2  0  0  0  0
 27 24  1  0  0  0  0
 28 32  1  0  0  0  0
 29 31  2  0  0  0  0
 29 33  1  0  0  0  0
 30 32  2  0  0  0  0
 31 30  1  0  0  0  0
 33 34  1  0  0  0  0
 33 28  2  0  0  0  0
 34 28  1  0  0  0  0
 34 27  1  0  0  0  0
 35 13  1  0  0  0  0
 36 39  1  0  0  0  0
 37 41  1  0  0  0  0
 37 36  2  0  0  0  0
 38 40  1  0  0  0  0
 39 40  2  0  0  0  0
 40 35  1  0  0  0  0
 41 38  2  0  0  0  0
 42 43  1  0  0  0  0
 43 37  1  0  0  0  0
M  END
>  <MODEL>
7

>  <REMARK>
 VINA RESULT:      -8.3      1.986      3.035
  Name = 
  9 active torsions:
  status: ('A' for Active; 'I' for Inactive)
    1  A    between atoms: C_1  and  N_34
    2  A    between atoms: C_1  and  C_35
    3  A    between atoms: C_2  and  C_13
    4  A    between atoms: C_4  and  C_22
    5  A    between atoms: N_6  and  C_17
    6  A    between atoms: C_10  and  C_22
    7  A    between atoms: O_14  and  C_22
    8  A    between atoms: O_14  and  C_41
    9  A    between atoms: C_19  and  C_37
                            x       y       z     vdW  Elec       q    Type
                         _______ _______ _______ _____ _____    ______ ____

>  <TORSDO>
F 9

$$$$
=
 OpenBabel10272414083D

 43 50  0  0  1  0  0  0  0  0999 V2000
  190.3390  176.9520  146.2500 C   0  0  0  0  0  0  0  0  0  0  0  0
  186.6010  178.1700  143.0780 C   0  0  0  0  0  0  0  0  0  0  0  0
  187.7280  178.2250  140.4840 C   0  0  0  0  0  0  0  0  0  0  0  0
  188.1910  177.5510  145.3040 C   0  0  0  0  0  0  0  0  0  0  0  0
  190.9110  176.9720  144.9740 C   0  0  0  0  0  3  0  0  0  0  0  0
  191.1000  176.6540  147.3290 F   0  0  0  0  0  0  0  0  0  0  0  0
  188.7670  177.5730  144.0120 C   0  0  0  0  0  0  0  0  0  0  0  0
  188.9810  177.2420  146.4150 C   0  0  0  0  0  3  0  0  0  0  0  0
  190.1290  177.2810  143.8590 C   0  0  0  0  0  3  0  0  0  0  0  0
  188.5080  177.9180  141.6100 O   0  0  0  0  0  0  0  0  0  0  0  0
  187.9660  177.8850  142.9020 C   0  0  0  0  0  0  0  0  0  0  0  0
  186.0430  178.1480  144.3630 C   0  0  0  0  0  3  0  0  0  0  0  0
  185.8090  178.4830  141.9170 N   0  0  0  0  0  0  0  0  0  0  0  0
  186.4260  178.5000  140.6240 C   0  0  0  0  0  3  0  0  0  0  0  0
  186.8360  177.8390  145.4710 C   0  0  0  0  0  3  0  0  0  0  0  0
  188.3520  178.2420  139.1540 C   0  0  0  0  0  0  0  0  0  0  0  0
  188.2490  177.1030  138.2960 N   0  0  0  0  0  2  0  0  0  0  0  0
  188.9850  179.2640  138.7770 O   0  0  0  0  0  0  0  0  0  0  0  0
  190.3410  177.2190  137.0510 C   0  0  1  0  0  3  0  0  0  0  0  0
  190.9840  175.9630  137.5950 C   0  0  2  0  0  0  0  0  0  0  0  0
  189.7040  175.8510  136.7970 C   0  0  1  0  0  3  0  0  0  0  0  0
  190.8360  175.7200  139.0920 C   0  0  0  0  0  1  0  0  0  0  0  0
  188.8300  177.0820  136.9620 C   0  0  1  0  0  3  0  0  0  0  0  0
  192.2350  175.4840  136.8580 C   0  0  1  0  0  3  0  0  0  0  0  0
  193.3660  176.4510  137.0220 C   0  0  0  0  0  3  0  0  0  0  0  0
  193.6360  176.9110  138.1210 O   0  0  0  0  0  0  0  0  0  0  0  0
  192.6210  174.2270  137.3390 O   0  0  0  0  0  0  0  0  0  0  0  0
  194.5920  173.0620  137.2700 C   0  0  0  0  0  0  0  0  0  0  0  0
  193.5120  171.1120  136.0890 C   0  0  0  0  0  3  0  0  0  0  0  0
  195.4160  171.0030  137.8100 C   0  0  0  0  0  3  0  0  0  0  0  0
  194.4670  170.3820  136.8820 C   0  0  0  0  0  3  0  0  0  0  0  0
  195.5110  172.4200  138.0440 C   0  0  0  0  0  3  0  0  0  0  0  0
  193.6470  172.4430  136.3440 C   0  0  0  0  0  0  0  0  0  0  0  0
  193.6870  173.8350  136.5240 C   0  0  1  0  0  3  0  0  0  0  0  0
  184.3710  178.7050  142.0130 C   0  0  0  0  0  2  0  0  0  0  0  0
  182.9800  179.2360  138.5260 C   0  0  0  0  0  3  0  0  0  0  0  0
  182.4170  177.9830  138.2610 C   0  0  0  0  0  0  0  0  0  0  0  0
  183.1460  177.1970  140.4370 C   0  0  0  0  0  3  0  0  0  0  0  0
  183.6310  179.4670  139.7410 C   0  0  0  0  0  3  0  0  0  0  0  0
  183.7200  178.4450  140.6950 C   0  0  0  0  0  0  0  0  0  0  0  0
  182.4980  176.9650  139.2200 C   0  0  0  0  0  3  0  0  0  0  0  0
  181.9000  176.3040  136.5300 C   0  0  0  0  0  1  0  0  0  0  0  0
  181.7070  177.7440  136.9730 C   0  0  0  0  0  2  0  0  0  0  0  0
  1  8  1  0  0  0  0
  1  6  1  0  0  0  0
  2 12  1  0  0  0  0
  3 14  2  0  0  0  0
  3 10  1  0  0  0  0
  4 15  1  0  0  0  0
  4  8  2  0  0  0  0
  5  1  2  0  0  0  0
  7  4  1  0  0  0  0
  9  7  2  0  0  0  0
  9  5  1  0  0  0  0
 10 11  1  0  0  0  0
 11  2  2  0  0  0  0
 11  7  1  0  0  0  0
 12 15  2  0  0  0  0
 13 35  1  0  0  0  0
 13  2  1  0  0  0  0
 14 13  1  0  0  0  0
 16  3  1  0  0  0  0
 17 16  1  0  0  0  0
 18 16  2  0  0  0  0
 19 20  1  0  0  0  0
 20 22  1  0  0  0  0
 21 23  1  0  0  0  0
 21 19  1  0  0  0  0
 21 20  1  0  0  0  0
 23 19  1  0  0  0  0
 23 17  1  0  0  0  0
 24 25  1  0  0  0  0
 24 27  1  0  0  0  0
 24 20  1  0  0  0  0
 25 26  2  0  0  0  0
 28 32  1  0  0  0  0
 29 33  1  0  0  0  0
 29 31  2  0  0  0  0
 30 32  2  0  0  0  0
 31 30  1  0  0  0  0
 33 34  1  0  0  0  0
 33 28  2  0  0  0  0
 34 28  1  0  0  0  0
 34 27  1  0  0  0  0
 36 39  1  0  0  0  0
 37 36  2  0  0  0  0
 37 41  1  0  0  0  0
 38 40  1  0  0  0  0
 39 40  2  0  0  0  0
 40 35  1  0  0  0  0
 41 38  2  0  0  0  0
 42 43  1  0  0  0  0
 43 37  1  0  0  0  0
M  END
>  <MODEL>
8

>  <REMARK>
 VINA RESULT:      -8.1      2.911      4.621
  Name = 
  9 active torsions:
  status: ('A' for Active; 'I' for Inactive)
    1  A    between atoms: C_1  and  N_34
    2  A    between atoms: C_1  and  C_35
    3  A    between atoms: C_2  and  C_13
    4  A    between atoms: C_4  and  C_22
    5  A    between atoms: N_6  and  C_17
    6  A    between atoms: C_10  and  C_22
    7  A    between atoms: O_14  and  C_22
    8  A    between atoms: O_14  and  C_41
    9  A    between atoms: C_19  and  C_37
                            x       y       z     vdW  Elec       q    Type
                         _______ _______ _______ _____ _____    ______ ____

>  <TORSDO>
F 9

$$$$
=
 OpenBabel10272414083D

 43 50  0  0  1  0  0  0  0  0999 V2000
  187.9900  177.4090  147.0920 C   0  0  0  0  0  0  0  0  0  0  0  0
  188.6390  177.9130  142.1080 C   0  0  0  0  0  0  0  0  0  0  0  0
  186.0940  178.4880  141.0160 C   0  0  0  0  0  0  0  0  0  0  0  0
  188.9430  177.5150  144.8690 C   0  0  0  0  0  0  0  0  0  0  0  0
  186.7250  177.6950  146.5690 C   0  0  0  0  0  3  0  0  0  0  0  0
  188.1440  177.2150  148.4240 F   0  0  0  0  0  0  0  0  0  0  0  0
  187.6650  177.8050  144.3350 C   0  0  0  0  0  0  0  0  0  0  0  0
  189.0970  177.3180  146.2440 C   0  0  0  0  0  3  0  0  0  0  0  0
  186.5620  177.8920  145.1950 C   0  0  0  0  0  3  0  0  0  0  0  0
  186.2660  178.2860  142.3950 O   0  0  0  0  0  0  0  0  0  0  0  0
  187.5190  178.0020  142.9540 C   0  0  0  0  0  0  0  0  0  0  0  0
  189.9000  177.6230  142.6480 C   0  0  0  0  0  3  0  0  0  0  0  0
  188.4530  178.1230  140.6970 N   0  0  0  0  0  0  0  0  0  0  0  0
  187.1440  178.4100  140.1900 C   0  0  0  0  0  3  0  0  0  0  0  0
  190.0500  177.4260  144.0230 C   0  0  0  0  0  3  0  0  0  0  0  0
  184.7550  178.7860  140.4890 C   0  0  0  0  0  0  0  0  0  0  0  0
  183.7240  177.7960  140.5420 N   0  0  0  0  0  2  0  0  0  0  0  0
  184.5220  179.9160  139.9830 O   0  0  0  0  0  0  0  0  0  0  0  0
  182.4000  178.2580  138.5490 C   0  0  1  0  0  3  0  0  0  0  0  0
  182.6620  176.9630  137.8130 C   0  0  2  0  0  0  0  0  0  0  0  0
  181.9340  176.9250  139.1390 C   0  0  1  0  0  3  0  0  0  0  0  0
  184.0940  176.4430  137.8460 C   0  0  0  0  0  1  0  0  0  0  0  0
  182.3770  178.0520  140.0550 C   0  0  1  0  0  3  0  0  0  0  0  0
  181.7760  176.7010  136.5950 C   0  0  1  0  0  3  0  0  0  0  0  0
  182.5500  176.8330  135.3210 C   0  0  0  0  0  3  0  0  0  0  0  0
  182.6340  177.9120  134.7540 O   0  0  0  0  0  0  0  0  0  0  0  0
  181.2240  175.4160  136.6750 O   0  0  0  0  0  0  0  0  0  0  0  0
  182.6180  173.6310  136.3350 C   0  0  0  0  0  0  0  0  0  0  0  0
  180.7210  172.1740  135.5350 C   0  0  0  0  0  3  0  0  0  0  0  0
  182.7770  171.4190  136.8760 C   0  0  0  0  0  3  0  0  0  0  0  0
  181.5070  171.1620  136.1920 C   0  0  0  0  0  3  0  0  0  0  0  0
  183.3970  172.7150  136.9740 C   0  0  0  0  0  3  0  0  0  0  0  0
  181.3530  173.3750  135.6530 C   0  0  0  0  0  0  0  0  0  0  0  0
  181.9030  174.6660  135.7100 C   0  0  1  0  0  3  0  0  0  0  0  0
  189.5810  178.1310  139.7720 C   0  0  0  0  0  2  0  0  0  0  0  0
  188.5010  178.4120  136.1490 C   0  0  0  0  0  3  0  0  0  0  0  0
  188.1840  177.0820  135.8530 C   0  0  0  0  0  0  0  0  0  0  0  0
  188.7970  176.4350  138.1090 C   0  0  0  0  0  3  0  0  0  0  0  0
  188.9720  178.7520  137.4200 C   0  0  0  0  0  3  0  0  0  0  0  0
  189.1260  177.7620  138.4000 C   0  0  0  0  0  0  0  0  0  0  0  0
  188.3290  176.0940  136.8360 C   0  0  0  0  0  3  0  0  0  0  0  0
  186.3320  176.0060  134.6300 C   0  0  0  0  0  1  0  0  0  0  0  0
  187.6650  176.7230  134.5030 C   0  0  0  0  0  2  0  0  0  0  0  0
  1  6  1  0  0  0  0
  2 12  2  0  0  0  0
  2 11  1  0  0  0  0
  3 10  1  0  0  0  0
  4  8  1  0  0  0  0
  5  1  1  0  0  0  0
  7  4  1  0  0  0  0
  7  9  1  0  0  0  0
  8  1  2  0  0  0  0
  9  5  2  0  0  0  0
 10 11  1  0  0  0  0
 11  7  2  0  0  0  0
 12 15  1  0  0  0  0
 13  2  1  0  0  0  0
 14 13  1  0  0  0  0
 14  3  2  0  0  0  0
 15  4  2  0  0  0  0
 16 17  1  0  0  0  0
 16  3  1  0  0  0  0
 18 16  2  0  0  0  0
 19 21  1  0  0  0  0
 19 23  1  0  0  0  0
 20 22  1  0  0  0  0
 20 19  1  0  0  0  0
 20 21  1  0  0  0  0
 21 23  1  0  0  0  0
 23 17  1  0  0  0  0
 24 27  1  0  0  0  0
 24 20  1  0  0  0  0
 25 24  1  0  0  0  0
 26 25  2  0  0  0  0
 28 32  1  0  0  0  0
 29 33  1  0  0  0  0
 29 31  2  0  0  0  0
 30 32  2  0  0  0  0
 31 30  1  0  0  0  0
 33 34  1  0  0  0  0
 33 28  2  0  0  0  0
 34 28  1  0  0  0  0
 34 27  1  0  0  0  0
 35 13  1  0  0  0  0
 36 39  1  0  0  0  0
 37 36  2  0  0  0  0
 37 41  1  0  0  0  0
 38 40  1  0  0  0  0
 39 40  2  0  0  0  0
 40 35  1  0  0  0  0
 41 38  2  0  0  0  0
 43 42  1  0  0  0  0
 43 37  1  0  0  0  0
M  END
>  <MODEL>
9

>  <REMARK>
 VINA RESULT:      -8.1      3.528      7.655
  Name = 
  9 active torsions:
  status: ('A' for Active; 'I' for Inactive)
    1  A    between atoms: C_1  and  N_34
    2  A    between atoms: C_1  and  C_35
    3  A    between atoms: C_2  and  C_13
    4  A    between atoms: C_4  and  C_22
    5  A    between atoms: N_6  and  C_17
    6  A    between atoms: C_10  and  C_22
    7  A    between atoms: O_14  and  C_22
    8  A    between atoms: O_14  and  C_41
    9  A    between atoms: C_19  and  C_37
                            x       y       z     vdW  Elec       q    Type
                         _______ _______ _______ _____ _____    ______ ____

>  <TORSDO>
F 9

$$$$
