=
 OpenBabel10272401113D

 27 31  0  0  1  0  0  0  0  0999 V2000
  187.4330  178.5010  141.3950 N   0  0  0  0  0  2  0  0  0  0  0  0
  187.7030  177.6750  143.7220 C   0  0  2  0  0  3  0  0  0  0  0  0
  189.2420  176.3180  142.1950 C   0  0  0  0  0  2  0  0  0  0  0  0
  190.3580  176.3800  138.7770 C   0  0  0  0  0  3  0  0  0  0  0  0
  189.7580  177.1610  137.8830 C   0  0  0  0  0  3  0  0  0  0  0  0
  186.8150  177.7240  142.4650 C   0  0  1  0  0  3  0  0  0  0  0  0
  188.5450  178.1090  140.5730 C   0  0  0  0  0  0  0  0  0  0  0  0
  189.1330  177.1890  143.4560 C   0  0  1  0  0  3  0  0  0  0  0  0
  190.6490  176.8410  140.1650 C   0  0  0  0  0  2  0  0  0  0  0  0
  189.2430  178.5100  138.1770 C   0  0  0  0  0  3  0  0  0  0  0  0
  188.7310  178.9170  139.3460 C   0  0  0  0  0  3  0  0  0  0  0  0
  189.3960  177.1160  140.9320 C   0  0  0  0  0  0  0  0  0  0  0  0
  183.9440  179.5130  144.1960 C   0  0  0  0  0  3  0  0  0  0  0  0
  185.4590  178.2920  142.7670 C   0  0  0  0  0  0  0  0  0  0  0  0
  184.4100  178.0760  141.8710 C   0  0  0  0  0  3  0  0  0  0  0  0
  183.1450  178.5900  142.1610 C   0  0  0  0  0  3  0  0  0  0  0  0
  182.9400  179.2920  143.3070 N   0  0  0  0  0  0  0  0  0  0  0  0
  185.2250  179.0170  143.9430 C   0  0  0  0  0  3  0  0  0  0  0  0
  190.6670  178.3970  144.7820 C   0  0  0  0  0  2  0  0  0  0  0  0
  191.4090  177.7560  143.7080 C   0  0  0  0  0  2  0  0  0  0  0  0
  190.0710  178.3080  143.4390 N   0  0  0  0  0  0  0  0  0  0  0  0
  187.0970  176.7830  144.7680 C   0  0  0  0  0  3  0  0  0  0  0  0
  187.1070  177.0820  146.0710 C   0  0  0  0  0  3  0  0  0  0  0  0
  189.2690  176.7420  147.7220 C   0  0  0  0  0  1  0  0  0  0  0  0
  187.6240  178.3780  148.0650 C   0  0  0  0  0  2  0  0  0  0  0  0
  188.9450  178.1410  147.4610 N   0  0  0  0  0  0  0  0  0  0  0  0
  187.7360  178.3430  146.6130 C   0  0  1  0  0  3  0  0  0  0  0  0
  1  6  1  0  0  0  0
  2 22  1  1  0  0  0
  4  9  1  0  0  0  0
  5 10  1  0  0  0  0
  5  4  2  0  0  0  0
  6 14  1  1  0  0  0
  6  2  1  0  0  0  0
  7 12  2  0  0  0  0
  7  1  1  0  0  0  0
  8  3  1  6  0  0  0
  8  2  1  0  0  0  0
  9 12  1  0  0  0  0
 10 11  2  0  0  0  0
 11  7  1  0  0  0  0
 12  3  1  0  0  0  0
 14 18  2  0  0  0  0
 15 16  2  0  0  0  0
 15 14  1  0  0  0  0
 16 17  1  0  0  0  0
 17 13  2  0  0  0  0
 18 13  1  0  0  0  0
 20 19  1  0  0  0  0
 21  8  1  0  0  0  0
 21 20  1  0  0  0  0
 21 19  1  0  0  0  0
 22 23  2  0  0  0  0
 26 24  1  0  0  0  0
 26 25  1  0  0  0  0
 27 23  1  1  0  0  0
 27 26  1  0  0  0  0
 27 25  1  0  0  0  0
M  END
>  <MODEL>
1

>  <REMARK>
 VINA RESULT:      -8.1      0.000      0.000
  Name = 
  4 active torsions:
  status: ('A' for Active; 'I' for Inactive)
    1  A    between atoms: C_2  and  C_6
    2  A    between atoms: C_9  and  C_15
    3  A    between atoms: N_14  and  C_19
    4  A    between atoms: C_17  and  C_21
                            x       y       z     vdW  Elec       q    Type
                         _______ _______ _______ _____ _____    ______ ____

>  <TORSDO>
F 4

$$$$
=
 OpenBabel10272401113D

 27 31  0  0  1  0  0  0  0  0999 V2000
  186.9800  177.6380  144.4930 N   0  0  0  0  0  2  0  0  0  0  0  0
  188.4370  177.8300  142.4900 C   0  0  2  0  0  3  0  0  0  0  0  0
  189.7980  178.4920  144.5520 C   0  0  0  0  0  2  0  0  0  0  0  0
  189.4320  178.4550  148.1300 C   0  0  0  0  0  3  0  0  0  0  0  0
  188.2460  178.2250  148.6860 C   0  0  0  0  0  3  0  0  0  0  0  0
  187.2730  178.4290  143.3030 C   0  0  1  0  0  3  0  0  0  0  0  0
  187.7600  177.5650  145.6980 C   0  0  0  0  0  0  0  0  0  0  0  0
  189.7100  177.5920  143.3100 C   0  0  1  0  0  3  0  0  0  0  0  0
  189.9130  177.6890  146.9430 C   0  0  0  0  0  2  0  0  0  0  0  0
  187.2540  177.2730  148.1570 C   0  0  0  0  0  3  0  0  0  0  0  0
  187.0570  176.9830  146.8640 C   0  0  0  0  0  3  0  0  0  0  0  0
  189.0630  177.9400  145.7400 C   0  0  0  0  0  0  0  0  0  0  0  0
  184.9130  179.0200  140.3840 C   0  0  0  0  0  3  0  0  0  0  0  0
  186.0290  178.5560  142.4750 C   0  0  0  0  0  0  0  0  0  0  0  0
  184.7830  178.3520  143.0730 C   0  0  0  0  0  3  0  0  0  0  0  0
  183.6250  178.4870  142.3060 C   0  0  0  0  0  3  0  0  0  0  0  0
  183.7120  178.8150  140.9890 N   0  0  0  0  0  0  0  0  0  0  0  0
  186.0950  178.8950  141.1160 C   0  0  0  0  0  3  0  0  0  0  0  0
  190.7030  175.5740  142.5920 C   0  0  0  0  0  2  0  0  0  0  0  0
  191.2980  175.9380  143.8680 C   0  0  0  0  0  2  0  0  0  0  0  0
  189.8630  176.1770  143.6400 N   0  0  0  0  0  0  0  0  0  0  0  0
  188.7910  178.7190  141.3320 C   0  0  0  0  0  3  0  0  0  0  0  0
  189.0610  178.2460  140.1110 C   0  0  0  0  0  3  0  0  0  0  0  0
  191.4240  177.1720  139.2300 C   0  0  0  0  0  1  0  0  0  0  0  0
  189.3270  176.5660  138.3720 C   0  0  0  0  0  2  0  0  0  0  0  0
  190.3480  176.1940  139.3640 N   0  0  0  0  0  0  0  0  0  0  0  0
  189.0410  176.7720  139.7850 C   0  0  1  0  0  3  0  0  0  0  0  0
  1  7  1  0  0  0  0
  2 22  1  6  0  0  0
  2  6  1  0  0  0  0
  2  8  1  0  0  0  0
  3 12  1  0  0  0  0
  4  5  2  0  0  0  0
  6 14  1  6  0  0  0
  6  1  1  0  0  0  0
  7 12  2  0  0  0  0
  7 11  1  0  0  0  0
  8 21  1  1  0  0  0
  8  3  1  0  0  0  0
  9  4  1  0  0  0  0
 10  5  1  0  0  0  0
 11 10  2  0  0  0  0
 12  9  1  0  0  0  0
 13 17  2  0  0  0  0
 13 18  1  0  0  0  0
 14 15  1  0  0  0  0
 16 15  2  0  0  0  0
 17 16  1  0  0  0  0
 18 14  2  0  0  0  0
 19 21  1  0  0  0  0
 19 20  1  0  0  0  0
 21 20  1  0  0  0  0
 23 22  2  0  0  0  0
 24 26  1  0  0  0  0
 25 26  1  0  0  0  0
 25 27  1  0  0  0  0
 26 27  1  0  0  0  0
 27 23  1  6  0  0  0
M  END
>  <MODEL>
2

>  <REMARK>
 VINA RESULT:      -6.9      1.661      5.826
  Name = 
  4 active torsions:
  status: ('A' for Active; 'I' for Inactive)
    1  A    between atoms: C_2  and  C_6
    2  A    between atoms: C_9  and  C_15
    3  A    between atoms: N_14  and  C_19
    4  A    between atoms: C_17  and  C_21
                            x       y       z     vdW  Elec       q    Type
                         _______ _______ _______ _____ _____    ______ ____

>  <TORSDO>
F 4

$$$$
=
 OpenBabel10272401113D

 27 31  0  0  1  0  0  0  0  0999 V2000
  190.7240  175.8090  139.1930 N   0  0  0  0  0  2  0  0  0  0  0  0
  188.8650  177.4070  139.5920 C   0  0  2  0  0  3  0  0  0  0  0  0
  189.7110  177.7260  137.2000 C   0  0  0  0  0  2  0  0  0  0  0  0
  191.9800  176.1130  134.9220 C   0  0  0  0  0  3  0  0  0  0  0  0
  192.8230  175.1800  135.3540 C   0  0  0  0  0  3  0  0  0  0  0  0
  190.3380  177.0470  139.8620 C   0  0  1  0  0  3  0  0  0  0  0  0
  190.9530  175.6200  137.7870 C   0  0  0  0  0  0  0  0  0  0  0  0
  188.4990  177.4570  138.1040 C   0  0  1  0  0  3  0  0  0  0  0  0
  190.5660  176.1840  135.3920 C   0  0  0  0  0  2  0  0  0  0  0  0
  192.4940  174.1840  136.3890 C   0  0  0  0  0  3  0  0  0  0  0  0
  191.6760  174.3760  137.4320 C   0  0  0  0  0  3  0  0  0  0  0  0
  190.4820  176.4850  136.8540 C   0  0  0  0  0  0  0  0  0  0  0  0
  190.1970  175.9310  143.4910 C   0  0  0  0  0  3  0  0  0  0  0  0
  190.6180  176.9230  141.3300 C   0  0  0  0  0  0  0  0  0  0  0  0
  191.5750  177.7520  141.9180 C   0  0  0  0  0  3  0  0  0  0  0  0
  191.8220  177.6490  143.2880 C   0  0  0  0  0  3  0  0  0  0  0  0
  191.1340  176.7480  144.0400 N   0  0  0  0  0  0  0  0  0  0  0  0
  189.9200  176.0020  142.1240 C   0  0  0  0  0  3  0  0  0  0  0  0
  186.3300  176.5770  137.7960 C   0  0  0  0  0  2  0  0  0  0  0  0
  186.9920  176.6060  136.5010 C   0  0  0  0  0  2  0  0  0  0  0  0
  187.7640  176.2590  137.7050 N   0  0  0  0  0  0  0  0  0  0  0  0
  188.5230  178.7380  140.1990 C   0  0  0  0  0  3  0  0  0  0  0  0
  187.6790  178.8700  141.2290 C   0  0  0  0  0  3  0  0  0  0  0  0
  185.2770  179.3940  142.4400 C   0  0  0  0  0  1  0  0  0  0  0  0
  186.8660  177.9020  143.3080 C   0  0  0  0  0  2  0  0  0  0  0  0
  185.6560  177.9840  142.4740 N   0  0  0  0  0  0  0  0  0  0  0  0
  186.9870  177.6920  141.8720 C   0  0  1  0  0  3  0  0  0  0  0  0
  1  6  1  0  0  0  0
  2  6  1  0  0  0  0
  2 22  1  6  0  0  0
  4  5  2  0  0  0  0
  4  9  1  0  0  0  0
  5 10  1  0  0  0  0
  6 14  1  1  0  0  0
  7  1  1  0  0  0  0
  8  3  1  6  0  0  0
  8  2  1  0  0  0  0
  9 12  1  0  0  0  0
 10 11  2  0  0  0  0
 11  7  1  0  0  0  0
 12  3  1  0  0  0  0
 12  7  2  0  0  0  0
 13 17  1  0  0  0  0
 14 15  2  0  0  0  0
 14 18  1  0  0  0  0
 15 16  1  0  0  0  0
 16 17  2  0  0  0  0
 18 13  2  0  0  0  0
 20 21  1  0  0  0  0
 20 19  1  0  0  0  0
 21 19  1  0  0  0  0
 21  8  1  0  0  0  0
 22 23  2  0  0  0  0
 24 26  1  0  0  0  0
 26 25  1  0  0  0  0
 27 23  1  6  0  0  0
 27 26  1  0  0  0  0
 27 25  1  0  0  0  0
M  END
>  <MODEL>
3

>  <REMARK>
 VINA RESULT:      -6.3      2.418      6.009
  Name = 
  4 active torsions:
  status: ('A' for Active; 'I' for Inactive)
    1  A    between atoms: C_2  and  C_6
    2  A    between atoms: C_9  and  C_15
    3  A    between atoms: N_14  and  C_19
    4  A    between atoms: C_17  and  C_21
                            x       y       z     vdW  Elec       q    Type
                         _______ _______ _______ _____ _____    ______ ____

>  <TORSDO>
F 4

$$$$
=
 OpenBabel10272401113D

 27 31  0  0  1  0  0  0  0  0999 V2000
  186.9150  177.6900  144.0110 N   0  0  0  0  0  2  0  0  0  0  0  0
  188.5510  177.7510  142.1420 C   0  0  2  0  0  3  0  0  0  0  0  0
  189.7540  178.4210  144.2970 C   0  0  0  0  0  2  0  0  0  0  0  0
  189.0710  178.5210  147.8270 C   0  0  0  0  0  3  0  0  0  0  0  0
  187.8320  178.3630  148.2810 C   0  0  0  0  0  3  0  0  0  0  0  0
  187.3490  178.4280  142.8280 C   0  0  1  0  0  3  0  0  0  0  0  0
  187.5810  177.6240  145.2820 C   0  0  0  0  0  0  0  0  0  0  0  0
  189.7340  177.4840  143.0800 C   0  0  1  0  0  3  0  0  0  0  0  0
  189.6190  177.6960  146.7120 C   0  0  0  0  0  2  0  0  0  0  0  0
  186.8470  177.4380  147.6930 C   0  0  0  0  0  3  0  0  0  0  0  0
  186.7510  177.1130  146.3970 C   0  0  0  0  0  3  0  0  0  0  0  0
  188.8910  177.9430  145.4300 C   0  0  0  0  0  0  0  0  0  0  0  0
  183.8210  178.7540  141.4560 C   0  0  0  0  0  3  0  0  0  0  0  0
  186.1900  178.5810  141.8880 C   0  0  0  0  0  0  0  0  0  0  0  0
  186.4270  178.6580  140.5150 C   0  0  0  0  0  3  0  0  0  0  0  0
  185.3470  178.7840  139.6390 C   0  0  0  0  0  3  0  0  0  0  0  0
  184.0770  178.8290  140.1230 N   0  0  0  0  0  0  0  0  0  0  0  0
  184.8730  178.6280  142.3650 C   0  0  0  0  0  3  0  0  0  0  0  0
  190.7660  175.4220  142.5760 C   0  0  0  0  0  2  0  0  0  0  0  0
  191.1650  175.8070  143.9200 C   0  0  0  0  0  2  0  0  0  0  0  0
  189.7910  176.0760  143.4640 N   0  0  0  0  0  0  0  0  0  0  0  0
  189.0470  178.5840  140.9950 C   0  0  0  0  0  3  0  0  0  0  0  0
  189.4010  178.0590  139.8170 C   0  0  0  0  0  3  0  0  0  0  0  0
  191.7200  176.9050  138.9190 C   0  0  0  0  0  1  0  0  0  0  0  0
  189.5920  176.3230  138.1220 C   0  0  0  0  0  2  0  0  0  0  0  0
  190.6250  175.9560  139.1030 N   0  0  0  0  0  0  0  0  0  0  0  0
  189.3410  176.5770  139.5340 C   0  0  1  0  0  3  0  0  0  0  0  0
  1  7  1  0  0  0  0
  2 22  1  6  0  0  0
  2  6  1  0  0  0  0
  2  8  1  0  0  0  0
  3 12  1  0  0  0  0
  4  5  2  0  0  0  0
  6 14  1  6  0  0  0
  6  1  1  0  0  0  0
  7 12  2  0  0  0  0
  7 11  1  0  0  0  0
  8 21  1  1  0  0  0
  8  3  1  0  0  0  0
  9  4  1  0  0  0  0
 10  5  1  0  0  0  0
 11 10  2  0  0  0  0
 12  9  1  0  0  0  0
 13 18  1  0  0  0  0
 14 18  2  0  0  0  0
 15 14  1  0  0  0  0
 16 17  1  0  0  0  0
 16 15  2  0  0  0  0
 17 13  2  0  0  0  0
 19 21  1  0  0  0  0
 19 20  1  0  0  0  0
 21 20  1  0  0  0  0
 23 22  2  0  0  0  0
 24 26  1  0  0  0  0
 25 26  1  0  0  0  0
 25 27  1  0  0  0  0
 26 27  1  0  0  0  0
 27 23  1  6  0  0  0
M  END
>  <MODEL>
4

>  <REMARK>
 VINA RESULT:      -6.2      1.820      5.840
  Name = 
  4 active torsions:
  status: ('A' for Active; 'I' for Inactive)
    1  A    between atoms: C_2  and  C_6
    2  A    between atoms: C_9  and  C_15
    3  A    between atoms: N_14  and  C_19
    4  A    between atoms: C_17  and  C_21
                            x       y       z     vdW  Elec       q    Type
                         _______ _______ _______ _____ _____    ______ ____

>  <TORSDO>
F 4

$$$$
=
 OpenBabel10272401113D

 27 31  0  0  1  0  0  0  0  0999 V2000
  183.7010  177.9300  140.2010 N   0  0  0  0  0  2  0  0  0  0  0  0
  181.5560  177.9100  138.9460 C   0  0  2  0  0  3  0  0  0  0  0  0
  181.0390  178.1990  141.4330 C   0  0  0  0  0  2  0  0  0  0  0  0
  182.8350  178.7760  144.4950 C   0  0  0  0  0  3  0  0  0  0  0  0
  184.1590  178.6550  144.5360 C   0  0  0  0  0  3  0  0  0  0  0  0
  182.7450  177.0910  139.4840 C   0  0  1  0  0  3  0  0  0  0  0  0
  183.5330  178.5110  141.5040 C   0  0  0  0  0  0  0  0  0  0  0  0
  180.8460  178.7500  140.0130 C   0  0  1  0  0  3  0  0  0  0  0  0
  182.1330  179.4250  143.3500 C   0  0  0  0  0  2  0  0  0  0  0  0
  185.0610  179.0580  143.4420 C   0  0  0  0  0  3  0  0  0  0  0  0
  184.7800  179.0040  142.1340 C   0  0  0  0  0  3  0  0  0  0  0  0
  182.3140  178.6560  142.0810 C   0  0  0  0  0  0  0  0  0  0  0  0
  185.0320  176.3000  136.5540 C   0  0  0  0  0  3  0  0  0  0  0  0
  183.4570  176.3610  138.3830 C   0  0  0  0  0  0  0  0  0  0  0  0
  183.1570  175.0190  138.1450 C   0  0  0  0  0  3  0  0  0  0  0  0
  183.8070  174.3440  137.1100 C   0  0  0  0  0  3  0  0  0  0  0  0
  184.7240  174.9930  136.3420 N   0  0  0  0  0  0  0  0  0  0  0  0
  184.4050  177.0100  137.5800 C   0  0  0  0  0  3  0  0  0  0  0  0
  180.6070  180.6850  138.6810 C   0  0  0  0  0  2  0  0  0  0  0  0
  179.9830  180.9460  139.9690 C   0  0  0  0  0  2  0  0  0  0  0  0
  181.2250  180.1570  139.9090 N   0  0  0  0  0  0  0  0  0  0  0  0
  180.5360  177.0110  138.3080 C   0  0  0  0  0  3  0  0  0  0  0  0
  180.0860  177.1940  137.0620 C   0  0  0  0  0  3  0  0  0  0  0  0
  179.9820  176.7510  134.3590 C   0  0  0  0  0  1  0  0  0  0  0  0
  181.7230  177.9160  135.4140 C   0  0  0  0  0  2  0  0  0  0  0  0
  180.4390  178.0910  134.7170 N   0  0  0  0  0  0  0  0  0  0  0  0
  180.5570  178.3280  136.1830 C   0  0  1  0  0  3  0  0  0  0  0  0
  1  7  1  0  0  0  0
  2 22  1  1  0  0  0
  2  6  1  0  0  0  0
  2  8  1  0  0  0  0
  3 12  1  0  0  0  0
  4  5  2  0  0  0  0
  6 14  1  6  0  0  0
  6  1  1  0  0  0  0
  7 12  2  0  0  0  0
  7 11  1  0  0  0  0
  8 21  1  1  0  0  0
  8  3  1  0  0  0  0
  9  4  1  0  0  0  0
 10  5  1  0  0  0  0
 11 10  2  0  0  0  0
 12  9  1  0  0  0  0
 13 18  1  0  0  0  0
 15 14  1  0  0  0  0
 16 15  2  0  0  0  0
 17 13  2  0  0  0  0
 17 16  1  0  0  0  0
 18 14  2  0  0  0  0
 19 21  1  0  0  0  0
 19 20  1  0  0  0  0
 21 20  1  0  0  0  0
 23 22  2  0  0  0  0
 24 26  1  0  0  0  0
 25 27  1  0  0  0  0
 26 25  1  0  0  0  0
 26 27  1  0  0  0  0
 27 23  1  1  0  0  0
M  END
>  <MODEL>
5

>  <REMARK>
 VINA RESULT:      -5.8      4.715      9.451
  Name = 
  4 active torsions:
  status: ('A' for Active; 'I' for Inactive)
    1  A    between atoms: C_2  and  C_6
    2  A    between atoms: C_9  and  C_15
    3  A    between atoms: N_14  and  C_19
    4  A    between atoms: C_17  and  C_21
                            x       y       z     vdW  Elec       q    Type
                         _______ _______ _______ _____ _____    ______ ____

>  <TORSDO>
F 4

$$$$
=
 OpenBabel10272401113D

 27 31  0  0  1  0  0  0  0  0999 V2000
  188.0620  177.2840  141.2160 N   0  0  0  0  0  2  0  0  0  0  0  0
  188.7050  177.7060  138.8530 C   0  0  2  0  0  3  0  0  0  0  0  0
  190.7400  178.1440  140.3390 C   0  0  0  0  0  2  0  0  0  0  0  0
  191.6870  177.7100  143.7810 C   0  0  0  0  0  3  0  0  0  0  0  0
  190.7750  177.4130  144.7020 C   0  0  0  0  0  3  0  0  0  0  0  0
  187.9340  178.2050  140.0900 C   0  0  1  0  0  3  0  0  0  0  0  0
  189.2220  177.0840  142.0410 C   0  0  0  0  0  0  0  0  0  0  0  0
  190.1790  177.3860  139.1260 C   0  0  1  0  0  3  0  0  0  0  0  0
  191.6820  177.0830  142.4280 C   0  0  0  0  0  2  0  0  0  0  0  0
  189.6270  176.5190  144.4710 C   0  0  0  0  0  3  0  0  0  0  0  0
  188.9670  176.3720  143.3150 C   0  0  0  0  0  3  0  0  0  0  0  0
  190.4640  177.4600  141.6480 C   0  0  0  0  0  0  0  0  0  0  0  0
  184.5860  178.2840  138.2960 C   0  0  0  0  0  3  0  0  0  0  0  0
  186.4790  178.4140  139.7880 C   0  0  0  0  0  0  0  0  0  0  0  0
  185.6550  178.9940  140.7540 C   0  0  0  0  0  3  0  0  0  0  0  0
  184.3050  179.2040  140.4660 C   0  0  0  0  0  3  0  0  0  0  0  0
  183.8020  178.8480  139.2530 N   0  0  0  0  0  0  0  0  0  0  0  0
  185.9400  178.0560  138.5450 C   0  0  0  0  0  3  0  0  0  0  0  0
  190.2070  175.3820  137.8800 C   0  0  0  0  0  2  0  0  0  0  0  0
  191.5520  175.6170  138.3810 C   0  0  0  0  0  2  0  0  0  0  0  0
  190.3920  175.9450  139.2270 N   0  0  0  0  0  0  0  0  0  0  0  0
  188.6480  178.7200  137.7460 C   0  0  0  0  0  3  0  0  0  0  0  0
  188.2950  178.4070  136.4940 C   0  0  0  0  0  3  0  0  0  0  0  0
  189.6610  177.3910  134.3460 C   0  0  0  0  0  1  0  0  0  0  0  0
  187.3790  177.0070  134.7280 C   0  0  0  0  0  2  0  0  0  0  0  0
  188.7220  176.4460  134.9450 N   0  0  0  0  0  0  0  0  0  0  0  0
  187.9290  177.0040  136.0770 C   0  0  1  0  0  3  0  0  0  0  0  0
  1  7  1  0  0  0  0
  2 22  1  6  0  0  0
  2  8  1  0  0  0  0
  2  6  1  0  0  0  0
  3 12  1  0  0  0  0
  4  5  2  0  0  0  0
  6 14  1  6  0  0  0
  6  1  1  0  0  0  0
  7 11  1  0  0  0  0
  8 21  1  1  0  0  0
  8  3  1  0  0  0  0
  9  4  1  0  0  0  0
 10  5  1  0  0  0  0
 11 10  2  0  0  0  0
 12  7  2  0  0  0  0
 12  9  1  0  0  0  0
 13 18  2  0  0  0  0
 13 17  1  0  0  0  0
 14 15  2  0  0  0  0
 16 15  1  0  0  0  0
 17 16  2  0  0  0  0
 18 14  1  0  0  0  0
 19 20  1  0  0  0  0
 19 21  1  0  0  0  0
 20 21  1  0  0  0  0
 23 22  2  0  0  0  0
 24 26  1  0  0  0  0
 25 26  1  0  0  0  0
 25 27  1  0  0  0  0
 26 27  1  0  0  0  0
 27 23  1  6  0  0  0
M  END
>  <MODEL>
6

>  <REMARK>
 VINA RESULT:      -5.8      2.616      6.707
  Name = 
  4 active torsions:
  status: ('A' for Active; 'I' for Inactive)
    1  A    between atoms: C_2  and  C_6
    2  A    between atoms: C_9  and  C_15
    3  A    between atoms: N_14  and  C_19
    4  A    between atoms: C_17  and  C_21
                            x       y       z     vdW  Elec       q    Type
                         _______ _______ _______ _____ _____    ______ ____

>  <TORSDO>
F 4

$$$$
=
 OpenBabel10272401113D

 27 31  0  0  1  0  0  0  0  0999 V2000
  185.3580  177.6400  138.4600 N   0  0  0  0  0  2  0  0  0  0  0  0
  183.8010  176.1120  137.2710 C   0  0  2  0  0  3  0  0  0  0  0  0
  185.8460  176.5030  135.7870 C   0  0  0  0  0  2  0  0  0  0  0  0
  189.0800  178.0570  136.0360 C   0  0  0  0  0  3  0  0  0  0  0  0
  189.3750  178.8450  137.0660 C   0  0  0  0  0  3  0  0  0  0  0  0
  184.0970  177.5530  137.7300 C   0  0  1  0  0  3  0  0  0  0  0  0
  186.6830  177.5620  137.9100 C   0  0  0  0  0  0  0  0  0  0  0  0
  184.9380  175.4690  136.4690 C   0  0  1  0  0  3  0  0  0  0  0  0
  188.3210  176.7840  136.2030 C   0  0  0  0  0  2  0  0  0  0  0  0
  188.9210  178.6050  138.4480 C   0  0  0  0  0  3  0  0  0  0  0  0
  187.7610  178.0390  138.8060 C   0  0  0  0  0  3  0  0  0  0  0  0
  186.9280  177.0290  136.6870 C   0  0  0  0  0  0  0  0  0  0  0  0
  181.1730  179.6390  138.9700 C   0  0  0  0  0  3  0  0  0  0  0  0
  182.9920  178.0980  138.5860 C   0  0  0  0  0  0  0  0  0  0  0  0
  182.7830  177.5630  139.8590 C   0  0  0  0  0  3  0  0  0  0  0  0
  181.7660  178.0820  140.6620 C   0  0  0  0  0  3  0  0  0  0  0  0
  180.9880  179.1000  140.2050 N   0  0  0  0  0  0  0  0  0  0  0  0
  182.1790  179.1470  138.1360 C   0  0  0  0  0  3  0  0  0  0  0  0
  184.7650  173.4490  137.6780 C   0  0  0  0  0  2  0  0  0  0  0  0
  185.6950  173.2370  136.5800 C   0  0  0  0  0  2  0  0  0  0  0  0
  185.6910  174.5260  137.2910 N   0  0  0  0  0  0  0  0  0  0  0  0
  182.5560  176.0660  136.4320 C   0  0  0  0  0  3  0  0  0  0  0  0
  181.4550  175.4040  136.8030 C   0  0  0  0  0  3  0  0  0  0  0  0
  179.9820  173.0930  136.7360 C   0  0  0  0  0  1  0  0  0  0  0  0
  179.9820  174.5760  138.5530 C   0  0  0  0  0  2  0  0  0  0  0  0
  180.6090  173.3520  138.0290 N   0  0  0  0  0  0  0  0  0  0  0  0
  181.3640  174.6350  138.0990 C   0  0  1  0  0  3  0  0  0  0  0  0
  2 22  1  6  0  0  0
  2  6  1  0  0  0  0
  3 12  1  0  0  0  0
  4  9  1  0  0  0  0
  4  5  2  0  0  0  0
  5 10  1  0  0  0  0
  6  1  1  0  0  0  0
  6 14  1  1  0  0  0
  7  1  1  0  0  0  0
  7 11  1  0  0  0  0
  8  3  1  1  0  0  0
  8  2  1  0  0  0  0
  8 21  1  0  0  0  0
  9 12  1  0  0  0  0
 10 11  2  0  0  0  0
 12  7  2  0  0  0  0
 13 17  1  0  0  0  0
 14 15  2  0  0  0  0
 15 16  1  0  0  0  0
 17 16  2  0  0  0  0
 18 14  1  0  0  0  0
 18 13  2  0  0  0  0
 20 21  1  0  0  0  0
 20 19  1  0  0  0  0
 21 19  1  0  0  0  0
 22 23  2  0  0  0  0
 24 26  1  0  0  0  0
 26 27  1  0  0  0  0
 26 25  1  0  0  0  0
 27 23  1  6  0  0  0
 27 25  1  0  0  0  0
M  END
>  <MODEL>
7

>  <REMARK>
 VINA RESULT:      -5.5      5.273      7.730
  Name = 
  4 active torsions:
  status: ('A' for Active; 'I' for Inactive)
    1  A    between atoms: C_2  and  C_6
    2  A    between atoms: C_9  and  C_15
    3  A    between atoms: N_14  and  C_19
    4  A    between atoms: C_17  and  C_21
                            x       y       z     vdW  Elec       q    Type
                         _______ _______ _______ _____ _____    ______ ____

>  <TORSDO>
F 4

$$$$
=
 OpenBabel10272401113D

 27 31  0  0  1  0  0  0  0  0999 V2000
  190.8280  177.7420  142.1070 N   0  0  0  0  0  2  0  0  0  0  0  0
  189.0740  177.3200  140.3990 C   0  0  2  0  0  3  0  0  0  0  0  0
  188.2010  176.5360  142.6710 C   0  0  0  0  0  2  0  0  0  0  0  0
  189.1920  176.7010  146.1250 C   0  0  0  0  0  3  0  0  0  0  0  0
  190.4180  177.0930  146.4590 C   0  0  0  0  0  3  0  0  0  0  0  0
  190.4320  176.8930  140.9880 C   0  0  1  0  0  3  0  0  0  0  0  0
  190.2730  177.7420  143.4320 C   0  0  0  0  0  0  0  0  0  0  0  0
  187.9480  177.4120  141.4350 C   0  0  1  0  0  3  0  0  0  0  0  0
  188.4110  177.3720  145.0450 C   0  0  0  0  0  2  0  0  0  0  0  0
  191.1670  178.1520  145.7600 C   0  0  0  0  0  3  0  0  0  0  0  0
  191.0910  178.4360  144.4530 C   0  0  0  0  0  3  0  0  0  0  0  0
  189.0590  177.2040  143.7080 C   0  0  0  0  0  0  0  0  0  0  0  0
  192.3400  176.3810  137.7420 C   0  0  0  0  0  3  0  0  0  0  0  0
  191.5140  176.9080  139.9490 C   0  0  0  0  0  0  0  0  0  0  0  0
  192.7600  177.4550  140.2640 C   0  0  0  0  0  3  0  0  0  0  0  0
  193.7720  177.4530  139.3030 C   0  0  0  0  0  3  0  0  0  0  0  0
  193.5440  176.9210  138.0720 N   0  0  0  0  0  0  0  0  0  0  0  0
  191.3020  176.3640  138.6750 C   0  0  0  0  0  3  0  0  0  0  0  0
  186.4980  179.2260  141.0090 C   0  0  0  0  0  2  0  0  0  0  0  0
  186.3360  178.8380  142.4010 C   0  0  0  0  0  2  0  0  0  0  0  0
  187.6730  178.8020  141.7880 N   0  0  0  0  0  0  0  0  0  0  0  0
  188.6380  176.3660  139.3230 C   0  0  0  0  0  3  0  0  0  0  0  0
  188.1730  176.7750  138.1370 C   0  0  0  0  0  3  0  0  0  0  0  0
  185.6450  177.6370  137.5230 C   0  0  0  0  0  1  0  0  0  0  0  0
  187.5700  178.3690  136.4010 C   0  0  0  0  0  2  0  0  0  0  0  0
  186.6480  178.6980  137.5000 N   0  0  0  0  0  0  0  0  0  0  0  0
  188.0380  178.2340  137.7730 C   0  0  1  0  0  3  0  0  0  0  0  0
  1  7  1  0  0  0  0
  2 22  1  6  0  0  0
  2  6  1  0  0  0  0
  2  8  1  0  0  0  0
  3 12  1  0  0  0  0
  4  5  2  0  0  0  0
  6 14  1  6  0  0  0
  6  1  1  0  0  0  0
  7 12  2  0  0  0  0
  7 11  1  0  0  0  0
  8 21  1  1  0  0  0
  8  3  1  0  0  0  0
  9  4  1  0  0  0  0
 10  5  1  0  0  0  0
 11 10  2  0  0  0  0
 12  9  1  0  0  0  0
 13 17  2  0  0  0  0
 13 18  1  0  0  0  0
 14 15  1  0  0  0  0
 16 15  2  0  0  0  0
 17 16  1  0  0  0  0
 18 14  2  0  0  0  0
 19 21  1  0  0  0  0
 19 20  1  0  0  0  0
 21 20  1  0  0  0  0
 23 22  2  0  0  0  0
 25 26  1  0  0  0  0
 25 27  1  0  0  0  0
 26 24  1  0  0  0  0
 26 27  1  0  0  0  0
 27 23  1  1  0  0  0
M  END
>  <MODEL>
8

>  <REMARK>
 VINA RESULT:      -5.3      2.214      7.462
  Name = 
  4 active torsions:
  status: ('A' for Active; 'I' for Inactive)
    1  A    between atoms: C_2  and  C_6
    2  A    between atoms: C_9  and  C_15
    3  A    between atoms: N_14  and  C_19
    4  A    between atoms: C_17  and  C_21
                            x       y       z     vdW  Elec       q    Type
                         _______ _______ _______ _____ _____    ______ ____

>  <TORSDO>
F 4

$$$$
=
 OpenBabel10272401113D

 27 31  0  0  1  0  0  0  0  0999 V2000
  186.7160  175.2710  136.4110 N   0  0  0  0  0  2  0  0  0  0  0  0
  189.0490  174.4910  136.7620 C   0  0  2  0  0  3  0  0  0  0  0  0
  187.4620  172.5390  137.2210 C   0  0  0  0  0  2  0  0  0  0  0  0
  183.9610  171.7920  136.8700 C   0  0  0  0  0  3  0  0  0  0  0  0
  183.0860  172.7570  136.6070 C   0  0  0  0  0  3  0  0  0  0  0  0
  187.8710  175.3260  137.3010 C   0  0  1  0  0  3  0  0  0  0  0  0
  185.8220  174.1620  136.2210 C   0  0  0  0  0  0  0  0  0  0  0  0
  188.6840  173.0380  136.4360 C   0  0  1  0  0  3  0  0  0  0  0  0
  185.2960  171.7280  136.2070 C   0  0  0  0  0  2  0  0  0  0  0  0
  183.3580  173.9010  135.7180 C   0  0  0  0  0  3  0  0  0  0  0  0
  184.5460  174.4960  135.5460 C   0  0  0  0  0  3  0  0  0  0  0  0
  186.1540  172.8960  136.5750 C   0  0  0  0  0  0  0  0  0  0  0  0
  188.6860  178.9860  136.6890 C   0  0  0  0  0  3  0  0  0  0  0  0
  188.2610  176.7580  137.5170 C   0  0  0  0  0  0  0  0  0  0  0  0
  188.6100  177.1880  138.7990 C   0  0  0  0  0  3  0  0  0  0  0  0
  188.9890  178.5170  138.9960 C   0  0  0  0  0  3  0  0  0  0  0  0
  189.0190  179.3810  137.9470 N   0  0  0  0  0  0  0  0  0  0  0  0
  188.3000  177.6660  136.4500 C   0  0  0  0  0  3  0  0  0  0  0  0
  189.8650  173.0170  134.3920 C   0  0  0  0  0  2  0  0  0  0  0  0
  189.3470  171.6780  134.6260 C   0  0  0  0  0  2  0  0  0  0  0  0
  188.5330  172.8470  134.9960 N   0  0  0  0  0  0  0  0  0  0  0  0
  190.1830  174.4750  137.7460 C   0  0  0  0  0  3  0  0  0  0  0  0
  191.4370  174.8030  137.4140 C   0  0  0  0  0  3  0  0  0  0  0  0
  193.8660  173.8990  136.5230 C   0  0  0  0  0  1  0  0  0  0  0  0
  193.0280  176.0380  136.0500 C   0  0  0  0  0  2  0  0  0  0  0  0
  193.1240  174.6660  135.5260 N   0  0  0  0  0  0  0  0  0  0  0  0
  191.8270  175.2140  136.0150 C   0  0  1  0  0  3  0  0  0  0  0  0
  1  6  1  0  0  0  0
  2  6  1  0  0  0  0
  2 22  1  1  0  0  0
  5  4  2  0  0  0  0
  6 14  1  6  0  0  0
  7  1  1  0  0  0  0
  7 12  2  0  0  0  0
  8 21  1  6  0  0  0
  8  2  1  0  0  0  0
  8  3  1  0  0  0  0
  9 12  1  0  0  0  0
  9  4  1  0  0  0  0
 10  5  1  0  0  0  0
 11 10  2  0  0  0  0
 11  7  1  0  0  0  0
 12  3  1  0  0  0  0
 13 17  1  0  0  0  0
 14 15  2  0  0  0  0
 15 16  1  0  0  0  0
 17 16  2  0  0  0  0
 18 13  2  0  0  0  0
 18 14  1  0  0  0  0
 19 20  1  0  0  0  0
 19 21  1  0  0  0  0
 20 21  1  0  0  0  0
 23 22  2  0  0  0  0
 26 27  1  0  0  0  0
 26 25  1  0  0  0  0
 26 24  1  0  0  0  0
 27 25  1  0  0  0  0
 27 23  1  1  0  0  0
M  END
>  <MODEL>
9

>  <REMARK>
 VINA RESULT:      -5.3      5.689      8.897
  Name = 
  4 active torsions:
  status: ('A' for Active; 'I' for Inactive)
    1  A    between atoms: C_2  and  C_6
    2  A    between atoms: C_9  and  C_15
    3  A    between atoms: N_14  and  C_19
    4  A    between atoms: C_17  and  C_21
                            x       y       z     vdW  Elec       q    Type
                         _______ _______ _______ _____ _____    ______ ____

>  <TORSDO>
F 4

$$$$
