=
 OpenBabel10272400403D

 25 28  0  0  1  0  0  0  0  0999 V2000
  187.4750  177.8950  145.5460 C   0  0  0  0  0  0  0  0  0  0  0  0
  188.7870  177.5340  145.1790 C   0  0  0  0  0  0  0  0  0  0  0  0
  188.0890  177.8980  147.9090 C   0  0  0  0  0  3  0  0  0  0  0  0
  186.3650  178.1170  144.7110 C   0  0  0  0  0  0  0  0  0  0  0  0
  183.9510  178.6480  143.4570 C   0  0  0  0  0  3  0  0  0  0  0  0
  189.3940  177.5350  147.5550 C   0  0  0  0  0  3  0  0  0  0  0  0
  185.2230  178.4590  145.4250 C   0  0  0  0  0  0  0  0  0  0  0  0
  184.0390  178.7210  144.8170 N   0  0  0  0  0  0  0  0  0  0  0  0
  191.1260  176.9870  145.8310 C   0  0  0  0  0  0  0  0  0  0  0  0
  191.9660  176.6440  146.7030 O   0  0  0  0  0  0  0  0  0  0  0  0
  189.1590  177.2400  143.7480 C   0  0  0  0  0  2  0  0  0  0  0  0
  185.0780  178.3070  142.6860 C   0  0  0  0  0  3  0  0  0  0  0  0
  187.1530  178.0730  146.8940 C   0  0  0  0  0  0  0  0  0  0  0  0
  185.5300  178.5000  147.0790 S   0  0  0  0  0  0  0  0  0  0  0  0
  191.4990  177.0080  144.4510 N   0  0  0  0  0  2  0  0  0  0  0  0
  186.3010  178.0380  143.3190 C   0  0  0  0  0  3  0  0  0  0  0  0
  190.6150  177.6210  143.4640 C   0  0  1  0  0  3  0  0  0  0  0  0
  189.7470  177.3520  146.2040 C   0  0  0  0  0  0  0  0  0  0  0  0
  191.0220  177.1790  142.0710 C   0  0  0  0  0  2  0  0  0  0  0  0
  189.7950  176.8210  141.2510 C   0  0  0  0  0  2  0  0  0  0  0  0
  189.8770  177.4540  139.9040 C   0  0  0  0  0  0  0  0  0  0  0  0
  190.8840  177.1860  139.1380 N   0  0  0  0  0  2  0  0  0  0  0  0
  188.8710  178.4410  139.4840 C   0  0  0  0  0  0  0  0  0  0  0  0
  189.0510  179.1680  138.3140 O   0  0  0  0  0  0  0  0  0  0  0  0
  187.8410  178.6360  140.1810 O   0  0  0  0  0  1  0  0  0  0  0  0
  1 13  1  0  0  0  0
  2  1  2  0  0  0  0
  2 18  1  0  0  0  0
  4  7  1  0  0  0  0
  4  1  1  0  0  0  0
  5  8  1  0  0  0  0
  6  3  1  0  0  0  0
  7 14  1  0  0  0  0
  8  7  2  0  0  0  0
  9 18  1  0  0  0  0
  9 10  2  0  0  0  0
 11  2  1  0  0  0  0
 12 16  1  0  0  0  0
 12  5  2  0  0  0  0
 13 14  1  0  0  0  0
 13  3  2  0  0  0  0
 15  9  1  0  0  0  0
 16  4  2  0  0  0  0
 17 19  1  6  0  0  0
 17 11  1  0  0  0  0
 17 15  1  0  0  0  0
 18  6  2  0  0  0  0
 20 19  1  0  0  0  0
 21 20  1  0  0  0  0
 22 21  2  0  0  0  0
 23 21  1  0  0  0  0
 23 25  1  0  0  0  0
 24 23  2  0  0  0  0
M  END
>  <MODEL>
1

>  <REMARK>
 VINA RESULT:     -10.1      0.000      0.000
  Name = 
  4 active torsions:
  status: ('A' for Active; 'I' for Inactive)
    1  A    between atoms: C_2  and  CA_21
    2  A    between atoms: C_6  and  C_15
    3  A    between atoms: C_6  and  C_23
    4  A    between atoms: C_15  and  CA_21
                            x       y       z     vdW  Elec       q    Type
                         _______ _______ _______ _____ _____    ______ ____

>  <TORSDO>
F 4

$$$$
=
 OpenBabel10272400403D

 25 28  0  0  1  0  0  0  0  0999 V2000
  187.4640  177.8830  145.4340 C   0  0  0  0  0  0  0  0  0  0  0  0
  188.7910  177.5410  145.1080 C   0  0  0  0  0  0  0  0  0  0  0  0
  188.0070  177.9030  147.8140 C   0  0  0  0  0  3  0  0  0  0  0  0
  186.3750  178.0860  144.5660 C   0  0  0  0  0  0  0  0  0  0  0  0
  183.9930  178.5750  143.2380 C   0  0  0  0  0  3  0  0  0  0  0  0
  189.3270  177.5590  147.5000 C   0  0  0  0  0  3  0  0  0  0  0  0
  185.2070  178.4120  145.2440 C   0  0  0  0  0  0  0  0  0  0  0  0
  184.0380  178.6530  144.6000 N   0  0  0  0  0  0  0  0  0  0  0  0
  191.1180  177.0330  145.8300 C   0  0  0  0  0  0  0  0  0  0  0  0
  191.9370  176.7060  146.7290 O   0  0  0  0  0  0  0  0  0  0  0  0
  189.2110  177.2500  143.6890 C   0  0  0  0  0  2  0  0  0  0  0  0
  185.1470  178.2500  142.5030 C   0  0  0  0  0  3  0  0  0  0  0  0
  187.0990  178.0600  146.7710 C   0  0  0  0  0  0  0  0  0  0  0  0
  185.4640  178.4620  146.9060 S   0  0  0  0  0  0  0  0  0  0  0  0
  191.5310  177.0570  144.4620 N   0  0  0  0  0  2  0  0  0  0  0  0
  186.3540  178.0020  143.1720 C   0  0  0  0  0  3  0  0  0  0  0  0
  190.6680  177.6530  143.4470 C   0  0  1  0  0  3  0  0  0  0  0  0
  189.7230  177.3780  146.1610 C   0  0  0  0  0  0  0  0  0  0  0  0
  191.1230  177.2130  142.0690 C   0  0  0  0  0  2  0  0  0  0  0  0
  189.9790  176.5510  141.3210 C   0  0  0  0  0  2  0  0  0  0  0  0
  189.7600  177.2330  140.0130 C   0  0  0  0  0  0  0  0  0  0  0  0
  188.9890  178.2690  139.9610 N   0  0  0  0  0  2  0  0  0  0  0  0
  190.3430  176.6820  138.7810 C   0  0  0  0  0  0  0  0  0  0  0  0
  190.3260  177.4250  137.6070 O   0  0  0  0  0  0  0  0  0  0  0  0
  190.8590  175.5340  138.7780 O   0  0  0  0  0  1  0  0  0  0  0  0
  1 13  1  0  0  0  0
  2  1  2  0  0  0  0
  2 18  1  0  0  0  0
  4  7  1  0  0  0  0
  4  1  1  0  0  0  0
  5  8  1  0  0  0  0
  6  3  1  0  0  0  0
  7 14  1  0  0  0  0
  8  7  2  0  0  0  0
  9 18  1  0  0  0  0
  9 10  2  0  0  0  0
 11  2  1  0  0  0  0
 12 16  1  0  0  0  0
 12  5  2  0  0  0  0
 13 14  1  0  0  0  0
 13  3  2  0  0  0  0
 15  9  1  0  0  0  0
 16  4  2  0  0  0  0
 17 19  1  6  0  0  0
 17 11  1  0  0  0  0
 17 15  1  0  0  0  0
 18  6  2  0  0  0  0
 20 19  1  0  0  0  0
 21 20  1  0  0  0  0
 22 21  2  0  0  0  0
 23 21  1  0  0  0  0
 24 23  2  0  0  0  0
 25 23  1  0  0  0  0
M  END
>  <MODEL>
2

>  <REMARK>
 VINA RESULT:      -9.8      1.094      1.227
  Name = 
  4 active torsions:
  status: ('A' for Active; 'I' for Inactive)
    1  A    between atoms: C_2  and  CA_21
    2  A    between atoms: C_6  and  C_15
    3  A    between atoms: C_6  and  C_23
    4  A    between atoms: C_15  and  CA_21
                            x       y       z     vdW  Elec       q    Type
                         _______ _______ _______ _____ _____    ______ ____

>  <TORSDO>
F 4

$$$$
=
 OpenBabel10272400403D

 25 28  0  0  1  0  0  0  0  0999 V2000
  187.2180  177.8600  145.2350 C   0  0  0  0  0  0  0  0  0  0  0  0
  188.3360  177.3630  144.5350 C   0  0  0  0  0  0  0  0  0  0  0  0
  188.4600  177.8200  147.3360 C   0  0  0  0  0  3  0  0  0  0  0  0
  185.9470  178.1890  144.7300 C   0  0  0  0  0  0  0  0  0  0  0  0
  183.3440  178.9550  144.1690 C   0  0  0  0  0  3  0  0  0  0  0  0
  189.5750  177.3210  146.6500 C   0  0  0  0  0  3  0  0  0  0  0  0
  185.0860  178.6530  145.7170 C   0  0  0  0  0  0  0  0  0  0  0  0
  183.8110  179.0300  145.4480 N   0  0  0  0  0  0  0  0  0  0  0  0
  190.6990  176.5840  144.5380 C   0  0  0  0  0  0  0  0  0  0  0  0
  191.7110  176.1630  145.1580 O   0  0  0  0  0  0  0  0  0  0  0  0
  188.2660  177.0210  143.0680 C   0  0  0  0  0  2  0  0  0  0  0  0
  184.1740  178.4940  143.1310 C   0  0  0  0  0  3  0  0  0  0  0  0
  187.3020  178.0820  146.6120 C   0  0  0  0  0  0  0  0  0  0  0  0
  185.8420  178.6750  147.2200 S   0  0  0  0  0  0  0  0  0  0  0  0
  190.6750  176.5550  143.1090 N   0  0  0  0  0  2  0  0  0  0  0  0
  185.4920  178.1060  143.4130 C   0  0  0  0  0  3  0  0  0  0  0  0
  189.6160  177.2470  142.3810 C   0  0  1  0  0  3  0  0  0  0  0  0
  189.5200  177.0920  145.2620 C   0  0  0  0  0  0  0  0  0  0  0  0
  189.5760  176.7550  140.9470 C   0  0  0  0  0  2  0  0  0  0  0  0
  190.0560  177.8420  140.0010 C   0  0  0  0  0  2  0  0  0  0  0  0
  188.9150  178.3520  139.1870 C   0  0  0  0  0  0  0  0  0  0  0  0
  187.7520  178.4790  139.7380 N   0  0  0  0  0  2  0  0  0  0  0  0
  189.0880  178.6230  137.7530 C   0  0  0  0  0  0  0  0  0  0  0  0
  189.7380  177.7020  136.9410 O   0  0  0  0  0  0  0  0  0  0  0  0
  188.6520  179.6920  137.2500 O   0  0  0  0  0  1  0  0  0  0  0  0
  1 13  1  0  0  0  0
  2  1  2  0  0  0  0
  2 18  1  0  0  0  0
  4  1  1  0  0  0  0
  4  7  1  0  0  0  0
  5  8  1  0  0  0  0
  6  3  1  0  0  0  0
  7 14  1  0  0  0  0
  8  7  2  0  0  0  0
  9 10  2  0  0  0  0
  9 18  1  0  0  0  0
 11  2  1  0  0  0  0
 12 16  1  0  0  0  0
 12  5  2  0  0  0  0
 13 14  1  0  0  0  0
 13  3  2  0  0  0  0
 15  9  1  0  0  0  0
 16  4  2  0  0  0  0
 17 19  1  6  0  0  0
 17 11  1  0  0  0  0
 17 15  1  0  0  0  0
 18  6  2  0  0  0  0
 20 19  1  0  0  0  0
 21 22  2  0  0  0  0
 21 20  1  0  0  0  0
 23 21  1  0  0  0  0
 24 23  2  0  0  0  0
 25 23  1  0  0  0  0
M  END
>  <MODEL>
3

>  <REMARK>
 VINA RESULT:      -9.7      1.301      1.500
  Name = 
  4 active torsions:
  status: ('A' for Active; 'I' for Inactive)
    1  A    between atoms: C_2  and  CA_21
    2  A    between atoms: C_6  and  C_15
    3  A    between atoms: C_6  and  C_23
    4  A    between atoms: C_15  and  CA_21
                            x       y       z     vdW  Elec       q    Type
                         _______ _______ _______ _____ _____    ______ ____

>  <TORSDO>
F 4

$$$$
=
 OpenBabel10272400403D

 25 28  0  0  1  0  0  0  0  0999 V2000
  189.4110  177.3160  144.4790 C   0  0  0  0  0  0  0  0  0  0  0  0
  188.4520  177.6810  145.4460 C   0  0  0  0  0  0  0  0  0  0  0  0
  191.0120  176.7270  146.2260 C   0  0  0  0  0  3  0  0  0  0  0  0
  189.2970  177.3550  143.0780 C   0  0  0  0  0  0  0  0  0  0  0  0
  189.5010  177.2640  140.3160 C   0  0  0  0  0  3  0  0  0  0  0  0
  190.0670  177.0920  147.1940 C   0  0  0  0  0  3  0  0  0  0  0  0
  190.4500  176.9190  142.4380 C   0  0  0  0  0  0  0  0  0  0  0  0
  190.5560  176.8710  141.0870 N   0  0  0  0  0  0  0  0  0  0  0  0
  187.7970  177.9320  147.8340 C   0  0  0  0  0  0  0  0  0  0  0  0
  188.1100  178.0160  149.0500 O   0  0  0  0  0  0  0  0  0  0  0  0
  187.1240  178.2800  145.0600 C   0  0  0  0  0  2  0  0  0  0  0  0
  188.3090  177.7140  140.9130 C   0  0  0  0  0  3  0  0  0  0  0  0
  190.6630  176.8450  144.8850 C   0  0  0  0  0  0  0  0  0  0  0  0
  191.6320  176.4760  143.5520 S   0  0  0  0  0  0  0  0  0  0  0  0
  186.4580  178.2140  147.4200 N   0  0  0  0  0  2  0  0  0  0  0  0
  188.2040  177.7610  142.3100 C   0  0  0  0  0  3  0  0  0  0  0  0
  186.0300  177.8980  146.0610 C   0  0  1  0  0  3  0  0  0  0  0  0
  188.7970  177.5660  146.8140 C   0  0  0  0  0  0  0  0  0  0  0  0
  184.7390  178.6300  145.7490 C   0  0  0  0  0  2  0  0  0  0  0  0
  184.8960  179.4670  144.4920 C   0  0  0  0  0  2  0  0  0  0  0  0
  183.9160  179.0270  143.4580 C   0  0  0  0  0  0  0  0  0  0  0  0
  182.6990  178.7670  143.8100 N   0  0  0  0  0  2  0  0  0  0  0  0
  184.3480  178.8070  142.0700 C   0  0  0  0  0  0  0  0  0  0  0  0
  183.7790  177.7900  141.3140 O   0  0  0  0  0  0  0  0  0  0  0  0
  185.2380  179.5350  141.5570 O   0  0  0  0  0  1  0  0  0  0  0  0
  1 13  1  0  0  0  0
  1  2  2  0  0  0  0
  2 18  1  0  0  0  0
  3  6  1  0  0  0  0
  4  1  1  0  0  0  0
  5 12  2  0  0  0  0
  5  8  1  0  0  0  0
  7  4  1  0  0  0  0
  7 14  1  0  0  0  0
  8  7  2  0  0  0  0
  9 10  2  0  0  0  0
 11  2  1  0  0  0  0
 11 17  1  0  0  0  0
 12 16  1  0  0  0  0
 13  3  2  0  0  0  0
 14 13  1  0  0  0  0
 15  9  1  0  0  0  0
 16  4  2  0  0  0  0
 17 19  1  6  0  0  0
 17 15  1  0  0  0  0
 18  6  2  0  0  0  0
 18  9  1  0  0  0  0
 20 19  1  0  0  0  0
 21 22  2  0  0  0  0
 21 20  1  0  0  0  0
 23 21  1  0  0  0  0
 24 23  2  0  0  0  0
 25 23  1  0  0  0  0
M  END
>  <MODEL>
4

>  <REMARK>
 VINA RESULT:      -9.6      2.423      5.239
  Name = 
  4 active torsions:
  status: ('A' for Active; 'I' for Inactive)
    1  A    between atoms: C_2  and  CA_21
    2  A    between atoms: C_6  and  C_15
    3  A    between atoms: C_6  and  C_23
    4  A    between atoms: C_15  and  CA_21
                            x       y       z     vdW  Elec       q    Type
                         _______ _______ _______ _____ _____    ______ ____

>  <TORSDO>
F 4

$$$$
=
 OpenBabel10272400403D

 25 28  0  0  1  0  0  0  0  0999 V2000
  186.9610  178.0710  142.8980 C   0  0  0  0  0  0  0  0  0  0  0  0
  186.8710  177.8940  144.2930 C   0  0  0  0  0  0  0  0  0  0  0  0
  184.7710  179.1500  142.8490 C   0  0  0  0  0  3  0  0  0  0  0  0
  188.0040  177.6910  142.0340 C   0  0  0  0  0  0  0  0  0  0  0  0
  189.8030  177.1300  140.0020 C   0  0  0  0  0  3  0  0  0  0  0  0
  184.6710  178.9750  144.2340 C   0  0  0  0  0  3  0  0  0  0  0  0
  187.7490  178.0260  140.7100 C   0  0  0  0  0  0  0  0  0  0  0  0
  188.6250  177.7550  139.7120 N   0  0  0  0  0  0  0  0  0  0  0  0
  185.6090  178.1850  146.4180 C   0  0  0  0  0  0  0  0  0  0  0  0
  184.5320  178.4130  147.0270 O   0  0  0  0  0  0  0  0  0  0  0  0
  187.9260  177.1460  145.0680 C   0  0  0  0  0  2  0  0  0  0  0  0
  190.1120  176.7690  141.3260 C   0  0  0  0  0  3  0  0  0  0  0  0
  185.9190  178.6950  142.2070 C   0  0  0  0  0  0  0  0  0  0  0  0
  186.2560  178.7880  140.5550 S   0  0  0  0  0  0  0  0  0  0  0  0
  186.7570  177.7380  147.1430 N   0  0  0  0  0  2  0  0  0  0  0  0
  189.2040  177.0520  142.3560 C   0  0  0  0  0  3  0  0  0  0  0  0
  188.0630  177.6950  146.4910 C   0  0  1  0  0  3  0  0  0  0  0  0
  185.7080  178.3530  144.9570 C   0  0  0  0  0  0  0  0  0  0  0  0
  189.0120  176.8380  147.3070 C   0  0  0  0  0  2  0  0  0  0  0  0
  190.3400  177.5500  147.4920 C   0  0  0  0  0  2  0  0  0  0  0  0
  191.4220  176.8070  146.7830 C   0  0  0  0  0  0  0  0  0  0  0  0
  192.2820  176.1320  147.4720 N   0  0  0  0  0  2  0  0  0  0  0  0
  191.5630  176.9130  145.3230 C   0  0  0  0  0  0  0  0  0  0  0  0
  191.6510  175.7660  144.5450 O   0  0  0  0  0  0  0  0  0  0  0  0
  191.6060  178.0420  144.7680 O   0  0  0  0  0  1  0  0  0  0  0  0
  1  2  2  0  0  0  0
  2 18  1  0  0  0  0
  2 11  1  0  0  0  0
  3  6  1  0  0  0  0
  4 16  1  0  0  0  0
  4  1  1  0  0  0  0
  5 12  1  0  0  0  0
  6 18  2  0  0  0  0
  7  4  2  0  0  0  0
  8  5  2  0  0  0  0
  8  7  1  0  0  0  0
  9 10  2  0  0  0  0
  9 15  1  0  0  0  0
 11 17  1  0  0  0  0
 12 16  2  0  0  0  0
 13  3  2  0  0  0  0
 13  1  1  0  0  0  0
 14  7  1  0  0  0  0
 14 13  1  0  0  0  0
 17 15  1  0  0  0  0
 17 19  1  1  0  0  0
 18  9  1  0  0  0  0
 19 20  1  0  0  0  0
 21 22  2  0  0  0  0
 21 20  1  0  0  0  0
 23 21  1  0  0  0  0
 24 23  2  0  0  0  0
 25 23  1  0  0  0  0
M  END
>  <MODEL>
5

>  <REMARK>
 VINA RESULT:      -9.3      2.726      5.716
  Name = 
  4 active torsions:
  status: ('A' for Active; 'I' for Inactive)
    1  A    between atoms: C_2  and  CA_21
    2  A    between atoms: C_6  and  C_15
    3  A    between atoms: C_6  and  C_23
    4  A    between atoms: C_15  and  CA_21
                            x       y       z     vdW  Elec       q    Type
                         _______ _______ _______ _____ _____    ______ ____

>  <TORSDO>
F 4

$$$$
=
 OpenBabel10272400403D

 25 28  0  0  1  0  0  0  0  0999 V2000
  186.4810  178.2540  144.4470 C   0  0  0  0  0  0  0  0  0  0  0  0
  186.6550  178.4190  143.0580 C   0  0  0  0  0  0  0  0  0  0  0  0
  184.1280  178.8830  144.2710 C   0  0  0  0  0  3  0  0  0  0  0  0
  187.4340  177.8700  145.4070 C   0  0  0  0  0  0  0  0  0  0  0  0
  188.9670  177.1490  147.6010 C   0  0  0  0  0  3  0  0  0  0  0  0
  184.2930  179.0540  142.8910 C   0  0  0  0  0  3  0  0  0  0  0  0
  186.9040  177.8120  146.6900 C   0  0  0  0  0  0  0  0  0  0  0  0
  187.6480  177.4590  147.7670 N   0  0  0  0  0  0  0  0  0  0  0  0
  185.7100  178.9890  140.8280 C   0  0  0  0  0  0  0  0  0  0  0  0
  184.8080  179.5140  140.1250 O   0  0  0  0  0  0  0  0  0  0  0  0
  188.0060  178.2730  142.4050 C   0  0  0  0  0  2  0  0  0  0  0  0
  189.5540  177.1910  146.3230 C   0  0  0  0  0  3  0  0  0  0  0  0
  185.2290  178.4840  145.0230 C   0  0  0  0  0  0  0  0  0  0  0  0
  185.2720  178.2230  146.6910 S   0  0  0  0  0  0  0  0  0  0  0  0
  186.9280  178.5560  140.2180 N   0  0  0  0  0  2  0  0  0  0  0  0
  188.7800  177.5550  145.2120 C   0  0  0  0  0  3  0  0  0  0  0  0
  187.8750  177.7420  140.9740 C   0  0  1  0  0  3  0  0  0  0  0  0
  185.5430  178.8260  142.2830 C   0  0  0  0  0  0  0  0  0  0  0  0
  189.2220  177.7470  140.2760 C   0  0  0  0  0  2  0  0  0  0  0  0
  190.1160  176.6590  140.8460 C   0  0  0  0  0  2  0  0  0  0  0  0
  191.3760  177.2560  141.3740 C   0  0  0  0  0  0  0  0  0  0  0  0
  192.2930  177.6350  140.5450 N   0  0  0  0  0  2  0  0  0  0  0  0
  191.6120  177.3330  142.8230 C   0  0  0  0  0  0  0  0  0  0  0  0
  191.7580  176.1710  143.5700 O   0  0  0  0  0  1  0  0  0  0  0  0
  191.6800  178.4510  143.3990 O   0  0  0  0  0  0  0  0  0  0  0  0
  1 13  2  0  0  0  0
  1  4  1  0  0  0  0
  2  1  1  0  0  0  0
  3 13  1  0  0  0  0
  4  7  1  0  0  0  0
  5  8  1  0  0  0  0
  6  3  2  0  0  0  0
  7 14  1  0  0  0  0
  7  8  2  0  0  0  0
  9 18  1  0  0  0  0
 10  9  2  0  0  0  0
 11  2  1  0  0  0  0
 12  5  2  0  0  0  0
 13 14  1  0  0  0  0
 15  9  1  0  0  0  0
 15 17  1  0  0  0  0
 16  4  2  0  0  0  0
 16 12  1  0  0  0  0
 17 19  1  6  0  0  0
 17 11  1  0  0  0  0
 18  6  1  0  0  0  0
 18  2  2  0  0  0  0
 19 20  1  0  0  0  0
 20 21  1  0  0  0  0
 21 23  1  0  0  0  0
 22 21  2  0  0  0  0
 23 25  2  0  0  0  0
 23 24  1  0  0  0  0
M  END
>  <MODEL>
6

>  <REMARK>
 VINA RESULT:      -9.3      1.988      4.812
  Name = 
  4 active torsions:
  status: ('A' for Active; 'I' for Inactive)
    1  A    between atoms: C_2  and  CA_21
    2  A    between atoms: C_6  and  C_15
    3  A    between atoms: C_6  and  C_23
    4  A    between atoms: C_15  and  CA_21
                            x       y       z     vdW  Elec       q    Type
                         _______ _______ _______ _____ _____    ______ ____

>  <TORSDO>
F 4

$$$$
=
 OpenBabel10272400403D

 25 28  0  0  1  0  0  0  0  0999 V2000
  185.8440  178.4900  143.0060 C   0  0  0  0  0  0  0  0  0  0  0  0
  186.9360  178.2940  142.1360 C   0  0  0  0  0  0  0  0  0  0  0  0
  184.3710  178.9710  141.1190 C   0  0  0  0  0  3  0  0  0  0  0  0
  185.8190  178.4030  144.4090 C   0  0  0  0  0  0  0  0  0  0  0  0
  185.3210  178.3300  147.1340 C   0  0  0  0  0  3  0  0  0  0  0  0
  185.4510  178.7820  140.2470 C   0  0  0  0  0  3  0  0  0  0  0  0
  184.5600  178.6620  144.9360 C   0  0  0  0  0  0  0  0  0  0  0  0
  184.3100  178.6280  146.2680 N   0  0  0  0  0  0  0  0  0  0  0  0
  187.8570  178.2300  139.8250 C   0  0  0  0  0  0  0  0  0  0  0  0
  187.7680  178.5230  138.6040 O   0  0  0  0  0  0  0  0  0  0  0  0
  188.3270  178.0290  142.6550 C   0  0  0  0  0  2  0  0  0  0  0  0
  186.6150  178.0580  146.6540 C   0  0  0  0  0  3  0  0  0  0  0  0
  184.5900  178.8190  142.4840 C   0  0  0  0  0  0  0  0  0  0  0  0
  183.4500  179.0030  143.7170 S   0  0  0  0  0  0  0  0  0  0  0  0
  189.0780  177.6960  140.3430 N   0  0  0  0  0  2  0  0  0  0  0  0
  186.8700  178.0940  145.2750 C   0  0  0  0  0  3  0  0  0  0  0  0
  189.1180  177.1400  141.6920 C   0  0  1  0  0  3  0  0  0  0  0  0
  186.7250  178.4470  140.7450 C   0  0  0  0  0  0  0  0  0  0  0  0
  190.5600  177.0090  142.1460 C   0  0  0  0  0  2  0  0  0  0  0  0
  190.7420  177.6450  143.5130 C   0  0  0  0  0  2  0  0  0  0  0  0
  191.2920  176.6450  144.4730 C   0  0  0  0  0  0  0  0  0  0  0  0
  191.8230  175.5570  144.0190 N   0  0  0  0  0  2  0  0  0  0  0  0
  191.1540  176.8520  145.9220 C   0  0  0  0  0  0  0  0  0  0  0  0
  192.1870  176.4950  146.7810 O   0  0  0  0  0  1  0  0  0  0  0  0
  190.1010  177.3510  146.3970 O   0  0  0  0  0  0  0  0  0  0  0  0
  1  4  1  0  0  0  0
  2 11  1  0  0  0  0
  2  1  1  0  0  0  0
  3 13  1  0  0  0  0
  4  7  2  0  0  0  0
  4 16  1  0  0  0  0
  6 18  1  0  0  0  0
  6  3  2  0  0  0  0
  7  8  1  0  0  0  0
  8  5  2  0  0  0  0
  9 15  1  0  0  0  0
  9 18  1  0  0  0  0
 10  9  2  0  0  0  0
 12  5  1  0  0  0  0
 13  1  2  0  0  0  0
 13 14  1  0  0  0  0
 14  7  1  0  0  0  0
 15 17  1  0  0  0  0
 16 12  2  0  0  0  0
 17 19  1  1  0  0  0
 17 11  1  0  0  0  0
 18  2  2  0  0  0  0
 19 20  1  0  0  0  0
 20 21  1  0  0  0  0
 21 23  1  0  0  0  0
 22 21  2  0  0  0  0
 23 25  2  0  0  0  0
 23 24  1  0  0  0  0
M  END
>  <MODEL>
7

>  <REMARK>
 VINA RESULT:      -9.1      1.578      5.237
  Name = 
  4 active torsions:
  status: ('A' for Active; 'I' for Inactive)
    1  A    between atoms: C_2  and  CA_21
    2  A    between atoms: C_6  and  C_15
    3  A    between atoms: C_6  and  C_23
    4  A    between atoms: C_15  and  CA_21
                            x       y       z     vdW  Elec       q    Type
                         _______ _______ _______ _____ _____    ______ ____

>  <TORSDO>
F 4

$$$$
=
 OpenBabel10272400403D

 25 28  0  0  1  0  0  0  0  0999 V2000
  188.8520  177.5710  144.9780 C   0  0  0  0  0  0  0  0  0  0  0  0
  187.4880  177.9230  144.9960 C   0  0  0  0  0  0  0  0  0  0  0  0
  188.8750  177.3580  147.4100 C   0  0  0  0  0  3  0  0  0  0  0  0
  189.7080  177.4480  143.8690 C   0  0  0  0  0  0  0  0  0  0  0  0
  191.7150  177.0890  141.9920 C   0  0  0  0  0  3  0  0  0  0  0  0
  187.5200  177.7120  147.4390 C   0  0  0  0  0  3  0  0  0  0  0  0
  190.9990  177.0820  144.2300 C   0  0  0  0  0  0  0  0  0  0  0  0
  191.9850  176.9040  143.3160 N   0  0  0  0  0  0  0  0  0  0  0  0
  185.3960  178.3490  146.2750 C   0  0  0  0  0  0  0  0  0  0  0  0
  184.8100  178.5960  147.3620 O   0  0  0  0  0  0  0  0  0  0  0  0
  186.7540  178.3220  143.7410 C   0  0  0  0  0  2  0  0  0  0  0  0
  190.4250  177.4600  141.5710 C   0  0  0  0  0  3  0  0  0  0  0  0
  189.5150  177.2930  146.1770 C   0  0  0  0  0  0  0  0  0  0  0  0
  191.1330  176.8990  145.8980 S   0  0  0  0  0  0  0  0  0  0  0  0
  184.6770  178.4290  145.0430 N   0  0  0  0  0  2  0  0  0  0  0  0
  189.4080  177.6420  142.5190 C   0  0  0  0  0  3  0  0  0  0  0  0
  185.2770  177.9240  143.8120 C   0  0  1  0  0  3  0  0  0  0  0  0
  186.8270  177.9940  146.2460 C   0  0  0  0  0  0  0  0  0  0  0  0
  184.5190  178.4660  142.6150 C   0  0  0  0  0  2  0  0  0  0  0  0
  185.3900  179.4330  141.8320 C   0  0  0  0  0  2  0  0  0  0  0  0
  185.4590  179.0150  140.4010 C   0  0  0  0  0  0  0  0  0  0  0  0
  186.5630  178.5260  139.9380 N   0  0  0  0  0  2  0  0  0  0  0  0
  184.3150  179.2380  139.5060 C   0  0  0  0  0  0  0  0  0  0  0  0
  183.4240  178.2040  139.2400 O   0  0  0  0  0  1  0  0  0  0  0  0
  184.1340  180.3630  138.9710 O   0  0  0  0  0  0  0  0  0  0  0  0
  1  2  2  0  0  0  0
  1 13  1  0  0  0  0
  2 18  1  0  0  0  0
  3  6  1  0  0  0  0
  4  7  1  0  0  0  0
  4  1  1  0  0  0  0
  5  8  1  0  0  0  0
  7 14  1  0  0  0  0
  8  7  2  0  0  0  0
  9 10  2  0  0  0  0
 11 17  1  0  0  0  0
 11  2  1  0  0  0  0
 12  5  2  0  0  0  0
 12 16  1  0  0  0  0
 13  3  2  0  0  0  0
 14 13  1  0  0  0  0
 15  9  1  0  0  0  0
 16  4  2  0  0  0  0
 17 19  1  6  0  0  0
 17 15  1  0  0  0  0
 18  9  1  0  0  0  0
 18  6  2  0  0  0  0
 20 19  1  0  0  0  0
 21 20  1  0  0  0  0
 22 21  2  0  0  0  0
 23 21  1  0  0  0  0
 24 23  1  0  0  0  0
 25 23  2  0  0  0  0
M  END
>  <MODEL>
8

>  <REMARK>
 VINA RESULT:      -9.0      2.693      5.081
  Name = 
  4 active torsions:
  status: ('A' for Active; 'I' for Inactive)
    1  A    between atoms: C_2  and  CA_21
    2  A    between atoms: C_6  and  C_15
    3  A    between atoms: C_6  and  C_23
    4  A    between atoms: C_15  and  CA_21
                            x       y       z     vdW  Elec       q    Type
                         _______ _______ _______ _____ _____    ______ ____

>  <TORSDO>
F 4

$$$$
=
 OpenBabel10272400403D

 25 28  0  0  1  0  0  0  0  0999 V2000
  187.6810  177.8550  145.6770 C   0  0  0  0  0  0  0  0  0  0  0  0
  186.9100  178.2600  144.5690 C   0  0  0  0  0  0  0  0  0  0  0  0
  185.7880  178.2110  147.1780 C   0  0  0  0  0  3  0  0  0  0  0  0
  189.0260  177.4440  145.7030 C   0  0  0  0  0  0  0  0  0  0  0  0
  191.6090  176.5760  146.2050 C   0  0  0  0  0  3  0  0  0  0  0  0
  185.0160  178.6180  146.0840 C   0  0  0  0  0  3  0  0  0  0  0  0
  189.4580  177.1170  146.9820 C   0  0  0  0  0  0  0  0  0  0  0  0
  190.7210  176.6910  147.2340 N   0  0  0  0  0  0  0  0  0  0  0  0
  184.7460  179.0570  143.6330 C   0  0  0  0  0  0  0  0  0  0  0  0
  183.6100  179.5730  143.7940 O   0  0  0  0  0  0  0  0  0  0  0  0
  187.5080  178.3870  143.1900 C   0  0  0  0  0  2  0  0  0  0  0  0
  191.2230  176.8930  144.8900 C   0  0  0  0  0  3  0  0  0  0  0  0
  187.1090  177.8350  146.9520 C   0  0  0  0  0  0  0  0  0  0  0  0
  188.2250  177.3190  148.1100 S   0  0  0  0  0  0  0  0  0  0  0  0
  185.2690  178.8800  142.3140 N   0  0  0  0  0  2  0  0  0  0  0  0
  189.9160  177.3320  144.6330 C   0  0  0  0  0  3  0  0  0  0  0  0
  186.4710  178.0790  142.1060 C   0  0  1  0  0  3  0  0  0  0  0  0
  185.5660  178.6450  144.7870 C   0  0  0  0  0  0  0  0  0  0  0  0
  187.0390  178.3610  140.7270 C   0  0  0  0  0  2  0  0  0  0  0  0
  188.5570  178.3350  140.7660 C   0  0  0  0  0  2  0  0  0  0  0  0
  189.1010  178.1470  139.3900 C   0  0  0  0  0  0  0  0  0  0  0  0
  188.9310  179.0770  138.5090 N   0  0  0  0  0  2  0  0  0  0  0  0
  189.7470  176.8810  139.0140 C   0  0  0  0  0  0  0  0  0  0  0  0
  190.5320  176.1960  139.9340 O   0  0  0  0  0  1  0  0  0  0  0  0
  189.5960  176.4080  137.8570 O   0  0  0  0  0  0  0  0  0  0  0  0
  1  4  1  0  0  0  0
  1 13  2  0  0  0  0
  2 18  2  0  0  0  0
  2  1  1  0  0  0  0
  4  7  1  0  0  0  0
  5  8  1  0  0  0  0
  6  3  2  0  0  0  0
  7  8  2  0  0  0  0
  7 14  1  0  0  0  0
  9 10  2  0  0  0  0
  9 18  1  0  0  0  0
 11  2  1  0  0  0  0
 12  5  2  0  0  0  0
 13  3  1  0  0  0  0
 13 14  1  0  0  0  0
 15  9  1  0  0  0  0
 16 12  1  0  0  0  0
 16  4  2  0  0  0  0
 17 19  1  6  0  0  0
 17 15  1  0  0  0  0
 17 11  1  0  0  0  0
 18  6  1  0  0  0  0
 19 20  1  0  0  0  0
 21 20  1  0  0  0  0
 22 21  2  0  0  0  0
 23 21  1  0  0  0  0
 23 24  1  0  0  0  0
 25 23  2  0  0  0  0
M  END
>  <MODEL>
9

>  <REMARK>
 VINA RESULT:      -9.0      2.268      4.688
  Name = 
  4 active torsions:
  status: ('A' for Active; 'I' for Inactive)
    1  A    between atoms: C_2  and  CA_21
    2  A    between atoms: C_6  and  C_15
    3  A    between atoms: C_6  and  C_23
    4  A    between atoms: C_15  and  CA_21
                            x       y       z     vdW  Elec       q    Type
                         _______ _______ _______ _____ _____    ______ ____

>  <TORSDO>
F 4

$$$$
