=
 OpenBabel10272414443D

 37 44  0  0  1  0  0  0  0  0999 V2000
  184.9140  180.1610  143.7860 O   0  0  0  0  0  0  0  0  0  0  0  0
  183.0670  176.9040  139.0720 C   0  0  0  0  0  3  0  0  0  0  0  0
  190.2390  177.5480  143.5600 C   0  0  0  0  0  2  0  0  0  0  0  0
  187.6600  178.4040  140.6140 C   0  0  0  0  0  0  0  0  0  0  0  0
  184.4990  179.9530  145.1250 C   0  0  1  0  0  3  0  0  0  0  0  0
  183.6130  178.2980  139.3150 C   0  0  2  0  0  0  0  0  0  0  0  0
  183.8960  178.6900  140.6870 C   0  0  2  0  0  3  0  0  0  0  0  0
  182.8330  179.3540  138.5710 C   0  0  0  0  0  3  0  0  0  0  0  0
  189.1780  176.5540  141.4340 C   0  0  1  0  0  3  0  0  0  0  0  0
  186.5080  179.2270  141.1150 C   0  0  1  0  0  3  0  0  0  0  0  0
  188.1450  177.6410  141.5980 C   0  0  0  0  0  0  0  0  0  0  0  0
  185.3130  178.8370  140.4070 N   0  0  0  0  0  0  0  0  0  0  0  0
  181.5580  180.0190  136.7320 F   0  0  0  0  0  0  0  0  0  0  0  0
  190.4490  177.1260  141.2210 O   0  0  0  0  0  0  0  0  0  0  0  0
  183.4470  178.9900  145.2850 O   0  0  0  0  0  0  0  0  0  0  0  0
  182.3320  177.6630  136.8290 C   0  0  0  0  0  2  0  0  0  0  0  0
  182.2260  179.0530  137.4130 C   0  0  0  0  0  0  0  0  0  0  0  0
  187.2920  177.8160  142.7650 C   0  0  0  0  0  0  0  0  0  0  0  0
  188.1930  177.4660  145.0100 C   0  0  0  0  0  2  0  0  0  0  0  0
  187.3740  178.2940  138.1130 C   0  0  0  0  0  3  0  0  0  0  0  0
  189.4890  178.4590  139.0080 F   0  0  0  0  0  0  0  0  0  0  0  0
  187.3520  177.0650  143.9370 O   0  0  0  0  0  0  0  0  0  0  0  0
  182.9510  178.4830  144.0540 C   0  0  2  0  0  3  0  0  0  0  0  0
  183.6960  177.5840  141.7440 C   0  0  0  0  0  2  0  0  0  0  0  0
  188.1510  178.4040  139.2100 C   0  0  0  0  0  0  0  0  0  0  0  0
  186.3920  178.7500  142.5170 C   0  0  0  0  0  0  0  0  0  0  0  0
  190.2670  176.4910  142.4620 C   0  0  1  0  0  3  0  0  0  0  0  0
  185.0830  178.3890  139.0300 C   0  0  0  0  0  0  0  0  0  0  0  0
  189.6150  176.9590  144.8130 C   0  0  0  0  0  2  0  0  0  0  0  0
  184.1020  177.9710  143.1840 C   0  0  1  0  0  3  0  0  0  0  0  0
  182.4620  176.6160  137.9100 C   0  0  0  0  0  3  0  0  0  0  0  0
  185.1940  178.9350  143.2710 N   0  0  0  0  0  0  0  0  0  0  0  0
  185.9020  178.1650  138.0120 C   0  0  0  0  0  3  0  0  0  0  0  0
  182.0620  179.5120  143.3530 C   0  0  0  0  0  2  0  0  0  0  0  0
  180.7680  179.0070  143.2220 O   0  0  0  0  0  1  0  0  0  0  0  0
  185.2070  178.5300  146.8440 C   0  0  0  0  0  1  0  0  0  0  0  0
  185.6370  179.6020  145.9640 N   0  0  0  0  0  2  0  0  0  0  0  0
  1  5  1  0  0  0  0
  2  6  1  0  0  0  0
  3 29  1  0  0  0  0
  4 11  2  0  0  0  0
  5 15  1  0  0  0  0
  5 37  1  1  0  0  0
  6  8  1  6  0  0  0
  6  7  1  0  0  0  0
  7 24  1  1  0  0  0
  9 14  1  6  0  0  0
  9 11  1  0  0  0  0
  9 27  1  0  0  0  0
 10  4  1  6  0  0  0
 10 26  1  0  0  0  0
 11 18  1  0  0  0  0
 12  7  1  0  0  0  0
 12 10  1  0  0  0  0
 13 17  1  0  0  0  0
 14 27  1  0  0  0  0
 16 17  1  0  0  0  0
 16 31  1  0  0  0  0
 17  8  2  0  0  0  0
 18 22  1  0  0  0  0
 20 25  2  0  0  0  0
 21 25  1  0  0  0  0
 22 19  1  0  0  0  0
 23 34  1  6  0  0  0
 23 15  1  0  0  0  0
 25  4  1  0  0  0  0
 26 18  2  0  0  0  0
 26 32  1  0  0  0  0
 27  3  1  1  0  0  0
 28  6  1  0  0  0  0
 28 12  1  0  0  0  0
 29 19  1  0  0  0  0
 30 24  1  6  0  0  0
 30 32  1  0  0  0  0
 30 23  1  0  0  0  0
 31  2  2  0  0  0  0
 32  1  1  0  0  0  0
 33 20  1  0  0  0  0
 33 28  2  0  0  0  0
 35 34  1  0  0  0  0
 37 36  1  0  0  0  0
M  END
>  <MODEL>
1

>  <REMARK>
 VINA RESULT:      -8.2      0.000      0.000
  Name = 
  2 active torsions:
  status: ('A' for Active; 'I' for Inactive)
    1  A    between atoms: C_5  and  N_23
    2  A    between atoms: C_11  and  C_26
                            x       y       z     vdW  Elec       q    Type
                         _______ _______ _______ _____ _____    ______ ____

>  <TORSDO>
F 2

$$$$
=
 OpenBabel10272414443D

 37 44  0  0  1  0  0  0  0  0999 V2000
  189.7740  177.9480  136.6820 O   0  0  0  0  0  0  0  0  0  0  0  0
  188.8830  176.4260  142.4380 C   0  0  0  0  0  3  0  0  0  0  0  0
  184.0180  177.0880  135.5180 C   0  0  0  0  0  2  0  0  0  0  0  0
  185.8110  178.3310  138.8800 C   0  0  0  0  0  0  0  0  0  0  0  0
  190.4320  177.1370  135.7230 C   0  0  1  0  0  3  0  0  0  0  0  0
  188.9930  177.7040  141.6300 C   0  0  2  0  0  0  0  0  0  0  0  0
  189.2680  177.5910  140.2060 C   0  0  2  0  0  3  0  0  0  0  0  0
  189.8760  178.7290  142.2990 C   0  0  0  0  0  3  0  0  0  0  0  0
  183.9970  176.7630  138.0730 C   0  0  1  0  0  3  0  0  0  0  0  0
  187.2780  178.5690  138.6630 C   0  0  1  0  0  3  0  0  0  0  0  0
  185.3650  177.3970  138.0340 C   0  0  0  0  0  0  0  0  0  0  0  0
  187.9920  178.1930  139.8590 N   0  0  0  0  0  0  0  0  0  0  0  0
  190.7480  179.7060  144.2320 F   0  0  0  0  0  0  0  0  0  0  0  0
  183.0300  177.6780  137.6080 O   0  0  0  0  0  0  0  0  0  0  0  0
  191.0430  175.9530  136.2560 O   0  0  0  0  0  0  0  0  0  0  0  0
  189.2030  177.7820  144.4890 C   0  0  0  0  0  2  0  0  0  0  0  0
  189.9810  178.7570  143.6370 C   0  0  0  0  0  0  0  0  0  0  0  0
  186.5060  176.8790  137.2930 C   0  0  0  0  0  0  0  0  0  0  0  0
  186.1950  175.9280  135.0640 C   0  0  0  0  0  2  0  0  0  0  0  0
  185.3340  179.1320  141.2200 C   0  0  0  0  0  3  0  0  0  0  0  0
  183.7720  179.4730  139.5640 F   0  0  0  0  0  0  0  0  0  0  0  0
  186.4920  175.7740  136.4450 O   0  0  0  0  0  0  0  0  0  0  0  0
  190.9520  175.8560  137.6710 C   0  0  2  0  0  3  0  0  0  0  0  0
  189.3180  176.1500  139.6570 C   0  0  0  0  0  2  0  0  0  0  0  0
  184.9910  179.0030  139.9230 C   0  0  0  0  0  0  0  0  0  0  0  0
  187.5860  177.5720  137.6070 C   0  0  0  0  0  0  0  0  0  0  0  0
  183.2930  176.5870  136.7610 C   0  0  1  0  0  3  0  0  0  0  0  0
  187.6480  178.2730  141.2820 C   0  0  0  0  0  0  0  0  0  0  0  0
  184.6920  175.9200  134.8210 C   0  0  0  0  0  2  0  0  0  0  0  0
  189.5010  176.0360  138.1260 C   0  0  1  0  0  3  0  0  0  0  0  0
  188.9900  176.4680  143.7740 C   0  0  0  0  0  3  0  0  0  0  0  0
  188.9230  177.1350  137.3610 N   0  0  0  0  0  0  0  0  0  0  0  0
  186.5600  178.6810  141.9190 C   0  0  0  0  0  3  0  0  0  0  0  0
  191.9330  176.8110  138.3520 C   0  0  0  0  0  2  0  0  0  0  0  0
  193.2300  176.5530  137.9080 O   0  0  0  0  0  1  0  0  0  0  0  0
  189.7190  175.3820  134.3460 C   0  0  0  0  0  1  0  0  0  0  0  0
  189.5240  176.7910  134.6380 N   0  0  0  0  0  2  0  0  0  0  0  0
  1 32  1  0  0  0  0
  2 31  2  0  0  0  0
  4 25  1  0  0  0  0
  5 37  1  6  0  0  0
  5 15  1  0  0  0  0
  5  1  1  0  0  0  0
  6  8  1  1  0  0  0
  6  2  1  0  0  0  0
  7 24  1  6  0  0  0
  7  6  1  0  0  0  0
  8 17  2  0  0  0  0
  9 14  1  1  0  0  0
 10 26  1  6  0  0  0
 10  4  1  0  0  0  0
 10 12  1  0  0  0  0
 11  9  1  0  0  0  0
 11  4  2  0  0  0  0
 12  7  1  0  0  0  0
 12 28  1  0  0  0  0
 15 23  1  0  0  0  0
 17 13  1  0  0  0  0
 17 16  1  0  0  0  0
 18 26  2  0  0  0  0
 18 11  1  0  0  0  0
 19 22  1  0  0  0  0
 20 33  1  0  0  0  0
 21 25  1  0  0  0  0
 22 18  1  0  0  0  0
 23 30  1  0  0  0  0
 23 34  1  1  0  0  0
 25 20  2  0  0  0  0
 27  3  1  6  0  0  0
 27 14  1  0  0  0  0
 27  9  1  0  0  0  0
 28  6  1  0  0  0  0
 28 33  2  0  0  0  0
 29 19  1  0  0  0  0
 29  3  1  0  0  0  0
 30 24  1  1  0  0  0
 31 16  1  0  0  0  0
 32 26  1  0  0  0  0
 32 30  1  0  0  0  0
 35 34  1  0  0  0  0
 36 37  1  0  0  0  0
M  END
>  <MODEL>
2

>  <REMARK>
 VINA RESULT:      -7.2      3.526      8.448
  Name = 
  2 active torsions:
  status: ('A' for Active; 'I' for Inactive)
    1  A    between atoms: C_5  and  N_23
    2  A    between atoms: C_11  and  C_26
                            x       y       z     vdW  Elec       q    Type
                         _______ _______ _______ _____ _____    ______ ____

>  <TORSDO>
F 2

$$$$
=
 OpenBabel10272414443D

 37 44  0  0  1  0  0  0  0  0999 V2000
  183.1360  180.1330  139.1460 O   0  0  0  0  0  0  0  0  0  0  0  0
  186.5900  175.5200  137.4040 C   0  0  0  0  0  3  0  0  0  0  0  0
  184.7280  179.2480  144.7950 C   0  0  0  0  0  2  0  0  0  0  0  0
  186.7810  178.6250  141.4100 C   0  0  0  0  0  0  0  0  0  0  0  0
  181.7200  180.1100  139.1920 C   0  0  1  0  0  3  0  0  0  0  0  0
  186.7020  177.0310  137.4690 C   0  0  2  0  0  0  0  0  0  0  0  0
  185.5500  177.7820  137.9420 C   0  0  2  0  0  3  0  0  0  0  0  0
  187.2810  177.6150  136.2030 C   0  0  0  0  0  3  0  0  0  0  0  0
  186.2710  177.5400  143.6370 C   0  0  1  0  0  3  0  0  0  0  0  0
  186.0420  179.1550  140.2140 C   0  0  1  0  0  3  0  0  0  0  0  0
  185.9190  178.2770  142.3690 C   0  0  0  0  0  0  0  0  0  0  0  0
  186.2820  178.2800  139.0930 N   0  0  0  0  0  0  0  0  0  0  0  0
  188.6860  177.4470  134.3460 F   0  0  0  0  0  0  0  0  0  0  0  0
  186.9440  178.4050  144.5250 O   0  0  0  0  0  0  0  0  0  0  0  0
  181.1190  178.9360  138.6260 O   0  0  0  0  0  0  0  0  0  0  0  0
  188.5570  175.5120  135.8940 C   0  0  0  0  0  2  0  0  0  0  0  0
  188.1410  176.8990  135.4620 C   0  0  0  0  0  0  0  0  0  0  0  0
  184.5710  178.4410  141.8430 C   0  0  0  0  0  0  0  0  0  0  0  0
  182.7050  178.8790  143.3590 C   0  0  0  0  0  2  0  0  0  0  0  0
  189.0290  177.8870  140.5430 C   0  0  0  0  0  3  0  0  0  0  0  0
  188.8800  178.8700  142.6190 F   0  0  0  0  0  0  0  0  0  0  0  0
  183.3980  178.0200  142.4650 O   0  0  0  0  0  0  0  0  0  0  0  0
  182.0580  178.0470  138.0370 C   0  0  2  0  0  3  0  0  0  0  0  0
  184.3590  176.9270  138.4240 C   0  0  0  0  0  2  0  0  0  0  0  0
  188.2580  178.4630  141.4870 C   0  0  0  0  0  0  0  0  0  0  0  0
  184.6300  178.9850  140.6420 C   0  0  0  0  0  0  0  0  0  0  0  0
  185.6430  178.0340  144.9060 C   0  0  1  0  0  3  0  0  0  0  0  0
  187.4500  177.4920  138.6860 C   0  0  0  0  0  0  0  0  0  0  0  0
  183.2810  178.7900  144.7650 C   0  0  0  0  0  2  0  0  0  0  0  0
  183.1800  177.7240  139.0270 C   0  0  1  0  0  3  0  0  0  0  0  0
  187.4570  174.8160  136.6590 C   0  0  0  0  0  3  0  0  0  0  0  0
  183.5620  178.9640  139.6940 N   0  0  0  0  0  0  0  0  0  0  0  0
  188.6400  177.3060  139.2370 C   0  0  0  0  0  3  0  0  0  0  0  0
  182.5580  178.5820  136.6950 C   0  0  0  0  0  2  0  0  0  0  0  0
  181.9140  177.9180  135.6510 O   0  0  0  0  0  1  0  0  0  0  0  0
  179.9860  179.6060  140.6820 C   0  0  0  0  0  1  0  0  0  0  0  0
  181.2510  180.3080  140.5570 N   0  0  0  0  0  2  0  0  0  0  0  0
  1  5  1  0  0  0  0
  1 32  1  0  0  0  0
  2  6  1  0  0  0  0
  4 25  1  0  0  0  0
  4 11  2  0  0  0  0
  5 37  1  1  0  0  0
  6  8  1  6  0  0  0
  6  7  1  0  0  0  0
  6 28  1  0  0  0  0
  7 24  1  1  0  0  0
  7 12  1  0  0  0  0
  9 11  1  6  0  0  0
  9 14  1  0  0  0  0
  9 27  1  0  0  0  0
 10 26  1  1  0  0  0
 10  4  1  0  0  0  0
 12 10  1  0  0  0  0
 13 17  1  0  0  0  0
 14 27  1  0  0  0  0
 15  5  1  0  0  0  0
 16 31  1  0  0  0  0
 17 16  1  0  0  0  0
 17  8  2  0  0  0  0
 18 11  1  0  0  0  0
 18 22  1  0  0  0  0
 19 29  1  0  0  0  0
 20 25  2  0  0  0  0
 22 19  1  0  0  0  0
 23 34  1  6  0  0  0
 23 15  1  0  0  0  0
 23 30  1  0  0  0  0
 25 21  1  0  0  0  0
 26 18  2  0  0  0  0
 27  3  1  6  0  0  0
 28 12  1  0  0  0  0
 28 33  2  0  0  0  0
 29  3  1  0  0  0  0
 30 24  1  6  0  0  0
 30 32  1  0  0  0  0
 31  2  2  0  0  0  0
 32 26  1  0  0  0  0
 33 20  1  0  0  0  0
 35 34  1  0  0  0  0
 37 36  1  0  0  0  0
M  END
>  <MODEL>
3

>  <REMARK>
 VINA RESULT:      -7.0      2.681      5.050
  Name = 
  2 active torsions:
  status: ('A' for Active; 'I' for Inactive)
    1  A    between atoms: C_5  and  N_23
    2  A    between atoms: C_11  and  C_26
                            x       y       z     vdW  Elec       q    Type
                         _______ _______ _______ _____ _____    ______ ____

>  <TORSDO>
F 2

$$$$
=
 OpenBabel10272414443D

 37 44  0  0  1  0  0  0  0  0999 V2000
  187.4310  179.1380  137.2150 O   0  0  0  0  0  0  0  0  0  0  0  0
  188.7190  176.3770  142.4070 C   0  0  0  0  0  3  0  0  0  0  0  0
  181.7100  177.6710  137.8040 C   0  0  0  0  0  2  0  0  0  0  0  0
  184.4670  178.4710  140.6000 C   0  0  0  0  0  0  0  0  0  0  0  0
  187.7700  178.6440  135.9310 C   0  0  1  0  0  3  0  0  0  0  0  0
  188.4460  177.7930  141.9390 C   0  0  2  0  0  0  0  0  0  0  0  0
  188.2140  178.0100  140.5190 C   0  0  2  0  0  3  0  0  0  0  0  0
  189.4300  178.7840  142.5120 C   0  0  0  0  0  3  0  0  0  0  0  0
  182.6060  176.8420  140.0720 C   0  0  1  0  0  3  0  0  0  0  0  0
  185.7450  178.9660  139.9850 C   0  0  1  0  0  3  0  0  0  0  0  0
  183.8240  177.6690  139.7470 C   0  0  0  0  0  0  0  0  0  0  0  0
  186.8580  178.4700  140.7580 N   0  0  0  0  0  0  0  0  0  0  0  0
  190.8480  179.4730  144.2340 F   0  0  0  0  0  0  0  0  0  0  0  0
  181.4730  177.6740  140.1780 O   0  0  0  0  0  0  0  0  0  0  0  0
  188.6140  177.4830  135.9370 O   0  0  0  0  0  0  0  0  0  0  0  0
  189.6350  177.3260  144.5070 C   0  0  0  0  0  2  0  0  0  0  0  0
  189.9930  178.5590  143.7090 C   0  0  0  0  0  0  0  0  0  0  0  0
  184.6700  177.4890  138.5750 C   0  0  0  0  0  0  0  0  0  0  0  0
  183.6700  176.9670  136.4060 C   0  0  0  0  0  2  0  0  0  0  0  0
  184.7800  178.7060  143.0890 C   0  0  0  0  0  3  0  0  0  0  0  0
  182.7180  179.1320  142.1590 F   0  0  0  0  0  0  0  0  0  0  0  0
  184.4410  176.5870  137.5380 O   0  0  0  0  0  0  0  0  0  0  0  0
  189.0300  177.0930  137.2380 C   0  0  2  0  0  3  0  0  0  0  0  0
  188.1750  176.7320  139.6550 C   0  0  0  0  0  2  0  0  0  0  0  0
  184.0170  178.7880  141.9810 C   0  0  0  0  0  0  0  0  0  0  0  0
  185.7370  178.2590  138.6790 C   0  0  0  0  0  0  0  0  0  0  0  0
  181.5030  176.8280  139.0570 C   0  0  1  0  0  3  0  0  0  0  0  0
  187.0270  178.2100  142.1920 C   0  0  0  0  0  0  0  0  0  0  0  0
  182.1820  176.7810  136.6680 C   0  0  0  0  0  2  0  0  0  0  0  0
  187.8200  176.9570  138.1670 C   0  0  1  0  0  3  0  0  0  0  0  0
  189.2820  176.1660  143.6070 C   0  0  0  0  0  3  0  0  0  0  0  0
  186.9330  178.0870  137.9170 N   0  0  0  0  0  0  0  0  0  0  0  0
  186.2030  178.3130  143.2240 C   0  0  0  0  0  3  0  0  0  0  0  0
  190.1150  178.0280  137.7740 C   0  0  0  0  0  2  0  0  0  0  0  0
  191.2240  177.2850  138.1760 O   0  0  0  0  0  1  0  0  0  0  0  0
  186.8200  177.2060  134.3460 C   0  0  0  0  0  1  0  0  0  0  0  0
  186.5680  178.3910  135.1480 N   0  0  0  0  0  2  0  0  0  0  0  0
  1 32  1  0  0  0  0
  2 31  2  0  0  0  0
  4 25  1  0  0  0  0
  5 37  1  1  0  0  0
  5 15  1  0  0  0  0
  5  1  1  0  0  0  0
  6 28  1  0  0  0  0
  6  2  1  1  0  0  0
  6  8  1  0  0  0  0
  7 24  1  6  0  0  0
  7 12  1  0  0  0  0
  7  6  1  0  0  0  0
  8 17  2  0  0  0  0
  9 11  1  6  0  0  0
  9 14  1  0  0  0  0
 10 26  1  6  0  0  0
 10  4  1  0  0  0  0
 10 12  1  0  0  0  0
 11  4  2  0  0  0  0
 12 28  1  0  0  0  0
 15 23  1  0  0  0  0
 17 13  1  0  0  0  0
 17 16  1  0  0  0  0
 18 26  2  0  0  0  0
 18 11  1  0  0  0  0
 19 29  1  0  0  0  0
 19 22  1  0  0  0  0
 20 33  1  0  0  0  0
 22 18  1  0  0  0  0
 23 34  1  1  0  0  0
 23 30  1  0  0  0  0
 25 21  1  0  0  0  0
 25 20  2  0  0  0  0
 27  3  1  6  0  0  0
 27  9  1  0  0  0  0
 27 14  1  0  0  0  0
 28 33  2  0  0  0  0
 29  3  1  0  0  0  0
 30 24  1  1  0  0  0
 31 16  1  0  0  0  0
 32 30  1  0  0  0  0
 32 26  1  0  0  0  0
 34 35  1  0  0  0  0
 36 37  1  0  0  0  0
M  END
>  <MODEL>
4

>  <REMARK>
 VINA RESULT:      -7.0      2.833      8.000
  Name = 
  2 active torsions:
  status: ('A' for Active; 'I' for Inactive)
    1  A    between atoms: C_5  and  N_23
    2  A    between atoms: C_11  and  C_26
                            x       y       z     vdW  Elec       q    Type
                         _______ _______ _______ _____ _____    ______ ____

>  <TORSDO>
F 2

$$$$
=
 OpenBabel10272414443D

 37 44  0  0  1  0  0  0  0  0999 V2000
  185.5660  179.9340  141.9990 O   0  0  0  0  0  0  0  0  0  0  0  0
  186.4740  176.1040  137.4440 C   0  0  0  0  0  3  0  0  0  0  0  0
  189.9150  177.3450  145.1000 C   0  0  0  0  0  2  0  0  0  0  0  0
  189.4970  177.8130  141.1420 C   0  0  0  0  0  0  0  0  0  0  0  0
  184.4580  179.8920  142.8820 C   0  0  1  0  0  3  0  0  0  0  0  0
  186.8790  177.5210  137.8040 C   0  0  2  0  0  0  0  0  0  0  0  0
  186.3690  178.0830  139.0440 C   0  0  2  0  0  3  0  0  0  0  0  0
  186.7230  178.4720  136.6420 C   0  0  0  0  0  3  0  0  0  0  0  0
  190.1670  176.0880  142.8660 C   0  0  1  0  0  3  0  0  0  0  0  0
  188.3190  178.6850  140.8140 C   0  0  1  0  0  3  0  0  0  0  0  0
  189.2950  177.1810  142.3020 C   0  0  0  0  0  0  0  0  0  0  0  0
  187.7050  178.2020  139.6000 N   0  0  0  0  0  0  0  0  0  0  0  0
  186.7470  178.8940  134.3460 F   0  0  0  0  0  0  0  0  0  0  0  0
  191.3730  176.6370  143.3500 O   0  0  0  0  0  0  0  0  0  0  0  0
  183.4370  178.9500  142.5210 O   0  0  0  0  0  0  0  0  0  0  0  0
  187.1760  176.5740  135.1130 C   0  0  0  0  0  2  0  0  0  0  0  0
  186.8520  178.0240  135.3830 C   0  0  0  0  0  0  0  0  0  0  0  0
  187.9480  177.4950  142.7560 C   0  0  0  0  0  0  0  0  0  0  0  0
  187.4080  177.4320  145.1390 C   0  0  0  0  0  2  0  0  0  0  0  0
  190.6570  177.3900  138.9460 C   0  0  0  0  0  3  0  0  0  0  0  0
  191.9110  177.6780  140.8550 F   0  0  0  0  0  0  0  0  0  0  0  0
  187.2900  176.8960  143.8290 O   0  0  0  0  0  0  0  0  0  0  0  0
  183.6860  178.2910  141.2870 C   0  0  2  0  0  3  0  0  0  0  0  0
  185.5380  177.1160  139.9140 C   0  0  0  0  0  2  0  0  0  0  0  0
  190.6890  177.6410  140.2700 C   0  0  0  0  0  0  0  0  0  0  0  0
  187.4050  178.3850  141.9460 C   0  0  0  0  0  0  0  0  0  0  0  0
  190.4850  176.1600  144.3300 C   0  0  1  0  0  3  0  0  0  0  0  0
  188.2590  177.5840  138.3910 C   0  0  0  0  0  0  0  0  0  0  0  0
  188.6580  176.9130  145.8350 C   0  0  0  0  0  2  0  0  0  0  0  0
  185.0900  177.6820  141.2810 C   0  0  1  0  0  3  0  0  0  0  0  0
  186.6090  175.6700  136.1820 C   0  0  0  0  0  3  0  0  0  0  0  0
  186.0050  178.6550  141.8660 N   0  0  0  0  0  0  0  0  0  0  0  0
  189.4910  177.2410  138.0450 C   0  0  0  0  0  3  0  0  0  0  0  0
  183.4130  179.2190  140.1020 C   0  0  0  0  0  2  0  0  0  0  0  0
  182.2360  178.8330  139.4600 O   0  0  0  0  0  1  0  0  0  0  0  0
  183.8840  178.8510  144.8990 C   0  0  0  0  0  1  0  0  0  0  0  0
  184.9030  179.6550  144.2480 N   0  0  0  0  0  2  0  0  0  0  0  0
  1  5  1  0  0  0  0
  2  6  1  0  0  0  0
  3 29  1  0  0  0  0
  4 11  2  0  0  0  0
  5 37  1  1  0  0  0
  6  8  1  6  0  0  0
  6 28  1  0  0  0  0
  6  7  1  0  0  0  0
  7 12  1  0  0  0  0
  7 24  1  1  0  0  0
  9 11  1  1  0  0  0
  9 14  1  0  0  0  0
  9 27  1  0  0  0  0
 10  4  1  1  0  0  0
 10 26  1  0  0  0  0
 11 18  1  0  0  0  0
 12 10  1  0  0  0  0
 13 17  1  0  0  0  0
 14 27  1  0  0  0  0
 15  5  1  0  0  0  0
 16 17  1  0  0  0  0
 16 31  1  0  0  0  0
 17  8  2  0  0  0  0
 18 22  1  0  0  0  0
 19 29  1  0  0  0  0
 20 25  2  0  0  0  0
 22 19  1  0  0  0  0
 23 34  1  6  0  0  0
 23 15  1  0  0  0  0
 25 21  1  0  0  0  0
 25  4  1  0  0  0  0
 26 18  2  0  0  0  0
 27  3  1  1  0  0  0
 28 12  1  0  0  0  0
 30 24  1  6  0  0  0
 30 23  1  0  0  0  0
 30 32  1  0  0  0  0
 31  2  2  0  0  0  0
 32 26  1  0  0  0  0
 32  1  1  0  0  0  0
 33 28  2  0  0  0  0
 33 20  1  0  0  0  0
 35 34  1  0  0  0  0
 37 36  1  0  0  0  0
M  END
>  <MODEL>
5

>  <REMARK>
 VINA RESULT:      -5.7      2.078      3.007
  Name = 
  2 active torsions:
  status: ('A' for Active; 'I' for Inactive)
    1  A    between atoms: C_5  and  N_23
    2  A    between atoms: C_11  and  C_26
                            x       y       z     vdW  Elec       q    Type
                         _______ _______ _______ _____ _____    ______ ____

>  <TORSDO>
F 2

$$$$
=
 OpenBabel10272414443D

 37 44  0  0  1  0  0  0  0  0999 V2000
  190.4820  175.8380  140.0610 O   0  0  0  0  0  0  0  0  0  0  0  0
  194.5430  174.7390  135.7550 C   0  0  0  0  0  3  0  0  0  0  0  0
  186.1780  176.1450  135.9850 C   0  0  0  0  0  2  0  0  0  0  0  0
  189.5380  173.9600  136.0270 C   0  0  0  0  0  0  0  0  0  0  0  0
  190.3600  177.0620  140.7650 C   0  0  1  0  0  3  0  0  0  0  0  0
  193.7280  173.9320  136.7480 C   0  0  2  0  0  0  0  0  0  0  0  0
  192.8660  174.6540  137.6700 C   0  0  2  0  0  3  0  0  0  0  0  0
  194.5580  172.8830  137.4480 C   0  0  0  0  0  3  0  0  0  0  0  0
  188.1390  175.4010  134.4900 C   0  0  1  0  0  3  0  0  0  0  0  0
  190.2490  174.0720  137.3460 C   0  0  1  0  0  3  0  0  0  0  0  0
  188.8330  175.0700  135.7870 C   0  0  0  0  0  0  0  0  0  0  0  0
  191.6720  174.0440  137.1120 N   0  0  0  0  0  0  0  0  0  0  0  0
  196.3320  171.3650  137.4500 F   0  0  0  0  0  0  0  0  0  0  0  0
  186.9820  174.6090  134.3460 O   0  0  0  0  0  0  0  0  0  0  0  0
  191.4030  178.0120  140.5010 O   0  0  0  0  0  0  0  0  0  0  0  0
  195.9730  172.7420  135.4170 C   0  0  0  0  0  2  0  0  0  0  0  0
  195.6140  172.3350  136.8270 C   0  0  0  0  0  0  0  0  0  0  0  0
  189.1140  176.0200  136.8530 C   0  0  0  0  0  0  0  0  0  0  0  0
  187.4660  177.7270  137.4430 C   0  0  0  0  0  2  0  0  0  0  0  0
  190.8040  172.2160  134.7230 C   0  0  0  0  0  3  0  0  0  0  0  0
  188.5120  172.3240  134.5450 F   0  0  0  0  0  0  0  0  0  0  0  0
  188.7160  177.3560  136.8780 O   0  0  0  0  0  0  0  0  0  0  0  0
  192.4210  177.5130  139.6440 C   0  0  2  0  0  3  0  0  0  0  0  0
  192.8060  176.1810  137.4590 C   0  0  0  0  0  2  0  0  0  0  0  0
  189.6510  172.8010  135.1030 C   0  0  0  0  0  0  0  0  0  0  0  0
  189.8750  175.4470  137.7660 C   0  0  0  0  0  0  0  0  0  0  0  0
  186.7580  175.9750  134.5860 C   0  0  1  0  0  3  0  0  0  0  0  0
  192.4980  173.3420  136.1250 C   0  0  0  0  0  0  0  0  0  0  0  0
  186.3410  177.5870  136.4280 C   0  0  0  0  0  2  0  0  0  0  0  0
  191.8060  176.9310  138.3680 C   0  0  1  0  0  3  0  0  0  0  0  0
  195.5960  174.1780  135.1420 C   0  0  0  0  0  3  0  0  0  0  0  0
  190.6300  176.1570  138.7490 N   0  0  0  0  0  0  0  0  0  0  0  0
  192.1960  172.5400  135.1130 C   0  0  0  0  0  3  0  0  0  0  0  0
  193.3360  176.5390  140.3860 C   0  0  0  0  0  2  0  0  0  0  0  0
  194.6520  177.0010  140.3460 O   0  0  0  0  0  1  0  0  0  0  0  0
  188.4940  178.0060  141.8160 C   0  0  0  0  0  1  0  0  0  0  0  0
  189.0560  177.6630  140.5220 N   0  0  0  0  0  2  0  0  0  0  0  0
  1  5  1  0  0  0  0
  3 29  1  0  0  0  0
  5 37  1  6  0  0  0
  6  2  1  6  0  0  0
  6  8  1  0  0  0  0
  6  7  1  0  0  0  0
  7 24  1  6  0  0  0
  9 14  1  6  0  0  0
  9 27  1  0  0  0  0
  9 11  1  0  0  0  0
 10  4  1  6  0  0  0
 10 26  1  0  0  0  0
 11  4  2  0  0  0  0
 11 18  1  0  0  0  0
 12 10  1  0  0  0  0
 12  7  1  0  0  0  0
 14 27  1  0  0  0  0
 15  5  1  0  0  0  0
 16 17  1  0  0  0  0
 17  8  2  0  0  0  0
 17 13  1  0  0  0  0
 18 22  1  0  0  0  0
 18 26  2  0  0  0  0
 20 25  2  0  0  0  0
 20 33  1  0  0  0  0
 21 25  1  0  0  0  0
 22 19  1  0  0  0  0
 23 34  1  1  0  0  0
 23 15  1  0  0  0  0
 25  4  1  0  0  0  0
 26 32  1  0  0  0  0
 27  3  1  1  0  0  0
 28  6  1  0  0  0  0
 28 12  1  0  0  0  0
 29 19  1  0  0  0  0
 30 24  1  1  0  0  0
 30 32  1  0  0  0  0
 30 23  1  0  0  0  0
 31 16  1  0  0  0  0
 31  2  2  0  0  0  0
 32  1  1  0  0  0  0
 33 28  2  0  0  0  0
 35 34  1  0  0  0  0
 37 36  1  0  0  0  0
M  END
>  <MODEL>
6

>  <REMARK>
 VINA RESULT:      -5.3      5.924      9.828
  Name = 
  2 active torsions:
  status: ('A' for Active; 'I' for Inactive)
    1  A    between atoms: C_5  and  N_23
    2  A    between atoms: C_11  and  C_26
                            x       y       z     vdW  Elec       q    Type
                         _______ _______ _______ _____ _____    ______ ____

>  <TORSDO>
F 2

$$$$
=
 OpenBabel10272414443D

 37 44  0  0  1  0  0  0  0  0999 V2000
  187.4590  178.7940  138.2270 O   0  0  0  0  0  0  0  0  0  0  0  0
  191.3790  174.3480  137.1730 C   0  0  0  0  0  3  0  0  0  0  0  0
  188.3020  178.2090  144.0740 C   0  0  0  0  0  2  0  0  0  0  0  0
  190.8360  177.5980  141.0300 C   0  0  0  0  0  0  0  0  0  0  0  0
  186.0540  178.6840  138.0820 C   0  0  1  0  0  3  0  0  0  0  0  0
  191.3940  175.8640  137.1870 C   0  0  2  0  0  0  0  0  0  0  0  0
  190.1460  176.5580  137.4660 C   0  0  2  0  0  3  0  0  0  0  0  0
  192.1080  176.4390  135.9880 C   0  0  0  0  0  3  0  0  0  0  0  0
  190.0850  176.5620  143.2120 C   0  0  1  0  0  3  0  0  0  0  0  0
  190.2410  178.0380  139.7230 C   0  0  1  0  0  3  0  0  0  0  0  0
  189.8700  177.2300  141.8770 C   0  0  0  0  0  0  0  0  0  0  0  0
  190.6820  177.1410  138.6830 N   0  0  0  0  0  0  0  0  0  0  0  0
  193.7640  176.2940  134.3480 F   0  0  0  0  0  0  0  0  0  0  0  0
  190.5780  177.4970  144.1440 O   0  0  0  0  0  0  0  0  0  0  0  0
  185.6050  177.4570  137.4910 O   0  0  0  0  0  0  0  0  0  0  0  0
  193.5320  174.4100  135.9460 C   0  0  0  0  0  2  0  0  0  0  0  0
  193.1020  175.7520  135.4020 C   0  0  0  0  0  0  0  0  0  0  0  0
  188.6010  177.2920  141.1660 C   0  0  0  0  0  0  0  0  0  0  0  0
  186.5210  177.6650  142.3940 C   0  0  0  0  0  2  0  0  0  0  0  0
  193.2200  176.9720  140.5090 C   0  0  0  0  0  3  0  0  0  0  0  0
  192.7300  178.0150  142.5010 F   0  0  0  0  0  0  0  0  0  0  0  0
  187.3790  176.8190  141.6400 O   0  0  0  0  0  0  0  0  0  0  0  0
  186.6660  176.6070  137.0740 C   0  0  2  0  0  3  0  0  0  0  0  0
  188.9510  175.6480  137.8190 C   0  0  0  0  0  2  0  0  0  0  0  0
  192.2940  177.5310  141.3130 C   0  0  0  0  0  0  0  0  0  0  0  0
  188.7950  177.7950  139.9610 C   0  0  0  0  0  0  0  0  0  0  0  0
  189.2600  177.0590  144.3610 C   0  0  1  0  0  3  0  0  0  0  0  0
  191.9380  176.4140  138.4730 C   0  0  0  0  0  0  0  0  0  0  0  0
  186.9020  177.6610  143.8680 C   0  0  0  0  0  2  0  0  0  0  0  0
  187.6570  176.3910  138.2210 C   0  0  1  0  0  3  0  0  0  0  0  0
  192.3780  173.6740  136.5840 C   0  0  0  0  0  3  0  0  0  0  0  0
  187.8710  177.6750  138.8790 N   0  0  0  0  0  0  0  0  0  0  0  0
  193.0500  176.3220  139.1880 C   0  0  0  0  0  3  0  0  0  0  0  0
  187.3150  177.1260  135.7900 C   0  0  0  0  0  2  0  0  0  0  0  0
  187.3060  176.1250  134.8190 O   0  0  0  0  0  1  0  0  0  0  0  0
  184.1250  178.1900  139.3130 C   0  0  0  0  0  1  0  0  0  0  0  0
  185.3900  178.9010  139.3600 N   0  0  0  0  0  2  0  0  0  0  0  0
  1 32  1  0  0  0  0
  2  6  1  0  0  0  0
  4 25  1  0  0  0  0
  4 11  2  0  0  0  0
  5  1  1  0  0  0  0
  5 37  1  1  0  0  0
  6  8  1  6  0  0  0
  6  7  1  0  0  0  0
  6 28  1  0  0  0  0
  7 24  1  1  0  0  0
  7 12  1  0  0  0  0
  9 11  1  6  0  0  0
  9 14  1  0  0  0  0
  9 27  1  0  0  0  0
 10 26  1  1  0  0  0
 10  4  1  0  0  0  0
 12 10  1  0  0  0  0
 13 17  1  0  0  0  0
 14 27  1  0  0  0  0
 15  5  1  0  0  0  0
 16 31  1  0  0  0  0
 17 16  1  0  0  0  0
 17  8  2  0  0  0  0
 18 22  1  0  0  0  0
 18 11  1  0  0  0  0
 19 29  1  0  0  0  0
 20 25  2  0  0  0  0
 22 19  1  0  0  0  0
 23 34  1  6  0  0  0
 23 15  1  0  0  0  0
 23 30  1  0  0  0  0
 25 21  1  0  0  0  0
 26 18  2  0  0  0  0
 27  3  1  6  0  0  0
 28 12  1  0  0  0  0
 28 33  2  0  0  0  0
 29  3  1  0  0  0  0
 30 24  1  6  0  0  0
 30 32  1  0  0  0  0
 31  2  2  0  0  0  0
 32 26  1  0  0  0  0
 33 20  1  0  0  0  0
 35 34  1  0  0  0  0
 36 37  1  0  0  0  0
M  END
>  <MODEL>
7

>  <REMARK>
 VINA RESULT:      -5.3      3.902      7.037
  Name = 
  2 active torsions:
  status: ('A' for Active; 'I' for Inactive)
    1  A    between atoms: C_5  and  N_23
    2  A    between atoms: C_11  and  C_26
                            x       y       z     vdW  Elec       q    Type
                         _______ _______ _______ _____ _____    ______ ____

>  <TORSDO>
F 2

$$$$
