=
 OpenBabel10272414593D

 37 38  0  0  1  0  0  0  0  0999 V2000
  190.5400  177.6440  138.0830 O   0  0  0  0  0  0  0  0  0  0  0  0
  187.1110  174.8510  137.0570 C   0  0  0  0  0  2  0  0  0  0  0  0
  191.0290  176.3850  138.5270 C   0  0  2  0  0  3  0  0  0  0  0  0
  188.4810  175.5210  137.0140 C   0  0  1  0  0  3  0  0  0  0  0  0
  188.4450  176.6850  137.7920 O   0  0  0  0  0  0  0  0  0  0  0  0
  189.5700  174.5540  137.5220 C   0  0  1  0  0  3  0  0  0  0  0  0
  188.2020  172.6060  136.7200 C   0  0  0  0  0  2  0  0  0  0  0  0
  189.4200  177.5160  137.2290 C   0  0  1  0  0  3  0  0  0  0  0  0
  189.5660  173.2860  136.6650 C   0  0  0  0  0  2  0  0  0  0  0  0
  190.9610  175.2160  137.5160 C   0  0  2  0  0  3  0  0  0  0  0  0
  187.1180  173.5640  136.2290 C   0  0  1  0  0  3  0  0  0  0  0  0
  185.7440  172.8970  136.2210 C   0  0  0  0  0  2  0  0  0  0  0  0
  185.1140  172.8430  137.6060 C   0  0  0  0  0  1  0  0  0  0  0  0
  188.8210  178.8850  136.9570 C   0  0  0  0  0  2  0  0  0  0  0  0
  187.3190  178.7720  136.7680 C   0  0  0  0  0  1  0  0  0  0  0  0
  190.4750  176.0450  139.7650 O   0  0  0  0  0  0  0  0  0  0  0  0
  190.6250  177.1900  140.5510 C   0  0  0  0  0  2  0  0  0  0  0  0
  189.3160  177.5160  141.2460 C   0  0  0  0  0  2  0  0  0  0  0  0
  189.5770  178.0080  142.6570 C   0  0  0  0  0  2  0  0  0  0  0  0
  189.1000  176.9830  143.6730 C   0  0  0  0  0  2  0  0  0  0  0  0
  189.9160  177.0540  144.9650 C   0  0  1  0  0  3  0  0  0  0  0  0
  191.4390  177.0600  144.7930 C   0  0  0  0  0  2  0  0  0  0  0  0
  191.8630  175.9820  144.0330 F   0  0  0  0  0  0  0  0  0  0  0  0
  189.4050  177.9770  145.9140 O   0  0  0  0  0  0  0  0  0  0  0  0
  188.8270  178.0370  148.2760 C   0  0  0  0  0  1  0  0  0  0  0  0
  187.2690  177.2580  146.6160 F   0  0  0  0  0  0  0  0  0  0  0  0
  188.6160  177.3740  146.9270 C   0  0  1  0  0  3  0  0  0  0  0  0
  191.9470  174.2690  137.8600 O   0  0  0  0  0  0  0  0  0  0  0  0
  193.0290  174.2820  136.9370 C   0  0  1  0  0  0  0  0  0  0  0  0
  193.2890  172.9000  136.3310 C   0  0  0  0  0  1  0  0  0  0  0  0
  192.8590  175.3530  135.8360 C   0  0  0  0  0  2  0  0  0  0  0  0
  194.0840  176.2310  135.6120 C   0  0  0  0  0  1  0  0  0  0  0  0
  194.3010  174.6280  137.7170 C   0  0  0  0  0  2  0  0  0  0  0  0
  194.9710  173.4220  138.3810 C   0  0  0  0  0  2  0  0  0  0  0  0
  196.4620  173.3580  138.0720 C   0  0  0  0  0  2  0  0  0  0  0  0
  197.3430  173.8850  135.7970 C   0  0  0  0  0  1  0  0  0  0  0  0
  196.8810  174.4680  137.1190 C   0  0  0  0  0  2  0  0  0  0  0  0
  1  3  1  0  0  0  0
  3 16  1  1  0  0  0
  4  2  1  1  0  0  0
  4  6  1  0  0  0  0
  4  5  1  0  0  0  0
  6  9  1  6  0  0  0
  8 14  1  1  0  0  0
  8  5  1  0  0  0  0
  8  1  1  0  0  0  0
  9  7  1  0  0  0  0
 10  6  1  0  0  0  0
 10 28  1  1  0  0  0
 10  3  1  0  0  0  0
 11 12  1  1  0  0  0
 11  7  1  0  0  0  0
 11  2  1  0  0  0  0
 12 13  1  0  0  0  0
 15 14  1  0  0  0  0
 16 17  1  0  0  0  0
 17 18  1  0  0  0  0
 18 19  1  0  0  0  0
 19 20  1  0  0  0  0
 21 20  1  6  0  0  0
 21 24  1  0  0  0  0
 22 21  1  0  0  0  0
 23 22  1  0  0  0  0
 24 27  1  0  0  0  0
 26 27  1  0  0  0  0
 27 25  1  1  0  0  0
 29 30  1  6  0  0  0
 29 33  1  0  0  0  0
 29 28  1  0  0  0  0
 31 29  1  0  0  0  0
 32 31  1  0  0  0  0
 33 34  1  0  0  0  0
 35 34  1  0  0  0  0
 36 37  1  0  0  0  0
 37 35  1  0  0  0  0
M  END
>  <MODEL>
1

>  <REMARK>
 VINA RESULT:      -5.9      0.000      0.000
  Name = 
  18 active torsions:
  status: ('A' for Active; 'I' for Inactive)
    1  A    between atoms: C_1  and  C_5
    2  A    between atoms: C_1  and  C_17
    3  A    between atoms: C_1  and  O_36
    4  A    between atoms: O_2  and  C_6
    5  A    between atoms: O_2  and  C_35
    6  A    between atoms: C_3  and  C_32
    7  A    between atoms: C_6  and  C_8
    8  A    between atoms: C_6  and  C_31
    9  A    between atoms: C_7  and  O_14
   10  A    between atoms: C_7  and  C_27
   11  A    between atoms: C_10  and  O_14
   12  A    between atoms: C_17  and  C_33
   13  A    between atoms: C_22  and  C_24
   14  A    between atoms: C_26  and  C_33
   15  A    between atoms: C_26  and  C_34
   16  A    between atoms: C_27  and  C_37
   17  A    between atoms: C_29  and  O_36
   18  A    between atoms: C_31  and  C_37
                            x       y       z     vdW  Elec       q    Type
                         _______ _______ _______ _____ _____    ______ ____

>  <TORSDO>
F 18

$$$$
=
 OpenBabel10272414593D

 37 38  0  0  1  0  0  0  0  0999 V2000
  184.3100  180.1320  139.2050 O   0  0  0  0  0  0  0  0  0  0  0  0
  181.7350  176.5460  138.1520 C   0  0  0  0  0  2  0  0  0  0  0  0
  185.2120  179.0480  139.3850 C   0  0  2  0  0  3  0  0  0  0  0  0
  182.8230  177.6110  138.0570 C   0  0  1  0  0  3  0  0  0  0  0  0
  182.5700  178.6060  139.0100 O   0  0  0  0  0  0  0  0  0  0  0  0
  184.2140  176.9810  138.2770 C   0  0  1  0  0  3  0  0  0  0  0  0
  183.3690  174.8100  137.3380 C   0  0  0  0  0  2  0  0  0  0  0  0
  183.1570  179.7600  138.4770 C   0  0  1  0  0  3  0  0  0  0  0  0
  184.4470  175.8840  137.2350 C   0  0  0  0  0  2  0  0  0  0  0  0
  185.3300  178.0410  138.2150 C   0  0  2  0  0  3  0  0  0  0  0  0
  181.9880  175.4310  137.1350 C   0  0  1  0  0  3  0  0  0  0  0  0
  180.8870  174.3730  137.1790 C   0  0  0  0  0  2  0  0  0  0  0  0
  181.4400  172.9550  137.1340 C   0  0  0  0  0  1  0  0  0  0  0  0
  182.1470  180.8950  138.4970 C   0  0  0  0  0  2  0  0  0  0  0  0
  181.0690  180.6550  137.4550 C   0  0  0  0  0  1  0  0  0  0  0  0
  184.9850  178.4100  140.6090 O   0  0  0  0  0  0  0  0  0  0  0  0
  185.6820  179.1770  141.5450 C   0  0  0  0  0  2  0  0  0  0  0  0
  186.5430  178.2780  142.4140 C   0  0  0  0  0  2  0  0  0  0  0  0
  185.8310  177.9660  143.7170 C   0  0  0  0  0  2  0  0  0  0  0  0
  186.7590  177.2260  144.6650 C   0  0  0  0  0  2  0  0  0  0  0  0
  186.9040  177.9660  145.9960 C   0  0  1  0  0  3  0  0  0  0  0  0
  185.7140  178.8390  146.4080 C   0  0  0  0  0  2  0  0  0  0  0  0
  186.0440  179.6710  147.4650 F   0  0  0  0  0  0  0  0  0  0  0  0
  187.4680  177.1740  147.0310 O   0  0  0  0  0  0  0  0  0  0  0  0
  188.9750  178.3280  148.5530 C   0  0  0  0  0  1  0  0  0  0  0  0
  189.6700  176.3760  147.3280 F   0  0  0  0  0  0  0  0  0  0  0  0
  188.8270  177.4780  147.3040 C   0  0  1  0  0  3  0  0  0  0  0  0
  186.5920  177.4170  138.2880 O   0  0  0  0  0  0  0  0  0  0  0  0
  187.4780  177.9100  137.2910 C   0  0  1  0  0  0  0  0  0  0  0  0
  186.7400  178.6810  136.1930 C   0  0  0  0  0  1  0  0  0  0  0  0
  188.6330  178.7490  137.8830 C   0  0  0  0  0  2  0  0  0  0  0  0
  188.9750  178.4220  139.3310 C   0  0  0  0  0  1  0  0  0  0  0  0
  188.1040  176.7030  136.5880 C   0  0  0  0  0  2  0  0  0  0  0  0
  189.3740  177.0310  135.7980 C   0  0  0  0  0  2  0  0  0  0  0  0
  190.4740  176.0030  136.0370 C   0  0  0  0  0  2  0  0  0  0  0  0
  191.9560  175.7700  138.0310 C   0  0  0  0  0  1  0  0  0  0  0  0
  190.5460  175.5950  137.5010 C   0  0  0  0  0  2  0  0  0  0  0  0
  1  3  1  0  0  0  0
  3 16  1  1  0  0  0
  4  2  1  1  0  0  0
  4  6  1  0  0  0  0
  4  5  1  0  0  0  0
  6  9  1  6  0  0  0
  8 14  1  1  0  0  0
  8  5  1  0  0  0  0
  8  1  1  0  0  0  0
  9  7  1  0  0  0  0
 10  6  1  0  0  0  0
 10 28  1  1  0  0  0
 10  3  1  0  0  0  0
 11 12  1  1  0  0  0
 11  7  1  0  0  0  0
 11  2  1  0  0  0  0
 13 12  1  0  0  0  0
 15 14  1  0  0  0  0
 16 17  1  0  0  0  0
 17 18  1  0  0  0  0
 18 19  1  0  0  0  0
 19 20  1  0  0  0  0
 21 20  1  6  0  0  0
 21 22  1  0  0  0  0
 21 24  1  0  0  0  0
 22 23  1  0  0  0  0
 24 27  1  0  0  0  0
 27 26  1  0  0  0  0
 27 25  1  1  0  0  0
 29 30  1  6  0  0  0
 29 31  1  0  0  0  0
 29 28  1  0  0  0  0
 31 32  1  0  0  0  0
 33 29  1  0  0  0  0
 34 35  1  0  0  0  0
 34 33  1  0  0  0  0
 35 37  1  0  0  0  0
 37 36  1  0  0  0  0
M  END
>  <MODEL>
2

>  <REMARK>
 VINA RESULT:      -5.7      3.445      5.751
  Name = 
  18 active torsions:
  status: ('A' for Active; 'I' for Inactive)
    1  A    between atoms: C_1  and  C_5
    2  A    between atoms: C_1  and  C_17
    3  A    between atoms: C_1  and  O_36
    4  A    between atoms: O_2  and  C_6
    5  A    between atoms: O_2  and  C_35
    6  A    between atoms: C_3  and  C_32
    7  A    between atoms: C_6  and  C_8
    8  A    between atoms: C_6  and  C_31
    9  A    between atoms: C_7  and  O_14
   10  A    between atoms: C_7  and  C_27
   11  A    between atoms: C_10  and  O_14
   12  A    between atoms: C_17  and  C_33
   13  A    between atoms: C_22  and  C_24
   14  A    between atoms: C_26  and  C_33
   15  A    between atoms: C_26  and  C_34
   16  A    between atoms: C_27  and  C_37
   17  A    between atoms: C_29  and  O_36
   18  A    between atoms: C_31  and  C_37
                            x       y       z     vdW  Elec       q    Type
                         _______ _______ _______ _____ _____    ______ ____

>  <TORSDO>
F 18

$$$$
=
 OpenBabel10272414593D

 37 38  0  0  1  0  0  0  0  0999 V2000
  184.2570  180.1350  139.3460 O   0  0  0  0  0  0  0  0  0  0  0  0
  181.5740  176.8140  137.8040 C   0  0  0  0  0  2  0  0  0  0  0  0
  185.0730  178.9830  139.5120 C   0  0  2  0  0  3  0  0  0  0  0  0
  182.7270  177.8090  137.8840 C   0  0  1  0  0  3  0  0  0  0  0  0
  182.4530  178.7450  138.8890 O   0  0  0  0  0  0  0  0  0  0  0  0
  184.0540  177.0750  138.1650 C   0  0  1  0  0  3  0  0  0  0  0  0
  183.1660  175.0400  136.9910 C   0  0  0  0  0  2  0  0  0  0  0  0
  183.1500  179.8950  138.4990 C   0  0  1  0  0  3  0  0  0  0  0  0
  184.3100  176.0450  137.0620 C   0  0  0  0  0  2  0  0  0  0  0  0
  185.2320  178.0610  138.2790 C   0  0  2  0  0  3  0  0  0  0  0  0
  181.8470  175.7640  136.7250 C   0  0  1  0  0  3  0  0  0  0  0  0
  180.6860  174.7800  136.5950 C   0  0  0  0  0  2  0  0  0  0  0  0
  180.5990  173.8220  137.7750 C   0  0  0  0  0  1  0  0  0  0  0  0
  182.2120  181.0890  138.5270 C   0  0  0  0  0  2  0  0  0  0  0  0
  180.9000  180.7090  139.1880 C   0  0  0  0  0  1  0  0  0  0  0  0
  184.7040  178.2720  140.6580 O   0  0  0  0  0  0  0  0  0  0  0  0
  185.0750  179.0960  141.7240 C   0  0  0  0  0  2  0  0  0  0  0  0
  184.2330  178.7740  142.9450 C   0  0  0  0  0  2  0  0  0  0  0  0
  184.7080  179.5800  144.1400 C   0  0  0  0  0  2  0  0  0  0  0  0
  184.6100  178.7520  145.4100 C   0  0  0  0  0  2  0  0  0  0  0  0
  185.9940  178.4540  145.9910 C   0  0  1  0  0  3  0  0  0  0  0  0
  186.2070  178.8610  147.4520 C   0  0  0  0  0  2  0  0  0  0  0  0
  187.3350  178.2580  147.9830 F   0  0  0  0  0  0  0  0  0  0  0  0
  186.5010  177.1770  145.6320 O   0  0  0  0  0  0  0  0  0  0  0  0
  187.4880  176.9210  143.4230 C   0  0  0  0  0  1  0  0  0  0  0  0
  188.4400  178.3980  145.0680 F   0  0  0  0  0  0  0  0  0  0  0  0
  187.7100  177.2310  144.8930 C   0  0  1  0  0  3  0  0  0  0  0  0
  186.4440  177.3510  138.4050 O   0  0  0  0  0  0  0  0  0  0  0  0
  187.4400  177.8560  137.5240 C   0  0  1  0  0  0  0  0  0  0  0  0
  186.8420  178.7260  136.4150 C   0  0  0  0  0  1  0  0  0  0  0  0
  188.5720  178.5980  138.2680 C   0  0  0  0  0  2  0  0  0  0  0  0
  188.6280  178.3280  139.7660 C   0  0  0  0  0  1  0  0  0  0  0  0
  188.0720  176.6610  136.8050 C   0  0  0  0  0  2  0  0  0  0  0  0
  187.4820  176.3840  135.4200 C   0  0  0  0  0  2  0  0  0  0  0  0
  187.2700  174.8930  135.1790 C   0  0  0  0  0  2  0  0  0  0  0  0
  186.4310  172.9240  136.4610 C   0  0  0  0  0  1  0  0  0  0  0  0
  187.3910  174.0980  136.4710 C   0  0  0  0  0  2  0  0  0  0  0  0
  1  3  1  0  0  0  0
  3 16  1  1  0  0  0
  4  2  1  1  0  0  0
  4  6  1  0  0  0  0
  4  5  1  0  0  0  0
  6  9  1  6  0  0  0
  6 10  1  0  0  0  0
  7  9  1  0  0  0  0
  8 14  1  1  0  0  0
  8  5  1  0  0  0  0
  8  1  1  0  0  0  0
 10 28  1  1  0  0  0
 10  3  1  0  0  0  0
 11 12  1  1  0  0  0
 11  7  1  0  0  0  0
 11  2  1  0  0  0  0
 12 13  1  0  0  0  0
 14 15  1  0  0  0  0
 16 17  1  0  0  0  0
 17 18  1  0  0  0  0
 18 19  1  0  0  0  0
 19 20  1  0  0  0  0
 21 20  1  1  0  0  0
 21 22  1  0  0  0  0
 22 23  1  0  0  0  0
 24 21  1  0  0  0  0
 27 25  1  6  0  0  0
 27 26  1  0  0  0  0
 27 24  1  0  0  0  0
 29 30  1  6  0  0  0
 29 31  1  0  0  0  0
 29 28  1  0  0  0  0
 31 32  1  0  0  0  0
 33 29  1  0  0  0  0
 34 33  1  0  0  0  0
 35 34  1  0  0  0  0
 35 37  1  0  0  0  0
 36 37  1  0  0  0  0
M  END
>  <MODEL>
3

>  <REMARK>
 VINA RESULT:      -5.6      4.363      6.485
  Name = 
  18 active torsions:
  status: ('A' for Active; 'I' for Inactive)
    1  A    between atoms: C_1  and  C_5
    2  A    between atoms: C_1  and  C_17
    3  A    between atoms: C_1  and  O_36
    4  A    between atoms: O_2  and  C_6
    5  A    between atoms: O_2  and  C_35
    6  A    between atoms: C_3  and  C_32
    7  A    between atoms: C_6  and  C_8
    8  A    between atoms: C_6  and  C_31
    9  A    between atoms: C_7  and  O_14
   10  A    between atoms: C_7  and  C_27
   11  A    between atoms: C_10  and  O_14
   12  A    between atoms: C_17  and  C_33
   13  A    between atoms: C_22  and  C_24
   14  A    between atoms: C_26  and  C_33
   15  A    between atoms: C_26  and  C_34
   16  A    between atoms: C_27  and  C_37
   17  A    between atoms: C_29  and  O_36
   18  A    between atoms: C_31  and  C_37
                            x       y       z     vdW  Elec       q    Type
                         _______ _______ _______ _____ _____    ______ ____

>  <TORSDO>
F 18

$$$$
=
 OpenBabel10272414593D

 37 38  0  0  1  0  0  0  0  0999 V2000
  184.3460  179.9830  139.3720 O   0  0  0  0  0  0  0  0  0  0  0  0
  181.9120  176.6380  137.5040 C   0  0  0  0  0  2  0  0  0  0  0  0
  185.2270  178.8730  139.4750 C   0  0  2  0  0  3  0  0  0  0  0  0
  183.0000  177.6910  137.6930 C   0  0  1  0  0  3  0  0  0  0  0  0
  182.6430  178.5290  138.7560 O   0  0  0  0  0  0  0  0  0  0  0  0
  184.3610  177.0160  137.9580 C   0  0  1  0  0  3  0  0  0  0  0  0
  183.6300  175.0280  136.6080 C   0  0  0  0  0  2  0  0  0  0  0  0
  183.2780  179.7440  138.4760 C   0  0  1  0  0  3  0  0  0  0  0  0
  184.7090  176.0910  136.7890 C   0  0  0  0  0  2  0  0  0  0  0  0
  185.4740  178.0590  138.1820 C   0  0  2  0  0  3  0  0  0  0  0  0
  182.2770  175.6910  136.3580 C   0  0  1  0  0  3  0  0  0  0  0  0
  181.1820  174.6540  136.1190 C   0  0  0  0  0  2  0  0  0  0  0  0
  181.7080  173.2260  136.1830 C   0  0  0  0  0  1  0  0  0  0  0  0
  182.2680  180.8750  138.5640 C   0  0  0  0  0  2  0  0  0  0  0  0
  181.0110  180.4000  139.2700 C   0  0  0  0  0  1  0  0  0  0  0  0
  184.8730  178.0550  140.5530 O   0  0  0  0  0  0  0  0  0  0  0  0
  184.7160  178.9320  141.6290 C   0  0  0  0  0  2  0  0  0  0  0  0
  185.0860  178.2330  142.9250 C   0  0  0  0  0  2  0  0  0  0  0  0
  186.5570  177.8590  142.9190 C   0  0  0  0  0  2  0  0  0  0  0  0
  187.0130  177.4800  144.3180 C   0  0  0  0  0  2  0  0  0  0  0  0
  188.5000  177.7800  144.5210 C   0  0  1  0  0  3  0  0  0  0  0  0
  189.1590  177.1010  145.7260 C   0  0  0  0  0  2  0  0  0  0  0  0
  189.4610  178.0210  146.7170 F   0  0  0  0  0  0  0  0  0  0  0  0
  189.2560  177.7600  143.3190 O   0  0  0  0  0  0  0  0  0  0  0  0
  191.4840  177.6130  142.3530 C   0  0  0  0  0  1  0  0  0  0  0  0
  190.8390  179.4540  143.7620 F   0  0  0  0  0  0  0  0  0  0  0  0
  190.6190  178.1100  143.4980 C   0  0  1  0  0  3  0  0  0  0  0  0
  186.7230  177.4140  138.2910 O   0  0  0  0  0  0  0  0  0  0  0  0
  187.7000  178.0220  137.4550 C   0  0  1  0  0  0  0  0  0  0  0  0
  187.0770  179.0030  136.4580 C   0  0  0  0  0  1  0  0  0  0  0  0
  188.8390  178.6890  138.2580 C   0  0  0  0  0  2  0  0  0  0  0  0
  188.7930  178.4270  139.7580 C   0  0  0  0  0  1  0  0  0  0  0  0
  188.3290  176.9200  136.5990 C   0  0  0  0  0  2  0  0  0  0  0  0
  188.6830  175.6510  137.3790 C   0  0  0  0  0  2  0  0  0  0  0  0
  190.1530  175.2790  137.2260 C   0  0  0  0  0  2  0  0  0  0  0  0
  192.2900  176.3180  137.9900 C   0  0  0  0  0  1  0  0  0  0  0  0
  190.9670  175.7200  138.4330 C   0  0  0  0  0  2  0  0  0  0  0  0
  1  3  1  0  0  0  0
  3 16  1  1  0  0  0
  4  2  1  1  0  0  0
  4  6  1  0  0  0  0
  4  5  1  0  0  0  0
  6  9  1  6  0  0  0
  6 10  1  0  0  0  0
  7  9  1  0  0  0  0
  8 14  1  1  0  0  0
  8  5  1  0  0  0  0
  8  1  1  0  0  0  0
 10 28  1  1  0  0  0
 10  3  1  0  0  0  0
 11 12  1  1  0  0  0
 11  7  1  0  0  0  0
 11  2  1  0  0  0  0
 12 13  1  0  0  0  0
 14 15  1  0  0  0  0
 16 17  1  0  0  0  0
 17 18  1  0  0  0  0
 19 18  1  0  0  0  0
 19 20  1  0  0  0  0
 21 20  1  6  0  0  0
 21 22  1  0  0  0  0
 22 23  1  0  0  0  0
 24 27  1  0  0  0  0
 24 21  1  0  0  0  0
 27 25  1  6  0  0  0
 27 26  1  0  0  0  0
 29 30  1  6  0  0  0
 29 31  1  0  0  0  0
 29 28  1  0  0  0  0
 31 32  1  0  0  0  0
 33 34  1  0  0  0  0
 33 29  1  0  0  0  0
 35 34  1  0  0  0  0
 35 37  1  0  0  0  0
 36 37  1  0  0  0  0
M  END
>  <MODEL>
4

>  <REMARK>
 VINA RESULT:      -5.6      3.449      5.698
  Name = 
  18 active torsions:
  status: ('A' for Active; 'I' for Inactive)
    1  A    between atoms: C_1  and  C_5
    2  A    between atoms: C_1  and  C_17
    3  A    between atoms: C_1  and  O_36
    4  A    between atoms: O_2  and  C_6
    5  A    between atoms: O_2  and  C_35
    6  A    between atoms: C_3  and  C_32
    7  A    between atoms: C_6  and  C_8
    8  A    between atoms: C_6  and  C_31
    9  A    between atoms: C_7  and  O_14
   10  A    between atoms: C_7  and  C_27
   11  A    between atoms: C_10  and  O_14
   12  A    between atoms: C_17  and  C_33
   13  A    between atoms: C_22  and  C_24
   14  A    between atoms: C_26  and  C_33
   15  A    between atoms: C_26  and  C_34
   16  A    between atoms: C_27  and  C_37
   17  A    between atoms: C_29  and  O_36
   18  A    between atoms: C_31  and  C_37
                            x       y       z     vdW  Elec       q    Type
                         _______ _______ _______ _____ _____    ______ ____

>  <TORSDO>
F 18

$$$$
=
 OpenBabel10272414593D

 37 38  0  0  1  0  0  0  0  0999 V2000
  189.3210  177.7780  137.7130 O   0  0  0  0  0  0  0  0  0  0  0  0
  186.5780  174.2110  137.1120 C   0  0  0  0  0  2  0  0  0  0  0  0
  190.1820  176.6810  137.9930 C   0  0  2  0  0  3  0  0  0  0  0  0
  187.7050  175.2130  136.8790 C   0  0  1  0  0  3  0  0  0  0  0  0
  187.5170  176.3150  137.7210 O   0  0  0  0  0  0  0  0  0  0  0  0
  189.0750  174.5510  137.1380 C   0  0  1  0  0  3  0  0  0  0  0  0
  188.1200  172.3290  136.4610 C   0  0  0  0  0  2  0  0  0  0  0  0
  188.1360  177.3780  137.0530 C   0  0  1  0  0  3  0  0  0  0  0  0
  189.2370  173.3380  136.2190 C   0  0  0  0  0  2  0  0  0  0  0  0
  190.2310  175.5490  136.9390 C   0  0  2  0  0  3  0  0  0  0  0  0
  186.7610  172.9830  136.2180 C   0  0  1  0  0  3  0  0  0  0  0  0
  185.6190  171.9840  136.4000 C   0  0  0  0  0  2  0  0  0  0  0  0
  184.5260  172.5110  137.3200 C   0  0  0  0  0  1  0  0  0  0  0  0
  187.1740  178.5510  136.9680 C   0  0  0  0  0  2  0  0  0  0  0  0
  185.9830  178.3180  137.8790 C   0  0  0  0  0  1  0  0  0  0  0  0
  189.9600  176.1910  139.2830 O   0  0  0  0  0  0  0  0  0  0  0  0
  189.9120  177.3280  140.0940 C   0  0  0  0  0  2  0  0  0  0  0  0
  190.7710  177.1210  141.3280 C   0  0  0  0  0  2  0  0  0  0  0  0
  190.1460  176.0790  142.2360 C   0  0  0  0  0  2  0  0  0  0  0  0
  190.1000  176.5830  143.6690 C   0  0  0  0  0  2  0  0  0  0  0  0
  188.9420  177.5600  143.8820 C   0  0  1  0  0  3  0  0  0  0  0  0
  187.5730  177.0930  143.3760 C   0  0  0  0  0  2  0  0  0  0  0  0
  187.2170  177.7510  142.2100 F   0  0  0  0  0  0  0  0  0  0  0  0
  188.9440  178.1780  145.1600 O   0  0  0  0  0  0  0  0  0  0  0  0
  189.1540  177.1020  147.3320 C   0  0  0  0  0  1  0  0  0  0  0  0
  187.0550  177.9920  146.5630 F   0  0  0  0  0  0  0  0  0  0  0  0
  188.2560  177.4340  146.1530 C   0  0  1  0  0  3  0  0  0  0  0  0
  191.4680  174.8830  137.0550 O   0  0  0  0  0  0  0  0  0  0  0  0
  192.3690  175.2690  136.0230 C   0  0  1  0  0  0  0  0  0  0  0  0
  191.6610  176.0100  134.8860 C   0  0  0  0  0  1  0  0  0  0  0  0
  193.5710  176.0800  136.5560 C   0  0  0  0  0  2  0  0  0  0  0  0
  193.7010  176.0960  138.0740 C   0  0  0  0  0  1  0  0  0  0  0  0
  192.9250  173.9910  135.3900 C   0  0  0  0  0  2  0  0  0  0  0  0
  192.9230  172.7800  136.3280 C   0  0  0  0  0  2  0  0  0  0  0  0
  194.2010  171.9590  136.1980 C   0  0  0  0  0  2  0  0  0  0  0  0
  195.2200  172.7720  138.3260 C   0  0  0  0  0  1  0  0  0  0  0  0
  195.3890  172.6770  136.8220 C   0  0  0  0  0  2  0  0  0  0  0  0
  1  3  1  0  0  0  0
  3 16  1  1  0  0  0
  4  2  1  1  0  0  0
  4  6  1  0  0  0  0
  4  5  1  0  0  0  0
  6  9  1  6  0  0  0
  8 14  1  1  0  0  0
  8  1  1  0  0  0  0
  8  5  1  0  0  0  0
  9  7  1  0  0  0  0
 10 28  1  1  0  0  0
 10  6  1  0  0  0  0
 10  3  1  0  0  0  0
 11 12  1  1  0  0  0
 11  7  1  0  0  0  0
 11  2  1  0  0  0  0
 12 13  1  0  0  0  0
 14 15  1  0  0  0  0
 16 17  1  0  0  0  0
 17 18  1  0  0  0  0
 18 19  1  0  0  0  0
 19 20  1  0  0  0  0
 20 21  1  0  0  0  0
 21 22  1  1  0  0  0
 21 24  1  0  0  0  0
 23 22  1  0  0  0  0
 24 27  1  0  0  0  0
 27 26  1  0  0  0  0
 27 25  1  1  0  0  0
 29 30  1  6  0  0  0
 29 31  1  0  0  0  0
 29 28  1  0  0  0  0
 31 32  1  0  0  0  0
 33 29  1  0  0  0  0
 33 34  1  0  0  0  0
 35 34  1  0  0  0  0
 35 37  1  0  0  0  0
 37 36  1  0  0  0  0
M  END
>  <MODEL>
5

>  <REMARK>
 VINA RESULT:      -5.4      1.449      1.996
  Name = 
  18 active torsions:
  status: ('A' for Active; 'I' for Inactive)
    1  A    between atoms: C_1  and  C_5
    2  A    between atoms: C_1  and  C_17
    3  A    between atoms: C_1  and  O_36
    4  A    between atoms: O_2  and  C_6
    5  A    between atoms: O_2  and  C_35
    6  A    between atoms: C_3  and  C_32
    7  A    between atoms: C_6  and  C_8
    8  A    between atoms: C_6  and  C_31
    9  A    between atoms: C_7  and  O_14
   10  A    between atoms: C_7  and  C_27
   11  A    between atoms: C_10  and  O_14
   12  A    between atoms: C_17  and  C_33
   13  A    between atoms: C_22  and  C_24
   14  A    between atoms: C_26  and  C_33
   15  A    between atoms: C_26  and  C_34
   16  A    between atoms: C_27  and  C_37
   17  A    between atoms: C_29  and  O_36
   18  A    between atoms: C_31  and  C_37
                            x       y       z     vdW  Elec       q    Type
                         _______ _______ _______ _____ _____    ______ ____

>  <TORSDO>
F 18

$$$$
=
 OpenBabel10272414593D

 37 38  0  0  1  0  0  0  0  0999 V2000
  191.1380  175.7970  136.9540 O   0  0  0  0  0  0  0  0  0  0  0  0
  190.7490  176.8690  141.3480 C   0  0  0  0  0  2  0  0  0  0  0  0
  189.7420  175.6550  137.1790 C   0  0  2  0  0  3  0  0  0  0  0  0
  190.6320  176.9640  139.8300 C   0  0  1  0  0  3  0  0  0  0  0  0
  191.4510  175.9880  139.2480 O   0  0  0  0  0  0  0  0  0  0  0  0
  189.1650  176.7840  139.3900 C   0  0  1  0  0  3  0  0  0  0  0  0
  188.3990  177.7470  141.5790 C   0  0  0  0  0  2  0  0  0  0  0  0
  191.7820  176.5090  137.9920 C   0  0  1  0  0  3  0  0  0  0  0  0
  188.2970  177.8510  140.0610 C   0  0  0  0  0  2  0  0  0  0  0  0
  189.0230  176.8470  137.8570 C   0  0  2  0  0  3  0  0  0  0  0  0
  189.8530  177.9120  142.0190 C   0  0  1  0  0  3  0  0  0  0  0  0
  189.9860  177.8670  143.5400 C   0  0  0  0  0  2  0  0  0  0  0  0
  191.0410  178.8340  144.0620 C   0  0  0  0  0  1  0  0  0  0  0  0
  193.2880  176.4480  137.8010 C   0  0  0  0  0  2  0  0  0  0  0  0
  193.7360  175.0090  137.6250 C   0  0  0  0  0  1  0  0  0  0  0  0
  189.4600  174.4400  137.8100 O   0  0  0  0  0  0  0  0  0  0  0  0
  189.3110  173.5220  136.7680 C   0  0  0  0  0  2  0  0  0  0  0  0
  187.9330  172.8900  136.8270 C   0  0  0  0  0  2  0  0  0  0  0  0
  187.0360  173.4820  135.7550 C   0  0  0  0  0  2  0  0  0  0  0  0
  185.7790  174.0640  136.3770 C   0  0  0  0  0  2  0  0  0  0  0  0
  184.5180  173.4290  135.7890 C   0  0  1  0  0  3  0  0  0  0  0  0
  184.0240  172.1560  136.4850 C   0  0  0  0  0  2  0  0  0  0  0  0
  184.3570  172.1580  137.8290 F   0  0  0  0  0  0  0  0  0  0  0  0
  183.5100  174.3690  135.4480 O   0  0  0  0  0  0  0  0  0  0  0  0
  182.5080  176.5370  135.9090 C   0  0  0  0  0  1  0  0  0  0  0  0
  182.7200  174.8560  137.6180 F   0  0  0  0  0  0  0  0  0  0  0  0
  183.2820  175.3470  136.4490 C   0  0  1  0  0  3  0  0  0  0  0  0
  187.6600  176.8100  137.4970 O   0  0  0  0  0  0  0  0  0  0  0  0
  187.3430  177.8190  136.5460 C   0  0  1  0  0  0  0  0  0  0  0  0
  188.2660  179.0340  136.6640 C   0  0  0  0  0  1  0  0  0  0  0  0
  187.3080  177.2810  135.0980 C   0  0  0  0  0  2  0  0  0  0  0  0
  185.9210  177.2450  134.4690 C   0  0  0  0  0  1  0  0  0  0  0  0
  185.9410  178.3410  136.8730 C   0  0  0  0  0  2  0  0  0  0  0  0
  185.3680  177.8050  138.1880 C   0  0  0  0  0  2  0  0  0  0  0  0
  184.4850  178.8330  138.8840 C   0  0  0  0  0  2  0  0  0  0  0  0
  183.8170  178.4220  141.2540 C   0  0  0  0  0  1  0  0  0  0  0  0
  184.8800  179.0090  140.3430 C   0  0  0  0  0  2  0  0  0  0  0  0
  1  3  1  0  0  0  0
  1  8  1  0  0  0  0
  2 11  1  0  0  0  0
  3 16  1  1  0  0  0
  3 10  1  0  0  0  0
  4  2  1  1  0  0  0
  5  4  1  0  0  0  0
  6  4  1  0  0  0  0
  6  9  1  1  0  0  0
  7 11  1  0  0  0  0
  8 14  1  6  0  0  0
  8  5  1  0  0  0  0
  9  7  1  0  0  0  0
 10 28  1  1  0  0  0
 10  6  1  0  0  0  0
 11 12  1  1  0  0  0
 12 13  1  0  0  0  0
 15 14  1  0  0  0  0
 17 18  1  0  0  0  0
 17 16  1  0  0  0  0
 19 20  1  0  0  0  0
 19 18  1  0  0  0  0
 21 20  1  1  0  0  0
 21 22  1  0  0  0  0
 22 23  1  0  0  0  0
 24 21  1  0  0  0  0
 24 27  1  0  0  0  0
 27 25  1  6  0  0  0
 27 26  1  0  0  0  0
 29 30  1  1  0  0  0
 29 33  1  0  0  0  0
 29 28  1  0  0  0  0
 31 29  1  0  0  0  0
 32 31  1  0  0  0  0
 33 34  1  0  0  0  0
 34 35  1  0  0  0  0
 35 37  1  0  0  0  0
 37 36  1  0  0  0  0
M  END
>  <MODEL>
6

>  <REMARK>
 VINA RESULT:      -5.3      3.345      8.633
  Name = 
  18 active torsions:
  status: ('A' for Active; 'I' for Inactive)
    1  A    between atoms: C_1  and  C_5
    2  A    between atoms: C_1  and  C_17
    3  A    between atoms: C_1  and  O_36
    4  A    between atoms: O_2  and  C_6
    5  A    between atoms: O_2  and  C_35
    6  A    between atoms: C_3  and  C_32
    7  A    between atoms: C_6  and  C_8
    8  A    between atoms: C_6  and  C_31
    9  A    between atoms: C_7  and  O_14
   10  A    between atoms: C_7  and  C_27
   11  A    between atoms: C_10  and  O_14
   12  A    between atoms: C_17  and  C_33
   13  A    between atoms: C_22  and  C_24
   14  A    between atoms: C_26  and  C_33
   15  A    between atoms: C_26  and  C_34
   16  A    between atoms: C_27  and  C_37
   17  A    between atoms: C_29  and  O_36
   18  A    between atoms: C_31  and  C_37
                            x       y       z     vdW  Elec       q    Type
                         _______ _______ _______ _____ _____    ______ ____

>  <TORSDO>
F 18

$$$$
=
 OpenBabel10272414593D

 37 38  0  0  1  0  0  0  0  0999 V2000
  186.1490  176.8290  137.8500 O   0  0  0  0  0  0  0  0  0  0  0  0
  182.2080  178.7850  136.7330 C   0  0  0  0  0  2  0  0  0  0  0  0
  186.2110  178.0620  138.5540 C   0  0  2  0  0  3  0  0  0  0  0  0
  183.2870  178.0990  137.5660 C   0  0  1  0  0  3  0  0  0  0  0  0
  184.2850  177.6160  136.7100 O   0  0  0  0  0  0  0  0  0  0  0  0
  183.8760  179.0820  138.5980 C   0  0  1  0  0  3  0  0  0  0  0  0
  181.6840  180.3060  138.6710 C   0  0  0  0  0  2  0  0  0  0  0  0
  184.8430  176.5320  137.3960 C   0  0  1  0  0  3  0  0  0  0  0  0
  182.7560  179.6060  139.5000 C   0  0  0  0  0  2  0  0  0  0  0  0
  184.9900  178.4220  139.4340 C   0  0  2  0  0  3  0  0  0  0  0  0
  181.1060  179.3410  137.6380 C   0  0  1  0  0  3  0  0  0  0  0  0
  179.9910  179.9940  136.8250 C   0  0  0  0  0  2  0  0  0  0  0  0
  180.4560  181.2520  136.1030 C   0  0  0  0  0  1  0  0  0  0  0  0
  184.8780  175.3190  136.4820 C   0  0  0  0  0  2  0  0  0  0  0  0
  184.5660  174.0600  137.2690 C   0  0  0  0  0  1  0  0  0  0  0  0
  186.5710  179.1070  137.6980 O   0  0  0  0  0  0  0  0  0  0  0  0
  187.4530  178.5290  136.7810 C   0  0  0  0  0  2  0  0  0  0  0  0
  188.8680  179.0080  137.0510 C   0  0  0  0  0  2  0  0  0  0  0  0
  189.7740  177.8290  137.3510 C   0  0  0  0  0  2  0  0  0  0  0  0
  189.6190  177.3950  138.7990 C   0  0  0  0  0  2  0  0  0  0  0  0
  190.8750  176.6850  139.3080 C   0  0  1  0  0  3  0  0  0  0  0  0
  191.1140  176.7520  140.8200 C   0  0  0  0  0  2  0  0  0  0  0  0
  191.5620  178.0060  141.2010 F   0  0  0  0  0  0  0  0  0  0  0  0
  191.0950  175.4160  138.7100 O   0  0  0  0  0  0  0  0  0  0  0  0
  192.1700  174.7520  136.6300 C   0  0  0  0  0  1  0  0  0  0  0  0
  193.0910  176.4770  138.0330 F   0  0  0  0  0  0  0  0  0  0  0  0
  192.3370  175.3140  138.0320 C   0  0  1  0  0  3  0  0  0  0  0  0
  185.4150  179.3020  140.4500 O   0  0  0  0  0  0  0  0  0  0  0  0
  185.4520  178.6570  141.7180 C   0  0  1  0  0  0  0  0  0  0  0  0
  184.2980  177.6670  141.8970 C   0  0  0  0  0  1  0  0  0  0  0  0
  186.8140  177.9860  142.0030 C   0  0  0  0  0  2  0  0  0  0  0  0
  188.0260  178.8290  141.6280 C   0  0  0  0  0  1  0  0  0  0  0  0
  185.2370  179.7290  142.7900 C   0  0  0  0  0  2  0  0  0  0  0  0
  183.9470  179.5540  143.5950 C   0  0  0  0  0  2  0  0  0  0  0  0
  184.2260  179.1230  145.0310 C   0  0  0  0  0  2  0  0  0  0  0  0
  185.9870  178.5240  146.6950 C   0  0  0  0  0  1  0  0  0  0  0  0
  185.6860  178.7430  145.2240 C   0  0  0  0  0  2  0  0  0  0  0  0
  1  3  1  0  0  0  0
  2 11  1  0  0  0  0
  3 16  1  6  0  0  0
  3 10  1  0  0  0  0
  4  2  1  6  0  0  0
  4  6  1  0  0  0  0
  5  8  1  0  0  0  0
  5  4  1  0  0  0  0
  6 10  1  0  0  0  0
  6  9  1  1  0  0  0
  7  9  1  0  0  0  0
  8 14  1  6  0  0  0
  8  1  1  0  0  0  0
 10 28  1  1  0  0  0
 11 12  1  6  0  0  0
 11  7  1  0  0  0  0
 13 12  1  0  0  0  0
 14 15  1  0  0  0  0
 17 18  1  0  0  0  0
 17 16  1  0  0  0  0
 18 19  1  0  0  0  0
 19 20  1  0  0  0  0
 21 20  1  1  0  0  0
 21 22  1  0  0  0  0
 22 23  1  0  0  0  0
 24 21  1  0  0  0  0
 27 25  1  6  0  0  0
 27 26  1  0  0  0  0
 27 24  1  0  0  0  0
 28 29  1  0  0  0  0
 29 30  1  1  0  0  0
 29 31  1  0  0  0  0
 29 33  1  0  0  0  0
 32 31  1  0  0  0  0
 33 34  1  0  0  0  0
 34 35  1  0  0  0  0
 35 37  1  0  0  0  0
 37 36  1  0  0  0  0
M  END
>  <MODEL>
7

>  <REMARK>
 VINA RESULT:      -5.0      3.955      8.832
  Name = 
  18 active torsions:
  status: ('A' for Active; 'I' for Inactive)
    1  A    between atoms: C_1  and  C_5
    2  A    between atoms: C_1  and  C_17
    3  A    between atoms: C_1  and  O_36
    4  A    between atoms: O_2  and  C_6
    5  A    between atoms: O_2  and  C_35
    6  A    between atoms: C_3  and  C_32
    7  A    between atoms: C_6  and  C_8
    8  A    between atoms: C_6  and  C_31
    9  A    between atoms: C_7  and  O_14
   10  A    between atoms: C_7  and  C_27
   11  A    between atoms: C_10  and  O_14
   12  A    between atoms: C_17  and  C_33
   13  A    between atoms: C_22  and  C_24
   14  A    between atoms: C_26  and  C_33
   15  A    between atoms: C_26  and  C_34
   16  A    between atoms: C_27  and  C_37
   17  A    between atoms: C_29  and  O_36
   18  A    between atoms: C_31  and  C_37
                            x       y       z     vdW  Elec       q    Type
                         _______ _______ _______ _____ _____    ______ ____

>  <TORSDO>
F 18

$$$$
=
 OpenBabel10272414593D

 37 38  0  0  1  0  0  0  0  0999 V2000
  190.6790  178.0060  142.2790 O   0  0  0  0  0  0  0  0  0  0  0  0
  186.6320  178.4110  144.2940 C   0  0  0  0  0  2  0  0  0  0  0  0
  189.8520  177.1800  141.4690 C   0  0  2  0  0  3  0  0  0  0  0  0
  187.7410  178.5520  143.2560 C   0  0  1  0  0  3  0  0  0  0  0  0
  188.9540  178.1510  143.8280 O   0  0  0  0  0  0  0  0  0  0  0  0
  187.4170  177.7080  142.0060 C   0  0  1  0  0  3  0  0  0  0  0  0
  184.9630  178.0020  142.4520 C   0  0  0  0  0  2  0  0  0  0  0  0
  189.9300  178.8620  143.1180 C   0  0  1  0  0  3  0  0  0  0  0  0
  186.0760  178.1560  141.4210 C   0  0  0  0  0  2  0  0  0  0  0  0
  188.5360  177.8090  140.9510 C   0  0  2  0  0  3  0  0  0  0  0  0
  185.2850  178.8260  143.6980 C   0  0  1  0  0  3  0  0  0  0  0  0
  184.1640  178.7370  144.7320 C   0  0  0  0  0  2  0  0  0  0  0  0
  182.7810  178.7900  144.0980 C   0  0  0  0  0  1  0  0  0  0  0  0
  190.8560  179.5630  144.0970 C   0  0  0  0  0  2  0  0  0  0  0  0
  192.2200  178.8990  144.0950 C   0  0  0  0  0  1  0  0  0  0  0  0
  189.6400  175.9390  142.0770 O   0  0  0  0  0  0  0  0  0  0  0  0
  190.8890  175.5710  142.5840 C   0  0  0  0  0  2  0  0  0  0  0  0
  190.7550  175.1460  144.0350 C   0  0  0  0  0  2  0  0  0  0  0  0
  191.6630  175.9840  144.9150 C   0  0  0  0  0  2  0  0  0  0  0  0
  192.1020  175.1890  146.1330 C   0  0  0  0  0  2  0  0  0  0  0  0
  191.6750  175.8760  147.4320 C   0  0  1  0  0  3  0  0  0  0  0  0
  192.7370  175.9360  148.5350 C   0  0  0  0  0  2  0  0  0  0  0  0
  192.7640  177.1830  149.1370 F   0  0  0  0  0  0  0  0  0  0  0  0
  190.9350  177.0700  147.2300 O   0  0  0  0  0  0  0  0  0  0  0  0
  188.9820  178.1260  148.2260 C   0  0  0  0  0  1  0  0  0  0  0  0
  188.7870  176.6150  146.3630 F   0  0  0  0  0  0  0  0  0  0  0  0
  189.5460  176.9280  147.4810 C   0  0  1  0  0  3  0  0  0  0  0  0
  188.1510  177.1350  139.7740 O   0  0  0  0  0  0  0  0  0  0  0  0
  188.7660  177.7010  138.6230 C   0  0  1  0  0  0  0  0  0  0  0  0
  188.9910  179.2080  138.7700 C   0  0  0  0  0  1  0  0  0  0  0  0
  190.0730  176.9770  138.2300 C   0  0  0  0  0  2  0  0  0  0  0  0
  190.0250  176.2730  136.8790 C   0  0  0  0  0  1  0  0  0  0  0  0
  187.7900  177.5490  137.4530 C   0  0  0  0  0  2  0  0  0  0  0  0
  186.3650  178.0150  137.7660 C   0  0  0  0  0  2  0  0  0  0  0  0
  185.3240  176.9820  137.3520 C   0  0  0  0  0  2  0  0  0  0  0  0
  183.5630  178.1900  138.6430 C   0  0  0  0  0  1  0  0  0  0  0  0
  183.9290  177.5880  137.3000 C   0  0  0  0  0  2  0  0  0  0  0  0
  1  8  1  0  0  0  0
  3 16  1  1  0  0  0
  3  1  1  0  0  0  0
  4  5  1  0  0  0  0
  4  2  1  1  0  0  0
  6  9  1  6  0  0  0
  6  4  1  0  0  0  0
  7 11  1  0  0  0  0
  8  5  1  0  0  0  0
  8 14  1  1  0  0  0
  9  7  1  0  0  0  0
 10 28  1  6  0  0  0
 10  3  1  0  0  0  0
 10  6  1  0  0  0  0
 11  2  1  0  0  0  0
 11 12  1  1  0  0  0
 13 12  1  0  0  0  0
 15 14  1  0  0  0  0
 16 17  1  0  0  0  0
 17 18  1  0  0  0  0
 18 19  1  0  0  0  0
 19 20  1  0  0  0  0
 21 20  1  6  0  0  0
 21 22  1  0  0  0  0
 22 23  1  0  0  0  0
 24 21  1  0  0  0  0
 24 27  1  0  0  0  0
 26 27  1  0  0  0  0
 27 25  1  6  0  0  0
 29 30  1  1  0  0  0
 29 28  1  0  0  0  0
 31 29  1  0  0  0  0
 32 31  1  0  0  0  0
 33 34  1  0  0  0  0
 33 29  1  0  0  0  0
 35 34  1  0  0  0  0
 37 35  1  0  0  0  0
 37 36  1  0  0  0  0
M  END
>  <MODEL>
8

>  <REMARK>
 VINA RESULT:      -4.8      3.551      6.938
  Name = 
  18 active torsions:
  status: ('A' for Active; 'I' for Inactive)
    1  A    between atoms: C_1  and  C_5
    2  A    between atoms: C_1  and  C_17
    3  A    between atoms: C_1  and  O_36
    4  A    between atoms: O_2  and  C_6
    5  A    between atoms: O_2  and  C_35
    6  A    between atoms: C_3  and  C_32
    7  A    between atoms: C_6  and  C_8
    8  A    between atoms: C_6  and  C_31
    9  A    between atoms: C_7  and  O_14
   10  A    between atoms: C_7  and  C_27
   11  A    between atoms: C_10  and  O_14
   12  A    between atoms: C_17  and  C_33
   13  A    between atoms: C_22  and  C_24
   14  A    between atoms: C_26  and  C_33
   15  A    between atoms: C_26  and  C_34
   16  A    between atoms: C_27  and  C_37
   17  A    between atoms: C_29  and  O_36
   18  A    between atoms: C_31  and  C_37
                            x       y       z     vdW  Elec       q    Type
                         _______ _______ _______ _____ _____    ______ ____

>  <TORSDO>
F 18

$$$$
=
 OpenBabel10272414593D

 37 38  0  0  1  0  0  0  0  0999 V2000
  188.8540  176.8040  138.8830 O   0  0  0  0  0  0  0  0  0  0  0  0
  193.0420  176.5400  137.1530 C   0  0  0  0  0  2  0  0  0  0  0  0
  188.5990  176.6460  137.4930 C   0  0  2  0  0  3  0  0  0  0  0  0
  191.6410  176.1280  137.5950 C   0  0  1  0  0  3  0  0  0  0  0  0
  191.1000  177.1410  138.3960 O   0  0  0  0  0  0  0  0  0  0  0  0
  190.7460  175.8610  136.3670 C   0  0  1  0  0  3  0  0  0  0  0  0
  192.7730  175.1840  135.0480 C   0  0  0  0  0  2  0  0  0  0  0  0
  190.1870  176.4820  139.2280 C   0  0  1  0  0  3  0  0  0  0  0  0
  191.3790  174.7670  135.5040 C   0  0  0  0  0  2  0  0  0  0  0  0
  189.3160  175.4710  136.7850 C   0  0  2  0  0  3  0  0  0  0  0  0
  193.6600  175.4620  136.2600 C   0  0  1  0  0  3  0  0  0  0  0  0
  195.0820  175.8300  135.8410 C   0  0  0  0  0  2  0  0  0  0  0  0
  195.1160  176.6610  134.5650 C   0  0  0  0  0  1  0  0  0  0  0  0
  190.4520  176.8660  140.6730 C   0  0  0  0  0  2  0  0  0  0  0  0
  189.3080  177.7040  141.2120 C   0  0  0  0  0  1  0  0  0  0  0  0
  188.7730  177.8560  136.8140 O   0  0  0  0  0  0  0  0  0  0  0  0
  187.5750  178.5490  137.0070 C   0  0  0  0  0  2  0  0  0  0  0  0
  186.4450  177.8400  136.2840 C   0  0  0  0  0  2  0  0  0  0  0  0
  185.2350  177.7150  137.1920 C   0  0  0  0  0  2  0  0  0  0  0  0
  185.5700  178.2030  138.5910 C   0  0  0  0  0  2  0  0  0  0  0  0
  184.4940  179.1520  139.1250 C   0  0  1  0  0  3  0  0  0  0  0  0
  183.0510  178.8050  138.7460 C   0  0  0  0  0  2  0  0  0  0  0  0
  182.3710  179.9200  138.2840 F   0  0  0  0  0  0  0  0  0  0  0  0
  184.6950  179.5410  140.4750 O   0  0  0  0  0  0  0  0  0  0  0  0
  185.6430  178.4140  142.4120 C   0  0  0  0  0  1  0  0  0  0  0  0
  183.2680  178.4810  142.0290 F   0  0  0  0  0  0  0  0  0  0  0  0
  184.5080  178.4870  141.4060 C   0  0  1  0  0  3  0  0  0  0  0  0
  188.5640  175.1080  135.6490 O   0  0  0  0  0  0  0  0  0  0  0  0
  187.7740  173.9510  135.8920 C   0  0  1  0  0  0  0  0  0  0  0  0
  186.9660  173.5330  134.6610 C   0  0  0  0  0  1  0  0  0  0  0  0
  188.6040  172.7700  136.4420 C   0  0  0  0  0  2  0  0  0  0  0  0
  188.5250  171.4970  135.6090 C   0  0  0  0  0  1  0  0  0  0  0  0
  186.7340  174.3130  136.9560 C   0  0  0  0  0  2  0  0  0  0  0  0
  186.0650  173.1020  137.6100 C   0  0  0  0  0  2  0  0  0  0  0  0
  184.5540  173.2770  137.7200 C   0  0  0  0  0  2  0  0  0  0  0  0
  183.2430  171.3140  136.9130 C   0  0  0  0  0  1  0  0  0  0  0  0
  183.8340  172.6580  136.5320 C   0  0  0  0  0  2  0  0  0  0  0  0
  1  8  1  0  0  0  0
  3 16  1  6  0  0  0
  3  1  1  0  0  0  0
  4  2  1  6  0  0  0
  4  5  1  0  0  0  0
  5  8  1  0  0  0  0
  6  9  1  1  0  0  0
  6 10  1  0  0  0  0
  6  4  1  0  0  0  0
  7  9  1  0  0  0  0
  7 11  1  0  0  0  0
  8 14  1  1  0  0  0
 10 28  1  6  0  0  0
 10  3  1  0  0  0  0
 11 12  1  6  0  0  0
 11  2  1  0  0  0  0
 13 12  1  0  0  0  0
 14 15  1  0  0  0  0
 16 17  1  0  0  0  0
 18 17  1  0  0  0  0
 18 19  1  0  0  0  0
 19 20  1  0  0  0  0
 21 20  1  1  0  0  0
 21 24  1  0  0  0  0
 22 21  1  0  0  0  0
 23 22  1  0  0  0  0
 24 27  1  0  0  0  0
 27 26  1  0  0  0  0
 27 25  1  1  0  0  0
 28 29  1  0  0  0  0
 29 30  1  6  0  0  0
 29 31  1  0  0  0  0
 29 33  1  0  0  0  0
 32 31  1  0  0  0  0
 33 34  1  0  0  0  0
 34 35  1  0  0  0  0
 37 36  1  0  0  0  0
 37 35  1  0  0  0  0
M  END
>  <MODEL>
9

>  <REMARK>
 VINA RESULT:      -4.8      3.169      7.204
  Name = 
  18 active torsions:
  status: ('A' for Active; 'I' for Inactive)
    1  A    between atoms: C_1  and  C_5
    2  A    between atoms: C_1  and  C_17
    3  A    between atoms: C_1  and  O_36
    4  A    between atoms: O_2  and  C_6
    5  A    between atoms: O_2  and  C_35
    6  A    between atoms: C_3  and  C_32
    7  A    between atoms: C_6  and  C_8
    8  A    between atoms: C_6  and  C_31
    9  A    between atoms: C_7  and  O_14
   10  A    between atoms: C_7  and  C_27
   11  A    between atoms: C_10  and  O_14
   12  A    between atoms: C_17  and  C_33
   13  A    between atoms: C_22  and  C_24
   14  A    between atoms: C_26  and  C_33
   15  A    between atoms: C_26  and  C_34
   16  A    between atoms: C_27  and  C_37
   17  A    between atoms: C_29  and  O_36
   18  A    between atoms: C_31  and  C_37
                            x       y       z     vdW  Elec       q    Type
                         _______ _______ _______ _____ _____    ______ ____

>  <TORSDO>
F 18

$$$$
