=
 OpenBabel10272413253D

 32 36  0  0  1  0  0  0  0  0999 V2000
  187.7000  177.4220  146.5800 C   0  0  1  0  0  3  0  0  0  0  0  0
  189.6350  177.2250  142.1130 C   0  0  0  0  0  2  0  0  0  0  0  0
  183.7930  178.9670  141.9770 C   0  0  0  0  0  2  0  0  0  0  0  0
  184.0080  178.8240  140.4630 C   0  0  0  0  0  2  0  0  0  0  0  0
  189.5800  178.7580  144.0130 O   0  0  0  0  0  0  0  0  0  0  0  0
  187.2900  176.7590  144.1480 C   0  0  0  0  0  2  0  0  0  0  0  0
  187.3870  178.7270  145.8510 C   0  0  0  0  0  2  0  0  0  0  0  0
  184.6440  177.9570  142.7570 C   0  0  0  0  0  2  0  0  0  0  0  0
  187.1820  177.4140  142.8070 C   0  0  0  0  0  0  0  0  0  0  0  0
  186.0490  177.9590  142.2390 C   0  0  0  0  0  0  0  0  0  0  0  0
  187.7320  178.2370  140.7890 N   0  0  0  0  0  0  0  0  0  0  0  0
  188.1010  177.6080  145.1210 C   0  0  1  0  0  0  0  0  0  0  0  0
  189.4810  177.7790  144.8940 O   0  0  0  0  0  0  0  0  0  0  0  0
  185.4600  179.1340  140.0760 C   0  0  0  0  0  2  0  0  0  0  0  0
  186.4100  178.4230  140.9940 C   0  0  0  0  0  0  0  0  0  0  0  0
  190.3750  178.2580  142.9680 C   0  0  0  0  0  2  0  0  0  0  0  0
  188.2040  177.6060  141.8880 C   0  0  0  0  0  0  0  0  0  0  0  0
  188.3220  177.6900  148.9720 C   0  0  0  0  0  1  0  0  0  0  0  0
  188.8540  177.6480  147.5500 C   0  0  1  0  0  3  0  0  0  0  0  0
  191.2000  176.7260  147.7420 C   0  0  0  0  0  0  0  0  0  0  0  0
  189.8190  176.5650  147.4170 N   0  0  0  0  0  2  0  0  0  0  0  0
  191.6380  177.8290  148.1650 O   0  0  0  0  0  0  0  0  0  0  0  0
  192.3190  175.3500  147.5420 S   0  0  0  0  0  1  0  0  0  0  0  0
  188.4900  178.6150  139.6020 C   0  0  0  0  0  2  0  0  0  0  0  0
  187.6350  179.1780  137.0030 O   0  0  0  0  0  1  0  0  0  0  0  0
  187.9800  176.9610  136.1270 C   0  0  2  0  0  3  0  0  0  0  0  0
  188.4430  177.5010  138.5630 C   0  0  2  0  0  3  0  0  0  0  0  0
  189.6480  175.8140  137.6840 C   0  0  0  0  0  2  0  0  0  0  0  0
  188.6020  175.6300  136.5610 C   0  0  0  0  0  2  0  0  0  0  0  0
  188.8850  177.6380  135.3250 F   0  0  0  0  0  0  0  0  0  0  0  0
  189.7350  177.1450  138.1490 O   0  0  0  0  0  0  0  0  0  0  0  0
  187.5660  177.8220  137.3380 C   0  0  1  0  0  3  0  0  0  0  0  0
  1 19  1  1  0  0  0
  2 16  1  0  0  0  0
  3  8  1  0  0  0  0
  4  3  1  0  0  0  0
  5 13  1  0  0  0  0
  7  1  1  0  0  0  0
  9  6  1  0  0  0  0
 10  8  1  0  0  0  0
 10  9  1  0  0  0  0
 11 15  1  0  0  0  0
 11 17  1  0  0  0  0
 12  6  1  6  0  0  0
 12  7  1  0  0  0  0
 12  1  1  0  0  0  0
 13 12  1  0  0  0  0
 14  4  1  0  0  0  0
 14 15  1  0  0  0  0
 15 10  2  0  0  0  0
 16  5  1  0  0  0  0
 17  2  1  0  0  0  0
 17  9  2  0  0  0  0
 19 18  1  1  0  0  0
 20 22  2  0  0  0  0
 21 19  1  0  0  0  0
 21 20  1  0  0  0  0
 23 20  1  0  0  0  0
 24 11  1  0  0  0  0
 26 30  1  1  0  0  0
 26 29  1  0  0  0  0
 26 32  1  0  0  0  0
 27 24  1  1  0  0  0
 28 31  1  0  0  0  0
 29 28  1  0  0  0  0
 31 27  1  0  0  0  0
 32 25  1  6  0  0  0
 32 27  1  0  0  0  0
M  END
>  <MODEL>
1

>  <REMARK>
 VINA RESULT:      -8.0      0.000      0.000
  Name = 
  4 active torsions:
  status: ('A' for Active; 'I' for Inactive)
    1  A    between atoms: C_2  and  C_24
    2  A    between atoms: N_10  and  C_24
    3  A    between atoms: C_11  and  C_27
    4  A    between atoms: N_16  and  C_27
                            x       y       z     vdW  Elec       q    Type
                         _______ _______ _______ _____ _____    ______ ____

>  <TORSDO>
F 4

$$$$
=
 OpenBabel10272413253D

 32 36  0  0  1  0  0  0  0  0999 V2000
  190.3140  176.8570  141.8280 C   0  0  1  0  0  3  0  0  0  0  0  0
  185.5760  177.9850  141.7140 C   0  0  0  0  0  2  0  0  0  0  0  0
  187.7990  178.1120  147.3910 C   0  0  0  0  0  2  0  0  0  0  0  0
  186.3160  178.3050  147.7390 C   0  0  0  0  0  2  0  0  0  0  0  0
  187.7240  179.0820  141.3300 O   0  0  0  0  0  0  0  0  0  0  0  0
  188.0620  176.5570  142.9940 C   0  0  0  0  0  2  0  0  0  0  0  0
  190.0960  178.1410  142.6260 C   0  0  0  0  0  2  0  0  0  0  0  0
  187.9670  177.2400  146.1390 C   0  0  0  0  0  2  0  0  0  0  0  0
  187.0490  177.3900  143.7160 C   0  0  0  0  0  0  0  0  0  0  0  0
  187.0430  177.7080  145.0590 C   0  0  0  0  0  0  0  0  0  0  0  0
  185.2540  178.6780  144.1260 N   0  0  0  0  0  0  0  0  0  0  0  0
  188.9070  177.4010  142.0470 C   0  0  1  0  0  0  0  0  0  0  0  0
  188.3000  177.9700  140.9100 O   0  0  0  0  0  0  0  0  0  0  0  0
  185.5760  179.0540  146.6210 C   0  0  0  0  0  2  0  0  0  0  0  0
  185.9170  178.4670  145.2830 C   0  0  0  0  0  0  0  0  0  0  0  0
  186.3850  179.0070  140.9100 C   0  0  0  0  0  2  0  0  0  0  0  0
  185.9340  178.0080  143.1680 C   0  0  0  0  0  0  0  0  0  0  0  0
  192.3940  177.3130  140.5460 C   0  0  0  0  0  1  0  0  0  0  0  0
  190.8820  177.2020  140.4570 C   0  0  1  0  0  3  0  0  0  0  0  0
  190.0210  176.4560  138.2000 C   0  0  0  0  0  0  0  0  0  0  0  0
  190.5200  176.1610  139.5050 N   0  0  0  0  0  2  0  0  0  0  0  0
  189.8780  177.6480  137.8200 O   0  0  0  0  0  0  0  0  0  0  0  0
  189.5910  175.1200  137.0970 S   0  0  0  0  0  1  0  0  0  0  0  0
  184.0290  179.4500  143.9520 C   0  0  0  0  0  2  0  0  0  0  0  0
  181.2840  179.3360  144.4610 O   0  0  0  0  0  1  0  0  0  0  0  0
  180.6840  178.2230  142.4110 C   0  0  2  0  0  3  0  0  0  0  0  0
  183.1030  178.7640  142.9560 C   0  0  2  0  0  3  0  0  0  0  0  0
  182.5910  178.6470  140.7660 C   0  0  0  0  0  2  0  0  0  0  0  0
  181.3340  177.8070  141.0880 C   0  0  0  0  0  2  0  0  0  0  0  0
  179.9820  179.4010  142.2140 F   0  0  0  0  0  0  0  0  0  0  0  0
  182.9400  179.5430  141.8010 O   0  0  0  0  0  0  0  0  0  0  0  0
  181.7270  178.3840  143.5360 C   0  0  1  0  0  3  0  0  0  0  0  0
  1 19  1  6  0  0  0
  1 12  1  0  0  0  0
  1  7  1  0  0  0  0
  2 17  1  0  0  0  0
  3  4  1  0  0  0  0
  6  9  1  0  0  0  0
  8  3  1  0  0  0  0
  9 10  1  0  0  0  0
 10 15  2  0  0  0  0
 10  8  1  0  0  0  0
 11 15  1  0  0  0  0
 12  7  1  1  0  0  0
 12  6  1  0  0  0  0
 13  5  1  0  0  0  0
 13 12  1  0  0  0  0
 14  4  1  0  0  0  0
 15 14  1  0  0  0  0
 16  5  1  0  0  0  0
 16  2  1  0  0  0  0
 17  9  2  0  0  0  0
 17 11  1  0  0  0  0
 19 18  1  1  0  0  0
 20 21  1  0  0  0  0
 21 19  1  0  0  0  0
 22 20  2  0  0  0  0
 23 20  1  0  0  0  0
 24 11  1  0  0  0  0
 26 30  1  6  0  0  0
 26 32  1  0  0  0  0
 27 32  1  0  0  0  0
 27 24  1  1  0  0  0
 28 29  1  0  0  0  0
 28 31  1  0  0  0  0
 29 26  1  0  0  0  0
 31 27  1  0  0  0  0
 32 25  1  1  0  0  0
M  END
>  <MODEL>
2

>  <REMARK>
 VINA RESULT:      -7.1      3.875      6.997
  Name = 
  4 active torsions:
  status: ('A' for Active; 'I' for Inactive)
    1  A    between atoms: C_2  and  C_24
    2  A    between atoms: N_10  and  C_24
    3  A    between atoms: C_11  and  C_27
    4  A    between atoms: N_16  and  C_27
                            x       y       z     vdW  Elec       q    Type
                         _______ _______ _______ _____ _____    ______ ____

>  <TORSDO>
F 4

$$$$
=
 OpenBabel10272413253D

 32 36  0  0  1  0  0  0  0  0999 V2000
  189.4980  177.2350  143.8870 C   0  0  1  0  0  3  0  0  0  0  0  0
  185.6520  179.4200  141.8430 C   0  0  0  0  0  2  0  0  0  0  0  0
  189.1470  176.6360  137.6930 C   0  0  0  0  0  2  0  0  0  0  0  0
  188.1950  177.3520  136.7240 C   0  0  0  0  0  2  0  0  0  0  0  0
  186.1610  177.3360  143.0100 O   0  0  0  0  0  0  0  0  0  0  0  0
  188.6870  178.6170  141.8980 C   0  0  0  0  0  2  0  0  0  0  0  0
  188.8050  176.2410  142.9570 C   0  0  0  0  0  2  0  0  0  0  0  0
  189.3620  177.4590  138.9700 C   0  0  0  0  0  2  0  0  0  0  0  0
  187.7540  178.4770  140.7360 C   0  0  0  0  0  0  0  0  0  0  0  0
  188.0470  177.9420  139.4990 C   0  0  0  0  0  0  0  0  0  0  0  0
  185.8970  178.5650  139.4750 N   0  0  0  0  0  0  0  0  0  0  0  0
  188.3120  177.6710  143.0330 C   0  0  1  0  0  0  0  0  0  0  0  0
  187.1130  177.8910  143.7400 O   0  0  0  0  0  0  0  0  0  0  0  0
  186.7980  177.5180  137.3380 C   0  0  0  0  0  2  0  0  0  0  0  0
  186.9020  178.0400  138.7410 C   0  0  0  0  0  0  0  0  0  0  0  0
  185.1900  178.3330  142.8180 C   0  0  0  0  0  2  0  0  0  0  0  0
  186.4180  178.8480  140.6890 C   0  0  0  0  0  0  0  0  0  0  0  0
  190.3500  177.0100  146.2100 C   0  0  0  0  0  1  0  0  0  0  0  0
  189.1150  176.9310  145.3300 C   0  0  1  0  0  3  0  0  0  0  0  0
  187.5040  177.8110  147.0680 C   0  0  0  0  0  0  0  0  0  0  0  0
  188.1230  177.8960  145.7840 N   0  0  0  0  0  2  0  0  0  0  0  0
  187.8030  176.8850  147.8670 O   0  0  0  0  0  0  0  0  0  0  0  0
  186.2900  179.0310  147.5430 S   0  0  0  0  0  1  0  0  0  0  0  0
  184.5280  178.8060  139.0310 C   0  0  0  0  0  2  0  0  0  0  0  0
  181.8900  179.1430  139.8850 O   0  0  0  0  0  1  0  0  0  0  0  0
  181.3310  176.8000  139.9410 C   0  0  2  0  0  3  0  0  0  0  0  0
  183.6580  177.5840  139.3000 C   0  0  2  0  0  3  0  0  0  0  0  0
  183.0070  175.6150  138.4220 C   0  0  0  0  0  2  0  0  0  0  0  0
  181.9390  175.4570  139.5280 C   0  0  0  0  0  2  0  0  0  0  0  0
  180.4270  177.2010  138.9710 F   0  0  0  0  0  0  0  0  0  0  0  0
  183.2780  176.9640  138.1010 O   0  0  0  0  0  0  0  0  0  0  0  0
  182.4150  177.8760  140.1610 C   0  0  1  0  0  3  0  0  0  0  0  0
  1 19  1  1  0  0  0
  2 16  1  0  0  0  0
  3  8  1  0  0  0  0
  4 14  1  0  0  0  0
  4  3  1  0  0  0  0
  5 13  1  0  0  0  0
  7 12  1  0  0  0  0
  7  1  1  0  0  0  0
  8 10  1  0  0  0  0
  9  6  1  0  0  0  0
 10  9  1  0  0  0  0
 11 17  1  0  0  0  0
 12  6  1  6  0  0  0
 12 13  1  0  0  0  0
 12  1  1  0  0  0  0
 14 15  1  0  0  0  0
 15 11  1  0  0  0  0
 15 10  2  0  0  0  0
 16  5  1  0  0  0  0
 17  9  2  0  0  0  0
 17  2  1  0  0  0  0
 19 21  1  0  0  0  0
 19 18  1  1  0  0  0
 20 23  1  0  0  0  0
 20 22  2  0  0  0  0
 21 20  1  0  0  0  0
 24 11  1  0  0  0  0
 26 30  1  6  0  0  0
 26 32  1  0  0  0  0
 27 24  1  6  0  0  0
 27 32  1  0  0  0  0
 28 29  1  0  0  0  0
 29 26  1  0  0  0  0
 31 28  1  0  0  0  0
 31 27  1  0  0  0  0
 32 25  1  6  0  0  0
M  END
>  <MODEL>
3

>  <REMARK>
 VINA RESULT:      -6.8      3.181      4.953
  Name = 
  4 active torsions:
  status: ('A' for Active; 'I' for Inactive)
    1  A    between atoms: C_2  and  C_24
    2  A    between atoms: N_10  and  C_24
    3  A    between atoms: C_11  and  C_27
    4  A    between atoms: N_16  and  C_27
                            x       y       z     vdW  Elec       q    Type
                         _______ _______ _______ _____ _____    ______ ____

>  <TORSDO>
F 4

$$$$
=
 OpenBabel10272413253D

 32 36  0  0  1  0  0  0  0  0999 V2000
  191.6400  176.9540  145.1850 C   0  0  1  0  0  3  0  0  0  0  0  0
  188.1410  177.9370  141.9390 C   0  0  0  0  0  2  0  0  0  0  0  0
  193.4040  176.4810  139.2260 C   0  0  0  0  0  2  0  0  0  0  0  0
  192.6280  176.9060  137.9710 C   0  0  0  0  0  2  0  0  0  0  0  0
  188.8640  176.0680  143.3360 O   0  0  0  0  0  0  0  0  0  0  0  0
  191.1060  178.0900  142.9610 C   0  0  0  0  0  2  0  0  0  0  0  0
  191.5960  175.8280  144.1540 C   0  0  0  0  0  2  0  0  0  0  0  0
  192.9610  177.2880  140.4540 C   0  0  0  0  0  2  0  0  0  0  0  0
  190.6620  177.7120  141.5820 C   0  0  0  0  0  0  0  0  0  0  0  0
  191.4660  177.3320  140.5280 C   0  0  0  0  0  0  0  0  0  0  0  0
  189.3450  177.2740  139.8150 N   0  0  0  0  0  0  0  0  0  0  0  0
  190.7000  177.0380  143.9870 C   0  0  1  0  0  0  0  0  0  0  0  0
  189.3340  176.8610  144.2820 O   0  0  0  0  0  0  0  0  0  0  0  0
  191.1270  176.6200  138.1220 C   0  0  0  0  0  2  0  0  0  0  0  0
  190.6350  177.1030  139.4540 C   0  0  0  0  0  0  0  0  0  0  0  0
  187.7480  176.7300  142.7960 C   0  0  0  0  0  2  0  0  0  0  0  0
  189.3580  177.6620  141.1100 C   0  0  0  0  0  0  0  0  0  0  0  0
  191.9810  176.1340  147.5060 C   0  0  0  0  0  1  0  0  0  0  0  0
  190.9420  176.5010  146.4610 C   0  0  1  0  0  3  0  0  0  0  0  0
  188.8680  177.3300  147.6450 C   0  0  0  0  0  0  0  0  0  0  0  0
  190.0970  177.5770  146.9610 N   0  0  0  0  0  2  0  0  0  0  0  0
  188.4670  176.1540  147.8460 O   0  0  0  0  0  0  0  0  0  0  0  0
  187.8880  178.7080  148.2190 S   0  0  0  0  0  1  0  0  0  0  0  0
  188.1720  177.1040  138.9640 C   0  0  0  0  0  2  0  0  0  0  0  0
  186.7930  175.2930  137.3440 O   0  0  0  0  0  1  0  0  0  0  0  0
  188.0380  175.7410  135.3310 C   0  0  2  0  0  3  0  0  0  0  0  0
  188.5920  176.9160  137.5110 C   0  0  2  0  0  3  0  0  0  0  0  0
  189.1010  178.0430  135.6290 C   0  0  0  0  0  2  0  0  0  0  0  0
  189.0910  176.7270  134.8190 C   0  0  0  0  0  2  0  0  0  0  0  0
  186.7890  176.1500  134.8920 F   0  0  0  0  0  0  0  0  0  0  0  0
  188.2200  178.0220  136.7330 O   0  0  0  0  0  0  0  0  0  0  0  0
  188.0680  175.6170  136.8680 C   0  0  1  0  0  3  0  0  0  0  0  0
  1 19  1  1  0  0  0
  2 16  1  0  0  0  0
  3  8  1  0  0  0  0
  4 14  1  0  0  0  0
  4  3  1  0  0  0  0
  5 13  1  0  0  0  0
  7  1  1  0  0  0  0
  8 10  1  0  0  0  0
  9  6  1  0  0  0  0
 10  9  1  0  0  0  0
 11 17  1  0  0  0  0
 12  6  1  6  0  0  0
 12  7  1  0  0  0  0
 12 13  1  0  0  0  0
 12  1  1  0  0  0  0
 14 15  1  0  0  0  0
 15 11  1  0  0  0  0
 15 10  2  0  0  0  0
 16  5  1  0  0  0  0
 17  9  2  0  0  0  0
 17  2  1  0  0  0  0
 19 21  1  0  0  0  0
 19 18  1  1  0  0  0
 20 22  2  0  0  0  0
 20 23  1  0  0  0  0
 21 20  1  0  0  0  0
 24 11  1  0  0  0  0
 26 30  1  1  0  0  0
 26 32  1  0  0  0  0
 27 24  1  1  0  0  0
 28 31  1  0  0  0  0
 29 26  1  0  0  0  0
 29 28  1  0  0  0  0
 31 27  1  0  0  0  0
 32 25  1  1  0  0  0
 32 27  1  0  0  0  0
M  END
>  <MODEL>
4

>  <REMARK>
 VINA RESULT:      -6.5      2.337      4.353
  Name = 
  4 active torsions:
  status: ('A' for Active; 'I' for Inactive)
    1  A    between atoms: C_2  and  C_24
    2  A    between atoms: N_10  and  C_24
    3  A    between atoms: C_11  and  C_27
    4  A    between atoms: N_16  and  C_27
                            x       y       z     vdW  Elec       q    Type
                         _______ _______ _______ _____ _____    ______ ____

>  <TORSDO>
F 4

$$$$
=
 OpenBabel10272413253D

 32 36  0  0  1  0  0  0  0  0999 V2000
  188.1600  177.2680  146.0040 C   0  0  1  0  0  3  0  0  0  0  0  0
  191.3330  176.3520  142.4230 C   0  0  0  0  0  2  0  0  0  0  0  0
  186.1390  178.7340  140.2930 C   0  0  0  0  0  2  0  0  0  0  0  0
  186.7890  178.3990  138.9430 C   0  0  0  0  0  2  0  0  0  0  0  0
  190.9150  178.0830  144.0930 O   0  0  0  0  0  0  0  0  0  0  0  0
  188.4310  176.3910  143.6210 C   0  0  0  0  0  2  0  0  0  0  0  0
  188.2810  178.5110  145.1250 C   0  0  0  0  0  2  0  0  0  0  0  0
  186.5510  177.7250  141.3740 C   0  0  0  0  0  2  0  0  0  0  0  0
  188.8410  176.9010  142.2750 C   0  0  0  0  0  0  0  0  0  0  0  0
  188.0310  177.5060  141.3370 C   0  0  0  0  0  0  0  0  0  0  0  0
  190.1020  177.4240  140.4900 N   0  0  0  0  0  0  0  0  0  0  0  0
  189.0150  177.2430  144.7430 C   0  0  1  0  0  0  0  0  0  0  0  0
  190.4070  177.2260  144.9610 O   0  0  0  0  0  0  0  0  0  0  0  0
  188.3200  178.4940  139.0230 C   0  0  0  0  0  2  0  0  0  0  0  0
  188.8240  177.7840  140.2450 C   0  0  0  0  0  0  0  0  0  0  0  0
  191.9140  177.3810  143.3970 C   0  0  0  0  0  2  0  0  0  0  0  0
  190.1140  176.8690  141.7230 C   0  0  0  0  0  0  0  0  0  0  0  0
  188.0650  177.3520  148.4860 C   0  0  0  0  0  1  0  0  0  0  0  0
  188.9760  177.4650  147.2760 C   0  0  1  0  0  3  0  0  0  0  0  0
  191.3320  176.7330  147.8270 C   0  0  0  0  0  0  0  0  0  0  0  0
  190.0180  176.4500  147.3460 N   0  0  0  0  0  2  0  0  0  0  0  0
  191.6390  177.8910  148.2170 O   0  0  0  0  0  0  0  0  0  0  0  0
  192.5530  175.4320  147.8730 S   0  0  0  0  0  1  0  0  0  0  0  0
  191.2380  177.5780  139.5880 C   0  0  0  0  0  2  0  0  0  0  0  0
  193.4970  176.4780  138.3660 O   0  0  0  0  0  1  0  0  0  0  0  0
  192.3040  175.2040  136.7070 C   0  0  2  0  0  3  0  0  0  0  0  0
  191.0760  176.6750  138.3700 C   0  0  2  0  0  3  0  0  0  0  0  0
  189.9270  174.9040  137.5890 C   0  0  0  0  0  2  0  0  0  0  0  0
  190.8630  174.8170  136.3620 C   0  0  0  0  0  2  0  0  0  0  0  0
  192.9030  174.1500  137.3780 F   0  0  0  0  0  0  0  0  0  0  0  0
  190.5630  175.4230  138.7370 O   0  0  0  0  0  0  0  0  0  0  0  0
  192.3650  176.4970  137.5450 C   0  0  1  0  0  3  0  0  0  0  0  0
  1 19  1  1  0  0  0
  2 16  1  0  0  0  0
  3  8  1  0  0  0  0
  4 14  1  0  0  0  0
  4  3  1  0  0  0  0
  5 13  1  0  0  0  0
  7  1  1  0  0  0  0
  9  6  1  0  0  0  0
 10  8  1  0  0  0  0
 10  9  1  0  0  0  0
 11 17  1  0  0  0  0
 12  6  1  6  0  0  0
 12 13  1  0  0  0  0
 12  7  1  0  0  0  0
 12  1  1  0  0  0  0
 14 15  1  0  0  0  0
 15 11  1  0  0  0  0
 15 10  2  0  0  0  0
 16  5  1  0  0  0  0
 17  9  2  0  0  0  0
 17  2  1  0  0  0  0
 19 21  1  0  0  0  0
 19 18  1  1  0  0  0
 20 23  1  0  0  0  0
 20 22  2  0  0  0  0
 21 20  1  0  0  0  0
 24 11  1  0  0  0  0
 26 30  1  1  0  0  0
 26 32  1  0  0  0  0
 27 31  1  0  0  0  0
 27 24  1  1  0  0  0
 28 31  1  0  0  0  0
 29 26  1  0  0  0  0
 29 28  1  0  0  0  0
 32 25  1  1  0  0  0
 32 27  1  0  0  0  0
M  END
>  <MODEL>
5

>  <REMARK>
 VINA RESULT:      -6.4      1.972      2.655
  Name = 
  4 active torsions:
  status: ('A' for Active; 'I' for Inactive)
    1  A    between atoms: C_2  and  C_24
    2  A    between atoms: N_10  and  C_24
    3  A    between atoms: C_11  and  C_27
    4  A    between atoms: N_16  and  C_27
                            x       y       z     vdW  Elec       q    Type
                         _______ _______ _______ _____ _____    ______ ____

>  <TORSDO>
F 4

$$$$
=
 OpenBabel10272413253D

 32 36  0  0  1  0  0  0  0  0999 V2000
  190.0300  173.3540  134.9070 C   0  0  1  0  0  3  0  0  0  0  0  0
  191.0570  177.0830  137.8700 C   0  0  0  0  0  2  0  0  0  0  0  0
  185.0760  176.6500  136.7630 C   0  0  0  0  0  2  0  0  0  0  0  0
  185.0560  177.9830  137.5230 C   0  0  0  0  0  2  0  0  0  0  0  0
  190.7480  174.6650  138.0180 O   0  0  0  0  0  0  0  0  0  0  0  0
  189.4850  175.7810  135.4850 C   0  0  0  0  0  2  0  0  0  0  0  0
  189.1080  173.2850  136.1220 C   0  0  0  0  0  2  0  0  0  0  0  0
  186.3790  176.4810  135.9700 C   0  0  0  0  0  2  0  0  0  0  0  0
  188.8920  176.5620  136.6160 C   0  0  0  0  0  0  0  0  0  0  0  0
  187.5550  176.8210  136.8330 C   0  0  0  0  0  0  0  0  0  0  0  0
  188.7070  177.7760  138.4970 N   0  0  0  0  0  0  0  0  0  0  0  0
  190.0590  174.4530  135.9640 C   0  0  1  0  0  0  0  0  0  0  0  0
  191.1990  174.4590  136.7930 O   0  0  0  0  0  0  0  0  0  0  0  0
  186.1780  178.0440  138.5700 C   0  0  0  0  0  2  0  0  0  0  0  0
  187.4770  177.5920  137.9710 C   0  0  0  0  0  0  0  0  0  0  0  0
  191.4740  175.7590  138.5170 C   0  0  0  0  0  2  0  0  0  0  0  0
  189.5760  177.1620  137.6640 C   0  0  0  0  0  0  0  0  0  0  0  0
  190.7820  171.0480  134.3660 C   0  0  0  0  0  1  0  0  0  0  0  0
  191.1570  172.3410  135.0670 C   0  0  1  0  0  3  0  0  0  0  0  0
  193.6530  172.7410  135.1210 C   0  0  0  0  0  0  0  0  0  0  0  0
  192.3810  172.8790  134.4880 N   0  0  0  0  0  2  0  0  0  0  0  0
  193.7630  172.1360  136.2200 O   0  0  0  0  0  0  0  0  0  0  0  0
  195.1030  173.4380  134.3470 S   0  0  0  0  0  1  0  0  0  0  0  0
  189.0320  178.5190  139.7100 C   0  0  0  0  0  2  0  0  0  0  0  0
  191.0310  177.6540  141.4600 O   0  0  0  0  0  1  0  0  0  0  0  0
  189.5540  176.6160  143.0530 C   0  0  2  0  0  3  0  0  0  0  0  0
  188.6580  177.7100  140.9470 C   0  0  2  0  0  3  0  0  0  0  0  0
  187.2530  177.6660  142.7050 C   0  0  0  0  0  2  0  0  0  0  0  0
  188.0530  176.5040  143.3360 C   0  0  0  0  0  2  0  0  0  0  0  0
  190.0950  177.5860  143.8810 F   0  0  0  0  0  0  0  0  0  0  0  0
  188.0490  178.5230  141.9130 O   0  0  0  0  0  0  0  0  0  0  0  0
  189.8350  176.9370  141.5710 C   0  0  1  0  0  3  0  0  0  0  0  0
  1 19  1  1  0  0  0
  1 12  1  0  0  0  0
  1  7  1  0  0  0  0
  2 16  1  0  0  0  0
  3  4  1  0  0  0  0
  4 14  1  0  0  0  0
  5 16  1  0  0  0  0
  6  9  1  0  0  0  0
  8  3  1  0  0  0  0
  8 10  1  0  0  0  0
  9 10  1  0  0  0  0
  9 17  2  0  0  0  0
 10 15  2  0  0  0  0
 11 24  1  0  0  0  0
 12  6  1  6  0  0  0
 12  7  1  0  0  0  0
 12 13  1  0  0  0  0
 13  5  1  0  0  0  0
 15 11  1  0  0  0  0
 15 14  1  0  0  0  0
 17  2  1  0  0  0  0
 17 11  1  0  0  0  0
 19 18  1  6  0  0  0
 20 22  2  0  0  0  0
 21 19  1  0  0  0  0
 21 20  1  0  0  0  0
 23 20  1  0  0  0  0
 26 29  1  0  0  0  0
 26 30  1  1  0  0  0
 27 24  1  6  0  0  0
 27 32  1  0  0  0  0
 27 31  1  0  0  0  0
 28 29  1  0  0  0  0
 31 28  1  0  0  0  0
 32 25  1  1  0  0  0
 32 26  1  0  0  0  0
M  END
>  <MODEL>
6

>  <REMARK>
 VINA RESULT:      -6.4      4.333      8.538
  Name = 
  4 active torsions:
  status: ('A' for Active; 'I' for Inactive)
    1  A    between atoms: C_2  and  C_24
    2  A    between atoms: N_10  and  C_24
    3  A    between atoms: C_11  and  C_27
    4  A    between atoms: N_16  and  C_27
                            x       y       z     vdW  Elec       q    Type
                         _______ _______ _______ _____ _____    ______ ____

>  <TORSDO>
F 4

$$$$
=
 OpenBabel10272413253D

 32 36  0  0  1  0  0  0  0  0999 V2000
  189.7340  176.9520  145.0100 C   0  0  1  0  0  3  0  0  0  0  0  0
  187.4150  177.6700  140.7860 C   0  0  0  0  0  2  0  0  0  0  0  0
  183.8460  178.9170  145.5710 C   0  0  0  0  0  2  0  0  0  0  0  0
  182.7820  179.0490  144.4720 C   0  0  0  0  0  2  0  0  0  0  0  0
  188.9930  178.8530  142.2270 O   0  0  0  0  0  0  0  0  0  0  0  0
  187.5230  176.6750  143.7620 C   0  0  0  0  0  2  0  0  0  0  0  0
  189.0770  178.3300  145.0390 C   0  0  0  0  0  2  0  0  0  0  0  0
  184.9000  177.8650  145.2010 C   0  0  0  0  0  2  0  0  0  0  0  0
  186.4600  177.5350  143.1530 C   0  0  0  0  0  0  0  0  0  0  0  0
  185.3610  178.0710  143.7920 C   0  0  0  0  0  0  0  0  0  0  0  0
  185.2870  178.7280  141.6530 N   0  0  0  0  0  0  0  0  0  0  0  0
  188.8540  177.4130  143.8540 C   0  0  1  0  0  0  0  0  0  0  0  0
  189.5420  177.7340  142.6670 O   0  0  0  0  0  0  0  0  0  0  0  0
  183.4010  179.5410  143.1550 C   0  0  0  0  0  2  0  0  0  0  0  0
  184.6470  178.7660  142.8420 C   0  0  0  0  0  0  0  0  0  0  0  0
  188.6240  178.6040  140.8940 C   0  0  0  0  0  2  0  0  0  0  0  0
  186.3870  177.9630  141.8350 C   0  0  0  0  0  0  0  0  0  0  0  0
  191.6100  178.5720  144.8260 C   0  0  0  0  0  1  0  0  0  0  0  0
  191.2230  177.1060  144.7260 C   0  0  1  0  0  3  0  0  0  0  0  0
  191.7440  176.4040  147.0990 C   0  0  0  0  0  0  0  0  0  0  0  0
  191.9860  176.3290  145.6930 N   0  0  0  0  0  2  0  0  0  0  0  0
  190.8450  177.1570  147.5580 O   0  0  0  0  0  0  0  0  0  0  0  0
  192.7310  175.4230  148.2170 S   0  0  0  0  0  1  0  0  0  0  0  0
  184.8570  179.3630  140.4120 C   0  0  0  0  0  2  0  0  0  0  0  0
  182.9210  180.6280  138.8450 O   0  0  0  0  0  1  0  0  0  0  0  0
  181.7730  178.6200  138.1740 C   0  0  2  0  0  3  0  0  0  0  0  0
  183.7670  178.5350  139.7410 C   0  0  2  0  0  3  0  0  0  0  0  0
  183.4240  176.6980  138.4860 C   0  0  0  0  0  2  0  0  0  0  0  0
  181.9480  177.1020  138.2680 C   0  0  0  0  0  2  0  0  0  0  0  0
  182.1890  179.0430  136.9220 F   0  0  0  0  0  0  0  0  0  0  0  0
  184.2830  177.8060  138.6610 O   0  0  0  0  0  0  0  0  0  0  0  0
  182.5440  179.3560  139.2890 C   0  0  1  0  0  3  0  0  0  0  0  0
  1 19  1  6  0  0  0
  1  7  1  0  0  0  0
  2 16  1  0  0  0  0
  2 17  1  0  0  0  0
  4  3  1  0  0  0  0
  5 13  1  0  0  0  0
  8  3  1  0  0  0  0
  9  6  1  0  0  0  0
  9 10  1  0  0  0  0
 10  8  1  0  0  0  0
 11 17  1  0  0  0  0
 11 15  1  0  0  0  0
 12  6  1  6  0  0  0
 12  1  1  0  0  0  0
 12  7  1  0  0  0  0
 13 12  1  0  0  0  0
 14  4  1  0  0  0  0
 15 14  1  0  0  0  0
 15 10  2  0  0  0  0
 16  5  1  0  0  0  0
 17  9  2  0  0  0  0
 19 18  1  1  0  0  0
 19 21  1  0  0  0  0
 20 22  2  0  0  0  0
 20 23  1  0  0  0  0
 21 20  1  0  0  0  0
 24 11  1  0  0  0  0
 26 30  1  6  0  0  0
 26 29  1  0  0  0  0
 26 32  1  0  0  0  0
 27 24  1  6  0  0  0
 28 31  1  0  0  0  0
 29 28  1  0  0  0  0
 31 27  1  0  0  0  0
 32 25  1  6  0  0  0
 32 27  1  0  0  0  0
M  END
>  <MODEL>
7

>  <REMARK>
 VINA RESULT:      -6.0      2.754      3.844
  Name = 
  4 active torsions:
  status: ('A' for Active; 'I' for Inactive)
    1  A    between atoms: C_2  and  C_24
    2  A    between atoms: N_10  and  C_24
    3  A    between atoms: C_11  and  C_27
    4  A    between atoms: N_16  and  C_27
                            x       y       z     vdW  Elec       q    Type
                         _______ _______ _______ _____ _____    ______ ____

>  <TORSDO>
F 4

$$$$
=
 OpenBabel10272413253D

 32 36  0  0  1  0  0  0  0  0999 V2000
  184.9520  179.0260  143.1630 C   0  0  1  0  0  3  0  0  0  0  0  0
  183.7440  178.2260  138.5110 C   0  0  0  0  0  2  0  0  0  0  0  0
  189.7280  177.5240  139.4500 C   0  0  0  0  0  2  0  0  0  0  0  0
  189.7370  177.4040  137.9200 C   0  0  0  0  0  2  0  0  0  0  0  0
  183.7260  177.0210  140.6350 O   0  0  0  0  0  0  0  0  0  0  0  0
  185.6390  179.3850  140.7290 C   0  0  0  0  0  2  0  0  0  0  0  0
  185.5690  177.7030  142.7160 C   0  0  0  0  0  2  0  0  0  0  0  0
  188.6210  178.4740  139.9270 C   0  0  0  0  0  2  0  0  0  0  0  0
  186.0550  178.5690  139.5460 C   0  0  0  0  0  0  0  0  0  0  0  0
  187.3330  178.1520  139.2350 C   0  0  0  0  0  0  0  0  0  0  0  0
  185.9630  177.3760  137.6440 N   0  0  0  0  0  0  0  0  0  0  0  0
  184.8200  178.5610  141.7170 C   0  0  1  0  0  0  0  0  0  0  0  0
  183.5350  178.1210  141.3420 O   0  0  0  0  0  0  0  0  0  0  0  0
  188.4270  176.7920  137.4020 C   0  0  0  0  0  2  0  0  0  0  0  0
  187.2480  177.4550  138.0510 C   0  0  0  0  0  0  0  0  0  0  0  0
  183.0410  177.2160  139.4240 C   0  0  0  0  0  2  0  0  0  0  0  0
  185.2330  178.0700  138.5460 C   0  0  0  0  0  0  0  0  0  0  0  0
  184.0020  179.0220  145.4600 C   0  0  0  0  0  1  0  0  0  0  0  0
  183.7060  178.7480  143.9950 C   0  0  1  0  0  3  0  0  0  0  0  0
  181.2540  179.1860  143.5640 C   0  0  0  0  0  0  0  0  0  0  0  0
  182.6190  179.6050  143.5430 N   0  0  0  0  0  2  0  0  0  0  0  0
  180.9380  178.0420  143.9860 O   0  0  0  0  0  0  0  0  0  0  0  0
  179.9820  180.2970  142.9840 S   0  0  0  0  0  1  0  0  0  0  0  0
  185.4680  176.7010  136.4490 C   0  0  0  0  0  2  0  0  0  0  0  0
  183.3620  175.5020  135.0590 O   0  0  0  0  0  1  0  0  0  0  0  0
  183.5290  173.3530  136.1320 C   0  0  2  0  0  3  0  0  0  0  0  0
  185.0650  175.2680  136.7750 C   0  0  2  0  0  3  0  0  0  0  0  0
  185.8920  173.1980  137.0880 C   0  0  0  0  0  2  0  0  0  0  0  0
  184.4630  172.6090  137.0920 C   0  0  0  0  0  2  0  0  0  0  0  0
  183.8090  172.9540  134.8350 F   0  0  0  0  0  0  0  0  0  0  0  0
  186.0130  174.3560  136.2900 O   0  0  0  0  0  0  0  0  0  0  0  0
  183.6580  174.8830  136.2770 C   0  0  1  0  0  3  0  0  0  0  0  0
  1 19  1  1  0  0  0
  2 17  1  0  0  0  0
  2 16  1  0  0  0  0
  3  8  1  0  0  0  0
  4  3  1  0  0  0  0
  5 13  1  0  0  0  0
  7  1  1  0  0  0  0
  9  6  1  0  0  0  0
 10  9  1  0  0  0  0
 10  8  1  0  0  0  0
 11 15  1  0  0  0  0
 11 17  1  0  0  0  0
 12  6  1  6  0  0  0
 12  7  1  0  0  0  0
 12  1  1  0  0  0  0
 13 12  1  0  0  0  0
 14  4  1  0  0  0  0
 14 15  1  0  0  0  0
 15 10  2  0  0  0  0
 16  5  1  0  0  0  0
 17  9  2  0  0  0  0
 19 18  1  1  0  0  0
 20 22  2  0  0  0  0
 21 20  1  0  0  0  0
 21 19  1  0  0  0  0
 23 20  1  0  0  0  0
 24 11  1  0  0  0  0
 26 30  1  6  0  0  0
 26 32  1  0  0  0  0
 26 29  1  0  0  0  0
 27 24  1  6  0  0  0
 28 29  1  0  0  0  0
 31 27  1  0  0  0  0
 31 28  1  0  0  0  0
 32 25  1  6  0  0  0
 32 27  1  0  0  0  0
M  END
>  <MODEL>
8

>  <REMARK>
 VINA RESULT:      -5.8      5.007      6.495
  Name = 
  4 active torsions:
  status: ('A' for Active; 'I' for Inactive)
    1  A    between atoms: C_2  and  C_24
    2  A    between atoms: N_10  and  C_24
    3  A    between atoms: C_11  and  C_27
    4  A    between atoms: N_16  and  C_27
                            x       y       z     vdW  Elec       q    Type
                         _______ _______ _______ _____ _____    ______ ____

>  <TORSDO>
F 4

$$$$
=
 OpenBabel10272413253D

 32 36  0  0  1  0  0  0  0  0999 V2000
  190.3860  177.2040  138.8550 C   0  0  1  0  0  3  0  0  0  0  0  0
  189.8130  176.9700  143.6870 C   0  0  0  0  0  2  0  0  0  0  0  0
  184.7570  178.9290  140.8980 C   0  0  0  0  0  2  0  0  0  0  0  0
  184.3050  179.1640  142.3460 C   0  0  0  0  0  2  0  0  0  0  0  0
  189.7490  175.4640  141.7660 O   0  0  0  0  0  0  0  0  0  0  0  0
  189.3930  178.3600  140.9030 C   0  0  0  0  0  2  0  0  0  0  0  0
  189.0940  176.4490  139.1600 C   0  0  0  0  0  2  0  0  0  0  0  0
  186.2710  179.1310  140.7480 C   0  0  0  0  0  2  0  0  0  0  0  0
  188.3400  178.1090  141.9370 C   0  0  0  0  0  0  0  0  0  0  0  0
  186.9970  178.4090  141.8400 C   0  0  0  0  0  0  0  0  0  0  0  0
  187.3350  177.4550  143.8370 N   0  0  0  0  0  0  0  0  0  0  0  0
  189.8970  177.0580  140.2910 C   0  0  1  0  0  0  0  0  0  0  0  0
  190.6400  176.1680  141.0920 O   0  0  0  0  0  0  0  0  0  0  0  0
  184.9450  178.1450  143.3000 C   0  0  0  0  0  2  0  0  0  0  0  0
  186.4170  178.0280  143.0290 C   0  0  0  0  0  0  0  0  0  0  0  0
  190.1090  175.5790  143.1190 C   0  0  0  0  0  2  0  0  0  0  0  0
  188.5140  177.5170  143.1800 C   0  0  0  0  0  0  0  0  0  0  0  0
  190.8520  174.9080  138.0230 C   0  0  0  0  0  1  0  0  0  0  0  0
  191.4820  176.2080  138.4930 C   0  0  1  0  0  3  0  0  0  0  0  0
  193.5450  176.1630  137.0340 C   0  0  0  0  0  0  0  0  0  0  0  0
  192.3130  176.7630  137.4340 N   0  0  0  0  0  2  0  0  0  0  0  0
  193.9610  175.1130  137.5900 O   0  0  0  0  0  0  0  0  0  0  0  0
  194.5090  176.9140  135.7310 S   0  0  0  0  0  1  0  0  0  0  0  0
  187.1020  176.9060  145.1680 C   0  0  0  0  0  2  0  0  0  0  0  0
  186.0980  178.0630  147.5050 O   0  0  0  0  0  1  0  0  0  0  0  0
  188.2350  178.6480  148.4480 C   0  0  2  0  0  3  0  0  0  0  0  0
  188.0600  177.5300  146.1770 C   0  0  2  0  0  3  0  0  0  0  0  0
  189.9650  177.1510  147.3140 C   0  0  0  0  0  2  0  0  0  0  0  0
  189.7230  178.4130  148.1730 C   0  0  0  0  0  2  0  0  0  0  0  0
  187.8160  177.7640  149.4290 F   0  0  0  0  0  0  0  0  0  0  0  0
  188.7700  176.5420  146.8730 O   0  0  0  0  0  0  0  0  0  0  0  0
  187.3850  178.4950  147.1700 C   0  0  1  0  0  3  0  0  0  0  0  0
  1 19  1  1  0  0  0
  1  7  1  0  0  0  0
  1 12  1  0  0  0  0
  3  4  1  0  0  0  0
  4 14  1  0  0  0  0
  5 16  1  0  0  0  0
  6  9  1  0  0  0  0
  8  3  1  0  0  0  0
  8 10  1  0  0  0  0
  9 17  2  0  0  0  0
 10  9  1  0  0  0  0
 10 15  2  0  0  0  0
 11 24  1  0  0  0  0
 12  7  1  6  0  0  0
 12  6  1  0  0  0  0
 12 13  1  0  0  0  0
 13  5  1  0  0  0  0
 15 14  1  0  0  0  0
 15 11  1  0  0  0  0
 16  2  1  0  0  0  0
 17  2  1  0  0  0  0
 17 11  1  0  0  0  0
 19 18  1  6  0  0  0
 20 21  1  0  0  0  0
 20 22  2  0  0  0  0
 21 19  1  0  0  0  0
 23 20  1  0  0  0  0
 26 30  1  1  0  0  0
 27 24  1  1  0  0  0
 27 31  1  0  0  0  0
 27 32  1  0  0  0  0
 28 29  1  0  0  0  0
 29 26  1  0  0  0  0
 31 28  1  0  0  0  0
 32 25  1  1  0  0  0
 32 26  1  0  0  0  0
M  END
>  <MODEL>
9

>  <REMARK>
 VINA RESULT:      -5.7      4.022      7.811
  Name = 
  4 active torsions:
  status: ('A' for Active; 'I' for Inactive)
    1  A    between atoms: C_2  and  C_24
    2  A    between atoms: N_10  and  C_24
    3  A    between atoms: C_11  and  C_27
    4  A    between atoms: N_16  and  C_27
                            x       y       z     vdW  Elec       q    Type
                         _______ _______ _______ _____ _____    ______ ____

>  <TORSDO>
F 4

$$$$
