=
 OpenBabel10272401133D

 27 31  0  0  0  0  0  0  0  0999 V2000
  187.9430  177.5120  145.0770 N   0  0  0  0  0  0  0  0  0  0  0  0
  188.0150  177.7150  142.6710 C   0  0  0  0  0  0  0  0  0  0  0  0
  190.3570  177.0170  143.2910 N   0  0  0  0  0  0  0  0  0  0  0  0
  187.4410  177.9400  141.4700 N   0  0  0  0  0  0  0  0  0  0  0  0
  192.8280  175.9750  147.1530 F   0  0  0  0  0  0  0  0  0  0  0  0
  191.6450  176.3490  146.6100 C   0  0  0  0  0  0  0  0  0  0  0  0
  187.3460  177.7990  143.8920 C   0  0  0  0  0  0  0  0  0  0  0  0
  189.5210  177.4180  141.0460 C   0  0  0  0  0  0  0  0  0  0  0  0
  189.1850  177.1270  145.4730 C   0  0  0  0  0  0  0  0  0  0  0  0
  189.3880  177.3600  142.4210 C   0  0  0  0  0  0  0  0  0  0  0  0
  191.5300  176.5160  145.2320 C   0  0  0  0  0  3  0  0  0  0  0  0
  188.3360  177.7670  140.5060 N   0  0  0  0  0  0  0  0  0  0  0  0
  190.5410  176.5640  147.4240 C   0  0  0  0  0  3  0  0  0  0  0  0
  189.3290  176.9490  146.8570 C   0  0  0  0  0  3  0  0  0  0  0  0
  190.3220  176.9020  144.6370 C   0  0  0  0  0  0  0  0  0  0  0  0
  190.6140  176.4450  139.0280 C   0  0  0  0  0  3  0  0  0  0  0  0
  193.0030  176.6070  138.6800 C   0  0  0  0  0  3  0  0  0  0  0  0
  193.1300  177.3050  139.8840 C   0  0  0  0  0  3  0  0  0  0  0  0
  191.9990  177.5720  140.6590 C   0  0  0  0  0  3  0  0  0  0  0  0
  190.7290  177.1450  140.2390 C   0  0  0  0  0  0  0  0  0  0  0  0
  191.7440  176.1780  138.2510 C   0  0  0  0  0  3  0  0  0  0  0  0
  183.2300  179.0350  144.1300 C   0  0  0  0  0  3  0  0  0  0  0  0
  185.9130  178.2030  143.9560 C   0  0  0  0  0  0  0  0  0  0  0  0
  185.1150  178.3000  142.8030 C   0  0  0  0  0  3  0  0  0  0  0  0
  183.7830  178.7090  142.8880 C   0  0  0  0  0  3  0  0  0  0  0  0
  184.0130  178.9540  145.2840 C   0  0  0  0  0  3  0  0  0  0  0  0
  185.3470  178.5450  145.1950 C   0  0  0  0  0  3  0  0  0  0  0  0
  1  9  1  0  0  0  0
  2  7  1  0  0  0  0
  3 15  1  0  0  0  0
  4  2  2  0  0  0  0
  6  5  1  0  0  0  0
  6 13  1  0  0  0  0
  7 23  1  0  0  0  0
  7  1  2  0  0  0  0
  8 10  1  0  0  0  0
  9 14  1  0  0  0  0
 10  2  1  0  0  0  0
 10  3  2  0  0  0  0
 11  6  2  0  0  0  0
 12  8  2  0  0  0  0
 12  4  1  0  0  0  0
 14 13  2  0  0  0  0
 15 11  1  0  0  0  0
 15  9  2  0  0  0  0
 16 20  1  0  0  0  0
 17 18  2  0  0  0  0
 18 19  1  0  0  0  0
 20 19  2  0  0  0  0
 20  8  1  0  0  0  0
 21 17  1  0  0  0  0
 21 16  2  0  0  0  0
 22 26  1  0  0  0  0
 23 27  1  0  0  0  0
 24 25  1  0  0  0  0
 24 23  2  0  0  0  0
 25 22  2  0  0  0  0
 27 26  2  0  0  0  0
M  END
>  <MODEL>
1

>  <REMARK>
 VINA RESULT:     -11.2      0.000      0.000
  Name = 
  2 active torsions:
  status: ('A' for Active; 'I' for Inactive)
    1  A    between atoms: C_9  and  C_15
    2  A    between atoms: C_14  and  C_17
                            x       y       z     vdW  Elec       q    Type
                         _______ _______ _______ _____ _____    ______ ____

>  <TORSDO>
F 2

$$$$
=
 OpenBabel10272401133D

 27 31  0  0  0  0  0  0  0  0999 V2000
  187.1410  177.9730  144.8110 N   0  0  0  0  0  0  0  0  0  0  0  0
  188.6590  177.7450  142.9460 C   0  0  0  0  0  0  0  0  0  0  0  0
  186.4690  178.3800  141.8710 N   0  0  0  0  0  0  0  0  0  0  0  0
  189.8810  177.5250  142.4150 N   0  0  0  0  0  0  0  0  0  0  0  0
  182.0600  179.3860  143.1600 F   0  0  0  0  0  0  0  0  0  0  0  0
  183.3170  179.0410  143.5290 C   0  0  0  0  0  0  0  0  0  0  0  0
  188.3710  177.6920  144.3090 C   0  0  0  0  0  0  0  0  0  0  0  0
  188.5730  177.9820  140.7240 C   0  0  0  0  0  0  0  0  0  0  0  0
  185.9360  178.3250  144.2910 C   0  0  0  0  0  0  0  0  0  0  0  0
  187.7750  178.0580  141.8520 C   0  0  0  0  0  0  0  0  0  0  0  0
  184.3050  178.8640  142.5640 C   0  0  0  0  0  3  0  0  0  0  0  0
  189.8290  177.6630  141.0970 N   0  0  0  0  0  0  0  0  0  0  0  0
  183.6260  178.8660  144.8720 C   0  0  0  0  0  3  0  0  0  0  0  0
  184.9210  178.5120  145.2410 C   0  0  0  0  0  3  0  0  0  0  0  0
  185.6160  178.5090  142.9110 C   0  0  0  0  0  0  0  0  0  0  0  0
  189.1240  178.6980  138.4020 C   0  0  0  0  0  3  0  0  0  0  0  0
  187.4670  178.6610  136.6380 C   0  0  0  0  0  3  0  0  0  0  0  0
  186.5170  178.1770  137.5430 C   0  0  0  0  0  3  0  0  0  0  0  0
  186.8730  177.9540  138.8750 C   0  0  0  0  0  3  0  0  0  0  0  0
  188.1790  178.2130  139.3180 C   0  0  0  0  0  0  0  0  0  0  0  0
  188.7710  178.9210  137.0680 C   0  0  0  0  0  3  0  0  0  0  0  0
  191.3450  176.6000  147.2220 C   0  0  0  0  0  3  0  0  0  0  0  0
  189.4210  177.3310  145.3030 C   0  0  0  0  0  0  0  0  0  0  0  0
  190.6940  176.8820  144.9090 C   0  0  0  0  0  3  0  0  0  0  0  0
  191.6500  176.5220  145.8610 C   0  0  0  0  0  3  0  0  0  0  0  0
  190.0810  177.0340  147.6290 C   0  0  0  0  0  3  0  0  0  0  0  0
  189.1260  177.3920  146.6740 C   0  0  0  0  0  3  0  0  0  0  0  0
  2  7  2  0  0  0  0
  3 15  2  0  0  0  0
  4  2  1  0  0  0  0
  5  6  1  0  0  0  0
  6 13  1  0  0  0  0
  7  1  1  0  0  0  0
  7 23  1  0  0  0  0
  8 12  1  0  0  0  0
  8 10  2  0  0  0  0
  9  1  2  0  0  0  0
  9 14  1  0  0  0  0
 10  3  1  0  0  0  0
 10  2  1  0  0  0  0
 11 15  1  0  0  0  0
 11  6  2  0  0  0  0
 12  4  2  0  0  0  0
 13 14  2  0  0  0  0
 15  9  1  0  0  0  0
 16 20  1  0  0  0  0
 17 21  1  0  0  0  0
 17 18  2  0  0  0  0
 18 19  1  0  0  0  0
 19 20  2  0  0  0  0
 20  8  1  0  0  0  0
 21 16  2  0  0  0  0
 22 26  1  0  0  0  0
 23 27  1  0  0  0  0
 24 23  2  0  0  0  0
 24 25  1  0  0  0  0
 25 22  2  0  0  0  0
 27 26  2  0  0  0  0
M  END
>  <MODEL>
2

>  <REMARK>
 VINA RESULT:     -10.8      2.970      5.713
  Name = 
  2 active torsions:
  status: ('A' for Active; 'I' for Inactive)
    1  A    between atoms: C_9  and  C_15
    2  A    between atoms: C_14  and  C_17
                            x       y       z     vdW  Elec       q    Type
                         _______ _______ _______ _____ _____    ______ ____

>  <TORSDO>
F 2

$$$$
=
 OpenBabel10272401133D

 27 31  0  0  0  0  0  0  0  0999 V2000
  187.7830  177.6310  144.7570 N   0  0  0  0  0  0  0  0  0  0  0  0
  187.9320  177.7950  142.3510 C   0  0  0  0  0  0  0  0  0  0  0  0
  190.2460  177.0870  143.0560 N   0  0  0  0  0  0  0  0  0  0  0  0
  187.3980  178.0070  141.1300 N   0  0  0  0  0  0  0  0  0  0  0  0
  192.5850  176.0840  147.0100 F   0  0  0  0  0  0  0  0  0  0  0  0
  191.4240  176.4600  146.4240 C   0  0  0  0  0  0  0  0  0  0  0  0
  187.2260  177.9050  143.5490 C   0  0  0  0  0  0  0  0  0  0  0  0
  189.4860  177.4600  140.7800 C   0  0  0  0  0  0  0  0  0  0  0  0
  189.0080  177.2420  145.1980 C   0  0  0  0  0  0  0  0  0  0  0  0
  189.3090  177.4240  142.1510 C   0  0  0  0  0  0  0  0  0  0  0  0
  191.3540  176.6060  145.0410 C   0  0  0  0  0  3  0  0  0  0  0  0
  188.3210  177.8110  140.1970 N   0  0  0  0  0  0  0  0  0  0  0  0
  190.2960  176.6980  147.2000 C   0  0  0  0  0  3  0  0  0  0  0  0
  189.1070  177.0840  146.5880 C   0  0  0  0  0  3  0  0  0  0  0  0
  190.1680  176.9930  144.4020 C   0  0  0  0  0  0  0  0  0  0  0  0
  191.9620  177.5700  140.5170 C   0  0  0  0  0  3  0  0  0  0  0  0
  193.0750  176.6160  138.5920 C   0  0  0  0  0  3  0  0  0  0  0  0
  191.8400  176.2050  138.0830 C   0  0  0  0  0  3  0  0  0  0  0  0
  190.6670  176.4770  138.7920 C   0  0  0  0  0  3  0  0  0  0  0  0
  190.7160  177.1630  140.0160 C   0  0  0  0  0  0  0  0  0  0  0  0
  193.1360  177.2980  139.8100 C   0  0  0  0  0  3  0  0  0  0  0  0
  183.0710  179.0290  143.5530 C   0  0  0  0  0  3  0  0  0  0  0  0
  185.7960  178.3220  143.5620 C   0  0  0  0  0  0  0  0  0  0  0  0
  185.2020  178.9090  144.6940 C   0  0  0  0  0  3  0  0  0  0  0  0
  183.8510  179.2640  144.6890 C   0  0  0  0  0  3  0  0  0  0  0  0
  183.6430  178.4360  142.4260 C   0  0  0  0  0  3  0  0  0  0  0  0
  184.9950  178.0820  142.4330 C   0  0  0  0  0  3  0  0  0  0  0  0
  1  9  1  0  0  0  0
  2  7  1  0  0  0  0
  3 15  1  0  0  0  0
  4  2  2  0  0  0  0
  6  5  1  0  0  0  0
  6 13  1  0  0  0  0
  7 23  1  0  0  0  0
  7  1  2  0  0  0  0
  8 10  1  0  0  0  0
  9 14  1  0  0  0  0
 10  2  1  0  0  0  0
 10  3  2  0  0  0  0
 11  6  2  0  0  0  0
 12  8  2  0  0  0  0
 12  4  1  0  0  0  0
 14 13  2  0  0  0  0
 15 11  1  0  0  0  0
 15  9  2  0  0  0  0
 17 21  1  0  0  0  0
 18 17  2  0  0  0  0
 18 19  1  0  0  0  0
 19 20  2  0  0  0  0
 20 16  1  0  0  0  0
 20  8  1  0  0  0  0
 21 16  2  0  0  0  0
 22 25  1  0  0  0  0
 23 24  1  0  0  0  0
 25 24  2  0  0  0  0
 26 27  1  0  0  0  0
 26 22  2  0  0  0  0
 27 23  2  0  0  0  0
M  END
>  <MODEL>
3

>  <REMARK>
 VINA RESULT:     -10.7      0.370      1.357
  Name = 
  2 active torsions:
  status: ('A' for Active; 'I' for Inactive)
    1  A    between atoms: C_9  and  C_15
    2  A    between atoms: C_14  and  C_17
                            x       y       z     vdW  Elec       q    Type
                         _______ _______ _______ _____ _____    ______ ____

>  <TORSDO>
F 2

$$$$
=
 OpenBabel10272401133D

 27 31  0  0  0  0  0  0  0  0999 V2000
  186.6090  178.2890  140.8460 N   0  0  0  0  0  0  0  0  0  0  0  0
  188.8400  177.6320  141.5000 C   0  0  0  0  0  0  0  0  0  0  0  0
  187.5980  177.8220  143.6850 N   0  0  0  0  0  0  0  0  0  0  0  0
  190.1080  177.2600  141.2260 N   0  0  0  0  0  0  0  0  0  0  0  0
  183.2820  178.8910  145.2160 F   0  0  0  0  0  0  0  0  0  0  0  0
  184.1250  178.7330  144.1680 C   0  0  0  0  0  0  0  0  0  0  0  0
  187.8930  177.9730  140.5350 C   0  0  0  0  0  0  0  0  0  0  0  0
  189.9200  177.1690  143.4020 C   0  0  0  0  0  0  0  0  0  0  0  0
  185.8840  178.4000  141.9900 C   0  0  0  0  0  0  0  0  0  0  0  0
  188.6840  177.5730  142.9310 C   0  0  0  0  0  0  0  0  0  0  0  0
  185.4500  178.3630  144.3860 C   0  0  0  0  0  3  0  0  0  0  0  0
  190.7500  176.9880  142.3550 N   0  0  0  0  0  0  0  0  0  0  0  0
  183.6710  178.9360  142.8710 C   0  0  0  0  0  3  0  0  0  0  0  0
  184.5450  178.7710  141.8000 C   0  0  0  0  0  3  0  0  0  0  0  0
  186.3480  178.1890  143.3240 C   0  0  0  0  0  0  0  0  0  0  0  0
  191.5790  176.3760  145.0850 C   0  0  0  0  0  3  0  0  0  0  0  0
  191.1310  176.4990  147.4600 C   0  0  0  0  0  3  0  0  0  0  0  0
  189.8810  177.0650  147.1930 C   0  0  0  0  0  3  0  0  0  0  0  0
  189.4810  177.2850  145.8730 C   0  0  0  0  0  3  0  0  0  0  0  0
  190.3260  176.9430  144.8050 C   0  0  0  0  0  0  0  0  0  0  0  0
  191.9800  176.1560  146.4050 C   0  0  0  0  0  3  0  0  0  0  0  0
  188.8250  178.0080  136.3330 C   0  0  0  0  0  3  0  0  0  0  0  0
  188.2450  177.9940  139.0870 C   0  0  0  0  0  0  0  0  0  0  0  0
  188.9070  179.0850  138.4980 C   0  0  0  0  0  3  0  0  0  0  0  0
  189.1990  179.0920  137.1330 C   0  0  0  0  0  3  0  0  0  0  0  0
  188.1570  176.9210  136.9010 C   0  0  0  0  0  3  0  0  0  0  0  0
  187.8650  176.9180  138.2680 C   0  0  0  0  0  3  0  0  0  0  0  0
  1  9  1  0  0  0  0
  2 10  1  0  0  0  0
  4  2  2  0  0  0  0
  4 12  1  0  0  0  0
  6 11  1  0  0  0  0
  6  5  1  0  0  0  0
  7  1  2  0  0  0  0
  7  2  1  0  0  0  0
  8 20  1  0  0  0  0
  9 15  1  0  0  0  0
 10  8  1  0  0  0  0
 10  3  2  0  0  0  0
 12  8  2  0  0  0  0
 13  6  2  0  0  0  0
 14  9  2  0  0  0  0
 14 13  1  0  0  0  0
 15  3  1  0  0  0  0
 15 11  2  0  0  0  0
 16 21  1  0  0  0  0
 18 17  1  0  0  0  0
 19 18  2  0  0  0  0
 20 16  2  0  0  0  0
 20 19  1  0  0  0  0
 21 17  2  0  0  0  0
 22 26  2  0  0  0  0
 22 25  1  0  0  0  0
 23  7  1  0  0  0  0
 24 23  1  0  0  0  0
 25 24  2  0  0  0  0
 26 27  1  0  0  0  0
 27 23  2  0  0  0  0
M  END
>  <MODEL>
4

>  <REMARK>
 VINA RESULT:     -10.5      2.749      6.437
  Name = 
  2 active torsions:
  status: ('A' for Active; 'I' for Inactive)
    1  A    between atoms: C_9  and  C_15
    2  A    between atoms: C_14  and  C_17
                            x       y       z     vdW  Elec       q    Type
                         _______ _______ _______ _____ _____    ______ ____

>  <TORSDO>
F 2

$$$$
=
 OpenBabel10272401133D

 27 31  0  0  0  0  0  0  0  0999 V2000
  190.2030  177.1230  143.1510 N   0  0  0  0  0  0  0  0  0  0  0  0
  188.2360  177.3900  144.5280 C   0  0  0  0  0  0  0  0  0  0  0  0
  187.4250  177.9240  142.2010 N   0  0  0  0  0  0  0  0  0  0  0  0
  187.5820  177.3300  145.7070 N   0  0  0  0  0  0  0  0  0  0  0  0
  189.1350  178.1470  137.8270 F   0  0  0  0  0  0  0  0  0  0  0  0
  189.3610  177.9020  139.1390 C   0  0  0  0  0  0  0  0  0  0  0  0
  189.5920  177.1050  144.3630 C   0  0  0  0  0  0  0  0  0  0  0  0
  186.0840  177.9120  144.2260 C   0  0  0  0  0  0  0  0  0  0  0  0
  189.8240  177.3910  141.8740 C   0  0  0  0  0  0  0  0  0  0  0  0
  187.2690  177.7640  143.5280 C   0  0  0  0  0  0  0  0  0  0  0  0
  188.3240  178.0220  140.0610 C   0  0  0  0  0  3  0  0  0  0  0  0
  186.3060  177.6430  145.5290 N   0  0  0  0  0  0  0  0  0  0  0  0
  190.6260  177.5260  139.5710 C   0  0  0  0  0  3  0  0  0  0  0  0
  190.8490  177.2760  140.9230 C   0  0  0  0  0  3  0  0  0  0  0  0
  188.5230  177.7750  141.4270 C   0  0  0  0  0  0  0  0  0  0  0  0
  183.7390  178.6830  144.5720 C   0  0  0  0  0  3  0  0  0  0  0  0
  182.2260  179.0120  142.7120 C   0  0  0  0  0  3  0  0  0  0  0  0
  183.2340  178.6200  141.8250 C   0  0  0  0  0  3  0  0  0  0  0  0
  184.4920  178.2610  142.3140 C   0  0  0  0  0  3  0  0  0  0  0  0
  184.7580  178.2890  143.6910 C   0  0  0  0  0  0  0  0  0  0  0  0
  182.4800  179.0440  144.0860 C   0  0  0  0  0  3  0  0  0  0  0  0
  192.1400  176.0850  147.6780 C   0  0  0  0  0  3  0  0  0  0  0  0
  190.4480  176.7480  145.5280 C   0  0  0  0  0  0  0  0  0  0  0  0
  190.2680  177.3370  146.7920 C   0  0  0  0  0  3  0  0  0  0  0  0
  191.1040  177.0050  147.8610 C   0  0  0  0  0  3  0  0  0  0  0  0
  192.3390  175.5000  146.4250 C   0  0  0  0  0  3  0  0  0  0  0  0
  191.5010  175.8330  145.3580 C   0  0  0  0  0  3  0  0  0  0  0  0
  1  7  1  0  0  0  0
  2  4  1  0  0  0  0
  3 10  1  0  0  0  0
  5  6  1  0  0  0  0
  6 13  1  0  0  0  0
  6 11  2  0  0  0  0
  7  2  2  0  0  0  0
  7 23  1  0  0  0  0
  8 12  1  0  0  0  0
  9  1  2  0  0  0  0
 10  8  2  0  0  0  0
 10  2  1  0  0  0  0
 11 15  1  0  0  0  0
 12  4  2  0  0  0  0
 13 14  2  0  0  0  0
 14  9  1  0  0  0  0
 15  9  1  0  0  0  0
 15  3  2  0  0  0  0
 17 21  2  0  0  0  0
 18 19  2  0  0  0  0
 18 17  1  0  0  0  0
 19 20  1  0  0  0  0
 20  8  1  0  0  0  0
 20 16  2  0  0  0  0
 21 16  1  0  0  0  0
 22 25  1  0  0  0  0
 23 24  1  0  0  0  0
 24 25  2  0  0  0  0
 26 22  2  0  0  0  0
 27 23  2  0  0  0  0
 27 26  1  0  0  0  0
M  END
>  <MODEL>
5

>  <REMARK>
 VINA RESULT:     -10.3      2.319      7.150
  Name = 
  2 active torsions:
  status: ('A' for Active; 'I' for Inactive)
    1  A    between atoms: C_9  and  C_15
    2  A    between atoms: C_14  and  C_17
                            x       y       z     vdW  Elec       q    Type
                         _______ _______ _______ _____ _____    ______ ____

>  <TORSDO>
F 2

$$$$
=
 OpenBabel10272401133D

 27 31  0  0  0  0  0  0  0  0999 V2000
  190.4440  177.1980  143.2730 N   0  0  0  0  0  0  0  0  0  0  0  0
  188.5820  177.7510  141.8360 C   0  0  0  0  0  0  0  0  0  0  0  0
  187.5980  177.8160  144.1560 N   0  0  0  0  0  0  0  0  0  0  0  0
  188.0370  178.0130  140.6290 N   0  0  0  0  0  0  0  0  0  0  0  0
  188.9830  177.1660  148.6020 F   0  0  0  0  0  0  0  0  0  0  0  0
  189.3060  177.1850  147.2870 C   0  0  0  0  0  0  0  0  0  0  0  0
  189.9170  177.4010  142.0380 C   0  0  0  0  0  0  0  0  0  0  0  0
  186.4250  178.2850  142.0810 C   0  0  0  0  0  0  0  0  0  0  0  0
  189.9740  177.2260  144.5480 C   0  0  0  0  0  0  0  0  0  0  0  0
  187.5420  177.9310  142.8160 C   0  0  0  0  0  0  0  0  0  0  0  0
  188.3360  177.4790  146.3330 C   0  0  0  0  0  3  0  0  0  0  0  0
  186.7560  178.3260  140.7740 N   0  0  0  0  0  0  0  0  0  0  0  0
  190.6080  176.9130  146.8860 C   0  0  0  0  0  3  0  0  0  0  0  0
  190.9300  176.9350  145.5310 C   0  0  0  0  0  3  0  0  0  0  0  0
  188.6360  177.5080  144.9640 C   0  0  0  0  0  0  0  0  0  0  0  0
  183.9700  178.5020  141.7160 C   0  0  0  0  0  3  0  0  0  0  0  0
  182.4770  179.1640  143.5020 C   0  0  0  0  0  3  0  0  0  0  0  0
  183.5650  179.2550  144.3750 C   0  0  0  0  0  3  0  0  0  0  0  0
  184.8530  178.9700  143.9170 C   0  0  0  0  0  3  0  0  0  0  0  0
  185.0690  178.5910  142.5830 C   0  0  0  0  0  0  0  0  0  0  0  0
  182.6800  178.7860  142.1720 C   0  0  0  0  0  3  0  0  0  0  0  0
  192.6800  176.9130  138.7750 C   0  0  0  0  0  3  0  0  0  0  0  0
  190.8530  177.2440  140.8890 C   0  0  0  0  0  0  0  0  0  0  0  0
  190.4540  176.6410  139.6830 C   0  0  0  0  0  3  0  0  0  0  0  0
  191.3590  176.4800  138.6320 C   0  0  0  0  0  3  0  0  0  0  0  0
  193.0940  177.5040  139.9710 C   0  0  0  0  0  3  0  0  0  0  0  0
  192.1870  177.6630  141.0210 C   0  0  0  0  0  3  0  0  0  0  0  0
  1  9  1  0  0  0  0
  2  7  1  0  0  0  0
  2 10  1  0  0  0  0
  3 15  1  0  0  0  0
  4 12  1  0  0  0  0
  4  2  2  0  0  0  0
  6  5  1  0  0  0  0
  7  1  2  0  0  0  0
  8 20  1  0  0  0  0
  8 10  1  0  0  0  0
  9 15  2  0  0  0  0
  9 14  1  0  0  0  0
 10  3  2  0  0  0  0
 11  6  2  0  0  0  0
 12  8  2  0  0  0  0
 13  6  1  0  0  0  0
 14 13  2  0  0  0  0
 15 11  1  0  0  0  0
 16 21  2  0  0  0  0
 16 20  1  0  0  0  0
 17 18  2  0  0  0  0
 19 18  1  0  0  0  0
 20 19  2  0  0  0  0
 21 17  1  0  0  0  0
 22 26  1  0  0  0  0
 23 27  1  0  0  0  0
 23  7  1  0  0  0  0
 24 23  2  0  0  0  0
 25 22  2  0  0  0  0
 25 24  1  0  0  0  0
 26 27  2  0  0  0  0
M  END
>  <MODEL>
6

>  <REMARK>
 VINA RESULT:     -10.2      1.161      6.300
  Name = 
  2 active torsions:
  status: ('A' for Active; 'I' for Inactive)
    1  A    between atoms: C_9  and  C_15
    2  A    between atoms: C_14  and  C_17
                            x       y       z     vdW  Elec       q    Type
                         _______ _______ _______ _____ _____    ______ ____

>  <TORSDO>
F 2

$$$$
=
 OpenBabel10272401133D

 27 31  0  0  0  0  0  0  0  0999 V2000
  185.9330  178.5370  139.1230 N   0  0  0  0  0  0  0  0  0  0  0  0
  184.7290  178.6480  141.2150 C   0  0  0  0  0  0  0  0  0  0  0  0
  187.1100  178.2010  141.9090 N   0  0  0  0  0  0  0  0  0  0  0  0
  183.6110  178.8490  141.9440 N   0  0  0  0  0  0  0  0  0  0  0  0
  191.3180  177.5720  139.9040 F   0  0  0  0  0  0  0  0  0  0  0  0
  189.9930  177.8100  139.7500 C   0  0  0  0  0  0  0  0  0  0  0  0
  184.7790  178.6910  139.8210 C   0  0  0  0  0  0  0  0  0  0  0  0
  185.2110  178.4960  143.3920 C   0  0  0  0  0  0  0  0  0  0  0  0
  187.2350  178.3040  139.4350 C   0  0  0  0  0  0  0  0  0  0  0  0
  185.8040  178.4200  142.1450 C   0  0  0  0  0  0  0  0  0  0  0  0
  189.1630  177.8930  140.8650 C   0  0  0  0  0  3  0  0  0  0  0  0
  183.8960  178.7560  143.2370 N   0  0  0  0  0  0  0  0  0  0  0  0
  189.4580  177.9740  138.4790 C   0  0  0  0  0  3  0  0  0  0  0  0
  188.0950  178.2170  138.3300 C   0  0  0  0  0  3  0  0  0  0  0  0
  187.7890  178.1380  140.7410 C   0  0  0  0  0  0  0  0  0  0  0  0
  185.2930  178.9620  145.8390 C   0  0  0  0  0  3  0  0  0  0  0  0
  187.0480  178.0620  147.2410 C   0  0  0  0  0  3  0  0  0  0  0  0
  187.6160  177.4370  146.1270 C   0  0  0  0  0  3  0  0  0  0  0  0
  187.0210  177.5750  144.8710 C   0  0  0  0  0  3  0  0  0  0  0  0
  185.8540  178.3380  144.7140 C   0  0  0  0  0  0  0  0  0  0  0  0
  185.8860  178.8240  147.0970 C   0  0  0  0  0  3  0  0  0  0  0  0
  181.1820  179.3020  137.5380 C   0  0  0  0  0  3  0  0  0  0  0  0
  183.5480  178.9260  139.0160 C   0  0  0  0  0  0  0  0  0  0  0  0
  182.9920  180.2090  138.8630 C   0  0  0  0  0  3  0  0  0  0  0  0
  181.8210  180.3970  138.1270 C   0  0  0  0  0  3  0  0  0  0  0  0
  181.7150  178.0200  137.6910 C   0  0  0  0  0  3  0  0  0  0  0  0
  182.8870  177.8350  138.4280 C   0  0  0  0  0  3  0  0  0  0  0  0
  1  9  2  0  0  0  0
  1  7  1  0  0  0  0
  2  4  1  0  0  0  0
  2 10  1  0  0  0  0
  3 10  1  0  0  0  0
  4 12  2  0  0  0  0
  6  5  1  0  0  0  0
  6 11  2  0  0  0  0
  7  2  2  0  0  0  0
  8 20  1  0  0  0  0
  9 15  1  0  0  0  0
 10  8  2  0  0  0  0
 12  8  1  0  0  0  0
 13  6  1  0  0  0  0
 14 13  2  0  0  0  0
 14  9  1  0  0  0  0
 15 11  1  0  0  0  0
 15  3  2  0  0  0  0
 16 21  1  0  0  0  0
 18 17  1  0  0  0  0
 19 18  2  0  0  0  0
 20 19  1  0  0  0  0
 20 16  2  0  0  0  0
 21 17  2  0  0  0  0
 22 26  2  0  0  0  0
 22 25  1  0  0  0  0
 23  7  1  0  0  0  0
 24 23  1  0  0  0  0
 25 24  2  0  0  0  0
 26 27  1  0  0  0  0
 27 23  2  0  0  0  0
M  END
>  <MODEL>
7

>  <REMARK>
 VINA RESULT:     -10.0      3.374      6.807
  Name = 
  2 active torsions:
  status: ('A' for Active; 'I' for Inactive)
    1  A    between atoms: C_9  and  C_15
    2  A    between atoms: C_14  and  C_17
                            x       y       z     vdW  Elec       q    Type
                         _______ _______ _______ _____ _____    ______ ____

>  <TORSDO>
F 2

$$$$
=
 OpenBabel10272401133D

 27 31  0  0  0  0  0  0  0  0999 V2000
  186.3190  178.4940  139.9980 N   0  0  0  0  0  0  0  0  0  0  0  0
  185.5120  178.4700  142.2750 C   0  0  0  0  0  0  0  0  0  0  0  0
  187.9560  177.8950  142.4920 N   0  0  0  0  0  0  0  0  0  0  0  0
  184.5510  178.6440  143.2070 N   0  0  0  0  0  0  0  0  0  0  0  0
  191.7090  177.3080  139.7200 F   0  0  0  0  0  0  0  0  0  0  0  0
  190.3900  177.5960  139.8260 C   0  0  0  0  0  0  0  0  0  0  0  0
  185.3150  178.6250  140.9020 C   0  0  0  0  0  0  0  0  0  0  0  0
  186.3650  178.1250  144.3120 C   0  0  0  0  0  0  0  0  0  0  0  0
  187.6440  178.1980  140.0510 C   0  0  0  0  0  0  0  0  0  0  0  0
  186.7240  178.1330  142.9760 C   0  0  0  0  0  0  0  0  0  0  0  0
  189.7760  177.6130  141.0750 C   0  0  0  0  0  3  0  0  0  0  0  0
  185.0560  178.4370  144.4160 N   0  0  0  0  0  0  0  0  0  0  0  0
  189.6450  177.8800  138.6880 C   0  0  0  0  0  3  0  0  0  0  0  0
  188.2900  178.1760  138.8060 C   0  0  0  0  0  3  0  0  0  0  0  0
  188.4130  177.9080  141.2200 C   0  0  0  0  0  0  0  0  0  0  0  0
  186.7880  178.1910  146.7670 C   0  0  0  0  0  3  0  0  0  0  0  0
  188.8310  177.3150  147.7240 C   0  0  0  0  0  3  0  0  0  0  0  0
  189.2760  176.9620  146.4470 C   0  0  0  0  0  3  0  0  0  0  0  0
  188.4760  177.2240  145.3320 C   0  0  0  0  0  3  0  0  0  0  0  0
  187.2250  177.8410  145.4800 C   0  0  0  0  0  0  0  0  0  0  0  0
  187.5860  177.9290  147.8840 C   0  0  0  0  0  3  0  0  0  0  0  0
  181.4660  179.5800  139.2310 C   0  0  0  0  0  3  0  0  0  0  0  0
  183.9720  178.9630  140.3520 C   0  0  0  0  0  0  0  0  0  0  0  0
  182.7890  178.4500  140.9120 C   0  0  0  0  0  3  0  0  0  0  0  0
  181.5440  178.7590  140.3590 C   0  0  0  0  0  3  0  0  0  0  0  0
  182.6330  180.0880  138.6560 C   0  0  0  0  0  3  0  0  0  0  0  0
  183.8770  179.7770  139.2120 C   0  0  0  0  0  3  0  0  0  0  0  0
  1  9  2  0  0  0  0
  1  7  1  0  0  0  0
  2 10  1  0  0  0  0
  2  4  1  0  0  0  0
  3 10  1  0  0  0  0
  4 12  2  0  0  0  0
  5  6  1  0  0  0  0
  6 11  2  0  0  0  0
  7  2  2  0  0  0  0
  8 12  1  0  0  0  0
  8 20  1  0  0  0  0
  9 15  1  0  0  0  0
 10  8  2  0  0  0  0
 11 15  1  0  0  0  0
 13 14  2  0  0  0  0
 13  6  1  0  0  0  0
 14  9  1  0  0  0  0
 15  3  2  0  0  0  0
 16 21  1  0  0  0  0
 17 21  2  0  0  0  0
 18 17  1  0  0  0  0
 19 20  1  0  0  0  0
 19 18  2  0  0  0  0
 20 16  2  0  0  0  0
 22 25  1  0  0  0  0
 23  7  1  0  0  0  0
 23 24  1  0  0  0  0
 25 24  2  0  0  0  0
 26 27  1  0  0  0  0
 26 22  2  0  0  0  0
 27 23  2  0  0  0  0
M  END
>  <MODEL>
8

>  <REMARK>
 VINA RESULT:     -10.0      2.725      6.159
  Name = 
  2 active torsions:
  status: ('A' for Active; 'I' for Inactive)
    1  A    between atoms: C_9  and  C_15
    2  A    between atoms: C_14  and  C_17
                            x       y       z     vdW  Elec       q    Type
                         _______ _______ _______ _____ _____    ______ ____

>  <TORSDO>
F 2

$$$$
=
 OpenBabel10272401133D

 27 31  0  0  0  0  0  0  0  0999 V2000
  186.1180  178.1900  144.4000 N   0  0  0  0  0  0  0  0  0  0  0  0
  188.2730  177.8130  143.3760 C   0  0  0  0  0  0  0  0  0  0  0  0
  186.7140  178.1040  141.4170 N   0  0  0  0  0  0  0  0  0  0  0  0
  189.6080  177.6170  143.4310 N   0  0  0  0  0  0  0  0  0  0  0  0
  182.1530  178.9290  140.6230 F   0  0  0  0  0  0  0  0  0  0  0  0
  183.1500  178.7450  141.5210 C   0  0  0  0  0  0  0  0  0  0  0  0
  187.4490  177.9390  144.4940 C   0  0  0  0  0  0  0  0  0  0  0  0
  189.1080  177.7130  141.3050 C   0  0  0  0  0  0  0  0  0  0  0  0
  185.2300  178.3630  143.3860 C   0  0  0  0  0  0  0  0  0  0  0  0
  187.9160  177.8890  141.9830 C   0  0  0  0  0  0  0  0  0  0  0  0
  184.4510  178.5090  141.0830 C   0  0  0  0  0  3  0  0  0  0  0  0
  190.1030  177.5550  142.2020 N   0  0  0  0  0  0  0  0  0  0  0  0
  182.8800  178.7950  142.8830 C   0  0  0  0  0  3  0  0  0  0  0  0
  183.9110  178.6050  143.7980 C   0  0  0  0  0  3  0  0  0  0  0  0
  185.5060  178.3150  141.9850 C   0  0  0  0  0  0  0  0  0  0  0  0
  190.0120  176.6300  139.2510 C   0  0  0  0  0  3  0  0  0  0  0  0
  189.7600  177.6440  137.0680 C   0  0  0  0  0  3  0  0  0  0  0  0
  189.0750  178.7170  137.6470 C   0  0  0  0  0  3  0  0  0  0  0  0
  188.8600  178.7440  139.0270 C   0  0  0  0  0  3  0  0  0  0  0  0
  189.3270  177.7010  139.8430 C   0  0  0  0  0  0  0  0  0  0  0  0
  190.2280  176.6000  137.8700 C   0  0  0  0  0  3  0  0  0  0  0  0
  188.9640  177.5430  148.5030 C   0  0  0  0  0  3  0  0  0  0  0  0
  188.0000  177.8140  145.8730 C   0  0  0  0  0  0  0  0  0  0  0  0
  189.2640  177.2500  146.1200 C   0  0  0  0  0  3  0  0  0  0  0  0
  189.7450  177.1190  147.4250 C   0  0  0  0  0  3  0  0  0  0  0  0
  187.7020  178.0950  148.2740 C   0  0  0  0  0  3  0  0  0  0  0  0
  187.2230  178.2250  146.9680 C   0  0  0  0  0  3  0  0  0  0  0  0
  1  7  1  0  0  0  0
  2  4  1  0  0  0  0
  2  7  2  0  0  0  0
  3 10  1  0  0  0  0
  3 15  2  0  0  0  0
  5  6  1  0  0  0  0
  6 13  1  0  0  0  0
  7 23  1  0  0  0  0
  8 10  2  0  0  0  0
  8 12  1  0  0  0  0
  9 14  1  0  0  0  0
  9  1  2  0  0  0  0
 10  2  1  0  0  0  0
 11  6  2  0  0  0  0
 11 15  1  0  0  0  0
 12  4  2  0  0  0  0
 13 14  2  0  0  0  0
 15  9  1  0  0  0  0
 16 20  1  0  0  0  0
 17 18  2  0  0  0  0
 17 21  1  0  0  0  0
 18 19  1  0  0  0  0
 19 20  2  0  0  0  0
 20  8  1  0  0  0  0
 21 16  2  0  0  0  0
 23 24  2  0  0  0  0
 23 27  1  0  0  0  0
 24 25  1  0  0  0  0
 25 22  2  0  0  0  0
 26 22  1  0  0  0  0
 27 26  2  0  0  0  0
M  END
>  <MODEL>
9

>  <REMARK>
 VINA RESULT:      -9.9      2.938      5.437
  Name = 
  2 active torsions:
  status: ('A' for Active; 'I' for Inactive)
    1  A    between atoms: C_9  and  C_15
    2  A    between atoms: C_14  and  C_17
                            x       y       z     vdW  Elec       q    Type
                         _______ _______ _______ _____ _____    ______ ____

>  <TORSDO>
F 2

$$$$
