=
 OpenBabel10272401063D

 27 28  0  0  1  0  0  0  0  0999 V2000
  186.9430  177.9530  143.4910 C   0  0  1  0  0  3  0  0  0  0  0  0
  187.0200  178.2090  147.7860 C   0  0  0  0  0  3  0  0  0  0  0  0
  186.9950  178.0460  144.9890 C   0  0  0  0  0  0  0  0  0  0  0  0
  188.0520  177.4850  145.7210 C   0  0  0  0  0  3  0  0  0  0  0  0
  188.0640  177.5670  147.1160 C   0  0  0  0  0  3  0  0  0  0  0  0
  185.9630  178.7690  147.0620 C   0  0  0  0  0  3  0  0  0  0  0  0
  185.9510  178.6860  145.6670 C   0  0  0  0  0  3  0  0  0  0  0  0
  187.9630  177.0660  142.9240 N   0  0  0  0  0  0  0  0  0  0  0  0
  187.9770  175.7080  143.2750 N   0  0  0  0  0  1  0  0  0  0  0  0
  188.3670  178.7560  139.8740 O   0  0  0  0  0  0  0  0  0  0  0  0
  188.9850  177.5780  142.0510 C   0  0  0  0  0  0  0  0  0  0  0  0
  188.6680  178.1850  140.9300 C   0  0  0  0  0  0  0  0  0  0  0  0
  191.4510  175.6330  143.8170 C   0  0  0  0  0  3  0  0  0  0  0  0
  191.7480  177.1010  145.7810 C   0  0  0  0  0  2  0  0  0  0  0  0
  190.6970  177.9180  143.7610 N   0  0  0  0  0  0  0  0  0  0  0  0
  190.6520  179.3290  144.1100 C   0  0  0  0  0  1  0  0  0  0  0  0
  191.2910  176.9050  144.5510 C   0  0  0  0  0  0  0  0  0  0  0  0
  190.4350  177.4110  142.4260 C   0  0  1  0  0  3  0  0  0  0  0  0
  190.8430  175.9290  142.4420 C   0  0  0  0  0  3  0  0  0  0  0  0
  185.5570  177.7990  142.8320 C   0  0  0  0  0  2  0  0  0  0  0  0
  184.8380  179.0700  142.3570 C   0  0  2  0  0  3  0  0  0  0  0  0
  183.3250  178.8840  142.3320 C   0  0  0  0  0  2  0  0  0  0  0  0
  181.2220  178.8210  143.6710 C   0  0  0  0  0  1  0  0  0  0  0  0
  182.7330  178.9450  143.7300 C   0  0  0  0  0  2  0  0  0  0  0  0
  185.3380  179.5280  141.0700 N   0  0  0  0  0  2  0  0  0  0  0  0
  184.3570  180.1340  139.0530 O   0  0  0  0  0  1  0  0  0  0  0  0
  184.3320  179.1900  140.0770 C   0  0  0  0  0  2  0  0  0  0  0  0
  1 20  1  1  0  0  0
  1  3  1  0  0  0  0
  3  7  2  0  0  0  0
  3  4  1  0  0  0  0
  4  5  2  0  0  0  0
  5  2  1  0  0  0  0
  6  2  2  0  0  0  0
  7  6  1  0  0  0  0
  8  9  1  0  0  0  0
  8  1  1  0  0  0  0
 10 12  2  0  0  0  0
 11  8  1  0  0  0  0
 12 11  2  0  0  0  0
 13 17  1  0  0  0  0
 15 16  1  0  0  0  0
 15 17  1  0  0  0  0
 17 14  2  0  0  0  0
 18 11  1  1  0  0  0
 18 19  1  0  0  0  0
 18 15  1  0  0  0  0
 19 13  2  0  0  0  0
 21 22  1  6  0  0  0
 21 20  1  0  0  0  0
 22 24  1  0  0  0  0
 23 24  1  0  0  0  0
 25 21  1  0  0  0  0
 26 27  1  0  0  0  0
 27 25  1  0  0  0  0
M  END
>  <MODEL>
1

>  <REMARK>
 VINA RESULT:      -8.0      0.000      0.000
  Name = 
  10 active torsions:
  status: ('A' for Active; 'I' for Inactive)
    1  A    between atoms: C_1  and  C_15
    2  A    between atoms: C_1  and  C_18
    3  A    between atoms: N_2  and  C_14
    4  A    between atoms: N_2  and  C_15
    5  A    between atoms: C_9  and  C_15
    6  A    between atoms: C_14  and  C_17
    7  A    between atoms: C_18  and  C_24
    8  A    between atoms: C_18  and  N_26
    9  A    between atoms: C_20  and  N_26
   10  A    between atoms: C_22  and  C_24
                            x       y       z     vdW  Elec       q    Type
                         _______ _______ _______ _____ _____    ______ ____

>  <TORSDO>
F 10

$$$$
=
 OpenBabel10272401063D

 27 28  0  0  1  0  0  0  0  0999 V2000
  187.6910  177.8180  143.7880 C   0  0  1  0  0  3  0  0  0  0  0  0
  188.1180  177.5230  148.0600 C   0  0  0  0  0  3  0  0  0  0  0  0
  187.8650  177.7210  145.2770 C   0  0  0  0  0  0  0  0  0  0  0  0
  189.0000  177.1200  145.8430 C   0  0  0  0  0  3  0  0  0  0  0  0
  189.1250  177.0230  147.2320 C   0  0  0  0  0  3  0  0  0  0  0  0
  186.9850  178.1220  147.5010 C   0  0  0  0  0  3  0  0  0  0  0  0
  186.8590  178.2190  146.1130 C   0  0  0  0  0  3  0  0  0  0  0  0
  188.7630  177.1660  143.0300 N   0  0  0  0  0  0  0  0  0  0  0  0
  188.7490  175.7740  142.8600 N   0  0  0  0  0  1  0  0  0  0  0  0
  191.7090  178.7930  144.0310 O   0  0  0  0  0  0  0  0  0  0  0  0
  189.8620  177.9290  142.4980 C   0  0  0  0  0  0  0  0  0  0  0  0
  190.8130  178.3740  143.2870 C   0  0  0  0  0  0  0  0  0  0  0  0
  188.7770  177.0130  139.1870 C   0  0  0  0  0  3  0  0  0  0  0  0
  190.8380  175.8930  138.4140 C   0  0  0  0  0  2  0  0  0  0  0  0
  190.8590  177.3520  140.3430 N   0  0  0  0  0  0  0  0  0  0  0  0
  192.3000  177.4290  140.5270 C   0  0  0  0  0  1  0  0  0  0  0  0
  190.2100  176.6720  139.2860 C   0  0  0  0  0  0  0  0  0  0  0  0
  189.9160  178.2230  141.0210 C   0  0  1  0  0  3  0  0  0  0  0  0
  188.5530  177.9830  140.3510 C   0  0  0  0  0  3  0  0  0  0  0  0
  186.2840  177.5580  143.2140 C   0  0  0  0  0  2  0  0  0  0  0  0
  185.3970  178.7710  142.8980 C   0  0  2  0  0  3  0  0  0  0  0  0
  183.9200  178.3940  142.8690 C   0  0  0  0  0  2  0  0  0  0  0  0
  183.5360  178.9310  145.2740 C   0  0  0  0  0  1  0  0  0  0  0  0
  183.1130  179.2300  143.8480 C   0  0  0  0  0  2  0  0  0  0  0  0
  185.8010  179.4320  141.6670 N   0  0  0  0  0  2  0  0  0  0  0  0
  184.7320  179.9060  139.6580 O   0  0  0  0  0  1  0  0  0  0  0  0
  184.9580  178.9090  140.6050 C   0  0  0  0  0  2  0  0  0  0  0  0
  1 20  1  1  0  0  0
  1  3  1  0  0  0  0
  3  4  2  0  0  0  0
  3  7  1  0  0  0  0
  4  5  1  0  0  0  0
  5  2  2  0  0  0  0
  6  2  1  0  0  0  0
  7  6  2  0  0  0  0
  8  1  1  0  0  0  0
  9  8  1  0  0  0  0
 11  8  1  0  0  0  0
 11 12  2  0  0  0  0
 12 10  2  0  0  0  0
 13 17  1  0  0  0  0
 13 19  2  0  0  0  0
 14 17  2  0  0  0  0
 15 16  1  0  0  0  0
 15 18  1  0  0  0  0
 17 15  1  0  0  0  0
 18 11  1  1  0  0  0
 19 18  1  0  0  0  0
 21 22  1  6  0  0  0
 21 20  1  0  0  0  0
 22 24  1  0  0  0  0
 24 23  1  0  0  0  0
 25 21  1  0  0  0  0
 26 27  1  0  0  0  0
 27 25  1  0  0  0  0
M  END
>  <MODEL>
2

>  <REMARK>
 VINA RESULT:      -7.8      1.868      2.894
  Name = 
  10 active torsions:
  status: ('A' for Active; 'I' for Inactive)
    1  A    between atoms: C_1  and  C_15
    2  A    between atoms: C_1  and  C_18
    3  A    between atoms: N_2  and  C_14
    4  A    between atoms: N_2  and  C_15
    5  A    between atoms: C_9  and  C_15
    6  A    between atoms: C_14  and  C_17
    7  A    between atoms: C_18  and  C_24
    8  A    between atoms: C_18  and  N_26
    9  A    between atoms: C_20  and  N_26
   10  A    between atoms: C_22  and  C_24
                            x       y       z     vdW  Elec       q    Type
                         _______ _______ _______ _____ _____    ______ ____

>  <TORSDO>
F 10

$$$$
=
 OpenBabel10272401063D

 27 28  0  0  1  0  0  0  0  0999 V2000
  188.3030  177.7260  143.9640 C   0  0  1  0  0  3  0  0  0  0  0  0
  184.2210  178.6450  144.9710 C   0  0  0  0  0  3  0  0  0  0  0  0
  186.8700  178.0280  144.2990 C   0  0  0  0  0  0  0  0  0  0  0  0
  185.8700  178.0170  143.3160 C   0  0  0  0  0  3  0  0  0  0  0  0
  184.5490  178.3240  143.6510 C   0  0  0  0  0  3  0  0  0  0  0  0
  185.2140  178.6590  145.9550 C   0  0  0  0  0  3  0  0  0  0  0  0
  186.5350  178.3520  145.6190 C   0  0  0  0  0  3  0  0  0  0  0  0
  188.6700  178.0820  142.5910 N   0  0  0  0  0  0  0  0  0  0  0  0
  188.1330  179.2370  142.0040 N   0  0  0  0  0  1  0  0  0  0  0  0
  190.4800  175.0820  142.8020 O   0  0  0  0  0  0  0  0  0  0  0  0
  189.5350  177.2350  141.8130 C   0  0  0  0  0  0  0  0  0  0  0  0
  190.0220  176.1260  142.3220 C   0  0  0  0  0  0  0  0  0  0  0  0
  189.6300  176.2870  138.3380 C   0  0  0  0  0  3  0  0  0  0  0  0
  192.0430  175.7940  138.1510 C   0  0  0  0  0  2  0  0  0  0  0  0
  191.1730  177.0790  140.0060 N   0  0  0  0  0  0  0  0  0  0  0  0
  192.4420  177.5160  140.5670 C   0  0  0  0  0  1  0  0  0  0  0  0
  191.0260  176.3240  138.8190 C   0  0  0  0  0  0  0  0  0  0  0  0
  189.8890  177.6290  140.4020 C   0  0  1  0  0  3  0  0  0  0  0  0
  188.8610  177.0870  139.3950 C   0  0  0  0  0  3  0  0  0  0  0  0
  189.3750  178.1010  145.0060 C   0  0  0  0  0  2  0  0  0  0  0  0
  190.0180  176.9680  145.8210 C   0  0  2  0  0  3  0  0  0  0  0  0
  189.2930  176.7480  147.1440 C   0  0  0  0  0  2  0  0  0  0  0  0
  188.0710  178.0160  148.9100 C   0  0  0  0  0  1  0  0  0  0  0  0
  189.2770  178.0110  147.9880 C   0  0  0  0  0  2  0  0  0  0  0  0
  191.4410  177.1870  146.0250 N   0  0  0  0  0  2  0  0  0  0  0  0
  192.6100  176.2370  147.7950 O   0  0  0  0  0  1  0  0  0  0  0  0
  191.9860  175.9600  146.5810 C   0  0  0  0  0  2  0  0  0  0  0  0
  1  3  1  0  0  0  0
  1 20  1  1  0  0  0
  2  6  1  0  0  0  0
  3  7  1  0  0  0  0
  4  5  1  0  0  0  0
  4  3  2  0  0  0  0
  5  2  2  0  0  0  0
  7  6  2  0  0  0  0
  8  1  1  0  0  0  0
  9  8  1  0  0  0  0
 11 12  2  0  0  0  0
 11  8  1  0  0  0  0
 12 10  2  0  0  0  0
 13 17  1  0  0  0  0
 13 19  2  0  0  0  0
 14 17  2  0  0  0  0
 15 18  1  0  0  0  0
 15 16  1  0  0  0  0
 17 15  1  0  0  0  0
 18 11  1  1  0  0  0
 19 18  1  0  0  0  0
 21 20  1  1  0  0  0
 21 25  1  0  0  0  0
 21 22  1  0  0  0  0
 22 24  1  0  0  0  0
 24 23  1  0  0  0  0
 25 27  1  0  0  0  0
 27 26  1  0  0  0  0
M  END
>  <MODEL>
3

>  <REMARK>
 VINA RESULT:      -7.6      2.887      5.737
  Name = 
  10 active torsions:
  status: ('A' for Active; 'I' for Inactive)
    1  A    between atoms: C_1  and  C_15
    2  A    between atoms: C_1  and  C_18
    3  A    between atoms: N_2  and  C_14
    4  A    between atoms: N_2  and  C_15
    5  A    between atoms: C_9  and  C_15
    6  A    between atoms: C_14  and  C_17
    7  A    between atoms: C_18  and  C_24
    8  A    between atoms: C_18  and  N_26
    9  A    between atoms: C_20  and  N_26
   10  A    between atoms: C_22  and  C_24
                            x       y       z     vdW  Elec       q    Type
                         _______ _______ _______ _____ _____    ______ ____

>  <TORSDO>
F 10

$$$$
=
 OpenBabel10272401063D

 27 28  0  0  1  0  0  0  0  0999 V2000
  188.4280  177.1600  144.6000 C   0  0  1  0  0  3  0  0  0  0  0  0
  184.4820  178.8750  144.5360 C   0  0  0  0  0  3  0  0  0  0  0  0
  187.0430  177.7390  144.5640 C   0  0  0  0  0  0  0  0  0  0  0  0
  186.2580  177.6860  143.4020 C   0  0  0  0  0  3  0  0  0  0  0  0
  184.9800  178.2530  143.3890 C   0  0  0  0  0  3  0  0  0  0  0  0
  185.2600  178.9310  145.6970 C   0  0  0  0  0  3  0  0  0  0  0  0
  186.5380  178.3650  145.7090 C   0  0  0  0  0  3  0  0  0  0  0  0
  189.0150  176.9630  143.2710 N   0  0  0  0  0  0  0  0  0  0  0  0
  188.7810  175.7670  142.5770 N   0  0  0  0  0  1  0  0  0  0  0  0
  191.9550  178.7690  143.9170 O   0  0  0  0  0  0  0  0  0  0  0  0
  189.8730  177.9600  142.6860 C   0  0  0  0  0  0  0  0  0  0  0  0
  190.9450  178.3770  143.3200 C   0  0  0  0  0  0  0  0  0  0  0  0
  187.5310  178.0780  139.9510 C   0  0  0  0  0  3  0  0  0  0  0  0
  188.7510  176.6440  138.3520 C   0  0  0  0  0  2  0  0  0  0  0  0
  189.8690  177.6080  140.2680 N   0  0  0  0  0  0  0  0  0  0  0  0
  191.2350  177.2630  139.9040 C   0  0  0  0  0  1  0  0  0  0  0  0
  188.7290  177.3590  139.4690 C   0  0  0  0  0  0  0  0  0  0  0  0
  189.5320  178.5330  141.3350 C   0  0  1  0  0  3  0  0  0  0  0  0
  188.0250  178.8060  141.2050 C   0  0  0  0  0  3  0  0  0  0  0  0
  189.4180  177.7380  145.6310 C   0  0  0  0  0  2  0  0  0  0  0  0
  190.1270  176.7600  146.5790 C   0  0  2  0  0  3  0  0  0  0  0  0
  189.5180  176.7920  147.9770 C   0  0  0  0  0  2  0  0  0  0  0  0
  187.6970  178.1480  149.0080 C   0  0  0  0  0  1  0  0  0  0  0  0
  189.0660  178.1920  148.3560 C   0  0  0  0  0  2  0  0  0  0  0  0
  191.5630  176.9870  146.6200 N   0  0  0  0  0  2  0  0  0  0  0  0
  192.9400  176.0240  148.2240 O   0  0  0  0  0  1  0  0  0  0  0  0
  192.1770  175.7570  147.0900 C   0  0  0  0  0  2  0  0  0  0  0  0
  1 20  1  1  0  0  0
  2  6  1  0  0  0  0
  3  1  1  0  0  0  0
  3  7  1  0  0  0  0
  4  3  2  0  0  0  0
  5  4  1  0  0  0  0
  5  2  2  0  0  0  0
  6  7  2  0  0  0  0
  8  1  1  0  0  0  0
  9  8  1  0  0  0  0
 11  8  1  0  0  0  0
 11 12  2  0  0  0  0
 12 10  2  0  0  0  0
 13 19  2  0  0  0  0
 14 17  2  0  0  0  0
 15 18  1  0  0  0  0
 16 15  1  0  0  0  0
 17 13  1  0  0  0  0
 17 15  1  0  0  0  0
 18 11  1  1  0  0  0
 19 18  1  0  0  0  0
 21 20  1  6  0  0  0
 21 25  1  0  0  0  0
 21 22  1  0  0  0  0
 22 24  1  0  0  0  0
 24 23  1  0  0  0  0
 25 27  1  0  0  0  0
 27 26  1  0  0  0  0
M  END
>  <MODEL>
4

>  <REMARK>
 VINA RESULT:      -7.1      2.802      5.916
  Name = 
  10 active torsions:
  status: ('A' for Active; 'I' for Inactive)
    1  A    between atoms: C_1  and  C_15
    2  A    between atoms: C_1  and  C_18
    3  A    between atoms: N_2  and  C_14
    4  A    between atoms: N_2  and  C_15
    5  A    between atoms: C_9  and  C_15
    6  A    between atoms: C_14  and  C_17
    7  A    between atoms: C_18  and  C_24
    8  A    between atoms: C_18  and  N_26
    9  A    between atoms: C_20  and  N_26
   10  A    between atoms: C_22  and  C_24
                            x       y       z     vdW  Elec       q    Type
                         _______ _______ _______ _____ _____    ______ ____

>  <TORSDO>
F 10

$$$$
=
 OpenBabel10272401063D

 27 28  0  0  1  0  0  0  0  0999 V2000
  187.6930  178.0260  142.4630 C   0  0  1  0  0  3  0  0  0  0  0  0
  183.6880  178.7430  143.8630 C   0  0  0  0  0  3  0  0  0  0  0  0
  186.3050  178.2920  142.9700 C   0  0  0  0  0  0  0  0  0  0  0  0
  186.0270  178.3520  144.3440 C   0  0  0  0  0  3  0  0  0  0  0  0
  184.7210  178.5780  144.7880 C   0  0  0  0  0  3  0  0  0  0  0  0
  183.9590  178.6820  142.4930 C   0  0  0  0  0  3  0  0  0  0  0  0
  185.2640  178.4560  142.0480 C   0  0  0  0  0  3  0  0  0  0  0  0
  188.4410  177.0640  143.2780 N   0  0  0  0  0  0  0  0  0  0  0  0
  188.2600  175.6890  143.0730 N   0  0  0  0  0  1  0  0  0  0  0  0
  190.8050  179.5580  143.9950 O   0  0  0  0  0  0  0  0  0  0  0  0
  189.3210  177.5100  144.3260 C   0  0  0  0  0  0  0  0  0  0  0  0
  190.0860  178.5650  144.1560 C   0  0  0  0  0  0  0  0  0  0  0  0
  189.5360  177.6790  147.9180 C   0  0  0  0  0  3  0  0  0  0  0  0
  191.9120  177.0580  148.1800 C   0  0  0  0  0  2  0  0  0  0  0  0
  190.7300  176.6240  146.1150 N   0  0  0  0  0  0  0  0  0  0  0  0
  191.7400  175.8000  145.4690 C   0  0  0  0  0  1  0  0  0  0  0  0
  190.8220  177.1400  147.4290 C   0  0  0  0  0  0  0  0  0  0  0  0
  189.3680  176.7540  145.6280 C   0  0  1  0  0  3  0  0  0  0  0  0
  188.5870  177.4870  146.7310 C   0  0  0  0  0  3  0  0  0  0  0  0
  187.8730  177.8180  140.9460 C   0  0  0  0  0  2  0  0  0  0  0  0
  189.2600  178.0790  140.3400 C   0  0  2  0  0  3  0  0  0  0  0  0
  189.1640  178.4910  138.8750 C   0  0  0  0  0  2  0  0  0  0  0  0
  187.6880  178.6560  136.8720 C   0  0  0  0  0  1  0  0  0  0  0  0
  187.8390  178.0690  138.2630 C   0  0  0  0  0  2  0  0  0  0  0  0
  190.1510  176.9430  140.5150 N   0  0  0  0  0  2  0  0  0  0  0  0
  190.8930  175.5540  138.8060 O   0  0  0  0  0  1  0  0  0  0  0  0
  190.9640  176.8490  139.3150 C   0  0  0  0  0  2  0  0  0  0  0  0
  1 20  1  6  0  0  0
  1  3  1  0  0  0  0
  1  8  1  0  0  0  0
  2  5  1  0  0  0  0
  3  4  1  0  0  0  0
  4  5  2  0  0  0  0
  6  2  2  0  0  0  0
  7  6  1  0  0  0  0
  7  3  2  0  0  0  0
  8 11  1  0  0  0  0
  9  8  1  0  0  0  0
 10 12  2  0  0  0  0
 12 11  2  0  0  0  0
 15 17  1  0  0  0  0
 16 15  1  0  0  0  0
 17 13  1  0  0  0  0
 17 14  2  0  0  0  0
 18 11  1  6  0  0  0
 18 15  1  0  0  0  0
 18 19  1  0  0  0  0
 19 13  2  0  0  0  0
 21 22  1  6  0  0  0
 21 25  1  0  0  0  0
 21 20  1  0  0  0  0
 23 24  1  0  0  0  0
 24 22  1  0  0  0  0
 26 27  1  0  0  0  0
 27 25  1  0  0  0  0
M  END
>  <MODEL>
5

>  <REMARK>
 VINA RESULT:      -7.1      2.457      4.737
  Name = 
  10 active torsions:
  status: ('A' for Active; 'I' for Inactive)
    1  A    between atoms: C_1  and  C_15
    2  A    between atoms: C_1  and  C_18
    3  A    between atoms: N_2  and  C_14
    4  A    between atoms: N_2  and  C_15
    5  A    between atoms: C_9  and  C_15
    6  A    between atoms: C_14  and  C_17
    7  A    between atoms: C_18  and  C_24
    8  A    between atoms: C_18  and  N_26
    9  A    between atoms: C_20  and  N_26
   10  A    between atoms: C_22  and  C_24
                            x       y       z     vdW  Elec       q    Type
                         _______ _______ _______ _____ _____    ______ ____

>  <TORSDO>
F 10

$$$$
=
 OpenBabel10272401063D

 27 28  0  0  1  0  0  0  0  0999 V2000
  188.0060  178.3940  142.1750 C   0  0  1  0  0  3  0  0  0  0  0  0
  183.7350  178.5980  141.6920 C   0  0  0  0  0  3  0  0  0  0  0  0
  186.5140  178.4760  142.0290 C   0  0  0  0  0  0  0  0  0  0  0  0
  185.6580  178.2420  143.1160 C   0  0  0  0  0  3  0  0  0  0  0  0
  184.2720  178.3030  142.9470 C   0  0  0  0  0  3  0  0  0  0  0  0
  184.5830  178.8310  140.6050 C   0  0  0  0  0  3  0  0  0  0  0  0
  185.9680  178.7690  140.7730 C   0  0  0  0  0  3  0  0  0  0  0  0
  188.4460  177.3600  143.1170 N   0  0  0  0  0  0  0  0  0  0  0  0
  188.1470  176.0140  142.8620 N   0  0  0  0  0  1  0  0  0  0  0  0
  191.0830  179.3590  144.2890 O   0  0  0  0  0  0  0  0  0  0  0  0
  189.1370  177.7110  144.3290 C   0  0  0  0  0  0  0  0  0  0  0  0
  190.1390  178.5600  144.3090 C   0  0  0  0  0  0  0  0  0  0  0  0
  187.5660  178.1920  147.5360 C   0  0  0  0  0  3  0  0  0  0  0  0
  189.5960  178.2540  148.9410 C   0  0  0  0  0  2  0  0  0  0  0  0
  189.6640  177.3690  146.6910 N   0  0  0  0  0  0  0  0  0  0  0  0
  191.0030  176.8030  146.7330 C   0  0  0  0  0  1  0  0  0  0  0  0
  189.0080  177.9850  147.7830 C   0  0  0  0  0  0  0  0  0  0  0  0
  188.7070  177.0920  145.6340 C   0  0  1  0  0  3  0  0  0  0  0  0
  187.3630  177.6660  146.1110 C   0  0  0  0  0  3  0  0  0  0  0  0
  188.8550  178.4580  140.8890 C   0  0  0  0  0  2  0  0  0  0  0  0
  188.9270  177.2010  140.0080 C   0  0  2  0  0  3  0  0  0  0  0  0
  190.3290  176.6030  139.9970 C   0  0  0  0  0  2  0  0  0  0  0  0
  192.6430  177.5070  140.2160 C   0  0  0  0  0  1  0  0  0  0  0  0
  191.2810  177.3970  140.8760 C   0  0  0  0  0  2  0  0  0  0  0  0
  188.4480  177.4570  138.6580 N   0  0  0  0  0  2  0  0  0  0  0  0
  188.2750  179.2870  137.2370 O   0  0  0  0  0  1  0  0  0  0  0  0
  189.0740  178.6880  138.2090 C   0  0  0  0  0  2  0  0  0  0  0  0
  1 20  1  6  0  0  0
  1  8  1  0  0  0  0
  2  5  1  0  0  0  0
  3  1  1  0  0  0  0
  3  4  1  0  0  0  0
  5  4  2  0  0  0  0
  6  7  1  0  0  0  0
  6  2  2  0  0  0  0
  7  3  2  0  0  0  0
  8 11  1  0  0  0  0
  9  8  1  0  0  0  0
 10 12  2  0  0  0  0
 12 11  2  0  0  0  0
 13 17  1  0  0  0  0
 15 16  1  0  0  0  0
 15 17  1  0  0  0  0
 17 14  2  0  0  0  0
 18 11  1  6  0  0  0
 18 19  1  0  0  0  0
 18 15  1  0  0  0  0
 19 13  2  0  0  0  0
 21 22  1  6  0  0  0
 21 20  1  0  0  0  0
 22 24  1  0  0  0  0
 23 24  1  0  0  0  0
 25 21  1  0  0  0  0
 26 27  1  0  0  0  0
 27 25  1  0  0  0  0
M  END
>  <MODEL>
6

>  <REMARK>
 VINA RESULT:      -7.0      2.082      5.261
  Name = 
  10 active torsions:
  status: ('A' for Active; 'I' for Inactive)
    1  A    between atoms: C_1  and  C_15
    2  A    between atoms: C_1  and  C_18
    3  A    between atoms: N_2  and  C_14
    4  A    between atoms: N_2  and  C_15
    5  A    between atoms: C_9  and  C_15
    6  A    between atoms: C_14  and  C_17
    7  A    between atoms: C_18  and  C_24
    8  A    between atoms: C_18  and  N_26
    9  A    between atoms: C_20  and  N_26
   10  A    between atoms: C_22  and  C_24
                            x       y       z     vdW  Elec       q    Type
                         _______ _______ _______ _____ _____    ______ ____

>  <TORSDO>
F 10

$$$$
=
 OpenBabel10272401063D

 27 28  0  0  1  0  0  0  0  0999 V2000
  187.4150  177.9130  143.9110 C   0  0  1  0  0  3  0  0  0  0  0  0
  188.3130  177.8130  148.1180 C   0  0  0  0  0  3  0  0  0  0  0  0
  187.7500  177.8900  145.3750 C   0  0  0  0  0  0  0  0  0  0  0  0
  189.0580  177.6500  145.8220 C   0  0  0  0  0  3  0  0  0  0  0  0
  189.3380  177.6120  147.1910 C   0  0  0  0  0  3  0  0  0  0  0  0
  187.0070  178.0520  147.6780 C   0  0  0  0  0  3  0  0  0  0  0  0
  186.7270  178.0890  146.3090 C   0  0  0  0  0  3  0  0  0  0  0  0
  188.1780  176.9420  143.1210 N   0  0  0  0  0  0  0  0  0  0  0  0
  187.9340  175.5700  143.2800 N   0  0  0  0  0  1  0  0  0  0  0  0
  191.0510  178.9560  143.0070 O   0  0  0  0  0  0  0  0  0  0  0  0
  189.2130  177.3730  142.2190 C   0  0  0  0  0  0  0  0  0  0  0  0
  190.1600  178.1880  142.6240 C   0  0  0  0  0  0  0  0  0  0  0  0
  190.8270  177.4120  138.9980 C   0  0  0  0  0  3  0  0  0  0  0  0
  189.2970  178.9600  137.8310 C   0  0  0  0  0  2  0  0  0  0  0  0
  188.6460  177.8840  139.8970 N   0  0  0  0  0  0  0  0  0  0  0  0
  187.2420  178.2670  139.8940 C   0  0  0  0  0  1  0  0  0  0  0  0
  189.5680  178.1730  138.8640 C   0  0  0  0  0  0  0  0  0  0  0  0
  189.2050  176.8870  140.7920 C   0  0  1  0  0  3  0  0  0  0  0  0
  190.6300  176.6080  140.2870 C   0  0  0  0  0  3  0  0  0  0  0  0
  185.9260  177.9910  143.5200 C   0  0  0  0  0  2  0  0  0  0  0  0
  185.3600  179.3560  143.0990 C   0  0  2  0  0  3  0  0  0  0  0  0
  184.4520  179.9430  144.1740 C   0  0  0  0  0  2  0  0  0  0  0  0
  182.2170  178.8370  144.2520 C   0  0  0  0  0  1  0  0  0  0  0  0
  183.6140  178.8660  144.8440 C   0  0  0  0  0  2  0  0  0  0  0  0
  184.6870  179.2910  141.8110 N   0  0  0  0  0  2  0  0  0  0  0  0
  183.3030  177.8430  140.6330 O   0  0  0  0  0  1  0  0  0  0  0  0
  184.3070  177.9050  141.5980 C   0  0  0  0  0  2  0  0  0  0  0  0
  1 20  1  1  0  0  0
  1  3  1  0  0  0  0
  3  4  2  0  0  0  0
  3  7  1  0  0  0  0
  4  5  1  0  0  0  0
  5  2  2  0  0  0  0
  6  2  1  0  0  0  0
  7  6  2  0  0  0  0
  8  9  1  0  0  0  0
  8  1  1  0  0  0  0
 11 12  2  0  0  0  0
 11  8  1  0  0  0  0
 12 10  2  0  0  0  0
 13 19  2  0  0  0  0
 14 17  2  0  0  0  0
 15 18  1  0  0  0  0
 16 15  1  0  0  0  0
 17 13  1  0  0  0  0
 17 15  1  0  0  0  0
 18 11  1  1  0  0  0
 19 18  1  0  0  0  0
 21 20  1  1  0  0  0
 21 22  1  0  0  0  0
 22 24  1  0  0  0  0
 23 24  1  0  0  0  0
 25 21  1  0  0  0  0
 26 27  1  0  0  0  0
 27 25  1  0  0  0  0
M  END
>  <MODEL>
7

>  <REMARK>
 VINA RESULT:      -6.9      1.822      3.053
  Name = 
  10 active torsions:
  status: ('A' for Active; 'I' for Inactive)
    1  A    between atoms: C_1  and  C_15
    2  A    between atoms: C_1  and  C_18
    3  A    between atoms: N_2  and  C_14
    4  A    between atoms: N_2  and  C_15
    5  A    between atoms: C_9  and  C_15
    6  A    between atoms: C_14  and  C_17
    7  A    between atoms: C_18  and  C_24
    8  A    between atoms: C_18  and  N_26
    9  A    between atoms: C_20  and  N_26
   10  A    between atoms: C_22  and  C_24
                            x       y       z     vdW  Elec       q    Type
                         _______ _______ _______ _____ _____    ______ ____

>  <TORSDO>
F 10

$$$$
=
 OpenBabel10272401063D

 27 28  0  0  1  0  0  0  0  0999 V2000
  188.0080  177.3390  144.8570 C   0  0  1  0  0  3  0  0  0  0  0  0
  184.0080  178.8540  144.3800 C   0  0  0  0  0  3  0  0  0  0  0  0
  186.6080  177.8490  144.6730 C   0  0  0  0  0  0  0  0  0  0  0  0
  186.0130  177.9130  143.4040 C   0  0  0  0  0  3  0  0  0  0  0  0
  184.7160  178.4140  143.2590 C   0  0  0  0  0  3  0  0  0  0  0  0
  184.5970  178.7940  145.6470 C   0  0  0  0  0  3  0  0  0  0  0  0
  185.8940  178.2940  145.7920 C   0  0  0  0  0  3  0  0  0  0  0  0
  188.6680  176.9760  143.5990 N   0  0  0  0  0  0  0  0  0  0  0  0
  188.3290  175.7770  142.9560 N   0  0  0  0  0  1  0  0  0  0  0  0
  191.8870  178.1940  144.2940 O   0  0  0  0  0  0  0  0  0  0  0  0
  189.7000  177.8080  143.0390 C   0  0  0  0  0  0  0  0  0  0  0  0
  190.8270  178.0070  143.6850 C   0  0  0  0  0  0  0  0  0  0  0  0
  187.6260  178.0790  140.1050 C   0  0  0  0  0  3  0  0  0  0  0  0
  189.0100  176.7550  138.5450 C   0  0  0  0  0  2  0  0  0  0  0  0
  189.9300  177.6060  140.6140 N   0  0  0  0  0  0  0  0  0  0  0  0
  191.3280  177.2940  140.3610 C   0  0  0  0  0  1  0  0  0  0  0  0
  188.8730  177.3990  139.6970 C   0  0  0  0  0  0  0  0  0  0  0  0
  189.4810  178.4610  141.6990 C   0  0  1  0  0  3  0  0  0  0  0  0
  187.9890  178.7310  141.4430 C   0  0  0  0  0  3  0  0  0  0  0  0
  188.9240  178.1000  145.8360 C   0  0  0  0  0  2  0  0  0  0  0  0
  189.3710  177.3780  147.1160 C   0  0  2  0  0  3  0  0  0  0  0  0
  190.4350  176.3250  146.8240 C   0  0  0  0  0  2  0  0  0  0  0  0
  192.5870  175.4150  147.6950 C   0  0  0  0  0  1  0  0  0  0  0  0
  191.7560  176.6680  147.4910 C   0  0  0  0  0  2  0  0  0  0  0  0
  188.2450  176.8080  147.8400 N   0  0  0  0  0  2  0  0  0  0  0  0
  188.9910  178.4140  149.3440 O   0  0  0  0  0  1  0  0  0  0  0  0
  187.8550  177.7750  148.8520 C   0  0  0  0  0  2  0  0  0  0  0  0
  1 20  1  6  0  0  0
  2  6  1  0  0  0  0
  3  1  1  0  0  0  0
  3  7  1  0  0  0  0
  4  3  2  0  0  0  0
  5  4  1  0  0  0  0
  5  2  2  0  0  0  0
  6  7  2  0  0  0  0
  8  1  1  0  0  0  0
  9  8  1  0  0  0  0
 11  8  1  0  0  0  0
 11 12  2  0  0  0  0
 12 10  2  0  0  0  0
 13 19  2  0  0  0  0
 14 17  2  0  0  0  0
 15 18  1  0  0  0  0
 16 15  1  0  0  0  0
 17 13  1  0  0  0  0
 17 15  1  0  0  0  0
 18 11  1  1  0  0  0
 19 18  1  0  0  0  0
 21 20  1  6  0  0  0
 21 25  1  0  0  0  0
 22 21  1  0  0  0  0
 22 24  1  0  0  0  0
 24 23  1  0  0  0  0
 25 27  1  0  0  0  0
 27 26  1  0  0  0  0
M  END
>  <MODEL>
8

>  <REMARK>
 VINA RESULT:      -6.9      2.761      5.995
  Name = 
  10 active torsions:
  status: ('A' for Active; 'I' for Inactive)
    1  A    between atoms: C_1  and  C_15
    2  A    between atoms: C_1  and  C_18
    3  A    between atoms: N_2  and  C_14
    4  A    between atoms: N_2  and  C_15
    5  A    between atoms: C_9  and  C_15
    6  A    between atoms: C_14  and  C_17
    7  A    between atoms: C_18  and  C_24
    8  A    between atoms: C_18  and  N_26
    9  A    between atoms: C_20  and  N_26
   10  A    between atoms: C_22  and  C_24
                            x       y       z     vdW  Elec       q    Type
                         _______ _______ _______ _____ _____    ______ ____

>  <TORSDO>
F 10

$$$$
=
 OpenBabel10272401063D

 27 28  0  0  1  0  0  0  0  0999 V2000
  188.2640  178.0490  144.1340 C   0  0  1  0  0  3  0  0  0  0  0  0
  188.6600  177.4370  148.3750 C   0  0  0  0  0  3  0  0  0  0  0  0
  188.3770  177.8280  145.6160 C   0  0  0  0  0  0  0  0  0  0  0  0
  187.3540  178.2160  146.4930 C   0  0  0  0  0  3  0  0  0  0  0  0
  187.4950  178.0190  147.8700 C   0  0  0  0  0  3  0  0  0  0  0  0
  189.6840  177.0500  147.5050 C   0  0  0  0  0  3  0  0  0  0  0  0
  189.5420  177.2470  146.1290 C   0  0  0  0  0  3  0  0  0  0  0  0
  189.5590  178.1820  143.4620 N   0  0  0  0  0  0  0  0  0  0  0  0
  190.4090  179.2480  143.7910 N   0  0  0  0  0  1  0  0  0  0  0  0
  190.4690  174.8250  142.9790 O   0  0  0  0  0  0  0  0  0  0  0  0
  189.9530  177.2620  142.4270 C   0  0  0  0  0  0  0  0  0  0  0  0
  190.2190  176.0070  142.7110 C   0  0  0  0  0  0  0  0  0  0  0  0
  189.4570  176.5380  138.9330 C   0  0  0  0  0  3  0  0  0  0  0  0
  191.8010  176.0730  138.3100 C   0  0  0  0  0  2  0  0  0  0  0  0
  191.2620  177.2320  140.3640 N   0  0  0  0  0  0  0  0  0  0  0  0
  192.6100  177.6390  140.7300 C   0  0  0  0  0  1  0  0  0  0  0  0
  190.9140  176.5530  139.1730 C   0  0  0  0  0  0  0  0  0  0  0  0
  190.0660  177.7470  141.0050 C   0  0  1  0  0  3  0  0  0  0  0  0
  188.8810  177.2650  140.1530 C   0  0  0  0  0  3  0  0  0  0  0  0
  187.2520  177.1820  143.3580 C   0  0  0  0  0  2  0  0  0  0  0  0
  185.9060  177.8140  142.9730 C   0  0  2  0  0  3  0  0  0  0  0  0
  186.0950  179.0490  142.0990 C   0  0  0  0  0  2  0  0  0  0  0  0
  184.3770  179.1150  140.2930 C   0  0  0  0  0  1  0  0  0  0  0  0
  185.8080  178.7480  140.6380 C   0  0  0  0  0  2  0  0  0  0  0  0
  185.0910  178.1090  144.1400 N   0  0  0  0  0  2  0  0  0  0  0  0
  183.4110  179.7150  144.1630 O   0  0  0  0  0  1  0  0  0  0  0  0
  184.7910  179.5300  144.1030 C   0  0  0  0  0  2  0  0  0  0  0  0
  1 20  1  6  0  0  0
  1  3  1  0  0  0  0
  3  7  2  0  0  0  0
  3  4  1  0  0  0  0
  4  5  2  0  0  0  0
  5  2  1  0  0  0  0
  6  2  2  0  0  0  0
  7  6  1  0  0  0  0
  8  9  1  0  0  0  0
  8  1  1  0  0  0  0
 11 12  2  0  0  0  0
 11  8  1  0  0  0  0
 12 10  2  0  0  0  0
 13 17  1  0  0  0  0
 13 19  2  0  0  0  0
 14 17  2  0  0  0  0
 15 16  1  0  0  0  0
 15 18  1  0  0  0  0
 17 15  1  0  0  0  0
 18 11  1  1  0  0  0
 19 18  1  0  0  0  0
 21 22  1  1  0  0  0
 21 20  1  0  0  0  0
 21 25  1  0  0  0  0
 23 24  1  0  0  0  0
 24 22  1  0  0  0  0
 27 25  1  0  0  0  0
 27 26  1  0  0  0  0
M  END
>  <MODEL>
9

>  <REMARK>
 VINA RESULT:      -6.9      2.367      3.728
  Name = 
  10 active torsions:
  status: ('A' for Active; 'I' for Inactive)
    1  A    between atoms: C_1  and  C_15
    2  A    between atoms: C_1  and  C_18
    3  A    between atoms: N_2  and  C_14
    4  A    between atoms: N_2  and  C_15
    5  A    between atoms: C_9  and  C_15
    6  A    between atoms: C_14  and  C_17
    7  A    between atoms: C_18  and  C_24
    8  A    between atoms: C_18  and  N_26
    9  A    between atoms: C_20  and  N_26
   10  A    between atoms: C_22  and  C_24
                            x       y       z     vdW  Elec       q    Type
                         _______ _______ _______ _____ _____    ______ ____

>  <TORSDO>
F 10

$$$$
