=
 OpenBabel10272413473D

 30 32  0  0  1  0  0  0  0  0999 V2000
  189.3690  176.7560  139.6480 C   0  0  1  0  0  3  0  0  0  0  0  0
  190.6500  175.7110  137.6500 C   0  0  2  0  0  3  0  0  0  0  0  0
  188.2080  177.1490  138.9360 O   0  0  0  0  0  0  0  0  0  0  0  0
  187.6230  174.9360  135.2560 C   0  0  0  0  0  2  0  0  0  0  0  0
  188.1830  173.0660  136.3200 C   0  0  0  0  0  2  0  0  0  0  0  0
  188.6960  175.8540  135.8810 C   0  0  2  0  0  3  0  0  0  0  0  0
  188.9540  178.0720  136.8310 C   0  0  0  0  0  2  0  0  0  0  0  0
  188.4490  178.3520  138.2430 C   0  0  0  0  0  2  0  0  0  0  0  0
  189.2840  175.1680  137.1660 C   0  0  1  0  0  3  0  0  0  0  0  0
  188.1110  173.6410  135.0460 O   0  0  0  0  0  0  0  0  0  0  0  0
  188.0520  177.1560  136.1530 N   0  0  0  0  0  0  0  0  0  0  0  0
  187.7630  177.7940  134.8760 C   0  0  0  0  0  1  0  0  0  0  0  0
  190.6810  176.7010  138.8320 C   0  0  2  0  0  3  0  0  0  0  0  0
  190.5520  173.2550  136.3630 O   0  0  0  0  0  1  0  0  0  0  0  0
  189.3920  173.6320  137.0480 C   0  0  2  0  0  3  0  0  0  0  0  0
  188.1360  177.4620  141.8210 C   0  0  1  0  0  3  0  0  0  0  0  0
  188.3500  177.7540  143.2810 C   0  0  0  0  0  3  0  0  0  0  0  0
  187.0760  178.7200  141.1370 Cl  0  0  0  0  0  0  0  0  0  0  0  0
  190.5040  176.5990  141.8440 C   0  0  0  0  0  3  0  0  0  0  0  0
  191.5770  175.9100  143.9260 C   0  0  0  0  0  1  0  0  0  0  0  0
  189.4750  177.3660  141.0570 C   0  0  1  0  0  3  0  0  0  0  0  0
  189.4440  177.3230  143.9150 C   0  0  0  0  0  3  0  0  0  0  0  0
  190.5050  176.6180  143.1790 C   0  0  0  0  0  0  0  0  0  0  0  0
  193.3080  174.8250  137.0980 O   0  0  0  0  0  0  0  0  0  0  0  0
  192.8170  175.7070  136.3450 C   0  0  0  0  0  0  0  0  0  0  0  0
  193.5960  176.2370  135.2790 N   0  0  0  0  0  1  0  0  0  0  0  0
  191.4840  176.1750  136.5450 N   0  0  0  0  0  2  0  0  0  0  0  0
  191.7490  176.3610  139.6690 O   0  0  0  0  0  0  0  0  0  0  0  0
  194.3210  176.7830  140.0190 S   0  0  0  0  0  1  0  0  0  0  0  0
  192.6910  177.3770  139.4980 C   0  0  0  0  0  2  0  0  0  0  0  0
  1  3  1  6  0  0  0
  1 21  1  0  0  0  0
  2 27  1  6  0  0  0
  2 13  1  0  0  0  0
  5 15  1  0  0  0  0
  6  4  1  1  0  0  0
  6 11  1  0  0  0  0
  6  9  1  0  0  0  0
  7  8  1  0  0  0  0
  8  3  1  0  0  0  0
  9  2  1  0  0  0  0
 10  4  1  0  0  0  0
 10  5  1  0  0  0  0
 11  7  1  0  0  0  0
 12 11  1  0  0  0  0
 13  1  1  0  0  0  0
 13 28  1  0  0  0  0
 14 15  1  0  0  0  0
 15  9  1  0  0  0  0
 16 17  1  0  0  0  0
 17 22  2  0  0  0  0
 18 16  1  0  0  0  0
 19 23  2  0  0  0  0
 21 16  1  0  0  0  0
 21 19  1  0  0  0  0
 23 22  1  0  0  0  0
 23 20  1  0  0  0  0
 25 27  1  0  0  0  0
 25 24  2  0  0  0  0
 26 25  1  0  0  0  0
 30 28  1  0  0  0  0
 30 29  1  0  0  0  0
M  END
>  <MODEL>
1

>  <REMARK>
 VINA RESULT:      -4.6      0.000      0.000
  Name = 
  4 active torsions:
  status: ('A' for Active; 'I' for Inactive)
    1  A    between atoms: C_1  and  C_22
    2  A    between atoms: C_4  and  N_25
    3  A    between atoms: O_10  and  C_23
    4  A    between atoms: O_10  and  C_26
                            x       y       z     vdW  Elec       q    Type
                         _______ _______ _______ _____ _____    ______ ____

>  <TORSDO>
F 4

$$$$
=
 OpenBabel10272413473D

 30 32  0  0  1  0  0  0  0  0999 V2000
  183.8340  177.6240  139.6150 C   0  0  1  0  0  3  0  0  0  0  0  0
  185.2100  177.0720  137.4870 C   0  0  2  0  0  3  0  0  0  0  0  0
  182.6130  177.0330  139.2020 O   0  0  0  0  0  0  0  0  0  0  0  0
  183.1180  174.0330  136.1170 C   0  0  0  0  0  2  0  0  0  0  0  0
  184.8860  173.2430  137.2080 C   0  0  0  0  0  2  0  0  0  0  0  0
  183.4150  175.5360  136.3110 C   0  0  2  0  0  3  0  0  0  0  0  0
  182.3020  177.6170  136.8780 C   0  0  0  0  0  2  0  0  0  0  0  0
  181.9270  177.9000  138.3290 C   0  0  0  0  0  2  0  0  0  0  0  0
  184.4690  175.7140  137.4620 C   0  0  1  0  0  3  0  0  0  0  0  0
  184.2930  173.2930  135.9410 O   0  0  0  0  0  0  0  0  0  0  0  0
  182.1260  176.2040  136.5870 N   0  0  0  0  0  0  0  0  0  0  0  0
  181.3290  176.1710  135.3680 C   0  0  0  0  0  1  0  0  0  0  0  0
  184.7500  178.1530  138.4870 C   0  0  2  0  0  3  0  0  0  0  0  0
  186.5530  174.8180  136.5840 O   0  0  0  0  0  1  0  0  0  0  0  0
  185.5270  174.5890  137.5070 C   0  0  2  0  0  3  0  0  0  0  0  0
  182.2920  178.5630  141.4820 C   0  0  1  0  0  3  0  0  0  0  0  0
  182.3090  179.1830  142.8530 C   0  0  0  0  0  3  0  0  0  0  0  0
  181.1470  179.4670  140.4600 Cl  0  0  0  0  0  0  0  0  0  0  0  0
  184.7420  178.1100  141.8680 C   0  0  0  0  0  3  0  0  0  0  0  0
  185.6740  178.0500  144.1240 C   0  0  0  0  0  1  0  0  0  0  0  0
  183.7050  178.5240  140.8580 C   0  0  1  0  0  3  0  0  0  0  0  0
  183.3790  179.0730  143.6440 C   0  0  0  0  0  3  0  0  0  0  0  0
  184.6000  178.4070  143.1620 C   0  0  0  0  0  0  0  0  0  0  0  0
  187.7190  177.7710  136.3150 O   0  0  0  0  0  0  0  0  0  0  0  0
  186.6780  177.9800  135.6380 C   0  0  0  0  0  0  0  0  0  0  0  0
  186.7830  178.5660  134.3460 N   0  0  0  0  0  1  0  0  0  0  0  0
  185.3930  177.6280  136.1510 N   0  0  0  0  0  2  0  0  0  0  0  0
  185.8830  178.7610  139.0390 O   0  0  0  0  0  0  0  0  0  0  0  0
  188.2280  178.3440  140.1520 S   0  0  0  0  0  1  0  0  0  0  0  0
  186.8120  177.7330  139.2010 C   0  0  0  0  0  2  0  0  0  0  0  0
  1  3  1  6  0  0  0
  1 21  1  0  0  0  0
  2 27  1  6  0  0  0
  2 13  1  0  0  0  0
  5 15  1  0  0  0  0
  6  4  1  1  0  0  0
  6 11  1  0  0  0  0
  6  9  1  0  0  0  0
  7  8  1  0  0  0  0
  8  3  1  0  0  0  0
  9  2  1  0  0  0  0
  9 15  1  0  0  0  0
 10  4  1  0  0  0  0
 10  5  1  0  0  0  0
 11  7  1  0  0  0  0
 12 11  1  0  0  0  0
 13 28  1  0  0  0  0
 13  1  1  0  0  0  0
 14 15  1  0  0  0  0
 16 17  1  0  0  0  0
 17 22  2  0  0  0  0
 18 16  1  0  0  0  0
 19 23  2  0  0  0  0
 21 16  1  0  0  0  0
 21 19  1  0  0  0  0
 23 22  1  0  0  0  0
 23 20  1  0  0  0  0
 25 27  1  0  0  0  0
 25 24  2  0  0  0  0
 26 25  1  0  0  0  0
 28 30  1  0  0  0  0
 30 29  1  0  0  0  0
M  END
>  <MODEL>
2

>  <REMARK>
 VINA RESULT:      -4.5      4.479      5.841
  Name = 
  4 active torsions:
  status: ('A' for Active; 'I' for Inactive)
    1  A    between atoms: C_1  and  C_22
    2  A    between atoms: C_4  and  N_25
    3  A    between atoms: O_10  and  C_23
    4  A    between atoms: O_10  and  C_26
                            x       y       z     vdW  Elec       q    Type
                         _______ _______ _______ _____ _____    ______ ____

>  <TORSDO>
F 4

$$$$
=
 OpenBabel10272413473D

 30 32  0  0  1  0  0  0  0  0999 V2000
  189.5200  176.5870  140.0170 C   0  0  1  0  0  3  0  0  0  0  0  0
  189.6710  175.8830  137.5260 C   0  0  2  0  0  3  0  0  0  0  0  0
  188.4820  177.5420  139.8750 O   0  0  0  0  0  0  0  0  0  0  0  0
  186.0790  176.9470  136.3200 C   0  0  0  0  0  2  0  0  0  0  0  0
  186.0740  174.7600  136.7180 C   0  0  0  0  0  2  0  0  0  0  0  0
  187.5590  177.2140  136.6680 C   0  0  2  0  0  3  0  0  0  0  0  0
  188.9550  178.7980  137.8660 C   0  0  0  0  0  2  0  0  0  0  0  0
  189.0060  178.7570  139.3890 C   0  0  0  0  0  2  0  0  0  0  0  0
  188.1280  175.9990  137.4860 C   0  0  1  0  0  3  0  0  0  0  0  0
  185.9100  175.7040  135.6980 O   0  0  0  0  0  0  0  0  0  0  0  0
  187.6100  178.4930  137.4060 N   0  0  0  0  0  0  0  0  0  0  0  0
  187.2830  179.5650  136.4760 C   0  0  0  0  0  1  0  0  0  0  0  0
  190.4220  176.3730  138.7800 C   0  0  2  0  0  3  0  0  0  0  0  0
  188.2260  174.1440  135.9180 O   0  0  0  0  0  1  0  0  0  0  0  0
  187.5550  174.6360  137.0420 C   0  0  2  0  0  3  0  0  0  0  0  0
  191.1980  177.8420  141.5510 C   0  0  1  0  0  3  0  0  0  0  0  0
  191.6090  178.0180  142.9880 C   0  0  0  0  0  3  0  0  0  0  0  0
  192.6630  177.6640  140.5550 Cl  0  0  0  0  0  0  0  0  0  0  0  0
  189.2120  176.5950  142.4760 C   0  0  0  0  0  3  0  0  0  0  0  0
  188.4810  176.9160  144.7830 C   0  0  0  0  0  1  0  0  0  0  0  0
  190.2400  176.6420  141.3770 C   0  0  1  0  0  3  0  0  0  0  0  0
  190.7910  177.6760  143.9850 C   0  0  0  0  0  3  0  0  0  0  0  0
  189.4920  177.0430  143.7010 C   0  0  0  0  0  0  0  0  0  0  0  0
  191.3560  174.3620  135.7930 O   0  0  0  0  0  0  0  0  0  0  0  0
  191.1500  175.5690  135.4980 C   0  0  0  0  0  0  0  0  0  0  0  0
  191.7690  176.1290  134.3460 N   0  0  0  0  0  1  0  0  0  0  0  0
  190.2950  176.3790  136.3040 N   0  0  0  0  0  2  0  0  0  0  0  0
  191.4340  175.4550  139.0810 O   0  0  0  0  0  0  0  0  0  0  0  0
  193.7420  174.6700  138.0940 S   0  0  0  0  0  1  0  0  0  0  0  0
  192.6020  176.0040  138.5470 C   0  0  0  0  0  2  0  0  0  0  0  0
  1  3  1  6  0  0  0
  1 21  1  0  0  0  0
  2 27  1  6  0  0  0
  2 13  1  0  0  0  0
  5 15  1  0  0  0  0
  6  4  1  1  0  0  0
  6 11  1  0  0  0  0
  6  9  1  0  0  0  0
  7  8  1  0  0  0  0
  8  3  1  0  0  0  0
  9  2  1  0  0  0  0
 10  4  1  0  0  0  0
 10  5  1  0  0  0  0
 11  7  1  0  0  0  0
 12 11  1  0  0  0  0
 13 28  1  0  0  0  0
 13  1  1  0  0  0  0
 14 15  1  0  0  0  0
 15  9  1  0  0  0  0
 16 17  1  0  0  0  0
 17 22  2  0  0  0  0
 18 16  1  0  0  0  0
 19 23  2  0  0  0  0
 21 16  1  0  0  0  0
 21 19  1  0  0  0  0
 23 22  1  0  0  0  0
 23 20  1  0  0  0  0
 25 24  2  0  0  0  0
 25 27  1  0  0  0  0
 26 25  1  0  0  0  0
 29 30  1  0  0  0  0
 30 28  1  0  0  0  0
M  END
>  <MODEL>
3

>  <REMARK>
 VINA RESULT:      -4.5      1.919      2.275
  Name = 
  4 active torsions:
  status: ('A' for Active; 'I' for Inactive)
    1  A    between atoms: C_1  and  C_22
    2  A    between atoms: C_4  and  N_25
    3  A    between atoms: O_10  and  C_23
    4  A    between atoms: O_10  and  C_26
                            x       y       z     vdW  Elec       q    Type
                         _______ _______ _______ _____ _____    ______ ____

>  <TORSDO>
F 4

$$$$
=
 OpenBabel10272413473D

 30 32  0  0  1  0  0  0  0  0999 V2000
  182.8140  178.2560  140.6770 C   0  0  1  0  0  3  0  0  0  0  0  0
  183.7180  177.1640  138.5050 C   0  0  2  0  0  3  0  0  0  0  0  0
  181.5330  178.6100  140.1840 O   0  0  0  0  0  0  0  0  0  0  0  0
  180.3130  176.2750  136.7440 C   0  0  0  0  0  2  0  0  0  0  0  0
  181.0960  174.4470  137.7380 C   0  0  0  0  0  2  0  0  0  0  0  0
  181.4660  177.2260  137.1310 C   0  0  2  0  0  3  0  0  0  0  0  0
  181.8560  179.4770  137.9520 C   0  0  0  0  0  2  0  0  0  0  0  0
  181.6180  179.7940  139.4240 C   0  0  0  0  0  2  0  0  0  0  0  0
  182.2960  176.5880  138.3020 C   0  0  1  0  0  3  0  0  0  0  0  0
  180.7760  174.9800  136.4840 O   0  0  0  0  0  0  0  0  0  0  0  0
  180.8600  178.5270  137.4810 N   0  0  0  0  0  0  0  0  0  0  0  0
  180.3260  179.1210  136.2630 C   0  0  0  0  0  1  0  0  0  0  0  0
  183.9510  178.1920  139.6320 C   0  0  2  0  0  3  0  0  0  0  0  0
  183.4270  174.6680  137.3310 O   0  0  0  0  0  1  0  0  0  0  0  0
  182.4100  175.0510  138.2100 C   0  0  2  0  0  3  0  0  0  0  0  0
  182.0780  178.7880  143.1100 C   0  0  1  0  0  3  0  0  0  0  0  0
  182.6080  179.1520  144.4710 C   0  0  0  0  0  3  0  0  0  0  0  0
  180.6720  179.8210  142.7500 Cl  0  0  0  0  0  0  0  0  0  0  0  0
  184.4870  178.3600  142.5010 C   0  0  0  0  0  3  0  0  0  0  0  0
  186.1650  177.9270  144.2200 C   0  0  0  0  0  1  0  0  0  0  0  0
  183.1700  178.9120  142.0240 C   0  0  1  0  0  3  0  0  0  0  0  0
  183.8860  178.9390  144.7910 C   0  0  0  0  0  3  0  0  0  0  0  0
  184.8290  178.4130  143.7900 C   0  0  0  0  0  0  0  0  0  0  0  0
  186.1830  176.2040  137.4300 O   0  0  0  0  0  0  0  0  0  0  0  0
  185.5740  177.0990  136.7880 C   0  0  0  0  0  0  0  0  0  0  0  0
  186.1330  177.6060  135.5820 N   0  0  0  0  0  1  0  0  0  0  0  0
  184.3220  177.6040  137.2520 N   0  0  0  0  0  2  0  0  0  0  0  0
  185.1630  177.8930  140.2640 O   0  0  0  0  0  0  0  0  0  0  0  0
  187.7380  178.4130  140.3810 S   0  0  0  0  0  1  0  0  0  0  0  0
  186.0900  178.7900  139.7300 C   0  0  0  0  0  2  0  0  0  0  0  0
  1  3  1  6  0  0  0
  1 21  1  0  0  0  0
  2 27  1  6  0  0  0
  2 13  1  0  0  0  0
  5 15  1  0  0  0  0
  6  4  1  1  0  0  0
  6 11  1  0  0  0  0
  6  9  1  0  0  0  0
  7  8  1  0  0  0  0
  8  3  1  0  0  0  0
  9  2  1  0  0  0  0
 10  4  1  0  0  0  0
 10  5  1  0  0  0  0
 11  7  1  0  0  0  0
 12 11  1  0  0  0  0
 13 28  1  0  0  0  0
 13  1  1  0  0  0  0
 14 15  1  0  0  0  0
 15  9  1  0  0  0  0
 16 17  1  0  0  0  0
 17 22  2  0  0  0  0
 18 16  1  0  0  0  0
 19 23  2  0  0  0  0
 21 19  1  0  0  0  0
 21 16  1  0  0  0  0
 23 20  1  0  0  0  0
 23 22  1  0  0  0  0
 25 27  1  0  0  0  0
 25 24  2  0  0  0  0
 26 25  1  0  0  0  0
 30 28  1  0  0  0  0
 30 29  1  0  0  0  0
M  END
>  <MODEL>
4

>  <REMARK>
 VINA RESULT:      -4.3      5.639      6.974
  Name = 
  4 active torsions:
  status: ('A' for Active; 'I' for Inactive)
    1  A    between atoms: C_1  and  C_22
    2  A    between atoms: C_4  and  N_25
    3  A    between atoms: O_10  and  C_23
    4  A    between atoms: O_10  and  C_26
                            x       y       z     vdW  Elec       q    Type
                         _______ _______ _______ _____ _____    ______ ____

>  <TORSDO>
F 4

$$$$
=
 OpenBabel10272413473D

 30 32  0  0  1  0  0  0  0  0999 V2000
  181.8820  176.7320  138.1200 C   0  0  1  0  0  3  0  0  0  0  0  0
  181.4320  179.1330  138.9920 C   0  0  2  0  0  3  0  0  0  0  0  0
  182.9450  176.4130  139.0010 O   0  0  0  0  0  0  0  0  0  0  0  0
  182.9690  178.8230  142.6020 C   0  0  0  0  0  2  0  0  0  0  0  0
  180.7630  178.5850  142.7470 C   0  0  0  0  0  2  0  0  0  0  0  0
  183.0490  179.0450  141.0760 C   0  0  2  0  0  3  0  0  0  0  0  0
  184.3520  178.3720  139.1420 C   0  0  0  0  0  2  0  0  0  0  0  0
  184.1450  176.9870  138.5390 C   0  0  0  0  0  2  0  0  0  0  0  0
  181.7050  178.5790  140.4110 C   0  0  1  0  0  3  0  0  0  0  0  0
  181.8210  179.4090  143.1500 O   0  0  0  0  0  0  0  0  0  0  0  0
  184.2330  178.3060  140.5890 N   0  0  0  0  0  0  0  0  0  0  0  0
  185.4240  178.9770  141.0920 C   0  0  0  0  0  1  0  0  0  0  0  0
  181.7110  178.2300  137.7730 C   0  0  2  0  0  3  0  0  0  0  0  0
  180.0240  180.1760  141.1430 O   0  0  0  0  0  1  0  0  0  0  0  0
  180.4590  178.8540  141.2810 C   0  0  2  0  0  3  0  0  0  0  0  0
  183.0430  175.3510  136.2530 C   0  0  1  0  0  3  0  0  0  0  0  0
  182.8610  174.1590  135.3530 C   0  0  0  0  0  3  0  0  0  0  0  0
  183.7090  176.6960  135.2930 Cl  0  0  0  0  0  0  0  0  0  0  0  0
  180.9700  174.5340  137.4320 C   0  0  0  0  0  3  0  0  0  0  0  0
  180.2440  172.2100  137.2430 C   0  0  0  0  0  1  0  0  0  0  0  0
  181.7220  175.7460  136.9490 C   0  0  1  0  0  3  0  0  0  0  0  0
  181.9530  173.2200  135.6290 C   0  0  0  0  0  3  0  0  0  0  0  0
  181.0530  173.3690  136.7850 C   0  0  0  0  0  0  0  0  0  0  0  0
  179.9820  181.4190  138.0820 O   0  0  0  0  0  0  0  0  0  0  0  0
  181.2110  181.5610  138.3170 C   0  0  0  0  0  0  0  0  0  0  0  0
  181.8280  182.8250  138.1060 N   0  0  0  0  0  1  0  0  0  0  0  0
  181.9900  180.4680  138.8030 N   0  0  0  0  0  2  0  0  0  0  0  0
  180.6700  178.3900  136.8520 O   0  0  0  0  0  0  0  0  0  0  0  0
  179.9820  179.9310  134.8350 S   0  0  0  0  0  1  0  0  0  0  0  0
  181.2500  179.0090  135.7440 C   0  0  0  0  0  2  0  0  0  0  0  0
  1  3  1  6  0  0  0
  2 27  1  6  0  0  0
  2  9  1  0  0  0  0
  4 10  1  0  0  0  0
  5 10  1  0  0  0  0
  6  4  1  1  0  0  0
  7 11  1  0  0  0  0
  8  3  1  0  0  0  0
  8  7  1  0  0  0  0
  9  6  1  0  0  0  0
  9 15  1  0  0  0  0
 11  6  1  0  0  0  0
 11 12  1  0  0  0  0
 13  1  1  0  0  0  0
 13  2  1  0  0  0  0
 14 15  1  0  0  0  0
 15  5  1  0  0  0  0
 16 21  1  0  0  0  0
 17 22  2  0  0  0  0
 17 16  1  0  0  0  0
 18 16  1  0  0  0  0
 21 19  1  0  0  0  0
 21  1  1  0  0  0  0
 22 23  1  0  0  0  0
 23 20  1  0  0  0  0
 23 19  2  0  0  0  0
 24 25  2  0  0  0  0
 25 27  1  0  0  0  0
 26 25  1  0  0  0  0
 28 13  1  0  0  0  0
 29 30  1  0  0  0  0
 30 28  1  0  0  0  0
M  END
>  <MODEL>
5

>  <REMARK>
 VINA RESULT:      -4.2      7.248     10.507
  Name = 
  4 active torsions:
  status: ('A' for Active; 'I' for Inactive)
    1  A    between atoms: C_1  and  C_22
    2  A    between atoms: C_4  and  N_25
    3  A    between atoms: O_10  and  C_23
    4  A    between atoms: O_10  and  C_26
                            x       y       z     vdW  Elec       q    Type
                         _______ _______ _______ _____ _____    ______ ____

>  <TORSDO>
F 4

$$$$
=
 OpenBabel10272413473D

 30 32  0  0  1  0  0  0  0  0999 V2000
  187.1950  177.5290  139.4560 C   0  0  1  0  0  3  0  0  0  0  0  0
  188.8780  176.1670  138.0270 C   0  0  2  0  0  3  0  0  0  0  0  0
  186.3360  177.9250  138.4000 O   0  0  0  0  0  0  0  0  0  0  0  0
  186.6020  175.3590  134.9190 C   0  0  0  0  0  2  0  0  0  0  0  0
  186.6300  173.5850  136.2580 C   0  0  0  0  0  2  0  0  0  0  0  0
  187.5420  176.2580  135.7520 C   0  0  2  0  0  3  0  0  0  0  0  0
  187.7500  178.5430  136.5410 C   0  0  0  0  0  2  0  0  0  0  0  0
  186.8930  179.0190  137.7090 C   0  0  0  0  0  2  0  0  0  0  0  0
  187.6580  175.6790  137.2080 C   0  0  1  0  0  3  0  0  0  0  0  0
  186.9880  174.0150  134.9750 O   0  0  0  0  0  0  0  0  0  0  0  0
  186.9890  177.6270  135.7080 N   0  0  0  0  0  0  0  0  0  0  0  0
  187.1490  178.1360  134.3520 C   0  0  0  0  0  1  0  0  0  0  0  0
  188.6730  177.2800  139.0750 C   0  0  2  0  0  3  0  0  0  0  0  0
  188.8920  173.5960  136.9860 O   0  0  0  0  0  1  0  0  0  0  0  0
  187.6320  174.1360  137.2610 C   0  0  2  0  0  3  0  0  0  0  0  0
  185.4730  178.4110  141.1870 C   0  0  1  0  0  3  0  0  0  0  0  0
  185.3300  178.8600  142.6160 C   0  0  0  0  0  3  0  0  0  0  0  0
  184.5930  179.5520  140.1390 Cl  0  0  0  0  0  0  0  0  0  0  0  0
  187.7770  177.6420  141.8620 C   0  0  0  0  0  3  0  0  0  0  0  0
  188.3300  177.2130  144.2010 C   0  0  0  0  0  1  0  0  0  0  0  0
  186.9560  178.2850  140.7760 C   0  0  1  0  0  3  0  0  0  0  0  0
  186.2460  178.5380  143.5330 C   0  0  0  0  0  3  0  0  0  0  0  0
  187.4600  177.7990  143.1490 C   0  0  0  0  0  0  0  0  0  0  0  0
  191.4270  174.9040  138.2680 O   0  0  0  0  0  0  0  0  0  0  0  0
  191.2930  175.7860  137.3790 C   0  0  0  0  0  0  0  0  0  0  0  0
  192.4000  176.1310  136.5560 N   0  0  0  0  0  1  0  0  0  0  0  0
  190.0380  176.4370  137.1840 N   0  0  0  0  0  2  0  0  0  0  0  0
  189.4130  176.9580  140.2180 O   0  0  0  0  0  0  0  0  0  0  0  0
  191.6120  177.4090  141.5870 S   0  0  0  0  0  1  0  0  0  0  0  0
  190.5570  177.7540  140.1540 C   0  0  0  0  0  2  0  0  0  0  0  0
  1  3  1  6  0  0  0
  1 21  1  0  0  0  0
  2 27  1  6  0  0  0
  2 13  1  0  0  0  0
  4 10  1  0  0  0  0
  5 15  1  0  0  0  0
  6  4  1  6  0  0  0
  6  9  1  0  0  0  0
  7  8  1  0  0  0  0
  8  3  1  0  0  0  0
  9 15  1  0  0  0  0
  9  2  1  0  0  0  0
 10  5  1  0  0  0  0
 11  6  1  0  0  0  0
 11  7  1  0  0  0  0
 12 11  1  0  0  0  0
 13  1  1  0  0  0  0
 13 28  1  0  0  0  0
 14 15  1  0  0  0  0
 16 17  1  0  0  0  0
 17 22  2  0  0  0  0
 18 16  1  0  0  0  0
 19 23  2  0  0  0  0
 21 16  1  0  0  0  0
 21 19  1  0  0  0  0
 23 22  1  0  0  0  0
 23 20  1  0  0  0  0
 25 24  2  0  0  0  0
 26 25  1  0  0  0  0
 27 25  1  0  0  0  0
 30 28  1  0  0  0  0
 30 29  1  0  0  0  0
M  END
>  <MODEL>
6

>  <REMARK>
 VINA RESULT:      -4.0      1.783      2.269
  Name = 
  4 active torsions:
  status: ('A' for Active; 'I' for Inactive)
    1  A    between atoms: C_1  and  C_22
    2  A    between atoms: C_4  and  N_25
    3  A    between atoms: O_10  and  C_23
    4  A    between atoms: O_10  and  C_26
                            x       y       z     vdW  Elec       q    Type
                         _______ _______ _______ _____ _____    ______ ____

>  <TORSDO>
F 4

$$$$
=
 OpenBabel10272413473D

 30 32  0  0  1  0  0  0  0  0999 V2000
  188.7600  177.1800  138.9530 C   0  0  1  0  0  3  0  0  0  0  0  0
  188.5130  175.3050  137.1790 C   0  0  2  0  0  3  0  0  0  0  0  0
  187.9280  178.1400  138.3230 O   0  0  0  0  0  0  0  0  0  0  0  0
  185.1070  176.3960  135.5340 C   0  0  0  0  0  2  0  0  0  0  0  0
  184.7000  174.7730  136.9980 C   0  0  0  0  0  2  0  0  0  0  0  0
  186.6390  176.4600  135.7230 C   0  0  2  0  0  3  0  0  0  0  0  0
  188.4400  178.0690  135.9630 C   0  0  0  0  0  2  0  0  0  0  0  0
  188.6350  178.7900  137.2920 C   0  0  0  0  0  2  0  0  0  0  0  0
  187.0290  175.7300  137.0580 C   0  0  1  0  0  3  0  0  0  0  0  0
  184.6290  175.0840  135.6350 O   0  0  0  0  0  0  0  0  0  0  0  0
  187.0220  177.8870  135.7000 N   0  0  0  0  0  0  0  0  0  0  0  0
  186.8270  178.3870  134.3460 C   0  0  0  0  0  1  0  0  0  0  0  0
  189.4710  176.1760  138.0170 C   0  0  2  0  0  3  0  0  0  0  0  0
  186.5900  173.3710  136.6650 O   0  0  0  0  0  1  0  0  0  0  0  0
  186.1500  174.4980  137.3660 C   0  0  2  0  0  3  0  0  0  0  0  0
  189.2330  177.2180  141.5060 C   0  0  1  0  0  3  0  0  0  0  0  0
  190.2880  177.5490  142.5260 C   0  0  0  0  0  3  0  0  0  0  0  0
  187.6740  177.8790  142.0620 Cl  0  0  0  0  0  0  0  0  0  0  0  0
  191.0640  177.5110  139.8000 C   0  0  0  0  0  3  0  0  0  0  0  0
  193.4170  177.3400  140.4310 C   0  0  0  0  0  1  0  0  0  0  0  0
  189.6100  177.7480  140.1050 C   0  0  1  0  0  3  0  0  0  0  0  0
  191.5740  177.6450  142.1790 C   0  0  0  0  0  3  0  0  0  0  0  0
  191.9800  177.5040  140.7710 C   0  0  0  0  0  0  0  0  0  0  0  0
  189.5790  172.7530  136.4680 O   0  0  0  0  0  0  0  0  0  0  0  0
  189.6380  173.6720  135.6090 C   0  0  0  0  0  0  0  0  0  0  0  0
  190.2410  173.4180  134.3460 N   0  0  0  0  0  1  0  0  0  0  0  0
  189.0980  174.9630  135.8870 N   0  0  0  0  0  2  0  0  0  0  0  0
  190.3010  175.3330  138.7640 O   0  0  0  0  0  0  0  0  0  0  0  0
  192.1610  176.2380  137.1410 S   0  0  0  0  0  1  0  0  0  0  0  0
  191.2460  174.8480  137.8590 C   0  0  0  0  0  2  0  0  0  0  0  0
  1  3  1  6  0  0  0
  1 21  1  0  0  0  0
  2 27  1  6  0  0  0
  2 13  1  0  0  0  0
  4 10  1  0  0  0  0
  5 15  1  0  0  0  0
  6  4  1  1  0  0  0
  6  9  1  0  0  0  0
  7  8  1  0  0  0  0
  8  3  1  0  0  0  0
  9  2  1  0  0  0  0
  9 15  1  0  0  0  0
 10  5  1  0  0  0  0
 11  6  1  0  0  0  0
 11  7  1  0  0  0  0
 12 11  1  0  0  0  0
 13 28  1  0  0  0  0
 13  1  1  0  0  0  0
 14 15  1  0  0  0  0
 16 18  1  0  0  0  0
 16 17  1  0  0  0  0
 19 21  1  0  0  0  0
 19 23  2  0  0  0  0
 20 23  1  0  0  0  0
 21 16  1  0  0  0  0
 22 17  2  0  0  0  0
 23 22  1  0  0  0  0
 25 27  1  0  0  0  0
 25 24  2  0  0  0  0
 26 25  1  0  0  0  0
 29 30  1  0  0  0  0
 30 28  1  0  0  0  0
M  END
>  <MODEL>
7

>  <REMARK>
 VINA RESULT:      -3.8      1.984      2.761
  Name = 
  4 active torsions:
  status: ('A' for Active; 'I' for Inactive)
    1  A    between atoms: C_1  and  C_22
    2  A    between atoms: C_4  and  N_25
    3  A    between atoms: O_10  and  C_23
    4  A    between atoms: O_10  and  C_26
                            x       y       z     vdW  Elec       q    Type
                         _______ _______ _______ _____ _____    ______ ____

>  <TORSDO>
F 4

$$$$
=
 OpenBabel10272413473D

 30 32  0  0  1  0  0  0  0  0999 V2000
  195.6590  171.1930  137.4030 C   0  0  1  0  0  3  0  0  0  0  0  0
  195.2520  173.7540  137.3660 C   0  0  2  0  0  3  0  0  0  0  0  0
  197.0760  171.2330  137.4230 O   0  0  0  0  0  0  0  0  0  0  0  0
  198.6660  174.9880  138.8890 C   0  0  0  0  0  2  0  0  0  0  0  0
  197.1320  174.9810  140.4980 C   0  0  0  0  0  2  0  0  0  0  0  0
  197.7560  174.5010  137.7390 C   0  0  2  0  0  3  0  0  0  0  0  0
  197.7510  172.9550  135.8690 C   0  0  0  0  0  2  0  0  0  0  0  0
  197.5710  171.4620  136.1240 C   0  0  0  0  0  2  0  0  0  0  0  0
  196.4480  173.8740  138.3420 C   0  0  1  0  0  3  0  0  0  0  0  0
  197.9780  175.8280  139.7710 O   0  0  0  0  0  0  0  0  0  0  0  0
  198.5460  173.5480  136.9310 N   0  0  0  0  0  0  0  0  0  0  0  0
  199.5900  174.2950  136.2430 C   0  0  0  0  0  1  0  0  0  0  0  0
  194.9540  172.3870  136.7180 C   0  0  2  0  0  3  0  0  0  0  0  0
  195.2170  175.7340  139.3090 O   0  0  0  0  0  1  0  0  0  0  0  0
  195.9550  174.5880  139.6190 C   0  0  2  0  0  3  0  0  0  0  0  0
  194.3030  169.1570  138.2740 C   0  0  1  0  0  3  0  0  0  0  0  0
  193.4960  167.9710  137.8220 C   0  0  0  0  0  3  0  0  0  0  0  0
  195.4000  168.6370  139.5780 Cl  0  0  0  0  0  0  0  0  0  0  0  0
  194.2240  169.8870  135.8630 C   0  0  0  0  0  3  0  0  0  0  0  0
  192.5050  169.0480  134.3460 C   0  0  0  0  0  1  0  0  0  0  0  0
  195.0760  169.8000  137.1010 C   0  0  1  0  0  3  0  0  0  0  0  0
  192.9910  167.9130  136.5870 C   0  0  0  0  0  3  0  0  0  0  0  0
  193.2800  168.9780  135.6120 C   0  0  0  0  0  0  0  0  0  0  0  0
  193.1630  175.6730  137.0380 O   0  0  0  0  0  0  0  0  0  0  0  0
  194.1430  175.7350  136.2510 C   0  0  0  0  0  0  0  0  0  0  0  0
  194.1660  176.7270  135.2310 N   0  0  0  0  0  1  0  0  0  0  0  0
  195.2370  174.8260  136.3760 N   0  0  0  0  0  2  0  0  0  0  0  0
  193.5700  172.1870  136.7170 O   0  0  0  0  0  0  0  0  0  0  0  0
  191.3250  172.7860  135.4850 S   0  0  0  0  0  1  0  0  0  0  0  0
  193.1310  172.6400  135.4730 C   0  0  0  0  0  2  0  0  0  0  0  0
  1  3  1  6  0  0  0
  2 27  1  6  0  0  0
  2  9  1  0  0  0  0
  4 10  1  0  0  0  0
  6  9  1  0  0  0  0
  6  4  1  1  0  0  0
  7  8  1  0  0  0  0
  7 11  1  0  0  0  0
  8  3  1  0  0  0  0
  9 15  1  0  0  0  0
 10  5  1  0  0  0  0
 11  6  1  0  0  0  0
 12 11  1  0  0  0  0
 13  2  1  0  0  0  0
 13  1  1  0  0  0  0
 14 15  1  0  0  0  0
 15  5  1  0  0  0  0
 16 18  1  0  0  0  0
 17 16  1  0  0  0  0
 19 21  1  0  0  0  0
 20 23  1  0  0  0  0
 21  1  1  0  0  0  0
 21 16  1  0  0  0  0
 22 17  2  0  0  0  0
 23 19  2  0  0  0  0
 23 22  1  0  0  0  0
 25 27  1  0  0  0  0
 25 24  2  0  0  0  0
 26 25  1  0  0  0  0
 28 13  1  0  0  0  0
 30 29  1  0  0  0  0
 30 28  1  0  0  0  0
M  END
>  <MODEL>
8

>  <REMARK>
 VINA RESULT:      -3.7      6.014      9.237
  Name = 
  4 active torsions:
  status: ('A' for Active; 'I' for Inactive)
    1  A    between atoms: C_1  and  C_22
    2  A    between atoms: C_4  and  N_25
    3  A    between atoms: O_10  and  C_23
    4  A    between atoms: O_10  and  C_26
                            x       y       z     vdW  Elec       q    Type
                         _______ _______ _______ _____ _____    ______ ____

>  <TORSDO>
F 4

$$$$
=
 OpenBabel10272413473D

 30 32  0  0  1  0  0  0  0  0999 V2000
  184.2740  178.1870  141.1490 C   0  0  1  0  0  3  0  0  0  0  0  0
  184.7880  177.4000  138.7320 C   0  0  2  0  0  3  0  0  0  0  0  0
  182.9490  178.6340  140.9190 O   0  0  0  0  0  0  0  0  0  0  0  0
  181.1170  176.8390  137.4260 C   0  0  0  0  0  2  0  0  0  0  0  0
  181.9670  174.8730  138.0210 C   0  0  0  0  0  2  0  0  0  0  0  0
  182.3550  177.7020  137.7530 C   0  0  2  0  0  3  0  0  0  0  0  0
  182.9610  179.8040  138.8050 C   0  0  0  0  0  2  0  0  0  0  0  0
  182.9660  179.9120  140.3260 C   0  0  0  0  0  2  0  0  0  0  0  0
  183.3280  176.8870  138.6790 C   0  0  1  0  0  3  0  0  0  0  0  0
  181.4810  175.5860  136.9190 O   0  0  0  0  0  0  0  0  0  0  0  0
  181.8650  178.9520  138.3720 N   0  0  0  0  0  0  0  0  0  0  0  0
  181.1750  179.7240  137.3470 C   0  0  0  0  0  1  0  0  0  0  0  0
  185.2340  178.2510  139.9380 C   0  0  2  0  0  3  0  0  0  0  0  0
  184.2150  175.1030  137.2850 O   0  0  0  0  0  1  0  0  0  0  0  0
  183.3620  175.3770  138.3580 C   0  0  2  0  0  3  0  0  0  0  0  0
  183.9310  178.4130  143.7130 C   0  0  1  0  0  3  0  0  0  0  0  0
  184.6710  178.5630  145.0140 C   0  0  0  0  0  3  0  0  0  0  0  0
  182.5550  179.5450  143.7050 Cl  0  0  0  0  0  0  0  0  0  0  0  0
  186.1950  177.9680  142.6990 C   0  0  0  0  0  3  0  0  0  0  0  0
  188.0720  177.2310  144.0750 C   0  0  0  0  0  1  0  0  0  0  0  0
  184.8610  178.6370  142.5000 C   0  0  1  0  0  3  0  0  0  0  0  0
  185.9660  178.2530  145.1090 C   0  0  0  0  0  3  0  0  0  0  0  0
  186.7210  177.8290  143.9180 C   0  0  0  0  0  0  0  0  0  0  0  0
  186.9910  176.5300  137.1380 O   0  0  0  0  0  0  0  0  0  0  0  0
  186.3400  177.5310  136.7400 C   0  0  0  0  0  0  0  0  0  0  0  0
  186.7300  178.1940  135.5430 N   0  0  0  0  0  1  0  0  0  0  0  0
  185.2090  178.0020  137.4720 N   0  0  0  0  0  2  0  0  0  0  0  0
  186.5150  177.8410  140.3230 O   0  0  0  0  0  0  0  0  0  0  0  0
  189.0410  178.0690  139.6270 S   0  0  0  0  0  1  0  0  0  0  0  0
  187.3850  178.7880  139.7820 C   0  0  0  0  0  2  0  0  0  0  0  0
  1  3  1  6  0  0  0
  1 21  1  0  0  0  0
  2 27  1  6  0  0  0
  2 13  1  0  0  0  0
  5 15  1  0  0  0  0
  6  4  1  1  0  0  0
  6 11  1  0  0  0  0
  6  9  1  0  0  0  0
  7  8  1  0  0  0  0
  8  3  1  0  0  0  0
  9  2  1  0  0  0  0
 10  4  1  0  0  0  0
 10  5  1  0  0  0  0
 11  7  1  0  0  0  0
 12 11  1  0  0  0  0
 13 28  1  0  0  0  0
 13  1  1  0  0  0  0
 14 15  1  0  0  0  0
 15  9  1  0  0  0  0
 16 17  1  0  0  0  0
 17 22  2  0  0  0  0
 18 16  1  0  0  0  0
 19 23  2  0  0  0  0
 21 19  1  0  0  0  0
 21 16  1  0  0  0  0
 23 20  1  0  0  0  0
 23 22  1  0  0  0  0
 25 24  2  0  0  0  0
 25 27  1  0  0  0  0
 26 25  1  0  0  0  0
 29 30  1  0  0  0  0
 30 28  1  0  0  0  0
M  END
>  <MODEL>
9

>  <REMARK>
 VINA RESULT:      -3.7      4.693      5.961
  Name = 
  4 active torsions:
  status: ('A' for Active; 'I' for Inactive)
    1  A    between atoms: C_1  and  C_22
    2  A    between atoms: C_4  and  N_25
    3  A    between atoms: O_10  and  C_23
    4  A    between atoms: O_10  and  C_26
                            x       y       z     vdW  Elec       q    Type
                         _______ _______ _______ _____ _____    ______ ____

>  <TORSDO>
F 4

$$$$
