=
 OpenBabel10272400523D

 25 27  0  0  0  0  0  0  0  0999 V2000
  190.9560  176.4670  145.3910 N   0  0  0  0  0  0  0  0  0  0  0  0
  189.7380  176.9630  145.6450 C   0  0  0  0  0  0  0  0  0  0  0  0
  191.5870  176.4980  146.5940 C   0  0  0  0  0  3  0  0  0  0  0  0
  190.8070  177.0160  147.5840 N   0  0  0  0  0  0  0  0  0  0  0  0
  188.4660  177.7960  147.4920 C   0  0  0  0  0  0  0  0  0  0  0  0
  188.3460  178.1610  148.9300 C   0  0  0  0  0  1  0  0  0  0  0  0
  188.6840  177.0570  144.7940 N   0  0  0  0  0  0  0  0  0  0  0  0
  191.4800  175.9150  144.1720 C   0  0  0  0  0  0  0  0  0  0  0  0
  192.2830  174.9450  144.2350 O   0  0  0  0  0  0  0  0  0  0  0  0
  187.3680  177.9270  146.6230 C   0  0  0  0  0  3  0  0  0  0  0  0
  187.4990  177.5530  145.2650 C   0  0  0  0  0  0  0  0  0  0  0  0
  189.6500  177.2970  146.9560 C   0  0  0  0  0  0  0  0  0  0  0  0
  191.1270  176.4720  142.8500 C   0  0  0  0  0  0  0  0  0  0  0  0
  190.4720  177.4520  140.3410 N   0  0  0  0  0  0  0  0  0  0  0  0
  189.8920  176.1630  142.2660 C   0  0  0  0  0  3  0  0  0  0  0  0
  189.5780  176.6710  141.0030 C   0  0  0  0  0  3  0  0  0  0  0  0
  191.6830  177.7570  140.8780 C   0  0  0  0  0  3  0  0  0  0  0  0
  192.0340  177.2680  142.1390 C   0  0  0  0  0  3  0  0  0  0  0  0
  186.3290  177.6630  144.3520 C   0  0  0  0  0  2  0  0  0  0  0  0
  185.3830  178.7390  144.8520 C   0  0  0  0  0  2  0  0  0  0  0  0
  184.4120  179.0980  143.7810 C   0  0  0  0  0  0  0  0  0  0  0  0
  183.3080  179.6180  144.0950 O   0  0  0  0  0  0  0  0  0  0  0  0
  184.7240  178.8230  142.3740 C   0  0  0  0  0  0  0  0  0  0  0  0
  184.2120  177.7260  141.7630 F   0  0  0  0  0  0  0  0  0  0  0  0
  185.4690  179.6020  141.7240 O   0  0  0  0  0  0  0  0  0  0  0  0
  1  2  1  0  0  0  0
  1  3  1  0  0  0  0
  2 12  1  0  0  0  0
  3  4  2  0  0  0  0
  5  6  1  0  0  0  0
  7 11  1  0  0  0  0
  7  2  2  0  0  0  0
  8  9  2  0  0  0  0
  8  1  1  0  0  0  0
 10  5  1  0  0  0  0
 11 10  2  0  0  0  0
 12  5  2  0  0  0  0
 12  4  1  0  0  0  0
 13  8  1  0  0  0  0
 14 17  2  0  0  0  0
 14 16  1  0  0  0  0
 15 13  1  0  0  0  0
 16 15  2  0  0  0  0
 17 18  1  0  0  0  0
 18 13  2  0  0  0  0
 19 20  1  0  0  0  0
 19 11  1  0  0  0  0
 21 22  2  0  0  0  0
 21 20  1  0  0  0  0
 23 21  1  0  0  0  0
 24 23  1  0  0  0  0
 25 23  2  0  0  0  0
M  END
>  <MODEL>
1

>  <REMARK>
 VINA RESULT:      -8.8      0.000      0.000
  Name = 
  5 active torsions:
  status: ('A' for Active; 'I' for Inactive)
    1  A    between atoms: C_2  and  C_21
    2  A    between atoms: C_5  and  C_18
    3  A    between atoms: C_6  and  C_15
    4  A    between atoms: C_6  and  C_23
    5  A    between atoms: C_15  and  C_21
                            x       y       z     vdW  Elec       q    Type
                         _______ _______ _______ _____ _____    ______ ____

>  <TORSDO>
F 5

$$$$
=
 OpenBabel10272400523D

 25 27  0  0  0  0  0  0  0  0999 V2000
  187.3580  178.0340  146.6950 N   0  0  0  0  0  0  0  0  0  0  0  0
  188.3580  177.7900  145.8360 C   0  0  0  0  0  0  0  0  0  0  0  0
  187.8180  177.5680  147.8850 C   0  0  0  0  0  3  0  0  0  0  0  0
  189.0640  177.0240  147.7910 N   0  0  0  0  0  0  0  0  0  0  0  0
  190.5620  176.8590  145.8350 C   0  0  0  0  0  0  0  0  0  0  0  0
  191.6960  176.1980  146.5360 C   0  0  0  0  0  1  0  0  0  0  0  0
  188.4410  178.1530  144.5310 N   0  0  0  0  0  0  0  0  0  0  0  0
  186.1170  178.7240  146.4760 C   0  0  0  0  0  0  0  0  0  0  0  0
  185.6410  179.4350  147.4030 O   0  0  0  0  0  0  0  0  0  0  0  0
  190.6610  177.2020  144.4750 C   0  0  0  0  0  3  0  0  0  0  0  0
  189.5790  177.8510  143.8330 C   0  0  0  0  0  0  0  0  0  0  0  0
  189.3770  177.1810  146.4910 C   0  0  0  0  0  0  0  0  0  0  0  0
  185.3700  178.6010  145.2080 C   0  0  0  0  0  0  0  0  0  0  0  0
  183.9280  178.3180  142.8570 N   0  0  0  0  0  0  0  0  0  0  0  0
  184.0390  179.0320  145.1330 C   0  0  0  0  0  3  0  0  0  0  0  0
  183.3310  178.8860  143.9390 C   0  0  0  0  0  3  0  0  0  0  0  0
  185.2130  177.8780  142.9050 C   0  0  0  0  0  3  0  0  0  0  0  0
  185.9540  178.0070  144.0820 C   0  0  0  0  0  3  0  0  0  0  0  0
  189.6930  178.2400  142.4020 C   0  0  0  0  0  2  0  0  0  0  0  0
  188.7300  177.4200  141.5640 C   0  0  0  0  0  2  0  0  0  0  0  0
  188.3210  178.1930  140.3590 C   0  0  0  0  0  0  0  0  0  0  0  0
  187.1470  178.6420  140.2800 O   0  0  0  0  0  0  0  0  0  0  0  0
  189.2680  178.4060  139.2580 C   0  0  0  0  0  0  0  0  0  0  0  0
  190.4410  177.7250  139.2260 F   0  0  0  0  0  0  0  0  0  0  0  0
  189.0010  179.2230  138.3380 O   0  0  0  0  0  0  0  0  0  0  0  0
  1  3  1  0  0  0  0
  2 12  1  0  0  0  0
  2  1  1  0  0  0  0
  4  3  2  0  0  0  0
  5 12  2  0  0  0  0
  5  6  1  0  0  0  0
  7  2  2  0  0  0  0
  8  1  1  0  0  0  0
  8  9  2  0  0  0  0
 10  5  1  0  0  0  0
 11 10  2  0  0  0  0
 11  7  1  0  0  0  0
 12  4  1  0  0  0  0
 13  8  1  0  0  0  0
 14 17  2  0  0  0  0
 14 16  1  0  0  0  0
 15 13  1  0  0  0  0
 16 15  2  0  0  0  0
 17 18  1  0  0  0  0
 18 13  2  0  0  0  0
 19 11  1  0  0  0  0
 20 19  1  0  0  0  0
 21 20  1  0  0  0  0
 22 21  2  0  0  0  0
 23 21  1  0  0  0  0
 24 23  1  0  0  0  0
 25 23  2  0  0  0  0
M  END
>  <MODEL>
2

>  <REMARK>
 VINA RESULT:      -8.5      2.776      5.253
  Name = 
  5 active torsions:
  status: ('A' for Active; 'I' for Inactive)
    1  A    between atoms: C_2  and  C_21
    2  A    between atoms: C_5  and  C_18
    3  A    between atoms: C_6  and  C_15
    4  A    between atoms: C_6  and  C_23
    5  A    between atoms: C_15  and  C_21
                            x       y       z     vdW  Elec       q    Type
                         _______ _______ _______ _____ _____    ______ ____

>  <TORSDO>
F 5

$$$$
=
 OpenBabel10272400523D

 25 27  0  0  0  0  0  0  0  0999 V2000
  186.0880  178.5300  141.8120 N   0  0  0  0  0  0  0  0  0  0  0  0
  185.5350  178.5860  143.0310 C   0  0  0  0  0  0  0  0  0  0  0  0
  185.0320  178.5970  140.9600 C   0  0  0  0  0  3  0  0  0  0  0  0
  183.8370  178.6750  141.6110 N   0  0  0  0  0  0  0  0  0  0  0  0
  183.3720  178.7850  144.0340 C   0  0  0  0  0  0  0  0  0  0  0  0
  181.8900  178.8840  143.9250 C   0  0  0  0  0  1  0  0  0  0  0  0
  186.1680  178.6510  144.2300 N   0  0  0  0  0  0  0  0  0  0  0  0
  187.4760  178.5120  141.4410 C   0  0  0  0  0  0  0  0  0  0  0  0
  187.8370  179.1120  140.3920 O   0  0  0  0  0  0  0  0  0  0  0  0
  184.0040  178.8270  145.2890 C   0  0  0  0  0  3  0  0  0  0  0  0
  185.4150  178.7540  145.3680 C   0  0  0  0  0  0  0  0  0  0  0  0
  184.1860  178.6680  142.9110 C   0  0  0  0  0  0  0  0  0  0  0  0
  188.4870  177.7870  142.2380 C   0  0  0  0  0  0  0  0  0  0  0  0
  190.4210  176.4170  143.6750 N   0  0  0  0  0  0  0  0  0  0  0  0
  189.7410  178.3650  142.4730 C   0  0  0  0  0  3  0  0  0  0  0  0
  190.7010  177.6610  143.2040 C   0  0  0  0  0  3  0  0  0  0  0  0
  189.2170  175.8270  143.4510 C   0  0  0  0  0  3  0  0  0  0  0  0
  188.2320  176.4990  142.7240 C   0  0  0  0  0  3  0  0  0  0  0  0
  186.0860  178.8290  146.6930 C   0  0  0  0  0  2  0  0  0  0  0  0
  186.7560  177.5040  147.0090 C   0  0  0  0  0  2  0  0  0  0  0  0
  188.0670  177.7440  147.6740 C   0  0  0  0  0  0  0  0  0  0  0  0
  188.0920  178.0870  148.8860 O   0  0  0  0  0  0  0  0  0  0  0  0
  189.3180  177.6090  146.9190 C   0  0  0  0  0  0  0  0  0  0  0  0
  189.6160  178.4880  145.9300 F   0  0  0  0  0  0  0  0  0  0  0  0
  190.1220  176.6770  147.1830 O   0  0  0  0  0  0  0  0  0  0  0  0
  1  2  1  0  0  0  0
  2  7  1  0  0  0  0
  3  4  2  0  0  0  0
  3  1  1  0  0  0  0
  4 12  1  0  0  0  0
  5 10  2  0  0  0  0
  6  5  1  0  0  0  0
  7 11  2  0  0  0  0
  8  1  1  0  0  0  0
  8 13  1  0  0  0  0
  9  8  2  0  0  0  0
 10 11  1  0  0  0  0
 11 19  1  0  0  0  0
 12  2  2  0  0  0  0
 12  5  1  0  0  0  0
 13 15  2  0  0  0  0
 13 18  1  0  0  0  0
 15 16  1  0  0  0  0
 16 14  2  0  0  0  0
 17 14  1  0  0  0  0
 18 17  2  0  0  0  0
 19 20  1  0  0  0  0
 20 21  1  0  0  0  0
 21 22  2  0  0  0  0
 23 25  2  0  0  0  0
 23 21  1  0  0  0  0
 24 23  1  0  0  0  0
M  END
>  <MODEL>
3

>  <REMARK>
 VINA RESULT:      -8.4      3.013      5.686
  Name = 
  5 active torsions:
  status: ('A' for Active; 'I' for Inactive)
    1  A    between atoms: C_2  and  C_21
    2  A    between atoms: C_5  and  C_18
    3  A    between atoms: C_6  and  C_15
    4  A    between atoms: C_6  and  C_23
    5  A    between atoms: C_15  and  C_21
                            x       y       z     vdW  Elec       q    Type
                         _______ _______ _______ _____ _____    ______ ____

>  <TORSDO>
F 5

$$$$
=
 OpenBabel10272400523D

 25 27  0  0  0  0  0  0  0  0999 V2000
  186.0010  178.4810  142.4650 N   0  0  0  0  0  0  0  0  0  0  0  0
  187.2160  178.0190  142.1400 C   0  0  0  0  0  0  0  0  0  0  0  0
  185.5680  179.1040  141.3380 C   0  0  0  0  0  3  0  0  0  0  0  0
  186.4820  179.0610  140.3280 N   0  0  0  0  0  0  0  0  0  0  0  0
  188.6980  177.9720  140.2610 C   0  0  0  0  0  0  0  0  0  0  0  0
  189.0330  178.3410  138.8590 C   0  0  0  0  0  1  0  0  0  0  0  0
  188.0370  177.2380  142.8880 N   0  0  0  0  0  0  0  0  0  0  0  0
  185.2470  178.2910  143.6730 C   0  0  0  0  0  0  0  0  0  0  0  0
  183.9940  178.1730  143.5990 O   0  0  0  0  0  0  0  0  0  0  0  0
  189.5760  177.1850  141.0270 C   0  0  0  0  0  3  0  0  0  0  0  0
  189.2270  176.8280  142.3510 C   0  0  0  0  0  0  0  0  0  0  0  0
  187.5070  178.3710  140.8630 C   0  0  0  0  0  0  0  0  0  0  0  0
  185.8960  178.2600  144.9990 C   0  0  0  0  0  0  0  0  0  0  0  0
  187.0760  178.1450  147.5050 N   0  0  0  0  0  0  0  0  0  0  0  0
  186.8530  177.2800  145.2900 C   0  0  0  0  0  3  0  0  0  0  0  0
  187.4410  177.2410  146.5560 C   0  0  0  0  0  3  0  0  0  0  0  0
  186.1410  179.0980  147.2550 C   0  0  0  0  0  3  0  0  0  0  0  0
  185.5310  179.1690  146.0010 C   0  0  0  0  0  3  0  0  0  0  0  0
  190.1410  175.9700  143.1510 C   0  0  0  0  0  2  0  0  0  0  0  0
  191.3520  176.7730  143.5900 C   0  0  0  0  0  2  0  0  0  0  0  0
  191.1680  177.2430  144.9910 C   0  0  0  0  0  0  0  0  0  0  0  0
  190.5360  178.3110  145.2070 O   0  0  0  0  0  0  0  0  0  0  0  0
  191.7410  176.4850  146.1090 C   0  0  0  0  0  0  0  0  0  0  0  0
  192.3130  175.2750  145.8900 F   0  0  0  0  0  0  0  0  0  0  0  0
  191.7070  176.9520  147.2770 O   0  0  0  0  0  0  0  0  0  0  0  0
  1  8  1  0  0  0  0
  2  1  1  0  0  0  0
  2  7  1  0  0  0  0
  3  1  1  0  0  0  0
  4 12  1  0  0  0  0
  4  3  2  0  0  0  0
  5 12  1  0  0  0  0
  5 10  2  0  0  0  0
  6  5  1  0  0  0  0
  8 13  1  0  0  0  0
  9  8  2  0  0  0  0
 10 11  1  0  0  0  0
 11  7  2  0  0  0  0
 11 19  1  0  0  0  0
 12  2  2  0  0  0  0
 13 15  2  0  0  0  0
 13 18  1  0  0  0  0
 15 16  1  0  0  0  0
 16 14  2  0  0  0  0
 17 14  1  0  0  0  0
 18 17  2  0  0  0  0
 19 20  1  0  0  0  0
 20 21  1  0  0  0  0
 21 22  2  0  0  0  0
 21 23  1  0  0  0  0
 23 25  2  0  0  0  0
 24 23  1  0  0  0  0
M  END
>  <MODEL>
4

>  <REMARK>
 VINA RESULT:      -8.4      2.881      7.114
  Name = 
  5 active torsions:
  status: ('A' for Active; 'I' for Inactive)
    1  A    between atoms: C_2  and  C_21
    2  A    between atoms: C_5  and  C_18
    3  A    between atoms: C_6  and  C_15
    4  A    between atoms: C_6  and  C_23
    5  A    between atoms: C_15  and  C_21
                            x       y       z     vdW  Elec       q    Type
                         _______ _______ _______ _____ _____    ______ ____

>  <TORSDO>
F 5

$$$$
=
 OpenBabel10272400523D

 25 27  0  0  0  0  0  0  0  0999 V2000
  187.6250  177.7320  146.9480 N   0  0  0  0  0  0  0  0  0  0  0  0
  188.7950  177.6360  146.3020 C   0  0  0  0  0  0  0  0  0  0  0  0
  187.8380  177.0840  148.1230 C   0  0  0  0  0  3  0  0  0  0  0  0
  189.0970  176.5720  148.2210 N   0  0  0  0  0  0  0  0  0  0  0  0
  190.9860  176.7340  146.6380 C   0  0  0  0  0  0  0  0  0  0  0  0
  191.9700  175.9770  147.4590 C   0  0  0  0  0  1  0  0  0  0  0  0
  189.1410  178.2040  145.1180 N   0  0  0  0  0  0  0  0  0  0  0  0
  186.4320  178.4380  146.5730 C   0  0  0  0  0  0  0  0  0  0  0  0
  185.7380  178.9870  147.4720 O   0  0  0  0  0  0  0  0  0  0  0  0
  191.3590  177.2910  145.4020 C   0  0  0  0  0  3  0  0  0  0  0  0
  190.4130  178.0260  144.6480 C   0  0  0  0  0  0  0  0  0  0  0  0
  189.6750  176.9380  147.0610 C   0  0  0  0  0  0  0  0  0  0  0  0
  185.9800  178.5140  145.1690 C   0  0  0  0  0  0  0  0  0  0  0  0
  185.0690  178.6300  142.5530 N   0  0  0  0  0  0  0  0  0  0  0  0
  185.0280  179.4690  144.7890 C   0  0  0  0  0  3  0  0  0  0  0  0
  184.5850  179.5150  143.4650 C   0  0  0  0  0  3  0  0  0  0  0  0
  185.9820  177.6840  142.8970 C   0  0  0  0  0  3  0  0  0  0  0  0
  186.4490  177.6060  144.2110 C   0  0  0  0  0  3  0  0  0  0  0  0
  190.8160  178.6410  143.3550 C   0  0  0  0  0  2  0  0  0  0  0  0
  191.6070  177.6410  142.5310 C   0  0  0  0  0  2  0  0  0  0  0  0
  190.8500  177.2890  141.2980 C   0  0  0  0  0  0  0  0  0  0  0  0
  191.4540  177.2460  140.1920 O   0  0  0  0  0  0  0  0  0  0  0  0
  189.4090  177.0210  141.3620 C   0  0  0  0  0  0  0  0  0  0  0  0
  188.9150  176.1720  142.2970 F   0  0  0  0  0  0  0  0  0  0  0  0
  188.6220  177.5760  140.5520 O   0  0  0  0  0  0  0  0  0  0  0  0
  1  3  1  0  0  0  0
  2  1  1  0  0  0  0
  2 12  1  0  0  0  0
  3  4  2  0  0  0  0
  5 12  2  0  0  0  0
  5  6  1  0  0  0  0
  7  2  2  0  0  0  0
  8  1  1  0  0  0  0
  8  9  2  0  0  0  0
 10  5  1  0  0  0  0
 11  7  1  0  0  0  0
 11 10  2  0  0  0  0
 12  4  1  0  0  0  0
 13  8  1  0  0  0  0
 14 17  2  0  0  0  0
 14 16  1  0  0  0  0
 15 13  1  0  0  0  0
 16 15  2  0  0  0  0
 17 18  1  0  0  0  0
 18 13  2  0  0  0  0
 19 11  1  0  0  0  0
 20 19  1  0  0  0  0
 21 23  1  0  0  0  0
 21 20  1  0  0  0  0
 22 21  2  0  0  0  0
 23 24  1  0  0  0  0
 25 23  2  0  0  0  0
M  END
>  <MODEL>
5

>  <REMARK>
 VINA RESULT:      -8.3      2.344      5.280
  Name = 
  5 active torsions:
  status: ('A' for Active; 'I' for Inactive)
    1  A    between atoms: C_2  and  C_21
    2  A    between atoms: C_5  and  C_18
    3  A    between atoms: C_6  and  C_15
    4  A    between atoms: C_6  and  C_23
    5  A    between atoms: C_15  and  C_21
                            x       y       z     vdW  Elec       q    Type
                         _______ _______ _______ _____ _____    ______ ____

>  <TORSDO>
F 5

$$$$
=
 OpenBabel10272400523D

 25 27  0  0  0  0  0  0  0  0999 V2000
  187.6520  177.6910  146.0490 N   0  0  0  0  0  0  0  0  0  0  0  0
  186.9200  177.9730  144.9630 C   0  0  0  0  0  0  0  0  0  0  0  0
  186.8190  177.9510  147.0910 C   0  0  0  0  0  3  0  0  0  0  0  0
  185.5980  178.4020  146.6880 N   0  0  0  0  0  0  0  0  0  0  0  0
  184.7160  178.7190  144.4030 C   0  0  0  0  0  0  0  0  0  0  0  0
  183.3600  179.1860  144.8010 C   0  0  0  0  0  1  0  0  0  0  0  0
  187.2580  177.7890  143.6610 N   0  0  0  0  0  0  0  0  0  0  0  0
  188.9750  177.1380  146.1380 C   0  0  0  0  0  0  0  0  0  0  0  0
  189.2440  176.3460  147.0820 O   0  0  0  0  0  0  0  0  0  0  0  0
  185.0530  178.5610  143.0470 C   0  0  0  0  0  3  0  0  0  0  0  0
  186.3410  178.0950  142.6920 C   0  0  0  0  0  0  0  0  0  0  0  0
  185.6920  178.4030  145.3450 C   0  0  0  0  0  0  0  0  0  0  0  0
  190.0360  177.4950  145.1740 C   0  0  0  0  0  0  0  0  0  0  0  0
  191.9770  178.1940  143.3240 N   0  0  0  0  0  0  0  0  0  0  0  0
  190.4260  178.8320  145.0230 C   0  0  0  0  0  3  0  0  0  0  0  0
  191.4100  179.1640  144.0900 C   0  0  0  0  0  3  0  0  0  0  0  0
  191.6080  176.8920  143.4390 C   0  0  0  0  0  3  0  0  0  0  0  0
  190.6280  176.5200  144.3610 C   0  0  0  0  0  3  0  0  0  0  0  0
  186.6880  177.9000  141.2590 C   0  0  0  0  0  2  0  0  0  0  0  0
  187.9910  178.6110  140.9410 C   0  0  0  0  0  2  0  0  0  0  0  0
  188.4220  178.2840  139.5540 C   0  0  0  0  0  0  0  0  0  0  0  0
  187.6450  178.5220  138.5910 O   0  0  0  0  0  0  0  0  0  0  0  0
  189.7300  177.6630  139.3110 C   0  0  0  0  0  0  0  0  0  0  0  0
  190.6730  177.6560  140.2850 F   0  0  0  0  0  0  0  0  0  0  0  0
  189.9850  177.1350  138.1970 O   0  0  0  0  0  0  0  0  0  0  0  0
  1  8  1  0  0  0  0
  1  3  1  0  0  0  0
  2 12  1  0  0  0  0
  2  1  1  0  0  0  0
  4  3  2  0  0  0  0
  5  6  1  0  0  0  0
  5 12  2  0  0  0  0
  7  2  2  0  0  0  0
  8  9  2  0  0  0  0
 10  5  1  0  0  0  0
 11 10  2  0  0  0  0
 11  7  1  0  0  0  0
 12  4  1  0  0  0  0
 13  8  1  0  0  0  0
 14 17  2  0  0  0  0
 14 16  1  0  0  0  0
 15 13  1  0  0  0  0
 16 15  2  0  0  0  0
 17 18  1  0  0  0  0
 18 13  2  0  0  0  0
 19 11  1  0  0  0  0
 20 19  1  0  0  0  0
 21 20  1  0  0  0  0
 22 21  2  0  0  0  0
 23 21  1  0  0  0  0
 23 24  1  0  0  0  0
 25 23  2  0  0  0  0
M  END
>  <MODEL>
6

>  <REMARK>
 VINA RESULT:      -8.2      2.850      4.602
  Name = 
  5 active torsions:
  status: ('A' for Active; 'I' for Inactive)
    1  A    between atoms: C_2  and  C_21
    2  A    between atoms: C_5  and  C_18
    3  A    between atoms: C_6  and  C_15
    4  A    between atoms: C_6  and  C_23
    5  A    between atoms: C_15  and  C_21
                            x       y       z     vdW  Elec       q    Type
                         _______ _______ _______ _____ _____    ______ ____

>  <TORSDO>
F 5

$$$$
=
 OpenBabel10272400523D

 25 27  0  0  0  0  0  0  0  0999 V2000
  188.1510  178.2530  140.3850 N   0  0  0  0  0  0  0  0  0  0  0  0
  188.4230  177.7590  141.6010 C   0  0  0  0  0  0  0  0  0  0  0  0
  186.9060  178.7830  140.5090 C   0  0  0  0  0  3  0  0  0  0  0  0
  186.3870  178.6190  141.7590 N   0  0  0  0  0  0  0  0  0  0  0  0
  187.4080  177.5960  143.7610 C   0  0  0  0  0  0  0  0  0  0  0  0
  186.2610  177.8280  144.6820 C   0  0  0  0  0  1  0  0  0  0  0  0
  189.5850  177.2070  142.0340 N   0  0  0  0  0  0  0  0  0  0  0  0
  188.9920  178.3250  139.2220 C   0  0  0  0  0  0  0  0  0  0  0  0
  188.8980  179.3270  138.4610 O   0  0  0  0  0  0  0  0  0  0  0  0
  188.5920  176.9970  144.2260 C   0  0  0  0  0  3  0  0  0  0  0  0
  189.6780  176.8060  143.3390 C   0  0  0  0  0  0  0  0  0  0  0  0
  187.3650  177.9730  142.4220 C   0  0  0  0  0  0  0  0  0  0  0  0
  189.9400  177.2470  138.8770 C   0  0  0  0  0  0  0  0  0  0  0  0
  191.7500  175.2650  138.1830 N   0  0  0  0  0  0  0  0  0  0  0  0
  191.2840  177.3470  139.2580 C   0  0  0  0  0  3  0  0  0  0  0  0
  192.1800  176.3350  138.9040 C   0  0  0  0  0  3  0  0  0  0  0  0
  190.4540  175.1490  137.7890 C   0  0  0  0  0  3  0  0  0  0  0  0
  189.5290  176.1400  138.1240 C   0  0  0  0  0  3  0  0  0  0  0  0
  190.9420  176.2000  143.8360 C   0  0  0  0  0  2  0  0  0  0  0  0
  191.5760  177.1060  144.8760 C   0  0  0  0  0  2  0  0  0  0  0  0
  191.4510  176.4930  146.2270 C   0  0  0  0  0  0  0  0  0  0  0  0
  190.5770  176.9240  147.0250 O   0  0  0  0  0  0  0  0  0  0  0  0
  192.3580  175.4150  146.6390 C   0  0  0  0  0  0  0  0  0  0  0  0
  192.5920  174.3670  145.8090 F   0  0  0  0  0  0  0  0  0  0  0  0
  192.9220  175.4530  147.7630 O   0  0  0  0  0  0  0  0  0  0  0  0
  1  3  1  0  0  0  0
  1  2  1  0  0  0  0
  2  7  2  0  0  0  0
  2 12  1  0  0  0  0
  3  4  2  0  0  0  0
  4 12  1  0  0  0  0
  5 10  1  0  0  0  0
  5  6  1  0  0  0  0
  7 11  1  0  0  0  0
  8  1  1  0  0  0  0
  9  8  2  0  0  0  0
 11 19  1  0  0  0  0
 11 10  2  0  0  0  0
 12  5  2  0  0  0  0
 13  8  1  0  0  0  0
 13 15  1  0  0  0  0
 14 16  1  0  0  0  0
 16 15  2  0  0  0  0
 17 18  1  0  0  0  0
 17 14  2  0  0  0  0
 18 13  2  0  0  0  0
 19 20  1  0  0  0  0
 20 21  1  0  0  0  0
 21 23  1  0  0  0  0
 21 22  2  0  0  0  0
 23 25  2  0  0  0  0
 24 23  1  0  0  0  0
M  END
>  <MODEL>
7

>  <REMARK>
 VINA RESULT:      -7.9      3.634      6.164
  Name = 
  5 active torsions:
  status: ('A' for Active; 'I' for Inactive)
    1  A    between atoms: C_2  and  C_21
    2  A    between atoms: C_5  and  C_18
    3  A    between atoms: C_6  and  C_15
    4  A    between atoms: C_6  and  C_23
    5  A    between atoms: C_15  and  C_21
                            x       y       z     vdW  Elec       q    Type
                         _______ _______ _______ _____ _____    ______ ____

>  <TORSDO>
F 5

$$$$
=
 OpenBabel10272400523D

 25 27  0  0  0  0  0  0  0  0999 V2000
  182.7970  178.7090  142.1980 N   0  0  0  0  0  0  0  0  0  0  0  0
  183.9910  178.4540  142.7520 C   0  0  0  0  0  0  0  0  0  0  0  0
  181.9960  179.0060  143.2540 C   0  0  0  0  0  3  0  0  0  0  0  0
  182.6470  178.9250  144.4490 N   0  0  0  0  0  0  0  0  0  0  0  0
  185.0170  178.4090  144.9130 C   0  0  0  0  0  0  0  0  0  0  0  0
  184.9410  178.5480  146.3930 C   0  0  0  0  0  1  0  0  0  0  0  0
  185.1640  178.1990  142.1180 N   0  0  0  0  0  0  0  0  0  0  0  0
  182.4310  178.7740  140.8110 C   0  0  0  0  0  0  0  0  0  0  0  0
  181.5720  179.6210  140.4440 O   0  0  0  0  0  0  0  0  0  0  0  0
  186.2390  178.1180  144.2800 C   0  0  0  0  0  3  0  0  0  0  0  0
  186.2920  178.0120  142.8700 C   0  0  0  0  0  0  0  0  0  0  0  0
  183.9000  178.5780  144.0990 C   0  0  0  0  0  0  0  0  0  0  0  0
  183.0110  177.8570  139.8080 C   0  0  0  0  0  0  0  0  0  0  0  0
  184.0610  176.1690  137.8770 N   0  0  0  0  0  0  0  0  0  0  0  0
  183.9510  178.3310  138.8840 C   0  0  0  0  0  3  0  0  0  0  0  0
  184.4730  177.4640  137.9220 C   0  0  0  0  0  3  0  0  0  0  0  0
  183.1400  175.6850  138.7520 C   0  0  0  0  0  3  0  0  0  0  0  0
  182.5960  176.5220  139.7290 C   0  0  0  0  0  3  0  0  0  0  0  0
  187.5900  177.7340  142.1980 C   0  0  0  0  0  2  0  0  0  0  0  0
  188.3130  176.6100  142.9160 C   0  0  0  0  0  2  0  0  0  0  0  0
  189.7360  176.9860  143.1440 C   0  0  0  0  0  0  0  0  0  0  0  0
  190.6510  176.2710  142.6560 O   0  0  0  0  0  0  0  0  0  0  0  0
  190.0720  178.1630  143.9530 C   0  0  0  0  0  0  0  0  0  0  0  0
  189.3950  178.4180  145.1000 F   0  0  0  0  0  0  0  0  0  0  0  0
  190.9890  178.9450  143.5890 O   0  0  0  0  0  0  0  0  0  0  0  0
  1  2  1  0  0  0  0
  1  3  1  0  0  0  0
  2 12  1  0  0  0  0
  3  4  2  0  0  0  0
  5  6  1  0  0  0  0
  7  2  2  0  0  0  0
  7 11  1  0  0  0  0
  8  1  1  0  0  0  0
  9  8  2  0  0  0  0
 10  5  1  0  0  0  0
 11 10  2  0  0  0  0
 12  4  1  0  0  0  0
 12  5  2  0  0  0  0
 13  8  1  0  0  0  0
 14 16  2  0  0  0  0
 14 17  1  0  0  0  0
 15 13  2  0  0  0  0
 16 15  1  0  0  0  0
 17 18  2  0  0  0  0
 18 13  1  0  0  0  0
 19 11  1  0  0  0  0
 19 20  1  0  0  0  0
 20 21  1  0  0  0  0
 21 23  1  0  0  0  0
 22 21  2  0  0  0  0
 23 24  1  0  0  0  0
 25 23  2  0  0  0  0
M  END
>  <MODEL>
8

>  <REMARK>
 VINA RESULT:      -7.7      3.779      7.214
  Name = 
  5 active torsions:
  status: ('A' for Active; 'I' for Inactive)
    1  A    between atoms: C_2  and  C_21
    2  A    between atoms: C_5  and  C_18
    3  A    between atoms: C_6  and  C_15
    4  A    between atoms: C_6  and  C_23
    5  A    between atoms: C_15  and  C_21
                            x       y       z     vdW  Elec       q    Type
                         _______ _______ _______ _____ _____    ______ ____

>  <TORSDO>
F 5

$$$$
=
 OpenBabel10272400523D

 25 27  0  0  0  0  0  0  0  0999 V2000
  186.8460  178.4180  140.4380 N   0  0  0  0  0  0  0  0  0  0  0  0
  185.8800  178.5020  141.3630 C   0  0  0  0  0  0  0  0  0  0  0  0
  186.1780  178.4120  139.2550 C   0  0  0  0  0  3  0  0  0  0  0  0
  184.8260  178.4710  139.4150 N   0  0  0  0  0  0  0  0  0  0  0  0
  183.4960  178.6610  141.4870 C   0  0  0  0  0  0  0  0  0  0  0  0
  182.1580  178.7000  140.8360 C   0  0  0  0  0  1  0  0  0  0  0  0
  186.0230  178.6380  142.7060 N   0  0  0  0  0  0  0  0  0  0  0  0
  188.2730  178.4370  140.6070 C   0  0  0  0  0  0  0  0  0  0  0  0
  188.9840  179.0070  139.7350 O   0  0  0  0  0  0  0  0  0  0  0  0
  183.6190  178.7760  142.8830 C   0  0  0  0  0  3  0  0  0  0  0  0
  184.9020  178.7590  143.4800 C   0  0  0  0  0  0  0  0  0  0  0  0
  184.6700  178.5290  140.7510 C   0  0  0  0  0  0  0  0  0  0  0  0
  188.9310  177.7820  141.7550 C   0  0  0  0  0  0  0  0  0  0  0  0
  190.2250  176.5900  143.8980 N   0  0  0  0  0  0  0  0  0  0  0  0
  189.1990  178.5130  142.9200 C   0  0  0  0  0  3  0  0  0  0  0  0
  189.8460  177.8930  143.9910 C   0  0  0  0  0  3  0  0  0  0  0  0
  189.9910  175.8620  142.7750 C   0  0  0  0  0  3  0  0  0  0  0  0
  189.3450  176.4460  141.6830 C   0  0  0  0  0  3  0  0  0  0  0  0
  185.0340  178.9100  144.9540 C   0  0  0  0  0  2  0  0  0  0  0  0
  186.1810  178.0560  145.4610 C   0  0  0  0  0  2  0  0  0  0  0  0
  186.4980  178.4170  146.8710 C   0  0  0  0  0  0  0  0  0  0  0  0
  185.7710  179.2490  147.4760 O   0  0  0  0  0  0  0  0  0  0  0  0
  187.6640  177.8310  147.5420 C   0  0  0  0  0  0  0  0  0  0  0  0
  188.4360  176.9210  146.8970 F   0  0  0  0  0  0  0  0  0  0  0  0
  187.9550  178.1660  148.7200 O   0  0  0  0  0  0  0  0  0  0  0  0
  1  8  1  0  0  0  0
  1  2  1  0  0  0  0
  2  7  1  0  0  0  0
  3  4  2  0  0  0  0
  3  1  1  0  0  0  0
  4 12  1  0  0  0  0
  5 10  2  0  0  0  0
  6  5  1  0  0  0  0
  7 11  2  0  0  0  0
  8 13  1  0  0  0  0
  9  8  2  0  0  0  0
 10 11  1  0  0  0  0
 11 19  1  0  0  0  0
 12  2  2  0  0  0  0
 12  5  1  0  0  0  0
 13 15  1  0  0  0  0
 14 16  1  0  0  0  0
 15 16  2  0  0  0  0
 17 14  2  0  0  0  0
 18 13  2  0  0  0  0
 18 17  1  0  0  0  0
 19 20  1  0  0  0  0
 20 21  1  0  0  0  0
 21 22  2  0  0  0  0
 21 23  1  0  0  0  0
 23 25  2  0  0  0  0
 24 23  1  0  0  0  0
M  END
>  <MODEL>
9

>  <REMARK>
 VINA RESULT:      -7.7      3.103      5.884
  Name = 
  5 active torsions:
  status: ('A' for Active; 'I' for Inactive)
    1  A    between atoms: C_2  and  C_21
    2  A    between atoms: C_5  and  C_18
    3  A    between atoms: C_6  and  C_15
    4  A    between atoms: C_6  and  C_23
    5  A    between atoms: C_15  and  C_21
                            x       y       z     vdW  Elec       q    Type
                         _______ _______ _______ _____ _____    ______ ____

>  <TORSDO>
F 5

$$$$
