=
 OpenBabel10272400493D

 25 28  0  0  1  0  0  0  0  0999 V2000
  187.4300  177.7840  145.4210 C   0  0  0  0  0  0  0  0  0  0  0  0
  188.6420  177.1740  144.7620 C   0  0  1  0  0  3  0  0  0  0  0  0
  188.5570  177.8540  147.7010 C   0  0  0  0  0  2  0  0  0  0  0  0
  186.2090  178.0720  144.7930 C   0  0  0  0  0  0  0  0  0  0  0  0
  190.7370  177.8120  141.6870 N   0  0  0  0  0  2  0  0  0  0  0  0
  183.6640  178.7650  143.8820 C   0  0  0  0  0  3  0  0  0  0  0  0
  189.4450  176.7380  147.1510 C   0  0  0  0  0  2  0  0  0  0  0  0
  185.2600  178.6000  145.6620 C   0  0  0  0  0  0  0  0  0  0  0  0
  183.9840  178.9550  145.2350 C   0  0  0  0  0  3  0  0  0  0  0  0
  191.0520  176.7520  145.2190 C   0  0  0  0  0  0  0  0  0  0  0  0
  191.9750  176.3360  145.9700 O   0  0  0  0  0  0  0  0  0  0  0  0
  189.1270  178.0610  143.6130 C   0  0  0  0  0  2  0  0  0  0  0  0
  184.6150  178.2280  142.9930 C   0  0  0  0  0  3  0  0  0  0  0  0
  187.3970  178.0600  146.7870 C   0  0  0  0  0  0  0  0  0  0  0  0
  185.8960  178.7050  147.2150 S   0  0  0  0  0  0  0  0  0  0  0  0
  191.3200  177.0080  143.8380 N   0  0  0  0  0  0  0  0  0  0  0  0
  185.8960  177.8770  143.4450 C   0  0  0  0  0  3  0  0  0  0  0  0
  190.4360  177.5660  143.0610 C   0  0  0  0  0  0  0  0  0  0  0  0
  189.7310  176.9680  145.7330 N   0  0  0  0  0  0  0  0  0  0  0  0
  191.9920  177.3990  141.0770 C   0  0  0  0  0  2  0  0  0  0  0  0
  191.7640  177.0200  139.6220 C   0  0  0  0  0  2  0  0  0  0  0  0
  190.2910  176.7360  139.3490 C   0  0  0  0  0  2  0  0  0  0  0  0
  189.7120  177.7280  138.3910 C   0  0  0  0  0  0  0  0  0  0  0  0
  189.3330  178.9500  138.8410 F   0  0  0  0  0  0  0  0  0  0  0  0
  189.7040  177.4770  137.0840 C   0  0  0  0  0  2  0  0  0  0  0  0
  1 14  2  0  0  0  0
  2 12  1  6  0  0  0
  2  1  1  0  0  0  0
  2 19  1  0  0  0  0
  4  1  1  0  0  0  0
  4  8  1  0  0  0  0
  5 18  1  0  0  0  0
  6  9  1  0  0  0  0
  7  3  1  0  0  0  0
  8 15  1  0  0  0  0
  9  8  2  0  0  0  0
 10 19  1  0  0  0  0
 10 11  2  0  0  0  0
 13 17  1  0  0  0  0
 13  6  2  0  0  0  0
 14 15  1  0  0  0  0
 14  3  1  0  0  0  0
 16 10  1  0  0  0  0
 17  4  2  0  0  0  0
 18 12  1  0  0  0  0
 18 16  2  0  0  0  0
 19  7  1  0  0  0  0
 20  5  1  0  0  0  0
 21 20  1  0  0  0  0
 22 21  1  0  0  0  0
 23 24  1  0  0  0  0
 23 22  1  0  0  0  0
 25 23  2  0  0  0  0
M  END
>  <MODEL>
1

>  <REMARK>
 VINA RESULT:      -9.3      0.000      0.000
  Name = 
  4 active torsions:
  status: ('A' for Active; 'I' for Inactive)
    1  A    between atoms: C_2  and  C_25
    2  A    between atoms: N_6  and  C_15
    3  A    between atoms: C_15  and  C_21
    4  A    between atoms: C_21  and  C_25
                            x       y       z     vdW  Elec       q    Type
                         _______ _______ _______ _____ _____    ______ ____

>  <TORSDO>
F 4

$$$$
=
 OpenBabel10272400493D

 25 28  0  0  1  0  0  0  0  0999 V2000
  187.0940  177.7810  144.6690 C   0  0  0  0  0  0  0  0  0  0  0  0
  188.1360  177.1400  143.7860 C   0  0  1  0  0  3  0  0  0  0  0  0
  188.6410  177.7950  146.6890 C   0  0  0  0  0  2  0  0  0  0  0  0
  185.7850  178.1120  144.2890 C   0  0  0  0  0  0  0  0  0  0  0  0
  189.6180  177.7440  140.3670 N   0  0  0  0  0  2  0  0  0  0  0  0
  183.1350  178.8910  143.8880 C   0  0  0  0  0  3  0  0  0  0  0  0
  189.3700  176.6580  145.9740 C   0  0  0  0  0  2  0  0  0  0  0  0
  185.0390  178.6600  145.3270 C   0  0  0  0  0  0  0  0  0  0  0  0
  183.7150  179.0580  145.1560 C   0  0  0  0  0  3  0  0  0  0  0  0
  190.5740  176.6400  143.7680 C   0  0  0  0  0  0  0  0  0  0  0  0
  191.6110  176.1900  144.3240 O   0  0  0  0  0  0  0  0  0  0  0  0
  188.4180  178.0230  142.5680 C   0  0  0  0  0  2  0  0  0  0  0  0
  183.8790  178.3340  142.8310 C   0  0  0  0  0  3  0  0  0  0  0  0
  187.3330  178.0450  146.0160 C   0  0  0  0  0  0  0  0  0  0  0  0
  185.9650  178.7310  146.7280 S   0  0  0  0  0  0  0  0  0  0  0  0
  190.5790  176.9010  142.3620 N   0  0  0  0  0  0  0  0  0  0  0  0
  185.2110  177.9390  143.0260 C   0  0  0  0  0  3  0  0  0  0  0  0
  189.5800  177.4930  141.7720 C   0  0  0  0  0  0  0  0  0  0  0  0
  189.3850  176.8920  144.5280 N   0  0  0  0  0  0  0  0  0  0  0  0
  190.7180  177.2980  139.5250 C   0  0  0  0  0  2  0  0  0  0  0  0
  190.2280  177.0760  138.1020 C   0  0  0  0  0  2  0  0  0  0  0  0
  188.7290  177.3280  137.9880 C   0  0  0  0  0  2  0  0  0  0  0  0
  188.4400  178.5220  137.1340 C   0  0  0  0  0  0  0  0  0  0  0  0
  189.3080  179.5640  137.1240 F   0  0  0  0  0  0  0  0  0  0  0  0
  187.4210  178.5070  136.2770 C   0  0  0  0  0  2  0  0  0  0  0  0
  1 14  2  0  0  0  0
  2 12  1  6  0  0  0
  2 19  1  0  0  0  0
  2  1  1  0  0  0  0
  4  1  1  0  0  0  0
  4  8  1  0  0  0  0
  5 18  1  0  0  0  0
  6  9  1  0  0  0  0
  7  3  1  0  0  0  0
  8 15  1  0  0  0  0
  9  8  2  0  0  0  0
 10 11  2  0  0  0  0
 10 19  1  0  0  0  0
 13 17  1  0  0  0  0
 13  6  2  0  0  0  0
 14  3  1  0  0  0  0
 14 15  1  0  0  0  0
 16 10  1  0  0  0  0
 17  4  2  0  0  0  0
 18 16  2  0  0  0  0
 18 12  1  0  0  0  0
 19  7  1  0  0  0  0
 20  5  1  0  0  0  0
 21 20  1  0  0  0  0
 22 21  1  0  0  0  0
 23 22  1  0  0  0  0
 24 23  1  0  0  0  0
 25 23  2  0  0  0  0
M  END
>  <MODEL>
2

>  <REMARK>
 VINA RESULT:      -8.8      1.211      1.433
  Name = 
  4 active torsions:
  status: ('A' for Active; 'I' for Inactive)
    1  A    between atoms: C_2  and  C_25
    2  A    between atoms: N_6  and  C_15
    3  A    between atoms: C_15  and  C_21
    4  A    between atoms: C_21  and  C_25
                            x       y       z     vdW  Elec       q    Type
                         _______ _______ _______ _____ _____    ______ ____

>  <TORSDO>
F 4

$$$$
=
 OpenBabel10272400493D

 25 28  0  0  1  0  0  0  0  0999 V2000
  187.4220  177.7910  145.3620 C   0  0  0  0  0  0  0  0  0  0  0  0
  188.6270  177.1720  144.7000 C   0  0  1  0  0  3  0  0  0  0  0  0
  188.5650  177.8780  147.6330 C   0  0  0  0  0  2  0  0  0  0  0  0
  186.1970  178.0770  144.7400 C   0  0  0  0  0  0  0  0  0  0  0  0
  190.7020  177.7790  141.6050 N   0  0  0  0  0  2  0  0  0  0  0  0
  183.6480  178.7680  143.8400 C   0  0  0  0  0  3  0  0  0  0  0  0
  189.4460  176.7550  147.0870 C   0  0  0  0  0  2  0  0  0  0  0  0
  185.2560  178.6140  145.6110 C   0  0  0  0  0  0  0  0  0  0  0  0
  183.9770  178.9690  145.1900 C   0  0  0  0  0  3  0  0  0  0  0  0
  191.0400  176.7480  145.1440 C   0  0  0  0  0  0  0  0  0  0  0  0
  191.9670  176.3360  145.8910 O   0  0  0  0  0  0  0  0  0  0  0  0
  189.1070  178.0480  143.5390 C   0  0  0  0  0  2  0  0  0  0  0  0
  184.5900  178.2210  142.9490 C   0  0  0  0  0  3  0  0  0  0  0  0
  187.3980  178.0790  146.7250 C   0  0  0  0  0  0  0  0  0  0  0  0
  185.9020  178.7310  147.1580 S   0  0  0  0  0  0  0  0  0  0  0  0
  191.2980  176.9910  143.7590 N   0  0  0  0  0  0  0  0  0  0  0  0
  185.8740  177.8710  143.3960 C   0  0  0  0  0  3  0  0  0  0  0  0
  190.4100  177.5450  142.9830 C   0  0  0  0  0  0  0  0  0  0  0  0
  189.7230  176.9720  145.6650 N   0  0  0  0  0  0  0  0  0  0  0  0
  191.9520  177.3560  140.9900 C   0  0  0  0  0  2  0  0  0  0  0  0
  191.7170  176.9870  139.5340 C   0  0  0  0  0  2  0  0  0  0  0  0
  193.0350  176.7950  138.7930 C   0  0  0  0  0  2  0  0  0  0  0  0
  192.8990  175.7980  137.6860 C   0  0  0  0  0  0  0  0  0  0  0  0
  193.8700  175.7100  136.7420 F   0  0  0  0  0  0  0  0  0  0  0  0
  191.9160  174.9010  137.7030 C   0  0  0  0  0  2  0  0  0  0  0  0
  1 14  2  0  0  0  0
  2 12  1  6  0  0  0
  2  1  1  0  0  0  0
  2 19  1  0  0  0  0
  4  1  1  0  0  0  0
  4  8  1  0  0  0  0
  5 18  1  0  0  0  0
  6  9  1  0  0  0  0
  7  3  1  0  0  0  0
  8 15  1  0  0  0  0
  9  8  2  0  0  0  0
 10 19  1  0  0  0  0
 10 11  2  0  0  0  0
 13 17  1  0  0  0  0
 13  6  2  0  0  0  0
 14 15  1  0  0  0  0
 14  3  1  0  0  0  0
 16 10  1  0  0  0  0
 17  4  2  0  0  0  0
 18 12  1  0  0  0  0
 18 16  2  0  0  0  0
 19  7  1  0  0  0  0
 20  5  1  0  0  0  0
 21 20  1  0  0  0  0
 22 21  1  0  0  0  0
 23 25  2  0  0  0  0
 23 22  1  0  0  0  0
 24 23  1  0  0  0  0
M  END
>  <MODEL>
3

>  <REMARK>
 VINA RESULT:      -8.8      1.468      1.670
  Name = 
  4 active torsions:
  status: ('A' for Active; 'I' for Inactive)
    1  A    between atoms: C_2  and  C_25
    2  A    between atoms: N_6  and  C_15
    3  A    between atoms: C_15  and  C_21
    4  A    between atoms: C_21  and  C_25
                            x       y       z     vdW  Elec       q    Type
                         _______ _______ _______ _____ _____    ______ ____

>  <TORSDO>
F 4

$$$$
=
 OpenBabel10272400493D

 25 28  0  0  1  0  0  0  0  0999 V2000
  188.9610  177.5650  143.3050 C   0  0  0  0  0  0  0  0  0  0  0  0
  188.1490  177.4940  142.0360 C   0  0  1  0  0  3  0  0  0  0  0  0
  191.1660  177.5670  142.0340 C   0  0  0  0  0  2  0  0  0  0  0  0
  188.4490  177.5670  144.6110 C   0  0  0  0  0  0  0  0  0  0  0  0
  185.1940  179.3030  140.5360 N   0  0  0  0  0  2  0  0  0  0  0  0
  187.7890  177.5850  147.3220 C   0  0  0  0  0  3  0  0  0  0  0  0
  190.3690  176.9030  140.9120 C   0  0  0  0  0  2  0  0  0  0  0  0
  189.4410  177.6050  145.5850 C   0  0  0  0  0  0  0  0  0  0  0  0
  189.1410  177.6150  146.9450 C   0  0  0  0  0  3  0  0  0  0  0  0
  188.4240  177.7690  139.5770 C   0  0  0  0  0  0  0  0  0  0  0  0
  189.0400  177.5330  138.5040 O   0  0  0  0  0  0  0  0  0  0  0  0
  187.1870  178.6820  141.9520 C   0  0  0  0  0  2  0  0  0  0  0  0
  186.7760  177.5430  146.3460 C   0  0  0  0  0  3  0  0  0  0  0  0
  190.3550  177.5630  143.2870 C   0  0  0  0  0  0  0  0  0  0  0  0
  190.9590  177.6180  144.8620 S   0  0  0  0  0  0  0  0  0  0  0  0
  187.1150  178.3430  139.5340 N   0  0  0  0  0  0  0  0  0  0  0  0
  187.1020  177.5330  144.9810 C   0  0  0  0  0  3  0  0  0  0  0  0
  186.5000  178.7290  140.6150 C   0  0  0  0  0  0  0  0  0  0  0  0
  189.0180  177.4650  140.8460 N   0  0  0  0  0  0  0  0  0  0  0  0
  184.4680  179.4200  139.2800 C   0  0  0  0  0  2  0  0  0  0  0  0
  182.9820  179.2060  139.5160 C   0  0  0  0  0  2  0  0  0  0  0  0
  182.7390  178.1800  140.6170 C   0  0  0  0  0  2  0  0  0  0  0  0
  181.8280  178.7190  141.6740 C   0  0  0  0  0  0  0  0  0  0  0  0
  182.2250  178.7020  142.9720 F   0  0  0  0  0  0  0  0  0  0  0  0
  180.7030  179.3460  141.3400 C   0  0  0  0  0  2  0  0  0  0  0  0
  1  4  1  0  0  0  0
  2 12  1  6  0  0  0
  2  1  1  0  0  0  0
  3 14  1  0  0  0  0
  4 17  2  0  0  0  0
  4  8  1  0  0  0  0
  5 18  1  0  0  0  0
  7  3  1  0  0  0  0
  8  9  2  0  0  0  0
  9  6  1  0  0  0  0
 10 19  1  0  0  0  0
 11 10  2  0  0  0  0
 13  6  2  0  0  0  0
 14  1  2  0  0  0  0
 14 15  1  0  0  0  0
 15  8  1  0  0  0  0
 16 10  1  0  0  0  0
 16 18  2  0  0  0  0
 17 13  1  0  0  0  0
 18 12  1  0  0  0  0
 19  7  1  0  0  0  0
 19  2  1  0  0  0  0
 20 21  1  0  0  0  0
 20  5  1  0  0  0  0
 21 22  1  0  0  0  0
 22 23  1  0  0  0  0
 23 24  1  0  0  0  0
 25 23  2  0  0  0  0
M  END
>  <MODEL>
4

>  <REMARK>
 VINA RESULT:      -8.6      3.551      6.118
  Name = 
  4 active torsions:
  status: ('A' for Active; 'I' for Inactive)
    1  A    between atoms: C_2  and  C_25
    2  A    between atoms: N_6  and  C_15
    3  A    between atoms: C_15  and  C_21
    4  A    between atoms: C_21  and  C_25
                            x       y       z     vdW  Elec       q    Type
                         _______ _______ _______ _____ _____    ______ ____

>  <TORSDO>
F 4

$$$$
=
 OpenBabel10272400493D

 25 28  0  0  1  0  0  0  0  0999 V2000
  187.0730  177.8040  143.9520 C   0  0  0  0  0  0  0  0  0  0  0  0
  187.8530  177.4130  142.7220 C   0  0  1  0  0  3  0  0  0  0  0  0
  189.0810  177.4700  145.4780 C   0  0  0  0  0  2  0  0  0  0  0  0
  185.7130  178.1450  143.9900 C   0  0  0  0  0  0  0  0  0  0  0  0
  188.4260  178.7880  139.2530 N   0  0  0  0  0  2  0  0  0  0  0  0
  183.0530  178.8620  144.4360 C   0  0  0  0  0  3  0  0  0  0  0  0
  189.5980  176.5430  144.3780 C   0  0  0  0  0  2  0  0  0  0  0  0
  185.2570  178.4270  145.2730 C   0  0  0  0  0  0  0  0  0  0  0  0
  183.9360  178.7880  145.5250 C   0  0  0  0  0  3  0  0  0  0  0  0
  190.2040  177.0450  141.9910 C   0  0  0  0  0  0  0  0  0  0  0  0
  191.3450  176.5380  142.1620 O   0  0  0  0  0  0  0  0  0  0  0  0
  187.8240  178.5430  141.6900 C   0  0  0  0  0  2  0  0  0  0  0  0
  183.5010  178.5750  143.1330 C   0  0  0  0  0  3  0  0  0  0  0  0
  187.6470  177.7920  145.2210 C   0  0  0  0  0  0  0  0  0  0  0  0
  186.5080  178.2470  146.3810 S   0  0  0  0  0  0  0  0  0  0  0  0
  189.8540  177.5940  140.7180 N   0  0  0  0  0  0  0  0  0  0  0  0
  184.8370  178.2120  142.9020 C   0  0  0  0  0  3  0  0  0  0  0  0
  188.7430  178.2480  140.5360 C   0  0  0  0  0  0  0  0  0  0  0  0
  189.2480  177.0750  143.0580 N   0  0  0  0  0  0  0  0  0  0  0  0
  189.2730  178.5810  138.0880 C   0  0  0  0  0  2  0  0  0  0  0  0
  188.4200  178.2490  136.8740 C   0  0  0  0  0  2  0  0  0  0  0  0
  187.4970  177.0680  137.1530 C   0  0  0  0  0  2  0  0  0  0  0  0
  186.0590  177.4490  136.9930 C   0  0  0  0  0  0  0  0  0  0  0  0
  185.5310  178.4150  137.7860 F   0  0  0  0  0  0  0  0  0  0  0  0
  185.3400  176.9570  135.9870 C   0  0  0  0  0  2  0  0  0  0  0  0
  1  4  1  0  0  0  0
  1 14  2  0  0  0  0
  2 12  1  6  0  0  0
  2 19  1  0  0  0  0
  2  1  1  0  0  0  0
  4  8  1  0  0  0  0
  5 18  1  0  0  0  0
  6  9  1  0  0  0  0
  7  3  1  0  0  0  0
  8  9  2  0  0  0  0
  8 15  1  0  0  0  0
 10 11  2  0  0  0  0
 10 19  1  0  0  0  0
 13  6  2  0  0  0  0
 14  3  1  0  0  0  0
 14 15  1  0  0  0  0
 16 10  1  0  0  0  0
 17 13  1  0  0  0  0
 17  4  2  0  0  0  0
 18 16  2  0  0  0  0
 18 12  1  0  0  0  0
 19  7  1  0  0  0  0
 20  5  1  0  0  0  0
 21 22  1  0  0  0  0
 21 20  1  0  0  0  0
 23 22  1  0  0  0  0
 23 24  1  0  0  0  0
 25 23  2  0  0  0  0
M  END
>  <MODEL>
5

>  <REMARK>
 VINA RESULT:      -8.6      2.140      2.862
  Name = 
  4 active torsions:
  status: ('A' for Active; 'I' for Inactive)
    1  A    between atoms: C_2  and  C_25
    2  A    between atoms: N_6  and  C_15
    3  A    between atoms: C_15  and  C_21
    4  A    between atoms: C_21  and  C_25
                            x       y       z     vdW  Elec       q    Type
                         _______ _______ _______ _____ _____    ______ ____

>  <TORSDO>
F 4

$$$$
=
 OpenBabel10272400493D

 25 28  0  0  1  0  0  0  0  0999 V2000
  188.4290  177.3460  144.0810 C   0  0  0  0  0  0  0  0  0  0  0  0
  188.3530  177.0230  142.6110 C   0  0  1  0  0  3  0  0  0  0  0  0
  190.9220  176.8450  144.1850 C   0  0  0  0  0  2  0  0  0  0  0  0
  187.3520  177.7210  144.8990 C   0  0  0  0  0  0  0  0  0  0  0  0
  186.9570  178.6280  139.4920 N   0  0  0  0  0  2  0  0  0  0  0  0
  185.4600  178.4800  146.8050 C   0  0  0  0  0  3  0  0  0  0  0  0
  190.6670  175.9870  142.9470 C   0  0  0  0  0  2  0  0  0  0  0  0
  187.7180  177.9230  146.2250 C   0  0  0  0  0  0  0  0  0  0  0  0
  186.7960  178.3020  147.1970 C   0  0  0  0  0  3  0  0  0  0  0  0
  189.8530  176.6420  140.6610 C   0  0  0  0  0  0  0  0  0  0  0  0
  190.8570  176.0920  140.1330 O   0  0  0  0  0  0  0  0  0  0  0  0
  187.8200  178.2250  141.8270 C   0  0  0  0  0  2  0  0  0  0  0  0
  185.0760  178.2750  145.4660 C   0  0  0  0  0  3  0  0  0  0  0  0
  189.6170  177.2260  144.8000 C   0  0  0  0  0  0  0  0  0  0  0  0
  189.3620  177.6280  146.4200 S   0  0  0  0  0  0  0  0  0  0  0  0
  188.8830  177.2910  139.8360 N   0  0  0  0  0  0  0  0  0  0  0  0
  186.0220  177.8920  144.5030 C   0  0  0  0  0  3  0  0  0  0  0  0
  187.9070  177.9880  140.3440 C   0  0  0  0  0  0  0  0  0  0  0  0
  189.6690  176.6230  142.0820 N   0  0  0  0  0  0  0  0  0  0  0  0
  186.9850  178.4820  138.0440 C   0  0  0  0  0  2  0  0  0  0  0  0
  185.7110  177.8060  137.5630 C   0  0  0  0  0  2  0  0  0  0  0  0
  184.5190  178.1940  138.4300 C   0  0  0  0  0  2  0  0  0  0  0  0
  183.5720  177.0490  138.6020 C   0  0  0  0  0  0  0  0  0  0  0  0
  183.1580  176.7040  139.8470 F   0  0  0  0  0  0  0  0  0  0  0  0
  183.0200  176.4650  137.5400 C   0  0  0  0  0  2  0  0  0  0  0  0
  1 14  2  0  0  0  0
  1  4  1  0  0  0  0
  2 12  1  6  0  0  0
  2  1  1  0  0  0  0
  3 14  1  0  0  0  0
  4  8  1  0  0  0  0
  5 18  1  0  0  0  0
  6  9  1  0  0  0  0
  7  3  1  0  0  0  0
  8 15  1  0  0  0  0
  8  9  2  0  0  0  0
 10 19  1  0  0  0  0
 11 10  2  0  0  0  0
 13  6  2  0  0  0  0
 14 15  1  0  0  0  0
 16 18  2  0  0  0  0
 16 10  1  0  0  0  0
 17  4  2  0  0  0  0
 17 13  1  0  0  0  0
 18 12  1  0  0  0  0
 19  2  1  0  0  0  0
 19  7  1  0  0  0  0
 20  5  1  0  0  0  0
 21 20  1  0  0  0  0
 21 22  1  0  0  0  0
 22 23  1  0  0  0  0
 23 24  1  0  0  0  0
 25 23  2  0  0  0  0
M  END
>  <MODEL>
6

>  <REMARK>
 VINA RESULT:      -8.4      3.163      4.395
  Name = 
  4 active torsions:
  status: ('A' for Active; 'I' for Inactive)
    1  A    between atoms: C_2  and  C_25
    2  A    between atoms: N_6  and  C_15
    3  A    between atoms: C_15  and  C_21
    4  A    between atoms: C_21  and  C_25
                            x       y       z     vdW  Elec       q    Type
                         _______ _______ _______ _____ _____    ______ ____

>  <TORSDO>
F 4

$$$$
=
 OpenBabel10272400493D

 25 28  0  0  1  0  0  0  0  0999 V2000
  188.3550  177.7210  143.5310 C   0  0  0  0  0  0  0  0  0  0  0  0
  188.8250  177.9740  142.1200 C   0  0  1  0  0  3  0  0  0  0  0  0
  185.9140  178.0830  142.9120 C   0  0  0  0  0  2  0  0  0  0  0  0
  189.1770  177.4490  144.6350 C   0  0  0  0  0  0  0  0  0  0  0  0
  191.0970  176.2970  139.6150 N   0  0  0  0  0  2  0  0  0  0  0  0
  190.4930  176.8950  147.0330 C   0  0  0  0  0  3  0  0  0  0  0  0
  186.4680  178.8920  141.7400 C   0  0  0  0  0  2  0  0  0  0  0  0
  188.4650  177.2930  145.8190 C   0  0  0  0  0  0  0  0  0  0  0  0
  189.0950  177.0150  147.0300 C   0  0  0  0  0  3  0  0  0  0  0  0
  187.9110  178.1710  139.8130 C   0  0  0  0  0  0  0  0  0  0  0  0
  187.0730  178.6360  138.9950 O   0  0  0  0  0  0  0  0  0  0  0  0
  189.6030  176.7660  141.5920 C   0  0  0  0  0  2  0  0  0  0  0  0
  191.2260  177.0550  145.8420 C   0  0  0  0  0  3  0  0  0  0  0  0
  187.0110  177.8090  143.8860 C   0  0  0  0  0  0  0  0  0  0  0  0
  186.8210  177.5030  145.5350 S   0  0  0  0  0  0  0  0  0  0  0  0
  189.0990  177.5380  139.3300 N   0  0  0  0  0  0  0  0  0  0  0  0
  190.5700  177.3340  144.6330 C   0  0  0  0  0  3  0  0  0  0  0  0
  189.9220  176.9240  140.1310 C   0  0  0  0  0  0  0  0  0  0  0  0
  187.6920  178.2720  141.2260 N   0  0  0  0  0  0  0  0  0  0  0  0
  191.4670  176.3690  138.2100 C   0  0  0  0  0  2  0  0  0  0  0  0
  192.9650  176.1590  138.0530 C   0  0  0  0  0  2  0  0  0  0  0  0
  193.2850  174.7160  137.6810 C   0  0  0  0  0  2  0  0  0  0  0  0
  194.7590  174.4630  137.6930 C   0  0  0  0  0  0  0  0  0  0  0  0
  195.5620  175.1430  136.8350 F   0  0  0  0  0  0  0  0  0  0  0  0
  195.3040  173.6930  138.6330 C   0  0  0  0  0  2  0  0  0  0  0  0
  1 14  2  0  0  0  0
  1  4  1  0  0  0  0
  2 12  1  6  0  0  0
  2  1  1  0  0  0  0
  3 14  1  0  0  0  0
  4  8  1  0  0  0  0
  5 18  1  0  0  0  0
  7  3  1  0  0  0  0
  8  9  2  0  0  0  0
  9  6  1  0  0  0  0
 10 19  1  0  0  0  0
 11 10  2  0  0  0  0
 13  6  2  0  0  0  0
 14 15  1  0  0  0  0
 15  8  1  0  0  0  0
 16 10  1  0  0  0  0
 16 18  2  0  0  0  0
 17  4  2  0  0  0  0
 17 13  1  0  0  0  0
 18 12  1  0  0  0  0
 19  7  1  0  0  0  0
 19  2  1  0  0  0  0
 20  5  1  0  0  0  0
 21 20  1  0  0  0  0
 22 23  1  0  0  0  0
 22 21  1  0  0  0  0
 23 25  2  0  0  0  0
 24 23  1  0  0  0  0
M  END
>  <MODEL>
7

>  <REMARK>
 VINA RESULT:      -8.4      3.166      5.117
  Name = 
  4 active torsions:
  status: ('A' for Active; 'I' for Inactive)
    1  A    between atoms: C_2  and  C_25
    2  A    between atoms: N_6  and  C_15
    3  A    between atoms: C_15  and  C_21
    4  A    between atoms: C_21  and  C_25
                            x       y       z     vdW  Elec       q    Type
                         _______ _______ _______ _____ _____    ______ ____

>  <TORSDO>
F 4

$$$$
=
 OpenBabel10272400493D

 25 28  0  0  1  0  0  0  0  0999 V2000
  189.0030  177.6010  143.2890 C   0  0  0  0  0  0  0  0  0  0  0  0
  188.1710  177.5410  142.0330 C   0  0  1  0  0  3  0  0  0  0  0  0
  191.1880  177.5690  141.9860 C   0  0  0  0  0  2  0  0  0  0  0  0
  188.5110  177.6110  144.6030 C   0  0  0  0  0  0  0  0  0  0  0  0
  185.2210  179.3940  140.5760 N   0  0  0  0  0  2  0  0  0  0  0  0
  187.8920  177.6400  147.3240 C   0  0  0  0  0  3  0  0  0  0  0  0
  190.3650  176.9170  140.8770 C   0  0  0  0  0  2  0  0  0  0  0  0
  189.5170  177.6340  145.5620 C   0  0  0  0  0  0  0  0  0  0  0  0
  189.2380  177.6500  146.9270 C   0  0  0  0  0  3  0  0  0  0  0  0
  188.4130  177.8120  139.5700 C   0  0  0  0  0  0  0  0  0  0  0  0
  189.0100  177.5660  138.4880 O   0  0  0  0  0  0  0  0  0  0  0  0
  187.2260  178.7430  141.9630 C   0  0  0  0  0  2  0  0  0  0  0  0
  186.8640  177.6120  146.3630 C   0  0  0  0  0  3  0  0  0  0  0  0
  190.3960  177.5780  143.2510 C   0  0  0  0  0  0  0  0  0  0  0  0
  191.0240  177.6250  144.8170 S   0  0  0  0  0  0  0  0  0  0  0  0
  187.1120  178.4040  139.5460 N   0  0  0  0  0  0  0  0  0  0  0  0
  187.1680  177.5970  144.9930 C   0  0  0  0  0  3  0  0  0  0  0  0
  186.5190  178.8000  140.6360 C   0  0  0  0  0  0  0  0  0  0  0  0
  189.0210  177.5000  140.8300 N   0  0  0  0  0  0  0  0  0  0  0  0
  184.4790  179.5210  139.3310 C   0  0  0  0  0  2  0  0  0  0  0  0
  183.1820  178.7310  139.4150 C   0  0  0  0  0  2  0  0  0  0  0  0
  183.3930  177.2780  139.0060 C   0  0  0  0  0  2  0  0  0  0  0  0
  184.0070  177.1760  137.6460 C   0  0  0  0  0  0  0  0  0  0  0  0
  185.3060  176.8030  137.5250 F   0  0  0  0  0  0  0  0  0  0  0  0
  183.2550  177.3020  136.5550 C   0  0  0  0  0  2  0  0  0  0  0  0
  1  4  1  0  0  0  0
  2 12  1  6  0  0  0
  2  1  1  0  0  0  0
  3 14  1  0  0  0  0
  4 17  2  0  0  0  0
  4  8  1  0  0  0  0
  5 18  1  0  0  0  0
  7  3  1  0  0  0  0
  8  9  2  0  0  0  0
  9  6  1  0  0  0  0
 10 19  1  0  0  0  0
 11 10  2  0  0  0  0
 13  6  2  0  0  0  0
 14  1  2  0  0  0  0
 14 15  1  0  0  0  0
 15  8  1  0  0  0  0
 16 10  1  0  0  0  0
 16 18  2  0  0  0  0
 17 13  1  0  0  0  0
 18 12  1  0  0  0  0
 19  7  1  0  0  0  0
 19  2  1  0  0  0  0
 20 21  1  0  0  0  0
 20  5  1  0  0  0  0
 22 21  1  0  0  0  0
 23 22  1  0  0  0  0
 24 23  1  0  0  0  0
 25 23  2  0  0  0  0
M  END
>  <MODEL>
8

>  <REMARK>
 VINA RESULT:      -8.3      3.621      5.578
  Name = 
  4 active torsions:
  status: ('A' for Active; 'I' for Inactive)
    1  A    between atoms: C_2  and  C_25
    2  A    between atoms: N_6  and  C_15
    3  A    between atoms: C_15  and  C_21
    4  A    between atoms: C_21  and  C_25
                            x       y       z     vdW  Elec       q    Type
                         _______ _______ _______ _____ _____    ______ ____

>  <TORSDO>
F 4

$$$$
=
 OpenBabel10272400493D

 25 28  0  0  1  0  0  0  0  0999 V2000
  188.2250  177.3990  143.8250 C   0  0  0  0  0  0  0  0  0  0  0  0
  188.3060  177.0620  142.3580 C   0  0  1  0  0  3  0  0  0  0  0  0
  190.6820  176.8590  144.2070 C   0  0  0  0  0  2  0  0  0  0  0  0
  187.0720  177.8010  144.5150 C   0  0  0  0  0  0  0  0  0  0  0  0
  187.2900  178.6570  139.0900 N   0  0  0  0  0  2  0  0  0  0  0  0
  184.9950  178.6110  146.1940 C   0  0  0  0  0  3  0  0  0  0  0  0
  190.5510  175.9920  142.9560 C   0  0  0  0  0  2  0  0  0  0  0  0
  187.2930  178.0110  145.8720 C   0  0  0  0  0  0  0  0  0  0  0  0
  186.2760  178.4150  146.7330 C   0  0  0  0  0  3  0  0  0  0  0  0
  190.0050  176.6360  140.5890 C   0  0  0  0  0  0  0  0  0  0  0  0
  191.0510  176.0640  140.1800 O   0  0  0  0  0  0  0  0  0  0  0  0
  187.8830  178.2640  141.5100 C   0  0  0  0  0  2  0  0  0  0  0  0
  184.7570  178.3980  144.8240 C   0  0  0  0  0  3  0  0  0  0  0  0
  189.3240  177.2670  144.6720 C   0  0  0  0  0  0  0  0  0  0  0  0
  188.9000  177.6910  146.2500 S   0  0  0  0  0  0  0  0  0  0  0  0
  189.1430  177.2920  139.6560 N   0  0  0  0  0  0  0  0  0  0  0  0
  185.7970  177.9890  143.9740 C   0  0  0  0  0  3  0  0  0  0  0  0
  188.1290  178.0100  140.0480 C   0  0  0  0  0  0  0  0  0  0  0  0
  189.6650  176.6340  141.9820 N   0  0  0  0  0  0  0  0  0  0  0  0
  187.4750  178.4950  137.6560 C   0  0  0  0  0  2  0  0  0  0  0  0
  186.3430  177.6630  137.0750 C   0  0  0  0  0  2  0  0  0  0  0  0
  186.6610  176.1740  137.1420 C   0  0  0  0  0  2  0  0  0  0  0  0
  187.8720  175.8370  136.3320 C   0  0  0  0  0  0  0  0  0  0  0  0
  188.0480  176.4170  135.1180 F   0  0  0  0  0  0  0  0  0  0  0  0
  188.8450  175.0920  136.8510 C   0  0  0  0  0  2  0  0  0  0  0  0
  1  4  1  0  0  0  0
  1 14  2  0  0  0  0
  2 12  1  6  0  0  0
  2  1  1  0  0  0  0
  3 14  1  0  0  0  0
  4  8  1  0  0  0  0
  5 18  1  0  0  0  0
  6  9  1  0  0  0  0
  7  3  1  0  0  0  0
  8 15  1  0  0  0  0
  8  9  2  0  0  0  0
 10 19  1  0  0  0  0
 11 10  2  0  0  0  0
 13  6  2  0  0  0  0
 14 15  1  0  0  0  0
 16 18  2  0  0  0  0
 16 10  1  0  0  0  0
 17  4  2  0  0  0  0
 17 13  1  0  0  0  0
 18 12  1  0  0  0  0
 19  2  1  0  0  0  0
 19  7  1  0  0  0  0
 20  5  1  0  0  0  0
 21 22  1  0  0  0  0
 21 20  1  0  0  0  0
 23 25  2  0  0  0  0
 23 22  1  0  0  0  0
 24 23  1  0  0  0  0
M  END
>  <MODEL>
9

>  <REMARK>
 VINA RESULT:      -8.3      2.557      3.748
  Name = 
  4 active torsions:
  status: ('A' for Active; 'I' for Inactive)
    1  A    between atoms: C_2  and  C_25
    2  A    between atoms: N_6  and  C_15
    3  A    between atoms: C_15  and  C_21
    4  A    between atoms: C_21  and  C_25
                            x       y       z     vdW  Elec       q    Type
                         _______ _______ _______ _____ _____    ______ ____

>  <TORSDO>
F 4

$$$$
