=
 OpenBabel10262423593D

 34 38  0  0  1  0  0  0  0  0999 V2000
  188.2970  178.6000  140.8270 C   0  0  2  0  0  3  0  0  0  0  0  0
  189.8860  176.8030  140.5000 C   0  0  0  0  0  0  0  0  0  0  0  0
  188.4520  178.4940  139.0140 S   0  0  0  0  0  0  0  0  0  0  0  0
  190.6560  175.9090  140.8190 O   0  0  0  0  0  0  0  0  0  0  0  0
  189.8840  177.3750  139.1270 C   0  0  2  0  0  3  0  0  0  0  0  0
  188.8810  177.3480  141.4560 C   0  0  1  0  0  3  0  0  0  0  0  0
  189.2590  177.9760  145.2030 C   0  0  0  0  0  0  0  0  0  0  0  0
  187.3570  177.1410  143.9390 C   0  0  0  0  0  3  0  0  0  0  0  0
  189.4680  177.6780  142.8020 C   0  0  0  0  0  0  0  0  0  0  0  0
  187.1740  177.4750  146.3300 C   0  0  0  0  0  3  0  0  0  0  0  0
  186.6050  177.0890  145.1140 C   0  0  0  0  0  3  0  0  0  0  0  0
  188.6870  177.5890  143.9700 C   0  0  0  0  0  0  0  0  0  0  0  0
  188.5010  177.9150  146.3750 C   0  0  0  0  0  3  0  0  0  0  0  0
  191.3090  178.5150  144.0650 C   0  0  0  0  0  3  0  0  0  0  0  0
  190.5730  178.4370  145.2470 C   0  0  0  0  0  3  0  0  0  0  0  0
  190.7470  178.1470  142.8840 N   0  0  0  0  0  0  0  0  0  0  0  0
  189.7370  176.3080  138.1490 N   0  0  0  0  0  2  0  0  0  0  0  0
  188.3480  176.3130  137.7190 C   0  0  0  0  0  2  0  0  0  0  0  0
  188.0430  175.0170  136.9840 C   0  0  2  0  0  3  0  0  0  0  0  0
  186.7930  176.5370  135.5440 O   0  0  0  0  0  1  0  0  0  0  0  0
  187.1460  175.2000  135.7560 C   0  0  2  0  0  3  0  0  0  0  0  0
  186.5580  174.7220  137.0690 C   0  0  1  0  0  3  0  0  0  0  0  0
  185.4050  172.8410  137.9650 O   0  0  0  0  0  1  0  0  0  0  0  0
  187.5390  172.5560  137.2160 O   0  0  0  0  0  1  0  0  0  0  0  0
  186.3330  173.2240  136.9960 C   0  0  0  0  0  3  0  0  0  0  0  0
  186.8400  178.7290  141.2210 C   0  0  0  0  0  2  0  0  0  0  0  0
  186.0010  178.7960  140.0280 N   0  0  0  0  0  2  0  0  0  0  0  0
  182.7430  178.9390  138.6540 N   0  0  0  0  0  0  0  0  0  0  0  0
  184.1390  180.7970  138.8170 O   0  0  0  0  0  0  0  0  0  0  0  0
  184.6040  179.0500  140.3980 C   0  0  1  0  0  3  0  0  0  0  0  0
  183.8230  179.6610  139.2590 C   0  0  0  0  0  0  0  0  0  0  0  0
  182.9030  177.2310  140.3590 C   0  0  0  0  0  3  0  0  0  0  0  0
  183.9460  177.8090  140.9570 C   0  0  0  0  0  3  0  0  0  0  0  0
  182.3120  177.8130  139.1410 C   0  0  0  0  0  3  0  0  0  0  0  0
  1 26  1  6  0  0  0
  1  6  1  0  0  0  0
  2  4  2  0  0  0  0
  2  6  1  0  0  0  0
  3  5  1  0  0  0  0
  3  1  1  0  0  0  0
  5 17  1  6  0  0  0
  5  2  1  0  0  0  0
  6  9  1  1  0  0  0
  7 15  1  0  0  0  0
  7 13  2  0  0  0  0
  8 12  2  0  0  0  0
  8 11  1  0  0  0  0
  9 16  2  0  0  0  0
  9 12  1  0  0  0  0
 10 13  1  0  0  0  0
 11 10  2  0  0  0  0
 12  7  1  0  0  0  0
 14 15  2  0  0  0  0
 16 14  1  0  0  0  0
 18 17  1  0  0  0  0
 19 22  1  0  0  0  0
 19 18  1  1  0  0  0
 21 20  1  1  0  0  0
 21 19  1  0  0  0  0
 21 22  1  0  0  0  0
 22 25  1  6  0  0  0
 25 24  1  0  0  0  0
 25 23  1  0  0  0  0
 27 26  1  0  0  0  0
 28 34  2  0  0  0  0
 28 31  1  0  0  0  0
 29 31  2  0  0  0  0
 30 27  1  6  0  0  0
 30 33  1  0  0  0  0
 31 30  1  0  0  0  0
 32 33  2  0  0  0  0
 34 32  1  0  0  0  0
M  END
>  <MODEL>
1

>  <REMARK>
 VINA RESULT:      -8.3      0.000      0.000
  Name = 
  8 active torsions:
  status: ('A' for Active; 'I' for Inactive)
    1  A    between atoms: C_3  and  C_13
    2  A    between atoms: C_3  and  N_17
    3  A    between atoms: C_4  and  C_31
    4  A    between atoms: C_5  and  C_26
    5  A    between atoms: C_12  and  N_28
    6  A    between atoms: N_17  and  C_29
    7  A    between atoms: C_20  and  C_34
    8  A    between atoms: C_26  and  N_28
                            x       y       z     vdW  Elec       q    Type
                         _______ _______ _______ _____ _____    ______ ____

>  <TORSDO>
F 8

$$$$
=
 OpenBabel10262423593D

 34 38  0  0  1  0  0  0  0  0999 V2000
  187.9710  178.4900  141.9780 C   0  0  2  0  0  3  0  0  0  0  0  0
  189.4040  176.5380  141.9930 C   0  0  0  0  0  0  0  0  0  0  0  0
  188.6190  178.4250  140.2760 S   0  0  0  0  0  0  0  0  0  0  0  0
  189.9610  175.5530  142.4560 O   0  0  0  0  0  0  0  0  0  0  0  0
  189.8440  177.1490  140.7100 C   0  0  2  0  0  3  0  0  0  0  0  0
  188.2290  177.1610  142.6650 C   0  0  1  0  0  3  0  0  0  0  0  0
  187.6250  177.9740  146.3460 C   0  0  0  0  0  0  0  0  0  0  0  0
  186.0490  177.7900  144.5040 C   0  0  0  0  0  3  0  0  0  0  0  0
  188.4440  177.3810  144.1390 C   0  0  0  0  0  0  0  0  0  0  0  0
  185.2690  178.4060  146.7130 C   0  0  0  0  0  3  0  0  0  0  0  0
  185.0070  178.1410  145.3660 C   0  0  0  0  0  3  0  0  0  0  0  0
  187.3660  177.7080  144.9830 C   0  0  0  0  0  0  0  0  0  0  0  0
  186.5760  178.3190  147.2030 C   0  0  0  0  0  3  0  0  0  0  0  0
  189.9680  177.5900  145.9610 C   0  0  0  0  0  3  0  0  0  0  0  0
  188.9290  177.9120  146.8340 C   0  0  0  0  0  3  0  0  0  0  0  0
  189.7090  177.3430  144.6500 N   0  0  0  0  0  0  0  0  0  0  0  0
  189.8730  176.1370  139.6660 N   0  0  0  0  0  2  0  0  0  0  0  0
  189.7610  176.8340  138.3950 C   0  0  0  0  0  2  0  0  0  0  0  0
  191.1390  176.9540  137.7620 C   0  0  2  0  0  3  0  0  0  0  0  0
  190.2480  175.1970  136.3250 O   0  0  0  0  0  1  0  0  0  0  0  0
  191.3680  175.9930  136.5910 C   0  0  2  0  0  3  0  0  0  0  0  0
  191.9080  175.6630  137.9690 C   0  0  1  0  0  3  0  0  0  0  0  0
  193.6960  176.7280  139.1260 O   0  0  0  0  0  1  0  0  0  0  0  0
  193.7620  176.6530  136.8480 O   0  0  0  0  0  1  0  0  0  0  0  0
  193.3950  175.9570  138.0020 C   0  0  0  0  0  3  0  0  0  0  0  0
  186.4830  178.7680  141.9620 C   0  0  0  0  0  2  0  0  0  0  0  0
  185.9920  178.7940  140.5870 N   0  0  0  0  0  2  0  0  0  0  0  0
  183.2030  178.7220  138.4100 N   0  0  0  0  0  0  0  0  0  0  0  0
  184.4520  180.6470  138.8160 O   0  0  0  0  0  0  0  0  0  0  0  0
  184.5400  179.0040  140.5660 C   0  0  1  0  0  3  0  0  0  0  0  0
  184.0650  179.5210  139.2290 C   0  0  0  0  0  0  0  0  0  0  0  0
  182.9630  177.1120  140.1980 C   0  0  0  0  0  3  0  0  0  0  0  0
  183.7960  177.7650  141.0100 C   0  0  0  0  0  3  0  0  0  0  0  0
  182.6930  177.6040  138.8360 C   0  0  0  0  0  3  0  0  0  0  0  0
  1 26  1  6  0  0  0
  1  6  1  0  0  0  0
  2  4  2  0  0  0  0
  2  6  1  0  0  0  0
  3  5  1  0  0  0  0
  3  1  1  0  0  0  0
  5 17  1  6  0  0  0
  5  2  1  0  0  0  0
  6  9  1  1  0  0  0
  7 15  1  0  0  0  0
  7 13  2  0  0  0  0
  8 12  2  0  0  0  0
  8 11  1  0  0  0  0
  9 16  2  0  0  0  0
  9 12  1  0  0  0  0
 10 13  1  0  0  0  0
 11 10  2  0  0  0  0
 12  7  1  0  0  0  0
 14 15  2  0  0  0  0
 16 14  1  0  0  0  0
 18 17  1  0  0  0  0
 19 22  1  0  0  0  0
 19 18  1  1  0  0  0
 21 20  1  1  0  0  0
 21 19  1  0  0  0  0
 21 22  1  0  0  0  0
 22 25  1  6  0  0  0
 24 25  1  0  0  0  0
 25 23  1  0  0  0  0
 27 26  1  0  0  0  0
 28 34  2  0  0  0  0
 28 31  1  0  0  0  0
 29 31  2  0  0  0  0
 30 27  1  6  0  0  0
 30 33  1  0  0  0  0
 31 30  1  0  0  0  0
 32 33  2  0  0  0  0
 34 32  1  0  0  0  0
M  END
>  <MODEL>
2

>  <REMARK>
 VINA RESULT:      -8.3      2.194      3.157
  Name = 
  8 active torsions:
  status: ('A' for Active; 'I' for Inactive)
    1  A    between atoms: C_3  and  C_13
    2  A    between atoms: C_3  and  N_17
    3  A    between atoms: C_4  and  C_31
    4  A    between atoms: C_5  and  C_26
    5  A    between atoms: C_12  and  N_28
    6  A    between atoms: N_17  and  C_29
    7  A    between atoms: C_20  and  C_34
    8  A    between atoms: C_26  and  N_28
                            x       y       z     vdW  Elec       q    Type
                         _______ _______ _______ _____ _____    ______ ____

>  <TORSDO>
F 8

$$$$
=
 OpenBabel10262423593D

 34 38  0  0  1  0  0  0  0  0999 V2000
  187.9830  178.3810  142.0910 C   0  0  2  0  0  3  0  0  0  0  0  0
  189.5310  176.5190  142.0980 C   0  0  0  0  0  0  0  0  0  0  0  0
  188.6460  178.3720  140.3940 S   0  0  0  0  0  0  0  0  0  0  0  0
  190.1430  175.5660  142.5560 O   0  0  0  0  0  0  0  0  0  0  0  0
  189.9430  177.1690  140.8260 C   0  0  2  0  0  3  0  0  0  0  0  0
  188.3150  177.0630  142.7670 C   0  0  1  0  0  3  0  0  0  0  0  0
  187.6550  177.8960  146.4340 C   0  0  0  0  0  0  0  0  0  0  0  0
  186.1130  177.7440  144.5600 C   0  0  0  0  0  3  0  0  0  0  0  0
  188.5050  177.2800  144.2450 C   0  0  0  0  0  0  0  0  0  0  0  0
  185.3020  178.3810  146.7520 C   0  0  0  0  0  3  0  0  0  0  0  0
  185.0620  178.1200  145.4000 C   0  0  0  0  0  3  0  0  0  0  0  0
  187.4180  177.6330  145.0660 C   0  0  0  0  0  0  0  0  0  0  0  0
  186.5960  178.2660  147.2690 C   0  0  0  0  0  3  0  0  0  0  0  0
  189.9960  177.4580  146.0970 C   0  0  0  0  0  3  0  0  0  0  0  0
  188.9470  177.8050  146.9480 C   0  0  0  0  0  3  0  0  0  0  0  0
  189.7580  177.2150  144.7810 N   0  0  0  0  0  0  0  0  0  0  0  0
  190.0420  176.1720  139.7710 N   0  0  0  0  0  2  0  0  0  0  0  0
  190.5920  176.8400  138.6030 C   0  0  0  0  0  2  0  0  0  0  0  0
  190.1160  176.1280  137.3450 C   0  0  2  0  0  3  0  0  0  0  0  0
  189.2780  178.3570  136.8230 O   0  0  0  0  0  1  0  0  0  0  0  0
  189.3660  177.0370  136.3670 C   0  0  2  0  0  3  0  0  0  0  0  0
  188.6010  176.1240  137.3050 C   0  0  1  0  0  3  0  0  0  0  0  0
  186.7590  174.7070  136.7860 O   0  0  0  0  0  1  0  0  0  0  0  0
  188.8380  173.7840  136.9260 O   0  0  0  0  0  1  0  0  0  0  0  0
  188.1150  174.9130  136.5330 C   0  0  0  0  0  3  0  0  0  0  0  0
  186.4800  178.5690  142.0650 C   0  0  0  0  0  2  0  0  0  0  0  0
  186.0410  178.9200  140.7180 N   0  0  0  0  0  2  0  0  0  0  0  0
  183.2610  178.6430  138.5450 N   0  0  0  0  0  0  0  0  0  0  0  0
  184.4590  180.6210  138.8350 O   0  0  0  0  0  0  0  0  0  0  0  0
  184.5840  179.0900  140.6820 C   0  0  1  0  0  3  0  0  0  0  0  0
  184.1000  179.5130  139.3150 C   0  0  0  0  0  0  0  0  0  0  0  0
  183.0580  177.1390  140.4280 C   0  0  0  0  0  3  0  0  0  0  0  0
  183.8710  177.8620  141.1990 C   0  0  0  0  0  3  0  0  0  0  0  0
  182.7790  177.5410  139.0370 C   0  0  0  0  0  3  0  0  0  0  0  0
  1 26  1  6  0  0  0
  1  6  1  0  0  0  0
  2  4  2  0  0  0  0
  2  6  1  0  0  0  0
  3  5  1  0  0  0  0
  3  1  1  0  0  0  0
  5 17  1  6  0  0  0
  5  2  1  0  0  0  0
  6  9  1  1  0  0  0
  7 15  1  0  0  0  0
  7 13  2  0  0  0  0
  8 12  2  0  0  0  0
  8 11  1  0  0  0  0
  9 16  2  0  0  0  0
  9 12  1  0  0  0  0
 10 13  1  0  0  0  0
 11 10  2  0  0  0  0
 12  7  1  0  0  0  0
 14 15  2  0  0  0  0
 16 14  1  0  0  0  0
 18 17  1  0  0  0  0
 19 18  1  1  0  0  0
 21 20  1  1  0  0  0
 21 22  1  0  0  0  0
 21 19  1  0  0  0  0
 22 25  1  6  0  0  0
 22 19  1  0  0  0  0
 25 23  1  0  0  0  0
 25 24  1  0  0  0  0
 27 26  1  0  0  0  0
 28 34  2  0  0  0  0
 28 31  1  0  0  0  0
 29 31  2  0  0  0  0
 30 27  1  6  0  0  0
 30 33  1  0  0  0  0
 31 30  1  0  0  0  0
 32 33  2  0  0  0  0
 34 32  1  0  0  0  0
M  END
>  <MODEL>
3

>  <REMARK>
 VINA RESULT:      -8.2      1.365      1.858
  Name = 
  8 active torsions:
  status: ('A' for Active; 'I' for Inactive)
    1  A    between atoms: C_3  and  C_13
    2  A    between atoms: C_3  and  N_17
    3  A    between atoms: C_4  and  C_31
    4  A    between atoms: C_5  and  C_26
    5  A    between atoms: C_12  and  N_28
    6  A    between atoms: N_17  and  C_29
    7  A    between atoms: C_20  and  C_34
    8  A    between atoms: C_26  and  N_28
                            x       y       z     vdW  Elec       q    Type
                         _______ _______ _______ _____ _____    ______ ____

>  <TORSDO>
F 8

$$$$
=
 OpenBabel10262423593D

 34 38  0  0  1  0  0  0  0  0999 V2000
  187.7580  176.7300  143.0960 C   0  0  2  0  0  3  0  0  0  0  0  0
  188.4560  178.1920  141.2960 C   0  0  0  0  0  0  0  0  0  0  0  0
  189.3880  176.0700  142.6190 S   0  0  0  0  0  0  0  0  0  0  0  0
  188.3790  179.1200  140.5040 O   0  0  0  0  0  0  0  0  0  0  0  0
  189.4530  177.1020  141.1200 C   0  0  2  0  0  3  0  0  0  0  0  0
  187.5850  178.1170  142.5020 C   0  0  1  0  0  3  0  0  0  0  0  0
  183.8400  178.7470  142.8970 C   0  0  0  0  0  0  0  0  0  0  0  0
  185.5970  178.6510  144.5740 C   0  0  0  0  0  3  0  0  0  0  0  0
  186.1320  178.3630  142.1940 C   0  0  0  0  0  0  0  0  0  0  0  0
  183.2960  179.0050  145.2440 C   0  0  0  0  0  3  0  0  0  0  0  0
  184.6450  178.8530  145.5760 C   0  0  0  0  0  3  0  0  0  0  0  0
  185.2040  178.5900  143.2280 C   0  0  0  0  0  0  0  0  0  0  0  0
  182.8940  178.9550  143.9050 C   0  0  0  0  0  3  0  0  0  0  0  0
  184.3840  178.4420  140.5730 C   0  0  0  0  0  3  0  0  0  0  0  0
  183.4320  178.6740  141.5660 C   0  0  0  0  0  3  0  0  0  0  0  0
  185.6930  178.2850  140.9040 N   0  0  0  0  0  0  0  0  0  0  0  0
  190.7860  177.6680  140.9850 N   0  0  0  0  0  2  0  0  0  0  0  0
  191.3370  177.1680  139.7360 C   0  0  0  0  0  2  0  0  0  0  0  0
  190.2040  176.6810  138.8450 C   0  0  2  0  0  3  0  0  0  0  0  0
  192.0400  176.3940  137.2660 O   0  0  0  0  0  1  0  0  0  0  0  0
  190.6590  176.2590  137.4440 C   0  0  2  0  0  3  0  0  0  0  0  0
  190.0400  177.6250  137.6700 C   0  0  1  0  0  3  0  0  0  0  0  0
  188.0660  178.8900  137.2550 O   0  0  0  0  0  1  0  0  0  0  0  0
  187.8510  176.7500  138.0110 O   0  0  0  0  0  1  0  0  0  0  0  0
  188.6000  177.6020  137.1960 C   0  0  0  0  0  3  0  0  0  0  0  0
  187.6460  176.8100  144.6040 C   0  0  0  0  0  2  0  0  0  0  0  0
  188.9590  177.0510  145.1930 N   0  0  0  0  0  2  0  0  0  0  0  0
  190.3090  178.0190  148.3180 N   0  0  0  0  0  0  0  0  0  0  0  0
  191.3320  176.4640  146.9150 O   0  0  0  0  0  0  0  0  0  0  0  0
  188.9590  176.6820  146.6130 C   0  0  1  0  0  3  0  0  0  0  0  0
  190.2670  177.0270  147.2850 C   0  0  0  0  0  0  0  0  0  0  0  0
  187.8940  178.1400  148.3290 C   0  0  0  0  0  3  0  0  0  0  0  0
  187.7630  177.2610  147.3340 C   0  0  0  0  0  3  0  0  0  0  0  0
  189.2270  178.5500  148.8050 C   0  0  0  0  0  3  0  0  0  0  0  0
  1 26  1  1  0  0  0
  2  6  1  0  0  0  0
  3  1  1  0  0  0  0
  4  2  2  0  0  0  0
  5 17  1  1  0  0  0
  5  2  1  0  0  0  0
  5  3  1  0  0  0  0
  6  9  1  6  0  0  0
  6  1  1  0  0  0  0
  7 12  1  0  0  0  0
  7 13  2  0  0  0  0
  8 11  1  0  0  0  0
  9 12  1  0  0  0  0
 10 11  2  0  0  0  0
 12  8  2  0  0  0  0
 13 10  1  0  0  0  0
 14 16  1  0  0  0  0
 14 15  2  0  0  0  0
 15  7  1  0  0  0  0
 16  9  2  0  0  0  0
 18 17  1  0  0  0  0
 19 18  1  1  0  0  0
 21 20  1  1  0  0  0
 21 22  1  0  0  0  0
 21 19  1  0  0  0  0
 22 25  1  6  0  0  0
 22 19  1  0  0  0  0
 25 23  1  0  0  0  0
 25 24  1  0  0  0  0
 26 27  1  0  0  0  0
 28 34  2  0  0  0  0
 29 31  2  0  0  0  0
 30 27  1  6  0  0  0
 30 31  1  0  0  0  0
 30 33  1  0  0  0  0
 31 28  1  0  0  0  0
 32 34  1  0  0  0  0
 33 32  2  0  0  0  0
M  END
>  <MODEL>
4

>  <REMARK>
 VINA RESULT:      -7.9      2.668      6.269
  Name = 
  8 active torsions:
  status: ('A' for Active; 'I' for Inactive)
    1  A    between atoms: C_3  and  C_13
    2  A    between atoms: C_3  and  N_17
    3  A    between atoms: C_4  and  C_31
    4  A    between atoms: C_5  and  C_26
    5  A    between atoms: C_12  and  N_28
    6  A    between atoms: N_17  and  C_29
    7  A    between atoms: C_20  and  C_34
    8  A    between atoms: C_26  and  N_28
                            x       y       z     vdW  Elec       q    Type
                         _______ _______ _______ _____ _____    ______ ____

>  <TORSDO>
F 8

$$$$
=
 OpenBabel10262423593D

 34 38  0  0  1  0  0  0  0  0999 V2000
  186.9540  178.7560  141.6040 C   0  0  2  0  0  3  0  0  0  0  0  0
  187.5630  177.0190  143.1770 C   0  0  0  0  0  0  0  0  0  0  0  0
  188.7180  178.4660  141.2550 S   0  0  0  0  0  0  0  0  0  0  0  0
  187.4010  176.2040  144.0730 O   0  0  0  0  0  0  0  0  0  0  0  0
  188.9230  177.4410  142.7460 C   0  0  2  0  0  3  0  0  0  0  0  0
  186.4110  177.6090  142.4380 C   0  0  1  0  0  3  0  0  0  0  0  0
  183.0450  178.8550  143.7400 C   0  0  0  0  0  0  0  0  0  0  0  0
  183.6620  178.0190  141.5420 C   0  0  0  0  0  3  0  0  0  0  0  0
  185.3230  178.1100  143.3500 C   0  0  0  0  0  0  0  0  0  0  0  0
  181.4060  178.7950  141.9570 C   0  0  0  0  0  3  0  0  0  0  0  0
  182.3630  178.2610  141.0900 C   0  0  0  0  0  3  0  0  0  0  0  0
  184.0180  178.3180  142.8670 C   0  0  0  0  0  0  0  0  0  0  0  0
  181.7460  179.0890  143.2810 C   0  0  0  0  0  3  0  0  0  0  0  0
  184.6940  178.9550  145.4890 C   0  0  0  0  0  3  0  0  0  0  0  0
  183.3870  179.1710  145.0540 C   0  0  0  0  0  3  0  0  0  0  0  0
  185.6230  178.4440  144.6390 N   0  0  0  0  0  0  0  0  0  0  0  0
  189.7210  176.2700  142.4160 N   0  0  0  0  0  2  0  0  0  0  0  0
  190.8990  176.3040  143.2680 C   0  0  0  0  0  2  0  0  0  0  0  0
  190.4820  176.6470  144.6910 C   0  0  2  0  0  3  0  0  0  0  0  0
  191.9780  178.5330  144.3010 O   0  0  0  0  0  1  0  0  0  0  0  0
  191.1330  177.9230  145.2340 C   0  0  2  0  0  3  0  0  0  0  0  0
  191.6870  176.5610  145.6070 C   0  0  1  0  0  3  0  0  0  0  0  0
  189.8860  176.5370  147.1660 O   0  0  0  0  0  1  0  0  0  0  0  0
  191.9950  176.9190  147.9430 O   0  0  0  0  0  1  0  0  0  0  0  0
  191.2340  176.2090  147.0110 C   0  0  0  0  0  3  0  0  0  0  0  0
  186.1720  178.8500  140.3100 C   0  0  0  0  0  2  0  0  0  0  0  0
  187.0000  178.4120  139.1900 N   0  0  0  0  0  2  0  0  0  0  0  0
  186.0450  176.2960  136.5190 N   0  0  0  0  0  0  0  0  0  0  0  0
  187.9440  177.6460  136.4590 O   0  0  0  0  0  0  0  0  0  0  0  0
  186.2190  178.4050  137.9480 C   0  0  1  0  0  3  0  0  0  0  0  0
  186.7920  177.4480  136.9290 C   0  0  0  0  0  0  0  0  0  0  0  0
  184.1170  177.0840  137.7480 C   0  0  0  0  0  3  0  0  0  0  0  0
  184.7530  178.1580  138.2190 C   0  0  0  0  0  3  0  0  0  0  0  0
  184.8150  176.1060  136.8940 C   0  0  0  0  0  3  0  0  0  0  0  0
  1 26  1  6  0  0  0
  1  6  1  0  0  0  0
  2  4  2  0  0  0  0
  3  1  1  0  0  0  0
  3  5  1  0  0  0  0
  5 17  1  6  0  0  0
  5  2  1  0  0  0  0
  6  2  1  0  0  0  0
  6  9  1  1  0  0  0
  7 15  1  0  0  0  0
  8 12  1  0  0  0  0
  9 16  2  0  0  0  0
 10 13  2  0  0  0  0
 11  8  2  0  0  0  0
 11 10  1  0  0  0  0
 12  9  1  0  0  0  0
 12  7  2  0  0  0  0
 13  7  1  0  0  0  0
 15 14  2  0  0  0  0
 16 14  1  0  0  0  0
 17 18  1  0  0  0  0
 19 18  1  6  0  0  0
 19 21  1  0  0  0  0
 19 22  1  0  0  0  0
 21 20  1  6  0  0  0
 21 22  1  0  0  0  0
 22 25  1  1  0  0  0
 25 23  1  0  0  0  0
 25 24  1  0  0  0  0
 27 26  1  0  0  0  0
 28 34  2  0  0  0  0
 28 31  1  0  0  0  0
 29 31  2  0  0  0  0
 30 33  1  0  0  0  0
 30 27  1  1  0  0  0
 31 30  1  0  0  0  0
 32 33  2  0  0  0  0
 34 32  1  0  0  0  0
M  END
>  <MODEL>
5

>  <REMARK>
 VINA RESULT:      -7.7      3.007      6.431
  Name = 
  8 active torsions:
  status: ('A' for Active; 'I' for Inactive)
    1  A    between atoms: C_3  and  C_13
    2  A    between atoms: C_3  and  N_17
    3  A    between atoms: C_4  and  C_31
    4  A    between atoms: C_5  and  C_26
    5  A    between atoms: C_12  and  N_28
    6  A    between atoms: N_17  and  C_29
    7  A    between atoms: C_20  and  C_34
    8  A    between atoms: C_26  and  N_28
                            x       y       z     vdW  Elec       q    Type
                         _______ _______ _______ _____ _____    ______ ____

>  <TORSDO>
F 8

$$$$
=
 OpenBabel10262423593D

 34 38  0  0  1  0  0  0  0  0999 V2000
  187.4490  178.7220  141.9220 C   0  0  2  0  0  3  0  0  0  0  0  0
  187.5380  177.1210  143.7350 C   0  0  0  0  0  0  0  0  0  0  0  0
  189.2270  178.3620  142.0830 S   0  0  0  0  0  0  0  0  0  0  0  0
  187.1070  176.3950  144.6190 O   0  0  0  0  0  0  0  0  0  0  0  0
  188.9820  177.4700  143.6520 C   0  0  2  0  0  3  0  0  0  0  0  0
  186.6520  177.6690  142.6700 C   0  0  1  0  0  3  0  0  0  0  0  0
  183.0560  178.9150  142.9720 C   0  0  0  0  0  0  0  0  0  0  0  0
  184.1350  177.6640  141.1890 C   0  0  0  0  0  3  0  0  0  0  0  0
  185.3860  178.2750  143.2130 C   0  0  0  0  0  0  0  0  0  0  0  0
  181.8200  178.3400  140.9690 C   0  0  0  0  0  3  0  0  0  0  0  0
  182.9500  177.7020  140.4510 C   0  0  0  0  0  3  0  0  0  0  0  0
  184.2020  178.2730  142.4520 C   0  0  0  0  0  0  0  0  0  0  0  0
  181.8720  178.9440  142.2300 C   0  0  0  0  0  3  0  0  0  0  0  0
  184.3060  179.5210  144.9360 C   0  0  0  0  0  3  0  0  0  0  0  0
  183.1110  179.5380  144.2180 C   0  0  0  0  0  3  0  0  0  0  0  0
  185.4040  178.9070  144.4230 N   0  0  0  0  0  0  0  0  0  0  0  0
  189.7830  176.2570  143.6440 N   0  0  0  0  0  2  0  0  0  0  0  0
  190.9900  176.5380  144.4040 C   0  0  0  0  0  2  0  0  0  0  0  0
  190.6430  177.4210  145.5930 C   0  0  2  0  0  3  0  0  0  0  0  0
  192.1930  175.9130  146.7190 O   0  0  0  0  0  1  0  0  0  0  0  0
  191.3500  177.0170  146.8900 C   0  0  2  0  0  3  0  0  0  0  0  0
  189.9130  176.6020  146.6390 C   0  0  1  0  0  3  0  0  0  0  0  0
  189.7080  178.1200  148.4620 O   0  0  0  0  0  1  0  0  0  0  0  0
  187.9540  176.7430  147.9870 O   0  0  0  0  0  1  0  0  0  0  0  0
  188.9900  177.5020  147.4370 C   0  0  0  0  0  3  0  0  0  0  0  0
  187.0430  178.7180  140.4620 C   0  0  0  0  0  2  0  0  0  0  0  0
  188.2300  178.7050  139.6120 N   0  0  0  0  0  2  0  0  0  0  0  0
  189.3500  178.0520  136.3190 N   0  0  0  0  0  0  0  0  0  0  0  0
  187.4780  179.3570  136.7930 O   0  0  0  0  0  0  0  0  0  0  0  0
  188.0510  177.7660  138.4990 C   0  0  1  0  0  3  0  0  0  0  0  0
  188.2550  178.4360  137.1600 C   0  0  0  0  0  0  0  0  0  0  0  0
  189.8750  176.2180  137.8050 C   0  0  0  0  0  3  0  0  0  0  0  0
  188.9110  176.5340  138.6710 C   0  0  0  0  0  3  0  0  0  0  0  0
  190.1130  177.0390  136.6050 C   0  0  0  0  0  3  0  0  0  0  0  0
  1 26  1  6  0  0  0
  1  3  1  0  0  0  0
  1  6  1  0  0  0  0
  2  4  2  0  0  0  0
  3  5  1  0  0  0  0
  5 17  1  6  0  0  0
  5  2  1  0  0  0  0
  6  9  1  1  0  0  0
  6  2  1  0  0  0  0
  7 15  1  0  0  0  0
  8 12  1  0  0  0  0
  9 16  2  0  0  0  0
 10 13  2  0  0  0  0
 11 10  1  0  0  0  0
 11  8  2  0  0  0  0
 12  7  2  0  0  0  0
 12  9  1  0  0  0  0
 13  7  1  0  0  0  0
 15 14  2  0  0  0  0
 16 14  1  0  0  0  0
 17 18  1  0  0  0  0
 19 18  1  6  0  0  0
 19 22  1  0  0  0  0
 19 21  1  0  0  0  0
 21 20  1  6  0  0  0
 22 21  1  0  0  0  0
 22 25  1  1  0  0  0
 25 24  1  0  0  0  0
 25 23  1  0  0  0  0
 27 26  1  0  0  0  0
 28 34  2  0  0  0  0
 28 31  1  0  0  0  0
 29 31  2  0  0  0  0
 30 33  1  0  0  0  0
 30 27  1  1  0  0  0
 31 30  1  0  0  0  0
 32 33  2  0  0  0  0
 34 32  1  0  0  0  0
M  END
>  <MODEL>
6

>  <REMARK>
 VINA RESULT:      -7.6      3.120      7.179
  Name = 
  8 active torsions:
  status: ('A' for Active; 'I' for Inactive)
    1  A    between atoms: C_3  and  C_13
    2  A    between atoms: C_3  and  N_17
    3  A    between atoms: C_4  and  C_31
    4  A    between atoms: C_5  and  C_26
    5  A    between atoms: C_12  and  N_28
    6  A    between atoms: N_17  and  C_29
    7  A    between atoms: C_20  and  C_34
    8  A    between atoms: C_26  and  N_28
                            x       y       z     vdW  Elec       q    Type
                         _______ _______ _______ _____ _____    ______ ____

>  <TORSDO>
F 8

$$$$
=
 OpenBabel10262423593D

 34 38  0  0  1  0  0  0  0  0999 V2000
  191.9120  176.8930  138.6920 C   0  0  2  0  0  3  0  0  0  0  0  0
  190.2430  177.0580  140.4380 C   0  0  0  0  0  0  0  0  0  0  0  0
  192.9010  177.1280  140.2040 S   0  0  0  0  0  0  0  0  0  0  0  0
  189.1230  177.0770  140.9270 O   0  0  0  0  0  0  0  0  0  0  0  0
  191.4290  177.5450  141.1920 C   0  0  2  0  0  3  0  0  0  0  0  0
  190.4920  176.5150  139.0730 C   0  0  1  0  0  3  0  0  0  0  0  0
  188.0280  176.7190  136.1640 C   0  0  0  0  0  0  0  0  0  0  0  0
  189.0380  174.7800  137.2270 C   0  0  0  0  0  3  0  0  0  0  0  0
  189.5280  177.0440  138.0450 C   0  0  0  0  0  0  0  0  0  0  0  0
  187.5580  174.4920  135.3320 C   0  0  0  0  0  3  0  0  0  0  0  0
  188.3870  173.9460  136.3150 C   0  0  0  0  0  3  0  0  0  0  0  0
  188.8690  176.1720  137.1580 C   0  0  0  0  0  0  0  0  0  0  0  0
  187.3750  175.8770  135.2580 C   0  0  0  0  0  3  0  0  0  0  0  0
  188.5380  178.9280  136.9680 C   0  0  0  0  0  3  0  0  0  0  0  0
  187.8620  178.1000  136.0730 C   0  0  0  0  0  3  0  0  0  0  0  0
  189.3510  178.3910  137.9150 N   0  0  0  0  0  0  0  0  0  0  0  0
  191.5080  176.8680  142.4780 N   0  0  0  0  0  2  0  0  0  0  0  0
  191.7870  177.8850  143.4780 C   0  0  0  0  0  2  0  0  0  0  0  0
  190.5000  178.2430  144.2060 C   0  0  2  0  0  3  0  0  0  0  0  0
  191.5250  176.8890  145.9550 O   0  0  0  0  0  1  0  0  0  0  0  0
  190.3980  177.6430  145.6120 C   0  0  2  0  0  3  0  0  0  0  0  0
  189.6850  176.9870  144.4450 C   0  0  1  0  0  3  0  0  0  0  0  0
  187.7780  177.3310  145.8280 O   0  0  0  0  0  1  0  0  0  0  0  0
  187.4760  176.4080  143.7660 O   0  0  0  0  0  1  0  0  0  0  0  0
  188.2120  177.3400  144.5020 C   0  0  0  0  0  3  0  0  0  0  0  0
  192.5130  175.7960  137.8370 C   0  0  0  0  0  2  0  0  0  0  0  0
  193.8330  176.1970  137.3620 N   0  0  0  0  0  2  0  0  0  0  0  0
  197.1050  174.8500  137.4330 N   0  0  0  0  0  0  0  0  0  0  0  0
  196.3020  176.1540  135.6760 O   0  0  0  0  0  0  0  0  0  0  0  0
  194.6050  175.0210  136.9430 C   0  0  1  0  0  3  0  0  0  0  0  0
  196.0410  175.3730  136.6300 C   0  0  0  0  0  0  0  0  0  0  0  0
  195.5440  173.4290  138.6120 C   0  0  0  0  0  3  0  0  0  0  0  0
  194.4870  173.8970  137.9470 C   0  0  0  0  0  3  0  0  0  0  0  0
  196.8950  173.9610  138.3570 C   0  0  0  0  0  3  0  0  0  0  0  0
  1 26  1  6  0  0  0
  1  6  1  0  0  0  0
  1  3  1  0  0  0  0
  2  4  2  0  0  0  0
  2  5  1  0  0  0  0
  3  5  1  0  0  0  0
  5 17  1  1  0  0  0
  6  9  1  6  0  0  0
  6  2  1  0  0  0  0
  7 12  1  0  0  0  0
 10 11  1  0  0  0  0
 11  8  2  0  0  0  0
 12  8  1  0  0  0  0
 12  9  2  0  0  0  0
 13 10  2  0  0  0  0
 13  7  1  0  0  0  0
 14 16  2  0  0  0  0
 15  7  2  0  0  0  0
 15 14  1  0  0  0  0
 16  9  1  0  0  0  0
 17 18  1  0  0  0  0
 19 18  1  6  0  0  0
 19 22  1  0  0  0  0
 19 21  1  0  0  0  0
 21 20  1  6  0  0  0
 22 25  1  1  0  0  0
 22 21  1  0  0  0  0
 24 25  1  0  0  0  0
 25 23  1  0  0  0  0
 27 26  1  0  0  0  0
 28 34  2  0  0  0  0
 29 31  2  0  0  0  0
 30 27  1  1  0  0  0
 30 33  1  0  0  0  0
 31 30  1  0  0  0  0
 31 28  1  0  0  0  0
 33 32  2  0  0  0  0
 34 32  1  0  0  0  0
M  END
>  <MODEL>
7

>  <REMARK>
 VINA RESULT:      -7.4      3.912      9.153
  Name = 
  8 active torsions:
  status: ('A' for Active; 'I' for Inactive)
    1  A    between atoms: C_3  and  C_13
    2  A    between atoms: C_3  and  N_17
    3  A    between atoms: C_4  and  C_31
    4  A    between atoms: C_5  and  C_26
    5  A    between atoms: C_12  and  N_28
    6  A    between atoms: N_17  and  C_29
    7  A    between atoms: C_20  and  C_34
    8  A    between atoms: C_26  and  N_28
                            x       y       z     vdW  Elec       q    Type
                         _______ _______ _______ _____ _____    ______ ____

>  <TORSDO>
F 8

$$$$
=
 OpenBabel10262423593D

 34 38  0  0  1  0  0  0  0  0999 V2000
  189.8820  177.2720  141.7710 C   0  0  2  0  0  3  0  0  0  0  0  0
  188.7500  177.9030  139.7260 C   0  0  0  0  0  0  0  0  0  0  0  0
  188.4760  178.2720  142.3550 S   0  0  0  0  0  0  0  0  0  0  0  0
  188.5450  177.9560  138.5220 O   0  0  0  0  0  0  0  0  0  0  0  0
  188.0800  178.8380  140.6700 C   0  0  2  0  0  3  0  0  0  0  0  0
  189.6520  176.8790  140.3220 C   0  0  1  0  0  3  0  0  0  0  0  0
  192.3840  175.8210  137.8730 C   0  0  0  0  0  0  0  0  0  0  0  0
  190.0230  175.2440  137.9310 C   0  0  0  0  0  3  0  0  0  0  0  0
  190.9720  176.7690  139.6060 C   0  0  0  0  0  0  0  0  0  0  0  0
  191.4640  174.2950  136.2310 C   0  0  0  0  0  3  0  0  0  0  0  0
  190.2020  174.4190  136.8180 C   0  0  0  0  0  3  0  0  0  0  0  0
  191.1100  175.9480  138.4720 C   0  0  0  0  0  0  0  0  0  0  0  0
  192.5530  174.9980  136.7570 C   0  0  0  0  0  3  0  0  0  0  0  0
  193.2960  177.3000  139.5370 C   0  0  0  0  0  3  0  0  0  0  0  0
  193.4760  176.5010  138.4080 C   0  0  0  0  0  3  0  0  0  0  0  0
  192.0680  177.4090  140.1090 N   0  0  0  0  0  0  0  0  0  0  0  0
  186.6400  178.7900  140.4740 N   0  0  0  0  0  2  0  0  0  0  0  0
  186.0560  178.3240  141.7210 C   0  0  0  0  0  2  0  0  0  0  0  0
  184.8340  179.1680  142.0510 C   0  0  2  0  0  3  0  0  0  0  0  0
  185.2840  178.3140  144.2900 O   0  0  0  0  0  1  0  0  0  0  0  0
  184.4310  179.1200  143.5280 C   0  0  2  0  0  3  0  0  0  0  0  0
  183.7030  178.2670  142.5080 C   0  0  1  0  0  3  0  0  0  0  0  0
  181.6500  179.1280  143.3540 O   0  0  0  0  0  1  0  0  0  0  0  0
  181.6410  178.0820  141.3290 O   0  0  0  0  0  1  0  0  0  0  0  0
  182.3720  178.9150  142.1790 C   0  0  0  0  0  3  0  0  0  0  0  0
  190.0230  176.0220  142.6150 C   0  0  0  0  0  2  0  0  0  0  0  0
  189.3590  176.2090  143.9020 N   0  0  0  0  0  2  0  0  0  0  0  0
  189.9770  176.9270  147.3120 N   0  0  0  0  0  0  0  0  0  0  0  0
  188.3700  178.0430  146.0460 O   0  0  0  0  0  0  0  0  0  0  0  0
  190.1620  177.0780  144.7700 C   0  0  1  0  0  3  0  0  0  0  0  0
  189.4490  177.3930  146.0640 C   0  0  0  0  0  0  0  0  0  0  0  0
  191.9810  176.1560  146.1990 C   0  0  0  0  0  3  0  0  0  0  0  0
  191.5470  176.5130  144.9890 C   0  0  0  0  0  3  0  0  0  0  0  0
  191.1370  176.3460  147.3920 C   0  0  0  0  0  3  0  0  0  0  0  0
  1  3  1  0  0  0  0
  1 26  1  1  0  0  0
  2  6  1  0  0  0  0
  2  5  1  0  0  0  0
  4  2  2  0  0  0  0
  5 17  1  6  0  0  0
  5  3  1  0  0  0  0
  6  9  1  6  0  0  0
  6  1  1  0  0  0  0
  7 15  2  0  0  0  0
  7 12  1  0  0  0  0
  8 12  1  0  0  0  0
  9 16  1  0  0  0  0
 10 13  2  0  0  0  0
 10 11  1  0  0  0  0
 11  8  2  0  0  0  0
 12  9  2  0  0  0  0
 13  7  1  0  0  0  0
 14 16  2  0  0  0  0
 15 14  1  0  0  0  0
 17 18  1  0  0  0  0
 19 18  1  1  0  0  0
 19 22  1  0  0  0  0
 19 21  1  0  0  0  0
 21 20  1  1  0  0  0
 22 25  1  6  0  0  0
 22 21  1  0  0  0  0
 24 25  1  0  0  0  0
 25 23  1  0  0  0  0
 26 27  1  0  0  0  0
 28 34  2  0  0  0  0
 29 31  2  0  0  0  0
 30 27  1  1  0  0  0
 30 33  1  0  0  0  0
 30 31  1  0  0  0  0
 31 28  1  0  0  0  0
 32 34  1  0  0  0  0
 33 32  2  0  0  0  0
M  END
>  <MODEL>
8

>  <REMARK>
 VINA RESULT:      -7.4      3.077      7.548
  Name = 
  8 active torsions:
  status: ('A' for Active; 'I' for Inactive)
    1  A    between atoms: C_3  and  C_13
    2  A    between atoms: C_3  and  N_17
    3  A    between atoms: C_4  and  C_31
    4  A    between atoms: C_5  and  C_26
    5  A    between atoms: C_12  and  N_28
    6  A    between atoms: N_17  and  C_29
    7  A    between atoms: C_20  and  C_34
    8  A    between atoms: C_26  and  N_28
                            x       y       z     vdW  Elec       q    Type
                         _______ _______ _______ _____ _____    ______ ____

>  <TORSDO>
F 8

$$$$
=
 OpenBabel10262423593D

 34 38  0  0  1  0  0  0  0  0999 V2000
  188.9010  177.0130  141.4710 C   0  0  2  0  0  3  0  0  0  0  0  0
  191.3110  177.1170  141.6830 C   0  0  0  0  0  0  0  0  0  0  0  0
  189.1760  176.8840  143.2680 S   0  0  0  0  0  0  0  0  0  0  0  0
  192.4710  177.2080  141.3110 O   0  0  0  0  0  0  0  0  0  0  0  0
  190.9690  176.6490  143.0530 C   0  0  2  0  0  3  0  0  0  0  0  0
  190.1730  177.5020  140.8020 C   0  0  1  0  0  3  0  0  0  0  0  0
  189.7740  176.9660  137.0430 C   0  0  0  0  0  0  0  0  0  0  0  0
  189.0770  178.8280  138.4420 C   0  0  0  0  0  3  0  0  0  0  0  0
  190.2790  176.9200  139.4170 C   0  0  0  0  0  0  0  0  0  0  0  0
  188.5670  178.8300  136.0740 C   0  0  0  0  0  3  0  0  0  0  0  0
  188.5050  179.4450  137.3270 C   0  0  0  0  0  3  0  0  0  0  0  0
  189.7120  177.5830  138.3120 C   0  0  0  0  0  0  0  0  0  0  0  0
  189.2040  177.5930  135.9310 C   0  0  0  0  0  3  0  0  0  0  0  0
  190.9310  175.0980  138.0240 C   0  0  0  0  0  3  0  0  0  0  0  0
  190.3870  175.7220  136.9010 C   0  0  0  0  0  3  0  0  0  0  0  0
  190.8590  175.6980  139.2410 N   0  0  0  0  0  0  0  0  0  0  0  0
  191.6780  177.4500  144.0390 N   0  0  0  0  0  2  0  0  0  0  0  0
  191.7180  176.6760  145.2690 C   0  0  0  0  0  2  0  0  0  0  0  0
  190.9780  177.4290  146.3640 C   0  0  2  0  0  3  0  0  0  0  0  0
  192.2020  175.8670  147.7810 O   0  0  0  0  0  1  0  0  0  0  0  0
  191.2840  176.9230  147.7770 C   0  0  2  0  0  3  0  0  0  0  0  0
  190.0160  176.4900  147.0660 C   0  0  1  0  0  3  0  0  0  0  0  0
  188.1760  177.9170  146.5690 O   0  0  0  0  0  1  0  0  0  0  0  0
  189.3060  178.2350  148.5240 O   0  0  0  0  0  1  0  0  0  0  0  0
  188.8440  177.2790  147.6160 C   0  0  0  0  0  3  0  0  0  0  0  0
  187.7740  177.9830  141.1810 C   0  0  0  0  0  2  0  0  0  0  0  0
  186.5800  177.6020  141.9290 N   0  0  0  0  0  2  0  0  0  0  0  0
  183.3530  179.0250  142.2250 N   0  0  0  0  0  0  0  0  0  0  0  0
  184.7540  179.4130  140.4030 O   0  0  0  0  0  0  0  0  0  0  0  0
  185.8870  178.7950  142.4290 C   0  0  1  0  0  3  0  0  0  0  0  0
  184.6500  179.1070  141.6210 C   0  0  0  0  0  0  0  0  0  0  0  0
  184.3630  178.6780  144.3950 C   0  0  0  0  0  3  0  0  0  0  0  0
  185.6050  178.6890  143.9110 C   0  0  0  0  0  3  0  0  0  0  0  0
  183.2010  178.8180  143.4990 C   0  0  0  0  0  3  0  0  0  0  0  0
  1 26  1  1  0  0  0
  1  3  1  0  0  0  0
  2  5  1  0  0  0  0
  4  2  2  0  0  0  0
  5  3  1  0  0  0  0
  5 17  1  1  0  0  0
  6  9  1  6  0  0  0
  6  1  1  0  0  0  0
  6  2  1  0  0  0  0
  7 12  1  0  0  0  0
 10 11  1  0  0  0  0
 11  8  2  0  0  0  0
 12  8  1  0  0  0  0
 12  9  2  0  0  0  0
 13 10  2  0  0  0  0
 13  7  1  0  0  0  0
 14 16  2  0  0  0  0
 15  7  2  0  0  0  0
 15 14  1  0  0  0  0
 16  9  1  0  0  0  0
 17 18  1  0  0  0  0
 19 18  1  6  0  0  0
 19 22  1  0  0  0  0
 19 21  1  0  0  0  0
 21 20  1  6  0  0  0
 22 25  1  1  0  0  0
 22 21  1  0  0  0  0
 23 25  1  0  0  0  0
 25 24  1  0  0  0  0
 26 27  1  0  0  0  0
 28 34  2  0  0  0  0
 29 31  2  0  0  0  0
 30 27  1  6  0  0  0
 30 33  1  0  0  0  0
 31 28  1  0  0  0  0
 31 30  1  0  0  0  0
 33 32  2  0  0  0  0
 34 32  1  0  0  0  0
M  END
>  <MODEL>
9

>  <REMARK>
 VINA RESULT:      -7.3      3.134      7.280
  Name = 
  8 active torsions:
  status: ('A' for Active; 'I' for Inactive)
    1  A    between atoms: C_3  and  C_13
    2  A    between atoms: C_3  and  N_17
    3  A    between atoms: C_4  and  C_31
    4  A    between atoms: C_5  and  C_26
    5  A    between atoms: C_12  and  N_28
    6  A    between atoms: N_17  and  C_29
    7  A    between atoms: C_20  and  C_34
    8  A    between atoms: C_26  and  N_28
                            x       y       z     vdW  Elec       q    Type
                         _______ _______ _______ _____ _____    ______ ____

>  <TORSDO>
F 8

$$$$
