=
 OpenBabel10272413373D

 32 36  0  0  1  0  0  0  0  0999 V2000
  186.8330  178.6670  138.2800 O   0  0  0  0  0  0  0  0  0  0  0  0
  184.6070  178.7980  139.2370 C   0  0  0  0  0  0  0  0  0  0  0  0
  183.1940  178.5130  138.8890 C   0  0  1  0  0  3  0  0  0  0  0  0
  181.7620  178.5790  137.0490 C   0  0  2  0  0  3  0  0  0  0  0  0
  187.7190  177.5890  138.4350 C   0  0  1  0  0  3  0  0  0  0  0  0
  187.6030  176.6200  137.2300 C   0  0  2  0  0  3  0  0  0  0  0  0
  185.1360  177.0320  137.5550 C   0  0  2  0  0  3  0  0  0  0  0  0
  181.2160  179.4550  138.0200 O   0  0  0  0  0  0  0  0  0  0  0  0
  182.2050  179.6390  139.0210 C   0  0  0  0  0  2  0  0  0  0  0  0
  186.2230  176.6870  136.5330 C   0  0  1  0  0  3  0  0  0  0  0  0
  183.8350  177.1890  136.9670 O   0  0  0  0  0  0  0  0  0  0  0  0
  184.9320  179.5740  140.1760 O   0  0  0  0  0  0  0  0  0  0  0  0
  180.9870  177.2680  137.0560 C   0  0  0  0  0  1  0  0  0  0  0  0
  185.5870  178.1400  138.4310 N   0  0  0  0  0  0  0  0  0  0  0  0
  183.2150  178.3820  137.4080 C   0  0  2  0  0  3  0  0  0  0  0  0
  189.1810  174.7780  136.7250 S   0  0  0  0  0  1  0  0  0  0  0  0
  187.8440  175.3140  137.6630 O   0  0  0  0  0  0  0  0  0  0  0  0
  187.5730  177.6480  134.6640 C   0  0  0  0  0  1  0  0  0  0  0  0
  186.2510  177.7100  135.4050 C   0  0  0  0  0  2  0  0  0  0  0  0
  189.1390  178.1190  138.5690 C   0  0  0  0  0  2  0  0  0  0  0  0
  191.0350  177.5310  139.8790 O   0  0  0  0  0  0  0  0  0  0  0  0
  189.7790  177.6280  139.8230 C   0  0  0  0  0  0  0  0  0  0  0  0
  188.9870  177.2930  140.9200 O   0  0  0  0  0  0  0  0  0  0  0  0
  189.4170  177.5250  142.2530 C   0  0  0  0  0  2  0  0  0  0  0  0
  188.6170  176.9370  144.5380 C   0  0  1  0  0  3  0  0  0  0  0  0
  187.4840  176.6640  143.5700 C   0  0  2  0  0  3  0  0  0  0  0  0
  188.9170  176.4060  143.1500 C   0  0  1  0  0  3  0  0  0  0  0  0
  187.4150  177.8600  144.4990 C   0  0  1  0  0  3  0  0  0  0  0  0
  186.4980  177.5460  145.6650 C   0  0  0  0  0  2  0  0  0  0  0  0
  185.6010  178.7030  145.9300 C   0  0  0  0  0  0  0  0  0  0  0  0
  184.7960  179.0930  145.0440 O   0  0  0  0  0  0  0  0  0  0  0  0
  185.6770  179.3780  147.1410 O   0  0  0  0  0  1  0  0  0  0  0  0
  1 14  1  0  0  0  0
  1  5  1  0  0  0  0
  2 12  2  0  0  0  0
  3  9  1  6  0  0  0
  3  2  1  0  0  0  0
  4 13  1  1  0  0  0
  4 15  1  0  0  0  0
  4  8  1  0  0  0  0
  5 20  1  6  0  0  0
  6 17  1  1  0  0  0
  6  5  1  0  0  0  0
  7 11  1  6  0  0  0
  7 14  1  0  0  0  0
  8  9  1  0  0  0  0
 10 19  1  6  0  0  0
 10  6  1  0  0  0  0
 10  7  1  0  0  0  0
 14  2  1  0  0  0  0
 15 11  1  1  0  0  0
 15  3  1  0  0  0  0
 16 17  1  0  0  0  0
 18 19  1  0  0  0  0
 20 22  1  0  0  0  0
 22 21  2  0  0  0  0
 22 23  1  0  0  0  0
 23 24  1  0  0  0  0
 24 27  1  0  0  0  0
 26 28  1  0  0  0  0
 26 25  1  0  0  0  0
 27 26  1  0  0  0  0
 27 25  1  0  0  0  0
 28 25  1  0  0  0  0
 28 29  1  0  0  0  0
 29 30  1  0  0  0  0
 30 32  1  0  0  0  0
 31 30  2  0  0  0  0
M  END
>  <MODEL>
1

>  <REMARK>
 VINA RESULT:      -7.2      0.000      0.000
  Name = 
  9 active torsions:
  status: ('A' for Active; 'I' for Inactive)
    1  A    between atoms: C_1  and  C_10
    2  A    between atoms: C_8  and  C_23
    3  A    between atoms: C_8  and  O_28
    4  A    between atoms: C_9  and  C_14
    5  A    between atoms: C_9  and  C_21
    6  A    between atoms: C_10  and  C_24
    7  A    between atoms: O_13  and  C_15
    8  A    between atoms: C_21  and  O_28
    9  A    between atoms: C_25  and  C_26
                            x       y       z     vdW  Elec       q    Type
                         _______ _______ _______ _____ _____    ______ ____

>  <TORSDO>
F 9

$$$$
=
 OpenBabel10272413373D

 32 36  0  0  1  0  0  0  0  0999 V2000
  189.0710  178.3510  141.2190 O   0  0  0  0  0  0  0  0  0  0  0  0
  187.8330  177.9010  139.1810 C   0  0  0  0  0  0  0  0  0  0  0  0
  188.0460  177.4040  137.8000 C   0  0  1  0  0  3  0  0  0  0  0  0
  189.6480  177.4680  136.1080 C   0  0  2  0  0  3  0  0  0  0  0  0
  189.2240  177.4540  142.2880 C   0  0  1  0  0  3  0  0  0  0  0  0
  190.5570  176.6750  142.1510 C   0  0  2  0  0  3  0  0  0  0  0  0
  189.8560  176.5470  139.7320 C   0  0  2  0  0  3  0  0  0  0  0  0
  188.4760  178.0640  135.5790 O   0  0  0  0  0  0  0  0  0  0  0  0
  187.5920  178.2840  136.6670 C   0  0  0  0  0  2  0  0  0  0  0  0
  191.0510  176.5770  140.6890 C   0  0  1  0  0  3  0  0  0  0  0  0
  190.2380  176.5360  138.3480 O   0  0  0  0  0  0  0  0  0  0  0  0
  186.8200  178.5740  139.5120 O   0  0  0  0  0  0  0  0  0  0  0  0
  189.7770  176.0470  135.5770 C   0  0  0  0  0  1  0  0  0  0  0  0
  188.8610  177.5760  140.1200 N   0  0  0  0  0  0  0  0  0  0  0  0
  189.5160  177.5050  137.6110 C   0  0  2  0  0  3  0  0  0  0  0  0
  191.5590  175.2810  143.9380 S   0  0  0  0  0  1  0  0  0  0  0  0
  190.3980  175.3900  142.6750 O   0  0  0  0  0  0  0  0  0  0  0  0
  193.3170  177.2410  139.8740 C   0  0  0  0  0  1  0  0  0  0  0  0
  191.9740  177.7460  140.3640 C   0  0  0  0  0  2  0  0  0  0  0  0
  189.1780  178.2220  143.6000 C   0  0  0  0  0  2  0  0  0  0  0  0
  187.6200  176.5390  144.2310 O   0  0  0  0  0  0  0  0  0  0  0  0
  188.2890  177.5460  144.5880 C   0  0  0  0  0  0  0  0  0  0  0  0
  188.2160  178.0260  145.8960 O   0  0  0  0  0  0  0  0  0  0  0  0
  187.1900  177.6150  146.7880 C   0  0  0  0  0  2  0  0  0  0  0  0
  185.6400  179.3020  145.8110 C   0  0  1  0  0  3  0  0  0  0  0  0
  184.8380  178.4410  146.7640 C   0  0  2  0  0  3  0  0  0  0  0  0
  186.2780  178.7910  147.0870 C   0  0  1  0  0  3  0  0  0  0  0  0
  184.6590  178.2830  145.2670 C   0  0  1  0  0  3  0  0  0  0  0  0
  183.3890  178.9850  144.8300 C   0  0  0  0  0  2  0  0  0  0  0  0
  183.2300  178.8740  143.3550 C   0  0  0  0  0  0  0  0  0  0  0  0
  182.0910  178.9930  142.8320 O   0  0  0  0  0  1  0  0  0  0  0  0
  184.3330  178.6010  142.5560 O   0  0  0  0  0  0  0  0  0  0  0  0
  1  5  1  0  0  0  0
  2 12  2  0  0  0  0
  2 14  1  0  0  0  0
  3  9  1  6  0  0  0
  3  2  1  0  0  0  0
  4 13  1  6  0  0  0
  4 15  1  0  0  0  0
  5 20  1  1  0  0  0
  6  5  1  0  0  0  0
  6 17  1  6  0  0  0
  7 11  1  6  0  0  0
  7 14  1  0  0  0  0
  7 10  1  0  0  0  0
  8  4  1  0  0  0  0
  8  9  1  0  0  0  0
 10 19  1  6  0  0  0
 10  6  1  0  0  0  0
 14  1  1  0  0  0  0
 15  3  1  0  0  0  0
 15 11  1  1  0  0  0
 17 16  1  0  0  0  0
 18 19  1  0  0  0  0
 20 22  1  0  0  0  0
 21 22  2  0  0  0  0
 22 23  1  0  0  0  0
 23 24  1  0  0  0  0
 24 27  1  0  0  0  0
 25 26  1  0  0  0  0
 25 27  1  0  0  0  0
 26 27  1  0  0  0  0
 28 25  1  0  0  0  0
 28 26  1  0  0  0  0
 29 28  1  0  0  0  0
 30 29  1  0  0  0  0
 31 30  1  0  0  0  0
 32 30  2  0  0  0  0
M  END
>  <MODEL>
2

>  <REMARK>
 VINA RESULT:      -7.1      3.225      5.556
  Name = 
  9 active torsions:
  status: ('A' for Active; 'I' for Inactive)
    1  A    between atoms: C_1  and  C_10
    2  A    between atoms: C_8  and  C_23
    3  A    between atoms: C_8  and  O_28
    4  A    between atoms: C_9  and  C_14
    5  A    between atoms: C_9  and  C_21
    6  A    between atoms: C_10  and  C_24
    7  A    between atoms: O_13  and  C_15
    8  A    between atoms: C_21  and  O_28
    9  A    between atoms: C_25  and  C_26
                            x       y       z     vdW  Elec       q    Type
                         _______ _______ _______ _____ _____    ______ ____

>  <TORSDO>
F 9

$$$$
=
 OpenBabel10272413373D

 32 36  0  0  1  0  0  0  0  0999 V2000
  189.0240  178.3980  143.7790 O   0  0  0  0  0  0  0  0  0  0  0  0
  188.0910  177.6820  141.6560 C   0  0  0  0  0  0  0  0  0  0  0  0
  188.5230  177.2540  140.3040 C   0  0  1  0  0  3  0  0  0  0  0  0
  190.1980  177.6950  138.7430 C   0  0  2  0  0  3  0  0  0  0  0  0
  189.2930  177.5550  144.8700 C   0  0  1  0  0  3  0  0  0  0  0  0
  190.7770  177.1060  144.8500 C   0  0  2  0  0  3  0  0  0  0  0  0
  190.3210  176.8300  142.3860 C   0  0  2  0  0  3  0  0  0  0  0  0
  188.9670  178.0060  138.1150 O   0  0  0  0  0  0  0  0  0  0  0  0
  187.9710  178.0100  139.1260 C   0  0  0  0  0  2  0  0  0  0  0  0
  191.3960  177.1330  143.4330 C   0  0  1  0  0  3  0  0  0  0  0  0
  190.8050  176.9140  141.0360 O   0  0  0  0  0  0  0  0  0  0  0  0
  186.9270  178.1020  141.8960 O   0  0  0  0  0  0  0  0  0  0  0  0
  190.6940  176.3440  138.2450 C   0  0  0  0  0  1  0  0  0  0  0  0
  189.0870  177.6000  142.6790 N   0  0  0  0  0  0  0  0  0  0  0  0
  189.9410  177.6940  140.2310 C   0  0  2  0  0  3  0  0  0  0  0  0
  191.9820  175.9610  146.6880 S   0  0  0  0  0  1  0  0  0  0  0  0
  190.8770  175.8170  145.3790 O   0  0  0  0  0  0  0  0  0  0  0  0
  192.0400  179.3340  144.4230 C   0  0  0  0  0  1  0  0  0  0  0  0
  192.0470  178.4840  143.1670 C   0  0  0  0  0  2  0  0  0  0  0  0
  188.9660  178.2870  146.1640 C   0  0  0  0  0  2  0  0  0  0  0  0
  188.5590  176.6170  147.8070 O   0  0  0  0  0  0  0  0  0  0  0  0
  188.0630  177.4740  147.0270 C   0  0  0  0  0  0  0  0  0  0  0  0
  186.6840  177.6760  146.9710 O   0  0  0  0  0  0  0  0  0  0  0  0
  185.9940  177.7930  145.7350 C   0  0  0  0  0  2  0  0  0  0  0  0
  184.7650  179.4020  144.2840 C   0  0  1  0  0  3  0  0  0  0  0  0
  183.7970  178.8980  145.3330 C   0  0  2  0  0  3  0  0  0  0  0  0
  185.2530  179.1180  145.6910 C   0  0  1  0  0  3  0  0  0  0  0  0
  183.6720  178.4250  143.8980 C   0  0  1  0  0  3  0  0  0  0  0  0
  182.5450  179.1720  143.2120 C   0  0  0  0  0  2  0  0  0  0  0  0
  182.3930  178.6860  141.8140 C   0  0  0  0  0  0  0  0  0  0  0  0
  183.4110  178.4630  141.1080 O   0  0  0  0  0  0  0  0  0  0  0  0
  181.1250  178.5140  141.2730 O   0  0  0  0  0  1  0  0  0  0  0  0
  1  5  1  0  0  0  0
  2 12  2  0  0  0  0
  2 14  1  0  0  0  0
  3  9  1  6  0  0  0
  3  2  1  0  0  0  0
  4 13  1  6  0  0  0
  4 15  1  0  0  0  0
  5 20  1  1  0  0  0
  6  5  1  0  0  0  0
  6 17  1  6  0  0  0
  7 11  1  6  0  0  0
  7 14  1  0  0  0  0
  7 10  1  0  0  0  0
  8  4  1  0  0  0  0
  8  9  1  0  0  0  0
 10 19  1  6  0  0  0
 10  6  1  0  0  0  0
 14  1  1  0  0  0  0
 15  3  1  0  0  0  0
 15 11  1  1  0  0  0
 17 16  1  0  0  0  0
 19 18  1  0  0  0  0
 20 22  1  0  0  0  0
 22 21  2  0  0  0  0
 23 22  1  0  0  0  0
 24 23  1  0  0  0  0
 25 26  1  0  0  0  0
 25 27  1  0  0  0  0
 26 27  1  0  0  0  0
 27 24  1  0  0  0  0
 28 25  1  0  0  0  0
 28 26  1  0  0  0  0
 29 28  1  0  0  0  0
 30 29  1  0  0  0  0
 31 30  2  0  0  0  0
 32 30  1  0  0  0  0
M  END
>  <MODEL>
3

>  <REMARK>
 VINA RESULT:      -7.0      3.481      7.070
  Name = 
  9 active torsions:
  status: ('A' for Active; 'I' for Inactive)
    1  A    between atoms: C_1  and  C_10
    2  A    between atoms: C_8  and  C_23
    3  A    between atoms: C_8  and  O_28
    4  A    between atoms: C_9  and  C_14
    5  A    between atoms: C_9  and  C_21
    6  A    between atoms: C_10  and  C_24
    7  A    between atoms: O_13  and  C_15
    8  A    between atoms: C_21  and  O_28
    9  A    between atoms: C_25  and  C_26
                            x       y       z     vdW  Elec       q    Type
                         _______ _______ _______ _____ _____    ______ ____

>  <TORSDO>
F 9

$$$$
=
 OpenBabel10272413373D

 32 36  0  0  1  0  0  0  0  0999 V2000
  185.4510  177.9990  141.0230 O   0  0  0  0  0  0  0  0  0  0  0  0
  187.7520  178.3930  140.3600 C   0  0  0  0  0  0  0  0  0  0  0  0
  188.6270  178.3120  139.1650 C   0  0  1  0  0  3  0  0  0  0  0  0
  188.9230  177.0070  137.2550 C   0  0  2  0  0  3  0  0  0  0  0  0
  184.4390  178.9720  141.0520 C   0  0  1  0  0  3  0  0  0  0  0  0
  183.6210  178.9370  139.7360 C   0  0  2  0  0  3  0  0  0  0  0  0
  185.9090  178.6970  138.7040 C   0  0  2  0  0  3  0  0  0  0  0  0
  190.1310  176.9290  137.9920 O   0  0  0  0  0  0  0  0  0  0  0  0
  189.8760  177.4810  139.2740 C   0  0  0  0  0  2  0  0  0  0  0  0
  184.4230  178.3650  138.5420 C   0  0  1  0  0  3  0  0  0  0  0  0
  186.7310  178.1300  137.6710 O   0  0  0  0  0  0  0  0  0  0  0  0
  188.2070  178.4170  141.5350 O   0  0  0  0  0  0  0  0  0  0  0  0
  189.1000  177.9740  136.0920 C   0  0  0  0  0  1  0  0  0  0  0  0
  186.3470  178.4330  140.0950 N   0  0  0  0  0  0  0  0  0  0  0  0
  187.8550  177.4660  138.2190 C   0  0  2  0  0  3  0  0  0  0  0  0
  181.8610  180.0010  138.3540 S   0  0  0  0  0  1  0  0  0  0  0  0
  183.1840  180.2270  139.4280 O   0  0  0  0  0  0  0  0  0  0  0  0
  182.8890  176.4640  139.0640 C   0  0  0  0  0  1  0  0  0  0  0  0
  184.2120  176.8600  138.4370 C   0  0  0  0  0  2  0  0  0  0  0  0
  183.5400  178.7280  142.2550 C   0  0  0  0  0  2  0  0  0  0  0  0
  184.0660  180.1880  144.0570 O   0  0  0  0  0  0  0  0  0  0  0  0
  184.2430  179.0580  143.5270 C   0  0  0  0  0  0  0  0  0  0  0  0
  185.0770  178.1120  144.1220 O   0  0  0  0  0  0  0  0  0  0  0  0
  186.0410  178.4740  145.1000 C   0  0  0  0  0  2  0  0  0  0  0  0
  187.9790  176.9590  144.7070 C   0  0  1  0  0  3  0  0  0  0  0  0
  188.1580  177.5870  146.0740 C   0  0  2  0  0  3  0  0  0  0  0  0
  186.7700  177.2310  145.5800 C   0  0  1  0  0  3  0  0  0  0  0  0
  189.0310  178.0310  144.9160 C   0  0  1  0  0  3  0  0  0  0  0  0
  190.3970  177.3840  145.0320 C   0  0  0  0  0  2  0  0  0  0  0  0
  191.3020  177.9200  143.9800 C   0  0  0  0  0  0  0  0  0  0  0  0
  191.4970  177.2670  142.9220 O   0  0  0  0  0  0  0  0  0  0  0  0
  191.9640  179.1240  144.1810 O   0  0  0  0  0  1  0  0  0  0  0  0
  1  5  1  0  0  0  0
  2 12  2  0  0  0  0
  3  9  1  1  0  0  0
  3  2  1  0  0  0  0
  4 13  1  6  0  0  0
  4  8  1  0  0  0  0
  4 15  1  0  0  0  0
  5 20  1  1  0  0  0
  6 17  1  6  0  0  0
  6  5  1  0  0  0  0
  7 11  1  6  0  0  0
  7 14  1  0  0  0  0
  8  9  1  0  0  0  0
 10 19  1  1  0  0  0
 10  7  1  0  0  0  0
 10  6  1  0  0  0  0
 14  2  1  0  0  0  0
 14  1  1  0  0  0  0
 15 11  1  6  0  0  0
 15  3  1  0  0  0  0
 16 17  1  0  0  0  0
 19 18  1  0  0  0  0
 20 22  1  0  0  0  0
 22 21  2  0  0  0  0
 22 23  1  0  0  0  0
 23 24  1  0  0  0  0
 24 27  1  0  0  0  0
 25 28  1  0  0  0  0
 25 27  1  0  0  0  0
 25 26  1  0  0  0  0
 27 26  1  0  0  0  0
 28 29  1  0  0  0  0
 28 26  1  0  0  0  0
 30 32  1  0  0  0  0
 30 29  1  0  0  0  0
 31 30  2  0  0  0  0
M  END
>  <MODEL>
4

>  <REMARK>
 VINA RESULT:      -6.9      2.492      5.617
  Name = 
  9 active torsions:
  status: ('A' for Active; 'I' for Inactive)
    1  A    between atoms: C_1  and  C_10
    2  A    between atoms: C_8  and  C_23
    3  A    between atoms: C_8  and  O_28
    4  A    between atoms: C_9  and  C_14
    5  A    between atoms: C_9  and  C_21
    6  A    between atoms: C_10  and  C_24
    7  A    between atoms: O_13  and  C_15
    8  A    between atoms: C_21  and  O_28
    9  A    between atoms: C_25  and  C_26
                            x       y       z     vdW  Elec       q    Type
                         _______ _______ _______ _____ _____    ______ ____

>  <TORSDO>
F 9

$$$$
=
 OpenBabel10272413373D

 32 36  0  0  1  0  0  0  0  0999 V2000
  188.4090  178.5160  140.1430 O   0  0  0  0  0  0  0  0  0  0  0  0
  188.6660  177.2740  138.0730 C   0  0  0  0  0  0  0  0  0  0  0  0
  189.6280  176.3750  137.3920 C   0  0  1  0  0  3  0  0  0  0  0  0
  191.9280  176.0580  137.1740 C   0  0  2  0  0  3  0  0  0  0  0  0
  187.7480  178.0490  141.2900 C   0  0  1  0  0  3  0  0  0  0  0  0
  188.7640  177.4290  142.2820 C   0  0  2  0  0  3  0  0  0  0  0  0
  189.7140  176.4240  140.1730 C   0  0  2  0  0  3  0  0  0  0  0  0
  191.4270  176.3050  135.8710 O   0  0  0  0  0  0  0  0  0  0  0  0
  190.0940  176.7690  136.0170 C   0  0  0  0  0  2  0  0  0  0  0  0
  190.0450  176.9090  141.5880 C   0  0  1  0  0  3  0  0  0  0  0  0
  190.8700  175.9980  139.4350 O   0  0  0  0  0  0  0  0  0  0  0  0
  187.7620  177.8970  137.4530 O   0  0  0  0  0  0  0  0  0  0  0  0
  192.1790  174.5660  137.3460 C   0  0  0  0  0  1  0  0  0  0  0  0
  188.8340  177.4010  139.4880 N   0  0  0  0  0  0  0  0  0  0  0  0
  190.8940  176.5770  138.1440 C   0  0  2  0  0  3  0  0  0  0  0  0
  188.7140  176.5380  144.5940 S   0  0  0  0  0  1  0  0  0  0  0  0
  188.1530  176.3820  142.9760 O   0  0  0  0  0  0  0  0  0  0  0  0
  191.4660  178.4400  142.9570 C   0  0  0  0  0  1  0  0  0  0  0  0
  191.1060  178.0020  141.5510 C   0  0  0  0  0  2  0  0  0  0  0  0
  186.9910  179.1990  141.9380 C   0  0  0  0  0  2  0  0  0  0  0  0
  185.2060  179.5260  140.4010 O   0  0  0  0  0  0  0  0  0  0  0  0
  185.5490  179.1740  141.5620 C   0  0  0  0  0  0  0  0  0  0  0  0
  184.5990  178.7510  142.4910 O   0  0  0  0  0  0  0  0  0  0  0  0
  184.9710  178.1360  143.7160 C   0  0  0  0  0  2  0  0  0  0  0  0
  184.8630  178.3550  146.1950 C   0  0  1  0  0  3  0  0  0  0  0  0
  185.8640  179.3720  145.6870 C   0  0  2  0  0  3  0  0  0  0  0  0
  184.6260  179.0570  144.8720 C   0  0  1  0  0  3  0  0  0  0  0  0
  186.3460  178.1310  146.4130 C   0  0  1  0  0  3  0  0  0  0  0  0
  186.7070  178.4850  147.8420 C   0  0  0  0  0  2  0  0  0  0  0  0
  188.0250  177.8910  148.1940 C   0  0  0  0  0  0  0  0  0  0  0  0
  188.9670  178.6290  148.5820 O   0  0  0  0  0  1  0  0  0  0  0  0
  188.2280  176.5230  148.0590 O   0  0  0  0  0  0  0  0  0  0  0  0
  1  5  1  0  0  0  0
  2 14  1  0  0  0  0
  3  9  1  6  0  0  0
  3  2  1  0  0  0  0
  3 15  1  0  0  0  0
  4 13  1  1  0  0  0
  4 15  1  0  0  0  0
  5 20  1  1  0  0  0
  5  6  1  0  0  0  0
  6 17  1  6  0  0  0
  7 11  1  6  0  0  0
  7 10  1  0  0  0  0
  8  9  1  0  0  0  0
  8  4  1  0  0  0  0
 10 19  1  6  0  0  0
 10  6  1  0  0  0  0
 12  2  2  0  0  0  0
 14  1  1  0  0  0  0
 14  7  1  0  0  0  0
 15 11  1  1  0  0  0
 17 16  1  0  0  0  0
 19 18  1  0  0  0  0
 21 22  2  0  0  0  0
 22 20  1  0  0  0  0
 22 23  1  0  0  0  0
 23 24  1  0  0  0  0
 24 27  1  0  0  0  0
 25 28  1  0  0  0  0
 26 25  1  0  0  0  0
 26 28  1  0  0  0  0
 27 26  1  0  0  0  0
 27 25  1  0  0  0  0
 28 29  1  0  0  0  0
 29 30  1  0  0  0  0
 30 31  1  0  0  0  0
 32 30  2  0  0  0  0
M  END
>  <MODEL>
5

>  <REMARK>
 VINA RESULT:      -6.9      3.342      6.286
  Name = 
  9 active torsions:
  status: ('A' for Active; 'I' for Inactive)
    1  A    between atoms: C_1  and  C_10
    2  A    between atoms: C_8  and  C_23
    3  A    between atoms: C_8  and  O_28
    4  A    between atoms: C_9  and  C_14
    5  A    between atoms: C_9  and  C_21
    6  A    between atoms: C_10  and  C_24
    7  A    between atoms: O_13  and  C_15
    8  A    between atoms: C_21  and  O_28
    9  A    between atoms: C_25  and  C_26
                            x       y       z     vdW  Elec       q    Type
                         _______ _______ _______ _____ _____    ______ ____

>  <TORSDO>
F 9

$$$$
=
 OpenBabel10272413373D

 32 36  0  0  1  0  0  0  0  0999 V2000
  186.6240  178.6390  138.0430 O   0  0  0  0  0  0  0  0  0  0  0  0
  184.4150  178.7520  139.0430 C   0  0  0  0  0  0  0  0  0  0  0  0
  182.9980  178.4520  138.7220 C   0  0  1  0  0  3  0  0  0  0  0  0
  181.5310  178.4970  136.9100 C   0  0  2  0  0  3  0  0  0  0  0  0
  187.5230  177.5700  138.1860 C   0  0  1  0  0  3  0  0  0  0  0  0
  187.3930  176.5950  136.9870 C   0  0  2  0  0  3  0  0  0  0  0  0
  184.9290  176.9850  137.3570 C   0  0  2  0  0  3  0  0  0  0  0  0
  180.9950  179.3710  137.8880 O   0  0  0  0  0  0  0  0  0  0  0  0
  182.0010  179.5700  138.8680 C   0  0  0  0  0  2  0  0  0  0  0  0
  186.0000  176.6460  136.3160 C   0  0  1  0  0  3  0  0  0  0  0  0
  183.6160  177.1270  136.7930 O   0  0  0  0  0  0  0  0  0  0  0  0
  184.7500  179.5350  139.9720 O   0  0  0  0  0  0  0  0  0  0  0  0
  180.7690  177.1790  136.9360 C   0  0  0  0  0  1  0  0  0  0  0  0
  185.3860  178.1010  138.2200 N   0  0  0  0  0  0  0  0  0  0  0  0
  182.9930  178.3160  137.2420 C   0  0  2  0  0  3  0  0  0  0  0  0
  188.9460  174.7480  136.4240 S   0  0  0  0  0  1  0  0  0  0  0  0
  187.6550  175.2930  137.4200 O   0  0  0  0  0  0  0  0  0  0  0  0
  187.3250  177.6520  134.4530 C   0  0  0  0  0  1  0  0  0  0  0  0
  185.9960  177.6650  135.1830 C   0  0  0  0  0  2  0  0  0  0  0  0
  188.9400  178.1140  138.2900 C   0  0  0  0  0  2  0  0  0  0  0  0
  190.6290  177.6510  139.9000 O   0  0  0  0  0  0  0  0  0  0  0  0
  189.4450  178.0310  139.6910 C   0  0  0  0  0  0  0  0  0  0  0  0
  188.6090  178.3830  140.7500 O   0  0  0  0  0  0  0  0  0  0  0  0
  189.0140  178.2380  142.1030 C   0  0  0  0  0  2  0  0  0  0  0  0
  188.8330  176.7490  144.0930 C   0  0  1  0  0  3  0  0  0  0  0  0
  187.5710  177.5830  144.0280 C   0  0  2  0  0  3  0  0  0  0  0  0
  188.2310  177.1080  142.7480 C   0  0  1  0  0  3  0  0  0  0  0  0
  188.6190  177.8760  145.0830 C   0  0  1  0  0  3  0  0  0  0  0  0
  188.1750  177.3020  146.4140 C   0  0  0  0  0  2  0  0  0  0  0  0
  189.2310  177.5220  147.4390 C   0  0  0  0  0  0  0  0  0  0  0  0
  189.0460  178.3490  148.3690 O   0  0  0  0  0  1  0  0  0  0  0  0
  190.4400  176.8420  147.3480 O   0  0  0  0  0  0  0  0  0  0  0  0
  1  5  1  0  0  0  0
  1 14  1  0  0  0  0
  2 12  2  0  0  0  0
  3  9  1  6  0  0  0
  3  2  1  0  0  0  0
  4 13  1  1  0  0  0
  4 15  1  0  0  0  0
  4  8  1  0  0  0  0
  5 20  1  6  0  0  0
  6 17  1  1  0  0  0
  6  5  1  0  0  0  0
  7 11  1  6  0  0  0
  7 14  1  0  0  0  0
  8  9  1  0  0  0  0
 10 19  1  6  0  0  0
 10  6  1  0  0  0  0
 10  7  1  0  0  0  0
 14  2  1  0  0  0  0
 15 11  1  1  0  0  0
 15  3  1  0  0  0  0
 16 17  1  0  0  0  0
 18 19  1  0  0  0  0
 20 22  1  0  0  0  0
 22 21  2  0  0  0  0
 22 23  1  0  0  0  0
 23 24  1  0  0  0  0
 24 27  1  0  0  0  0
 25 28  1  0  0  0  0
 26 25  1  0  0  0  0
 26 28  1  0  0  0  0
 27 26  1  0  0  0  0
 27 25  1  0  0  0  0
 28 29  1  0  0  0  0
 29 30  1  0  0  0  0
 30 31  1  0  0  0  0
 32 30  2  0  0  0  0
M  END
>  <MODEL>
6

>  <REMARK>
 VINA RESULT:      -6.9      1.402      1.656
  Name = 
  9 active torsions:
  status: ('A' for Active; 'I' for Inactive)
    1  A    between atoms: C_1  and  C_10
    2  A    between atoms: C_8  and  C_23
    3  A    between atoms: C_8  and  O_28
    4  A    between atoms: C_9  and  C_14
    5  A    between atoms: C_9  and  C_21
    6  A    between atoms: C_10  and  C_24
    7  A    between atoms: O_13  and  C_15
    8  A    between atoms: C_21  and  O_28
    9  A    between atoms: C_25  and  C_26
                            x       y       z     vdW  Elec       q    Type
                         _______ _______ _______ _____ _____    ______ ____

>  <TORSDO>
F 9

$$$$
=
 OpenBabel10272413373D

 32 36  0  0  1  0  0  0  0  0999 V2000
  188.5030  176.6990  142.0790 O   0  0  0  0  0  0  0  0  0  0  0  0
  187.4280  177.8710  143.9130 C   0  0  0  0  0  0  0  0  0  0  0  0
  187.6100  178.1410  145.3600 C   0  0  1  0  0  3  0  0  0  0  0  0
  188.4160  177.0970  147.2820 C   0  0  2  0  0  3  0  0  0  0  0  0
  189.4040  177.2740  141.1690 C   0  0  1  0  0  3  0  0  0  0  0  0
  190.8640  177.0260  141.6270 C   0  0  2  0  0  3  0  0  0  0  0  0
  189.9110  177.6120  143.8860 C   0  0  2  0  0  3  0  0  0  0  0  0
  187.0530  177.3960  147.5250 O   0  0  0  0  0  0  0  0  0  0  0  0
  186.4800  177.7730  146.2830 C   0  0  0  0  0  2  0  0  0  0  0  0
  190.9890  176.8100  143.1540 C   0  0  1  0  0  3  0  0  0  0  0  0
  189.9130  177.4010  145.3070 O   0  0  0  0  0  0  0  0  0  0  0  0
  186.3150  177.9930  143.3330 O   0  0  0  0  0  0  0  0  0  0  0  0
  189.2930  178.1180  147.9960 C   0  0  0  0  0  1  0  0  0  0  0  0
  188.6000  177.4490  143.2110 N   0  0  0  0  0  0  0  0  0  0  0  0
  188.6100  177.1280  145.7860 C   0  0  2  0  0  3  0  0  0  0  0  0
  192.8850  177.4230  140.2490 S   0  0  0  0  0  1  0  0  0  0  0  0
  191.6600  178.1070  141.2430 O   0  0  0  0  0  0  0  0  0  0  0  0
  192.0630  174.8850  144.3280 C   0  0  0  0  0  1  0  0  0  0  0  0
  190.8810  175.3270  143.4880 C   0  0  0  0  0  2  0  0  0  0  0  0
  189.1640  176.6900  139.7850 C   0  0  0  0  0  2  0  0  0  0  0  0
  188.8780  178.9410  139.0720 O   0  0  0  0  0  0  0  0  0  0  0  0
  189.1600  177.7570  138.7440 C   0  0  0  0  0  0  0  0  0  0  0  0
  189.4790  177.4370  137.4250 O   0  0  0  0  0  0  0  0  0  0  0  0
  190.7750  176.9870  137.0560 C   0  0  0  0  0  2  0  0  0  0  0  0
  192.0820  175.0200  136.2640 C   0  0  1  0  0  3  0  0  0  0  0  0
  191.5760  174.7040  137.6550 C   0  0  2  0  0  3  0  0  0  0  0  0
  190.7170  175.5110  136.7020 C   0  0  1  0  0  3  0  0  0  0  0  0
  193.0430  175.0180  137.4360 C   0  0  1  0  0  3  0  0  0  0  0  0
  193.8430  173.7300  137.4320 C   0  0  0  0  0  2  0  0  0  0  0  0
  194.9870  173.8420  138.3780 C   0  0  0  0  0  0  0  0  0  0  0  0
  195.3360  174.9690  138.8170 O   0  0  0  0  0  1  0  0  0  0  0  0
  195.6960  172.7060  138.7480 O   0  0  0  0  0  0  0  0  0  0  0  0
  1 14  1  0  0  0  0
  2  3  1  0  0  0  0
  3 15  1  0  0  0  0
  3  9  1  1  0  0  0
  4  8  1  0  0  0  0
  4 13  1  1  0  0  0
  5 20  1  6  0  0  0
  5  6  1  0  0  0  0
  5  1  1  0  0  0  0
  6 17  1  1  0  0  0
  6 10  1  0  0  0  0
  7 11  1  1  0  0  0
  9  8  1  0  0  0  0
 10 19  1  6  0  0  0
 10  7  1  0  0  0  0
 12  2  2  0  0  0  0
 14  7  1  0  0  0  0
 14  2  1  0  0  0  0
 15 11  1  1  0  0  0
 15  4  1  0  0  0  0
 16 17  1  0  0  0  0
 19 18  1  0  0  0  0
 22 21  2  0  0  0  0
 22 20  1  0  0  0  0
 23 22  1  0  0  0  0
 24 23  1  0  0  0  0
 25 27  1  0  0  0  0
 25 28  1  0  0  0  0
 25 26  1  0  0  0  0
 27 24  1  0  0  0  0
 27 26  1  0  0  0  0
 28 26  1  0  0  0  0
 29 28  1  0  0  0  0
 29 30  1  0  0  0  0
 30 32  2  0  0  0  0
 30 31  1  0  0  0  0
M  END
>  <MODEL>
7

>  <REMARK>
 VINA RESULT:      -6.8      4.190      8.624
  Name = 
  9 active torsions:
  status: ('A' for Active; 'I' for Inactive)
    1  A    between atoms: C_1  and  C_10
    2  A    between atoms: C_8  and  C_23
    3  A    between atoms: C_8  and  O_28
    4  A    between atoms: C_9  and  C_14
    5  A    between atoms: C_9  and  C_21
    6  A    between atoms: C_10  and  C_24
    7  A    between atoms: O_13  and  C_15
    8  A    between atoms: C_21  and  O_28
    9  A    between atoms: C_25  and  C_26
                            x       y       z     vdW  Elec       q    Type
                         _______ _______ _______ _____ _____    ______ ____

>  <TORSDO>
F 9

$$$$
=
 OpenBabel10272413373D

 32 36  0  0  1  0  0  0  0  0999 V2000
  189.4160  178.4260  141.2120 O   0  0  0  0  0  0  0  0  0  0  0  0
  187.0590  178.1960  141.7410 C   0  0  0  0  0  0  0  0  0  0  0  0
  185.7330  178.1950  141.0770 C   0  0  1  0  0  3  0  0  0  0  0  0
  184.6250  179.2250  139.3030 C   0  0  2  0  0  3  0  0  0  0  0  0
  190.2970  177.3610  140.9590 C   0  0  1  0  0  3  0  0  0  0  0  0
  190.4120  177.1090  139.4340 C   0  0  2  0  0  3  0  0  0  0  0  0
  187.9140  177.4460  139.5200 C   0  0  2  0  0  3  0  0  0  0  0  0
  183.8990  179.5470  140.4760 O   0  0  0  0  0  0  0  0  0  0  0  0
  184.7020  179.1670  141.5820 C   0  0  0  0  0  2  0  0  0  0  0  0
  189.1660  177.5820  138.6480 C   0  0  1  0  0  3  0  0  0  0  0  0
  186.7250  177.9400  138.8840 O   0  0  0  0  0  0  0  0  0  0  0  0
  187.1990  178.3990  142.9780 O   0  0  0  0  0  0  0  0  0  0  0  0
  183.9000  178.1220  138.5440 C   0  0  0  0  0  1  0  0  0  0  0  0
  188.1790  177.9610  140.8850 N   0  0  0  0  0  0  0  0  0  0  0  0
  186.0040  178.8000  139.7470 C   0  0  2  0  0  3  0  0  0  0  0  0
  191.1880  175.6520  137.5870 S   0  0  0  0  0  1  0  0  0  0  0  0
  190.6180  175.7460  139.2050 O   0  0  0  0  0  0  0  0  0  0  0  0
  188.9890  179.1570  136.7180 C   0  0  0  0  0  1  0  0  0  0  0  0
  189.3500  179.0220  138.1850 C   0  0  0  0  0  2  0  0  0  0  0  0
  191.6570  177.6800  141.5600 C   0  0  0  0  0  2  0  0  0  0  0  0
  191.9610  178.6570  143.7070 O   0  0  0  0  0  0  0  0  0  0  0  0
  191.6100  177.6400  143.0500 C   0  0  0  0  0  0  0  0  0  0  0  0
  191.1690  176.4870  143.6980 O   0  0  0  0  0  0  0  0  0  0  0  0
  189.9430  176.4530  144.4130 C   0  0  0  0  0  2  0  0  0  0  0  0
  189.0050  178.2380  145.8750 C   0  0  1  0  0  3  0  0  0  0  0  0
  188.9170  176.9310  146.6340 C   0  0  2  0  0  3  0  0  0  0  0  0
  190.1000  177.2010  145.7250 C   0  0  1  0  0  3  0  0  0  0  0  0
  187.6610  177.5630  146.0660 C   0  0  1  0  0  3  0  0  0  0  0  0
  186.8960  178.2600  147.1730 C   0  0  0  0  0  2  0  0  0  0  0  0
  185.5580  178.6800  146.6780 C   0  0  0  0  0  0  0  0  0  0  0  0
  184.5180  178.1330  147.1280 O   0  0  0  0  0  1  0  0  0  0  0  0
  185.4570  179.6510  145.6900 O   0  0  0  0  0  0  0  0  0  0  0  0
  2 12  2  0  0  0  0
  3  9  1  1  0  0  0
  3  2  1  0  0  0  0
  4 13  1  1  0  0  0
  4 15  1  0  0  0  0
  4  8  1  0  0  0  0
  5  1  1  0  0  0  0
  5 20  1  6  0  0  0
  6 17  1  1  0  0  0
  6  5  1  0  0  0  0
  7 11  1  6  0  0  0
  7 14  1  0  0  0  0
  8  9  1  0  0  0  0
 10 19  1  1  0  0  0
 10  6  1  0  0  0  0
 10  7  1  0  0  0  0
 14  1  1  0  0  0  0
 14  2  1  0  0  0  0
 15 11  1  6  0  0  0
 15  3  1  0  0  0  0
 16 17  1  0  0  0  0
 18 19  1  0  0  0  0
 20 22  1  0  0  0  0
 22 23  1  0  0  0  0
 22 21  2  0  0  0  0
 23 24  1  0  0  0  0
 24 27  1  0  0  0  0
 25 28  1  0  0  0  0
 25 26  1  0  0  0  0
 27 25  1  0  0  0  0
 27 26  1  0  0  0  0
 28 26  1  0  0  0  0
 28 29  1  0  0  0  0
 30 31  1  0  0  0  0
 30 29  1  0  0  0  0
 32 30  2  0  0  0  0
M  END
>  <MODEL>
8

>  <REMARK>
 VINA RESULT:      -6.7      2.177      3.268
  Name = 
  9 active torsions:
  status: ('A' for Active; 'I' for Inactive)
    1  A    between atoms: C_1  and  C_10
    2  A    between atoms: C_8  and  C_23
    3  A    between atoms: C_8  and  O_28
    4  A    between atoms: C_9  and  C_14
    5  A    between atoms: C_9  and  C_21
    6  A    between atoms: C_10  and  C_24
    7  A    between atoms: O_13  and  C_15
    8  A    between atoms: C_21  and  O_28
    9  A    between atoms: C_25  and  C_26
                            x       y       z     vdW  Elec       q    Type
                         _______ _______ _______ _____ _____    ______ ____

>  <TORSDO>
F 9

$$$$
=
 OpenBabel10272413373D

 32 36  0  0  1  0  0  0  0  0999 V2000
  184.4250  179.5890  143.7200 O   0  0  0  0  0  0  0  0  0  0  0  0
  182.3400  178.9980  142.6260 C   0  0  0  0  0  0  0  0  0  0  0  0
  181.8350  178.4800  141.3310 C   0  0  1  0  0  3  0  0  0  0  0  0
  182.3070  178.6100  139.0520 C   0  0  2  0  0  3  0  0  0  0  0  0
  185.1790  178.7330  144.5400 C   0  0  1  0  0  3  0  0  0  0  0  0
  186.2970  178.0450  143.7150 C   0  0  2  0  0  3  0  0  0  0  0  0
  184.4460  177.8040  142.0200 C   0  0  2  0  0  3  0  0  0  0  0  0
  180.9920  179.1080  139.2230 O   0  0  0  0  0  0  0  0  0  0  0  0
  180.7930  179.2950  140.6160 C   0  0  0  0  0  2  0  0  0  0  0  0
  185.9590  177.9430  142.2090 C   0  0  1  0  0  3  0  0  0  0  0  0
  184.0470  177.7810  140.6400 O   0  0  0  0  0  0  0  0  0  0  0  0
  181.6040  179.6080  143.4470 O   0  0  0  0  0  0  0  0  0  0  0  0
  182.2440  177.1870  138.5140 C   0  0  0  0  0  1  0  0  0  0  0  0
  183.7280  178.7710  142.8840 N   0  0  0  0  0  0  0  0  0  0  0  0
  182.9780  178.6780  140.4020 C   0  0  2  0  0  3  0  0  0  0  0  0
  187.9310  176.2090  143.4040 S   0  0  0  0  0  1  0  0  0  0  0  0
  186.5300  176.7670  144.2280 O   0  0  0  0  0  0  0  0  0  0  0  0
  187.7040  178.7950  140.6380 C   0  0  0  0  0  1  0  0  0  0  0  0
  186.4880  179.1640  141.4650 C   0  0  0  0  0  2  0  0  0  0  0  0
  185.7700  179.5320  145.6920 C   0  0  0  0  0  2  0  0  0  0  0  0
  184.4830  178.3850  147.3310 O   0  0  0  0  0  0  0  0  0  0  0  0
  185.6210  178.8030  146.9840 C   0  0  0  0  0  0  0  0  0  0  0  0
  186.7400  178.5820  147.7870 O   0  0  0  0  0  0  0  0  0  0  0  0
  187.4800  177.3720  147.7220 C   0  0  0  0  0  2  0  0  0  0  0  0
  189.8720  176.7210  147.4700 C   0  0  1  0  0  3  0  0  0  0  0  0
  189.7520  178.1830  147.0920 C   0  0  2  0  0  3  0  0  0  0  0  0
  188.8970  177.6170  148.2090 C   0  0  1  0  0  3  0  0  0  0  0  0
  189.9710  177.1370  146.0160 C   0  0  1  0  0  3  0  0  0  0  0  0
  191.4250  177.1440  145.5900 C   0  0  0  0  0  2  0  0  0  0  0  0
  191.5450  177.6790  144.2060 C   0  0  0  0  0  0  0  0  0  0  0  0
  191.6080  176.8900  143.2270 O   0  0  0  0  0  0  0  0  0  0  0  0
  191.6280  179.0490  143.9960 O   0  0  0  0  0  1  0  0  0  0  0  0
  1  5  1  0  0  0  0
  2 14  1  0  0  0  0
  2 12  2  0  0  0  0
  3  9  1  6  0  0  0
  3  2  1  0  0  0  0
  4 13  1  1  0  0  0
  4  8  1  0  0  0  0
  4 15  1  0  0  0  0
  5 20  1  1  0  0  0
  6 17  1  1  0  0  0
  6  5  1  0  0  0  0
  7 11  1  6  0  0  0
  7 10  1  0  0  0  0
  7 14  1  0  0  0  0
  8  9  1  0  0  0  0
 10 19  1  6  0  0  0
 10  6  1  0  0  0  0
 14  1  1  0  0  0  0
 15 11  1  6  0  0  0
 15  3  1  0  0  0  0
 16 17  1  0  0  0  0
 18 19  1  0  0  0  0
 20 22  1  0  0  0  0
 22 21  2  0  0  0  0
 22 23  1  0  0  0  0
 24 23  1  0  0  0  0
 24 27  1  0  0  0  0
 25 27  1  0  0  0  0
 26 25  1  0  0  0  0
 26 27  1  0  0  0  0
 28 26  1  0  0  0  0
 28 25  1  0  0  0  0
 29 28  1  0  0  0  0
 30 29  1  0  0  0  0
 31 30  2  0  0  0  0
 32 30  1  0  0  0  0
M  END
>  <MODEL>
9

>  <REMARK>
 VINA RESULT:      -6.6      3.261      5.622
  Name = 
  9 active torsions:
  status: ('A' for Active; 'I' for Inactive)
    1  A    between atoms: C_1  and  C_10
    2  A    between atoms: C_8  and  C_23
    3  A    between atoms: C_8  and  O_28
    4  A    between atoms: C_9  and  C_14
    5  A    between atoms: C_9  and  C_21
    6  A    between atoms: C_10  and  C_24
    7  A    between atoms: O_13  and  C_15
    8  A    between atoms: C_21  and  O_28
    9  A    between atoms: C_25  and  C_26
                            x       y       z     vdW  Elec       q    Type
                         _______ _______ _______ _____ _____    ______ ____

>  <TORSDO>
F 9

$$$$
