=
 OpenBabel10272401093D

 27 30  0  0  1  0  0  0  0  0999 V2000
  189.3700  176.6360  140.5620 N   0  0  0  0  0  0  0  0  0  0  0  0
  187.6800  177.9060  141.8460 C   0  0  0  0  0  0  0  0  0  0  0  0
  187.5070  178.7230  139.5050 O   0  0  0  0  0  0  0  0  0  0  0  0
  187.0730  177.7590  143.0560 N   0  0  0  0  0  0  0  0  0  0  0  0
  188.5220  178.7540  136.7010 C   0  0  0  0  0  2  0  0  0  0  0  0
  189.1190  177.4680  136.1680 C   0  0  0  0  0  2  0  0  0  0  0  0
  185.5910  178.8600  140.9920 C   0  0  0  0  0  0  0  0  0  0  0  0
  189.0330  177.4050  141.6930 N   0  0  0  0  0  0  0  0  0  0  0  0
  185.0350  178.6970  142.2680 C   0  0  0  0  0  0  0  0  0  0  0  0
  189.2730  177.1090  139.3630 C   0  0  0  0  0  0  0  0  0  0  0  0
  186.9410  178.4840  140.7680 C   0  0  0  0  0  0  0  0  0  0  0  0
  189.3020  179.2330  137.9110 C   0  0  0  0  0  2  0  0  0  0  0  0
  185.7940  178.1390  143.2880 C   0  0  0  0  0  3  0  0  0  0  0  0
  188.6830  176.2920  137.0190 C   0  0  0  0  0  2  0  0  0  0  0  0
  189.4480  176.2190  138.2560 N   0  0  0  0  0  2  0  0  0  0  0  0
  188.8780  178.5460  139.2060 C   0  0  1  0  0  3  0  0  0  0  0  0
  191.8040  177.4280  144.8850 C   0  0  0  0  0  3  0  0  0  0  0  0
  189.9590  177.4290  142.7990 C   0  0  0  0  0  0  0  0  0  0  0  0
  190.4320  178.6410  143.3250 C   0  0  0  0  0  3  0  0  0  0  0  0
  191.3520  178.6440  144.3730 C   0  0  0  0  0  3  0  0  0  0  0  0
  191.3500  176.2570  144.3630 N   0  0  0  0  0  0  0  0  0  0  0  0
  190.4530  176.2340  143.3400 C   0  0  0  0  0  3  0  0  0  0  0  0
  184.7660  179.4070  139.9920 O   0  0  0  0  0  0  0  0  0  0  0  0
  184.1450  178.6740  138.9450 C   0  0  0  0  0  1  0  0  0  0  0  0
  183.6190  179.0730  142.5470 C   0  0  0  0  0  2  0  0  0  0  0  0
  181.9220  178.8320  143.9350 C   0  0  0  0  0  1  0  0  0  0  0  0
  183.3140  178.8090  143.8820 O   0  0  0  0  0  0  0  0  0  0  0  0
  1  8  1  0  0  0  0
  2  4  1  0  0  0  0
  3 11  1  0  0  0  0
  4 13  2  0  0  0  0
  5 12  1  0  0  0  0
  6  5  1  0  0  0  0
  6 14  1  0  0  0  0
  7  9  2  0  0  0  0
  8  2  1  0  0  0  0
  8 18  1  0  0  0  0
  9 25  1  0  0  0  0
  9 13  1  0  0  0  0
 10  1  2  0  0  0  0
 11  7  1  0  0  0  0
 11  2  2  0  0  0  0
 14 15  1  0  0  0  0
 15 10  1  0  0  0  0
 16 12  1  6  0  0  0
 16 10  1  0  0  0  0
 16  3  1  0  0  0  0
 18 19  1  0  0  0  0
 18 22  2  0  0  0  0
 19 20  2  0  0  0  0
 20 17  1  0  0  0  0
 21 17  2  0  0  0  0
 22 21  1  0  0  0  0
 23  7  1  0  0  0  0
 24 23  1  0  0  0  0
 25 27  1  0  0  0  0
 27 26  1  0  0  0  0
M  END
>  <MODEL>
1

>  <REMARK>
 VINA RESULT:      -7.5      0.000      0.000
  Name = 
  4 active torsions:
  status: ('A' for Active; 'I' for Inactive)
    1  A    between atoms: C_4  and  O_16
    2  A    between atoms: C_4  and  C_17
    3  A    between atoms: O_8  and  C_14
    4  A    between atoms: C_9  and  N_15
                            x       y       z     vdW  Elec       q    Type
                         _______ _______ _______ _____ _____    ______ ____

>  <TORSDO>
F 4

$$$$
=
 OpenBabel10272401093D

 27 30  0  0  1  0  0  0  0  0999 V2000
  189.5280  178.6300  140.9990 N   0  0  0  0  0  0  0  0  0  0  0  0
  187.0730  178.3300  141.0440 C   0  0  0  0  0  0  0  0  0  0  0  0
  187.9140  177.3510  143.1690 O   0  0  0  0  0  0  0  0  0  0  0  0
  186.0200  178.8660  140.3670 N   0  0  0  0  0  0  0  0  0  0  0  0
  190.1940  176.5450  144.9130 C   0  0  0  0  0  2  0  0  0  0  0  0
  191.4440  177.4000  144.8570 C   0  0  0  0  0  2  0  0  0  0  0  0
  185.6410  178.1930  143.0270 C   0  0  0  0  0  0  0  0  0  0  0  0
  188.3450  178.2190  140.3550 N   0  0  0  0  0  0  0  0  0  0  0  0
  184.5950  178.7320  142.2660 C   0  0  0  0  0  0  0  0  0  0  0  0
  189.9300  178.0830  142.0990 C   0  0  0  0  0  0  0  0  0  0  0  0
  186.8990  177.9610  142.4130 C   0  0  0  0  0  0  0  0  0  0  0  0
  189.8980  175.9560  143.5470 C   0  0  0  0  0  2  0  0  0  0  0  0
  184.8070  179.0670  140.9350 C   0  0  0  0  0  3  0  0  0  0  0  0
  191.1290  178.7520  144.2490 C   0  0  0  0  0  2  0  0  0  0  0  0
  191.0310  178.6730  142.7990 N   0  0  0  0  0  2  0  0  0  0  0  0
  189.1500  176.9200  142.6300 C   0  0  1  0  0  3  0  0  0  0  0  0
  188.4090  177.4790  136.1940 C   0  0  0  0  0  3  0  0  0  0  0  0
  188.3970  177.9700  138.9350 C   0  0  0  0  0  0  0  0  0  0  0  0
  188.9360  178.9160  138.0500 C   0  0  0  0  0  3  0  0  0  0  0  0
  188.9480  178.6710  136.6760 C   0  0  0  0  0  3  0  0  0  0  0  0
  187.8780  176.5720  137.0560 N   0  0  0  0  0  0  0  0  0  0  0  0
  187.8560  176.7930  138.3980 C   0  0  0  0  0  3  0  0  0  0  0  0
  185.3730  177.8980  144.3770 O   0  0  0  0  0  0  0  0  0  0  0  0
  185.7280  178.7150  145.4840 C   0  0  0  0  0  1  0  0  0  0  0  0
  183.2570  178.9980  142.8710 C   0  0  0  0  0  2  0  0  0  0  0  0
  181.0790  179.1580  142.5600 C   0  0  0  0  0  1  0  0  0  0  0  0
  182.2560  178.7640  141.9270 O   0  0  0  0  0  0  0  0  0  0  0  0
  1 10  2  0  0  0  0
  2 11  1  0  0  0  0
  4 13  1  0  0  0  0
  4  2  2  0  0  0  0
  6  5  1  0  0  0  0
  7 23  1  0  0  0  0
  8  1  1  0  0  0  0
  8  2  1  0  0  0  0
  9 25  1  0  0  0  0
  9  7  1  0  0  0  0
 10 16  1  0  0  0  0
 10 15  1  0  0  0  0
 11  7  2  0  0  0  0
 11  3  1  0  0  0  0
 12  5  1  0  0  0  0
 13  9  2  0  0  0  0
 14  6  1  0  0  0  0
 15 14  1  0  0  0  0
 16  3  1  0  0  0  0
 16 12  1  1  0  0  0
 17 20  2  0  0  0  0
 17 21  1  0  0  0  0
 18  8  1  0  0  0  0
 19 18  2  0  0  0  0
 20 19  1  0  0  0  0
 21 22  2  0  0  0  0
 22 18  1  0  0  0  0
 23 24  1  0  0  0  0
 27 26  1  0  0  0  0
 27 25  1  0  0  0  0
M  END
>  <MODEL>
2

>  <REMARK>
 VINA RESULT:      -6.7      1.679      5.221
  Name = 
  4 active torsions:
  status: ('A' for Active; 'I' for Inactive)
    1  A    between atoms: C_4  and  O_16
    2  A    between atoms: C_4  and  C_17
    3  A    between atoms: O_8  and  C_14
    4  A    between atoms: C_9  and  N_15
                            x       y       z     vdW  Elec       q    Type
                         _______ _______ _______ _____ _____    ______ ____

>  <TORSDO>
F 4

$$$$
=
 OpenBabel10272401093D

 27 30  0  0  1  0  0  0  0  0999 V2000
  191.6220  177.5770  140.6220 N   0  0  0  0  0  0  0  0  0  0  0  0
  189.6770  177.3420  139.1120 C   0  0  0  0  0  0  0  0  0  0  0  0
  188.7680  177.1690  141.4200 O   0  0  0  0  0  0  0  0  0  0  0  0
  189.4310  177.6160  137.8020 N   0  0  0  0  0  0  0  0  0  0  0  0
  189.2150  177.0060  144.3630 C   0  0  0  0  0  2  0  0  0  0  0  0
  190.3970  177.7690  144.9270 C   0  0  0  0  0  2  0  0  0  0  0  0
  187.3510  177.9340  139.6020 C   0  0  0  0  0  0  0  0  0  0  0  0
  191.0290  176.9780  139.4930 N   0  0  0  0  0  0  0  0  0  0  0  0
  187.1620  178.1810  138.2360 C   0  0  0  0  0  0  0  0  0  0  0  0
  191.1170  177.4500  141.8050 C   0  0  0  0  0  0  0  0  0  0  0  0
  188.6170  177.4840  140.0590 C   0  0  0  0  0  0  0  0  0  0  0  0
  189.6890  175.9740  143.3560 C   0  0  0  0  0  2  0  0  0  0  0  0
  188.2200  178.0200  137.3500 C   0  0  0  0  0  3  0  0  0  0  0  0
  190.8610  178.8230  143.9410 C   0  0  0  0  0  2  0  0  0  0  0  0
  191.6580  178.2360  142.8720 N   0  0  0  0  0  2  0  0  0  0  0  0
  189.9230  176.5600  141.9660 C   0  0  1  0  0  3  0  0  0  0  0  0
  193.5790  174.8110  136.9110 C   0  0  0  0  0  3  0  0  0  0  0  0
  191.8790  176.2420  138.5900 C   0  0  0  0  0  0  0  0  0  0  0  0
  191.4340  175.0630  137.9720 C   0  0  0  0  0  3  0  0  0  0  0  0
  192.2820  174.3460  137.1270 C   0  0  0  0  0  3  0  0  0  0  0  0
  194.0070  175.9480  137.5230 N   0  0  0  0  0  0  0  0  0  0  0  0
  193.1950  176.6600  138.3510 C   0  0  0  0  0  3  0  0  0  0  0  0
  186.2500  178.1390  140.4540 O   0  0  0  0  0  0  0  0  0  0  0  0
  186.1450  179.1670  141.4310 C   0  0  0  0  0  1  0  0  0  0  0  0
  185.8500  178.6610  137.7110 C   0  0  0  0  0  2  0  0  0  0  0  0
  183.7890  177.9030  137.9170 C   0  0  0  0  0  1  0  0  0  0  0  0
  185.0390  177.5700  137.3980 O   0  0  0  0  0  0  0  0  0  0  0  0
  1 10  2  0  0  0  0
  2  8  1  0  0  0  0
  2 11  1  0  0  0  0
  3 16  1  0  0  0  0
  4  2  2  0  0  0  0
  5  6  1  0  0  0  0
  7 11  2  0  0  0  0
  7 23  1  0  0  0  0
  8  1  1  0  0  0  0
  9  7  1  0  0  0  0
 10 16  1  0  0  0  0
 10 15  1  0  0  0  0
 11  3  1  0  0  0  0
 12  5  1  0  0  0  0
 13  4  1  0  0  0  0
 13  9  2  0  0  0  0
 14  6  1  0  0  0  0
 15 14  1  0  0  0  0
 16 12  1  1  0  0  0
 17 20  2  0  0  0  0
 17 21  1  0  0  0  0
 18  8  1  0  0  0  0
 19 18  2  0  0  0  0
 20 19  1  0  0  0  0
 21 22  2  0  0  0  0
 22 18  1  0  0  0  0
 23 24  1  0  0  0  0
 25  9  1  0  0  0  0
 27 25  1  0  0  0  0
 27 26  1  0  0  0  0
M  END
>  <MODEL>
3

>  <REMARK>
 VINA RESULT:      -6.4      2.458      5.643
  Name = 
  4 active torsions:
  status: ('A' for Active; 'I' for Inactive)
    1  A    between atoms: C_4  and  O_16
    2  A    between atoms: C_4  and  C_17
    3  A    between atoms: O_8  and  C_14
    4  A    between atoms: C_9  and  N_15
                            x       y       z     vdW  Elec       q    Type
                         _______ _______ _______ _____ _____    ______ ____

>  <TORSDO>
F 4

$$$$
=
 OpenBabel10272401093D

 27 30  0  0  1  0  0  0  0  0999 V2000
  189.1820  175.4560  137.7210 N   0  0  0  0  0  0  0  0  0  0  0  0
  190.0180  176.6220  139.7350 C   0  0  0  0  0  0  0  0  0  0  0  0
  188.0110  177.8920  139.0010 O   0  0  0  0  0  0  0  0  0  0  0  0
  190.8660  176.3070  140.7540 N   0  0  0  0  0  0  0  0  0  0  0  0
  185.8400  178.3610  137.0120 C   0  0  0  0  0  2  0  0  0  0  0  0
  185.2890  177.1470  136.2920 C   0  0  0  0  0  2  0  0  0  0  0  0
  188.7020  177.9380  141.3290 C   0  0  0  0  0  0  0  0  0  0  0  0
  190.2560  176.0210  138.4370 N   0  0  0  0  0  0  0  0  0  0  0  0
  189.6240  177.5900  142.3250 C   0  0  0  0  0  0  0  0  0  0  0  0
  188.1640  176.1610  137.3510 C   0  0  0  0  0  0  0  0  0  0  0  0
  188.9020  177.4730  140.0030 C   0  0  0  0  0  0  0  0  0  0  0  0
  187.3230  178.5110  136.7290 C   0  0  0  0  0  2  0  0  0  0  0  0
  190.7000  176.7670  142.0170 C   0  0  0  0  0  3  0  0  0  0  0  0
  185.6460  175.8810  137.0440 C   0  0  0  0  0  2  0  0  0  0  0  0
  187.0270  175.4890  136.7980 N   0  0  0  0  0  2  0  0  0  0  0  0
  188.1940  177.6330  137.6220 C   0  0  1  0  0  3  0  0  0  0  0  0
  194.2160  175.2040  137.2050 C   0  0  0  0  0  3  0  0  0  0  0  0
  191.5970  175.7320  137.9900 C   0  0  0  0  0  0  0  0  0  0  0  0
  191.9670  174.4400  137.5890 C   0  0  0  0  0  3  0  0  0  0  0  0
  193.2770  174.1730  137.1910 C   0  0  0  0  0  3  0  0  0  0  0  0
  193.8530  176.4510  137.6070 N   0  0  0  0  0  0  0  0  0  0  0  0
  192.5800  176.7310  137.9990 C   0  0  0  0  0  3  0  0  0  0  0  0
  187.6190  178.7530  141.7070 O   0  0  0  0  0  0  0  0  0  0  0  0
  186.3270  178.2860  142.0730 C   0  0  0  0  0  1  0  0  0  0  0  0
  189.4510  178.0510  143.7340 C   0  0  0  0  0  2  0  0  0  0  0  0
  188.0390  177.6560  145.3810 C   0  0  0  0  0  1  0  0  0  0  0  0
  188.9170  177.0190  144.5060 O   0  0  0  0  0  0  0  0  0  0  0  0
  1  8  1  0  0  0  0
  2 11  2  0  0  0  0
  2  4  1  0  0  0  0
  3 11  1  0  0  0  0
  4 13  2  0  0  0  0
  6  5  1  0  0  0  0
  6 14  1  0  0  0  0
  7 23  1  0  0  0  0
  7  9  2  0  0  0  0
  8  2  1  0  0  0  0
  9 25  1  0  0  0  0
 10 16  1  0  0  0  0
 10  1  2  0  0  0  0
 11  7  1  0  0  0  0
 12  5  1  0  0  0  0
 13  9  1  0  0  0  0
 15 14  1  0  0  0  0
 15 10  1  0  0  0  0
 16 12  1  6  0  0  0
 16  3  1  0  0  0  0
 17 21  1  0  0  0  0
 18 22  1  0  0  0  0
 18  8  1  0  0  0  0
 19 18  2  0  0  0  0
 20 17  2  0  0  0  0
 20 19  1  0  0  0  0
 21 22  2  0  0  0  0
 23 24  1  0  0  0  0
 25 27  1  0  0  0  0
 27 26  1  0  0  0  0
M  END
>  <MODEL>
4

>  <REMARK>
 VINA RESULT:      -6.4      2.797      4.832
  Name = 
  4 active torsions:
  status: ('A' for Active; 'I' for Inactive)
    1  A    between atoms: C_4  and  O_16
    2  A    between atoms: C_4  and  C_17
    3  A    between atoms: O_8  and  C_14
    4  A    between atoms: C_9  and  N_15
                            x       y       z     vdW  Elec       q    Type
                         _______ _______ _______ _____ _____    ______ ____

>  <TORSDO>
F 4

$$$$
=
 OpenBabel10272401093D

 27 30  0  0  1  0  0  0  0  0999 V2000
  187.2020  176.9720  143.0630 N   0  0  0  0  0  0  0  0  0  0  0  0
  186.7000  178.1390  140.9410 C   0  0  0  0  0  0  0  0  0  0  0  0
  189.1600  178.3180  141.2480 O   0  0  0  0  0  0  0  0  0  0  0  0
  185.6490  178.1660  140.0770 N   0  0  0  0  0  0  0  0  0  0  0  0
  191.5900  177.8830  142.9210 C   0  0  0  0  0  2  0  0  0  0  0  0
  191.6070  176.6570  143.8110 C   0  0  0  0  0  2  0  0  0  0  0  0
  188.1970  178.4140  139.0210 C   0  0  0  0  0  0  0  0  0  0  0  0
  186.4250  177.9030  142.3460 N   0  0  0  0  0  0  0  0  0  0  0  0
  187.0690  178.4520  138.1910 C   0  0  0  0  0  0  0  0  0  0  0  0
  188.4780  177.1140  143.2050 C   0  0  0  0  0  0  0  0  0  0  0  0
  188.0240  178.2790  140.4230 C   0  0  0  0  0  0  0  0  0  0  0  0
  190.4300  178.7880  143.2950 C   0  0  0  0  0  2  0  0  0  0  0  0
  185.8000  178.3210  138.7400 C   0  0  0  0  0  3  0  0  0  0  0  0
  190.5680  175.6560  143.3460 C   0  0  0  0  0  2  0  0  0  0  0  0
  189.2310  176.0390  143.7780 N   0  0  0  0  0  2  0  0  0  0  0  0
  189.1100  178.3590  142.6620 C   0  0  1  0  0  3  0  0  0  0  0  0
  182.8120  179.2250  144.0960 C   0  0  0  0  0  3  0  0  0  0  0  0
  185.2060  178.3800  142.9510 C   0  0  0  0  0  0  0  0  0  0  0  0
  185.1610  178.7450  144.3050 C   0  0  0  0  0  3  0  0  0  0  0  0
  183.9640  179.1730  144.8810 C   0  0  0  0  0  3  0  0  0  0  0  0
  182.8610  178.8580  142.7880 N   0  0  0  0  0  0  0  0  0  0  0  0
  184.0180  178.4370  142.2090 C   0  0  0  0  0  3  0  0  0  0  0  0
  189.4580  178.5260  138.4050 O   0  0  0  0  0  0  0  0  0  0  0  0
  190.3280  177.4420  138.1100 C   0  0  0  0  0  1  0  0  0  0  0  0
  187.2030  178.5870  136.7110 C   0  0  0  0  0  2  0  0  0  0  0  0
  187.4630  176.5970  135.7960 C   0  0  0  0  0  1  0  0  0  0  0  0
  186.4990  177.5620  136.0780 O   0  0  0  0  0  0  0  0  0  0  0  0
  1 10  2  0  0  0  0
  2  8  1  0  0  0  0
  3 16  1  0  0  0  0
  4  2  2  0  0  0  0
  5 12  1  0  0  0  0
  5  6  1  0  0  0  0
  7 11  2  0  0  0  0
  8 18  1  0  0  0  0
  8  1  1  0  0  0  0
  9 13  2  0  0  0  0
  9  7  1  0  0  0  0
 10 15  1  0  0  0  0
 11  2  1  0  0  0  0
 11  3  1  0  0  0  0
 13  4  1  0  0  0  0
 14 15  1  0  0  0  0
 14  6  1  0  0  0  0
 16 10  1  0  0  0  0
 16 12  1  1  0  0  0
 17 20  1  0  0  0  0
 18 19  1  0  0  0  0
 19 20  2  0  0  0  0
 21 17  2  0  0  0  0
 22 21  1  0  0  0  0
 22 18  2  0  0  0  0
 23  7  1  0  0  0  0
 24 23  1  0  0  0  0
 25  9  1  0  0  0  0
 26 27  1  0  0  0  0
 27 25  1  0  0  0  0
M  END
>  <MODEL>
5

>  <REMARK>
 VINA RESULT:      -6.0      2.289      5.920
  Name = 
  4 active torsions:
  status: ('A' for Active; 'I' for Inactive)
    1  A    between atoms: C_4  and  O_16
    2  A    between atoms: C_4  and  C_17
    3  A    between atoms: O_8  and  C_14
    4  A    between atoms: C_9  and  N_15
                            x       y       z     vdW  Elec       q    Type
                         _______ _______ _______ _____ _____    ______ ____

>  <TORSDO>
F 4

$$$$
=
 OpenBabel10272401093D

 27 30  0  0  1  0  0  0  0  0999 V2000
  190.9740  177.5810  140.5910 N   0  0  0  0  0  0  0  0  0  0  0  0
  188.5860  177.5990  139.9480 C   0  0  0  0  0  0  0  0  0  0  0  0
  188.6190  177.3790  142.4240 O   0  0  0  0  0  0  0  0  0  0  0  0
  187.8850  177.9660  138.8390 N   0  0  0  0  0  0  0  0  0  0  0  0
  190.1420  177.0160  144.9610 C   0  0  0  0  0  2  0  0  0  0  0  0
  191.5190  177.6420  145.0370 C   0  0  0  0  0  2  0  0  0  0  0  0
  186.6980  178.3640  141.3100 C   0  0  0  0  0  0  0  0  0  0  0  0
  189.9360  177.1000  139.7700 N   0  0  0  0  0  0  0  0  0  0  0  0
  186.0260  178.7010  140.1280 C   0  0  0  0  0  0  0  0  0  0  0  0
  190.9510  177.4330  141.8750 C   0  0  0  0  0  0  0  0  0  0  0  0
  187.9900  177.7810  141.2340 C   0  0  0  0  0  0  0  0  0  0  0  0
  190.0850  176.0040  143.8320 C   0  0  0  0  0  2  0  0  0  0  0  0
  186.6410  178.4980  138.8990 C   0  0  0  0  0  3  0  0  0  0  0  0
  191.6740  178.7040  143.9660 C   0  0  0  0  0  2  0  0  0  0  0  0
  191.9360  178.1100  142.6630 N   0  0  0  0  0  2  0  0  0  0  0  0
  189.8270  176.6430  142.4700 C   0  0  1  0  0  3  0  0  0  0  0  0
  191.0540  174.8450  136.3740 C   0  0  0  0  0  3  0  0  0  0  0  0
  190.2950  176.3430  138.5950 C   0  0  0  0  0  0  0  0  0  0  0  0
  189.3750  175.4860  137.9730 C   0  0  0  0  0  3  0  0  0  0  0  0
  189.7500  174.7370  136.8570 C   0  0  0  0  0  3  0  0  0  0  0  0
  191.9440  175.6690  136.9890 N   0  0  0  0  0  0  0  0  0  0  0  0
  191.5970  176.4060  138.0780 C   0  0  0  0  0  3  0  0  0  0  0  0
  186.0350  178.6160  142.5260 O   0  0  0  0  0  0  0  0  0  0  0  0
  184.9250  177.8820  143.0250 C   0  0  0  0  0  1  0  0  0  0  0  0
  184.6690  179.3210  140.1600 C   0  0  0  0  0  2  0  0  0  0  0  0
  183.1150  180.1300  138.8210 C   0  0  0  0  0  1  0  0  0  0  0  0
  184.4910  180.1280  139.0360 O   0  0  0  0  0  0  0  0  0  0  0  0
  1 10  2  0  0  0  0
  2 11  1  0  0  0  0
  3 16  1  0  0  0  0
  4 13  1  0  0  0  0
  4  2  2  0  0  0  0
  5  6  1  0  0  0  0
  7 23  1  0  0  0  0
  8  2  1  0  0  0  0
  8  1  1  0  0  0  0
  9 25  1  0  0  0  0
  9  7  1  0  0  0  0
 10 16  1  0  0  0  0
 10 15  1  0  0  0  0
 11  7  2  0  0  0  0
 11  3  1  0  0  0  0
 12  5  1  0  0  0  0
 13  9  2  0  0  0  0
 14  6  1  0  0  0  0
 15 14  1  0  0  0  0
 16 12  1  1  0  0  0
 17 20  2  0  0  0  0
 17 21  1  0  0  0  0
 18  8  1  0  0  0  0
 19 18  2  0  0  0  0
 20 19  1  0  0  0  0
 21 22  2  0  0  0  0
 22 18  1  0  0  0  0
 23 24  1  0  0  0  0
 26 27  1  0  0  0  0
 27 25  1  0  0  0  0
M  END
>  <MODEL>
6

>  <REMARK>
 VINA RESULT:      -5.9      1.997      5.371
  Name = 
  4 active torsions:
  status: ('A' for Active; 'I' for Inactive)
    1  A    between atoms: C_4  and  O_16
    2  A    between atoms: C_4  and  C_17
    3  A    between atoms: O_8  and  C_14
    4  A    between atoms: C_9  and  N_15
                            x       y       z     vdW  Elec       q    Type
                         _______ _______ _______ _____ _____    ______ ____

>  <TORSDO>
F 4

$$$$
=
 OpenBabel10272401093D

 27 30  0  0  1  0  0  0  0  0999 V2000
  184.2480  179.5380  140.7050 N   0  0  0  0  0  0  0  0  0  0  0  0
  186.3930  178.4530  140.1210 C   0  0  0  0  0  0  0  0  0  0  0  0
  184.7770  177.7470  138.3680 O   0  0  0  0  0  0  0  0  0  0  0  0
  187.6960  178.6340  140.4720 N   0  0  0  0  0  0  0  0  0  0  0  0
  181.9940  177.6840  137.3000 C   0  0  0  0  0  2  0  0  0  0  0  0
  181.1270  178.9010  137.5550 C   0  0  0  0  0  2  0  0  0  0  0  0
  187.1560  177.8060  137.8850 C   0  0  0  0  0  0  0  0  0  0  0  0
  185.3690  178.7810  141.0960 N   0  0  0  0  0  0  0  0  0  0  0  0
  188.4750  177.9930  138.3190 C   0  0  0  0  0  0  0  0  0  0  0  0
  183.4300  179.1240  139.7940 C   0  0  0  0  0  0  0  0  0  0  0  0
  186.0890  178.0120  138.7960 C   0  0  0  0  0  0  0  0  0  0  0  0
  182.4320  177.0660  138.6150 C   0  0  0  0  0  2  0  0  0  0  0  0
  188.7240  178.4130  139.6190 C   0  0  0  0  0  3  0  0  0  0  0  0
  181.9890  180.0920  137.9240 C   0  0  0  0  0  2  0  0  0  0  0  0
  182.4250  180.0230  139.3120 N   0  0  0  0  0  2  0  0  0  0  0  0
  183.6490  177.7570  139.2230 C   0  0  1  0  0  3  0  0  0  0  0  0
  185.9820  178.2280  145.2410 C   0  0  0  0  0  3  0  0  0  0  0  0
  185.6070  178.5990  142.5070 C   0  0  0  0  0  0  0  0  0  0  0  0
  186.5450  177.6630  142.9710 C   0  0  0  0  0  3  0  0  0  0  0  0
  186.7380  177.4780  144.3410 C   0  0  0  0  0  3  0  0  0  0  0  0
  185.0670  179.1240  144.7840 N   0  0  0  0  0  0  0  0  0  0  0  0
  184.8640  179.3180  143.4530 C   0  0  0  0  0  3  0  0  0  0  0  0
  186.9650  177.4040  136.5490 O   0  0  0  0  0  0  0  0  0  0  0  0
  186.7310  176.0710  136.1170 C   0  0  0  0  0  1  0  0  0  0  0  0
  189.6290  177.7930  137.3930 C   0  0  0  0  0  2  0  0  0  0  0  0
  190.2150  175.6740  137.5640 C   0  0  0  0  0  1  0  0  0  0  0  0
  190.5710  176.9530  137.9870 O   0  0  0  0  0  0  0  0  0  0  0  0
  1  8  1  0  0  0  0
  2  4  1  0  0  0  0
  2  8  1  0  0  0  0
  3 11  1  0  0  0  0
  3 16  1  0  0  0  0
  5  6  1  0  0  0  0
  5 12  1  0  0  0  0
  6 14  1  0  0  0  0
  7  9  2  0  0  0  0
  7 11  1  0  0  0  0
  8 18  1  0  0  0  0
  9 13  1  0  0  0  0
 10  1  2  0  0  0  0
 11  2  2  0  0  0  0
 13  4  2  0  0  0  0
 14 15  1  0  0  0  0
 15 10  1  0  0  0  0
 16 12  1  6  0  0  0
 16 10  1  0  0  0  0
 18 19  2  0  0  0  0
 18 22  1  0  0  0  0
 19 20  1  0  0  0  0
 20 17  2  0  0  0  0
 21 17  1  0  0  0  0
 22 21  2  0  0  0  0
 23  7  1  0  0  0  0
 24 23  1  0  0  0  0
 25 27  1  0  0  0  0
 25  9  1  0  0  0  0
 26 27  1  0  0  0  0
M  END
>  <MODEL>
7

>  <REMARK>
 VINA RESULT:      -5.7      2.981      6.073
  Name = 
  4 active torsions:
  status: ('A' for Active; 'I' for Inactive)
    1  A    between atoms: C_4  and  O_16
    2  A    between atoms: C_4  and  C_17
    3  A    between atoms: O_8  and  C_14
    4  A    between atoms: C_9  and  N_15
                            x       y       z     vdW  Elec       q    Type
                         _______ _______ _______ _____ _____    ______ ____

>  <TORSDO>
F 4

$$$$
=
 OpenBabel10272401093D

 27 30  0  0  1  0  0  0  0  0999 V2000
  188.5570  178.0350  139.1260 N   0  0  0  0  0  0  0  0  0  0  0  0
  190.6850  176.7850  138.9630 C   0  0  0  0  0  0  0  0  0  0  0  0
  189.2980  176.0130  137.0500 O   0  0  0  0  0  0  0  0  0  0  0  0
  191.9330  176.9250  139.4900 N   0  0  0  0  0  0  0  0  0  0  0  0
  186.7020  176.0070  135.5830 C   0  0  0  0  0  2  0  0  0  0  0  0
  185.8920  177.2870  135.6050 C   0  0  0  0  0  2  0  0  0  0  0  0
  191.7210  175.8980  136.9270 C   0  0  0  0  0  0  0  0  0  0  0  0
  189.5560  177.2550  139.7420 N   0  0  0  0  0  0  0  0  0  0  0  0
  192.9720  176.0510  137.5390 C   0  0  0  0  0  0  0  0  0  0  0  0
  187.8540  177.5850  138.1400 C   0  0  0  0  0  0  0  0  0  0  0  0
  190.5480  176.2440  137.6480 C   0  0  0  0  0  0  0  0  0  0  0  0
  186.9020  175.4870  136.9940 C   0  0  0  0  0  2  0  0  0  0  0  0
  193.0570  176.5720  138.8230 C   0  0  0  0  0  3  0  0  0  0  0  0
  186.7690  178.4580  136.0020 C   0  0  0  0  0  2  0  0  0  0  0  0
  186.9930  178.4900  137.4400 N   0  0  0  0  0  2  0  0  0  0  0  0
  188.0610  176.1620  137.7210 C   0  0  1  0  0  3  0  0  0  0  0  0
  189.5190  177.0570  143.9640 C   0  0  0  0  0  3  0  0  0  0  0  0
  189.5730  177.1890  141.1830 C   0  0  0  0  0  0  0  0  0  0  0  0
  190.2570  176.1640  141.8560 C   0  0  0  0  0  3  0  0  0  0  0  0
  190.2350  176.0980  143.2490 C   0  0  0  0  0  3  0  0  0  0  0  0
  188.8480  178.0390  143.3060 N   0  0  0  0  0  0  0  0  0  0  0  0
  188.8570  178.1200  141.9470 C   0  0  0  0  0  3  0  0  0  0  0  0
  191.7000  175.3880  135.6150 O   0  0  0  0  0  0  0  0  0  0  0  0
  191.5460  176.1630  134.4350 C   0  0  0  0  0  1  0  0  0  0  0  0
  194.2320  175.7050  136.8170 C   0  0  0  0  0  2  0  0  0  0  0  0
  195.2530  176.4070  134.9930 C   0  0  0  0  0  1  0  0  0  0  0  0
  194.7640  176.8480  136.2210 O   0  0  0  0  0  0  0  0  0  0  0  0
  1  8  1  0  0  0  0
  2  4  1  0  0  0  0
  2  8  1  0  0  0  0
  3 11  1  0  0  0  0
  3 16  1  0  0  0  0
  5  6  1  0  0  0  0
  5 12  1  0  0  0  0
  6 14  1  0  0  0  0
  7  9  2  0  0  0  0
  7 11  1  0  0  0  0
  8 18  1  0  0  0  0
  9 13  1  0  0  0  0
 10  1  2  0  0  0  0
 11  2  2  0  0  0  0
 13  4  2  0  0  0  0
 14 15  1  0  0  0  0
 15 10  1  0  0  0  0
 16 12  1  6  0  0  0
 16 10  1  0  0  0  0
 18 19  2  0  0  0  0
 18 22  1  0  0  0  0
 19 20  1  0  0  0  0
 20 17  2  0  0  0  0
 21 17  1  0  0  0  0
 22 21  2  0  0  0  0
 23  7  1  0  0  0  0
 24 23  1  0  0  0  0
 25  9  1  0  0  0  0
 26 27  1  0  0  0  0
 27 25  1  0  0  0  0
M  END
>  <MODEL>
8

>  <REMARK>
 VINA RESULT:      -5.7      3.593      6.777
  Name = 
  4 active torsions:
  status: ('A' for Active; 'I' for Inactive)
    1  A    between atoms: C_4  and  O_16
    2  A    between atoms: C_4  and  C_17
    3  A    between atoms: O_8  and  C_14
    4  A    between atoms: C_9  and  N_15
                            x       y       z     vdW  Elec       q    Type
                         _______ _______ _______ _____ _____    ______ ____

>  <TORSDO>
F 4

$$$$
=
 OpenBabel10272401093D

 27 30  0  0  1  0  0  0  0  0999 V2000
  190.0650  176.8730  136.0330 N   0  0  0  0  0  0  0  0  0  0  0  0
  188.8390  177.0510  138.1740 C   0  0  0  0  0  0  0  0  0  0  0  0
  190.8660  175.6970  138.6640 O   0  0  0  0  0  0  0  0  0  0  0  0
  187.8520  177.8530  138.6600 N   0  0  0  0  0  0  0  0  0  0  0  0
  193.3100  174.2760  137.7170 C   0  0  0  0  0  2  0  0  0  0  0  0
  194.0420  174.8730  136.5320 C   0  0  0  0  0  2  0  0  0  0  0  0
  189.7930  176.9750  140.4290 C   0  0  0  0  0  0  0  0  0  0  0  0
  188.8560  176.7730  136.7500 N   0  0  0  0  0  0  0  0  0  0  0  0
  188.7380  177.7870  140.8650 C   0  0  0  0  0  0  0  0  0  0  0  0
  191.0900  176.1390  136.3190 C   0  0  0  0  0  0  0  0  0  0  0  0
  189.8450  176.5730  139.0690 C   0  0  0  0  0  0  0  0  0  0  0  0
  191.8890  173.9110  137.3280 C   0  0  0  0  0  2  0  0  0  0  0  0
  187.7770  178.2200  139.9610 C   0  0  0  0  0  3  0  0  0  0  0  0
  193.6350  176.3200  136.3370 C   0  0  0  0  0  2  0  0  0  0  0  0
  192.3390  176.4240  135.6800 N   0  0  0  0  0  2  0  0  0  0  0  0
  190.9310  175.0980  137.3840 C   0  0  1  0  0  3  0  0  0  0  0  0
  185.2120  176.4880  134.6290 C   0  0  0  0  0  3  0  0  0  0  0  0
  187.6280  176.6780  136.0000 C   0  0  0  0  0  0  0  0  0  0  0  0
  187.2340  177.6960  135.1180 C   0  0  0  0  0  3  0  0  0  0  0  0
  186.0260  177.6020  134.4270 C   0  0  0  0  0  3  0  0  0  0  0  0
  185.5940  175.5110  135.4940 N   0  0  0  0  0  0  0  0  0  0  0  0
  186.7680  175.5850  136.1780 C   0  0  0  0  0  3  0  0  0  0  0  0
  190.7500  176.5880  141.3860 O   0  0  0  0  0  0  0  0  0  0  0  0
  191.9520  177.2890  141.6770 C   0  0  0  0  0  1  0  0  0  0  0  0
  188.6470  178.2380  142.2850 C   0  0  0  0  0  2  0  0  0  0  0  0
  187.9240  176.6460  143.6290 C   0  0  0  0  0  1  0  0  0  0  0  0
  187.4870  177.7290  142.8690 O   0  0  0  0  0  0  0  0  0  0  0  0
  1 10  2  0  0  0  0
  1  8  1  0  0  0  0
  2  4  2  0  0  0  0
  2 11  1  0  0  0  0
  3 11  1  0  0  0  0
  4 13  1  0  0  0  0
  6  5  1  0  0  0  0
  7  9  1  0  0  0  0
  7 23  1  0  0  0  0
  8  2  1  0  0  0  0
  9 25  1  0  0  0  0
 10 16  1  0  0  0  0
 11  7  2  0  0  0  0
 12  5  1  0  0  0  0
 13  9  2  0  0  0  0
 14  6  1  0  0  0  0
 15 10  1  0  0  0  0
 15 14  1  0  0  0  0
 16 12  1  1  0  0  0
 16  3  1  0  0  0  0
 17 21  1  0  0  0  0
 18 22  1  0  0  0  0
 18  8  1  0  0  0  0
 19 18  2  0  0  0  0
 20 17  2  0  0  0  0
 20 19  1  0  0  0  0
 21 22  2  0  0  0  0
 23 24  1  0  0  0  0
 25 27  1  0  0  0  0
 27 26  1  0  0  0  0
M  END
>  <MODEL>
9

>  <REMARK>
 VINA RESULT:      -5.6      3.324      6.506
  Name = 
  4 active torsions:
  status: ('A' for Active; 'I' for Inactive)
    1  A    between atoms: C_4  and  O_16
    2  A    between atoms: C_4  and  C_17
    3  A    between atoms: O_8  and  C_14
    4  A    between atoms: C_9  and  N_15
                            x       y       z     vdW  Elec       q    Type
                         _______ _______ _______ _____ _____    ______ ____

>  <TORSDO>
F 4

$$$$
