=
 OpenBabel10272401173D

 55 61  0  0  1  0  0  0  0  0999 V2000
  192.9700  174.6450  137.8840 C   0  0  0  0  0  3  0  0  0  0  0  0
  188.9490  174.7580  135.5390 C   0  0  0  0  0  2  0  0  0  0  0  0
  189.3120  171.5990  135.4370 C   0  0  0  0  0  1  0  0  0  0  0  0
  186.4230  176.3430  136.1640 C   0  0  0  0  0  2  0  0  0  0  0  0
  186.9910  177.8590  134.3460 C   0  0  0  0  0  2  0  0  0  0  0  0
  192.4690  169.2940  135.7440 C   0  0  0  0  0  3  0  0  0  0  0  0
  193.0850  168.1420  135.2400 C   0  0  0  0  0  3  0  0  0  0  0  0
  194.2820  170.6480  134.8580 C   0  0  0  0  0  0  0  0  0  0  0  0
  194.8890  169.4940  134.3460 C   0  0  0  0  0  3  0  0  0  0  0  0
  191.5580  172.2370  134.9310 O   0  0  0  0  0  0  0  0  0  0  0  0
  185.2260  176.8730  135.4650 C   0  0  0  0  0  0  0  0  0  0  0  0
  185.5230  177.6940  134.4860 C   0  0  0  0  0  3  0  0  0  0  0  0
  194.2920  168.2410  134.5400 C   0  0  0  0  0  3  0  0  0  0  0  0
  191.8410  177.6150  139.9680 C   0  0  0  0  0  2  0  0  0  0  0  0
  193.0700  170.5450  135.5630 C   0  0  0  0  0  0  0  0  0  0  0  0
  190.2910  177.5000  138.0150 C   0  0  1  0  0  3  0  0  0  0  0  0
  192.7600  174.1130  136.7220 N   0  0  0  0  0  0  0  0  0  0  0  0
  191.2840  176.5190  137.3520 C   0  0  0  0  0  2  0  0  0  0  0  0
  194.4840  173.0120  135.2790 C   0  0  0  0  0  0  0  0  0  0  0  0
  188.3930  175.8540  134.6440 C   0  0  0  0  0  2  0  0  0  0  0  0
  194.8910  171.9340  134.6630 N   0  0  0  0  0  0  0  0  0  0  0  0
  189.8930  173.9040  134.7170 C   0  0  0  0  0  2  0  0  0  0  0  0
  190.3680  172.6940  135.5070 C   0  0  1  0  0  3  0  0  0  0  0  0
  192.5370  176.3810  139.4930 C   0  0  0  0  0  3  0  0  0  0  0  0
  187.6090  176.9340  135.3930 C   0  0  2  0  0  0  0  0  0  0  0  0
  192.2900  175.8780  138.2830 C   0  0  0  0  0  0  0  0  0  0  0  0
  192.3690  171.7970  135.9920 C   0  0  1  0  0  3  0  0  0  0  0  0
  193.4140  172.8660  136.3600 C   0  0  2  0  0  3  0  0  0  0  0  0
  188.5300  177.7820  136.2760 C   0  0  0  0  0  2  0  0  0  0  0  0
  188.8810  177.1240  137.6070 C   0  0  0  0  0  2  0  0  0  0  0  0
  190.3840  177.5450  139.5420 C   0  0  0  0  0  2  0  0  0  0  0  0
  194.5050  175.4540  134.7460 C   0  0  0  0  0  3  0  0  0  0  0  0
  196.5200  176.7160  134.5920 C   0  0  0  0  0  0  0  0  0  0  0  0
  196.6130  174.3570  135.1030 C   0  0  0  0  0  3  0  0  0  0  0  0
  197.2690  175.5670  134.8840 C   0  0  0  0  0  3  0  0  0  0  0  0
  195.1630  176.6260  134.5340 N   0  0  0  0  0  0  0  0  0  0  0  0
  195.2160  174.2790  135.0260 C   0  0  0  0  0  0  0  0  0  0  0  0
  197.1230  177.9600  134.3470 O   0  0  0  0  0  0  0  0  0  0  0  0
  195.9770  179.6570  135.4730 O   0  0  0  0  0  0  0  0  0  0  0  0
  196.4910  179.2110  134.4080 C   0  0  0  0  0  3  0  0  0  0  0  0
  183.8950  176.5800  135.7940 O   0  0  0  0  0  0  0  0  0  0  0  0
  183.3980  176.3740  137.1200 C   0  0  1  0  0  3  0  0  0  0  0  0
  182.3560  179.0560  139.6160 O   0  0  0  0  0  1  0  0  0  0  0  0
  183.0790  178.9500  137.3180 C   0  0  0  0  0  2  0  0  0  0  0  0
  182.5440  177.5520  137.6280 C   0  0  2  0  0  0  0  0  0  0  0  0
  183.2030  178.3920  138.7220 C   0  0  2  0  0  0  0  0  0  0  0  0
  181.0220  177.4180  137.7570 C   0  0  0  0  0  2  0  0  0  0  0  0
  180.2950  177.9310  136.5240 C   0  0  0  0  0  1  0  0  0  0  0  0
  184.6590  178.1710  139.1420 C   0  0  1  0  0  3  0  0  0  0  0  0
  185.5170  178.9680  138.3740 O   0  0  0  0  0  1  0  0  0  0  0  0
  184.8700  178.4430  140.6270 C   0  0  0  0  0  2  0  0  0  0  0  0
  185.2690  179.7640  140.8440 O   0  0  0  0  0  1  0  0  0  0  0  0
  182.7670  174.9940  137.3310 C   0  0  0  0  0  3  0  0  0  0  0  0
  183.5290  174.0190  136.6850 O   0  0  0  0  0  1  0  0  0  0  0  0
  182.7140  174.6990  138.6970 O   0  0  0  0  0  1  0  0  0  0  0  0
  1 26  1  0  0  0  0
  5 12  1  0  0  0  0
  7  6  2  0  0  0  0
  8 15  2  0  0  0  0
  9 13  2  0  0  0  0
  9  8  1  0  0  0  0
 10 23  1  0  0  0  0
 11 41  1  0  0  0  0
 11  4  1  0  0  0  0
 12 11  2  0  0  0  0
 13  7  1  0  0  0  0
 15  6  1  0  0  0  0
 15 27  1  0  0  0  0
 16 18  1  1  0  0  0
 16 31  1  0  0  0  0
 17  1  2  0  0  0  0
 18 26  1  0  0  0  0
 20 25  1  0  0  0  0
 20  2  1  0  0  0  0
 21  8  1  0  0  0  0
 21 19  2  0  0  0  0
 22 23  1  0  0  0  0
 22  2  1  0  0  0  0
 23  3  1  6  0  0  0
 24 14  1  0  0  0  0
 25  5  1  6  0  0  0
 25  4  1  0  0  0  0
 25 29  1  0  0  0  0
 26 24  2  0  0  0  0
 27 10  1  6  0  0  0
 27 28  1  0  0  0  0
 28 19  1  6  0  0  0
 28 17  1  0  0  0  0
 29 30  1  0  0  0  0
 30 16  1  0  0  0  0
 31 14  1  0  0  0  0
 32 37  2  0  0  0  0
 33 35  1  0  0  0  0
 35 34  2  0  0  0  0
 36 33  2  0  0  0  0
 36 32  1  0  0  0  0
 37 34  1  0  0  0  0
 37 19  1  0  0  0  0
 38 40  1  0  0  0  0
 38 33  1  0  0  0  0
 40 39  2  0  0  0  0
 42 41  1  6  0  0  0
 42 53  1  0  0  0  0
 42 45  1  0  0  0  0
 44 45  1  0  0  0  0
 44 46  1  0  0  0  0
 45 47  1  1  0  0  0
 45 46  1  0  0  0  0
 46 49  1  0  0  0  0
 46 43  1  1  0  0  0
 48 47  1  0  0  0  0
 49 50  1  6  0  0  0
 49 51  1  0  0  0  0
 51 52  1  0  0  0  0
 53 55  1  0  0  0  0
 54 53  1  0  0  0  0
M  END
>  <MODEL>
1

>  <REMARK>
 VINA RESULT:      -4.1      0.000      0.000
  Name = 
  10 active torsions:
  status: ('A' for Active; 'I' for Inactive)
    1  A    between atoms: C_1  and  C_53
    2  A    between atoms: C_6  and  C_14
    3  A    between atoms: O_10  and  C_32
    4  A    between atoms: O_10  and  C_47
    5  A    between atoms: C_11  and  C_29
    6  A    between atoms: C_14  and  C_53
    7  A    between atoms: C_20  and  O_42
    8  A    between atoms: C_29  and  C_38
    9  A    between atoms: C_33  and  C_52
   10  A    between atoms: O_42  and  C_53
                            x       y       z     vdW  Elec       q    Type
                         _______ _______ _______ _____ _____    ______ ____

>  <TORSDO>
F 10

$$$$
=
 OpenBabel10272401173D

 55 61  0  0  1  0  0  0  0  0999 V2000
  183.5160  176.3060  139.3540 C   0  0  0  0  0  3  0  0  0  0  0  0
  187.9070  177.2460  138.1190 C   0  0  0  0  0  2  0  0  0  0  0  0
  188.4380  177.2120  141.2550 C   0  0  0  0  0  1  0  0  0  0  0  0
  189.5790  175.9710  135.9130 C   0  0  0  0  0  2  0  0  0  0  0  0
  189.2640  177.9870  134.5860 C   0  0  0  0  0  2  0  0  0  0  0  0
  186.0750  177.7510  144.3370 C   0  0  0  0  0  3  0  0  0  0  0  0
  185.9820  178.3340  145.6070 C   0  0  0  0  0  3  0  0  0  0  0  0
  184.3660  179.2720  143.5180 C   0  0  0  0  0  0  0  0  0  0  0  0
  184.2850  179.8600  144.7860 C   0  0  0  0  0  3  0  0  0  0  0  0
  186.3980  178.4560  141.2470 O   0  0  0  0  0  0  0  0  0  0  0  0
  190.7560  176.2900  135.0670 C   0  0  0  0  0  0  0  0  0  0  0  0
  190.5940  177.3740  134.3460 C   0  0  0  0  0  3  0  0  0  0  0  0
  185.0910  179.3890  145.8310 C   0  0  0  0  0  3  0  0  0  0  0  0
  183.0800  174.2080  136.2160 C   0  0  0  0  0  2  0  0  0  0  0  0
  185.2610  178.2110  143.2950 C   0  0  0  0  0  0  0  0  0  0  0  0
  185.1580  175.5480  135.8790 C   0  0  1  0  0  3  0  0  0  0  0  0
  184.2280  177.2950  139.7930 N   0  0  0  0  0  0  0  0  0  0  0  0
  184.7310  176.4160  137.0840 C   0  0  0  0  0  2  0  0  0  0  0  0
  183.4250  179.1230  141.3040 C   0  0  0  0  0  0  0  0  0  0  0  0
  188.4190  177.9980  136.9010 C   0  0  0  0  0  2  0  0  0  0  0  0
  183.5410  179.7500  142.4440 N   0  0  0  0  0  0  0  0  0  0  0  0
  187.5430  178.2560  139.1870 C   0  0  0  0  0  2  0  0  0  0  0  0
  187.1700  177.5680  140.4900 C   0  0  1  0  0  3  0  0  0  0  0  0
  182.9270  174.7830  137.5870 C   0  0  0  0  0  3  0  0  0  0  0  0
  188.6010  177.1240  135.6570 C   0  0  2  0  0  0  0  0  0  0  0  0
  183.6800  175.8080  137.9880 C   0  0  0  0  0  0  0  0  0  0  0  0
  185.4290  177.6800  141.9050 C   0  0  1  0  0  3  0  0  0  0  0  0
  184.0800  177.7490  141.1660 C   0  0  2  0  0  3  0  0  0  0  0  0
  187.2540  176.6500  135.1050 C   0  0  0  0  0  2  0  0  0  0  0  0
  186.6700  175.4540  135.8500 C   0  0  0  0  0  2  0  0  0  0  0  0
  184.5600  174.1390  135.8810 C   0  0  0  0  0  2  0  0  0  0  0  0
  183.0200  180.5400  139.2850 C   0  0  0  0  0  3  0  0  0  0  0  0
  180.8670  180.7650  138.2890 C   0  0  0  0  0  0  0  0  0  0  0  0
  181.1490  179.3780  140.2450 C   0  0  0  0  0  3  0  0  0  0  0  0
  180.3220  179.9110  139.2580 C   0  0  0  0  0  3  0  0  0  0  0  0
  182.1980  181.0520  138.3290 N   0  0  0  0  0  0  0  0  0  0  0  0
  182.5130  179.6950  140.2810 C   0  0  0  0  0  0  0  0  0  0  0  0
  180.0850  181.3460  137.2770 O   0  0  0  0  0  0  0  0  0  0  0  0
  180.6980  181.4830  135.0270 O   0  0  0  0  0  0  0  0  0  0  0  0
  180.0220  180.9290  135.9390 C   0  0  0  0  0  3  0  0  0  0  0  0
  191.9330  175.5310  134.9910 O   0  0  0  0  0  0  0  0  0  0  0  0
  192.4750  174.7400  136.0520 C   0  0  1  0  0  3  0  0  0  0  0  0
  194.5020  175.7150  139.1260 O   0  0  0  0  0  1  0  0  0  0  0  0
  193.6950  176.7780  137.1180 C   0  0  0  0  0  2  0  0  0  0  0  0
  192.7840  175.5660  137.3160 C   0  0  2  0  0  0  0  0  0  0  0  0
  194.2450  175.5220  137.7650 C   0  0  2  0  0  0  0  0  0  0  0  0
  191.7680  175.6570  138.4610 C   0  0  0  0  0  2  0  0  0  0  0  0
  191.5010  177.0940  138.8780 C   0  0  0  0  0  1  0  0  0  0  0  0
  195.3290  174.8490  136.9170 C   0  0  1  0  0  3  0  0  0  0  0  0
  196.4020  175.7230  136.7100 O   0  0  0  0  0  1  0  0  0  0  0  0
  195.8170  173.5490  137.5470 C   0  0  0  0  0  2  0  0  0  0  0  0
  197.0000  173.7510  138.2620 O   0  0  0  0  0  1  0  0  0  0  0  0
  191.6930  173.4470  136.3130 C   0  0  0  0  0  3  0  0  0  0  0  0
  190.9910  173.0770  135.1660 O   0  0  0  0  0  1  0  0  0  0  0  0
  192.5750  172.4200  136.6590 O   0  0  0  0  0  1  0  0  0  0  0  0
  1 17  2  0  0  0  0
  2 22  1  0  0  0  0
  6  7  1  0  0  0  0
  7 13  2  0  0  0  0
  8  9  2  0  0  0  0
  9 13  1  0  0  0  0
 11  4  1  0  0  0  0
 12  5  1  0  0  0  0
 12 11  2  0  0  0  0
 14 24  1  0  0  0  0
 15  8  1  0  0  0  0
 15  6  2  0  0  0  0
 16 30  1  1  0  0  0
 16 31  1  0  0  0  0
 16 18  1  0  0  0  0
 18 26  1  0  0  0  0
 19 21  2  0  0  0  0
 20  2  1  0  0  0  0
 21  8  1  0  0  0  0
 22 23  1  0  0  0  0
 23 10  1  0  0  0  0
 23  3  1  1  0  0  0
 24 26  2  0  0  0  0
 25  5  1  6  0  0  0
 25  4  1  0  0  0  0
 25 20  1  0  0  0  0
 26  1  1  0  0  0  0
 27 10  1  6  0  0  0
 27 15  1  0  0  0  0
 28 17  1  6  0  0  0
 28 19  1  0  0  0  0
 28 27  1  0  0  0  0
 29 25  1  0  0  0  0
 29 30  1  0  0  0  0
 31 14  1  0  0  0  0
 32 37  2  0  0  0  0
 33 36  2  0  0  0  0
 33 35  1  0  0  0  0
 34 37  1  0  0  0  0
 35 34  2  0  0  0  0
 36 32  1  0  0  0  0
 37 19  1  0  0  0  0
 38 33  1  0  0  0  0
 39 40  2  0  0  0  0
 40 38  1  0  0  0  0
 41 11  1  0  0  0  0
 42 41  1  6  0  0  0
 42 53  1  0  0  0  0
 42 45  1  0  0  0  0
 44 45  1  0  0  0  0
 44 46  1  0  0  0  0
 45 46  1  0  0  0  0
 45 47  1  1  0  0  0
 46 43  1  1  0  0  0
 47 48  1  0  0  0  0
 49 50  1  1  0  0  0
 49 51  1  0  0  0  0
 49 46  1  0  0  0  0
 51 52  1  0  0  0  0
 53 55  1  0  0  0  0
 54 53  1  0  0  0  0
M  END
>  <MODEL>
2

>  <REMARK>
 VINA RESULT:      -3.9      4.001     11.522
  Name = 
  10 active torsions:
  status: ('A' for Active; 'I' for Inactive)
    1  A    between atoms: C_1  and  C_53
    2  A    between atoms: C_6  and  C_14
    3  A    between atoms: O_10  and  C_32
    4  A    between atoms: O_10  and  C_47
    5  A    between atoms: C_11  and  C_29
    6  A    between atoms: C_14  and  C_53
    7  A    between atoms: C_20  and  O_42
    8  A    between atoms: C_29  and  C_38
    9  A    between atoms: C_33  and  C_52
   10  A    between atoms: O_42  and  C_53
                            x       y       z     vdW  Elec       q    Type
                         _______ _______ _______ _____ _____    ______ ____

>  <TORSDO>
F 10

$$$$
=
 OpenBabel10272401173D

 55 61  0  0  1  0  0  0  0  0999 V2000
  192.7290  174.5700  137.9320 C   0  0  0  0  0  3  0  0  0  0  0  0
  188.7440  174.6370  135.5230 C   0  0  0  0  0  2  0  0  0  0  0  0
  189.1740  171.4890  135.3780 C   0  0  0  0  0  1  0  0  0  0  0  0
  186.1760  176.1600  136.1320 C   0  0  0  0  0  2  0  0  0  0  0  0
  186.7420  177.7160  134.3470 C   0  0  0  0  0  2  0  0  0  0  0  0
  192.3730  169.2450  135.7010 C   0  0  0  0  0  3  0  0  0  0  0  0
  193.0210  168.1140  135.1890 C   0  0  0  0  0  3  0  0  0  0  0  0
  194.1720  170.6490  134.8660 C   0  0  0  0  0  0  0  0  0  0  0  0
  194.8100  169.5160  134.3460 C   0  0  0  0  0  3  0  0  0  0  0  0
  191.4140  172.1800  134.9190 O   0  0  0  0  0  0  0  0  0  0  0  0
  184.9790  176.6770  135.4210 C   0  0  0  0  0  0  0  0  0  0  0  0
  185.2750  177.5190  134.4600 C   0  0  0  0  0  3  0  0  0  0  0  0
  194.2360  168.2490  134.5110 C   0  0  0  0  0  3  0  0  0  0  0  0
  191.5050  177.4830  140.0430 C   0  0  0  0  0  2  0  0  0  0  0  0
  192.9510  170.5100  135.5490 C   0  0  0  0  0  0  0  0  0  0  0  0
  189.9890  177.3670  138.0640 C   0  0  1  0  0  3  0  0  0  0  0  0
  192.5480  174.0520  136.7580 N   0  0  0  0  0  0  0  0  0  0  0  0
  191.0130  176.4170  137.4010 C   0  0  0  0  0  2  0  0  0  0  0  0
  194.3180  173.0100  135.3260 C   0  0  0  0  0  0  0  0  0  0  0  0
  188.1800  175.7360  134.6360 C   0  0  0  0  0  2  0  0  0  0  0  0
  194.7560  171.9500  134.7010 N   0  0  0  0  0  0  0  0  0  0  0  0
  189.7190  173.8160  134.7040 C   0  0  0  0  0  2  0  0  0  0  0  0
  190.2060  172.6040  135.4820 C   0  0  1  0  0  3  0  0  0  0  0  0
  192.2340  176.2710  139.5600 C   0  0  0  0  0  3  0  0  0  0  0  0
  187.3620  176.7880  135.3890 C   0  0  2  0  0  0  0  0  0  0  0  0
  192.0170  175.7820  138.3380 C   0  0  0  0  0  0  0  0  0  0  0  0
  192.2170  171.7400  135.9860 C   0  0  1  0  0  3  0  0  0  0  0  0
  193.2340  172.8250  136.3880 C   0  0  2  0  0  3  0  0  0  0  0  0
  188.2500  177.6400  136.3000 C   0  0  0  0  0  2  0  0  0  0  0  0
  188.5930  176.9690  137.6270 C   0  0  0  0  0  2  0  0  0  0  0  0
  190.0560  177.3890  139.5920 C   0  0  0  0  0  2  0  0  0  0  0  0
  194.3430  175.3860  134.5500 C   0  0  0  0  0  3  0  0  0  0  0  0
  196.2790  176.7650  134.7080 C   0  0  0  0  0  0  0  0  0  0  0  0
  196.3650  174.4780  135.4790 C   0  0  0  0  0  3  0  0  0  0  0  0
  196.9960  175.7050  135.2810 C   0  0  0  0  0  3  0  0  0  0  0  0
  194.9760  176.5760  134.3630 N   0  0  0  0  0  0  0  0  0  0  0  0
  195.0270  174.2960  135.1050 C   0  0  0  0  0  0  0  0  0  0  0  0
  196.8620  178.0200  134.4690 O   0  0  0  0  0  0  0  0  0  0  0  0
  196.1310  180.0190  135.4350 O   0  0  0  0  0  0  0  0  0  0  0  0
  196.1890  179.2510  134.4330 C   0  0  0  0  0  3  0  0  0  0  0  0
  183.6500  176.3510  135.7240 O   0  0  0  0  0  0  0  0  0  0  0  0
  183.0110  175.1110  135.4050 C   0  0  1  0  0  3  0  0  0  0  0  0
  183.1150  171.8310  137.3380 O   0  0  0  0  0  1  0  0  0  0  0  0
  184.0090  174.0580  137.5670 C   0  0  0  0  0  2  0  0  0  0  0  0
  182.8040  174.2110  136.6390 C   0  0  2  0  0  0  0  0  0  0  0  0
  183.6300  172.9240  136.6350 C   0  0  2  0  0  0  0  0  0  0  0  0
  181.4220  174.0780  137.2890 C   0  0  0  0  0  2  0  0  0  0  0  0
  181.2640  174.9970  138.4900 C   0  0  0  0  0  1  0  0  0  0  0  0
  184.6980  172.6560  135.5700 C   0  0  1  0  0  3  0  0  0  0  0  0
  185.9170  172.3210  136.1720 O   0  0  0  0  0  1  0  0  0  0  0  0
  184.2690  171.5620  134.5990 C   0  0  0  0  0  2  0  0  0  0  0  0
  183.4740  170.6070  135.2370 O   0  0  0  0  0  1  0  0  0  0  0  0
  181.7710  175.2710  134.5190 C   0  0  0  0  0  3  0  0  0  0  0  0
  181.1230  174.0420  134.3820 O   0  0  0  0  0  1  0  0  0  0  0  0
  180.8880  176.1880  135.0960 O   0  0  0  0  0  1  0  0  0  0  0  0
  1 26  1  0  0  0  0
  5 12  1  0  0  0  0
  7  6  2  0  0  0  0
  8 15  2  0  0  0  0
  9 13  2  0  0  0  0
  9  8  1  0  0  0  0
 10 23  1  0  0  0  0
 11 41  1  0  0  0  0
 11  4  1  0  0  0  0
 12 11  2  0  0  0  0
 13  7  1  0  0  0  0
 15  6  1  0  0  0  0
 15 27  1  0  0  0  0
 16 18  1  1  0  0  0
 16 31  1  0  0  0  0
 17  1  2  0  0  0  0
 18 26  1  0  0  0  0
 20 25  1  0  0  0  0
 20  2  1  0  0  0  0
 21  8  1  0  0  0  0
 21 19  2  0  0  0  0
 22 23  1  0  0  0  0
 22  2  1  0  0  0  0
 23  3  1  6  0  0  0
 24 14  1  0  0  0  0
 25  5  1  6  0  0  0
 25  4  1  0  0  0  0
 25 29  1  0  0  0  0
 26 24  2  0  0  0  0
 27 10  1  6  0  0  0
 27 28  1  0  0  0  0
 28 19  1  6  0  0  0
 28 17  1  0  0  0  0
 29 30  1  0  0  0  0
 30 16  1  0  0  0  0
 31 14  1  0  0  0  0
 32 37  2  0  0  0  0
 33 35  1  0  0  0  0
 35 34  2  0  0  0  0
 36 32  1  0  0  0  0
 36 33  2  0  0  0  0
 37 19  1  0  0  0  0
 37 34  1  0  0  0  0
 38 33  1  0  0  0  0
 40 38  1  0  0  0  0
 40 39  2  0  0  0  0
 42 53  1  1  0  0  0
 42 41  1  0  0  0  0
 42 45  1  0  0  0  0
 45 47  1  1  0  0  0
 45 44  1  0  0  0  0
 46 45  1  0  0  0  0
 46 43  1  1  0  0  0
 46 44  1  0  0  0  0
 47 48  1  0  0  0  0
 49 50  1  1  0  0  0
 49 46  1  0  0  0  0
 51 52  1  0  0  0  0
 51 49  1  0  0  0  0
 53 55  1  0  0  0  0
 54 53  1  0  0  0  0
M  END
>  <MODEL>
3

>  <REMARK>
 VINA RESULT:      -3.2      1.922      3.002
  Name = 
  10 active torsions:
  status: ('A' for Active; 'I' for Inactive)
    1  A    between atoms: C_1  and  C_53
    2  A    between atoms: C_6  and  C_14
    3  A    between atoms: O_10  and  C_32
    4  A    between atoms: O_10  and  C_47
    5  A    between atoms: C_11  and  C_29
    6  A    between atoms: C_14  and  C_53
    7  A    between atoms: C_20  and  O_42
    8  A    between atoms: C_29  and  C_38
    9  A    between atoms: C_33  and  C_52
   10  A    between atoms: O_42  and  C_53
                            x       y       z     vdW  Elec       q    Type
                         _______ _______ _______ _____ _____    ______ ____

>  <TORSDO>
F 10

$$$$
=
 OpenBabel10272401173D

 55 61  0  0  1  0  0  0  0  0999 V2000
  184.0670  175.7640  135.0390 C   0  0  0  0  0  3  0  0  0  0  0  0
  188.0090  173.6000  136.2470 C   0  0  0  0  0  2  0  0  0  0  0  0
  186.5980  171.0480  134.9760 C   0  0  0  0  0  1  0  0  0  0  0  0
  190.8860  174.5380  135.8810 C   0  0  0  0  0  2  0  0  0  0  0  0
  190.9700  175.0280  138.2650 C   0  0  0  0  0  2  0  0  0  0  0  0
  182.8330  170.1550  134.3460 C   0  0  0  0  0  3  0  0  0  0  0  0
  181.8900  169.1210  134.3900 C   0  0  0  0  0  3  0  0  0  0  0  0
  181.6410  171.3130  136.1190 C   0  0  0  0  0  0  0  0  0  0  0  0
  180.7080  170.2710  136.1680 C   0  0  0  0  0  3  0  0  0  0  0  0
  184.7350  171.9240  136.1890 O   0  0  0  0  0  0  0  0  0  0  0  0
  192.2290  174.3020  136.4680 C   0  0  0  0  0  0  0  0  0  0  0  0
  192.2840  174.5660  137.7510 C   0  0  0  0  0  3  0  0  0  0  0  0
  180.8300  169.1760  135.3010 C   0  0  0  0  0  3  0  0  0  0  0  0
  186.0230  178.9470  134.3460 C   0  0  0  0  0  2  0  0  0  0  0  0
  182.7050  171.2550  135.2010 C   0  0  0  0  0  0  0  0  0  0  0  0
  187.5470  177.4580  135.6450 C   0  0  1  0  0  3  0  0  0  0  0  0
  184.1470  174.6880  135.7560 N   0  0  0  0  0  0  0  0  0  0  0  0
  186.3170  176.5860  135.9870 C   0  0  0  0  0  2  0  0  0  0  0  0
  182.2340  173.5230  136.8750 C   0  0  0  0  0  0  0  0  0  0  0  0
  188.9550  173.9040  137.3980 C   0  0  0  0  0  2  0  0  0  0  0  0
  181.5190  172.4370  137.0040 N   0  0  0  0  0  0  0  0  0  0  0  0
  186.8780  172.7400  136.7720 C   0  0  0  0  0  2  0  0  0  0  0  0
  185.9770  172.2680  135.6430 C   0  0  1  0  0  3  0  0  0  0  0  0
  184.9760  177.8810  134.3460 C   0  0  0  0  0  3  0  0  0  0  0  0
  190.0170  174.9570  137.0740 C   0  0  2  0  0  0  0  0  0  0  0  0
  185.1030  176.7940  135.1090 C   0  0  0  0  0  0  0  0  0  0  0  0
  183.7660  172.3110  135.2490 C   0  0  1  0  0  3  0  0  0  0  0  0
  183.1290  173.6570  135.6430 C   0  0  2  0  0  3  0  0  0  0  0  0
  189.3920  176.3440  136.8950 C   0  0  0  0  0  2  0  0  0  0  0  0
  188.7650  176.5650  135.5220 C   0  0  0  0  0  2  0  0  0  0  0  0
  187.3900  178.2840  134.3670 C   0  0  0  0  0  2  0  0  0  0  0  0
  180.7580  175.3000  137.8310 C   0  0  0  0  0  3  0  0  0  0  0  0
  181.4440  176.7050  139.6300 C   0  0  0  0  0  0  0  0  0  0  0  0
  182.9520  175.0240  138.7730 C   0  0  0  0  0  3  0  0  0  0  0  0
  182.6870  176.0560  139.6710 C   0  0  0  0  0  3  0  0  0  0  0  0
  180.5170  176.3070  138.7150 N   0  0  0  0  0  0  0  0  0  0  0  0
  181.9930  174.6360  137.8280 C   0  0  0  0  0  0  0  0  0  0  0  0
  181.1220  177.7610  140.4970 O   0  0  0  0  0  0  0  0  0  0  0  0
  180.2390  178.0570  142.6400 O   0  0  0  0  0  0  0  0  0  0  0  0
  180.0650  177.7790  141.4200 C   0  0  0  0  0  3  0  0  0  0  0  0
  193.3600  173.8670  135.7620 O   0  0  0  0  0  0  0  0  0  0  0  0
  194.6200  173.5300  136.3490 C   0  0  1  0  0  3  0  0  0  0  0  0
  196.5360  170.3380  135.5440 O   0  0  0  0  0  1  0  0  0  0  0  0
  194.6800  171.5760  134.6300 C   0  0  0  0  0  2  0  0  0  0  0  0
  195.4620  172.5940  135.4600 C   0  0  2  0  0  0  0  0  0  0  0  0
  195.4240  171.1210  135.8700 C   0  0  2  0  0  0  0  0  0  0  0  0
  196.8030  173.0600  134.8820 C   0  0  0  0  0  2  0  0  0  0  0  0
  197.8830  173.1580  135.9480 C   0  0  0  0  0  1  0  0  0  0  0  0
  194.4830  170.6140  136.9670 C   0  0  1  0  0  3  0  0  0  0  0  0
  193.3570  170.0040  136.4040 O   0  0  0  0  0  1  0  0  0  0  0  0
  195.1870  169.6520  137.9180 C   0  0  0  0  0  2  0  0  0  0  0  0
  194.8920  169.9550  139.2490 O   0  0  0  0  0  1  0  0  0  0  0  0
  195.3820  174.7390  136.9000 C   0  0  0  0  0  3  0  0  0  0  0  0
  194.9450  175.9050  136.2690 O   0  0  0  0  0  1  0  0  0  0  0  0
  195.1600  174.8560  138.2750 O   0  0  0  0  0  1  0  0  0  0  0  0
  1 26  1  0  0  0  0
  1 17  2  0  0  0  0
  2 22  1  0  0  0  0
  2 20  1  0  0  0  0
  4 11  1  0  0  0  0
  6  7  2  0  0  0  0
  6 15  1  0  0  0  0
  7 13  1  0  0  0  0
  8  9  1  0  0  0  0
  8 21  1  0  0  0  0
 11 12  2  0  0  0  0
 12  5  1  0  0  0  0
 13  9  2  0  0  0  0
 14 31  1  0  0  0  0
 15  8  2  0  0  0  0
 16 31  1  6  0  0  0
 16 18  1  0  0  0  0
 19 21  2  0  0  0  0
 19 37  1  0  0  0  0
 23  3  1  1  0  0  0
 23 10  1  0  0  0  0
 23 22  1  0  0  0  0
 24 14  1  0  0  0  0
 24 26  2  0  0  0  0
 25  4  1  6  0  0  0
 25 20  1  0  0  0  0
 25  5  1  0  0  0  0
 26 18  1  0  0  0  0
 27 15  1  1  0  0  0
 27 28  1  0  0  0  0
 27 10  1  0  0  0  0
 28 17  1  1  0  0  0
 28 19  1  0  0  0  0
 29 25  1  0  0  0  0
 30 16  1  0  0  0  0
 30 29  1  0  0  0  0
 32 36  1  0  0  0  0
 33 35  1  0  0  0  0
 33 38  1  0  0  0  0
 34 35  2  0  0  0  0
 36 33  2  0  0  0  0
 37 32  2  0  0  0  0
 37 34  1  0  0  0  0
 38 40  1  0  0  0  0
 40 39  2  0  0  0  0
 41 11  1  0  0  0  0
 42 41  1  6  0  0  0
 42 53  1  0  0  0  0
 44 45  1  0  0  0  0
 44 46  1  0  0  0  0
 45 47  1  6  0  0  0
 45 46  1  0  0  0  0
 45 42  1  0  0  0  0
 46 43  1  6  0  0  0
 46 49  1  0  0  0  0
 47 48  1  0  0  0  0
 49 50  1  6  0  0  0
 49 51  1  0  0  0  0
 51 52  1  0  0  0  0
 53 55  1  0  0  0  0
 54 53  1  0  0  0  0
M  END
>  <MODEL>
4

>  <REMARK>
 VINA RESULT:      -3.0      3.884     11.486
  Name = 
  10 active torsions:
  status: ('A' for Active; 'I' for Inactive)
    1  A    between atoms: C_1  and  C_53
    2  A    between atoms: C_6  and  C_14
    3  A    between atoms: O_10  and  C_32
    4  A    between atoms: O_10  and  C_47
    5  A    between atoms: C_11  and  C_29
    6  A    between atoms: C_14  and  C_53
    7  A    between atoms: C_20  and  O_42
    8  A    between atoms: C_29  and  C_38
    9  A    between atoms: C_33  and  C_52
   10  A    between atoms: O_42  and  C_53
                            x       y       z     vdW  Elec       q    Type
                         _______ _______ _______ _____ _____    ______ ____

>  <TORSDO>
F 10

$$$$
=
 OpenBabel10272401173D

 55 61  0  0  1  0  0  0  0  0999 V2000
  192.7210  174.5960  137.9060 C   0  0  0  0  0  3  0  0  0  0  0  0
  188.7180  174.2850  135.5460 C   0  0  0  0  0  2  0  0  0  0  0  0
  189.4220  171.1850  135.4290 C   0  0  0  0  0  1  0  0  0  0  0  0
  186.0330  175.5830  136.1720 C   0  0  0  0  0  2  0  0  0  0  0  0
  186.4390  177.1620  134.3640 C   0  0  0  0  0  2  0  0  0  0  0  0
  192.8100  169.2350  135.7340 C   0  0  0  0  0  3  0  0  0  0  0  0
  193.5490  168.1600  135.2260 C   0  0  0  0  0  3  0  0  0  0  0  0
  194.4680  170.7820  134.8620 C   0  0  0  0  0  0  0  0  0  0  0  0
  195.1980  169.7050  134.3460 C   0  0  0  0  0  3  0  0  0  0  0  0
  191.5870  172.0660  134.9350 O   0  0  0  0  0  0  0  0  0  0  0  0
  184.7870  175.9840  135.4720 C   0  0  0  0  0  0  0  0  0  0  0  0
  184.9970  176.8380  134.4980 C   0  0  0  0  0  3  0  0  0  0  0  0
  194.7400  168.3930  134.5310 C   0  0  0  0  0  3  0  0  0  0  0  0
  191.2690  177.4130  140.0020 C   0  0  0  0  0  2  0  0  0  0  0  0
  193.2720  170.5440  135.5620 C   0  0  0  0  0  0  0  0  0  0  0  0
  189.7470  177.1420  138.0430 C   0  0  1  0  0  3  0  0  0  0  0  0
  192.5730  174.0510  136.7400 N   0  0  0  0  0  0  0  0  0  0  0  0
  190.8430  176.2790  137.3780 C   0  0  0  0  0  2  0  0  0  0  0  0
  194.4110  173.1520  135.2960 C   0  0  0  0  0  0  0  0  0  0  0  0
  188.0490  175.3190  134.6560 C   0  0  0  0  0  2  0  0  0  0  0  0
  194.9340  172.1280  134.6770 N   0  0  0  0  0  0  0  0  0  0  0  0
  189.7520  173.5430  134.7240 C   0  0  0  0  0  2  0  0  0  0  0  0
  190.3530  172.3880  135.5080 C   0  0  1  0  0  3  0  0  0  0  0  0
  192.0970  176.2650  139.5220 C   0  0  0  0  0  3  0  0  0  0  0  0
  187.1500  176.3040  135.4080 C   0  0  2  0  0  0  0  0  0  0  0  0
  191.9100  175.7450  138.3090 C   0  0  0  0  0  0  0  0  0  0  0  0
  192.4380  171.7100  135.9950 C   0  0  1  0  0  3  0  0  0  0  0  0
  193.3600  172.8850  136.3730 C   0  0  2  0  0  3  0  0  0  0  0  0
  187.9710  177.2410  136.2990 C   0  0  0  0  0  2  0  0  0  0  0  0
  188.3870  176.6180  137.6280 C   0  0  0  0  0  2  0  0  0  0  0  0
  189.8300  177.1870  139.5710 C   0  0  0  0  0  2  0  0  0  0  0  0
  196.3820  174.6880  135.2050 C   0  0  0  0  0  3  0  0  0  0  0  0
  196.1960  176.9740  134.5600 C   0  0  0  0  0  0  0  0  0  0  0  0
  194.2260  175.5780  134.6240 C   0  0  0  0  0  3  0  0  0  0  0  0
  194.8140  176.8180  134.3810 C   0  0  0  0  0  3  0  0  0  0  0  0
  196.9380  175.9060  134.9640 N   0  0  0  0  0  0  0  0  0  0  0  0
  195.0020  174.4930  135.0530 C   0  0  0  0  0  0  0  0  0  0  0  0
  196.8450  178.2010  134.3460 O   0  0  0  0  0  0  0  0  0  0  0  0
  195.7930  179.5210  135.9620 O   0  0  0  0  0  0  0  0  0  0  0  0
  196.4860  179.4350  134.9080 C   0  0  0  0  0  3  0  0  0  0  0  0
  183.4950  175.5460  135.7940 O   0  0  0  0  0  0  0  0  0  0  0  0
  182.4290  176.3840  136.2520 C   0  0  1  0  0  3  0  0  0  0  0  0
  179.9820  174.1230  134.4040 O   0  0  0  0  0  1  0  0  0  0  0  0
  180.1080  175.2410  136.5370 C   0  0  0  0  0  2  0  0  0  0  0  0
  181.0680  176.0110  135.6320 C   0  0  2  0  0  0  0  0  0  0  0  0
  180.8470  174.5120  135.4320 C   0  0  2  0  0  0  0  0  0  0  0  0
  180.4290  176.8980  134.5560 C   0  0  0  0  0  2  0  0  0  0  0  0
  181.1850  178.2040  134.3670 C   0  0  0  0  0  1  0  0  0  0  0  0
  181.8350  173.4730  135.9720 C   0  0  1  0  0  3  0  0  0  0  0  0
  181.6730  173.3140  137.3530 O   0  0  0  0  0  1  0  0  0  0  0  0
  181.6900  172.1310  135.2630 C   0  0  0  0  0  2  0  0  0  0  0  0
  181.3490  171.1200  136.1650 O   0  0  0  0  0  1  0  0  0  0  0  0
  182.4060  176.5700  137.7730 C   0  0  0  0  0  3  0  0  0  0  0  0
  183.0510  175.4990  138.3920 O   0  0  0  0  0  1  0  0  0  0  0  0
  183.0600  177.7560  138.1170 O   0  0  0  0  0  1  0  0  0  0  0  0
  1 26  1  0  0  0  0
  5 12  1  0  0  0  0
  7  6  2  0  0  0  0
  8 15  2  0  0  0  0
  9 13  2  0  0  0  0
  9  8  1  0  0  0  0
 10 23  1  0  0  0  0
 11 41  1  0  0  0  0
 11  4  1  0  0  0  0
 12 11  2  0  0  0  0
 13  7  1  0  0  0  0
 15  6  1  0  0  0  0
 15 27  1  0  0  0  0
 16 18  1  1  0  0  0
 16 31  1  0  0  0  0
 17  1  2  0  0  0  0
 18 26  1  0  0  0  0
 20 25  1  0  0  0  0
 20  2  1  0  0  0  0
 21  8  1  0  0  0  0
 21 19  2  0  0  0  0
 22 23  1  0  0  0  0
 22  2  1  0  0  0  0
 23  3  1  6  0  0  0
 24 14  1  0  0  0  0
 25  5  1  6  0  0  0
 25  4  1  0  0  0  0
 25 29  1  0  0  0  0
 26 24  2  0  0  0  0
 27 10  1  6  0  0  0
 27 28  1  0  0  0  0
 28 19  1  6  0  0  0
 28 17  1  0  0  0  0
 29 30  1  0  0  0  0
 30 16  1  0  0  0  0
 31 14  1  0  0  0  0
 33 36  2  0  0  0  0
 34 37  1  0  0  0  0
 35 33  1  0  0  0  0
 35 34  2  0  0  0  0
 36 32  1  0  0  0  0
 37 32  2  0  0  0  0
 37 19  1  0  0  0  0
 38 33  1  0  0  0  0
 38 40  1  0  0  0  0
 40 39  2  0  0  0  0
 42 41  1  1  0  0  0
 42 53  1  0  0  0  0
 45 47  1  6  0  0  0
 45 42  1  0  0  0  0
 45 44  1  0  0  0  0
 46 43  1  6  0  0  0
 46 45  1  0  0  0  0
 46 49  1  0  0  0  0
 46 44  1  0  0  0  0
 48 47  1  0  0  0  0
 49 50  1  1  0  0  0
 51 49  1  0  0  0  0
 51 52  1  0  0  0  0
 53 55  1  0  0  0  0
 53 54  1  0  0  0  0
M  END
>  <MODEL>
5

>  <REMARK>
 VINA RESULT:      -2.3      1.414      2.923
  Name = 
  10 active torsions:
  status: ('A' for Active; 'I' for Inactive)
    1  A    between atoms: C_1  and  C_53
    2  A    between atoms: C_6  and  C_14
    3  A    between atoms: O_10  and  C_32
    4  A    between atoms: O_10  and  C_47
    5  A    between atoms: C_11  and  C_29
    6  A    between atoms: C_14  and  C_53
    7  A    between atoms: C_20  and  O_42
    8  A    between atoms: C_29  and  C_38
    9  A    between atoms: C_33  and  C_52
   10  A    between atoms: O_42  and  C_53
                            x       y       z     vdW  Elec       q    Type
                         _______ _______ _______ _____ _____    ______ ____

>  <TORSDO>
F 10

$$$$
=
 OpenBabel10272401173D

 55 61  0  0  1  0  0  0  0  0999 V2000
  184.9780  176.4230  135.3080 C   0  0  0  0  0  3  0  0  0  0  0  0
  188.6360  173.7070  136.2710 C   0  0  0  0  0  2  0  0  0  0  0  0
  186.7730  171.3820  135.1570 C   0  0  0  0  0  1  0  0  0  0  0  0
  191.5840  174.2030  135.6800 C   0  0  0  0  0  2  0  0  0  0  0  0
  191.9160  174.6960  138.0410 C   0  0  0  0  0  2  0  0  0  0  0  0
  182.8800  171.0540  134.8170 C   0  0  0  0  0  3  0  0  0  0  0  0
  181.8010  170.1720  134.9500 C   0  0  0  0  0  3  0  0  0  0  0  0
  182.0080  172.3920  136.6480 C   0  0  0  0  0  0  0  0  0  0  0  0
  180.9370  171.5010  136.7850 C   0  0  0  0  0  3  0  0  0  0  0  0
  185.1550  172.5360  136.4830 O   0  0  0  0  0  0  0  0  0  0  0  0
  192.9170  173.7750  136.1730 C   0  0  0  0  0  0  0  0  0  0  0  0
  193.1060  174.0400  137.4440 C   0  0  0  0  0  3  0  0  0  0  0  0
  180.8320  170.3930  135.9340 C   0  0  0  0  0  3  0  0  0  0  0  0
  187.3260  179.2720  134.4120 C   0  0  0  0  0  2  0  0  0  0  0  0
  182.9800  172.1680  135.6570 C   0  0  0  0  0  0  0  0  0  0  0  0
  188.7050  177.5840  135.6270 C   0  0  1  0  0  3  0  0  0  0  0  0
  184.9510  175.3530  136.0390 N   0  0  0  0  0  0  0  0  0  0  0  0
  187.3890  176.9090  136.0750 C   0  0  0  0  0  2  0  0  0  0  0  0
  182.9750  174.4960  137.3150 C   0  0  0  0  0  0  0  0  0  0  0  0
  189.6980  173.8770  137.3450 C   0  0  0  0  0  2  0  0  0  0  0  0
  182.1200  173.5300  137.5170 N   0  0  0  0  0  0  0  0  0  0  0  0
  187.4320  173.0300  136.8940 C   0  0  0  0  0  2  0  0  0  0  0  0
  186.3890  172.6870  135.8420 C   0  0  1  0  0  3  0  0  0  0  0  0
  186.1350  178.3740  134.5090 C   0  0  0  0  0  3  0  0  0  0  0  0
  190.8770  174.7580  136.9240 C   0  0  2  0  0  0  0  0  0  0  0  0
  186.1570  177.2880  135.2820 C   0  0  0  0  0  0  0  0  0  0  0  0
  184.1860  173.0550  135.6070 C   0  0  1  0  0  3  0  0  0  0  0  0
  183.7860  174.4840  136.0200 C   0  0  2  0  0  3  0  0  0  0  0  0
  190.4530  176.2210  136.7630 C   0  0  0  0  0  2  0  0  0  0  0  0
  189.7650  176.5190  135.4340 C   0  0  0  0  0  2  0  0  0  0  0  0
  188.5770  178.4130  134.3470 C   0  0  0  0  0  2  0  0  0  0  0  0
  182.2750  175.5450  139.4730 C   0  0  0  0  0  3  0  0  0  0  0  0
  182.9660  177.7330  140.1180 C   0  0  0  0  0  0  0  0  0  0  0  0
  183.6920  176.8150  138.0060 C   0  0  0  0  0  3  0  0  0  0  0  0
  183.6890  177.8630  138.9240 C   0  0  0  0  0  3  0  0  0  0  0  0
  182.2830  176.5790  140.3580 N   0  0  0  0  0  0  0  0  0  0  0  0
  182.9730  175.6410  138.2610 C   0  0  0  0  0  0  0  0  0  0  0  0
  182.9120  178.7580  141.0770 O   0  0  0  0  0  0  0  0  0  0  0  0
  184.5790  178.6090  142.7070 O   0  0  0  0  0  0  0  0  0  0  0  0
  183.3540  178.6700  142.4050 C   0  0  0  0  0  3  0  0  0  0  0  0
  193.9160  173.1700  135.3960 O   0  0  0  0  0  0  0  0  0  0  0  0
  195.3220  173.2680  135.6390 C   0  0  1  0  0  3  0  0  0  0  0  0
  198.1830  170.8940  136.4730 O   0  0  0  0  0  1  0  0  0  0  0  0
  195.8730  171.1870  137.1030 C   0  0  0  0  0  2  0  0  0  0  0  0
  196.0060  171.8910  135.7530 C   0  0  2  0  0  0  0  0  0  0  0  0
  197.1860  171.8440  136.7230 C   0  0  2  0  0  0  0  0  0  0  0  0
  196.1550  170.9860  134.5240 C   0  0  0  0  0  2  0  0  0  0  0  0
  195.1770  169.8220  134.5480 C   0  0  0  0  0  1  0  0  0  0  0  0
  197.5340  173.0300  137.6280 C   0  0  1  0  0  3  0  0  0  0  0  0
  196.7170  173.0360  138.7650 O   0  0  0  0  0  1  0  0  0  0  0  0
  199.0040  173.0240  138.0310 C   0  0  0  0  0  2  0  0  0  0  0  0
  199.7540  173.8700  137.2090 O   0  0  0  0  0  1  0  0  0  0  0  0
  196.0370  174.2570  134.7120 C   0  0  0  0  0  3  0  0  0  0  0  0
  195.1670  175.2900  134.3580 O   0  0  0  0  0  1  0  0  0  0  0  0
  197.1480  174.8010  135.3630 O   0  0  0  0  0  1  0  0  0  0  0  0
  1 17  2  0  0  0  0
  2 22  1  0  0  0  0
  2 20  1  0  0  0  0
  4 11  1  0  0  0  0
  6  7  2  0  0  0  0
  6 15  1  0  0  0  0
  7 13  1  0  0  0  0
  8  9  1  0  0  0  0
  8 21  1  0  0  0  0
 11 12  2  0  0  0  0
 12  5  1  0  0  0  0
 13  9  2  0  0  0  0
 14 24  1  0  0  0  0
 15  8  2  0  0  0  0
 16 31  1  6  0  0  0
 16 18  1  0  0  0  0
 19 21  2  0  0  0  0
 19 37  1  0  0  0  0
 23  3  1  1  0  0  0
 23 10  1  0  0  0  0
 23 22  1  0  0  0  0
 24 26  2  0  0  0  0
 25  4  1  6  0  0  0
 25 20  1  0  0  0  0
 25  5  1  0  0  0  0
 26  1  1  0  0  0  0
 26 18  1  0  0  0  0
 27 15  1  1  0  0  0
 27 28  1  0  0  0  0
 27 10  1  0  0  0  0
 28 17  1  1  0  0  0
 28 19  1  0  0  0  0
 29 25  1  0  0  0  0
 30 16  1  0  0  0  0
 30 29  1  0  0  0  0
 31 14  1  0  0  0  0
 32 36  1  0  0  0  0
 33 36  2  0  0  0  0
 33 38  1  0  0  0  0
 34 37  1  0  0  0  0
 34 35  2  0  0  0  0
 35 33  1  0  0  0  0
 37 32  2  0  0  0  0
 38 40  1  0  0  0  0
 40 39  2  0  0  0  0
 41 42  1  0  0  0  0
 41 11  1  0  0  0  0
 42 53  1  6  0  0  0
 42 45  1  0  0  0  0
 45 47  1  6  0  0  0
 45 46  1  0  0  0  0
 45 44  1  0  0  0  0
 46 43  1  6  0  0  0
 46 44  1  0  0  0  0
 46 49  1  0  0  0  0
 47 48  1  0  0  0  0
 49 51  1  0  0  0  0
 49 50  1  1  0  0  0
 52 51  1  0  0  0  0
 53 55  1  0  0  0  0
 54 53  1  0  0  0  0
M  END
>  <MODEL>
6

>  <REMARK>
 VINA RESULT:      -2.1      3.603     11.379
  Name = 
  10 active torsions:
  status: ('A' for Active; 'I' for Inactive)
    1  A    between atoms: C_1  and  C_53
    2  A    between atoms: C_6  and  C_14
    3  A    between atoms: O_10  and  C_32
    4  A    between atoms: O_10  and  C_47
    5  A    between atoms: C_11  and  C_29
    6  A    between atoms: C_14  and  C_53
    7  A    between atoms: C_20  and  O_42
    8  A    between atoms: C_29  and  C_38
    9  A    between atoms: C_33  and  C_52
   10  A    between atoms: O_42  and  C_53
                            x       y       z     vdW  Elec       q    Type
                         _______ _______ _______ _____ _____    ______ ____

>  <TORSDO>
F 10

$$$$
=
 OpenBabel10272401173D

 55 61  0  0  1  0  0  0  0  0999 V2000
  192.1540  174.8930  137.9390 C   0  0  0  0  0  3  0  0  0  0  0  0
  188.1750  174.7730  135.5230 C   0  0  0  0  0  2  0  0  0  0  0  0
  188.7550  171.6490  135.3730 C   0  0  0  0  0  1  0  0  0  0  0  0
  185.5350  176.1700  136.1300 C   0  0  0  0  0  2  0  0  0  0  0  0
  186.0290  177.7550  134.3490 C   0  0  0  0  0  2  0  0  0  0  0  0
  192.0570  169.5600  135.6970 C   0  0  0  0  0  3  0  0  0  0  0  0
  192.7590  168.4630  135.1850 C   0  0  0  0  0  3  0  0  0  0  0  0
  193.7880  171.0500  134.8690 C   0  0  0  0  0  0  0  0  0  0  0  0
  194.4810  169.9510  134.3470 C   0  0  0  0  0  3  0  0  0  0  0  0
  190.9600  172.4480  134.9200 O   0  0  0  0  0  0  0  0  0  0  0  0
  184.3160  176.6310  135.4180 C   0  0  0  0  0  0  0  0  0  0  0  0
  184.5730  177.4870  134.4590 C   0  0  0  0  0  3  0  0  0  0  0  0
  193.9680  168.6570  134.5090 C   0  0  0  0  0  3  0  0  0  0  0  0
  190.7880  177.7390  140.0530 C   0  0  0  0  0  2  0  0  0  0  0  0
  192.5740  170.8520  135.5490 C   0  0  0  0  0  0  0  0  0  0  0  0
  189.2830  177.5550  138.0710 C   0  0  1  0  0  3  0  0  0  0  0  0
  192.0000  174.3690  136.7630 N   0  0  0  0  0  0  0  0  0  0  0  0
  190.3520  176.6570  137.4080 C   0  0  0  0  0  2  0  0  0  0  0  0
  193.8200  173.4150  135.3330 C   0  0  0  0  0  0  0  0  0  0  0  0
  187.5590  175.8450  134.6370 C   0  0  0  0  0  2  0  0  0  0  0  0
  194.3100  172.3790  134.7070 N   0  0  0  0  0  0  0  0  0  0  0  0
  189.1890  174.0010  134.7040 C   0  0  0  0  0  2  0  0  0  0  0  0
  189.7320  172.8130  135.4810 C   0  0  1  0  0  3  0  0  0  0  0  0
  191.5750  176.5650  139.5690 C   0  0  0  0  0  3  0  0  0  0  0  0
  186.6910  176.8550  135.3900 C   0  0  2  0  0  0  0  0  0  0  0  0
  191.3840  176.0680  138.3460 C   0  0  0  0  0  0  0  0  0  0  0  0
  191.7810  172.0450  135.9870 C   0  0  1  0  0  3  0  0  0  0  0  0
  192.7450  173.1770  136.3920 C   0  0  2  0  0  3  0  0  0  0  0  0
  187.5360  177.7470  136.3040 C   0  0  0  0  0  2  0  0  0  0  0  0
  187.9090  177.0910  137.6310 C   0  0  0  0  0  2  0  0  0  0  0  0
  189.3470  177.5770  139.5990 C   0  0  0  0  0  2  0  0  0  0  0  0
  195.8240  174.9060  135.4230 C   0  0  0  0  0  3  0  0  0  0  0  0
  195.7710  177.1700  134.6820 C   0  0  0  0  0  0  0  0  0  0  0  0
  193.7750  175.8170  134.5610 C   0  0  0  0  0  3  0  0  0  0  0  0
  194.4170  177.0350  134.3460 C   0  0  0  0  0  3  0  0  0  0  0  0
  196.4340  176.1040  135.2070 N   0  0  0  0  0  0  0  0  0  0  0  0
  194.4680  174.7340  135.1150 C   0  0  0  0  0  0  0  0  0  0  0  0
  196.4700  178.3750  134.5040 O   0  0  0  0  0  0  0  0  0  0  0  0
  197.2450  180.1760  135.7760 O   0  0  0  0  0  0  0  0  0  0  0  0
  196.2840  179.5550  135.2400 C   0  0  0  0  0  3  0  0  0  0  0  0
  183.0030  176.2410  135.7180 O   0  0  0  0  0  0  0  0  0  0  0  0
  182.0960  176.9690  136.5500 C   0  0  1  0  0  3  0  0  0  0  0  0
  181.9870  177.0170  140.3580 O   0  0  0  0  0  1  0  0  0  0  0  0
  183.3700  176.0590  138.6300 C   0  0  0  0  0  2  0  0  0  0  0  0
  182.6600  177.2350  137.9600 C   0  0  2  0  0  0  0  0  0  0  0  0
  181.9760  176.4500  139.0790 C   0  0  2  0  0  0  0  0  0  0  0  0
  183.1330  178.6370  138.3620 C   0  0  0  0  0  2  0  0  0  0  0  0
  184.6020  178.6550  138.7550 C   0  0  0  0  0  1  0  0  0  0  0  0
  180.9370  175.3640  138.7830 C   0  0  1  0  0  3  0  0  0  0  0  0
  180.1450  175.7280  137.6880 O   0  0  0  0  0  1  0  0  0  0  0  0
  181.5880  174.0070  138.5390 C   0  0  0  0  0  2  0  0  0  0  0  0
  180.6450  173.0660  138.1190 O   0  0  0  0  0  1  0  0  0  0  0  0
  181.4890  178.1980  135.8660 C   0  0  0  0  0  3  0  0  0  0  0  0
  181.4030  177.9820  134.4900 O   0  0  0  0  0  1  0  0  0  0  0  0
  180.2070  178.4380  136.3700 O   0  0  0  0  0  1  0  0  0  0  0  0
  1 26  1  0  0  0  0
  5 12  1  0  0  0  0
  7  6  2  0  0  0  0
  8 15  2  0  0  0  0
  9 13  2  0  0  0  0
  9  8  1  0  0  0  0
 10 23  1  0  0  0  0
 11 41  1  0  0  0  0
 11  4  1  0  0  0  0
 12 11  2  0  0  0  0
 13  7  1  0  0  0  0
 15  6  1  0  0  0  0
 15 27  1  0  0  0  0
 16 18  1  1  0  0  0
 16 31  1  0  0  0  0
 17  1  2  0  0  0  0
 18 26  1  0  0  0  0
 20 25  1  0  0  0  0
 20  2  1  0  0  0  0
 21  8  1  0  0  0  0
 21 19  2  0  0  0  0
 22 23  1  0  0  0  0
 22  2  1  0  0  0  0
 23  3  1  6  0  0  0
 24 14  1  0  0  0  0
 25  5  1  6  0  0  0
 25  4  1  0  0  0  0
 25 29  1  0  0  0  0
 26 24  2  0  0  0  0
 27 10  1  6  0  0  0
 27 28  1  0  0  0  0
 28 19  1  6  0  0  0
 28 17  1  0  0  0  0
 29 30  1  0  0  0  0
 30 16  1  0  0  0  0
 31 14  1  0  0  0  0
 33 36  2  0  0  0  0
 34 37  1  0  0  0  0
 35 34  2  0  0  0  0
 35 33  1  0  0  0  0
 36 32  1  0  0  0  0
 37 19  1  0  0  0  0
 37 32  2  0  0  0  0
 38 33  1  0  0  0  0
 38 40  1  0  0  0  0
 40 39  2  0  0  0  0
 42 41  1  6  0  0  0
 42 45  1  0  0  0  0
 44 46  1  0  0  0  0
 45 47  1  1  0  0  0
 45 44  1  0  0  0  0
 45 46  1  0  0  0  0
 46 43  1  1  0  0  0
 47 48  1  0  0  0  0
 49 50  1  6  0  0  0
 49 46  1  0  0  0  0
 51 49  1  0  0  0  0
 52 51  1  0  0  0  0
 53 55  1  0  0  0  0
 53 42  1  0  0  0  0
 54 53  1  0  0  0  0
M  END
>  <MODEL>
7

>  <REMARK>
 VINA RESULT:      -1.6      1.376      2.489
  Name = 
  10 active torsions:
  status: ('A' for Active; 'I' for Inactive)
    1  A    between atoms: C_1  and  C_53
    2  A    between atoms: C_6  and  C_14
    3  A    between atoms: O_10  and  C_32
    4  A    between atoms: O_10  and  C_47
    5  A    between atoms: C_11  and  C_29
    6  A    between atoms: C_14  and  C_53
    7  A    between atoms: C_20  and  O_42
    8  A    between atoms: C_29  and  C_38
    9  A    between atoms: C_33  and  C_52
   10  A    between atoms: O_42  and  C_53
                            x       y       z     vdW  Elec       q    Type
                         _______ _______ _______ _____ _____    ______ ____

>  <TORSDO>
F 10

$$$$
