=
 OpenBabel10272400263D

 31 35  0  0  0  0  0  0  0  0999 V2000
  185.5240  178.4410  144.4510 C   0  0  0  0  0  0  0  0  0  0  0  0
  189.1040  177.3040  144.1850 C   0  0  0  0  0  0  0  0  0  0  0  0
  189.6400  177.2860  145.5100 C   0  0  0  0  0  0  0  0  0  0  0  0
  188.9160  176.7740  138.9500 O   0  0  0  0  0  0  0  0  0  0  0  0
  190.0720  176.4610  139.3450 C   0  0  0  0  0  0  0  0  0  0  0  0
  189.4650  177.6100  147.9180 C   0  0  0  0  0  0  0  0  0  0  0  0
  187.7670  177.6800  143.8550 C   0  0  0  0  0  0  0  0  0  0  0  0
  185.1420  178.4090  143.1100 C   0  0  0  0  0  3  0  0  0  0  0  0
  188.8950  177.6440  146.6460 C   0  0  0  0  0  3  0  0  0  0  0  0
  189.5090  176.9110  141.8000 C   0  0  0  0  0  0  0  0  0  0  0  0
  184.6350  178.8220  145.3990 F   0  0  0  0  0  0  0  0  0  0  0  0
  191.7700  176.5280  144.6300 C   0  0  0  0  0  3  0  0  0  0  0  0
  188.7350  177.9580  149.0030 F   0  0  0  0  0  0  0  0  0  0  0  0
  188.2300  177.2750  141.5280 N   0  0  0  0  0  0  0  0  0  0  0  0
  189.9700  176.9170  143.1240 C   0  0  0  0  0  0  0  0  0  0  0  0
  190.3950  176.5190  140.7430 N   0  0  0  0  0  2  0  0  0  0  0  0
  186.8220  178.0810  144.8170 C   0  0  0  0  0  3  0  0  0  0  0  0
  190.7930  177.2150  148.0600 C   0  0  0  0  0  3  0  0  0  0  0  0
  187.3620  177.6530  142.4960 C   0  0  0  0  0  0  0  0  0  0  0  0
  186.0610  178.0150  142.1360 C   0  0  0  0  0  3  0  0  0  0  0  0
  191.2540  176.5480  143.3780 N   0  0  0  0  0  0  0  0  0  0  0  0
  190.9840  176.8930  145.7150 C   0  0  0  0  0  0  0  0  0  0  0  0
  191.5180  176.8680  146.9650 N   0  0  0  0  0  0  0  0  0  0  0  0
  193.1300  175.2960  136.5650 C   0  0  0  0  0  0  0  0  0  0  0  0
  192.3060  176.7580  138.3040 C   0  0  0  0  0  3  0  0  0  0  0  0
  189.7660  174.1640  137.5420 O   0  0  0  0  0  1  0  0  0  0  0  0
  194.1040  174.9420  135.6940 F   0  0  0  0  0  0  0  0  0  0  0  0
  193.3110  176.3940  137.4060 C   0  0  0  0  0  3  0  0  0  0  0  0
  190.9310  174.9220  137.5180 C   0  0  0  0  0  0  0  0  0  0  0  0
  191.1060  176.0330  138.3740 C   0  0  0  0  0  0  0  0  0  0  0  0
  191.9430  174.5630  136.6210 C   0  0  0  0  0  3  0  0  0  0  0  0
  1 17  1  0  0  0  0
  1 11  1  0  0  0  0
  2  3  1  0  0  0  0
  3 22  2  0  0  0  0
  3  9  1  0  0  0  0
  4  5  2  0  0  0  0
  5 16  1  0  0  0  0
  6 18  1  0  0  0  0
  6 13  1  0  0  0  0
  7  2  1  0  0  0  0
  7 17  2  0  0  0  0
  8  1  2  0  0  0  0
  9  6  2  0  0  0  0
 10 15  1  0  0  0  0
 12 22  1  0  0  0  0
 14 10  2  0  0  0  0
 14 19  1  0  0  0  0
 15 21  1  0  0  0  0
 15  2  2  0  0  0  0
 16 10  1  0  0  0  0
 19  7  1  0  0  0  0
 20 19  2  0  0  0  0
 20  8  1  0  0  0  0
 21 12  2  0  0  0  0
 22 23  1  0  0  0  0
 23 18  2  0  0  0  0
 24 31  2  0  0  0  0
 24 28  1  0  0  0  0
 25 30  1  0  0  0  0
 27 24  1  0  0  0  0
 28 25  2  0  0  0  0
 29 26  1  0  0  0  0
 29 30  2  0  0  0  0
 30  5  1  0  0  0  0
 31 29  1  0  0  0  0
M  END
>  <MODEL>
1

>  <REMARK>
 VINA RESULT:     -11.1      0.000      0.000
  Name = 
  1 active torsions:
  status: ('A' for Active; 'I' for Inactive)
    1  A    between atoms: C_9  and  C_22
                            x       y       z     vdW  Elec       q    Type
                         _______ _______ _______ _____ _____    ______ ____

>  <TORSDO>
F 1

$$$$
=
 OpenBabel10272400263D

 31 35  0  0  0  0  0  0  0  0999 V2000
  187.5100  178.3260  148.0590 C   0  0  0  0  0  0  0  0  0  0  0  0
  187.9670  177.5530  144.4020 C   0  0  0  0  0  0  0  0  0  0  0  0
  189.3030  177.0700  144.2370 C   0  0  0  0  0  0  0  0  0  0  0  0
  183.0700  179.0020  143.1220 O   0  0  0  0  0  0  0  0  0  0  0  0
  183.6640  178.6240  142.0760 C   0  0  0  0  0  0  0  0  0  0  0  0
  191.5030  176.4650  145.0870 C   0  0  0  0  0  0  0  0  0  0  0  0
  187.3980  177.9570  145.6470 C   0  0  0  0  0  0  0  0  0  0  0  0
  186.1900  178.7760  148.0650 C   0  0  0  0  0  3  0  0  0  0  0  0
  190.2110  176.9410  145.3010 C   0  0  0  0  0  3  0  0  0  0  0  0
  185.8330  178.0970  143.3280 C   0  0  0  0  0  0  0  0  0  0  0  0
  188.2150  178.2810  149.2140 F   0  0  0  0  0  0  0  0  0  0  0  0
  188.9040  176.8040  141.8590 C   0  0  0  0  0  3  0  0  0  0  0  0
  192.3670  176.3460  146.1220 F   0  0  0  0  0  0  0  0  0  0  0  0
  185.3290  178.4720  144.5310 N   0  0  0  0  0  0  0  0  0  0  0  0
  187.1520  177.6330  143.2380 C   0  0  0  0  0  0  0  0  0  0  0  0
  185.0250  178.1730  142.1450 N   0  0  0  0  0  2  0  0  0  0  0  0
  188.1050  177.9220  146.8620 C   0  0  0  0  0  3  0  0  0  0  0  0
  191.8960  176.1140  143.7980 C   0  0  0  0  0  3  0  0  0  0  0  0
  186.0570  178.4170  145.6720 C   0  0  0  0  0  0  0  0  0  0  0  0
  185.4660  178.8210  146.8730 C   0  0  0  0  0  3  0  0  0  0  0  0
  187.6410  177.2620  142.0240 N   0  0  0  0  0  0  0  0  0  0  0  0
  189.7570  176.6980  142.9500 C   0  0  0  0  0  0  0  0  0  0  0  0
  191.0230  176.2360  142.7660 N   0  0  0  0  0  0  0  0  0  0  0  0
  181.5650  178.6180  138.3310 C   0  0  0  0  0  0  0  0  0  0  0  0
  181.7200  178.0030  140.6630 C   0  0  0  0  0  3  0  0  0  0  0  0
  184.7360  179.9210  139.6700 O   0  0  0  0  0  1  0  0  0  0  0  0
  180.8900  178.6080  137.1560 F   0  0  0  0  0  0  0  0  0  0  0  0
  181.0230  177.9910  139.4520 C   0  0  0  0  0  3  0  0  0  0  0  0
  183.5070  179.2730  139.6270 C   0  0  0  0  0  0  0  0  0  0  0  0
  182.9660  178.6410  140.7690 C   0  0  0  0  0  0  0  0  0  0  0  0
  182.8030  179.2570  138.4180 C   0  0  0  0  0  3  0  0  0  0  0  0
  1  8  1  0  0  0  0
  1 11  1  0  0  0  0
  2  7  1  0  0  0  0
  3  2  1  0  0  0  0
  3  9  1  0  0  0  0
  5 16  1  0  0  0  0
  5  4  2  0  0  0  0
  6  9  2  0  0  0  0
  6 13  1  0  0  0  0
  7 19  2  0  0  0  0
  7 17  1  0  0  0  0
 10 14  2  0  0  0  0
 12 21  2  0  0  0  0
 12 22  1  0  0  0  0
 14 19  1  0  0  0  0
 15 10  1  0  0  0  0
 15  2  2  0  0  0  0
 16 10  1  0  0  0  0
 17  1  2  0  0  0  0
 18  6  1  0  0  0  0
 19 20  1  0  0  0  0
 20  8  2  0  0  0  0
 21 15  1  0  0  0  0
 22  3  2  0  0  0  0
 23 22  1  0  0  0  0
 23 18  2  0  0  0  0
 24 31  2  0  0  0  0
 24 28  1  0  0  0  0
 25 30  1  0  0  0  0
 27 24  1  0  0  0  0
 28 25  2  0  0  0  0
 29 26  1  0  0  0  0
 29 30  2  0  0  0  0
 30  5  1  0  0  0  0
 31 29  1  0  0  0  0
M  END
>  <MODEL>
2

>  <REMARK>
 VINA RESULT:     -11.0      3.941      6.652
  Name = 
  1 active torsions:
  status: ('A' for Active; 'I' for Inactive)
    1  A    between atoms: C_9  and  C_22
                            x       y       z     vdW  Elec       q    Type
                         _______ _______ _______ _____ _____    ______ ____

>  <TORSDO>
F 1

$$$$
=
 OpenBabel10272400263D

 31 35  0  0  0  0  0  0  0  0999 V2000
  184.7510  178.6570  145.4510 C   0  0  0  0  0  0  0  0  0  0  0  0
  188.1580  177.6810  144.1810 C   0  0  0  0  0  0  0  0  0  0  0  0
  188.9910  177.4750  145.3240 C   0  0  0  0  0  0  0  0  0  0  0  0
  186.7390  177.9620  139.1180 O   0  0  0  0  0  0  0  0  0  0  0  0
  187.9530  177.6260  139.1780 C   0  0  0  0  0  0  0  0  0  0  0  0
  189.3910  177.4180  147.7260 C   0  0  0  0  0  0  0  0  0  0  0  0
  186.7850  178.0640  144.2350 C   0  0  0  0  0  0  0  0  0  0  0  0
  184.0640  178.8220  144.2480 C   0  0  0  0  0  3  0  0  0  0  0  0
  188.5380  177.6310  146.6440 C   0  0  0  0  0  3  0  0  0  0  0  0
  187.9870  177.6740  141.7360 C   0  0  0  0  0  0  0  0  0  0  0  0
  184.1130  178.8620  146.6280 F   0  0  0  0  0  0  0  0  0  0  0  0
  190.8480  176.9250  143.8620 C   0  0  0  0  0  3  0  0  0  0  0  0
  188.9390  177.5720  148.9920 F   0  0  0  0  0  0  0  0  0  0  0  0
  186.6840  178.0380  141.8310 N   0  0  0  0  0  0  0  0  0  0  0  0
  188.7470  177.4890  142.8990 C   0  0  0  0  0  0  0  0  0  0  0  0
  188.5970  177.4760  140.4520 N   0  0  0  0  0  2  0  0  0  0  0  0
  186.0960  178.2840  145.4420 C   0  0  0  0  0  3  0  0  0  0  0  0
  190.7120  177.0450  147.4900 C   0  0  0  0  0  3  0  0  0  0  0  0
  186.0710  178.2360  143.0220 C   0  0  0  0  0  0  0  0  0  0  0  0
  184.7240  178.6100  143.0370 C   0  0  0  0  0  3  0  0  0  0  0  0
  190.0520  177.1230  142.7850 N   0  0  0  0  0  0  0  0  0  0  0  0
  190.3420  177.0950  145.1440 C   0  0  0  0  0  0  0  0  0  0  0  0
  191.1560  176.8930  146.2150 N   0  0  0  0  0  0  0  0  0  0  0  0
  190.2300  176.8340  135.6250 C   0  0  0  0  0  0  0  0  0  0  0  0
  189.5160  176.2250  137.8520 C   0  0  0  0  0  3  0  0  0  0  0  0
  187.9350  179.4320  136.8620 O   0  0  0  0  0  1  0  0  0  0  0  0
  190.9540  176.5690  134.5110 F   0  0  0  0  0  0  0  0  0  0  0  0
  190.2640  175.9520  136.7040 C   0  0  0  0  0  3  0  0  0  0  0  0
  188.6980  178.2710  136.8380 C   0  0  0  0  0  0  0  0  0  0  0  0
  188.7260  177.3830  137.9370 C   0  0  0  0  0  0  0  0  0  0  0  0
  189.4500  177.9890  135.6910 C   0  0  0  0  0  3  0  0  0  0  0  0
  1 11  1  0  0  0  0
  2  7  1  0  0  0  0
  2  3  1  0  0  0  0
  3  9  1  0  0  0  0
  4  5  2  0  0  0  0
  5 16  1  0  0  0  0
  6 13  1  0  0  0  0
  7 17  2  0  0  0  0
  8  1  2  0  0  0  0
  9  6  2  0  0  0  0
 10 14  2  0  0  0  0
 10 15  1  0  0  0  0
 12 22  1  0  0  0  0
 14 19  1  0  0  0  0
 15  2  2  0  0  0  0
 16 10  1  0  0  0  0
 17  1  1  0  0  0  0
 18  6  1  0  0  0  0
 19 20  2  0  0  0  0
 19  7  1  0  0  0  0
 20  8  1  0  0  0  0
 21 15  1  0  0  0  0
 21 12  2  0  0  0  0
 22  3  2  0  0  0  0
 22 23  1  0  0  0  0
 23 18  2  0  0  0  0
 24 31  2  0  0  0  0
 24 28  1  0  0  0  0
 25 30  1  0  0  0  0
 27 24  1  0  0  0  0
 28 25  2  0  0  0  0
 29 26  1  0  0  0  0
 29 30  2  0  0  0  0
 30  5  1  0  0  0  0
 31 29  1  0  0  0  0
M  END
>  <MODEL>
3

>  <REMARK>
 VINA RESULT:     -10.9      1.856      2.298
  Name = 
  1 active torsions:
  status: ('A' for Active; 'I' for Inactive)
    1  A    between atoms: C_9  and  C_22
                            x       y       z     vdW  Elec       q    Type
                         _______ _______ _______ _____ _____    ______ ____

>  <TORSDO>
F 1

$$$$
=
 OpenBabel10272400263D

 31 35  0  0  0  0  0  0  0  0999 V2000
  190.0160  177.2030  147.1000 C   0  0  0  0  0  0  0  0  0  0  0  0
  187.6520  177.7150  144.2150 C   0  0  0  0  0  0  0  0  0  0  0  0
  186.3720  178.0270  144.7690 C   0  0  0  0  0  0  0  0  0  0  0  0
  191.3380  176.7860  140.5720 O   0  0  0  0  0  0  0  0  0  0  0  0
  190.2490  177.0340  139.9880 C   0  0  0  0  0  0  0  0  0  0  0  0
  184.8620  178.4140  146.6410 C   0  0  0  0  0  0  0  0  0  0  0  0
  188.8260  177.4500  144.9810 C   0  0  0  0  0  0  0  0  0  0  0  0
  191.1980  176.9130  146.4180 C   0  0  0  0  0  3  0  0  0  0  0  0
  186.1300  178.1060  146.1500 C   0  0  0  0  0  3  0  0  0  0  0  0
  188.9830  177.3690  142.1860 C   0  0  0  0  0  0  0  0  0  0  0  0
  190.0050  177.2270  148.4540 F   0  0  0  0  0  0  0  0  0  0  0  0
  185.4560  178.2080  142.5300 C   0  0  0  0  0  3  0  0  0  0  0  0
  184.6450  178.4860  147.9750 F   0  0  0  0  0  0  0  0  0  0  0  0
  190.0760  177.1230  142.9510 N   0  0  0  0  0  0  0  0  0  0  0  0
  187.7570  177.6680  142.7960 C   0  0  0  0  0  0  0  0  0  0  0  0
  189.0700  177.3250  140.7550 N   0  0  0  0  0  2  0  0  0  0  0  0
  188.8450  177.4680  146.3880 C   0  0  0  0  0  3  0  0  0  0  0  0
  183.8220  178.6450  145.7440 C   0  0  0  0  0  3  0  0  0  0  0  0
  190.0360  177.1530  144.3050 C   0  0  0  0  0  0  0  0  0  0  0  0
  191.2060  176.8890  145.0230 C   0  0  0  0  0  3  0  0  0  0  0  0
  186.6710  177.9120  142.0130 N   0  0  0  0  0  0  0  0  0  0  0  0
  185.2780  178.2720  143.9060 C   0  0  0  0  0  0  0  0  0  0  0  0
  184.0500  178.5700  144.4080 N   0  0  0  0  0  0  0  0  0  0  0  0
  190.0770  176.9270  135.6990 C   0  0  0  0  0  0  0  0  0  0  0  0
  190.7340  175.9480  137.8090 C   0  0  0  0  0  3  0  0  0  0  0  0
  188.9820  179.1620  138.4110 O   0  0  0  0  0  1  0  0  0  0  0  0
  190.0300  176.8790  134.3460 F   0  0  0  0  0  0  0  0  0  0  0  0
  190.6870  175.8970  136.4130 C   0  0  0  0  0  3  0  0  0  0  0  0
  189.5560  178.0680  137.7740 C   0  0  0  0  0  0  0  0  0  0  0  0
  190.1720  177.0290  138.5080 C   0  0  0  0  0  0  0  0  0  0  0  0
  189.5130  178.0090  136.3770 C   0  0  0  0  0  3  0  0  0  0  0  0
  1 11  1  0  0  0  0
  2  3  1  0  0  0  0
  2  7  1  0  0  0  0
  3  9  1  0  0  0  0
  5  4  2  0  0  0  0
  5 16  1  0  0  0  0
  6 13  1  0  0  0  0
  7 17  1  0  0  0  0
  8  1  1  0  0  0  0
  9  6  2  0  0  0  0
 10 15  1  0  0  0  0
 10 14  2  0  0  0  0
 12 22  1  0  0  0  0
 14 19  1  0  0  0  0
 15  2  2  0  0  0  0
 16 10  1  0  0  0  0
 17  1  2  0  0  0  0
 18  6  1  0  0  0  0
 19  7  2  0  0  0  0
 19 20  1  0  0  0  0
 20  8  2  0  0  0  0
 21 12  2  0  0  0  0
 21 15  1  0  0  0  0
 22 23  1  0  0  0  0
 22  3  2  0  0  0  0
 23 18  2  0  0  0  0
 24 31  2  0  0  0  0
 24 28  1  0  0  0  0
 25 30  1  0  0  0  0
 27 24  1  0  0  0  0
 28 25  2  0  0  0  0
 29 26  1  0  0  0  0
 29 30  2  0  0  0  0
 30  5  1  0  0  0  0
 31 29  1  0  0  0  0
M  END
>  <MODEL>
4

>  <REMARK>
 VINA RESULT:     -10.8      2.016      4.390
  Name = 
  1 active torsions:
  status: ('A' for Active; 'I' for Inactive)
    1  A    between atoms: C_9  and  C_22
                            x       y       z     vdW  Elec       q    Type
                         _______ _______ _______ _____ _____    ______ ____

>  <TORSDO>
F 1

$$$$
=
 OpenBabel10272400263D

 31 35  0  0  0  0  0  0  0  0999 V2000
  186.7990  178.1430  147.3290 C   0  0  0  0  0  0  0  0  0  0  0  0
  187.6140  177.9050  143.6620 C   0  0  0  0  0  0  0  0  0  0  0  0
  189.0180  177.6580  143.5570 C   0  0  0  0  0  0  0  0  0  0  0  0
  182.6410  178.7310  142.1420 O   0  0  0  0  0  0  0  0  0  0  0  0
  183.3560  178.5800  141.1150 C   0  0  0  0  0  0  0  0  0  0  0  0
  191.2270  177.2980  144.5170 C   0  0  0  0  0  0  0  0  0  0  0  0
  186.9060  178.0610  144.8910 C   0  0  0  0  0  0  0  0  0  0  0  0
  185.4250  178.3800  147.2740 C   0  0  0  0  0  3  0  0  0  0  0  0
  189.8630  177.5400  144.6720 C   0  0  0  0  0  3  0  0  0  0  0  0
  185.4950  178.2430  142.4790 C   0  0  0  0  0  0  0  0  0  0  0  0
  187.4240  178.0650  148.5280 F   0  0  0  0  0  0  0  0  0  0  0  0
  188.8250  177.6290  141.1390 C   0  0  0  0  0  3  0  0  0  0  0  0
  192.0290  177.1870  145.6020 F   0  0  0  0  0  0  0  0  0  0  0  0
  184.8590  178.3850  143.6690 N   0  0  0  0  0  0  0  0  0  0  0  0
  186.8750  178.0030  142.4490 C   0  0  0  0  0  0  0  0  0  0  0  0
  184.7650  178.3390  141.2470 N   0  0  0  0  0  2  0  0  0  0  0  0
  187.5280  177.9860  146.1500 C   0  0  0  0  0  3  0  0  0  0  0  0
  191.7560  177.1730  143.2350 C   0  0  0  0  0  3  0  0  0  0  0  0
  185.5100  178.3030  144.8530 C   0  0  0  0  0  0  0  0  0  0  0  0
  184.7840  178.4600  146.0380 C   0  0  0  0  0  3  0  0  0  0  0  0
  187.4960  177.8630  141.2470 N   0  0  0  0  0  0  0  0  0  0  0  0
  189.6100  177.5220  142.2790 C   0  0  0  0  0  0  0  0  0  0  0  0
  190.9440  177.2860  142.1520 N   0  0  0  0  0  0  0  0  0  0  0  0
  181.6050  178.8870  137.2060 C   0  0  0  0  0  0  0  0  0  0  0  0
  182.4530  179.9120  139.2240 C   0  0  0  0  0  3  0  0  0  0  0  0
  182.7410  176.2220  139.4770 O   0  0  0  0  0  1  0  0  0  0  0  0
  181.0530  179.0000  135.9740 F   0  0  0  0  0  0  0  0  0  0  0  0
  181.8830  180.0300  137.9540 C   0  0  0  0  0  3  0  0  0  0  0  0
  182.4670  177.4970  138.9970 C   0  0  0  0  0  0  0  0  0  0  0  0
  182.7520  178.6500  139.7630 C   0  0  0  0  0  0  0  0  0  0  0  0
  181.8960  177.6250  137.7260 C   0  0  0  0  0  3  0  0  0  0  0  0
  1 11  1  0  0  0  0
  2  7  1  0  0  0  0
  3  2  1  0  0  0  0
  3  9  1  0  0  0  0
  5 16  1  0  0  0  0
  5  4  2  0  0  0  0
  6  9  2  0  0  0  0
  6 13  1  0  0  0  0
  7 17  1  0  0  0  0
  8  1  1  0  0  0  0
 10 14  2  0  0  0  0
 12 21  2  0  0  0  0
 12 22  1  0  0  0  0
 14 19  1  0  0  0  0
 15 10  1  0  0  0  0
 15  2  2  0  0  0  0
 16 10  1  0  0  0  0
 17  1  2  0  0  0  0
 18  6  1  0  0  0  0
 19  7  2  0  0  0  0
 19 20  1  0  0  0  0
 20  8  2  0  0  0  0
 21 15  1  0  0  0  0
 22  3  2  0  0  0  0
 23 22  1  0  0  0  0
 23 18  2  0  0  0  0
 24 31  2  0  0  0  0
 24 28  1  0  0  0  0
 25 30  1  0  0  0  0
 27 24  1  0  0  0  0
 28 25  2  0  0  0  0
 29 26  1  0  0  0  0
 29 30  2  0  0  0  0
 30  5  1  0  0  0  0
 31 29  1  0  0  0  0
M  END
>  <MODEL>
5

>  <REMARK>
 VINA RESULT:     -10.7      3.898      6.554
  Name = 
  1 active torsions:
  status: ('A' for Active; 'I' for Inactive)
    1  A    between atoms: C_9  and  C_22
                            x       y       z     vdW  Elec       q    Type
                         _______ _______ _______ _____ _____    ______ ____

>  <TORSDO>
F 1

$$$$
=
 OpenBabel10272400263D

 31 35  0  0  0  0  0  0  0  0999 V2000
  185.5590  179.0180  142.9800 C   0  0  0  0  0  0  0  0  0  0  0  0
  188.9480  177.4150  143.3310 C   0  0  0  0  0  0  0  0  0  0  0  0
  189.2380  177.3440  144.7290 C   0  0  0  0  0  0  0  0  0  0  0  0
  189.6060  176.8460  138.1380 O   0  0  0  0  0  0  0  0  0  0  0  0
  190.6230  176.3880  138.7250 C   0  0  0  0  0  0  0  0  0  0  0  0
  188.6910  177.7200  147.0720 C   0  0  0  0  0  0  0  0  0  0  0  0
  187.7510  177.9600  142.7760 C   0  0  0  0  0  0  0  0  0  0  0  0
  185.4160  179.0190  141.5930 C   0  0  0  0  0  3  0  0  0  0  0  0
  188.3610  177.8120  145.7210 C   0  0  0  0  0  3  0  0  0  0  0  0
  189.7060  176.9400  141.0490 C   0  0  0  0  0  0  0  0  0  0  0  0
  184.5770  179.5260  143.7620 F   0  0  0  0  0  0  0  0  0  0  0  0
  191.3690  176.3000  144.2250 C   0  0  0  0  0  3  0  0  0  0  0  0
  187.8350  178.1750  148.0170 F   0  0  0  0  0  0  0  0  0  0  0  0
  188.5540  177.4670  140.5620 N   0  0  0  0  0  0  0  0  0  0  0  0
  189.9260  176.9030  142.4330 C   0  0  0  0  0  0  0  0  0  0  0  0
  190.7030  176.4210  140.1580 N   0  0  0  0  0  2  0  0  0  0  0  0
  186.7140  178.4940  143.5630 C   0  0  0  0  0  3  0  0  0  0  0  0
  189.9100  177.1550  147.4400 C   0  0  0  0  0  3  0  0  0  0  0  0
  187.5880  177.9690  141.3680 C   0  0  0  0  0  0  0  0  0  0  0  0
  186.4290  178.4940  140.7900 C   0  0  0  0  0  3  0  0  0  0  0  0
  191.0870  176.3710  142.9030 N   0  0  0  0  0  0  0  0  0  0  0  0
  190.4620  176.7800  145.1600 C   0  0  0  0  0  0  0  0  0  0  0  0
  190.7620  176.7010  146.4850 N   0  0  0  0  0  0  0  0  0  0  0  0
  193.9270  174.8110  136.4820 C   0  0  0  0  0  0  0  0  0  0  0  0
  192.9050  176.5850  137.7670 C   0  0  0  0  0  3  0  0  0  0  0  0
  190.5720  173.7110  137.5200 O   0  0  0  0  0  1  0  0  0  0  0  0
  194.9780  174.3280  135.7770 F   0  0  0  0  0  0  0  0  0  0  0  0
  193.9890  176.0880  137.0390 C   0  0  0  0  0  3  0  0  0  0  0  0
  191.6920  174.5210  137.3760 C   0  0  0  0  0  0  0  0  0  0  0  0
  191.7450  175.8140  137.9460 C   0  0  0  0  0  0  0  0  0  0  0  0
  192.7820  174.0310  136.6490 C   0  0  0  0  0  3  0  0  0  0  0  0
  1 17  1  0  0  0  0
  1 11  1  0  0  0  0
  2  3  1  0  0  0  0
  3 22  2  0  0  0  0
  3  9  1  0  0  0  0
  4  5  2  0  0  0  0
  5 16  1  0  0  0  0
  6 18  1  0  0  0  0
  6 13  1  0  0  0  0
  7  2  1  0  0  0  0
  7 17  2  0  0  0  0
  8  1  2  0  0  0  0
  9  6  2  0  0  0  0
 10 15  1  0  0  0  0
 12 22  1  0  0  0  0
 14 10  2  0  0  0  0
 14 19  1  0  0  0  0
 15 21  1  0  0  0  0
 15  2  2  0  0  0  0
 16 10  1  0  0  0  0
 19  7  1  0  0  0  0
 20 19  2  0  0  0  0
 20  8  1  0  0  0  0
 21 12  2  0  0  0  0
 22 23  1  0  0  0  0
 23 18  2  0  0  0  0
 24 31  2  0  0  0  0
 24 28  1  0  0  0  0
 25 30  1  0  0  0  0
 27 24  1  0  0  0  0
 28 25  2  0  0  0  0
 29 26  1  0  0  0  0
 29 30  2  0  0  0  0
 30  5  1  0  0  0  0
 31 29  1  0  0  0  0
M  END
>  <MODEL>
6

>  <REMARK>
 VINA RESULT:     -10.4      0.960      1.066
  Name = 
  1 active torsions:
  status: ('A' for Active; 'I' for Inactive)
    1  A    between atoms: C_9  and  C_22
                            x       y       z     vdW  Elec       q    Type
                         _______ _______ _______ _____ _____    ______ ____

>  <TORSDO>
F 1

$$$$
=
 OpenBabel10272400263D

 31 35  0  0  0  0  0  0  0  0999 V2000
  191.2520  176.4320  146.2450 C   0  0  0  0  0  0  0  0  0  0  0  0
  188.1530  177.5380  144.4140 C   0  0  0  0  0  0  0  0  0  0  0  0
  187.2020  177.9430  145.4010 C   0  0  0  0  0  0  0  0  0  0  0  0
  190.1880  176.5610  139.6570 O   0  0  0  0  0  0  0  0  0  0  0  0
  189.0160  177.0020  139.5110 C   0  0  0  0  0  0  0  0  0  0  0  0
  186.4990  178.3080  147.7040 C   0  0  0  0  0  0  0  0  0  0  0  0
  189.4630  177.0500  144.7000 C   0  0  0  0  0  0  0  0  0  0  0  0
  192.0710  176.0740  145.1740 C   0  0  0  0  0  3  0  0  0  0  0  0
  187.4610  177.9010  146.7810 C   0  0  0  0  0  3  0  0  0  0  0  0
  188.6430  177.2510  142.0300 C   0  0  0  0  0  0  0  0  0  0  0  0
  191.7070  176.3110  147.5150 F   0  0  0  0  0  0  0  0  0  0  0  0
  185.6160  178.4740  143.6440 C   0  0  0  0  0  3  0  0  0  0  0  0
  186.7630  178.2630  149.0310 F   0  0  0  0  0  0  0  0  0  0  0  0
  189.8800  176.7920  142.3440 N   0  0  0  0  0  0  0  0  0  0  0  0
  187.7590  177.6310  143.0490 C   0  0  0  0  0  0  0  0  0  0  0  0
  188.2290  177.3500  140.6600 N   0  0  0  0  0  2  0  0  0  0  0  0
  189.9630  176.9130  146.0080 C   0  0  0  0  0  3  0  0  0  0  0  0
  185.2630  178.7600  147.2480 C   0  0  0  0  0  3  0  0  0  0  0  0
  190.3100  176.6810  143.6240 C   0  0  0  0  0  0  0  0  0  0  0  0
  191.5990  176.1990  143.8670 C   0  0  0  0  0  3  0  0  0  0  0  0
  186.5220  178.0890  142.7150 N   0  0  0  0  0  0  0  0  0  0  0  0
  185.9300  178.4110  144.9950 C   0  0  0  0  0  0  0  0  0  0  0  0
  185.0070  178.8020  145.9150 N   0  0  0  0  0  0  0  0  0  0  0  0
  187.3190  177.3740  135.5840 C   0  0  0  0  0  0  0  0  0  0  0  0
  187.8580  176.0490  137.5330 C   0  0  0  0  0  3  0  0  0  0  0  0
  189.0140  179.5380  138.0310 O   0  0  0  0  0  1  0  0  0  0  0  0
  186.7790  177.4750  134.3460 F   0  0  0  0  0  0  0  0  0  0  0  0
  187.3010  176.1520  136.2550 C   0  0  0  0  0  3  0  0  0  0  0  0
  188.4530  178.3990  137.4670 C   0  0  0  0  0  0  0  0  0  0  0  0
  188.4400  177.1650  138.1550 C   0  0  0  0  0  0  0  0  0  0  0  0
  187.8940  178.4940  136.1880 C   0  0  0  0  0  3  0  0  0  0  0  0
  1 11  1  0  0  0  0
  2  7  1  0  0  0  0
  2  3  1  0  0  0  0
  3  9  1  0  0  0  0
  5  4  2  0  0  0  0
  5 16  1  0  0  0  0
  6 13  1  0  0  0  0
  7 17  2  0  0  0  0
  8  1  2  0  0  0  0
  9  6  2  0  0  0  0
 10 14  2  0  0  0  0
 10 15  1  0  0  0  0
 12 22  1  0  0  0  0
 14 19  1  0  0  0  0
 15  2  2  0  0  0  0
 16 10  1  0  0  0  0
 17  1  1  0  0  0  0
 18  6  1  0  0  0  0
 19 20  2  0  0  0  0
 19  7  1  0  0  0  0
 20  8  1  0  0  0  0
 21 15  1  0  0  0  0
 21 12  2  0  0  0  0
 22  3  2  0  0  0  0
 22 23  1  0  0  0  0
 23 18  2  0  0  0  0
 24 31  2  0  0  0  0
 24 28  1  0  0  0  0
 25 30  1  0  0  0  0
 27 24  1  0  0  0  0
 28 25  2  0  0  0  0
 29 26  1  0  0  0  0
 29 30  2  0  0  0  0
 30  5  1  0  0  0  0
 31 29  1  0  0  0  0
M  END
>  <MODEL>
7

>  <REMARK>
 VINA RESULT:     -10.2      2.831      4.717
  Name = 
  1 active torsions:
  status: ('A' for Active; 'I' for Inactive)
    1  A    between atoms: C_9  and  C_22
                            x       y       z     vdW  Elec       q    Type
                         _______ _______ _______ _____ _____    ______ ____

>  <TORSDO>
F 1

$$$$
=
 OpenBabel10272400263D

 31 35  0  0  0  0  0  0  0  0999 V2000
  188.0700  177.5620  147.2790 C   0  0  0  0  0  0  0  0  0  0  0  0
  186.9890  177.9390  143.6920 C   0  0  0  0  0  0  0  0  0  0  0  0
  185.6230  178.3620  143.7050 C   0  0  0  0  0  0  0  0  0  0  0  0
  191.6740  176.5090  141.7610 O   0  0  0  0  0  0  0  0  0  0  0  0
  190.9010  176.7600  140.7970 C   0  0  0  0  0  0  0  0  0  0  0  0
  183.5650  178.9870  144.8470 C   0  0  0  0  0  0  0  0  0  0  0  0
  187.7710  177.6830  144.8570 C   0  0  0  0  0  0  0  0  0  0  0  0
  189.3930  177.1540  147.1090 C   0  0  0  0  0  3  0  0  0  0  0  0
  184.8960  178.5730  144.8870 C   0  0  0  0  0  3  0  0  0  0  0  0
  188.9430  177.3490  142.3360 C   0  0  0  0  0  0  0  0  0  0  0  0
  187.5610  177.7050  148.5260 F   0  0  0  0  0  0  0  0  0  0  0  0
  185.6170  178.3920  141.2790 C   0  0  0  0  0  3  0  0  0  0  0  0
  182.8760  179.1870  145.9950 F   0  0  0  0  0  0  0  0  0  0  0  0
  189.6530  177.1160  143.4680 N   0  0  0  0  0  0  0  0  0  0  0  0
  187.6060  177.7620  142.4220 C   0  0  0  0  0  0  0  0  0  0  0  0
  189.5500  177.1750  141.0470 N   0  0  0  0  0  2  0  0  0  0  0  0
  187.2700  177.8220  146.1640 C   0  0  0  0  0  3  0  0  0  0  0  0
  182.9510  179.1910  143.6130 C   0  0  0  0  0  3  0  0  0  0  0  0
  189.1180  177.2670  144.7030 C   0  0  0  0  0  0  0  0  0  0  0  0
  189.9140  177.0080  145.8230 C   0  0  0  0  0  3  0  0  0  0  0  0
  186.9100  177.9910  141.2760 N   0  0  0  0  0  0  0  0  0  0  0  0
  184.9490  178.5850  142.4810 C   0  0  0  0  0  0  0  0  0  0  0  0
  183.6500  178.9880  142.4670 N   0  0  0  0  0  0  0  0  0  0  0  0
  192.1840  176.3540  136.7190 C   0  0  0  0  0  0  0  0  0  0  0  0
  190.4550  176.2630  138.4060 C   0  0  0  0  0  3  0  0  0  0  0  0
  193.6800  177.2220  139.9680 O   0  0  0  0  0  1  0  0  0  0  0  0
  192.5720  176.2230  135.4290 F   0  0  0  0  0  0  0  0  0  0  0  0
  190.8540  176.1260  137.0750 C   0  0  0  0  0  3  0  0  0  0  0  0
  192.7220  176.8570  139.0300 C   0  0  0  0  0  0  0  0  0  0  0  0
  191.3770  176.6290  139.4000 C   0  0  0  0  0  0  0  0  0  0  0  0
  193.1140  176.7180  137.6940 C   0  0  0  0  0  3  0  0  0  0  0  0
  1 11  1  0  0  0  0
  2  3  1  0  0  0  0
  2  7  1  0  0  0  0
  3  9  1  0  0  0  0
  5 16  1  0  0  0  0
  5  4  2  0  0  0  0
  6  9  2  0  0  0  0
  6 13  1  0  0  0  0
  7 17  1  0  0  0  0
  8  1  1  0  0  0  0
 10 15  1  0  0  0  0
 10 14  2  0  0  0  0
 12 22  1  0  0  0  0
 14 19  1  0  0  0  0
 15  2  2  0  0  0  0
 16 10  1  0  0  0  0
 17  1  2  0  0  0  0
 18  6  1  0  0  0  0
 19  7  2  0  0  0  0
 19 20  1  0  0  0  0
 20  8  2  0  0  0  0
 21 12  2  0  0  0  0
 21 15  1  0  0  0  0
 22  3  2  0  0  0  0
 23 22  1  0  0  0  0
 23 18  2  0  0  0  0
 24 28  2  0  0  0  0
 24 31  1  0  0  0  0
 25 30  2  0  0  0  0
 27 24  1  0  0  0  0
 28 25  1  0  0  0  0
 29 30  1  0  0  0  0
 29 26  1  0  0  0  0
 30  5  1  0  0  0  0
 31 29  2  0  0  0  0
M  END
>  <MODEL>
8

>  <REMARK>
 VINA RESULT:     -10.2      1.874      4.561
  Name = 
  1 active torsions:
  status: ('A' for Active; 'I' for Inactive)
    1  A    between atoms: C_9  and  C_22
                            x       y       z     vdW  Elec       q    Type
                         _______ _______ _______ _____ _____    ______ ____

>  <TORSDO>
F 1

$$$$
=
 OpenBabel10272400263D

 31 35  0  0  0  0  0  0  0  0999 V2000
  190.8350  176.9220  142.7960 C   0  0  0  0  0  0  0  0  0  0  0  0
  187.3470  178.0180  143.6910 C   0  0  0  0  0  0  0  0  0  0  0  0
  187.2590  178.0200  145.1180 C   0  0  0  0  0  0  0  0  0  0  0  0
  185.8580  178.5860  138.6730 O   0  0  0  0  0  0  0  0  0  0  0  0
  184.8840  178.8820  139.4180 C   0  0  0  0  0  0  0  0  0  0  0  0
  188.1920  177.6820  147.3420 C   0  0  0  0  0  0  0  0  0  0  0  0
  188.5120  177.6600  142.9500 C   0  0  0  0  0  0  0  0  0  0  0  0
  190.7720  176.9680  141.4030 C   0  0  0  0  0  3  0  0  0  0  0  0
  188.3280  177.6630  145.9550 C   0  0  0  0  0  3  0  0  0  0  0  0
  186.2020  178.4230  141.5620 C   0  0  0  0  0  0  0  0  0  0  0  0
  191.9830  176.5450  143.4080 F   0  0  0  0  0  0  0  0  0  0  0  0
  184.9530  178.7590  144.9670 C   0  0  0  0  0  3  0  0  0  0  0  0
  189.2320  177.3360  148.1360 F   0  0  0  0  0  0  0  0  0  0  0  0
  187.3310  178.0750  140.8950 N   0  0  0  0  0  0  0  0  0  0  0  0
  186.1850  178.4020  142.9640 C   0  0  0  0  0  0  0  0  0  0  0  0
  185.0220  178.8120  140.8450 N   0  0  0  0  0  2  0  0  0  0  0  0
  189.7170  177.2640  143.5580 C   0  0  0  0  0  3  0  0  0  0  0  0
  186.9740  178.0600  147.9030 C   0  0  0  0  0  3  0  0  0  0  0  0
  188.4650  177.7010  141.5330 C   0  0  0  0  0  0  0  0  0  0  0  0
  189.5880  177.3580  140.7750 C   0  0  0  0  0  3  0  0  0  0  0  0
  185.0440  178.7540  143.6160 N   0  0  0  0  0  0  0  0  0  0  0  0
  186.0460  178.3960  145.7430 C   0  0  0  0  0  0  0  0  0  0  0  0
  185.9360  178.4060  147.0980 N   0  0  0  0  0  0  0  0  0  0  0  0
  181.1550  180.2040  137.7500 C   0  0  0  0  0  0  0  0  0  0  0  0
  183.1920  180.6430  138.9740 C   0  0  0  0  0  3  0  0  0  0  0  0
  183.0880  177.0780  137.9550 O   0  0  0  0  0  1  0  0  0  0  0  0
  179.9820  180.6370  137.2290 F   0  0  0  0  0  0  0  0  0  0  0  0
  181.9820  181.0910  138.4390 C   0  0  0  0  0  3  0  0  0  0  0  0
  182.7460  178.4140  138.1300 C   0  0  0  0  0  0  0  0  0  0  0  0
  183.5920  179.3050  138.8300 C   0  0  0  0  0  0  0  0  0  0  0  0
  181.5360  178.8700  137.5970 C   0  0  0  0  0  3  0  0  0  0  0  0
  1 11  1  0  0  0  0
  1 17  1  0  0  0  0
  2  3  1  0  0  0  0
  3 22  2  0  0  0  0
  3  9  1  0  0  0  0
  4  5  2  0  0  0  0
  5 16  1  0  0  0  0
  6 18  1  0  0  0  0
  6 13  1  0  0  0  0
  7 17  2  0  0  0  0
  7  2  1  0  0  0  0
  8  1  2  0  0  0  0
  9  6  2  0  0  0  0
 10 15  1  0  0  0  0
 12 22  1  0  0  0  0
 14 19  1  0  0  0  0
 14 10  2  0  0  0  0
 15 21  1  0  0  0  0
 15  2  2  0  0  0  0
 16 10  1  0  0  0  0
 19  7  1  0  0  0  0
 20  8  1  0  0  0  0
 20 19  2  0  0  0  0
 21 12  2  0  0  0  0
 22 23  1  0  0  0  0
 23 18  2  0  0  0  0
 24 28  1  0  0  0  0
 26 29  1  0  0  0  0
 27 24  1  0  0  0  0
 28 25  2  0  0  0  0
 29 30  2  0  0  0  0
 30 25  1  0  0  0  0
 30  5  1  0  0  0  0
 31 24  2  0  0  0  0
 31 29  1  0  0  0  0
M  END
>  <MODEL>
9

>  <REMARK>
 VINA RESULT:     -10.0      3.927      6.814
  Name = 
  1 active torsions:
  status: ('A' for Active; 'I' for Inactive)
    1  A    between atoms: C_9  and  C_22
                            x       y       z     vdW  Elec       q    Type
                         _______ _______ _______ _____ _____    ______ ____

>  <TORSDO>
F 1

$$$$
