=
 OpenBabel10272401533D

 28 31  0  0  1  0  0  0  0  0999 V2000
  190.4270  176.7640  144.2130 C   0  0  1  0  0  3  0  0  0  0  0  0
  185.6080  178.1040  142.8630 C   0  0  0  0  0  3  0  0  0  0  0  0
  188.1190  177.7200  148.5790 C   0  0  0  0  0  1  0  0  0  0  0  0
  184.5160  178.5530  144.9860 C   0  0  0  0  0  0  0  0  0  0  0  0
  186.8620  177.8690  144.9650 C   0  0  0  0  0  0  0  0  0  0  0  0
  183.2850  178.7830  142.9120 C   0  0  0  0  0  0  0  0  0  0  0  0
  185.6730  178.1720  144.2650 C   0  0  0  0  0  0  0  0  0  0  0  0
  185.7220  178.3300  147.0690 C   0  0  0  0  0  3  0  0  0  0  0  0
  183.3320  178.8560  144.3060 C   0  0  0  0  0  3  0  0  0  0  0  0
  189.2260  177.2770  146.3790 C   0  0  0  0  0  0  0  0  0  0  0  0
  188.0250  177.4870  144.2820 C   0  0  0  0  0  3  0  0  0  0  0  0
  184.5490  178.6290  146.3770 C   0  0  0  0  0  3  0  0  0  0  0  0
  191.6610  176.8540  146.4170 C   0  0  0  0  0  2  0  0  0  0  0  0
  188.0700  177.6470  147.0840 C   0  0  0  0  0  0  0  0  0  0  0  0
  190.4020  176.9650  147.0750 O   0  0  0  0  0  0  0  0  0  0  0  0
  182.1080  179.0850  142.2430 O   0  0  0  0  0  1  0  0  0  0  0  0
  184.4210  178.4090  142.1910 C   0  0  0  0  0  3  0  0  0  0  0  0
  186.8850  177.9490  146.3820 C   0  0  0  0  0  0  0  0  0  0  0  0
  191.5080  176.1170  145.0930 C   0  0  0  0  0  2  0  0  0  0  0  0
  189.2000  177.1970  144.9750 C   0  0  0  0  0  0  0  0  0  0  0  0
  190.9380  177.7960  143.1880 C   0  0  2  0  0  3  0  0  0  0  0  0
  191.2160  179.1620  143.7920 C   0  0  0  0  0  1  0  0  0  0  0  0
  190.2420  177.8540  141.8190 C   0  0  0  0  0  2  0  0  0  0  0  0
  190.2970  176.5860  139.6380 C   0  0  0  0  0  0  0  0  0  0  0  0
  192.4140  177.3550  140.7090 C   0  0  0  0  0  1  0  0  0  0  0  0
  190.9740  177.1620  140.7640 N   0  0  0  0  0  0  0  0  0  0  0  0
  188.9330  176.7800  139.4580 O   0  0  0  0  0  1  0  0  0  0  0  0
  190.9390  175.9120  138.7880 O   0  0  0  0  0  0  0  0  0  0  0  0
  1 21  1  1  0  0  0
  1 20  1  0  0  0  0
  1 19  1  0  0  0  0
  2  7  1  0  0  0  0
  4 12  1  0  0  0  0
  5 18  1  0  0  0  0
  6  9  2  0  0  0  0
  7  5  1  0  0  0  0
  7  4  2  0  0  0  0
  9  4  1  0  0  0  0
 10 15  1  0  0  0  0
 10 14  1  0  0  0  0
 11  5  2  0  0  0  0
 11 20  1  0  0  0  0
 12  8  2  0  0  0  0
 13 15  1  0  0  0  0
 14  3  1  0  0  0  0
 16  6  1  0  0  0  0
 17  2  2  0  0  0  0
 17  6  1  0  0  0  0
 18  8  1  0  0  0  0
 18 14  2  0  0  0  0
 19 13  1  0  0  0  0
 20 10  2  0  0  0  0
 21 22  1  1  0  0  0
 23 21  1  0  0  0  0
 24 26  1  0  0  0  0
 25 26  1  0  0  0  0
 26 23  1  0  0  0  0
 27 24  1  0  0  0  0
 28 24  2  0  0  0  0
M  END
>  <MODEL>
1

>  <REMARK>
 VINA RESULT:     -12.0      0.000      0.000
  Name = 
  3 active torsions:
  status: ('A' for Active; 'I' for Inactive)
    1  A    between atoms: C_1  and  C_2
    2  A    between atoms: C_2  and  C_3
    3  A    between atoms: C_3  and  N_11
                            x       y       z     vdW  Elec       q    Type
                         _______ _______ _______ _____ _____    ______ ____

>  <TORSDO>
F 3

$$$$
=
 OpenBabel10272401533D

 28 31  0  0  1  0  0  0  0  0999 V2000
  190.0680  176.2450  143.3900 C   0  0  1  0  0  3  0  0  0  0  0  0
  185.1970  177.9840  143.0960 C   0  0  0  0  0  3  0  0  0  0  0  0
  188.9960  177.7730  148.0610 C   0  0  0  0  0  1  0  0  0  0  0  0
  184.7020  178.7080  145.3620 C   0  0  0  0  0  0  0  0  0  0  0  0
  186.9050  177.7790  144.8530 C   0  0  0  0  0  0  0  0  0  0  0  0
  183.0240  178.9090  143.6270 C   0  0  0  0  0  0  0  0  0  0  0  0
  185.6100  178.1510  144.4280 C   0  0  0  0  0  0  0  0  0  0  0  0
  186.3610  178.5180  147.1110 C   0  0  0  0  0  3  0  0  0  0  0  0
  183.4180  179.0820  144.9560 C   0  0  0  0  0  3  0  0  0  0  0  0
  189.4850  177.0470  145.7170 C   0  0  0  0  0  0  0  0  0  0  0  0
  187.8270  177.2230  143.9550 C   0  0  0  0  0  3  0  0  0  0  0  0
  185.0840  178.8860  146.6910 C   0  0  0  0  0  3  0  0  0  0  0  0
  191.8100  176.3710  145.2180 C   0  0  0  0  0  2  0  0  0  0  0  0
  188.5740  177.5920  146.6350 C   0  0  0  0  0  0  0  0  0  0  0  0
  190.7650  176.6660  146.1410 O   0  0  0  0  0  0  0  0  0  0  0  0
  181.7470  179.2820  143.2300 O   0  0  0  0  0  1  0  0  0  0  0  0
  183.9110  178.3610  142.6980 C   0  0  0  0  0  3  0  0  0  0  0  0
  187.2830  177.9640  146.2080 C   0  0  0  0  0  0  0  0  0  0  0  0
  191.2730  175.5560  144.0480 C   0  0  0  0  0  2  0  0  0  0  0  0
  189.1080  176.8630  144.3740 C   0  0  0  0  0  0  0  0  0  0  0  0
  190.3970  177.1350  142.1750 C   0  0  2  0  0  3  0  0  0  0  0  0
  190.3820  178.6200  142.4920 C   0  0  0  0  0  1  0  0  0  0  0  0
  189.7440  176.7820  140.8290 C   0  0  0  0  0  2  0  0  0  0  0  0
  189.4860  178.3160  138.8430 C   0  0  0  0  0  0  0  0  0  0  0  0
  187.8870  178.4380  140.7520 C   0  0  0  0  0  1  0  0  0  0  0  0
  189.1150  177.9220  140.1700 N   0  0  0  0  0  0  0  0  0  0  0  0
  190.3690  177.5450  138.0970 O   0  0  0  0  0  0  0  0  0  0  0  0
  188.9990  179.3590  138.3300 O   0  0  0  0  0  1  0  0  0  0  0  0
  1 21  1  6  0  0  0
  1 19  1  0  0  0  0
  1 20  1  0  0  0  0
  2  7  1  0  0  0  0
  4 12  1  0  0  0  0
  5 18  1  0  0  0  0
  6  9  2  0  0  0  0
  7  5  1  0  0  0  0
  7  4  2  0  0  0  0
  9  4  1  0  0  0  0
 10 15  1  0  0  0  0
 10 14  1  0  0  0  0
 11 20  1  0  0  0  0
 11  5  2  0  0  0  0
 12  8  2  0  0  0  0
 13 15  1  0  0  0  0
 14  3  1  0  0  0  0
 16  6  1  0  0  0  0
 17  2  2  0  0  0  0
 17  6  1  0  0  0  0
 18 14  2  0  0  0  0
 18  8  1  0  0  0  0
 19 13  1  0  0  0  0
 20 10  2  0  0  0  0
 21 22  1  1  0  0  0
 23 21  1  0  0  0  0
 24 26  1  0  0  0  0
 26 25  1  0  0  0  0
 26 23  1  0  0  0  0
 27 24  2  0  0  0  0
 28 24  1  0  0  0  0
M  END
>  <MODEL>
2

>  <REMARK>
 VINA RESULT:     -11.2      1.216      1.580
  Name = 
  3 active torsions:
  status: ('A' for Active; 'I' for Inactive)
    1  A    between atoms: C_1  and  C_2
    2  A    between atoms: C_2  and  C_3
    3  A    between atoms: C_3  and  N_11
                            x       y       z     vdW  Elec       q    Type
                         _______ _______ _______ _____ _____    ______ ____

>  <TORSDO>
F 3

$$$$
=
 OpenBabel10272401533D

 28 31  0  0  1  0  0  0  0  0999 V2000
  189.6500  176.4270  142.6740 C   0  0  1  0  0  3  0  0  0  0  0  0
  184.7690  178.1610  142.7810 C   0  0  0  0  0  3  0  0  0  0  0  0
  188.8260  177.5630  147.5050 C   0  0  0  0  0  1  0  0  0  0  0  0
  184.3950  178.6940  145.1210 C   0  0  0  0  0  0  0  0  0  0  0  0
  186.5680  177.8200  144.4230 C   0  0  0  0  0  0  0  0  0  0  0  0
  182.6270  179.0280  143.5000 C   0  0  0  0  0  0  0  0  0  0  0  0
  185.2520  178.2210  144.0990 C   0  0  0  0  0  0  0  0  0  0  0  0
  186.1440  178.3700  146.7590 C   0  0  0  0  0  3  0  0  0  0  0  0
  183.0910  179.0940  144.8160 C   0  0  0  0  0  3  0  0  0  0  0  0
  189.1910  177.0340  145.0860 C   0  0  0  0  0  0  0  0  0  0  0  0
  187.4420  177.3450  143.4350 C   0  0  0  0  0  3  0  0  0  0  0  0
  184.8460  178.7650  146.4390 C   0  0  0  0  0  3  0  0  0  0  0  0
  191.4860  176.4120  144.4120 C   0  0  0  0  0  2  0  0  0  0  0  0
  188.3290  177.4960  146.0930 C   0  0  0  0  0  0  0  0  0  0  0  0
  190.4920  176.6250  145.4100 O   0  0  0  0  0  0  0  0  0  0  0  0
  181.3310  179.4260  143.2020 O   0  0  0  0  0  1  0  0  0  0  0  0
  183.4640  178.5630  142.4840 C   0  0  0  0  0  3  0  0  0  0  0  0
  187.0170  177.8960  145.7670 C   0  0  0  0  0  0  0  0  0  0  0  0
  190.8890  175.6930  143.2090 C   0  0  0  0  0  2  0  0  0  0  0  0
  188.7430  176.9580  143.7550 C   0  0  0  0  0  0  0  0  0  0  0  0
  189.9140  177.4160  141.5210 C   0  0  2  0  0  3  0  0  0  0  0  0
  189.0390  178.6570  141.5750 C   0  0  0  0  0  1  0  0  0  0  0  0
  190.0830  176.8390  140.1060 C   0  0  0  0  0  2  0  0  0  0  0  0
  191.7810  176.5720  138.2590 C   0  0  0  0  0  0  0  0  0  0  0  0
  192.4440  177.5460  140.4570 C   0  0  0  0  0  1  0  0  0  0  0  0
  191.4590  176.8780  139.6220 N   0  0  0  0  0  0  0  0  0  0  0  0
  190.7740  176.3520  137.3270 O   0  0  0  0  0  0  0  0  0  0  0  0
  192.9840  176.5190  137.8870 O   0  0  0  0  0  1  0  0  0  0  0  0
  1 21  1  1  0  0  0
  1 19  1  0  0  0  0
  1 20  1  0  0  0  0
  2  7  1  0  0  0  0
  4 12  1  0  0  0  0
  5 18  1  0  0  0  0
  6  9  2  0  0  0  0
  7  5  1  0  0  0  0
  7  4  2  0  0  0  0
  9  4  1  0  0  0  0
 10 15  1  0  0  0  0
 10 14  1  0  0  0  0
 11 20  1  0  0  0  0
 11  5  2  0  0  0  0
 12  8  2  0  0  0  0
 13 15  1  0  0  0  0
 14  3  1  0  0  0  0
 16  6  1  0  0  0  0
 17  2  2  0  0  0  0
 17  6  1  0  0  0  0
 18 14  2  0  0  0  0
 18  8  1  0  0  0  0
 19 13  1  0  0  0  0
 20 10  2  0  0  0  0
 21 22  1  6  0  0  0
 23 21  1  0  0  0  0
 24 26  1  0  0  0  0
 26 23  1  0  0  0  0
 26 25  1  0  0  0  0
 27 24  2  0  0  0  0
 28 24  1  0  0  0  0
M  END
>  <MODEL>
3

>  <REMARK>
 VINA RESULT:     -10.7      1.240      1.522
  Name = 
  3 active torsions:
  status: ('A' for Active; 'I' for Inactive)
    1  A    between atoms: C_1  and  C_2
    2  A    between atoms: C_2  and  C_3
    3  A    between atoms: C_3  and  N_11
                            x       y       z     vdW  Elec       q    Type
                         _______ _______ _______ _____ _____    ______ ____

>  <TORSDO>
F 3

$$$$
=
 OpenBabel10272401533D

 28 31  0  0  1  0  0  0  0  0999 V2000
  188.9900  178.1110  139.2520 C   0  0  1  0  0  3  0  0  0  0  0  0
  190.8240  177.1990  144.0100 C   0  0  0  0  0  3  0  0  0  0  0  0
  184.9890  178.6210  142.2590 C   0  0  0  0  0  1  0  0  0  0  0  0
  188.8770  177.4580  145.4410 C   0  0  0  0  0  0  0  0  0  0  0  0
  188.6420  177.7630  143.0270 C   0  0  0  0  0  0  0  0  0  0  0  0
  191.0290  176.9020  146.4040 C   0  0  0  0  0  0  0  0  0  0  0  0
  189.4530  177.4740  144.1470 C   0  0  0  0  0  0  0  0  0  0  0  0
  186.7180  178.0130  144.5030 C   0  0  0  0  0  3  0  0  0  0  0  0
  189.6670  177.1730  146.5580 C   0  0  0  0  0  3  0  0  0  0  0  0
  187.0060  178.3350  140.8050 C   0  0  0  0  0  0  0  0  0  0  0  0
  189.1800  177.7890  141.7330 C   0  0  0  0  0  3  0  0  0  0  0  0
  187.5190  177.7270  145.6080 C   0  0  0  0  0  3  0  0  0  0  0  0
  186.6410  178.3930  138.3610 C   0  0  0  0  0  2  0  0  0  0  0  0
  186.4490  178.3260  142.0930 C   0  0  0  0  0  0  0  0  0  0  0  0
  186.2040  178.6340  139.6960 O   0  0  0  0  0  0  0  0  0  0  0  0
  191.8090  176.6200  147.5170 O   0  0  0  0  0  1  0  0  0  0  0  0
  191.6070  176.9150  145.1320 C   0  0  0  0  0  3  0  0  0  0  0  0
  187.2610  178.0350  143.2090 C   0  0  0  0  0  0  0  0  0  0  0  0
  188.1020  178.7900  138.1980 C   0  0  0  0  0  2  0  0  0  0  0  0
  188.3760  178.0660  140.6280 C   0  0  0  0  0  0  0  0  0  0  0  0
  189.6540  176.7940  138.8070 C   0  0  2  0  0  3  0  0  0  0  0  0
  190.9970  176.5390  139.4700 C   0  0  0  0  0  1  0  0  0  0  0  0
  189.6270  176.4460  137.3100 C   0  0  0  0  0  2  0  0  0  0  0  0
  189.5980  173.9450  136.9760 C   0  0  0  0  0  0  0  0  0  0  0  0
  187.4650  175.2320  137.0830 C   0  0  0  0  0  1  0  0  0  0  0  0
  188.9170  175.2060  137.0130 N   0  0  0  0  0  0  0  0  0  0  0  0
  190.9340  173.8520  137.3460 O   0  0  0  0  0  1  0  0  0  0  0  0
  188.9840  172.9020  136.6250 O   0  0  0  0  0  0  0  0  0  0  0  0
  1 21  1  6  0  0  0
  1 20  1  0  0  0  0
  2  7  2  0  0  0  0
  2 17  1  0  0  0  0
  4 12  1  0  0  0  0
  4  9  2  0  0  0  0
  5 18  1  0  0  0  0
  5  7  1  0  0  0  0
  6  9  1  0  0  0  0
  6 16  1  0  0  0  0
  7  4  1  0  0  0  0
  8 12  2  0  0  0  0
 10 14  1  0  0  0  0
 11  5  2  0  0  0  0
 13 15  1  0  0  0  0
 14  3  1  0  0  0  0
 14 18  2  0  0  0  0
 15 10  1  0  0  0  0
 17  6  2  0  0  0  0
 18  8  1  0  0  0  0
 19 13  1  0  0  0  0
 19  1  1  0  0  0  0
 20 10  2  0  0  0  0
 20 11  1  0  0  0  0
 21 22  1  6  0  0  0
 23 21  1  0  0  0  0
 24 26  1  0  0  0  0
 24 27  1  0  0  0  0
 26 25  1  0  0  0  0
 26 23  1  0  0  0  0
 28 24  2  0  0  0  0
M  END
>  <MODEL>
4

>  <REMARK>
 VINA RESULT:      -9.4      2.346      5.987
  Name = 
  3 active torsions:
  status: ('A' for Active; 'I' for Inactive)
    1  A    between atoms: C_1  and  C_2
    2  A    between atoms: C_2  and  C_3
    3  A    between atoms: C_3  and  N_11
                            x       y       z     vdW  Elec       q    Type
                         _______ _______ _______ _____ _____    ______ ____

>  <TORSDO>
F 3

$$$$
=
 OpenBabel10272401533D

 28 31  0  0  1  0  0  0  0  0999 V2000
  184.6080  179.0650  139.5440 C   0  0  1  0  0  3  0  0  0  0  0  0
  188.6810  177.7820  142.4760 C   0  0  0  0  0  3  0  0  0  0  0  0
  182.7560  178.7880  144.2130 C   0  0  0  0  0  1  0  0  0  0  0  0
  187.7630  177.6620  144.7230 C   0  0  0  0  0  0  0  0  0  0  0  0
  186.2930  178.2300  142.8540 C   0  0  0  0  0  0  0  0  0  0  0  0
  190.1150  177.2220  144.3440 C   0  0  0  0  0  0  0  0  0  0  0  0
  187.5770  177.8940  143.3380 C   0  0  0  0  0  0  0  0  0  0  0  0
  185.4190  178.0980  145.1260 C   0  0  0  0  0  3  0  0  0  0  0  0
  189.0280  177.3280  145.2150 C   0  0  0  0  0  3  0  0  0  0  0  0
  183.7230  178.8920  141.9070 C   0  0  0  0  0  0  0  0  0  0  0  0
  186.0750  178.4670  141.4900 C   0  0  0  0  0  3  0  0  0  0  0  0
  186.6870  177.7650  145.6020 C   0  0  0  0  0  3  0  0  0  0  0  0
  182.1330  179.2050  140.0410 C   0  0  0  0  0  2  0  0  0  0  0  0
  183.9220  178.6690  143.2790 C   0  0  0  0  0  0  0  0  0  0  0  0
  182.4520  179.2380  141.4300 O   0  0  0  0  0  0  0  0  0  0  0  0
  191.3680  176.8900  144.8390 O   0  0  0  0  0  1  0  0  0  0  0  0
  189.9420  177.4480  142.9770 C   0  0  0  0  0  3  0  0  0  0  0  0
  185.2040  178.3330  143.7580 C   0  0  0  0  0  0  0  0  0  0  0  0
  183.2820  179.7700  139.2170 C   0  0  0  0  0  2  0  0  0  0  0  0
  184.8050  178.7910  141.0130 C   0  0  0  0  0  0  0  0  0  0  0  0
  184.9760  177.8870  138.6200 C   0  0  2  0  0  3  0  0  0  0  0  0
  186.3350  178.0380  137.9590 C   0  0  0  0  0  1  0  0  0  0  0  0
  183.8870  177.3440  137.6810 C   0  0  0  0  0  2  0  0  0  0  0  0
  184.1070  174.8480  137.3880 C   0  0  0  0  0  0  0  0  0  0  0  0
  182.6400  175.7880  139.1720 C   0  0  0  0  0  1  0  0  0  0  0  0
  183.4730  175.9810  137.9960 N   0  0  0  0  0  0  0  0  0  0  0  0
  185.2220  175.0130  136.5750 O   0  0  0  0  0  0  0  0  0  0  0  0
  183.6710  173.6850  137.6030 O   0  0  0  0  0  1  0  0  0  0  0  0
  1 21  1  6  0  0  0
  1 20  1  0  0  0  0
  2 17  2  0  0  0  0
  2  7  1  0  0  0  0
  4  9  1  0  0  0  0
  4 12  1  0  0  0  0
  5  7  1  0  0  0  0
  5 18  1  0  0  0  0
  6 16  1  0  0  0  0
  6  9  2  0  0  0  0
  7  4  2  0  0  0  0
  8 12  2  0  0  0  0
 10 14  1  0  0  0  0
 11  5  2  0  0  0  0
 13 15  1  0  0  0  0
 14 18  2  0  0  0  0
 14  3  1  0  0  0  0
 15 10  1  0  0  0  0
 17  6  1  0  0  0  0
 18  8  1  0  0  0  0
 19  1  1  0  0  0  0
 19 13  1  0  0  0  0
 20 11  1  0  0  0  0
 20 10  2  0  0  0  0
 21 22  1  6  0  0  0
 23 26  1  0  0  0  0
 23 21  1  0  0  0  0
 24 28  1  0  0  0  0
 24 26  1  0  0  0  0
 26 25  1  0  0  0  0
 27 24  2  0  0  0  0
M  END
>  <MODEL>
5

>  <REMARK>
 VINA RESULT:      -9.0      3.228      6.904
  Name = 
  3 active torsions:
  status: ('A' for Active; 'I' for Inactive)
    1  A    between atoms: C_1  and  C_2
    2  A    between atoms: C_2  and  C_3
    3  A    between atoms: C_3  and  N_11
                            x       y       z     vdW  Elec       q    Type
                         _______ _______ _______ _____ _____    ______ ____

>  <TORSDO>
F 3

$$$$
