=
 OpenBabel10272401583D

 28 31  0  0  1  0  0  0  0  0999 V2000
  187.8120  177.5790  146.7580 C   0  0  0  0  0  0  0  0  0  0  0  0
  188.8930  177.2050  142.0300 C   0  0  0  0  0  2  0  0  0  0  0  0
  184.0170  179.3630  144.3950 O   0  0  0  0  0  0  0  0  0  0  0  0
  187.1460  178.9240  141.4320 C   0  0  2  0  0  3  0  0  0  0  0  0
  186.6830  177.0950  143.1640 C   0  0  1  0  0  3  0  0  0  0  0  0
  188.5940  178.3850  139.7930 C   0  0  2  0  0  3  0  0  0  0  0  0
  187.7260  178.0510  142.5630 C   0  0  1  0  0  3  0  0  0  0  0  0
  185.7120  179.3620  141.7110 C   0  0  0  0  0  2  0  0  0  0  0  0
  187.2490  178.2570  140.2020 O   0  0  0  0  0  0  0  0  0  0  0  0
  185.9160  178.5500  145.5700 C   0  0  0  0  0  0  0  0  0  0  0  0
  187.1190  176.5760  144.5380 C   0  0  0  0  0  2  0  0  0  0  0  0
  184.8830  178.2540  141.9770 O   0  0  0  0  0  0  0  0  0  0  0  0
  186.5610  179.4100  147.7460 C   0  0  0  0  0  3  0  0  0  0  0  0
  185.0200  178.5990  144.3980 C   0  0  0  0  0  0  0  0  0  0  0  0
  185.7260  179.4470  146.6290 C   0  0  0  0  0  3  0  0  0  0  0  0
  188.7950  177.6490  138.4850 C   0  0  0  0  0  1  0  0  0  0  0  0
  189.5990  177.8600  140.8390 C   0  0  0  0  0  2  0  0  0  0  0  0
  185.2620  177.6880  143.2170 C   0  0  2  0  0  3  0  0  0  0  0  0
  187.5940  178.4760  147.8130 C   0  0  0  0  0  3  0  0  0  0  0  0
  186.9680  177.6110  145.6270 C   0  0  0  0  0  0  0  0  0  0  0  0
  188.9130  176.5640  146.8790 C   0  0  0  0  0  2  0  0  0  0  0  0
  190.1620  177.1550  147.4720 C   0  0  0  0  0  3  0  0  0  0  0  0
  191.3870  176.9660  146.9700 C   0  0  0  0  0  3  0  0  0  0  0  0
  191.6440  176.1210  145.7620 C   0  0  0  0  0  2  0  0  0  0  0  0
  191.1070  176.7970  144.5150 C   0  0  0  0  0  2  0  0  0  0  0  0
  191.9540  178.0100  144.1700 C   0  0  0  0  0  2  0  0  0  0  0  0
  189.8830  179.0310  144.7380 F   0  0  0  0  0  0  0  0  0  0  0  0
  191.0800  179.2450  144.0760 C   0  0  0  0  0  2  0  0  0  0  0  0
  1 21  1  0  0  0  0
  1 19  1  0  0  0  0
  3 14  2  0  0  0  0
  4  8  1  1  0  0  0
  4  7  1  0  0  0  0
  5 18  1  0  0  0  0
  5 11  1  1  0  0  0
  6 16  1  6  0  0  0
  6  9  1  0  0  0  0
  6 17  1  0  0  0  0
  7  2  1  6  0  0  0
  7  5  1  0  0  0  0
  8 12  1  0  0  0  0
  9  4  1  0  0  0  0
 10 20  1  0  0  0  0
 10 15  2  0  0  0  0
 11 20  1  0  0  0  0
 13 19  2  0  0  0  0
 14 10  1  0  0  0  0
 15 13  1  0  0  0  0
 17  2  1  0  0  0  0
 18 12  1  6  0  0  0
 18 14  1  0  0  0  0
 20  1  2  0  0  0  0
 21 22  1  0  0  0  0
 23 22  2  0  0  0  0
 24 23  1  0  0  0  0
 25 24  1  0  0  0  0
 26 25  1  0  0  0  0
 28 26  1  0  0  0  0
 28 27  1  0  0  0  0
M  END
>  <MODEL>
1

>  <REMARK>
 VINA RESULT:      -8.2      0.000      0.000
  Name = 
  6 active torsions:
  status: ('A' for Active; 'I' for Inactive)
    1  A    between atoms: C_1  and  C_2
    2  A    between atoms: C_2  and  C_3
    3  A    between atoms: C_6  and  C_7
    4  A    between atoms: C_6  and  C_11
    5  A    between atoms: C_7  and  C_28
    6  A    between atoms: C_8  and  C_11
                            x       y       z     vdW  Elec       q    Type
                         _______ _______ _______ _____ _____    ______ ____

>  <TORSDO>
F 6

$$$$
=
 OpenBabel10272401583D

 28 31  0  0  1  0  0  0  0  0999 V2000
  189.9740  177.4840  142.5840 C   0  0  0  0  0  0  0  0  0  0  0  0
  185.1480  178.0720  142.7540 C   0  0  0  0  0  2  0  0  0  0  0  0
  188.8770  178.0350  147.2390 O   0  0  0  0  0  0  0  0  0  0  0  0
  185.2920  179.1000  145.0540 C   0  0  2  0  0  3  0  0  0  0  0  0
  186.6780  177.0410  144.4200 C   0  0  1  0  0  3  0  0  0  0  0  0
  183.3090  179.3120  144.0070 C   0  0  2  0  0  3  0  0  0  0  0  0
  186.0750  178.3710  143.9420 C   0  0  1  0  0  3  0  0  0  0  0  0
  185.9510  178.9540  146.4210 C   0  0  0  0  0  2  0  0  0  0  0  0
  183.9590  178.6610  145.0770 O   0  0  0  0  0  0  0  0  0  0  0  0
  189.4350  177.8340  144.9380 C   0  0  0  0  0  0  0  0  0  0  0  0
  187.7950  176.5610  143.4880 C   0  0  0  0  0  2  0  0  0  0  0  0
  186.1580  177.5990  146.7460 O   0  0  0  0  0  0  0  0  0  0  0  0
  191.5520  178.6130  144.0440 C   0  0  0  0  0  3  0  0  0  0  0  0
  188.5130  177.6900  146.0820 C   0  0  0  0  0  0  0  0  0  0  0  0
  190.6680  178.4730  145.1130 C   0  0  0  0  0  3  0  0  0  0  0  0
  181.8670  178.8550  143.9390 C   0  0  0  0  0  1  0  0  0  0  0  0
  183.9910  179.0700  142.6440 C   0  0  0  0  0  2  0  0  0  0  0  0
  187.1490  177.0700  145.8870 C   0  0  2  0  0  3  0  0  0  0  0  0
  191.2090  178.1150  142.7870 C   0  0  0  0  0  3  0  0  0  0  0  0
  189.0770  177.3380  143.6650 C   0  0  0  0  0  0  0  0  0  0  0  0
  189.6510  176.9290  141.2260 C   0  0  0  0  0  2  0  0  0  0  0  0
  189.0150  177.9590  140.3340 C   0  0  0  0  0  3  0  0  0  0  0  0
  188.8490  177.8020  139.0150 C   0  0  0  0  0  3  0  0  0  0  0  0
  189.3020  176.5770  138.2840 C   0  0  0  0  0  2  0  0  0  0  0  0
  190.6220  176.8350  137.5820 C   0  0  0  0  0  2  0  0  0  0  0  0
  191.6900  175.8940  138.1120 C   0  0  0  0  0  2  0  0  0  0  0  0
  192.5770  177.3130  139.8010 F   0  0  0  0  0  0  0  0  0  0  0  0
  192.8840  176.6870  138.6050 C   0  0  0  0  0  2  0  0  0  0  0  0
  1 19  2  0  0  0  0
  1 20  1  0  0  0  0
  4  9  1  0  0  0  0
  4  8  1  1  0  0  0
  5 11  1  6  0  0  0
  5 18  1  0  0  0  0
  6 16  1  6  0  0  0
  6  9  1  0  0  0  0
  7  2  1  6  0  0  0
  7  5  1  0  0  0  0
  7  4  1  0  0  0  0
  8 12  1  0  0  0  0
 10 15  1  0  0  0  0
 10 14  1  0  0  0  0
 11 20  1  0  0  0  0
 13 15  2  0  0  0  0
 14  3  2  0  0  0  0
 17  2  1  0  0  0  0
 17  6  1  0  0  0  0
 18 14  1  6  0  0  0
 18 12  1  0  0  0  0
 19 13  1  0  0  0  0
 20 10  2  0  0  0  0
 21  1  1  0  0  0  0
 22 21  1  0  0  0  0
 23 22  2  0  0  0  0
 24 23  1  0  0  0  0
 25 26  1  0  0  0  0
 25 24  1  0  0  0  0
 26 28  1  0  0  0  0
 28 27  1  0  0  0  0
M  END
>  <MODEL>
2

>  <REMARK>
 VINA RESULT:      -8.2      2.362      5.589
  Name = 
  6 active torsions:
  status: ('A' for Active; 'I' for Inactive)
    1  A    between atoms: C_1  and  C_2
    2  A    between atoms: C_2  and  C_3
    3  A    between atoms: C_6  and  C_7
    4  A    between atoms: C_6  and  C_11
    5  A    between atoms: C_7  and  C_28
    6  A    between atoms: C_8  and  C_11
                            x       y       z     vdW  Elec       q    Type
                         _______ _______ _______ _____ _____    ______ ____

>  <TORSDO>
F 6

$$$$
=
 OpenBabel10272401583D

 28 31  0  0  1  0  0  0  0  0999 V2000
  190.0480  177.4950  142.6100 C   0  0  0  0  0  0  0  0  0  0  0  0
  185.2160  178.0420  142.7200 C   0  0  0  0  0  2  0  0  0  0  0  0
  188.8860  178.0050  147.2530 O   0  0  0  0  0  0  0  0  0  0  0  0
  185.3210  179.0570  145.0280 C   0  0  2  0  0  3  0  0  0  0  0  0
  186.7320  177.0130  144.3990 C   0  0  1  0  0  3  0  0  0  0  0  0
  183.3510  179.2600  143.9570 C   0  0  2  0  0  3  0  0  0  0  0  0
  186.1250  178.3420  143.9220 C   0  0  1  0  0  3  0  0  0  0  0  0
  185.9630  178.9070  146.4030 C   0  0  0  0  0  2  0  0  0  0  0  0
  183.9920  178.6060  145.0310 O   0  0  0  0  0  0  0  0  0  0  0  0
  189.4750  177.8250  144.9590 C   0  0  0  0  0  0  0  0  0  0  0  0
  187.8650  176.5480  143.4790 C   0  0  0  0  0  2  0  0  0  0  0  0
  186.1770  177.5510  146.7220 O   0  0  0  0  0  0  0  0  0  0  0  0
  191.5970  178.6270  144.0980 C   0  0  0  0  0  3  0  0  0  0  0  0
  188.5400  177.6660  146.0900 C   0  0  0  0  0  0  0  0  0  0  0  0
  190.7010  178.4730  145.1550 C   0  0  0  0  0  3  0  0  0  0  0  0
  181.9130  178.7910  143.8670 C   0  0  0  0  0  1  0  0  0  0  0  0
  184.0520  179.0320  142.6010 C   0  0  0  0  0  2  0  0  0  0  0  0
  187.1830  177.0360  145.8720 C   0  0  2  0  0  3  0  0  0  0  0  0
  191.2750  178.1340  142.8340 C   0  0  0  0  0  3  0  0  0  0  0  0
  189.1390  177.3350  143.6780 C   0  0  0  0  0  0  0  0  0  0  0  0
  189.7470  176.9470  141.2440 C   0  0  0  0  0  2  0  0  0  0  0  0
  190.9680  176.9220  140.3670 C   0  0  0  0  0  3  0  0  0  0  0  0
  190.9340  176.6930  139.0490 C   0  0  0  0  0  3  0  0  0  0  0  0
  189.6630  176.4140  138.3100 C   0  0  0  0  0  2  0  0  0  0  0  0
  189.3780  177.5160  137.3070 C   0  0  0  0  0  2  0  0  0  0  0  0
  188.5580  178.6170  137.9570 C   0  0  0  0  0  2  0  0  0  0  0  0
  187.1520  178.4110  139.8630 F   0  0  0  0  0  0  0  0  0  0  0  0
  187.2800  178.0400  138.5360 C   0  0  0  0  0  2  0  0  0  0  0  0
  1 19  2  0  0  0  0
  1 20  1  0  0  0  0
  4  9  1  0  0  0  0
  4  8  1  1  0  0  0
  5 11  1  6  0  0  0
  5 18  1  0  0  0  0
  6 16  1  6  0  0  0
  6  9  1  0  0  0  0
  7  2  1  6  0  0  0
  7  5  1  0  0  0  0
  7  4  1  0  0  0  0
  8 12  1  0  0  0  0
 10 15  1  0  0  0  0
 10 14  1  0  0  0  0
 11 20  1  0  0  0  0
 13 15  2  0  0  0  0
 14  3  2  0  0  0  0
 17  2  1  0  0  0  0
 17  6  1  0  0  0  0
 18 14  1  6  0  0  0
 18 12  1  0  0  0  0
 19 13  1  0  0  0  0
 20 10  2  0  0  0  0
 21  1  1  0  0  0  0
 22 21  1  0  0  0  0
 23 22  2  0  0  0  0
 24 23  1  0  0  0  0
 25 26  1  0  0  0  0
 25 24  1  0  0  0  0
 26 28  1  0  0  0  0
 28 27  1  0  0  0  0
M  END
>  <MODEL>
3

>  <REMARK>
 VINA RESULT:      -8.2      2.186      5.605
  Name = 
  6 active torsions:
  status: ('A' for Active; 'I' for Inactive)
    1  A    between atoms: C_1  and  C_2
    2  A    between atoms: C_2  and  C_3
    3  A    between atoms: C_6  and  C_7
    4  A    between atoms: C_6  and  C_11
    5  A    between atoms: C_7  and  C_28
    6  A    between atoms: C_8  and  C_11
                            x       y       z     vdW  Elec       q    Type
                         _______ _______ _______ _____ _____    ______ ____

>  <TORSDO>
F 6

$$$$
=
 OpenBabel10272401583D

 28 31  0  0  1  0  0  0  0  0999 V2000
  187.0520  178.0390  142.4430 C   0  0  0  0  0  0  0  0  0  0  0  0
  187.3140  177.5840  137.6070 C   0  0  0  0  0  2  0  0  0  0  0  0
  191.4930  176.4360  141.5110 O   0  0  0  0  0  0  0  0  0  0  0  0
  189.2970  176.0350  137.7990 C   0  0  2  0  0  3  0  0  0  0  0  0
  189.0990  178.1400  139.2450 C   0  0  1  0  0  3  0  0  0  0  0  0
  188.3270  176.1410  135.7690 C   0  0  2  0  0  3  0  0  0  0  0  0
  188.3510  176.9810  138.5680 C   0  0  1  0  0  3  0  0  0  0  0  0
  190.6260  175.8310  138.5170 C   0  0  0  0  0  2  0  0  0  0  0  0
  189.4880  176.4990  136.4880 O   0  0  0  0  0  0  0  0  0  0  0  0
  189.2800  177.1590  141.9840 C   0  0  0  0  0  0  0  0  0  0  0  0
  188.2530  178.7910  140.3440 C   0  0  0  0  0  2  0  0  0  0  0  0
  191.2510  177.0630  138.7960 O   0  0  0  0  0  0  0  0  0  0  0  0
  188.1250  176.5470  144.0290 C   0  0  0  0  0  3  0  0  0  0  0  0
  190.4700  177.0570  141.1160 C   0  0  0  0  0  0  0  0  0  0  0  0
  189.2390  176.4570  143.1950 C   0  0  0  0  0  3  0  0  0  0  0  0
  188.4400  176.6470  134.3460 C   0  0  0  0  0  1  0  0  0  0  0  0
  187.0280  176.6780  136.4050 C   0  0  0  0  0  2  0  0  0  0  0  0
  190.4930  177.7490  139.7730 C   0  0  2  0  0  3  0  0  0  0  0  0
  187.0390  177.3400  143.6570 C   0  0  0  0  0  3  0  0  0  0  0  0
  188.1780  177.9530  141.5980 C   0  0  0  0  0  0  0  0  0  0  0  0
  185.8800  178.9110  142.0900 C   0  0  0  0  0  2  0  0  0  0  0  0
  184.5690  178.2040  142.3010 C   0  0  0  0  0  3  0  0  0  0  0  0
  183.7410  178.4600  143.3210 C   0  0  0  0  0  3  0  0  0  0  0  0
  184.0490  179.4740  144.3780 C   0  0  0  0  0  2  0  0  0  0  0  0
  184.3100  178.7930  145.7080 C   0  0  0  0  0  2  0  0  0  0  0  0
  185.6000  179.3120  146.3180 C   0  0  0  0  0  2  0  0  0  0  0  0
  187.6240  178.1890  146.8580 F   0  0  0  0  0  0  0  0  0  0  0  0
  186.2680  178.2200  147.1300 C   0  0  0  0  0  2  0  0  0  0  0  0
  1 19  1  0  0  0  0
  4  8  1  1  0  0  0
  4  7  1  0  0  0  0
  5 18  1  0  0  0  0
  5 11  1  1  0  0  0
  6 16  1  6  0  0  0
  6 17  1  0  0  0  0
  6  9  1  0  0  0  0
  7  2  1  6  0  0  0
  7  5  1  0  0  0  0
  8 12  1  0  0  0  0
  9  4  1  0  0  0  0
 10 15  2  0  0  0  0
 11 20  1  0  0  0  0
 14  3  2  0  0  0  0
 14 10  1  0  0  0  0
 15 13  1  0  0  0  0
 17  2  1  0  0  0  0
 18 12  1  6  0  0  0
 18 14  1  0  0  0  0
 19 13  2  0  0  0  0
 20 10  1  0  0  0  0
 20  1  2  0  0  0  0
 21 22  1  0  0  0  0
 21  1  1  0  0  0  0
 22 23  2  0  0  0  0
 23 24  1  0  0  0  0
 24 25  1  0  0  0  0
 25 26  1  0  0  0  0
 26 28  1  0  0  0  0
 27 28  1  0  0  0  0
M  END
>  <MODEL>
4

>  <REMARK>
 VINA RESULT:      -7.1      3.027      5.911
  Name = 
  6 active torsions:
  status: ('A' for Active; 'I' for Inactive)
    1  A    between atoms: C_1  and  C_2
    2  A    between atoms: C_2  and  C_3
    3  A    between atoms: C_6  and  C_7
    4  A    between atoms: C_6  and  C_11
    5  A    between atoms: C_7  and  C_28
    6  A    between atoms: C_8  and  C_11
                            x       y       z     vdW  Elec       q    Type
                         _______ _______ _______ _____ _____    ______ ____

>  <TORSDO>
F 6

$$$$
=
 OpenBabel10272401583D

 28 31  0  0  1  0  0  0  0  0999 V2000
  185.9870  178.2030  143.1770 C   0  0  0  0  0  0  0  0  0  0  0  0
  189.2810  176.7560  146.4500 C   0  0  0  0  0  2  0  0  0  0  0  0
  189.9880  177.2390  140.6800 O   0  0  0  0  0  0  0  0  0  0  0  0
  191.1720  177.2280  144.8480 C   0  0  2  0  0  3  0  0  0  0  0  0
  189.0130  176.0890  144.0710 C   0  0  1  0  0  3  0  0  0  0  0  0
  191.7700  176.8510  146.9860 C   0  0  2  0  0  3  0  0  0  0  0  0
  189.6400  177.1350  145.0050 C   0  0  1  0  0  3  0  0  0  0  0  0
  191.6190  177.0640  143.3990 C   0  0  0  0  0  2  0  0  0  0  0  0
  191.8040  176.2980  145.6880 O   0  0  0  0  0  0  0  0  0  0  0  0
  188.0320  177.7850  141.9130 C   0  0  0  0  0  0  0  0  0  0  0  0
  187.5070  176.3120  143.9050 C   0  0  0  0  0  2  0  0  0  0  0  0
  191.1190  175.8700  142.8420 O   0  0  0  0  0  0  0  0  0  0  0  0
  186.4930  179.5210  141.2020 C   0  0  0  0  0  3  0  0  0  0  0  0
  189.2890  177.0380  141.7110 C   0  0  0  0  0  0  0  0  0  0  0  0
  187.6790  178.8100  141.0270 C   0  0  0  0  0  3  0  0  0  0  0  0
  192.4000  175.8810  147.9630 C   0  0  0  0  0  1  0  0  0  0  0  0
  190.3440  177.2060  147.4580 C   0  0  0  0  0  2  0  0  0  0  0  0
  189.7160  175.9830  142.7040 C   0  0  2  0  0  3  0  0  0  0  0  0
  185.6480  179.2150  142.2680 C   0  0  0  0  0  3  0  0  0  0  0  0
  187.1860  177.4790  143.0020 C   0  0  0  0  0  0  0  0  0  0  0  0
  185.0370  177.8760  144.2940 C   0  0  0  0  0  2  0  0  0  0  0  0
  184.3720  179.1070  144.8460 C   0  0  0  0  0  3  0  0  0  0  0  0
  183.0670  179.3700  144.7160 C   0  0  0  0  0  3  0  0  0  0  0  0
  182.1290  178.4650  143.9810 C   0  0  0  0  0  2  0  0  0  0  0  0
  181.3060  179.2520  142.9790 C   0  0  0  0  0  2  0  0  0  0  0  0
  181.1380  178.4550  141.6970 C   0  0  0  0  0  2  0  0  0  0  0  0
  183.2040  177.5790  140.9140 F   0  0  0  0  0  0  0  0  0  0  0  0
  182.3420  178.6550  140.7980 C   0  0  0  0  0  2  0  0  0  0  0  0
  1 21  1  0  0  0  0
  2 17  1  0  0  0  0
  3 14  2  0  0  0  0
  4  8  1  6  0  0  0
  4  7  1  0  0  0  0
  4  9  1  0  0  0  0
  5 11  1  6  0  0  0
  5  7  1  0  0  0  0
  6 17  1  0  0  0  0
  6 16  1  1  0  0  0
  7  2  1  1  0  0  0
  9  6  1  0  0  0  0
 10 20  2  0  0  0  0
 12  8  1  0  0  0  0
 13 19  1  0  0  0  0
 14 10  1  0  0  0  0
 15 13  2  0  0  0  0
 15 10  1  0  0  0  0
 18 14  1  6  0  0  0
 18 12  1  0  0  0  0
 18  5  1  0  0  0  0
 19  1  2  0  0  0  0
 20  1  1  0  0  0  0
 20 11  1  0  0  0  0
 21 22  1  0  0  0  0
 23 22  2  0  0  0  0
 24 23  1  0  0  0  0
 25 24  1  0  0  0  0
 26 25  1  0  0  0  0
 28 27  1  0  0  0  0
 28 26  1  0  0  0  0
M  END
>  <MODEL>
5

>  <REMARK>
 VINA RESULT:      -7.0      2.896      6.842
  Name = 
  6 active torsions:
  status: ('A' for Active; 'I' for Inactive)
    1  A    between atoms: C_1  and  C_2
    2  A    between atoms: C_2  and  C_3
    3  A    between atoms: C_6  and  C_7
    4  A    between atoms: C_6  and  C_11
    5  A    between atoms: C_7  and  C_28
    6  A    between atoms: C_8  and  C_11
                            x       y       z     vdW  Elec       q    Type
                         _______ _______ _______ _____ _____    ______ ____

>  <TORSDO>
F 6

$$$$
=
 OpenBabel10272401583D

 28 31  0  0  1  0  0  0  0  0999 V2000
  186.1980  177.7050  144.2140 C   0  0  0  0  0  0  0  0  0  0  0  0
  182.1830  178.0910  141.4960 C   0  0  0  0  0  2  0  0  0  0  0  0
  187.7250  178.4130  139.7050 O   0  0  0  0  0  0  0  0  0  0  0  0
  183.4830  177.5880  139.3930 C   0  0  2  0  0  3  0  0  0  0  0  0
  184.4080  179.1570  141.1950 C   0  0  1  0  0  3  0  0  0  0  0  0
  181.2410  177.5280  139.1970 C   0  0  2  0  0  3  0  0  0  0  0  0
  183.5860  177.8920  140.9020 C   0  0  1  0  0  3  0  0  0  0  0  0
  184.7750  177.9050  138.6460 C   0  0  0  0  0  2  0  0  0  0  0  0
  182.3890  178.2650  138.8340 O   0  0  0  0  0  0  0  0  0  0  0  0
  186.9800  177.9920  141.9210 C   0  0  0  0  0  0  0  0  0  0  0  0
  184.8780  179.1990  142.6520 C   0  0  0  0  0  2  0  0  0  0  0  0
  185.1830  179.2340  138.8730 O   0  0  0  0  0  0  0  0  0  0  0  0
  188.2590  176.6500  143.4860 C   0  0  0  0  0  3  0  0  0  0  0  0
  186.8160  178.5560  140.5670 C   0  0  0  0  0  0  0  0  0  0  0  0
  188.0880  177.1860  142.2110 C   0  0  0  0  0  3  0  0  0  0  0  0
  180.0060  178.2230  138.6630 C   0  0  0  0  0  1  0  0  0  0  0  0
  181.1020  177.3300  140.7210 C   0  0  0  0  0  2  0  0  0  0  0  0
  185.5860  179.3640  140.2230 C   0  0  2  0  0  3  0  0  0  0  0  0
  187.3220  176.9140  144.4850 C   0  0  0  0  0  3  0  0  0  0  0  0
  186.0220  178.2520  142.9250 C   0  0  0  0  0  0  0  0  0  0  0  0
  185.2260  177.9970  145.3220 C   0  0  0  0  0  2  0  0  0  0  0  0
  185.6070  179.2310  146.0940 C   0  0  0  0  0  3  0  0  0  0  0  0
  186.3790  179.2170  147.1870 C   0  0  0  0  0  3  0  0  0  0  0  0
  186.9300  177.9550  147.7710 C   0  0  0  0  0  2  0  0  0  0  0  0
  188.4410  178.0370  147.8840 C   0  0  0  0  0  2  0  0  0  0  0  0
  189.0690  176.7070  147.5060 C   0  0  0  0  0  2  0  0  0  0  0  0
  190.5670  177.3550  145.7780 F   0  0  0  0  0  0  0  0  0  0  0  0
  190.5120  176.9130  147.0880 C   0  0  0  0  0  2  0  0  0  0  0  0
  1 19  1  0  0  0  0
  1 21  1  0  0  0  0
  3 14  2  0  0  0  0
  4  8  1  6  0  0  0
  4  7  1  0  0  0  0
  5 11  1  1  0  0  0
  6 16  1  1  0  0  0
  6 17  1  0  0  0  0
  7  5  1  0  0  0  0
  7  2  1  6  0  0  0
  8 12  1  0  0  0  0
  9  6  1  0  0  0  0
  9  4  1  0  0  0  0
 10 15  2  0  0  0  0
 10 20  1  0  0  0  0
 11 20  1  0  0  0  0
 13 19  2  0  0  0  0
 14 10  1  0  0  0  0
 15 13  1  0  0  0  0
 17  2  1  0  0  0  0
 18 12  1  6  0  0  0
 18 14  1  0  0  0  0
 18  5  1  0  0  0  0
 20  1  2  0  0  0  0
 21 22  1  0  0  0  0
 22 23  2  0  0  0  0
 23 24  1  0  0  0  0
 24 25  1  0  0  0  0
 26 25  1  0  0  0  0
 27 28  1  0  0  0  0
 28 26  1  0  0  0  0
M  END
>  <MODEL>
6

>  <REMARK>
 VINA RESULT:      -6.8      2.591      5.016
  Name = 
  6 active torsions:
  status: ('A' for Active; 'I' for Inactive)
    1  A    between atoms: C_1  and  C_2
    2  A    between atoms: C_2  and  C_3
    3  A    between atoms: C_6  and  C_7
    4  A    between atoms: C_6  and  C_11
    5  A    between atoms: C_7  and  C_28
    6  A    between atoms: C_8  and  C_11
                            x       y       z     vdW  Elec       q    Type
                         _______ _______ _______ _____ _____    ______ ____

>  <TORSDO>
F 6

$$$$
=
 OpenBabel10272401583D

 28 31  0  0  1  0  0  0  0  0999 V2000
  187.9610  177.1650  142.6620 C   0  0  0  0  0  0  0  0  0  0  0  0
  186.0010  177.5990  138.2310 C   0  0  0  0  0  2  0  0  0  0  0  0
  191.6510  177.0570  139.5740 O   0  0  0  0  0  0  0  0  0  0  0  0
  188.0810  176.6640  137.1520 C   0  0  2  0  0  3  0  0  0  0  0  0
  188.2150  178.3610  139.0660 C   0  0  1  0  0  3  0  0  0  0  0  0
  186.2720  176.8220  135.8210 C   0  0  2  0  0  3  0  0  0  0  0  0
  187.4560  177.1660  138.4700 C   0  0  1  0  0  3  0  0  0  0  0  0
  189.6050  176.7300  137.1690 C   0  0  0  0  0  2  0  0  0  0  0  0
  187.5500  177.3710  136.0620 O   0  0  0  0  0  0  0  0  0  0  0  0
  189.8300  177.0380  141.0990 C   0  0  0  0  0  0  0  0  0  0  0  0
  187.8820  178.5580  140.5480 C   0  0  0  0  0  2  0  0  0  0  0  0
  190.0570  178.0250  137.4890 O   0  0  0  0  0  0  0  0  0  0  0  0
  189.8980  175.7980  143.1850 C   0  0  0  0  0  3  0  0  0  0  0  0
  190.4700  177.4190  139.8250 C   0  0  0  0  0  0  0  0  0  0  0  0
  190.4870  176.1640  141.9750 C   0  0  0  0  0  3  0  0  0  0  0  0
  185.6120  177.5650  134.6780 C   0  0  0  0  0  1  0  0  0  0  0  0
  185.3510  176.8590  137.0580 C   0  0  0  0  0  2  0  0  0  0  0  0
  189.7370  178.3000  138.8390 C   0  0  2  0  0  3  0  0  0  0  0  0
  188.6440  176.3010  143.5290 C   0  0  0  0  0  3  0  0  0  0  0  0
  188.5550  177.5400  141.4380 C   0  0  0  0  0  0  0  0  0  0  0  0
  186.6270  177.7150  143.0800 C   0  0  0  0  0  2  0  0  0  0  0  0
  186.4920  177.7890  144.5760 C   0  0  0  0  0  3  0  0  0  0  0  0
  185.5750  178.5330  145.2060 C   0  0  0  0  0  3  0  0  0  0  0  0
  184.5920  179.3930  144.4760 C   0  0  0  0  0  2  0  0  0  0  0  0
  183.2060  178.7800  144.5310 C   0  0  0  0  0  2  0  0  0  0  0  0
  182.5750  178.7850  143.1500 C   0  0  0  0  0  2  0  0  0  0  0  0
  183.5470  177.6560  141.2970 F   0  0  0  0  0  0  0  0  0  0  0  0
  183.6550  178.7880  142.0850 C   0  0  0  0  0  2  0  0  0  0  0  0
  1 21  1  0  0  0  0
  1 19  1  0  0  0  0
  3 14  2  0  0  0  0
  4  8  1  1  0  0  0
  4  7  1  0  0  0  0
  5 11  1  1  0  0  0
  6 16  1  6  0  0  0
  6  9  1  0  0  0  0
  6 17  1  0  0  0  0
  7  2  1  6  0  0  0
  7  5  1  0  0  0  0
  8 12  1  0  0  0  0
  9  4  1  0  0  0  0
 10 20  1  0  0  0  0
 10 15  2  0  0  0  0
 11 20  1  0  0  0  0
 13 19  2  0  0  0  0
 14 10  1  0  0  0  0
 15 13  1  0  0  0  0
 17  2  1  0  0  0  0
 18 12  1  6  0  0  0
 18  5  1  0  0  0  0
 18 14  1  0  0  0  0
 20  1  2  0  0  0  0
 21 22  1  0  0  0  0
 22 23  2  0  0  0  0
 24 25  1  0  0  0  0
 24 23  1  0  0  0  0
 26 25  1  0  0  0  0
 27 28  1  0  0  0  0
 28 26  1  0  0  0  0
M  END
>  <MODEL>
7

>  <REMARK>
 VINA RESULT:      -6.7      3.429      6.229
  Name = 
  6 active torsions:
  status: ('A' for Active; 'I' for Inactive)
    1  A    between atoms: C_1  and  C_2
    2  A    between atoms: C_2  and  C_3
    3  A    between atoms: C_6  and  C_7
    4  A    between atoms: C_6  and  C_11
    5  A    between atoms: C_7  and  C_28
    6  A    between atoms: C_8  and  C_11
                            x       y       z     vdW  Elec       q    Type
                         _______ _______ _______ _____ _____    ______ ____

>  <TORSDO>
F 6

$$$$
=
 OpenBabel10272401583D

 28 31  0  0  1  0  0  0  0  0999 V2000
  184.0950  178.2720  139.7170 C   0  0  0  0  0  0  0  0  0  0  0  0
  187.9510  177.7800  142.6410 C   0  0  0  0  0  2  0  0  0  0  0  0
  182.4760  179.0800  144.1770 O   0  0  0  0  0  0  0  0  0  0  0  0
  186.4610  177.4510  144.6520 C   0  0  2  0  0  3  0  0  0  0  0  0
  185.9520  179.2360  142.8870 C   0  0  1  0  0  3  0  0  0  0  0  0
  188.6380  176.9570  144.9520 C   0  0  2  0  0  3  0  0  0  0  0  0
  186.5030  177.8280  143.1560 C   0  0  1  0  0  3  0  0  0  0  0  0
  185.2120  177.9790  145.3500 C   0  0  0  0  0  2  0  0  0  0  0  0
  187.6310  177.8850  145.2950 O   0  0  0  0  0  0  0  0  0  0  0  0
  183.2530  178.6120  141.9810 C   0  0  0  0  0  0  0  0  0  0  0  0
  185.5820  179.4250  141.4120 C   0  0  0  0  0  2  0  0  0  0  0  0
  185.0750  179.3690  145.1690 O   0  0  0  0  0  0  0  0  0  0  0  0
  181.8340  177.6010  140.2910 C   0  0  0  0  0  3  0  0  0  0  0  0
  183.4430  179.0820  143.3670 C   0  0  0  0  0  0  0  0  0  0  0  0
  182.0310  178.0440  141.5990 C   0  0  0  0  0  3  0  0  0  0  0  0
  189.9490  177.3830  145.5790 C   0  0  0  0  0  1  0  0  0  0  0  0
  188.8230  176.7970  143.4290 C   0  0  0  0  0  2  0  0  0  0  0  0
  184.7810  179.6260  143.8100 C   0  0  2  0  0  3  0  0  0  0  0  0
  182.8590  177.7200  139.3530 C   0  0  0  0  0  3  0  0  0  0  0  0
  184.2980  178.7250  141.0380 C   0  0  0  0  0  0  0  0  0  0  0  0
  185.1660  178.4170  138.6720 C   0  0  0  0  0  2  0  0  0  0  0  0
  185.1140  177.3100  137.6560 C   0  0  0  0  0  3  0  0  0  0  0  0
  185.9380  177.2250  136.6050 C   0  0  0  0  0  3  0  0  0  0  0  0
  186.9950  178.2460  136.3220 C   0  0  0  0  0  2  0  0  0  0  0  0
  188.3430  177.7690  136.8270 C   0  0  0  0  0  2  0  0  0  0  0  0
  189.0090  178.8580  137.6500 C   0  0  0  0  0  2  0  0  0  0  0  0
  188.2440  177.3320  139.3040 F   0  0  0  0  0  0  0  0  0  0  0  0
  188.9740  178.4940  139.1220 C   0  0  0  0  0  2  0  0  0  0  0  0
  1 20  1  0  0  0  0
  2 17  1  0  0  0  0
  4  9  1  0  0  0  0
  4  8  1  1  0  0  0
  5 11  1  6  0  0  0
  5  7  1  0  0  0  0
  5 18  1  0  0  0  0
  6  9  1  0  0  0  0
  6 16  1  1  0  0  0
  7  2  1  1  0  0  0
  7  4  1  0  0  0  0
 10 14  1  0  0  0  0
 12  8  1  0  0  0  0
 13 15  2  0  0  0  0
 14  3  2  0  0  0  0
 15 10  1  0  0  0  0
 17  6  1  0  0  0  0
 18 14  1  6  0  0  0
 18 12  1  0  0  0  0
 19  1  2  0  0  0  0
 19 13  1  0  0  0  0
 20 11  1  0  0  0  0
 20 10  2  0  0  0  0
 21  1  1  0  0  0  0
 22 21  1  0  0  0  0
 23 22  2  0  0  0  0
 24 23  1  0  0  0  0
 24 25  1  0  0  0  0
 25 26  1  0  0  0  0
 26 28  1  0  0  0  0
 28 27  1  0  0  0  0
M  END
>  <MODEL>
8

>  <REMARK>
 VINA RESULT:      -6.6      2.605      6.458
  Name = 
  6 active torsions:
  status: ('A' for Active; 'I' for Inactive)
    1  A    between atoms: C_1  and  C_2
    2  A    between atoms: C_2  and  C_3
    3  A    between atoms: C_6  and  C_7
    4  A    between atoms: C_6  and  C_11
    5  A    between atoms: C_7  and  C_28
    6  A    between atoms: C_8  and  C_11
                            x       y       z     vdW  Elec       q    Type
                         _______ _______ _______ _____ _____    ______ ____

>  <TORSDO>
F 6

$$$$
=
 OpenBabel10272401583D

 28 31  0  0  1  0  0  0  0  0999 V2000
  188.0940  177.6610  146.7040 C   0  0  0  0  0  0  0  0  0  0  0  0
  189.0550  177.5380  141.9370 C   0  0  0  0  0  2  0  0  0  0  0  0
  184.0180  178.9710  144.5050 O   0  0  0  0  0  0  0  0  0  0  0  0
  187.0760  179.0210  141.4360 C   0  0  2  0  0  3  0  0  0  0  0  0
  186.9200  177.1080  143.1340 C   0  0  1  0  0  3  0  0  0  0  0  0
  188.5260  178.7160  139.7410 C   0  0  2  0  0  3  0  0  0  0  0  0
  187.8040  178.2080  142.5270 C   0  0  1  0  0  3  0  0  0  0  0  0
  185.6060  179.2560  141.7710 C   0  0  0  0  0  2  0  0  0  0  0  0
  187.2250  178.4000  140.1870 O   0  0  0  0  0  0  0  0  0  0  0  0
  186.0460  178.3950  145.5990 C   0  0  0  0  0  0  0  0  0  0  0  0
  187.4670  176.6230  144.4800 C   0  0  0  0  0  2  0  0  0  0  0  0
  184.9420  178.0420  142.0330 O   0  0  0  0  0  0  0  0  0  0  0  0
  186.6440  179.2860  147.7760 C   0  0  0  0  0  3  0  0  0  0  0  0
  185.1130  178.3490  144.4560 C   0  0  0  0  0  0  0  0  0  0  0  0
  185.7750  179.2350  146.6870 C   0  0  0  0  0  3  0  0  0  0  0  0
  188.7800  178.0430  138.4080 C   0  0  0  0  0  1  0  0  0  0  0  0
  189.6270  178.3080  140.7420 C   0  0  0  0  0  2  0  0  0  0  0  0
  185.4350  177.5040  143.2450 C   0  0  2  0  0  3  0  0  0  0  0  0
  187.7940  178.4980  147.7870 C   0  0  0  0  0  3  0  0  0  0  0  0
  187.2160  177.6040  145.6000 C   0  0  0  0  0  0  0  0  0  0  0  0
  189.3240  176.8000  146.7640 C   0  0  0  0  0  2  0  0  0  0  0  0
  190.4620  177.3890  145.9770 C   0  0  0  0  0  3  0  0  0  0  0  0
  191.6280  176.7650  145.7730 C   0  0  0  0  0  3  0  0  0  0  0  0
  191.9280  175.4100  146.3310 C   0  0  0  0  0  2  0  0  0  0  0  0
  191.8740  175.4350  147.8470 C   0  0  0  0  0  2  0  0  0  0  0  0
  193.2380  175.7860  148.4140 C   0  0  0  0  0  2  0  0  0  0  0  0
  194.2450  176.9530  150.2240 F   0  0  0  0  0  0  0  0  0  0  0  0
  193.1060  176.8940  149.4410 C   0  0  0  0  0  2  0  0  0  0  0  0
  1 21  1  0  0  0  0
  1 19  1  0  0  0  0
  4  8  1  1  0  0  0
  4  7  1  0  0  0  0
  5 18  1  0  0  0  0
  5 11  1  1  0  0  0
  6 16  1  6  0  0  0
  6  9  1  0  0  0  0
  6 17  1  0  0  0  0
  7  2  1  6  0  0  0
  7  5  1  0  0  0  0
  8 12  1  0  0  0  0
  9  4  1  0  0  0  0
 10 20  1  0  0  0  0
 10 15  2  0  0  0  0
 11 20  1  0  0  0  0
 13 19  2  0  0  0  0
 14  3  2  0  0  0  0
 14 10  1  0  0  0  0
 15 13  1  0  0  0  0
 17  2  1  0  0  0  0
 18 12  1  6  0  0  0
 18 14  1  0  0  0  0
 20  1  2  0  0  0  0
 22 21  1  0  0  0  0
 23 22  2  0  0  0  0
 23 24  1  0  0  0  0
 24 25  1  0  0  0  0
 25 26  1  0  0  0  0
 26 28  1  0  0  0  0
 28 27  1  0  0  0  0
M  END
>  <MODEL>
9

>  <REMARK>
 VINA RESULT:      -6.6      1.668      2.209
  Name = 
  6 active torsions:
  status: ('A' for Active; 'I' for Inactive)
    1  A    between atoms: C_1  and  C_2
    2  A    between atoms: C_2  and  C_3
    3  A    between atoms: C_6  and  C_7
    4  A    between atoms: C_6  and  C_11
    5  A    between atoms: C_7  and  C_28
    6  A    between atoms: C_8  and  C_11
                            x       y       z     vdW  Elec       q    Type
                         _______ _______ _______ _____ _____    ______ ____

>  <TORSDO>
F 6

$$$$
