=
 OpenBabel10272401173D

 55 62  0  0  1  0  0  0  0  0999 V2000
  190.1440  174.2080  137.1620 O   0  0  0  0  0  0  0  0  0  0  0  0
  185.9540  178.4710  136.1250 C   0  0  0  0  0  2  0  0  0  0  0  0
  187.9360  178.8670  138.8250 O   0  0  0  0  0  0  0  0  0  0  0  0
  189.2370  177.5140  141.2400 C   0  0  0  0  0  3  0  0  0  0  0  0
  189.6170  178.0020  142.5770 C   0  0  0  0  0  3  0  0  0  0  0  0
  191.5970  177.3630  140.6520 C   0  0  0  0  0  0  0  0  0  0  0  0
  192.0330  178.0040  141.9420 C   0  0  0  0  0  3  0  0  0  0  0  0
  188.4060  176.5280  138.6340 C   0  0  0  0  0  2  0  0  0  0  0  0
  190.8960  178.2100  142.9080 C   0  0  0  0  0  3  0  0  0  0  0  0
  188.5970  172.3460  137.0880 C   0  0  0  0  0  3  0  0  0  0  0  0
  190.1640  177.2190  140.3210 C   0  0  1  0  0  3  0  0  0  0  0  0
  186.9870  173.7220  135.2610 C   0  0  0  0  0  0  0  0  0  0  0  0
  190.5070  175.5510  136.8620 C   0  0  0  0  0  2  0  0  0  0  0  0
  188.1680  174.3040  135.7360 C   0  0  0  0  0  3  0  0  0  0  0  0
  192.1620  176.3910  138.5160 C   0  0  0  0  0  0  0  0  0  0  0  0
  186.3420  177.1860  135.8040 C   0  0  1  0  0  3  0  0  0  0  0  0
  192.4910  176.9770  139.7950 N   0  0  0  0  0  0  0  0  0  0  0  0
  186.9600  177.8170  137.0070 N   0  0  0  0  0  0  0  0  0  0  0  0
  187.7990  177.8090  138.1580 C   0  0  0  0  0  0  0  0  0  0  0  0
  187.4160  171.7600  136.6130 C   0  0  0  0  0  3  0  0  0  0  0  0
  185.4050  176.0520  136.2620 C   0  0  2  0  0  3  0  0  0  0  0  0
  188.9790  173.6240  136.6520 C   0  0  0  0  0  0  0  0  0  0  0  0
  189.8110  176.7040  139.0210 N   0  0  0  0  0  0  0  0  0  0  0  0
  190.8660  176.2680  138.1330 C   0  0  0  0  0  0  0  0  0  0  0  0
  184.9470  175.1590  135.1000 C   0  0  0  0  0  2  0  0  0  0  0  0
  186.1060  174.5080  134.3480 C   0  0  0  0  0  2  0  0  0  0  0  0
  186.6060  172.4480  135.7040 C   0  0  0  0  0  3  0  0  0  0  0  0
  193.6140  176.5920  136.4850 C   0  0  0  0  0  3  0  0  0  0  0  0
  195.4470  175.0440  136.1150 C   0  0  0  0  0  0  0  0  0  0  0  0
  194.0470  174.8280  138.0890 C   0  0  0  0  0  3  0  0  0  0  0  0
  195.1210  174.3810  137.3100 C   0  0  0  0  0  3  0  0  0  0  0  0
  194.6910  176.1500  135.7080 C   0  0  0  0  0  3  0  0  0  0  0  0
  193.2780  175.9220  137.6710 C   0  0  0  0  0  0  0  0  0  0  0  0
  196.5660  174.5580  135.2430 C   0  0  0  0  0  3  0  0  0  0  0  0
  197.2760  173.3590  135.8720 C   0  0  0  0  0  1  0  0  0  0  0  0
  197.5680  175.6760  134.9430 C   0  0  0  0  0  1  0  0  0  0  0  0
  184.2490  176.4180  137.2050 C   0  0  0  0  0  2  0  0  0  0  0  0
  184.7170  176.7990  138.6130 C   0  0  0  0  0  2  0  0  0  0  0  0
  186.0450  177.7370  141.4160 F   0  0  0  0  0  0  0  0  0  0  0  0
  184.7150  178.9460  139.8740 C   0  0  1  0  0  3  0  0  0  0  0  0
  182.9600  178.4040  138.2950 O   0  0  0  0  0  1  0  0  0  0  0  0
  183.6950  177.6740  141.7000 C   0  0  1  0  0  3  0  0  0  0  0  0
  184.9140  178.5270  141.3340 C   0  0  1  0  0  0  0  0  0  0  0  0
  183.8240  177.8630  139.2570 C   0  0  1  0  0  0  0  0  0  0  0  0
  184.7270  179.3940  143.7360 C   0  0  1  0  0  3  0  0  0  0  0  0
  182.7250  178.3930  142.6480 C   0  0  1  0  0  3  0  0  0  0  0  0
  185.0950  179.7290  142.2720 C   0  0  0  0  0  2  0  0  0  0  0  0
  183.0060  177.2740  140.4030 C   0  0  0  0  0  2  0  0  0  0  0  0
  184.0910  180.2060  139.7780 O   0  0  0  0  0  1  0  0  0  0  0  0
  183.3980  178.7670  143.9010 N   0  0  0  0  0  2  0  0  0  0  0  0
  185.8010  178.5350  144.4060 C   0  0  0  0  0  2  0  0  0  0  0  0
  185.3460  178.0650  145.6360 O   0  0  0  0  0  1  0  0  0  0  0  0
  182.1620  179.5280  142.0420 O   0  0  0  0  0  0  0  0  0  0  0  0
  180.7910  179.4120  142.2750 C   0  0  0  0  0  2  0  0  0  0  0  0
  180.1750  180.6180  141.9100 O   0  0  0  0  0  1  0  0  0  0  0  0
  2 18  1  0  0  0  0
  4  5  2  0  0  0  0
  5  9  1  0  0  0  0
  6  7  1  0  0  0  0
  7  9  2  0  0  0  0
  8 23  1  0  0  0  0
 11  6  1  0  0  0  0
 11  4  1  1  0  0  0
 12 27  2  0  0  0  0
 12 14  1  0  0  0  0
 13  1  1  0  0  0  0
 13 24  1  0  0  0  0
 14 22  2  0  0  0  0
 15 17  1  0  0  0  0
 16  2  1  1  0  0  0
 16 21  1  0  0  0  0
 16 18  1  0  0  0  0
 17  6  2  0  0  0  0
 18 19  1  0  0  0  0
 19  8  1  0  0  0  0
 19  3  2  0  0  0  0
 20 10  2  0  0  0  0
 21 37  1  6  0  0  0
 22 10  1  0  0  0  0
 22  1  1  0  0  0  0
 23 11  1  0  0  0  0
 24 15  2  0  0  0  0
 24 23  1  0  0  0  0
 25 21  1  0  0  0  0
 26 25  1  0  0  0  0
 26 12  1  0  0  0  0
 27 20  1  0  0  0  0
 28 33  1  0  0  0  0
 29 31  2  0  0  0  0
 31 30  1  0  0  0  0
 32 29  1  0  0  0  0
 32 28  2  0  0  0  0
 33 30  2  0  0  0  0
 33 15  1  0  0  0  0
 34 35  1  0  0  0  0
 34 29  1  0  0  0  0
 36 34  1  0  0  0  0
 37 38  1  0  0  0  0
 38 44  1  0  0  0  0
 40 49  1  1  0  0  0
 40 43  1  0  0  0  0
 42 48  1  6  0  0  0
 42 46  1  0  0  0  0
 43 39  1  1  0  0  0
 43 42  1  0  0  0  0
 43 47  1  0  0  0  0
 44 41  1  6  0  0  0
 44 40  1  0  0  0  0
 44 48  1  0  0  0  0
 45 50  1  0  0  0  0
 45 51  1  6  0  0  0
 46 53  1  6  0  0  0
 46 50  1  0  0  0  0
 47 45  1  0  0  0  0
 51 52  1  0  0  0  0
 53 54  1  0  0  0  0
 55 54  1  0  0  0  0
M  END
>  <MODEL>
1

>  <REMARK>
 VINA RESULT:      -6.8      0.000      0.000
  Name = 
  8 active torsions:
  status: ('A' for Active; 'I' for Inactive)
    1  A    between atoms: C_1  and  O_53
    2  A    between atoms: C_8  and  C_22
    3  A    between atoms: C_8  and  C_43
    4  A    between atoms: C_10  and  C_32
    5  A    between atoms: C_11  and  CA_29
    6  A    between atoms: C_20  and  C_22
    7  A    between atoms: C_30  and  O_53
    8  A    between atoms: C_33  and  C_52
                            x       y       z     vdW  Elec       q    Type
                         _______ _______ _______ _____ _____    ______ ____

>  <TORSDO>
F 8

$$$$
=
 OpenBabel10272401173D

 55 62  0  0  1  0  0  0  0  0999 V2000
  185.0560  177.8250  138.1360 O   0  0  0  0  0  0  0  0  0  0  0  0
  189.0560  175.0910  134.4850 C   0  0  0  0  0  2  0  0  0  0  0  0
  186.1230  173.5170  135.0290 O   0  0  0  0  0  0  0  0  0  0  0  0
  184.0250  172.7010  137.1010 C   0  0  0  0  0  3  0  0  0  0  0  0
  183.1040  171.5550  137.1950 C   0  0  0  0  0  3  0  0  0  0  0  0
  182.1260  174.1580  136.6460 C   0  0  0  0  0  0  0  0  0  0  0  0
  181.1640  173.0020  136.5760 C   0  0  0  0  0  2  0  0  0  0  0  0
  185.9040  174.9150  136.9590 C   0  0  0  0  0  2  0  0  0  0  0  0
  181.7930  171.6920  136.9730 C   0  0  0  0  0  3  0  0  0  0  0  0
  186.5980  178.1280  139.9770 C   0  0  0  0  0  3  0  0  0  0  0  0
  183.5740  173.9320  136.8320 C   0  0  0  0  0  0  0  0  0  0  0  0
  188.7360  178.3420  138.1850 C   0  0  0  0  0  0  0  0  0  0  0  0
  184.7720  177.5960  136.7600 C   0  0  0  0  0  2  0  0  0  0  0  0
  187.4320  178.1560  137.7080 C   0  0  0  0  0  3  0  0  0  0  0  0
  182.5410  176.5310  136.5000 C   0  0  0  0  0  0  0  0  0  0  0  0
  188.9060  176.0820  135.4330 C   0  0  1  0  0  3  0  0  0  0  0  0
  181.6840  175.3680  136.4900 N   0  0  0  0  0  0  0  0  0  0  0  0
  187.8160  175.0720  135.3090 N   0  0  0  0  0  0  0  0  0  0  0  0
  186.5810  174.4780  135.6980 C   0  0  0  0  0  0  0  0  0  0  0  0
  187.9020  178.3170  140.4580 C   0  0  0  0  0  3  0  0  0  0  0  0
  189.6350  175.8660  136.7720 C   0  0  2  0  0  3  0  0  0  0  0  0
  186.3570  178.0460  138.5970 C   0  0  0  0  0  0  0  0  0  0  0  0
  184.4560  175.0710  136.7730 N   0  0  0  0  0  0  0  0  0  0  0  0
  183.8840  176.3910  136.6250 C   0  0  0  0  0  0  0  0  0  0  0  0
  190.5780  177.0260  137.1260 C   0  0  0  0  0  2  0  0  0  0  0  0
  189.8680  178.3750  137.2130 C   0  0  0  0  0  2  0  0  0  0  0  0
  188.9720  178.4180  139.5650 C   0  0  0  0  0  3  0  0  0  0  0  0
  181.5470  178.3860  135.1410 C   0  0  0  0  0  3  0  0  0  0  0  0
  180.6160  180.3510  136.2180 C   0  0  0  0  0  0  0  0  0  0  0  0
  181.5800  178.5660  137.5560 C   0  0  0  0  0  3  0  0  0  0  0  0
  180.9520  179.8140  137.4730 C   0  0  0  0  0  3  0  0  0  0  0  0
  180.9140  179.6310  135.0550 C   0  0  0  0  0  3  0  0  0  0  0  0
  181.8970  177.8550  136.3910 C   0  0  0  0  0  0  0  0  0  0  0  0
  179.9820  181.7050  136.1030 C   0  0  0  0  0  3  0  0  0  0  0  0
  180.5530  182.4830  134.9170 C   0  0  0  0  0  1  0  0  0  0  0  0
  180.1390  182.5090  137.3960 C   0  0  0  0  0  1  0  0  0  0  0  0
  190.2810  174.4950  137.0210 C   0  0  0  0  0  2  0  0  0  0  0  0
  191.0920  173.9850  135.8250 C   0  0  0  0  0  2  0  0  0  0  0  0
  192.8720  171.3130  136.2610 F   0  0  0  0  0  0  0  0  0  0  0  0
  193.4000  173.3390  135.1540 C   0  0  1  0  0  3  0  0  0  0  0  0
  192.7510  175.6610  135.3790 O   0  0  0  0  0  1  0  0  0  0  0  0
  193.8320  173.0540  137.5470 C   0  0  1  0  0  3  0  0  0  0  0  0
  193.8270  172.3110  136.2070 C   0  0  1  0  0  0  0  0  0  0  0  0
  192.5690  174.3780  135.9120 C   0  0  1  0  0  0  0  0  0  0  0  0
  195.8780  171.1000  137.1440 C   0  0  1  0  0  3  0  0  0  0  0  0
  195.2480  173.3190  138.0770 C   0  0  1  0  0  3  0  0  0  0  0  0
  195.1830  171.6660  135.8850 C   0  0  0  0  0  2  0  0  0  0  0  0
  193.0610  174.3530  137.3570 C   0  0  0  0  0  2  0  0  0  0  0  0
  194.5160  173.9520  134.5490 O   0  0  0  0  0  1  0  0  0  0  0  0
  195.9810  172.0580  138.2660 N   0  0  0  0  0  2  0  0  0  0  0  0
  195.2200  169.8030  137.6190 C   0  0  0  0  0  2  0  0  0  0  0  0
  195.0030  169.8460  138.9940 O   0  0  0  0  0  1  0  0  0  0  0  0
  195.9650  174.1750  137.2240 O   0  0  0  0  0  0  0  0  0  0  0  0
  197.2710  174.1540  137.7160 C   0  0  0  0  0  2  0  0  0  0  0  0
  197.7730  175.4640  137.6930 O   0  0  0  0  0  1  0  0  0  0  0  0
  1 22  1  0  0  0  0
  2 18  1  0  0  0  0
  3 19  2  0  0  0  0
  4  5  1  0  0  0  0
  6 11  1  0  0  0  0
  7  6  1  0  0  0  0
  7  9  1  0  0  0  0
  9  5  2  0  0  0  0
 10 20  1  0  0  0  0
 11  4  2  0  0  0  0
 12 27  1  0  0  0  0
 13  1  1  0  0  0  0
 14 12  2  0  0  0  0
 14 22  1  0  0  0  0
 15 24  2  0  0  0  0
 16  2  1  6  0  0  0
 16 21  1  0  0  0  0
 17 15  1  0  0  0  0
 17  6  2  0  0  0  0
 18 16  1  0  0  0  0
 18 19  1  0  0  0  0
 19  8  1  0  0  0  0
 21 37  1  6  0  0  0
 21 25  1  0  0  0  0
 22 10  2  0  0  0  0
 23 11  1  0  0  0  0
 23  8  1  0  0  0  0
 24 13  1  0  0  0  0
 24 23  1  0  0  0  0
 25 26  1  0  0  0  0
 26 12  1  0  0  0  0
 27 20  2  0  0  0  0
 28 33  1  0  0  0  0
 29 31  2  0  0  0  0
 31 30  1  0  0  0  0
 32 28  2  0  0  0  0
 32 29  1  0  0  0  0
 33 15  1  0  0  0  0
 33 30  2  0  0  0  0
 34 29  1  0  0  0  0
 34 36  1  0  0  0  0
 35 34  1  0  0  0  0
 38 44  1  0  0  0  0
 38 37  1  0  0  0  0
 40 49  1  1  0  0  0
 40 44  1  0  0  0  0
 40 43  1  0  0  0  0
 42 48  1  6  0  0  0
 42 46  1  0  0  0  0
 43 39  1  1  0  0  0
 43 42  1  0  0  0  0
 44 41  1  6  0  0  0
 44 48  1  0  0  0  0
 45 51  1  1  0  0  0
 45 50  1  0  0  0  0
 46 53  1  6  0  0  0
 46 50  1  0  0  0  0
 47 43  1  0  0  0  0
 47 45  1  0  0  0  0
 51 52  1  0  0  0  0
 53 54  1  0  0  0  0
 55 54  1  0  0  0  0
M  END
>  <MODEL>
2

>  <REMARK>
 VINA RESULT:      -6.6      3.893     11.340
  Name = 
  8 active torsions:
  status: ('A' for Active; 'I' for Inactive)
    1  A    between atoms: C_1  and  O_53
    2  A    between atoms: C_8  and  C_22
    3  A    between atoms: C_8  and  C_43
    4  A    between atoms: C_10  and  C_32
    5  A    between atoms: C_11  and  CA_29
    6  A    between atoms: C_20  and  C_22
    7  A    between atoms: C_30  and  O_53
    8  A    between atoms: C_33  and  C_52
                            x       y       z     vdW  Elec       q    Type
                         _______ _______ _______ _____ _____    ______ ____

>  <TORSDO>
F 8

$$$$
=
 OpenBabel10272401173D

 55 62  0  0  1  0  0  0  0  0999 V2000
  185.1450  177.8370  138.1720 O   0  0  0  0  0  0  0  0  0  0  0  0
  189.0420  175.0470  134.4520 C   0  0  0  0  0  2  0  0  0  0  0  0
  186.1020  173.5080  135.0590 O   0  0  0  0  0  0  0  0  0  0  0  0
  184.0380  172.7220  137.1750 C   0  0  0  0  0  3  0  0  0  0  0  0
  183.1060  171.5860  137.2910 C   0  0  0  0  0  3  0  0  0  0  0  0
  182.1460  174.1980  136.7530 C   0  0  0  0  0  0  0  0  0  0  0  0
  181.1710  173.0530  136.7060 C   0  0  0  0  0  2  0  0  0  0  0  0
  185.9380  174.9140  136.9880 C   0  0  0  0  0  2  0  0  0  0  0  0
  181.7920  171.7370  137.0950 C   0  0  0  0  0  3  0  0  0  0  0  0
  186.7270  178.1290  139.9810 C   0  0  0  0  0  3  0  0  0  0  0  0
  183.5950  173.9570  136.9110 C   0  0  0  0  0  0  0  0  0  0  0  0
  188.8310  178.3140  138.1460 C   0  0  0  0  0  0  0  0  0  0  0  0
  184.8320  177.6070  136.8030 C   0  0  0  0  0  2  0  0  0  0  0  0
  187.5170  178.1400  137.6960 C   0  0  0  0  0  3  0  0  0  0  0  0
  182.5840  176.5660  136.5910 C   0  0  0  0  0  0  0  0  0  0  0  0
  188.9210  176.0430  135.3990 C   0  0  1  0  0  3  0  0  0  0  0  0
  181.7150  175.4130  136.6010 N   0  0  0  0  0  0  0  0  0  0  0  0
  187.8180  175.0450  135.3000 N   0  0  0  0  0  0  0  0  0  0  0  0
  186.5840  174.4660  135.7160 C   0  0  0  0  0  0  0  0  0  0  0  0
  188.0420  178.3040  140.4360 C   0  0  0  0  0  3  0  0  0  0  0  0
  189.6750  175.8230  136.7240 C   0  0  2  0  0  3  0  0  0  0  0  0
  186.4580  178.0450  138.6070 C   0  0  0  0  0  0  0  0  0  0  0  0
  184.4890  175.0860  136.8300 N   0  0  0  0  0  0  0  0  0  0  0  0
  183.9280  176.4110  136.6900 C   0  0  0  0  0  0  0  0  0  0  0  0
  190.6380  176.9730  137.0550 C   0  0  0  0  0  2  0  0  0  0  0  0
  189.9440  178.3310  137.1520 C   0  0  0  0  0  2  0  0  0  0  0  0
  189.0960  178.3910  139.5210 C   0  0  0  0  0  3  0  0  0  0  0  0
  181.5540  178.4130  135.2490 C   0  0  0  0  0  3  0  0  0  0  0  0
  180.6970  180.4070  136.3360 C   0  0  0  0  0  0  0  0  0  0  0  0
  181.6980  178.6290  137.6570 C   0  0  0  0  0  3  0  0  0  0  0  0
  181.0820  179.8850  137.5830 C   0  0  0  0  0  3  0  0  0  0  0  0
  180.9340  179.6660  135.1720 C   0  0  0  0  0  3  0  0  0  0  0  0
  181.9530  177.8970  136.4900 C   0  0  0  0  0  0  0  0  0  0  0  0
  180.0760  181.7670  136.2280 C   0  0  0  0  0  3  0  0  0  0  0  0
  180.4000  182.4170  134.8820 C   0  0  0  0  0  1  0  0  0  0  0  0
  180.5130  182.6760  137.3800 C   0  0  0  0  0  1  0  0  0  0  0  0
  190.3100  174.4450  136.9650 C   0  0  0  0  0  2  0  0  0  0  0  0
  191.6950  174.3010  136.3270 C   0  0  0  0  0  2  0  0  0  0  0  0
  194.4420  174.5120  134.6210 F   0  0  0  0  0  0  0  0  0  0  0  0
  193.6830  175.7930  136.4620 C   0  0  1  0  0  3  0  0  0  0  0  0
  192.2630  175.4010  138.3840 O   0  0  0  0  0  1  0  0  0  0  0  0
  194.9830  173.7460  136.7950 C   0  0  1  0  0  3  0  0  0  0  0  0
  194.8240  174.9580  135.8720 C   0  0  1  0  0  0  0  0  0  0  0  0
  192.8150  174.8020  137.2430 C   0  0  1  0  0  0  0  0  0  0  0  0
  197.3750  174.8520  135.6890 C   0  0  1  0  0  3  0  0  0  0  0  0
  196.2550  173.8110  137.6520 C   0  0  1  0  0  3  0  0  0  0  0  0
  196.1250  175.7600  135.7220 C   0  0  0  0  0  2  0  0  0  0  0  0
  193.7350  173.6600  137.6620 C   0  0  0  0  0  2  0  0  0  0  0  0
  194.1700  176.7990  137.3200 O   0  0  0  0  0  1  0  0  0  0  0  0
  197.4550  173.8850  136.8050 N   0  0  0  0  0  2  0  0  0  0  0  0
  197.5100  174.1230  134.3510 C   0  0  0  0  0  2  0  0  0  0  0  0
  197.4970  172.7440  134.5470 O   0  0  0  0  0  1  0  0  0  0  0  0
  196.2200  174.8990  138.5410 O   0  0  0  0  0  0  0  0  0  0  0  0
  197.1650  174.5880  139.5200 C   0  0  0  0  0  2  0  0  0  0  0  0
  197.5120  175.7690  140.1920 O   0  0  0  0  0  1  0  0  0  0  0  0
  1 22  1  0  0  0  0
  2 18  1  0  0  0  0
  3 19  2  0  0  0  0
  4  5  1  0  0  0  0
  6 11  1  0  0  0  0
  7  6  1  0  0  0  0
  7  9  1  0  0  0  0
  9  5  2  0  0  0  0
 10 20  1  0  0  0  0
 11  4  2  0  0  0  0
 12 27  1  0  0  0  0
 13  1  1  0  0  0  0
 14 12  2  0  0  0  0
 14 22  1  0  0  0  0
 15 17  1  0  0  0  0
 15 24  2  0  0  0  0
 16  2  1  6  0  0  0
 16 21  1  0  0  0  0
 17  6  2  0  0  0  0
 18 16  1  0  0  0  0
 18 19  1  0  0  0  0
 19  8  1  0  0  0  0
 21 37  1  6  0  0  0
 21 25  1  0  0  0  0
 22 10  2  0  0  0  0
 23 11  1  0  0  0  0
 23  8  1  0  0  0  0
 24 13  1  0  0  0  0
 24 23  1  0  0  0  0
 25 26  1  0  0  0  0
 26 12  1  0  0  0  0
 27 20  2  0  0  0  0
 28 33  1  0  0  0  0
 29 31  2  0  0  0  0
 31 30  1  0  0  0  0
 32 28  2  0  0  0  0
 32 29  1  0  0  0  0
 33 15  1  0  0  0  0
 33 30  2  0  0  0  0
 34 29  1  0  0  0  0
 34 36  1  0  0  0  0
 35 34  1  0  0  0  0
 38 37  1  0  0  0  0
 38 44  1  0  0  0  0
 40 44  1  0  0  0  0
 40 49  1  1  0  0  0
 42 46  1  0  0  0  0
 42 48  1  1  0  0  0
 43 39  1  6  0  0  0
 43 40  1  0  0  0  0
 43 42  1  0  0  0  0
 44 48  1  0  0  0  0
 44 41  1  1  0  0  0
 45 51  1  6  0  0  0
 45 47  1  0  0  0  0
 45 50  1  0  0  0  0
 46 53  1  1  0  0  0
 47 43  1  0  0  0  0
 50 46  1  0  0  0  0
 51 52  1  0  0  0  0
 53 54  1  0  0  0  0
 54 55  1  0  0  0  0
M  END
>  <MODEL>
3

>  <REMARK>
 VINA RESULT:      -6.4      3.860     11.375
  Name = 
  8 active torsions:
  status: ('A' for Active; 'I' for Inactive)
    1  A    between atoms: C_1  and  O_53
    2  A    between atoms: C_8  and  C_22
    3  A    between atoms: C_8  and  C_43
    4  A    between atoms: C_10  and  C_32
    5  A    between atoms: C_11  and  CA_29
    6  A    between atoms: C_20  and  C_22
    7  A    between atoms: C_30  and  O_53
    8  A    between atoms: C_33  and  C_52
                            x       y       z     vdW  Elec       q    Type
                         _______ _______ _______ _____ _____    ______ ____

>  <TORSDO>
F 8

$$$$
=
 OpenBabel10272401173D

 55 62  0  0  1  0  0  0  0  0999 V2000
  185.0050  177.9610  138.4470 O   0  0  0  0  0  0  0  0  0  0  0  0
  188.6070  175.3140  134.3460 C   0  0  0  0  0  2  0  0  0  0  0  0
  185.6530  173.8260  135.0090 O   0  0  0  0  0  0  0  0  0  0  0  0
  183.6760  172.9610  137.1760 C   0  0  0  0  0  3  0  0  0  0  0  0
  182.7140  171.8490  137.2680 C   0  0  0  0  0  3  0  0  0  0  0  0
  181.8150  174.5190  136.9550 C   0  0  0  0  0  0  0  0  0  0  0  0
  180.8010  173.4090  136.8860 C   0  0  0  0  0  2  0  0  0  0  0  0
  185.6360  175.1030  137.0320 C   0  0  0  0  0  2  0  0  0  0  0  0
  181.3970  172.0520  137.1540 C   0  0  0  0  0  3  0  0  0  0  0  0
  186.6880  178.0830  140.1830 C   0  0  0  0  0  3  0  0  0  0  0  0
  183.2620  174.2240  137.0190 C   0  0  0  0  0  0  0  0  0  0  0  0
  188.6980  178.3280  138.2530 C   0  0  0  0  0  0  0  0  0  0  0  0
  184.6130  177.8340  137.0850 C   0  0  0  0  0  2  0  0  0  0  0  0
  187.3570  178.2250  137.8650 C   0  0  0  0  0  3  0  0  0  0  0  0
  182.3240  176.8780  136.9260 C   0  0  0  0  0  0  0  0  0  0  0  0
  188.5690  176.2460  135.3620 C   0  0  1  0  0  3  0  0  0  0  0  0
  181.4180  175.7530  136.9080 N   0  0  0  0  0  0  0  0  0  0  0  0
  187.4290  175.2910  135.2570 N   0  0  0  0  0  0  0  0  0  0  0  0
  186.2000  174.7230  135.7000 C   0  0  0  0  0  0  0  0  0  0  0  0
  188.0300  178.1870  140.5770 C   0  0  0  0  0  3  0  0  0  0  0  0
  189.3830  175.9150  136.6270 C   0  0  2  0  0  3  0  0  0  0  0  0
  186.3450  178.1010  138.8230 C   0  0  0  0  0  0  0  0  0  0  0  0
  184.1870  175.3280  136.9640 N   0  0  0  0  0  0  0  0  0  0  0  0
  183.6650  176.6770  136.9420 C   0  0  0  0  0  0  0  0  0  0  0  0
  190.4000  177.0110  136.9800 C   0  0  0  0  0  2  0  0  0  0  0  0
  189.7580  178.3780  137.2040 C   0  0  0  0  0  2  0  0  0  0  0  0
  189.0370  178.3040  139.6140 C   0  0  0  0  0  3  0  0  0  0  0  0
  181.1250  178.7700  135.8050 C   0  0  0  0  0  3  0  0  0  0  0  0
  180.5630  180.7850  137.0360 C   0  0  0  0  0  0  0  0  0  0  0  0
  181.7310  178.9640  138.1420 C   0  0  0  0  0  3  0  0  0  0  0  0
  181.1580  180.2400  138.1870 C   0  0  0  0  0  3  0  0  0  0  0  0
  180.5480  180.0450  135.8480 C   0  0  0  0  0  3  0  0  0  0  0  0
  181.7330  178.2310  136.9480 C   0  0  0  0  0  0  0  0  0  0  0  0
  179.9820  182.1670  137.0480 C   0  0  0  0  0  3  0  0  0  0  0  0
  180.1770  182.8610  135.7000 C   0  0  0  0  0  1  0  0  0  0  0  0
  180.5760  183.0150  138.1770 C   0  0  0  0  0  1  0  0  0  0  0  0
  189.9830  174.5060  136.7410 C   0  0  0  0  0  2  0  0  0  0  0  0
  191.0080  174.1960  135.6460 C   0  0  0  0  0  2  0  0  0  0  0  0
  193.5000  176.2100  135.1610 F   0  0  0  0  0  0  0  0  0  0  0  0
  193.1170  174.6410  136.8930 C   0  0  1  0  0  3  0  0  0  0  0  0
  191.9470  172.5300  137.0960 O   0  0  0  0  0  1  0  0  0  0  0  0
  194.2690  173.9950  134.8320 C   0  0  1  0  0  3  0  0  0  0  0  0
  194.0890  175.1490  135.8230 C   0  0  1  0  0  0  0  0  0  0  0  0
  192.2830  173.5560  136.2030 C   0  0  1  0  0  0  0  0  0  0  0  0
  196.5710  175.5950  135.3870 C   0  0  1  0  0  3  0  0  0  0  0  0
  195.6480  173.3280  134.9370 C   0  0  1  0  0  3  0  0  0  0  0  0
  195.4210  175.6290  136.4180 C   0  0  0  0  0  2  0  0  0  0  0  0
  193.1510  172.9930  135.0820 C   0  0  0  0  0  2  0  0  0  0  0  0
  193.8020  174.1010  137.9990 O   0  0  0  0  0  1  0  0  0  0  0  0
  196.7210  174.3020  134.6840 N   0  0  0  0  0  2  0  0  0  0  0  0
  196.4570  176.7340  134.3730 C   0  0  0  0  0  2  0  0  0  0  0  0
  196.0840  177.9150  135.0100 O   0  0  0  0  0  1  0  0  0  0  0  0
  195.8310  172.7180  136.1880 O   0  0  0  0  0  0  0  0  0  0  0  0
  197.0720  172.0860  136.0980 C   0  0  0  0  0  2  0  0  0  0  0  0
  197.7930  172.3570  137.2700 O   0  0  0  0  0  1  0  0  0  0  0  0
  1 22  1  0  0  0  0
  2 18  1  0  0  0  0
  3 19  2  0  0  0  0
  4  5  1  0  0  0  0
  6 11  1  0  0  0  0
  7  6  1  0  0  0  0
  7  9  1  0  0  0  0
  9  5  2  0  0  0  0
 10 20  1  0  0  0  0
 11  4  2  0  0  0  0
 12 27  1  0  0  0  0
 13  1  1  0  0  0  0
 14 12  2  0  0  0  0
 14 22  1  0  0  0  0
 15 24  2  0  0  0  0
 15 33  1  0  0  0  0
 16  2  1  6  0  0  0
 16 21  1  0  0  0  0
 17 15  1  0  0  0  0
 17  6  2  0  0  0  0
 18 16  1  0  0  0  0
 18 19  1  0  0  0  0
 19  8  1  0  0  0  0
 21 37  1  6  0  0  0
 21 25  1  0  0  0  0
 22 10  2  0  0  0  0
 23 11  1  0  0  0  0
 23  8  1  0  0  0  0
 24 23  1  0  0  0  0
 24 13  1  0  0  0  0
 25 26  1  0  0  0  0
 26 12  1  0  0  0  0
 27 20  2  0  0  0  0
 28 32  2  0  0  0  0
 28 33  1  0  0  0  0
 29 34  1  0  0  0  0
 29 31  2  0  0  0  0
 30 31  1  0  0  0  0
 32 29  1  0  0  0  0
 33 30  2  0  0  0  0
 34 36  1  0  0  0  0
 35 34  1  0  0  0  0
 38 44  1  0  0  0  0
 38 37  1  0  0  0  0
 40 49  1  1  0  0  0
 42 46  1  0  0  0  0
 42 48  1  1  0  0  0
 42 43  1  0  0  0  0
 43 39  1  6  0  0  0
 43 47  1  0  0  0  0
 43 40  1  0  0  0  0
 44 40  1  0  0  0  0
 44 41  1  1  0  0  0
 45 51  1  6  0  0  0
 45 47  1  0  0  0  0
 46 53  1  1  0  0  0
 48 44  1  0  0  0  0
 50 46  1  0  0  0  0
 50 45  1  0  0  0  0
 51 52  1  0  0  0  0
 54 53  1  0  0  0  0
 54 55  1  0  0  0  0
M  END
>  <MODEL>
4

>  <REMARK>
 VINA RESULT:      -5.3      3.798     11.494
  Name = 
  8 active torsions:
  status: ('A' for Active; 'I' for Inactive)
    1  A    between atoms: C_1  and  O_53
    2  A    between atoms: C_8  and  C_22
    3  A    between atoms: C_8  and  C_43
    4  A    between atoms: C_10  and  C_32
    5  A    between atoms: C_11  and  CA_29
    6  A    between atoms: C_20  and  C_22
    7  A    between atoms: C_30  and  O_53
    8  A    between atoms: C_33  and  C_52
                            x       y       z     vdW  Elec       q    Type
                         _______ _______ _______ _____ _____    ______ ____

>  <TORSDO>
F 8

$$$$
