=
 OpenBabel10272414263D

 43 47  0  0  1  0  0  0  0  0999 V2000
  194.3180  173.8980  136.0220 C   0  0  0  0  0  0  0  0  0  0  0  0
  189.9610  175.6060  137.7790 C   0  0  0  0  0  0  0  0  0  0  0  0
  191.9610  174.0170  136.7670 C   0  0  0  0  0  0  0  0  0  0  0  0
  194.6560  175.1090  136.8590 C   0  0  0  0  0  2  0  0  0  0  0  0
  195.1630  173.4880  135.1510 N   0  0  0  0  0  2  0  0  0  0  0  0
  192.2840  175.0720  137.6420 C   0  0  0  0  0  0  0  0  0  0  0  0
  193.0410  173.1310  136.2250 C   0  0  0  0  0  2  0  0  0  0  0  0
  193.7080  175.2950  138.0480 C   0  0  0  0  0  2  0  0  0  0  0  0
  191.2920  176.9990  139.0720 C   0  0  0  0  0  2  0  0  0  0  0  0
  191.2430  175.8530  138.1420 C   0  0  0  0  0  0  0  0  0  0  0  0
  189.6330  174.5850  136.9440 N   0  0  0  0  0  0  0  0  0  0  0  0
  189.0430  176.5730  138.4070 C   0  0  1  0  0  3  0  0  0  0  0  0
  189.8940  177.4530  139.2420 N   0  0  0  0  0  0  0  0  0  0  0  0
  190.6140  173.7840  136.4340 C   0  0  0  0  0  3  0  0  0  0  0  0
  188.6700  178.4570  141.1770 C   0  0  0  0  0  1  0  0  0  0  0  0
  189.5490  177.3140  140.6680 C   0  0  2  0  0  3  0  0  0  0  0  0
  190.8140  177.2380  141.5260 C   0  0  0  0  0  2  0  0  0  0  0  0
  190.5780  176.4350  142.8010 C   0  0  0  0  0  2  0  0  0  0  0  0
  191.3560  176.9930  143.8990 N   0  0  0  0  0  0  0  0  0  0  0  0
  191.8490  175.8930  144.7120 C   0  0  0  0  0  1  0  0  0  0  0  0
  190.5710  177.9050  144.7510 C   0  0  0  0  0  2  0  0  0  0  0  0
  189.4240  177.2880  145.5840 C   0  0  2  0  0  3  0  0  0  0  0  0
  187.1930  177.3100  144.3750 C   0  0  0  0  0  0  0  0  0  0  0  0
  188.1350  177.8970  145.2770 N   0  0  0  0  0  2  0  0  0  0  0  0
  187.4950  176.2620  143.7410 O   0  0  0  0  0  0  0  0  0  0  0  0
  185.8750  177.9350  144.1980 C   0  0  0  0  0  0  0  0  0  0  0  0
  184.0620  178.8350  142.7720 C   0  0  0  0  0  2  0  0  0  0  0  0
  183.7740  178.8920  145.2390 C   0  0  0  0  0  2  0  0  0  0  0  0
  183.6750  179.7150  143.9570 C   0  0  0  0  0  2  0  0  0  0  0  0
  185.1090  178.3110  145.3530 N   0  0  0  0  0  2  0  0  0  0  0  0
  185.4170  178.2200  142.9730 C   0  0  0  0  0  3  0  0  0  0  0  0
  189.7050  177.3500  147.0840 C   0  0  0  0  0  2  0  0  0  0  0  0
  188.2440  178.0710  148.8330 O   0  0  0  0  0  1  0  0  0  0  0  0
  188.4550  177.0580  147.8980 C   0  0  0  0  0  2  0  0  0  0  0  0
  188.3650  177.4020  137.3250 C   0  0  0  0  0  2  0  0  0  0  0  0
  187.4740  178.3390  137.9150 O   0  0  0  0  0  0  0  0  0  0  0  0
  183.9420  178.3530  139.0780 C   0  0  0  0  0  3  0  0  0  0  0  0
  184.0840  177.2740  136.9150 C   0  0  0  0  0  3  0  0  0  0  0  0
  183.3230  177.7040  138.0070 C   0  0  0  0  0  0  0  0  0  0  0  0
  185.3220  178.5690  139.0580 C   0  0  0  0  0  3  0  0  0  0  0  0
  186.0910  178.1360  137.9660 C   0  0  0  0  0  0  0  0  0  0  0  0
  181.8560  177.4690  138.0280 C   0  0  0  0  0  1  0  0  0  0  0  0
  185.4660  177.4880  136.8960 C   0  0  0  0  0  3  0  0  0  0  0  0
  1  7  1  0  0  0  0
  1  4  1  0  0  0  0
  2 10  1  0  0  0  0
  2 12  1  0  0  0  0
  3  6  1  0  0  0  0
  4  8  1  0  0  0  0
  5  1  2  0  0  0  0
  6  8  1  0  0  0  0
  6 10  2  0  0  0  0
  7  3  1  0  0  0  0
  9 13  1  0  0  0  0
 10  9  1  0  0  0  0
 11  2  2  0  0  0  0
 12 35  1  6  0  0  0
 12 13  1  0  0  0  0
 13 16  1  0  0  0  0
 14  3  2  0  0  0  0
 14 11  1  0  0  0  0
 16 15  1  1  0  0  0
 16 17  1  0  0  0  0
 17 18  1  0  0  0  0
 18 19  1  0  0  0  0
 19 20  1  0  0  0  0
 19 21  1  0  0  0  0
 22 21  1  6  0  0  0
 22 32  1  0  0  0  0
 23 24  1  0  0  0  0
 24 22  1  0  0  0  0
 25 23  2  0  0  0  0
 26 23  1  0  0  0  0
 26 30  1  0  0  0  0
 27 31  1  0  0  0  0
 27 29  1  0  0  0  0
 28 30  1  0  0  0  0
 29 28  1  0  0  0  0
 31 26  2  0  0  0  0
 32 34  1  0  0  0  0
 34 33  1  0  0  0  0
 35 36  1  0  0  0  0
 36 41  1  0  0  0  0
 38 39  1  0  0  0  0
 39 42  1  0  0  0  0
 39 37  2  0  0  0  0
 40 37  1  0  0  0  0
 41 40  2  0  0  0  0
 43 38  2  0  0  0  0
 43 41  1  0  0  0  0
M  END
>  <MODEL>
1

>  <REMARK>
 VINA RESULT:      -8.1      0.000      0.000
  Name = 
  13 active torsions:
  status: ('A' for Active; 'I' for Inactive)
    1  A    between atoms: C_1  and  O_28
    2  A    between atoms: C_1  and  C_34
    3  A    between atoms: C_2  and  C_6
    4  A    between atoms: C_2  and  C_13
    5  A    between atoms: C_3  and  C_4
    6  A    between atoms: C_3  and  N_12
    7  A    between atoms: C_4  and  C_15
    8  A    between atoms: C_4  and  N_22
    9  A    between atoms: C_6  and  N_12
   10  A    between atoms: C_11  and  C_14
   11  A    between atoms: C_13  and  N_38
   12  A    between atoms: C_15  and  C_42
   13  A    between atoms: O_28  and  C_35
                            x       y       z     vdW  Elec       q    Type
                         _______ _______ _______ _____ _____    ______ ____

>  <TORSDO>
F 13

$$$$
=
 OpenBabel10272414263D

 43 47  0  0  1  0  0  0  0  0999 V2000
  193.5540  172.6510  135.7080 C   0  0  0  0  0  0  0  0  0  0  0  0
  191.7710  176.4050  138.4870 C   0  0  0  0  0  0  0  0  0  0  0  0
  193.3000  174.8500  136.8150 C   0  0  0  0  0  0  0  0  0  0  0  0
  192.0700  172.4030  135.8360 C   0  0  0  0  0  2  0  0  0  0  0  0
  194.3240  171.6780  135.3890 N   0  0  0  0  0  2  0  0  0  0  0  0
  191.9020  174.6860  136.8350 C   0  0  0  0  0  0  0  0  0  0  0  0
  194.1430  174.0220  135.8930 C   0  0  0  0  0  2  0  0  0  0  0  0
  191.2540  173.6960  135.9160 C   0  0  0  0  0  2  0  0  0  0  0  0
  189.6960  175.5460  137.9020 C   0  0  0  0  0  2  0  0  0  0  0  0
  191.1570  175.4970  137.6900 C   0  0  0  0  0  0  0  0  0  0  0  0
  193.1190  176.5820  138.4720 N   0  0  0  0  0  0  0  0  0  0  0  0
  190.7890  177.1210  139.3200 C   0  0  1  0  0  3  0  0  0  0  0  0
  189.4630  176.5800  138.9350 N   0  0  0  0  0  0  0  0  0  0  0  0
  193.8930  175.8200  137.6450 C   0  0  0  0  0  3  0  0  0  0  0  0
  187.7380  178.3390  139.3600 C   0  0  0  0  0  1  0  0  0  0  0  0
  188.6240  177.6310  138.3330 C   0  0  2  0  0  3  0  0  0  0  0  0
  187.7390  177.0510  137.2270 C   0  0  0  0  0  2  0  0  0  0  0  0
  186.2660  177.3660  137.4650 C   0  0  0  0  0  2  0  0  0  0  0  0
  185.4430  176.2100  137.1370 N   0  0  0  0  0  0  0  0  0  0  0  0
  185.3410  176.1200  135.6900 C   0  0  0  0  0  1  0  0  0  0  0  0
  184.0870  176.2920  137.7090 C   0  0  0  0  0  2  0  0  0  0  0  0
  183.5890  177.6850  138.1610 C   0  0  2  0  0  3  0  0  0  0  0  0
  184.1540  178.9360  140.2950 C   0  0  0  0  0  0  0  0  0  0  0  0
  183.5790  177.8180  139.6140 N   0  0  0  0  0  2  0  0  0  0  0  0
  184.7740  179.8220  139.6460 O   0  0  0  0  0  0  0  0  0  0  0  0
  184.0110  179.0440  141.7550 C   0  0  0  0  0  0  0  0  0  0  0  0
  184.9450  179.4420  144.0130 C   0  0  0  0  0  2  0  0  0  0  0  0
  182.5230  178.9320  143.8000 C   0  0  0  0  0  2  0  0  0  0  0  0
  183.8060  178.5800  144.5490 C   0  0  0  0  0  2  0  0  0  0  0  0
  182.7350  178.7930  142.3620 N   0  0  0  0  0  2  0  0  0  0  0  0
  185.0760  179.3030  142.5230 C   0  0  0  0  0  3  0  0  0  0  0  0
  182.2190  178.0220  137.5800 C   0  0  0  0  0  2  0  0  0  0  0  0
  180.2020  176.7440  137.7090 O   0  0  0  0  0  1  0  0  0  0  0  0
  181.0950  177.5060  138.4630 C   0  0  0  0  0  2  0  0  0  0  0  0
  191.0520  176.8170  140.7880 C   0  0  0  0  0  2  0  0  0  0  0  0
  189.8880  176.2630  141.3880 O   0  0  0  0  0  0  0  0  0  0  0  0
  189.9710  177.1330  145.0020 C   0  0  0  0  0  3  0  0  0  0  0  0
  187.6750  177.0300  144.2400 C   0  0  0  0  0  3  0  0  0  0  0  0
  188.6030  177.2430  145.2650 C   0  0  0  0  0  0  0  0  0  0  0  0
  190.4090  176.8070  143.7170 C   0  0  0  0  0  3  0  0  0  0  0  0
  189.4810  176.5890  142.6850 C   0  0  0  0  0  0  0  0  0  0  0  0
  188.1340  177.5850  146.6330 C   0  0  0  0  0  1  0  0  0  0  0  0
  188.1140  176.7020  142.9540 C   0  0  0  0  0  3  0  0  0  0  0  0
  1  4  1  0  0  0  0
  1  7  1  0  0  0  0
  2 12  1  0  0  0  0
  3  6  2  0  0  0  0
  3 14  1  0  0  0  0
  4  8  1  0  0  0  0
  5  1  2  0  0  0  0
  6 10  1  0  0  0  0
  7  3  1  0  0  0  0
  8  6  1  0  0  0  0
  9 13  1  0  0  0  0
 10  9  1  0  0  0  0
 10  2  2  0  0  0  0
 11  2  1  0  0  0  0
 12 35  1  1  0  0  0
 13 12  1  0  0  0  0
 14 11  2  0  0  0  0
 16 13  1  0  0  0  0
 16 15  1  1  0  0  0
 17 18  1  0  0  0  0
 17 16  1  0  0  0  0
 19 18  1  0  0  0  0
 19 21  1  0  0  0  0
 20 19  1  0  0  0  0
 21 22  1  0  0  0  0
 22 32  1  1  0  0  0
 22 24  1  0  0  0  0
 23 26  1  0  0  0  0
 24 23  1  0  0  0  0
 25 23  2  0  0  0  0
 26 30  1  0  0  0  0
 26 31  2  0  0  0  0
 27 29  1  0  0  0  0
 28 29  1  0  0  0  0
 30 28  1  0  0  0  0
 31 27  1  0  0  0  0
 32 34  1  0  0  0  0
 33 34  1  0  0  0  0
 35 36  1  0  0  0  0
 36 41  1  0  0  0  0
 37 39  1  0  0  0  0
 38 39  2  0  0  0  0
 39 42  1  0  0  0  0
 40 37  2  0  0  0  0
 41 43  2  0  0  0  0
 41 40  1  0  0  0  0
 43 38  1  0  0  0  0
M  END
>  <MODEL>
2

>  <REMARK>
 VINA RESULT:      -7.6      2.278      6.299
  Name = 
  13 active torsions:
  status: ('A' for Active; 'I' for Inactive)
    1  A    between atoms: C_1  and  O_28
    2  A    between atoms: C_1  and  C_34
    3  A    between atoms: C_2  and  C_6
    4  A    between atoms: C_2  and  C_13
    5  A    between atoms: C_3  and  C_4
    6  A    between atoms: C_3  and  N_12
    7  A    between atoms: C_4  and  C_15
    8  A    between atoms: C_4  and  N_22
    9  A    between atoms: C_6  and  N_12
   10  A    between atoms: C_11  and  C_14
   11  A    between atoms: C_13  and  N_38
   12  A    between atoms: C_15  and  C_42
   13  A    between atoms: O_28  and  C_35
                            x       y       z     vdW  Elec       q    Type
                         _______ _______ _______ _____ _____    ______ ____

>  <TORSDO>
F 13

$$$$
=
 OpenBabel10272414263D

 43 47  0  0  1  0  0  0  0  0999 V2000
  186.6310  177.9150  146.5230 C   0  0  0  0  0  0  0  0  0  0  0  0
  183.6320  178.7580  142.6130 C   0  0  0  0  0  0  0  0  0  0  0  0
  184.8990  178.8890  145.0480 C   0  0  0  0  0  0  0  0  0  0  0  0
  187.3410  177.3330  145.3240 C   0  0  0  0  0  2  0  0  0  0  0  0
  186.9620  177.5200  147.6960 N   0  0  0  0  0  2  0  0  0  0  0  0
  185.6110  178.4550  143.9140 C   0  0  0  0  0  0  0  0  0  0  0  0
  185.5850  178.9840  146.3780 C   0  0  0  0  0  2  0  0  0  0  0  0
  187.0640  178.1080  144.0330 C   0  0  0  0  0  2  0  0  0  0  0  0
  185.4370  178.0100  141.3620 C   0  0  0  0  0  2  0  0  0  0  0  0
  184.9390  178.4080  142.6930 C   0  0  0  0  0  0  0  0  0  0  0  0
  182.9340  179.1880  143.6970 N   0  0  0  0  0  0  0  0  0  0  0  0
  183.1310  178.6010  141.2360 C   0  0  1  0  0  3  0  0  0  0  0  0
  184.2900  178.1360  140.4360 N   0  0  0  0  0  0  0  0  0  0  0  0
  183.5490  179.2620  144.9140 C   0  0  0  0  0  3  0  0  0  0  0  0
  183.4570  179.9810  138.9690 C   0  0  0  0  0  1  0  0  0  0  0  0
  184.6500  179.1300  139.4110 C   0  0  2  0  0  3  0  0  0  0  0  0
  185.2560  178.4470  138.1830 C   0  0  0  0  0  2  0  0  0  0  0  0
  186.7030  178.0340  138.4280 C   0  0  0  0  0  2  0  0  0  0  0  0
  187.6060  178.8900  137.6700 N   0  0  0  0  0  0  0  0  0  0  0  0
  187.5530  178.4830  136.2750 C   0  0  0  0  0  1  0  0  0  0  0  0
  189.0010  178.8080  138.1400 C   0  0  0  0  0  2  0  0  0  0  0  0
  189.5120  177.4270  138.6120 C   0  0  2  0  0  3  0  0  0  0  0  0
  189.5970  177.2570  141.1420 C   0  0  0  0  0  0  0  0  0  0  0  0
  190.2240  177.5110  139.8820 N   0  0  0  0  0  2  0  0  0  0  0  0
  188.3580  177.0270  141.1970 O   0  0  0  0  0  0  0  0  0  0  0  0
  190.4100  177.2630  142.3670 C   0  0  0  0  0  0  0  0  0  0  0  0
  191.5910  176.0980  144.2060 C   0  0  0  0  0  2  0  0  0  0  0  0
  191.6280  178.5810  144.1530 C   0  0  0  0  0  2  0  0  0  0  0  0
  191.3790  177.3610  145.0350 C   0  0  0  0  0  2  0  0  0  0  0  0
  190.7830  178.5140  142.9640 N   0  0  0  0  0  2  0  0  0  0  0  0
  190.7410  176.1120  142.9680 C   0  0  0  0  0  3  0  0  0  0  0  0
  190.3750  176.7420  137.5550 C   0  0  0  0  0  2  0  0  0  0  0  0
  191.2580  174.5840  138.0850 O   0  0  0  0  0  1  0  0  0  0  0  0
  190.1530  175.2380  137.5420 C   0  0  0  0  0  2  0  0  0  0  0  0
  182.0400  177.5400  141.2130 C   0  0  0  0  0  2  0  0  0  0  0  0
  181.3170  177.6100  139.9910 O   0  0  0  0  0  0  0  0  0  0  0  0
  180.4510  174.3600  138.4080 C   0  0  0  0  0  3  0  0  0  0  0  0
  181.9600  175.5910  136.9700 C   0  0  0  0  0  3  0  0  0  0  0  0
  181.1890  174.4520  137.2250 C   0  0  0  0  0  0  0  0  0  0  0  0
  180.4870  175.4030  139.3350 C   0  0  0  0  0  3  0  0  0  0  0  0
  181.2620  176.5480  139.0840 C   0  0  0  0  0  0  0  0  0  0  0  0
  181.1570  173.3400  136.2400 C   0  0  0  0  0  1  0  0  0  0  0  0
  181.9970  176.6350  137.8980 C   0  0  0  0  0  3  0  0  0  0  0  0
  1  5  2  0  0  0  0
  2 10  2  0  0  0  0
  2 11  1  0  0  0  0
  3  7  1  0  0  0  0
  4  1  1  0  0  0  0
  6  8  1  0  0  0  0
  6  3  2  0  0  0  0
  7  1  1  0  0  0  0
  8  4  1  0  0  0  0
  9 10  1  0  0  0  0
 10  6  1  0  0  0  0
 11 14  2  0  0  0  0
 12 35  1  1  0  0  0
 12  2  1  0  0  0  0
 13 12  1  0  0  0  0
 13  9  1  0  0  0  0
 14  3  1  0  0  0  0
 16 15  1  6  0  0  0
 16 13  1  0  0  0  0
 17 18  1  0  0  0  0
 17 16  1  0  0  0  0
 19 21  1  0  0  0  0
 19 18  1  0  0  0  0
 20 19  1  0  0  0  0
 21 22  1  0  0  0  0
 22 32  1  6  0  0  0
 22 24  1  0  0  0  0
 23 25  2  0  0  0  0
 23 26  1  0  0  0  0
 24 23  1  0  0  0  0
 26 30  1  0  0  0  0
 26 31  2  0  0  0  0
 27 29  1  0  0  0  0
 28 29  1  0  0  0  0
 30 28  1  0  0  0  0
 31 27  1  0  0  0  0
 34 32  1  0  0  0  0
 34 33  1  0  0  0  0
 36 35  1  0  0  0  0
 37 40  1  0  0  0  0
 38 39  1  0  0  0  0
 38 43  2  0  0  0  0
 39 37  2  0  0  0  0
 41 40  2  0  0  0  0
 41 36  1  0  0  0  0
 42 39  1  0  0  0  0
 43 41  1  0  0  0  0
M  END
>  <MODEL>
3

>  <REMARK>
 VINA RESULT:      -7.5      2.691      8.249
  Name = 
  13 active torsions:
  status: ('A' for Active; 'I' for Inactive)
    1  A    between atoms: C_1  and  O_28
    2  A    between atoms: C_1  and  C_34
    3  A    between atoms: C_2  and  C_6
    4  A    between atoms: C_2  and  C_13
    5  A    between atoms: C_3  and  C_4
    6  A    between atoms: C_3  and  N_12
    7  A    between atoms: C_4  and  C_15
    8  A    between atoms: C_4  and  N_22
    9  A    between atoms: C_6  and  N_12
   10  A    between atoms: C_11  and  C_14
   11  A    between atoms: C_13  and  N_38
   12  A    between atoms: C_15  and  C_42
   13  A    between atoms: O_28  and  C_35
                            x       y       z     vdW  Elec       q    Type
                         _______ _______ _______ _____ _____    ______ ____

>  <TORSDO>
F 13

$$$$
=
 OpenBabel10272414263D

 43 47  0  0  1  0  0  0  0  0999 V2000
  192.1490  175.6410  147.3370 C   0  0  0  0  0  0  0  0  0  0  0  0
  188.4890  177.7180  144.6380 C   0  0  0  0  0  0  0  0  0  0  0  0
  190.4280  177.2210  146.5200 C   0  0  0  0  0  0  0  0  0  0  0  0
  192.2360  175.0100  145.9670 C   0  0  0  0  0  2  0  0  0  0  0  0
  192.6920  175.0460  148.3320 N   0  0  0  0  0  2  0  0  0  0  0  0
  190.5820  176.7240  145.2120 C   0  0  0  0  0  0  0  0  0  0  0  0
  191.4890  176.9750  147.5500 C   0  0  0  0  0  2  0  0  0  0  0  0
  191.8200  175.9650  144.8440 C   0  0  0  0  0  2  0  0  0  0  0  0
  189.4930  176.6200  142.8570 C   0  0  0  0  0  2  0  0  0  0  0  0
  189.5820  177.0020  144.2810 C   0  0  0  0  0  0  0  0  0  0  0  0
  188.3310  178.2130  145.8940 N   0  0  0  0  0  0  0  0  0  0  0  0
  187.5600  177.8580  143.5020 C   0  0  1  0  0  3  0  0  0  0  0  0
  188.2100  177.1680  142.3620 N   0  0  0  0  0  0  0  0  0  0  0  0
  189.2860  177.9780  146.8410 C   0  0  0  0  0  3  0  0  0  0  0  0
  187.3160  178.3930  140.3760 C   0  0  0  0  0  1  0  0  0  0  0  0
  188.5180  178.1200  141.2810 C   0  0  2  0  0  3  0  0  0  0  0  0
  189.6810  177.6110  140.4260 C   0  0  0  0  0  2  0  0  0  0  0  0
  189.4910  177.9650  138.9550 C   0  0  0  0  0  2  0  0  0  0  0  0
  189.6350  176.7750  138.1280 N   0  0  0  0  0  0  0  0  0  0  0  0
  190.7610  176.0060  138.6290 C   0  0  0  0  0  1  0  0  0  0  0  0
  189.8650  177.0910  136.7060 C   0  0  0  0  0  2  0  0  0  0  0  0
  188.8710  176.5040  135.6770 C   0  0  2  0  0  3  0  0  0  0  0  0
  186.5990  177.1240  136.6210 C   0  0  0  0  0  0  0  0  0  0  0  0
  187.5940  176.1530  136.2870 N   0  0  0  0  0  2  0  0  0  0  0  0
  186.8380  178.3530  136.4650 O   0  0  0  0  0  0  0  0  0  0  0  0
  185.2980  176.6770  137.1390 C   0  0  0  0  0  0  0  0  0  0  0  0
  183.0370  177.1330  138.0410 C   0  0  0  0  0  2  0  0  0  0  0  0
  183.7520  174.7700  137.7600 C   0  0  0  0  0  2  0  0  0  0  0  0
  183.1230  175.7720  138.7260 C   0  0  0  0  0  2  0  0  0  0  0  0
  185.0420  175.2740  137.2960 N   0  0  0  0  0  2  0  0  0  0  0  0
  184.3800  177.5700  137.5320 C   0  0  0  0  0  3  0  0  0  0  0  0
  189.4560  175.3090  134.9280 C   0  0  0  0  0  2  0  0  0  0  0  0
  189.6660  172.9280  134.9170 O   0  0  0  0  0  1  0  0  0  0  0  0
  189.1940  174.0060  135.6650 C   0  0  0  0  0  2  0  0  0  0  0  0
  186.2470  177.1620  143.8330 C   0  0  0  0  0  2  0  0  0  0  0  0
  185.2840  178.1160  144.2620 O   0  0  0  0  0  0  0  0  0  0  0  0
  181.7770  179.0240  143.4270 C   0  0  0  0  0  3  0  0  0  0  0  0
  183.0060  178.5640  141.3930 C   0  0  0  0  0  3  0  0  0  0  0  0
  181.8170  178.9260  142.0340 C   0  0  0  0  0  0  0  0  0  0  0  0
  182.9230  178.7560  144.1780 C   0  0  0  0  0  3  0  0  0  0  0  0
  184.1190  178.3880  143.5390 C   0  0  0  0  0  0  0  0  0  0  0  0
  180.5960  179.2060  141.2340 C   0  0  0  0  0  1  0  0  0  0  0  0
  184.1540  178.2940  142.1450 C   0  0  0  0  0  3  0  0  0  0  0  0
  1  7  1  0  0  0  0
  1  5  2  0  0  0  0
  2 11  1  0  0  0  0
  3 14  1  0  0  0  0
  3  7  1  0  0  0  0
  4  1  1  0  0  0  0
  6  3  2  0  0  0  0
  8  6  1  0  0  0  0
  8  4  1  0  0  0  0
  9 10  1  0  0  0  0
 10  2  2  0  0  0  0
 10  6  1  0  0  0  0
 11 14  2  0  0  0  0
 12 35  1  1  0  0  0
 12  2  1  0  0  0  0
 13  9  1  0  0  0  0
 13 12  1  0  0  0  0
 16 15  1  6  0  0  0
 16 13  1  0  0  0  0
 17 16  1  0  0  0  0
 18 17  1  0  0  0  0
 19 20  1  0  0  0  0
 19 18  1  0  0  0  0
 21 19  1  0  0  0  0
 22 32  1  1  0  0  0
 22 24  1  0  0  0  0
 22 21  1  0  0  0  0
 23 26  1  0  0  0  0
 24 23  1  0  0  0  0
 25 23  2  0  0  0  0
 26 30  1  0  0  0  0
 26 31  2  0  0  0  0
 27 29  1  0  0  0  0
 28 29  1  0  0  0  0
 30 28  1  0  0  0  0
 31 27  1  0  0  0  0
 32 34  1  0  0  0  0
 33 34  1  0  0  0  0
 35 36  1  0  0  0  0
 37 40  1  0  0  0  0
 38 39  1  0  0  0  0
 38 43  2  0  0  0  0
 39 37  2  0  0  0  0
 41 40  2  0  0  0  0
 41 36  1  0  0  0  0
 42 39  1  0  0  0  0
 43 41  1  0  0  0  0
M  END
>  <MODEL>
4

>  <REMARK>
 VINA RESULT:      -7.5      2.401      7.957
  Name = 
  13 active torsions:
  status: ('A' for Active; 'I' for Inactive)
    1  A    between atoms: C_1  and  O_28
    2  A    between atoms: C_1  and  C_34
    3  A    between atoms: C_2  and  C_6
    4  A    between atoms: C_2  and  C_13
    5  A    between atoms: C_3  and  C_4
    6  A    between atoms: C_3  and  N_12
    7  A    between atoms: C_4  and  C_15
    8  A    between atoms: C_4  and  N_22
    9  A    between atoms: C_6  and  N_12
   10  A    between atoms: C_11  and  C_14
   11  A    between atoms: C_13  and  N_38
   12  A    between atoms: C_15  and  C_42
   13  A    between atoms: O_28  and  C_35
                            x       y       z     vdW  Elec       q    Type
                         _______ _______ _______ _____ _____    ______ ____

>  <TORSDO>
F 13

$$$$
=
 OpenBabel10272414263D

 43 47  0  0  1  0  0  0  0  0999 V2000
  187.8490  178.1080  147.8820 C   0  0  0  0  0  0  0  0  0  0  0  0
  186.4290  177.9340  143.0920 C   0  0  0  0  0  0  0  0  0  0  0  0
  187.4140  177.3100  145.5810 C   0  0  0  0  0  0  0  0  0  0  0  0
  186.7880  179.1720  147.7260 C   0  0  0  0  0  2  0  0  0  0  0  0
  188.6560  178.1740  148.8750 N   0  0  0  0  0  2  0  0  0  0  0  0
  186.3430  178.2160  145.4610 C   0  0  0  0  0  0  0  0  0  0  0  0
  187.9460  176.9460  146.9340 C   0  0  0  0  0  2  0  0  0  0  0  0
  185.7210  178.8020  146.6920 C   0  0  0  0  0  2  0  0  0  0  0  0
  184.7610  179.3960  143.7730 C   0  0  0  0  0  2  0  0  0  0  0  0
  185.8650  178.5040  144.1840 C   0  0  0  0  0  0  0  0  0  0  0  0
  187.4570  177.0490  143.1920 N   0  0  0  0  0  0  0  0  0  0  0  0
  185.7800  178.4080  141.8570 C   0  0  1  0  0  3  0  0  0  0  0  0
  184.7060  179.3310  142.2960 N   0  0  0  0  0  0  0  0  0  0  0  0
  187.9560  176.7250  144.4200 C   0  0  0  0  0  3  0  0  0  0  0  0
  182.4960  178.5150  143.1350 C   0  0  0  0  0  1  0  0  0  0  0  0
  183.3810  178.8080  141.9210 C   0  0  2  0  0  3  0  0  0  0  0  0
  183.5190  177.5330  141.0860 C   0  0  0  0  0  2  0  0  0  0  0  0
  182.3610  177.3780  140.1050 C   0  0  0  0  0  2  0  0  0  0  0  0
  182.1810  178.6050  139.3400 N   0  0  0  0  0  0  0  0  0  0  0  0
  180.7650  178.7580  139.0540 C   0  0  0  0  0  1  0  0  0  0  0  0
  182.9290  178.6020  138.0690 C   0  0  0  0  0  2  0  0  0  0  0  0
  182.7740  177.3640  137.1560 C   0  0  2  0  0  3  0  0  0  0  0  0
  184.2920  175.3400  137.3460 C   0  0  0  0  0  0  0  0  0  0  0  0
  184.0450  176.6860  136.9300 N   0  0  0  0  0  2  0  0  0  0  0  0
  183.4210  174.7130  138.0100 O   0  0  0  0  0  0  0  0  0  0  0  0
  185.5650  174.6960  136.9900 C   0  0  0  0  0  0  0  0  0  0  0  0
  187.1430  172.7890  137.0760 C   0  0  0  0  0  2  0  0  0  0  0  0
  187.7880  174.8110  135.7840 C   0  0  0  0  0  2  0  0  0  0  0  0
  188.2560  173.8030  136.8320 C   0  0  0  0  0  2  0  0  0  0  0  0
  186.5290  175.4160  136.2080 N   0  0  0  0  0  2  0  0  0  0  0  0
  185.8590  173.4730  137.4500 C   0  0  0  0  0  3  0  0  0  0  0  0
  182.1050  177.7100  135.8280 C   0  0  0  0  0  2  0  0  0  0  0  0
  180.5850  176.0940  136.7200 O   0  0  0  0  0  1  0  0  0  0  0  0
  180.8610  176.8680  135.5940 C   0  0  0  0  0  2  0  0  0  0  0  0
  186.7910  179.1720  141.0150 C   0  0  0  0  0  2  0  0  0  0  0  0
  186.8670  178.6070  139.7120 O   0  0  0  0  0  0  0  0  0  0  0  0
  190.1290  176.8410  139.4560 C   0  0  0  0  0  3  0  0  0  0  0  0
  189.4840  177.6800  137.2790 C   0  0  0  0  0  3  0  0  0  0  0  0
  190.3920  176.9960  138.0930 C   0  0  0  0  0  0  0  0  0  0  0  0
  188.9610  177.3730  140.0050 C   0  0  0  0  0  3  0  0  0  0  0  0
  188.0470  178.0650  139.1930 C   0  0  0  0  0  0  0  0  0  0  0  0
  191.6370  176.4340  137.5070 C   0  0  0  0  0  1  0  0  0  0  0  0
  188.3140  178.2150  137.8290 C   0  0  0  0  0  3  0  0  0  0  0  0
  1  5  2  0  0  0  0
  2 11  2  0  0  0  0
  2 10  1  0  0  0  0
  3  7  1  0  0  0  0
  4  1  1  0  0  0  0
  6  3  1  0  0  0  0
  6  8  1  0  0  0  0
  7  1  1  0  0  0  0
  8  4  1  0  0  0  0
  9 10  1  0  0  0  0
 10  6  2  0  0  0  0
 11 14  1  0  0  0  0
 12 35  1  6  0  0  0
 12 13  1  0  0  0  0
 12  2  1  0  0  0  0
 13  9  1  0  0  0  0
 14  3  2  0  0  0  0
 16 13  1  0  0  0  0
 16 15  1  1  0  0  0
 17 16  1  0  0  0  0
 18 17  1  0  0  0  0
 19 18  1  0  0  0  0
 20 19  1  0  0  0  0
 21 19  1  0  0  0  0
 22 32  1  6  0  0  0
 22 21  1  0  0  0  0
 23 25  2  0  0  0  0
 24 22  1  0  0  0  0
 24 23  1  0  0  0  0
 26 23  1  0  0  0  0
 26 31  2  0  0  0  0
 27 31  1  0  0  0  0
 28 30  1  0  0  0  0
 28 29  1  0  0  0  0
 29 27  1  0  0  0  0
 30 26  1  0  0  0  0
 34 32  1  0  0  0  0
 34 33  1  0  0  0  0
 36 35  1  0  0  0  0
 37 40  1  0  0  0  0
 38 43  2  0  0  0  0
 38 39  1  0  0  0  0
 39 37  2  0  0  0  0
 41 36  1  0  0  0  0
 41 40  2  0  0  0  0
 42 39  1  0  0  0  0
 43 41  1  0  0  0  0
M  END
>  <MODEL>
5

>  <REMARK>
 VINA RESULT:      -7.4      3.078      9.462
  Name = 
  13 active torsions:
  status: ('A' for Active; 'I' for Inactive)
    1  A    between atoms: C_1  and  O_28
    2  A    between atoms: C_1  and  C_34
    3  A    between atoms: C_2  and  C_6
    4  A    between atoms: C_2  and  C_13
    5  A    between atoms: C_3  and  C_4
    6  A    between atoms: C_3  and  N_12
    7  A    between atoms: C_4  and  C_15
    8  A    between atoms: C_4  and  N_22
    9  A    between atoms: C_6  and  N_12
   10  A    between atoms: C_11  and  C_14
   11  A    between atoms: C_13  and  N_38
   12  A    between atoms: C_15  and  C_42
   13  A    between atoms: O_28  and  C_35
                            x       y       z     vdW  Elec       q    Type
                         _______ _______ _______ _____ _____    ______ ____

>  <TORSDO>
F 13

$$$$
=
 OpenBabel10272414263D

 43 47  0  0  1  0  0  0  0  0999 V2000
  192.2060  175.6090  147.2250 C   0  0  0  0  0  0  0  0  0  0  0  0
  188.6120  177.7230  144.4680 C   0  0  0  0  0  0  0  0  0  0  0  0
  190.5450  177.2240  146.3570 C   0  0  0  0  0  0  0  0  0  0  0  0
  192.2570  174.9210  145.8820 C   0  0  0  0  0  2  0  0  0  0  0  0
  192.7330  175.0320  148.2400 N   0  0  0  0  0  2  0  0  0  0  0  0
  190.6680  176.6690  145.0690 C   0  0  0  0  0  0  0  0  0  0  0  0
  191.6030  176.9760  147.3890 C   0  0  0  0  0  2  0  0  0  0  0  0
  191.8710  175.8460  144.7240 C   0  0  0  0  0  2  0  0  0  0  0  0
  189.5570  176.5160  142.7270 C   0  0  0  0  0  2  0  0  0  0  0  0
  189.6730  176.9490  144.1340 C   0  0  0  0  0  0  0  0  0  0  0  0
  188.4840  178.2740  145.7040 N   0  0  0  0  0  0  0  0  0  0  0  0
  187.6810  177.8560  143.3330 C   0  0  1  0  0  3  0  0  0  0  0  0
  188.2940  177.0940  142.2180 N   0  0  0  0  0  0  0  0  0  0  0  0
  189.4360  178.0390  146.6530 C   0  0  0  0  0  3  0  0  0  0  0  0
  187.4020  178.4190  140.2940 C   0  0  0  0  0  1  0  0  0  0  0  0
  188.6310  177.9890  141.0980 C   0  0  2  0  0  3  0  0  0  0  0  0
  189.6350  177.3210  140.1550 C   0  0  0  0  0  2  0  0  0  0  0  0
  188.9860  176.9340  138.8300 C   0  0  0  0  0  2  0  0  0  0  0  0
  189.7920  177.4150  137.7150 N   0  0  0  0  0  0  0  0  0  0  0  0
  189.0530  178.4710  137.0420 C   0  0  0  0  0  1  0  0  0  0  0  0
  190.1100  176.3560  136.7400 C   0  0  0  0  0  2  0  0  0  0  0  0
  190.6090  175.0030  137.2980 C   0  0  2  0  0  3  0  0  0  0  0  0
  193.1170  175.2850  137.5630 C   0  0  0  0  0  0  0  0  0  0  0  0
  191.9830  174.7190  136.9000 N   0  0  0  0  0  2  0  0  0  0  0  0
  192.9530  176.1320  138.4830 O   0  0  0  0  0  0  0  0  0  0  0  0
  194.4690  174.8680  137.1650 C   0  0  0  0  0  0  0  0  0  0  0  0
  196.3010  173.2030  137.0780 C   0  0  0  0  0  2  0  0  0  0  0  0
  196.6590  175.4240  136.0220 C   0  0  0  0  0  2  0  0  0  0  0  0
  197.2610  174.3840  136.9650 C   0  0  0  0  0  2  0  0  0  0  0  0
  195.3250  175.7970  136.4830 N   0  0  0  0  0  2  0  0  0  0  0  0
  194.9310  173.6560  137.4970 C   0  0  0  0  0  3  0  0  0  0  0  0
  189.6880  173.8480  136.9140 C   0  0  0  0  0  2  0  0  0  0  0  0
  187.3050  173.7420  137.0860 O   0  0  0  0  0  1  0  0  0  0  0  0
  188.3520  174.3490  136.3920 C   0  0  0  0  0  2  0  0  0  0  0  0
  186.3440  177.2280  143.7000 C   0  0  0  0  0  2  0  0  0  0  0  0
  185.4240  178.2370  144.0990 O   0  0  0  0  0  0  0  0  0  0  0  0
  182.8050  178.5660  141.4800 C   0  0  0  0  0  3  0  0  0  0  0  0
  181.8060  178.8240  143.6700 C   0  0  0  0  0  3  0  0  0  0  0  0
  181.6800  178.7880  142.2770 C   0  0  0  0  0  0  0  0  0  0  0  0
  184.0550  178.3820  142.0750 C   0  0  0  0  0  3  0  0  0  0  0  0
  184.1870  178.4200  143.4730 C   0  0  0  0  0  0  0  0  0  0  0  0
  180.3500  178.9900  141.6460 C   0  0  0  0  0  1  0  0  0  0  0  0
  183.0570  178.6420  144.2660 C   0  0  0  0  0  3  0  0  0  0  0  0
  1  7  1  0  0  0  0
  1  5  2  0  0  0  0
  2 11  1  0  0  0  0
  3 14  1  0  0  0  0
  3  7  1  0  0  0  0
  4  1  1  0  0  0  0
  6  3  2  0  0  0  0
  8  6  1  0  0  0  0
  8  4  1  0  0  0  0
  9 10  1  0  0  0  0
 10  2  2  0  0  0  0
 10  6  1  0  0  0  0
 11 14  2  0  0  0  0
 12 35  1  1  0  0  0
 12  2  1  0  0  0  0
 13  9  1  0  0  0  0
 13 12  1  0  0  0  0
 16 15  1  6  0  0  0
 16 13  1  0  0  0  0
 17 16  1  0  0  0  0
 18 17  1  0  0  0  0
 19 18  1  0  0  0  0
 20 19  1  0  0  0  0
 21 19  1  0  0  0  0
 22 21  1  6  0  0  0
 23 25  2  0  0  0  0
 24 22  1  0  0  0  0
 24 23  1  0  0  0  0
 26 31  2  0  0  0  0
 26 23  1  0  0  0  0
 27 31  1  0  0  0  0
 28 30  1  0  0  0  0
 28 29  1  0  0  0  0
 29 27  1  0  0  0  0
 30 26  1  0  0  0  0
 32 22  1  0  0  0  0
 34 32  1  0  0  0  0
 34 33  1  0  0  0  0
 35 36  1  0  0  0  0
 37 40  2  0  0  0  0
 37 39  1  0  0  0  0
 38 43  1  0  0  0  0
 39 38  2  0  0  0  0
 40 41  1  0  0  0  0
 41 36  1  0  0  0  0
 41 43  2  0  0  0  0
 42 39  1  0  0  0  0
M  END
>  <MODEL>
6

>  <REMARK>
 VINA RESULT:      -7.2      2.298      9.080
  Name = 
  13 active torsions:
  status: ('A' for Active; 'I' for Inactive)
    1  A    between atoms: C_1  and  O_28
    2  A    between atoms: C_1  and  C_34
    3  A    between atoms: C_2  and  C_6
    4  A    between atoms: C_2  and  C_13
    5  A    between atoms: C_3  and  C_4
    6  A    between atoms: C_3  and  N_12
    7  A    between atoms: C_4  and  C_15
    8  A    between atoms: C_4  and  N_22
    9  A    between atoms: C_6  and  N_12
   10  A    between atoms: C_11  and  C_14
   11  A    between atoms: C_13  and  N_38
   12  A    between atoms: C_15  and  C_42
   13  A    between atoms: O_28  and  C_35
                            x       y       z     vdW  Elec       q    Type
                         _______ _______ _______ _____ _____    ______ ____

>  <TORSDO>
F 13

$$$$
=
 OpenBabel10272414263D

 43 47  0  0  1  0  0  0  0  0999 V2000
  192.2500  175.7380  147.7570 C   0  0  0  0  0  0  0  0  0  0  0  0
  188.5730  177.8050  145.0750 C   0  0  0  0  0  0  0  0  0  0  0  0
  190.5100  177.3050  146.9590 C   0  0  0  0  0  0  0  0  0  0  0  0
  192.3540  175.1330  146.3780 C   0  0  0  0  0  2  0  0  0  0  0  0
  192.7970  175.1340  148.7450 N   0  0  0  0  0  2  0  0  0  0  0  0
  190.6780  176.8340  145.6440 C   0  0  0  0  0  0  0  0  0  0  0  0
  191.5690  177.0570  147.9910 C   0  0  0  0  0  2  0  0  0  0  0  0
  191.9300  176.1010  145.2690 C   0  0  0  0  0  2  0  0  0  0  0  0
  189.6030  176.7550  143.2810 C   0  0  0  0  0  2  0  0  0  0  0  0
  189.6790  177.1120  144.7120 C   0  0  0  0  0  0  0  0  0  0  0  0
  188.4000  178.2750  146.3390 N   0  0  0  0  0  0  0  0  0  0  0  0
  187.6480  177.9510  143.9370 C   0  0  1  0  0  3  0  0  0  0  0  0
  188.3150  177.2910  142.7890 N   0  0  0  0  0  0  0  0  0  0  0  0
  189.3540  178.0390  147.2870 C   0  0  0  0  0  3  0  0  0  0  0  0
  187.3530  178.7930  141.0370 C   0  0  0  0  0  1  0  0  0  0  0  0
  188.6130  178.2660  141.7260 C   0  0  2  0  0  3  0  0  0  0  0  0
  189.5390  177.6530  140.6730 C   0  0  0  0  0  2  0  0  0  0  0  0
  188.8380  177.5120  139.3260 C   0  0  0  0  0  2  0  0  0  0  0  0
  189.7170  177.9540  138.2520 N   0  0  0  0  0  0  0  0  0  0  0  0
  188.9460  178.7930  137.3490 C   0  0  0  0  0  1  0  0  0  0  0  0
  190.2940  176.8320  137.4870 C   0  0  0  0  0  2  0  0  0  0  0  0
  189.5030  176.3280  136.2580 C   0  0  2  0  0  3  0  0  0  0  0  0
  187.1360  175.4990  135.8750 C   0  0  0  0  0  0  0  0  0  0  0  0
  188.3430  175.5320  136.6410 N   0  0  0  0  0  2  0  0  0  0  0  0
  187.0100  176.2400  134.8620 O   0  0  0  0  0  0  0  0  0  0  0  0
  186.0510  174.5920  136.2760 C   0  0  0  0  0  0  0  0  0  0  0  0
  185.1280  172.7940  137.7070 C   0  0  0  0  0  2  0  0  0  0  0  0
  183.6860  173.7570  135.9280 C   0  0  0  0  0  2  0  0  0  0  0  0
  184.1960  172.4580  136.5460 C   0  0  0  0  0  2  0  0  0  0  0  0
  184.8150  174.6010  135.5460 N   0  0  0  0  0  2  0  0  0  0  0  0
  186.2330  173.7110  137.2680 C   0  0  0  0  0  3  0  0  0  0  0  0
  190.3870  175.5560  135.2820 C   0  0  0  0  0  2  0  0  0  0  0  0
  191.6760  173.8160  136.2970 O   0  0  0  0  0  1  0  0  0  0  0  0
  191.7080  175.1580  135.9210 C   0  0  0  0  0  2  0  0  0  0  0  0
  186.3440  177.2290  144.2490 C   0  0  0  0  0  2  0  0  0  0  0  0
  185.3490  178.1660  144.6390 O   0  0  0  0  0  0  0  0  0  0  0  0
  181.8710  179.0740  143.6890 C   0  0  0  0  0  3  0  0  0  0  0  0
  183.1160  178.4350  141.7130 C   0  0  0  0  0  3  0  0  0  0  0  0
  181.9260  178.8680  142.3080 C   0  0  0  0  0  0  0  0  0  0  0  0
  183.0020  178.8430  144.4740 C   0  0  0  0  0  3  0  0  0  0  0  0
  184.1980  178.4040  143.8810 C   0  0  0  0  0  0  0  0  0  0  0  0
  180.7220  179.1090  141.4710 C   0  0  0  0  0  1  0  0  0  0  0  0
  184.2480  178.2020  142.4990 C   0  0  0  0  0  3  0  0  0  0  0  0
  1  7  1  0  0  0  0
  1  5  2  0  0  0  0
  2 11  1  0  0  0  0
  3 14  1  0  0  0  0
  3  7  1  0  0  0  0
  4  1  1  0  0  0  0
  6  3  2  0  0  0  0
  8  6  1  0  0  0  0
  8  4  1  0  0  0  0
  9 10  1  0  0  0  0
 10  2  2  0  0  0  0
 10  6  1  0  0  0  0
 11 14  2  0  0  0  0
 12 35  1  1  0  0  0
 12  2  1  0  0  0  0
 13  9  1  0  0  0  0
 13 12  1  0  0  0  0
 16 15  1  6  0  0  0
 16 13  1  0  0  0  0
 17 16  1  0  0  0  0
 18 17  1  0  0  0  0
 19 18  1  0  0  0  0
 20 19  1  0  0  0  0
 21 19  1  0  0  0  0
 22 32  1  6  0  0  0
 22 24  1  0  0  0  0
 22 21  1  0  0  0  0
 23 26  1  0  0  0  0
 23 24  1  0  0  0  0
 25 23  2  0  0  0  0
 26 31  2  0  0  0  0
 28 29  1  0  0  0  0
 29 27  1  0  0  0  0
 30 28  1  0  0  0  0
 30 26  1  0  0  0  0
 31 27  1  0  0  0  0
 32 34  1  0  0  0  0
 34 33  1  0  0  0  0
 35 36  1  0  0  0  0
 37 40  1  0  0  0  0
 38 39  1  0  0  0  0
 38 43  2  0  0  0  0
 39 37  2  0  0  0  0
 41 40  2  0  0  0  0
 41 36  1  0  0  0  0
 42 39  1  0  0  0  0
 43 41  1  0  0  0  0
M  END
>  <MODEL>
7

>  <REMARK>
 VINA RESULT:      -7.0      2.597      8.443
  Name = 
  13 active torsions:
  status: ('A' for Active; 'I' for Inactive)
    1  A    between atoms: C_1  and  O_28
    2  A    between atoms: C_1  and  C_34
    3  A    between atoms: C_2  and  C_6
    4  A    between atoms: C_2  and  C_13
    5  A    between atoms: C_3  and  C_4
    6  A    between atoms: C_3  and  N_12
    7  A    between atoms: C_4  and  C_15
    8  A    between atoms: C_4  and  N_22
    9  A    between atoms: C_6  and  N_12
   10  A    between atoms: C_11  and  C_14
   11  A    between atoms: C_13  and  N_38
   12  A    between atoms: C_15  and  C_42
   13  A    between atoms: O_28  and  C_35
                            x       y       z     vdW  Elec       q    Type
                         _______ _______ _______ _____ _____    ______ ____

>  <TORSDO>
F 13

$$$$
=
 OpenBabel10272414263D

 43 47  0  0  1  0  0  0  0  0999 V2000
  193.1400  175.0770  136.3330 C   0  0  0  0  0  0  0  0  0  0  0  0
  190.9770  177.2650  140.2730 C   0  0  0  0  0  0  0  0  0  0  0  0
  192.7090  176.5760  138.2540 C   0  0  0  0  0  0  0  0  0  0  0  0
  191.6600  174.8150  136.1900 C   0  0  0  0  0  2  0  0  0  0  0  0
  193.9680  174.3320  135.7010 N   0  0  0  0  0  2  0  0  0  0  0  0
  191.3220  176.4370  138.0610 C   0  0  0  0  0  0  0  0  0  0  0  0
  193.6630  176.2230  137.1530 C   0  0  0  0  0  2  0  0  0  0  0  0
  190.7980  175.9540  136.7430 C   0  0  0  0  0  2  0  0  0  0  0  0
  188.9970  176.7710  139.1690 C   0  0  0  0  0  2  0  0  0  0  0  0
  190.4720  176.8020  139.1040 C   0  0  0  0  0  0  0  0  0  0  0  0
  192.3140  177.4150  140.4710 N   0  0  0  0  0  0  0  0  0  0  0  0
  189.8970  177.5580  141.2320 C   0  0  1  0  0  3  0  0  0  0  0  0
  188.6320  177.2550  140.5190 N   0  0  0  0  0  0  0  0  0  0  0  0
  193.1880  177.0810  139.4780 C   0  0  0  0  0  3  0  0  0  0  0  0
  186.9710  178.7880  141.5870 C   0  0  0  0  0  1  0  0  0  0  0  0
  187.8200  178.4720  140.3530 C   0  0  2  0  0  3  0  0  0  0  0  0
  186.9030  178.3500  139.1350 C   0  0  0  0  0  2  0  0  0  0  0  0
  185.4650  178.7270  139.4760 C   0  0  0  0  0  2  0  0  0  0  0  0
  184.5620  178.2690  138.4290 N   0  0  0  0  0  0  0  0  0  0  0  0
  183.6590  177.2870  139.0050 C   0  0  0  0  0  1  0  0  0  0  0  0
  185.2710  177.6570  137.2890 C   0  0  0  0  0  2  0  0  0  0  0  0
  184.4940  176.6230  136.4410 C   0  0  2  0  0  3  0  0  0  0  0  0
  185.3480  174.2450  136.6680 C   0  0  0  0  0  0  0  0  0  0  0  0
  185.3410  175.5160  136.0140 N   0  0  0  0  0  2  0  0  0  0  0  0
  184.6620  174.0680  137.7120 O   0  0  0  0  0  0  0  0  0  0  0  0
  186.1570  173.1500  136.1120 C   0  0  0  0  0  0  0  0  0  0  0  0
  186.3840  170.8840  135.1400 C   0  0  0  0  0  2  0  0  0  0  0  0
  188.4330  172.2520  135.4620 C   0  0  0  0  0  2  0  0  0  0  0  0
  187.8070  170.8780  135.6900 C   0  0  0  0  0  2  0  0  0  0  0  0
  187.5840  173.2860  136.0480 N   0  0  0  0  0  2  0  0  0  0  0  0
  185.5780  172.0030  135.7330 C   0  0  0  0  0  3  0  0  0  0  0  0
  183.8030  177.2670  135.2410 C   0  0  0  0  0  2  0  0  0  0  0  0
  181.5130  176.5800  135.1980 O   0  0  0  0  0  1  0  0  0  0  0  0
  182.3600  177.6290  135.5560 C   0  0  0  0  0  2  0  0  0  0  0  0
  190.0290  176.6420  142.4400 C   0  0  0  0  0  2  0  0  0  0  0  0
  188.7950  176.5770  143.1420 O   0  0  0  0  0  0  0  0  0  0  0  0
  189.6260  177.3040  146.6920 C   0  0  0  0  0  3  0  0  0  0  0  0
  187.2610  177.6610  146.3190 C   0  0  0  0  0  3  0  0  0  0  0  0
  188.3660  177.6630  147.1760 C   0  0  0  0  0  0  0  0  0  0  0  0
  189.7800  176.9400  145.3520 C   0  0  0  0  0  3  0  0  0  0  0  0
  188.6730  176.9340  144.4880 C   0  0  0  0  0  0  0  0  0  0  0  0
  188.1990  178.0450  148.6030 C   0  0  0  0  0  1  0  0  0  0  0  0
  187.4140  177.2960  144.9780 C   0  0  0  0  0  3  0  0  0  0  0  0
  1  7  1  0  0  0  0
  2 11  1  0  0  0  0
  2 12  1  0  0  0  0
  3 14  1  0  0  0  0
  4  1  1  0  0  0  0
  4  8  1  0  0  0  0
  5  1  2  0  0  0  0
  6  3  2  0  0  0  0
  6 10  1  0  0  0  0
  7  3  1  0  0  0  0
  8  6  1  0  0  0  0
  9 13  1  0  0  0  0
 10  9  1  0  0  0  0
 10  2  2  0  0  0  0
 12 35  1  1  0  0  0
 13 12  1  0  0  0  0
 14 11  2  0  0  0  0
 16 13  1  0  0  0  0
 16 15  1  1  0  0  0
 17 18  1  0  0  0  0
 17 16  1  0  0  0  0
 19 20  1  0  0  0  0
 19 18  1  0  0  0  0
 21 19  1  0  0  0  0
 22 32  1  6  0  0  0
 22 21  1  0  0  0  0
 23 25  2  0  0  0  0
 24 22  1  0  0  0  0
 24 23  1  0  0  0  0
 26 23  1  0  0  0  0
 27 29  1  0  0  0  0
 27 31  1  0  0  0  0
 28 29  1  0  0  0  0
 28 30  1  0  0  0  0
 30 26  1  0  0  0  0
 31 26  2  0  0  0  0
 32 34  1  0  0  0  0
 33 34  1  0  0  0  0
 35 36  1  0  0  0  0
 36 41  1  0  0  0  0
 37 39  1  0  0  0  0
 38 39  2  0  0  0  0
 39 42  1  0  0  0  0
 40 37  2  0  0  0  0
 41 43  2  0  0  0  0
 41 40  1  0  0  0  0
 43 38  1  0  0  0  0
M  END
>  <MODEL>
8

>  <REMARK>
 VINA RESULT:      -6.9      2.642      8.128
  Name = 
  13 active torsions:
  status: ('A' for Active; 'I' for Inactive)
    1  A    between atoms: C_1  and  O_28
    2  A    between atoms: C_1  and  C_34
    3  A    between atoms: C_2  and  C_6
    4  A    between atoms: C_2  and  C_13
    5  A    between atoms: C_3  and  C_4
    6  A    between atoms: C_3  and  N_12
    7  A    between atoms: C_4  and  C_15
    8  A    between atoms: C_4  and  N_22
    9  A    between atoms: C_6  and  N_12
   10  A    between atoms: C_11  and  C_14
   11  A    between atoms: C_13  and  N_38
   12  A    between atoms: C_15  and  C_42
   13  A    between atoms: O_28  and  C_35
                            x       y       z     vdW  Elec       q    Type
                         _______ _______ _______ _____ _____    ______ ____

>  <TORSDO>
F 13

$$$$
=
 OpenBabel10272414263D

 43 47  0  0  1  0  0  0  0  0999 V2000
  187.6040  178.0890  147.8630 C   0  0  0  0  0  0  0  0  0  0  0  0
  186.4840  177.9200  142.9940 C   0  0  0  0  0  0  0  0  0  0  0  0
  187.2930  177.2870  145.5430 C   0  0  0  0  0  0  0  0  0  0  0  0
  186.5840  179.1790  147.6350 C   0  0  0  0  0  2  0  0  0  0  0  0
  188.3480  178.1400  148.9040 N   0  0  0  0  0  2  0  0  0  0  0  0
  186.2570  178.2200  145.3510 C   0  0  0  0  0  0  0  0  0  0  0  0
  187.7290  176.9180  146.9280 C   0  0  0  0  0  2  0  0  0  0  0  0
  185.5750  178.8300  146.5380 C   0  0  0  0  0  2  0  0  0  0  0  0
  184.8160  179.4300  143.5610 C   0  0  0  0  0  2  0  0  0  0  0  0
  185.8670  178.5120  144.0450 C   0  0  0  0  0  0  0  0  0  0  0  0
  187.4800  177.0100  143.1630 N   0  0  0  0  0  0  0  0  0  0  0  0
  185.9260  178.4030  141.7180 C   0  0  1  0  0  3  0  0  0  0  0  0
  184.8520  179.3570  142.0840 N   0  0  0  0  0  0  0  0  0  0  0  0
  187.8920  176.6810  144.4220 C   0  0  0  0  0  3  0  0  0  0  0  0
  182.6450  178.4140  142.7840 C   0  0  0  0  0  1  0  0  0  0  0  0
  183.5400  178.8660  141.6280 C   0  0  2  0  0  3  0  0  0  0  0  0
  183.7070  177.7060  140.6450 C   0  0  0  0  0  2  0  0  0  0  0  0
  183.1620  178.0580  139.2650 C   0  0  0  0  0  2  0  0  0  0  0  0
  182.3940  176.9430  138.7270 N   0  0  0  0  0  0  0  0  0  0  0  0
  182.5930  175.7940  139.5940 C   0  0  0  0  0  1  0  0  0  0  0  0
  182.7930  176.5830  137.3540 C   0  0  0  0  0  2  0  0  0  0  0  0
  183.1480  175.1030  137.0830 C   0  0  2  0  0  3  0  0  0  0  0  0
  185.3960  173.9290  137.1450 C   0  0  0  0  0  0  0  0  0  0  0  0
  184.5270  174.9430  136.6350 N   0  0  0  0  0  2  0  0  0  0  0  0
  185.0090  173.1750  138.0810 O   0  0  0  0  0  0  0  0  0  0  0  0
  186.7390  173.7710  136.5680 C   0  0  0  0  0  0  0  0  0  0  0  0
  189.1830  174.1730  136.5900 C   0  0  0  0  0  2  0  0  0  0  0  0
  188.2130  172.8330  134.7350 C   0  0  0  0  0  2  0  0  0  0  0  0
  189.1440  173.9940  135.0740 C   0  0  0  0  0  2  0  0  0  0  0  0
  186.8990  173.0620  135.3300 N   0  0  0  0  0  2  0  0  0  0  0  0
  187.8000  174.3440  137.1510 C   0  0  0  0  0  3  0  0  0  0  0  0
  182.1820  174.4520  136.0950 C   0  0  0  0  0  2  0  0  0  0  0  0
  181.4330  172.2860  135.4130 O   0  0  0  0  0  1  0  0  0  0  0  0
  181.8130  173.0410  136.5230 C   0  0  0  0  0  2  0  0  0  0  0  0
  187.0090  179.1350  140.9370 C   0  0  0  0  0  2  0  0  0  0  0  0
  187.8460  178.1990  140.2690 O   0  0  0  0  0  0  0  0  0  0  0  0
  186.7470  177.8890  136.7310 C   0  0  0  0  0  3  0  0  0  0  0  0
  189.1650  177.8680  136.8380 C   0  0  0  0  0  3  0  0  0  0  0  0
  187.9860  177.8130  136.0890 C   0  0  0  0  0  0  0  0  0  0  0  0
  186.6880  178.0170  138.1200 C   0  0  0  0  0  3  0  0  0  0  0  0
  187.8710  178.0700  138.8770 C   0  0  0  0  0  0  0  0  0  0  0  0
  188.0500  177.6720  134.6110 C   0  0  0  0  0  1  0  0  0  0  0  0
  189.1070  177.9950  138.2300 C   0  0  0  0  0  3  0  0  0  0  0  0
  1  5  2  0  0  0  0
  2 11  2  0  0  0  0
  2 10  1  0  0  0  0
  3  7  1  0  0  0  0
  4  1  1  0  0  0  0
  6  3  1  0  0  0  0
  6  8  1  0  0  0  0
  7  1  1  0  0  0  0
  8  4  1  0  0  0  0
  9 10  1  0  0  0  0
 10  6  2  0  0  0  0
 11 14  1  0  0  0  0
 12 35  1  6  0  0  0
 12 13  1  0  0  0  0
 12  2  1  0  0  0  0
 13  9  1  0  0  0  0
 14  3  2  0  0  0  0
 16 13  1  0  0  0  0
 16 15  1  1  0  0  0
 17 16  1  0  0  0  0
 18 17  1  0  0  0  0
 19 18  1  0  0  0  0
 19 20  1  0  0  0  0
 21 19  1  0  0  0  0
 22 32  1  6  0  0  0
 22 21  1  0  0  0  0
 23 25  2  0  0  0  0
 24 22  1  0  0  0  0
 24 23  1  0  0  0  0
 26 23  1  0  0  0  0
 26 31  2  0  0  0  0
 27 31  1  0  0  0  0
 28 29  1  0  0  0  0
 28 30  1  0  0  0  0
 29 27  1  0  0  0  0
 30 26  1  0  0  0  0
 32 34  1  0  0  0  0
 33 34  1  0  0  0  0
 36 35  1  0  0  0  0
 37 40  1  0  0  0  0
 38 43  2  0  0  0  0
 39 37  2  0  0  0  0
 39 38  1  0  0  0  0
 40 41  2  0  0  0  0
 41 36  1  0  0  0  0
 42 39  1  0  0  0  0
 43 41  1  0  0  0  0
M  END
>  <MODEL>
9

>  <REMARK>
 VINA RESULT:      -6.8      3.283      9.488
  Name = 
  13 active torsions:
  status: ('A' for Active; 'I' for Inactive)
    1  A    between atoms: C_1  and  O_28
    2  A    between atoms: C_1  and  C_34
    3  A    between atoms: C_2  and  C_6
    4  A    between atoms: C_2  and  C_13
    5  A    between atoms: C_3  and  C_4
    6  A    between atoms: C_3  and  N_12
    7  A    between atoms: C_4  and  C_15
    8  A    between atoms: C_4  and  N_22
    9  A    between atoms: C_6  and  N_12
   10  A    between atoms: C_11  and  C_14
   11  A    between atoms: C_13  and  N_38
   12  A    between atoms: C_15  and  C_42
   13  A    between atoms: O_28  and  C_35
                            x       y       z     vdW  Elec       q    Type
                         _______ _______ _______ _____ _____    ______ ____

>  <TORSDO>
F 13

$$$$
