=
 OpenBabel10272413153D

 32 36  0  0  1  0  0  0  0  0999 V2000
  187.8470  177.9210  142.1970 C   0  0  0  0  0  3  0  0  0  0  0  0
  186.9460  178.1370  143.2500 C   0  0  0  0  0  0  0  0  0  0  0  0
  187.4400  178.0930  140.8720 C   0  0  0  0  0  0  0  0  0  0  0  0
  186.1160  178.4780  140.5920 C   0  0  0  0  0  0  0  0  0  0  0  0
  185.2200  178.6940  141.6440 C   0  0  0  0  0  3  0  0  0  0  0  0
  185.6320  178.5230  142.9680 C   0  0  0  0  0  3  0  0  0  0  0  0
  188.3810  177.8790  139.8220 N   0  0  0  0  0  0  0  0  0  0  0  0
  189.3980  178.3480  138.8340 C   0  0  1  0  0  3  0  0  0  0  0  0
  186.9650  175.6780  135.8160 C   0  0  0  0  0  2  0  0  0  0  0  0
  189.0340  177.0090  138.7960 C   0  0  2  0  0  3  0  0  0  0  0  0
  187.2480  178.2050  135.9110 C   0  0  0  0  0  2  0  0  0  0  0  0
  188.4320  177.9540  136.7190 N   0  0  1  0  0  0  0  0  0  0  0  0
  188.7110  179.0260  137.6480 C   0  0  0  0  0  2  0  0  0  0  0  0
  188.0930  176.8830  137.6230 C   0  0  1  0  0  3  0  0  0  0  0  0
  187.0350  176.9860  134.9980 C   0  0  0  0  0  2  0  0  0  0  0  0
  188.0920  175.5760  136.8560 C   0  0  0  0  0  2  0  0  0  0  0  0
  187.3730  177.9960  144.6810 C   0  0  1  0  0  3  0  0  0  0  0  0
  186.1810  177.6830  145.5670 C   0  0  0  0  0  1  0  0  0  0  0  0
  188.4430  176.9250  144.8560 C   0  0  0  0  0  2  0  0  0  0  0  0
  191.0210  177.1710  144.4650 C   0  0  2  0  0  0  0  0  0  0  0  0
  192.0380  176.3930  147.7100 O   0  0  0  0  0  0  0  0  0  0  0  0
  190.7930  176.0070  143.5090 C   0  0  0  0  0  1  0  0  0  0  0  0
  190.0670  177.1480  146.6800 N   0  0  0  0  0  2  0  0  0  0  0  0
  191.9950  176.7830  145.4240 O   0  0  0  0  0  0  0  0  0  0  0  0
  189.7630  177.5460  145.3130 C   0  0  2  0  0  3  0  0  0  0  0  0
  191.4210  176.7490  146.6730 C   0  0  0  0  0  0  0  0  0  0  0  0
  191.5160  178.3720  143.6680 C   0  0  0  0  0  2  0  0  0  0  0  0
  190.8280  179.5300  144.0340 O   0  0  0  0  0  1  0  0  0  0  0  0
  185.6520  178.7000  139.1920 C   0  0  0  0  0  2  0  0  0  0  0  0
  183.9850  179.4170  139.1980 S   0  0  0  0  0  0  0  0  0  0  0  0
  183.2410  177.8510  138.6670 C   0  0  0  0  0  2  0  0  0  0  0  0
  184.1820  177.1430  137.7170 C   0  0  0  0  0  1  0  0  0  0  0  0
  1  2  1  0  0  0  0
  2 17  1  0  0  0  0
  3  1  2  0  0  0  0
  4  3  1  0  0  0  0
  4  5  2  0  0  0  0
  5  6  1  0  0  0  0
  6  2  2  0  0  0  0
  7  3  1  0  0  0  0
  8 13  1  6  0  0  0
  8  7  1  0  0  0  0
  9 16  1  0  0  0  0
 10  8  1  0  0  0  0
 10  7  1  1  0  0  0
 12 11  1  6  0  0  0
 12 14  1  0  0  0  0
 12 13  1  0  0  0  0
 14 16  1  6  0  0  0
 14 10  1  0  0  0  0
 15  9  1  0  0  0  0
 15 11  1  0  0  0  0
 17 19  1  0  0  0  0
 17 18  1  1  0  0  0
 20 22  1  6  0  0  0
 20 25  1  0  0  0  0
 20 24  1  0  0  0  0
 24 26  1  0  0  0  0
 25 19  1  6  0  0  0
 25 23  1  0  0  0  0
 26 23  1  0  0  0  0
 26 21  2  0  0  0  0
 27 28  1  0  0  0  0
 27 20  1  0  0  0  0
 29 30  1  0  0  0  0
 29  4  1  0  0  0  0
 31 30  1  0  0  0  0
 32 31  1  0  0  0  0
M  END
>  <MODEL>
1

>  <REMARK>
 VINA RESULT:      -7.8      0.000      0.000
  Name = 
  8 active torsions:
  status: ('A' for Active; 'I' for Inactive)
    1  A    between atoms: N_2  and  C_5
    2  A    between atoms: C_3  and  C_22
    3  A    between atoms: C_4  and  C_24
    4  A    between atoms: C_13  and  S_29
    5  A    between atoms: C_14  and  C_18
    6  A    between atoms: C_16  and  C_20
    7  A    between atoms: C_16  and  C_24
    8  A    between atoms: C_18  and  S_29
                            x       y       z     vdW  Elec       q    Type
                         _______ _______ _______ _____ _____    ______ ____

>  <TORSDO>
F 8

$$$$
=
 OpenBabel10272413153D

 32 36  0  0  1  0  0  0  0  0999 V2000
  187.1110  177.8570  141.8490 C   0  0  0  0  0  3  0  0  0  0  0  0
  186.3960  177.8340  143.0550 C   0  0  0  0  0  0  0  0  0  0  0  0
  188.3720  177.2640  141.7630 C   0  0  0  0  0  0  0  0  0  0  0  0
  188.9330  176.6450  142.8950 C   0  0  0  0  0  0  0  0  0  0  0  0
  188.2180  176.6220  144.0970 C   0  0  0  0  0  3  0  0  0  0  0  0
  186.9550  177.2150  144.1780 C   0  0  0  0  0  3  0  0  0  0  0  0
  189.0710  177.2910  140.5200 N   0  0  0  0  0  0  0  0  0  0  0  0
  189.8810  177.9740  139.4670 C   0  0  1  0  0  3  0  0  0  0  0  0
  186.7910  175.9970  136.5170 C   0  0  0  0  0  2  0  0  0  0  0  0
  189.4700  176.6720  139.2190 C   0  0  2  0  0  3  0  0  0  0  0  0
  187.1770  178.4460  137.0900 C   0  0  0  0  0  2  0  0  0  0  0  0
  188.4910  178.0380  137.5630 N   0  0  1  0  0  0  0  0  0  0  0  0
  188.9910  178.8860  138.6220 C   0  0  0  0  0  2  0  0  0  0  0  0
  188.3060  176.7930  138.2660 C   0  0  1  0  0  3  0  0  0  0  0  0
  186.7390  177.4510  136.0010 C   0  0  0  0  0  2  0  0  0  0  0  0
  188.1020  175.6830  137.2550 C   0  0  0  0  0  2  0  0  0  0  0  0
  185.0250  178.4300  143.1590 C   0  0  1  0  0  3  0  0  0  0  0  0
  184.9790  179.4830  144.2510 C   0  0  0  0  0  1  0  0  0  0  0  0
  184.5610  179.0330  141.8380 C   0  0  0  0  0  2  0  0  0  0  0  0
  183.0010  178.5020  139.8020 C   0  0  2  0  0  0  0  0  0  0  0  0
  179.9860  179.4040  141.3070 O   0  0  0  0  0  0  0  0  0  0  0  0
  183.8080  179.6120  139.1410 C   0  0  0  0  0  1  0  0  0  0  0  0
  182.1300  178.7790  142.0330 N   0  0  0  0  0  2  0  0  0  0  0  0
  181.6260  178.8580  139.7600 O   0  0  0  0  0  0  0  0  0  0  0  0
  183.3130  178.3180  141.3220 C   0  0  2  0  0  3  0  0  0  0  0  0
  181.1600  179.0390  141.0420 C   0  0  0  0  0  0  0  0  0  0  0  0
  183.2330  177.2040  139.0380 C   0  0  0  0  0  2  0  0  0  0  0  0
  182.7100  176.1150  139.7380 O   0  0  0  0  0  1  0  0  0  0  0  0
  190.2650  175.9760  142.8350 C   0  0  0  0  0  2  0  0  0  0  0  0
  191.3400  176.6160  144.1510 S   0  0  0  0  0  0  0  0  0  0  0  0
  191.6380  178.1570  143.2440 C   0  0  0  0  0  2  0  0  0  0  0  0
  191.1180  179.3260  144.0530 C   0  0  0  0  0  1  0  0  0  0  0  0
  1  2  1  0  0  0  0
  2 17  1  0  0  0  0
  2  6  2  0  0  0  0
  3  1  2  0  0  0  0
  3  4  1  0  0  0  0
  4  5  2  0  0  0  0
  5  6  1  0  0  0  0
  7  3  1  0  0  0  0
  8 13  1  6  0  0  0
  8  7  1  0  0  0  0
  9 16  1  0  0  0  0
 10  8  1  0  0  0  0
 10  7  1  1  0  0  0
 12 11  1  1  0  0  0
 12 14  1  0  0  0  0
 12 13  1  0  0  0  0
 14 16  1  6  0  0  0
 14 10  1  0  0  0  0
 15  9  1  0  0  0  0
 15 11  1  0  0  0  0
 17 18  1  1  0  0  0
 19 17  1  0  0  0  0
 20 22  1  6  0  0  0
 20 25  1  0  0  0  0
 24 20  1  0  0  0  0
 24 26  1  0  0  0  0
 25 19  1  1  0  0  0
 25 23  1  0  0  0  0
 26 21  2  0  0  0  0
 26 23  1  0  0  0  0
 27 28  1  0  0  0  0
 27 20  1  0  0  0  0
 29  4  1  0  0  0  0
 29 30  1  0  0  0  0
 31 32  1  0  0  0  0
 31 30  1  0  0  0  0
M  END
>  <MODEL>
2

>  <REMARK>
 VINA RESULT:      -7.7      4.103      6.595
  Name = 
  8 active torsions:
  status: ('A' for Active; 'I' for Inactive)
    1  A    between atoms: N_2  and  C_5
    2  A    between atoms: C_3  and  C_22
    3  A    between atoms: C_4  and  C_24
    4  A    between atoms: C_13  and  S_29
    5  A    between atoms: C_14  and  C_18
    6  A    between atoms: C_16  and  C_20
    7  A    between atoms: C_16  and  C_24
    8  A    between atoms: C_18  and  S_29
                            x       y       z     vdW  Elec       q    Type
                         _______ _______ _______ _____ _____    ______ ____

>  <TORSDO>
F 8

$$$$
=
 OpenBabel10272413153D

 32 36  0  0  1  0  0  0  0  0999 V2000
  186.5060  178.3470  141.9250 C   0  0  0  0  0  3  0  0  0  0  0  0
  187.6820  178.0230  142.6160 C   0  0  0  0  0  0  0  0  0  0  0  0
  186.5050  178.4350  140.5310 C   0  0  0  0  0  0  0  0  0  0  0  0
  187.6940  178.2030  139.8150 C   0  0  0  0  0  0  0  0  0  0  0  0
  188.8660  177.8780  140.5060 C   0  0  0  0  0  3  0  0  0  0  0  0
  188.8610  177.7890  141.9010 C   0  0  0  0  0  3  0  0  0  0  0  0
  185.2910  178.7550  139.8550 N   0  0  0  0  0  0  0  0  0  0  0  0
  183.8790  179.2400  139.8190 C   0  0  1  0  0  3  0  0  0  0  0  0
  183.1640  175.4280  137.1520 C   0  0  0  0  0  2  0  0  0  0  0  0
  184.4260  178.7650  138.6350 C   0  0  2  0  0  3  0  0  0  0  0  0
  182.3170  175.9800  139.4870 C   0  0  0  0  0  2  0  0  0  0  0  0
  182.5990  177.3700  139.1660 N   0  0  1  0  0  0  0  0  0  0  0  0
  182.9320  178.1560  140.3340 C   0  0  0  0  0  2  0  0  0  0  0  0
  183.8530  177.3810  138.4550 C   0  0  1  0  0  3  0  0  0  0  0  0
  182.0180  175.2440  138.1690 C   0  0  0  0  0  2  0  0  0  0  0  0
  183.6200  176.8910  137.0400 C   0  0  0  0  0  2  0  0  0  0  0  0
  187.6960  177.8850  144.1080 C   0  0  1  0  0  3  0  0  0  0  0  0
  186.3160  177.5240  144.6260 C   0  0  0  0  0  1  0  0  0  0  0  0
  188.7120  176.8510  144.5790 C   0  0  0  0  0  2  0  0  0  0  0  0
  191.2980  177.2550  144.6900 C   0  0  2  0  0  0  0  0  0  0  0  0
  191.7340  176.4060  148.0460 O   0  0  0  0  0  0  0  0  0  0  0  0
  191.3250  176.1200  143.6750 C   0  0  0  0  0  1  0  0  0  0  0  0
  189.9490  177.0910  146.6820 N   0  0  0  0  0  2  0  0  0  0  0  0
  192.0970  176.8840  145.8050 O   0  0  0  0  0  0  0  0  0  0  0  0
  189.8820  177.5250  145.2950 C   0  0  2  0  0  3  0  0  0  0  0  0
  191.3010  176.7680  146.9210 C   0  0  0  0  0  0  0  0  0  0  0  0
  191.8570  178.5130  144.0360 C   0  0  0  0  0  2  0  0  0  0  0  0
  190.9570  179.5740  144.1450 O   0  0  0  0  0  1  0  0  0  0  0  0
  187.7260  178.2590  138.3250 C   0  0  0  0  0  2  0  0  0  0  0  0
  187.9920  176.5950  137.6480 S   0  0  0  0  0  0  0  0  0  0  0  0
  189.4510  177.1380  136.7200 C   0  0  0  0  0  2  0  0  0  0  0  0
  190.7020  176.7860  137.4950 C   0  0  0  0  0  1  0  0  0  0  0  0
  1  2  1  0  0  0  0
  2 17  1  0  0  0  0
  3  1  2  0  0  0  0
  4  5  2  0  0  0  0
  4  3  1  0  0  0  0
  5  6  1  0  0  0  0
  6  2  2  0  0  0  0
  7  3  1  0  0  0  0
  8  7  1  0  0  0  0
  8 13  1  1  0  0  0
  9 15  1  0  0  0  0
 10  8  1  0  0  0  0
 10  7  1  1  0  0  0
 12 11  1  1  0  0  0
 12 13  1  0  0  0  0
 14 16  1  6  0  0  0
 14 10  1  0  0  0  0
 14 12  1  0  0  0  0
 15 11  1  0  0  0  0
 16  9  1  0  0  0  0
 17 19  1  0  0  0  0
 17 18  1  6  0  0  0
 20 22  1  6  0  0  0
 20 25  1  0  0  0  0
 20 24  1  0  0  0  0
 23 26  1  0  0  0  0
 24 26  1  0  0  0  0
 25 19  1  6  0  0  0
 25 23  1  0  0  0  0
 26 21  2  0  0  0  0
 27 28  1  0  0  0  0
 27 20  1  0  0  0  0
 29  4  1  0  0  0  0
 30 29  1  0  0  0  0
 31 32  1  0  0  0  0
 31 30  1  0  0  0  0
M  END
>  <MODEL>
3

>  <REMARK>
 VINA RESULT:      -7.3      1.915      3.710
  Name = 
  8 active torsions:
  status: ('A' for Active; 'I' for Inactive)
    1  A    between atoms: N_2  and  C_5
    2  A    between atoms: C_3  and  C_22
    3  A    between atoms: C_4  and  C_24
    4  A    between atoms: C_13  and  S_29
    5  A    between atoms: C_14  and  C_18
    6  A    between atoms: C_16  and  C_20
    7  A    between atoms: C_16  and  C_24
    8  A    between atoms: C_18  and  S_29
                            x       y       z     vdW  Elec       q    Type
                         _______ _______ _______ _____ _____    ______ ____

>  <TORSDO>
F 8

$$$$
=
 OpenBabel10272413153D

 32 36  0  0  1  0  0  0  0  0999 V2000
  188.5340  177.2440  139.4040 C   0  0  0  0  0  3  0  0  0  0  0  0
  189.2360  177.6720  140.5390 C   0  0  0  0  0  0  0  0  0  0  0  0
  189.2170  176.7160  138.3070 C   0  0  0  0  0  0  0  0  0  0  0  0
  190.6210  176.6190  138.3370 C   0  0  0  0  0  0  0  0  0  0  0  0
  191.3200  177.0460  139.4720 C   0  0  0  0  0  3  0  0  0  0  0  0
  190.6310  177.5720  140.5680 C   0  0  0  0  0  3  0  0  0  0  0  0
  188.4760  176.2760  137.1700 N   0  0  0  0  0  0  0  0  0  0  0  0
  187.6130  176.5150  135.9740 C   0  0  1  0  0  3  0  0  0  0  0  0
  185.0640  172.9680  137.7300 C   0  0  0  0  0  2  0  0  0  0  0  0
  187.8860  175.1980  136.3180 C   0  0  2  0  0  3  0  0  0  0  0  0
  184.4910  175.4350  137.4800 C   0  0  0  0  0  2  0  0  0  0  0  0
  185.5510  175.4910  136.4860 N   0  0  1  0  0  0  0  0  0  0  0  0
  186.1740  176.7940  136.4060 C   0  0  0  0  0  2  0  0  0  0  0  0
  186.6380  174.6940  136.9990 C   0  0  1  0  0  3  0  0  0  0  0  0
  183.9390  173.9990  137.4990 C   0  0  0  0  0  2  0  0  0  0  0  0
  186.2900  173.2280  136.8390 C   0  0  0  0  0  2  0  0  0  0  0  0
  188.5200  178.2050  141.7430 C   0  0  1  0  0  3  0  0  0  0  0  0
  187.0930  178.5860  141.3920 C   0  0  0  0  0  1  0  0  0  0  0  0
  188.5200  177.2100  142.8980 C   0  0  0  0  0  2  0  0  0  0  0  0
  190.6340  177.3050  144.4420 C   0  0  2  0  0  0  0  0  0  0  0  0
  188.9890  176.7880  147.4750 O   0  0  0  0  0  0  0  0  0  0  0  0
  191.0330  176.0690  143.6470 C   0  0  0  0  0  1  0  0  0  0  0  0
  188.4010  177.5290  145.3260 N   0  0  0  0  0  2  0  0  0  0  0  0
  190.6060  176.9660  145.8220 O   0  0  0  0  0  0  0  0  0  0  0  0
  189.1880  177.8110  144.1340 C   0  0  2  0  0  3  0  0  0  0  0  0
  189.3190  177.0730  146.2950 C   0  0  0  0  0  0  0  0  0  0  0  0
  191.6590  178.4050  144.1900 C   0  0  0  0  0  2  0  0  0  0  0  0
  191.0310  179.6350  143.9910 O   0  0  0  0  0  1  0  0  0  0  0  0
  191.3840  176.0350  137.1970 C   0  0  0  0  0  2  0  0  0  0  0  0
  193.1580  176.0190  137.5820 S   0  0  0  0  0  0  0  0  0  0  0  0
  193.2380  174.2140  137.4280 C   0  0  0  0  0  2  0  0  0  0  0  0
  192.0320  173.7200  136.6590 C   0  0  0  0  0  1  0  0  0  0  0  0
  1  2  1  0  0  0  0
  2  6  2  0  0  0  0
  2 17  1  0  0  0  0
  3  4  1  0  0  0  0
  3  1  2  0  0  0  0
  4  5  2  0  0  0  0
  5  6  1  0  0  0  0
  7  3  1  0  0  0  0
  8 10  1  0  0  0  0
  8 13  1  1  0  0  0
  8  7  1  0  0  0  0
 10 14  1  0  0  0  0
 10  7  1  1  0  0  0
 11 15  1  0  0  0  0
 12 13  1  1  0  0  0
 12 14  1  0  0  0  0
 12 11  1  0  0  0  0
 14 16  1  6  0  0  0
 15  9  1  0  0  0  0
 16  9  1  0  0  0  0
 17 18  1  6  0  0  0
 17 19  1  0  0  0  0
 20 22  1  6  0  0  0
 20 24  1  0  0  0  0
 23 26  1  0  0  0  0
 24 26  1  0  0  0  0
 25 19  1  6  0  0  0
 25 20  1  0  0  0  0
 25 23  1  0  0  0  0
 26 21  2  0  0  0  0
 27 20  1  0  0  0  0
 28 27  1  0  0  0  0
 29 30  1  0  0  0  0
 29  4  1  0  0  0  0
 31 30  1  0  0  0  0
 32 31  1  0  0  0  0
M  END
>  <MODEL>
4

>  <REMARK>
 VINA RESULT:      -7.2      2.816      4.547
  Name = 
  8 active torsions:
  status: ('A' for Active; 'I' for Inactive)
    1  A    between atoms: N_2  and  C_5
    2  A    between atoms: C_3  and  C_22
    3  A    between atoms: C_4  and  C_24
    4  A    between atoms: C_13  and  S_29
    5  A    between atoms: C_14  and  C_18
    6  A    between atoms: C_16  and  C_20
    7  A    between atoms: C_16  and  C_24
    8  A    between atoms: C_18  and  S_29
                            x       y       z     vdW  Elec       q    Type
                         _______ _______ _______ _____ _____    ______ ____

>  <TORSDO>
F 8

$$$$
=
 OpenBabel10272413153D

 32 36  0  0  1  0  0  0  0  0999 V2000
  187.3790  178.2130  141.7050 C   0  0  0  0  0  3  0  0  0  0  0  0
  186.6300  178.1040  142.8860 C   0  0  0  0  0  0  0  0  0  0  0  0
  186.7430  178.4400  140.4830 C   0  0  0  0  0  0  0  0  0  0  0  0
  185.3410  178.5530  140.4340 C   0  0  0  0  0  0  0  0  0  0  0  0
  184.5960  178.4450  141.6130 C   0  0  0  0  0  3  0  0  0  0  0  0
  185.2380  178.2200  142.8340 C   0  0  0  0  0  3  0  0  0  0  0  0
  187.5310  178.5590  139.3000 N   0  0  0  0  0  0  0  0  0  0  0  0
  187.6940  178.6870  137.8210 C   0  0  1  0  0  3  0  0  0  0  0  0
  190.9010  175.2870  138.3860 C   0  0  0  0  0  2  0  0  0  0  0  0
  188.8440  178.5530  138.5860 C   0  0  2  0  0  3  0  0  0  0  0  0
  188.6500  175.2400  137.1990 C   0  0  0  0  0  2  0  0  0  0  0  0
  188.7480  176.6900  137.1410 N   0  0  1  0  0  0  0  0  0  0  0  0
  187.4560  177.3380  137.1420 C   0  0  0  0  0  2  0  0  0  0  0  0
  189.2760  177.1170  138.4130 C   0  0  1  0  0  3  0  0  0  0  0  0
  190.0790  174.6720  137.2320 C   0  0  0  0  0  2  0  0  0  0  0  0
  190.7600  176.8160  138.4550 C   0  0  0  0  0  2  0  0  0  0  0  0
  187.2950  177.9000  144.2140 C   0  0  1  0  0  3  0  0  0  0  0  0
  186.2800  177.4890  145.2640 C   0  0  0  0  0  1  0  0  0  0  0  0
  188.4120  176.8650  144.1410 C   0  0  0  0  0  2  0  0  0  0  0  0
  191.0140  176.9040  143.8360 C   0  0  2  0  0  0  0  0  0  0  0  0
  191.8590  176.6140  147.2080 O   0  0  0  0  0  0  0  0  0  0  0  0
  190.7500  175.6130  143.0710 C   0  0  0  0  0  1  0  0  0  0  0  0
  189.9780  177.2950  145.9790 N   0  0  0  0  0  2  0  0  0  0  0  0
  191.9260  176.6260  144.8900 O   0  0  0  0  0  0  0  0  0  0  0  0
  189.7500  177.4800  144.5530 C   0  0  2  0  0  3  0  0  0  0  0  0
  191.3040  176.8280  146.1000 C   0  0  0  0  0  0  0  0  0  0  0  0
  191.6100  177.9300  142.8800 C   0  0  0  0  0  2  0  0  0  0  0  0
  191.9190  177.3450  141.6510 O   0  0  0  0  0  1  0  0  0  0  0  0
  184.6280  178.8240  139.1520 C   0  0  0  0  0  2  0  0  0  0  0  0
  183.4290  177.5020  138.8190 S   0  0  0  0  0  0  0  0  0  0  0  0
  182.3060  178.6490  137.9760 C   0  0  0  0  0  2  0  0  0  0  0  0
  182.3410  179.9920  138.6710 C   0  0  0  0  0  1  0  0  0  0  0  0
  1  2  1  0  0  0  0
  2 17  1  0  0  0  0
  3  1  2  0  0  0  0
  4  3  1  0  0  0  0
  4  5  2  0  0  0  0
  5  6  1  0  0  0  0
  6  2  2  0  0  0  0
  7  3  1  0  0  0  0
  8 13  1  6  0  0  0
  8 10  1  0  0  0  0
  8  7  1  0  0  0  0
  9 16  1  0  0  0  0
 10  7  1  1  0  0  0
 11 15  1  0  0  0  0
 12 13  1  1  0  0  0
 12 11  1  0  0  0  0
 12 14  1  0  0  0  0
 14 16  1  6  0  0  0
 14 10  1  0  0  0  0
 15  9  1  0  0  0  0
 17 18  1  1  0  0  0
 19 17  1  0  0  0  0
 20 22  1  6  0  0  0
 20 25  1  0  0  0  0
 20 24  1  0  0  0  0
 23 26  1  0  0  0  0
 24 26  1  0  0  0  0
 25 19  1  6  0  0  0
 25 23  1  0  0  0  0
 26 21  2  0  0  0  0
 27 20  1  0  0  0  0
 28 27  1  0  0  0  0
 29  4  1  0  0  0  0
 30 29  1  0  0  0  0
 31 32  1  0  0  0  0
 31 30  1  0  0  0  0
M  END
>  <MODEL>
5

>  <REMARK>
 VINA RESULT:      -7.2      1.282      1.943
  Name = 
  8 active torsions:
  status: ('A' for Active; 'I' for Inactive)
    1  A    between atoms: N_2  and  C_5
    2  A    between atoms: C_3  and  C_22
    3  A    between atoms: C_4  and  C_24
    4  A    between atoms: C_13  and  S_29
    5  A    between atoms: C_14  and  C_18
    6  A    between atoms: C_16  and  C_20
    7  A    between atoms: C_16  and  C_24
    8  A    between atoms: C_18  and  S_29
                            x       y       z     vdW  Elec       q    Type
                         _______ _______ _______ _____ _____    ______ ____

>  <TORSDO>
F 8

$$$$
=
 OpenBabel10272413153D

 32 36  0  0  1  0  0  0  0  0999 V2000
  187.1410  178.4550  141.1320 C   0  0  0  0  0  3  0  0  0  0  0  0
  185.9530  178.4630  141.8760 C   0  0  0  0  0  0  0  0  0  0  0  0
  187.1000  178.4150  139.7360 C   0  0  0  0  0  0  0  0  0  0  0  0
  185.8600  178.3750  139.0730 C   0  0  0  0  0  0  0  0  0  0  0  0
  184.6760  178.3840  139.8180 C   0  0  0  0  0  3  0  0  0  0  0  0
  184.7220  178.4260  141.2140 C   0  0  0  0  0  3  0  0  0  0  0  0
  188.3240  178.4210  139.0040 N   0  0  0  0  0  0  0  0  0  0  0  0
  189.2240  178.9300  137.9260 C   0  0  1  0  0  3  0  0  0  0  0  0
  189.8930  174.3590  137.0210 C   0  0  0  0  0  2  0  0  0  0  0  0
  189.6630  177.8450  138.6720 C   0  0  2  0  0  3  0  0  0  0  0  0
  188.7470  176.1560  135.6320 C   0  0  0  0  0  2  0  0  0  0  0  0
  189.4820  177.1220  136.4330 N   0  0  1  0  0  0  0  0  0  0  0  0
  188.7860  178.3820  136.5670 C   0  0  0  0  0  2  0  0  0  0  0  0
  189.4490  176.6390  137.7910 C   0  0  1  0  0  3  0  0  0  0  0  0
  189.5650  174.8540  135.5960 C   0  0  0  0  0  2  0  0  0  0  0  0
  190.4200  175.4840  137.9260 C   0  0  0  0  0  2  0  0  0  0  0  0
  185.9730  178.5450  143.3730 C   0  0  1  0  0  3  0  0  0  0  0  0
  184.5600  178.5610  143.9270 C   0  0  0  0  0  1  0  0  0  0  0  0
  186.7610  177.4000  143.9990 C   0  0  0  0  0  2  0  0  0  0  0  0
  189.3800  177.3370  144.0230 C   0  0  2  0  0  0  0  0  0  0  0  0
  189.7760  176.7260  147.4350 O   0  0  0  0  0  0  0  0  0  0  0  0
  189.1670  176.1290  143.1200 C   0  0  0  0  0  1  0  0  0  0  0  0
  188.0950  177.5980  146.0470 N   0  0  0  0  0  2  0  0  0  0  0  0
  190.1390  176.9280  145.1530 O   0  0  0  0  0  0  0  0  0  0  0  0
  188.0580  177.9120  144.6260 C   0  0  2  0  0  3  0  0  0  0  0  0
  189.3750  177.0590  146.2900 C   0  0  0  0  0  0  0  0  0  0  0  0
  190.1320  178.4080  143.2430 C   0  0  0  0  0  2  0  0  0  0  0  0
  190.7740  179.2960  144.1080 O   0  0  0  0  0  1  0  0  0  0  0  0
  185.7760  178.3610  137.5840 C   0  0  0  0  0  2  0  0  0  0  0  0
  184.3870  177.3200  137.0520 S   0  0  0  0  0  0  0  0  0  0  0  0
  185.4460  175.8530  136.9460 C   0  0  0  0  0  2  0  0  0  0  0  0
  184.6580  174.6310  137.3660 C   0  0  0  0  0  1  0  0  0  0  0  0
  1  2  1  0  0  0  0
  2 17  1  0  0  0  0
  3  1  2  0  0  0  0
  4  3  1  0  0  0  0
  4  5  2  0  0  0  0
  5  6  1  0  0  0  0
  6  2  2  0  0  0  0
  7  3  1  0  0  0  0
  8 13  1  6  0  0  0
  8 10  1  0  0  0  0
  8  7  1  0  0  0  0
  9 16  1  0  0  0  0
 10  7  1  1  0  0  0
 12 11  1  6  0  0  0
 12 13  1  0  0  0  0
 12 14  1  0  0  0  0
 14 16  1  6  0  0  0
 14 10  1  0  0  0  0
 15 11  1  0  0  0  0
 15  9  1  0  0  0  0
 17 18  1  1  0  0  0
 17 19  1  0  0  0  0
 20 22  1  6  0  0  0
 20 25  1  0  0  0  0
 20 24  1  0  0  0  0
 23 26  1  0  0  0  0
 24 26  1  0  0  0  0
 25 19  1  6  0  0  0
 25 23  1  0  0  0  0
 26 21  2  0  0  0  0
 27 20  1  0  0  0  0
 27 28  1  0  0  0  0
 29  4  1  0  0  0  0
 30 29  1  0  0  0  0
 31 30  1  0  0  0  0
 31 32  1  0  0  0  0
M  END
>  <MODEL>
6

>  <REMARK>
 VINA RESULT:      -6.7      1.529      2.051
  Name = 
  8 active torsions:
  status: ('A' for Active; 'I' for Inactive)
    1  A    between atoms: N_2  and  C_5
    2  A    between atoms: C_3  and  C_22
    3  A    between atoms: C_4  and  C_24
    4  A    between atoms: C_13  and  S_29
    5  A    between atoms: C_14  and  C_18
    6  A    between atoms: C_16  and  C_20
    7  A    between atoms: C_16  and  C_24
    8  A    between atoms: C_18  and  S_29
                            x       y       z     vdW  Elec       q    Type
                         _______ _______ _______ _____ _____    ______ ____

>  <TORSDO>
F 8

$$$$
=
 OpenBabel10272413153D

 32 36  0  0  1  0  0  0  0  0999 V2000
  185.0880  178.4600  141.8350 C   0  0  0  0  0  3  0  0  0  0  0  0
  183.8070  178.4590  142.4060 C   0  0  0  0  0  0  0  0  0  0  0  0
  186.2230  178.4190  142.6470 C   0  0  0  0  0  0  0  0  0  0  0  0
  186.0820  178.3840  144.0470 C   0  0  0  0  0  0  0  0  0  0  0  0
  184.8030  178.3810  144.6130 C   0  0  0  0  0  3  0  0  0  0  0  0
  183.6690  178.4210  143.7970 C   0  0  0  0  0  3  0  0  0  0  0  0
  187.5140  178.4080  142.0390 N   0  0  0  0  0  0  0  0  0  0  0  0
  188.5070  177.9080  141.0420 C   0  0  1  0  0  3  0  0  0  0  0  0
  191.3850  177.7050  144.7620 C   0  0  0  0  0  2  0  0  0  0  0  0
  188.9470  178.8290  141.9830 C   0  0  2  0  0  3  0  0  0  0  0  0
  190.4080  175.8360  143.3390 C   0  0  0  0  0  2  0  0  0  0  0  0
  190.1830  176.8480  142.3190 N   0  0  1  0  0  0  0  0  0  0  0  0
  189.0510  176.5460  141.4720 C   0  0  0  0  0  2  0  0  0  0  0  0
  189.7120  178.0250  143.0050 C   0  0  1  0  0  3  0  0  0  0  0  0
  191.6050  176.2870  144.1940 C   0  0  0  0  0  2  0  0  0  0  0  0
  190.8830  178.6930  143.6960 C   0  0  0  0  0  2  0  0  0  0  0  0
  182.5750  178.4640  141.5520 C   0  0  1  0  0  3  0  0  0  0  0  0
  181.4320  179.1630  142.2650 C   0  0  0  0  0  1  0  0  0  0  0  0
  182.8180  179.1200  140.1980 C   0  0  0  0  0  2  0  0  0  0  0  0
  183.0170  177.6280  138.0530 C   0  0  2  0  0  0  0  0  0  0  0  0
  180.9260  179.5240  136.0020 O   0  0  0  0  0  0  0  0  0  0  0  0
  184.4790  178.0460  138.1320 C   0  0  0  0  0  1  0  0  0  0  0  0
  181.2580  179.2580  138.3120 N   0  0  0  0  0  2  0  0  0  0  0  0
  182.5040  178.0150  136.7860 O   0  0  0  0  0  0  0  0  0  0  0  0
  182.0980  178.3570  139.0870 C   0  0  2  0  0  3  0  0  0  0  0  0
  181.5240  178.9650  136.9570 C   0  0  0  0  0  0  0  0  0  0  0  0
  182.9270  176.1160  138.2190 C   0  0  0  0  0  2  0  0  0  0  0  0
  182.4260  175.7820  139.4780 O   0  0  0  0  0  1  0  0  0  0  0  0
  187.2700  178.3100  144.9460 C   0  0  0  0  0  2  0  0  0  0  0  0
  186.7340  178.0410  146.6590 S   0  0  0  0  0  0  0  0  0  0  0  0
  188.3290  177.3060  147.1080 C   0  0  0  0  0  2  0  0  0  0  0  0
  188.9090  178.0460  148.2940 C   0  0  0  0  0  1  0  0  0  0  0  0
  1  2  2  0  0  0  0
  1  3  1  0  0  0  0
  2  6  1  0  0  0  0
  3  4  2  0  0  0  0
  4  5  1  0  0  0  0
  4 29  1  0  0  0  0
  6  5  2  0  0  0  0
  7  3  1  0  0  0  0
  8 13  1  1  0  0  0
  8 10  1  0  0  0  0
  8  7  1  0  0  0  0
 10  7  1  1  0  0  0
 10 14  1  0  0  0  0
 11 15  1  0  0  0  0
 12 13  1  6  0  0  0
 12 14  1  0  0  0  0
 12 11  1  0  0  0  0
 14 16  1  6  0  0  0
 15  9  1  0  0  0  0
 16  9  1  0  0  0  0
 17 18  1  1  0  0  0
 17  2  1  0  0  0  0
 19 17  1  0  0  0  0
 20 22  1  1  0  0  0
 20 27  1  0  0  0  0
 20 25  1  0  0  0  0
 21 26  2  0  0  0  0
 23 25  1  0  0  0  0
 24 26  1  0  0  0  0
 24 20  1  0  0  0  0
 25 19  1  1  0  0  0
 26 23  1  0  0  0  0
 27 28  1  0  0  0  0
 29 30  1  0  0  0  0
 30 31  1  0  0  0  0
 31 32  1  0  0  0  0
M  END
>  <MODEL>
7

>  <REMARK>
 VINA RESULT:      -6.7      4.489      8.376
  Name = 
  8 active torsions:
  status: ('A' for Active; 'I' for Inactive)
    1  A    between atoms: N_2  and  C_5
    2  A    between atoms: C_3  and  C_22
    3  A    between atoms: C_4  and  C_24
    4  A    between atoms: C_13  and  S_29
    5  A    between atoms: C_14  and  C_18
    6  A    between atoms: C_16  and  C_20
    7  A    between atoms: C_16  and  C_24
    8  A    between atoms: C_18  and  S_29
                            x       y       z     vdW  Elec       q    Type
                         _______ _______ _______ _____ _____    ______ ____

>  <TORSDO>
F 8

$$$$
=
 OpenBabel10272413153D

 32 36  0  0  1  0  0  0  0  0999 V2000
  187.6680  178.0640  142.1360 C   0  0  0  0  0  3  0  0  0  0  0  0
  188.9560  177.5680  142.3800 C   0  0  0  0  0  0  0  0  0  0  0  0
  187.2220  178.2600  140.8260 C   0  0  0  0  0  0  0  0  0  0  0  0
  188.0730  177.9650  139.7460 C   0  0  0  0  0  0  0  0  0  0  0  0
  189.3580  177.4690  139.9920 C   0  0  0  0  0  3  0  0  0  0  0  0
  189.7990  177.2730  141.3040 C   0  0  0  0  0  3  0  0  0  0  0  0
  185.9020  178.7530  140.6070 N   0  0  0  0  0  0  0  0  0  0  0  0
  184.5260  179.1150  141.0650 C   0  0  1  0  0  3  0  0  0  0  0  0
  183.1710  176.7350  137.2360 C   0  0  0  0  0  2  0  0  0  0  0  0
  184.8010  179.2170  139.7080 C   0  0  2  0  0  3  0  0  0  0  0  0
  182.8460  176.1990  139.7020 C   0  0  0  0  0  2  0  0  0  0  0  0
  183.0910  177.6110  139.9520 N   0  0  1  0  0  0  0  0  0  0  0  0
  183.6810  177.8550  141.2490 C   0  0  0  0  0  2  0  0  0  0  0  0
  184.1680  178.0020  139.0780 C   0  0  1  0  0  3  0  0  0  0  0  0
  182.2590  176.0660  138.2870 C   0  0  0  0  0  2  0  0  0  0  0  0
  183.6310  178.1360  137.6670 C   0  0  0  0  0  2  0  0  0  0  0  0
  189.4410  177.3140  143.7750 C   0  0  1  0  0  3  0  0  0  0  0  0
  190.1420  178.5400  144.3310 C   0  0  0  0  0  1  0  0  0  0  0  0
  188.3090  176.8980  144.7080 C   0  0  0  0  0  2  0  0  0  0  0  0
  188.0870  177.6770  147.1990 C   0  0  2  0  0  0  0  0  0  0  0  0
  184.8470  178.9530  146.9750 O   0  0  0  0  0  0  0  0  0  0  0  0
  188.2300  176.1870  147.4760 C   0  0  0  0  0  1  0  0  0  0  0  0
  186.5910  178.4680  145.4800 N   0  0  0  0  0  2  0  0  0  0  0  0
  186.8640  178.1270  147.7680 O   0  0  0  0  0  0  0  0  0  0  0  0
  187.9630  178.0260  145.6800 C   0  0  2  0  0  3  0  0  0  0  0  0
  186.0190  178.5460  146.7670 C   0  0  0  0  0  0  0  0  0  0  0  0
  189.2640  178.4110  147.8300 C   0  0  0  0  0  2  0  0  0  0  0  0
  190.3330  177.5410  148.0500 O   0  0  0  0  0  1  0  0  0  0  0  0
  187.6230  178.1340  138.3340 C   0  0  0  0  0  2  0  0  0  0  0  0
  188.9810  178.7920  137.3250 S   0  0  0  0  0  0  0  0  0  0  0  0
  188.5030  177.7740  135.9040 C   0  0  0  0  0  2  0  0  0  0  0  0
  187.0110  177.8940  135.6770 C   0  0  0  0  0  1  0  0  0  0  0  0
  1  2  1  0  0  0  0
  2 17  1  0  0  0  0
  3  1  2  0  0  0  0
  4  5  2  0  0  0  0
  4  3  1  0  0  0  0
  5  6  1  0  0  0  0
  6  2  2  0  0  0  0
  7  3  1  0  0  0  0
  7  8  1  0  0  0  0
  8 13  1  6  0  0  0
  9 16  1  0  0  0  0
  9 15  1  0  0  0  0
 10  7  1  1  0  0  0
 10  8  1  0  0  0  0
 12 11  1  1  0  0  0
 12 13  1  0  0  0  0
 14 16  1  6  0  0  0
 14 10  1  0  0  0  0
 14 12  1  0  0  0  0
 15 11  1  0  0  0  0
 17 18  1  1  0  0  0
 17 19  1  0  0  0  0
 20 22  1  1  0  0  0
 20 24  1  0  0  0  0
 20 27  1  0  0  0  0
 23 25  1  0  0  0  0
 23 26  1  0  0  0  0
 25 19  1  6  0  0  0
 25 20  1  0  0  0  0
 26 21  2  0  0  0  0
 26 24  1  0  0  0  0
 27 28  1  0  0  0  0
 29  4  1  0  0  0  0
 30 29  1  0  0  0  0
 31 30  1  0  0  0  0
 32 31  1  0  0  0  0
M  END
>  <MODEL>
8

>  <REMARK>
 VINA RESULT:      -6.6      2.618      4.536
  Name = 
  8 active torsions:
  status: ('A' for Active; 'I' for Inactive)
    1  A    between atoms: N_2  and  C_5
    2  A    between atoms: C_3  and  C_22
    3  A    between atoms: C_4  and  C_24
    4  A    between atoms: C_13  and  S_29
    5  A    between atoms: C_14  and  C_18
    6  A    between atoms: C_16  and  C_20
    7  A    between atoms: C_16  and  C_24
    8  A    between atoms: C_18  and  S_29
                            x       y       z     vdW  Elec       q    Type
                         _______ _______ _______ _____ _____    ______ ____

>  <TORSDO>
F 8

$$$$
=
 OpenBabel10272413153D

 32 36  0  0  1  0  0  0  0  0999 V2000
  188.4910  177.9430  140.8950 C   0  0  0  0  0  3  0  0  0  0  0  0
  189.6950  177.2260  140.8660 C   0  0  0  0  0  0  0  0  0  0  0  0
  187.6680  177.8980  142.0230 C   0  0  0  0  0  0  0  0  0  0  0  0
  188.0460  177.1230  143.1340 C   0  0  0  0  0  0  0  0  0  0  0  0
  189.2490  176.4090  143.1030 C   0  0  0  0  0  3  0  0  0  0  0  0
  190.0690  176.4580  141.9730 C   0  0  0  0  0  3  0  0  0  0  0  0
  186.4550  178.6480  142.0300 N   0  0  0  0  0  0  0  0  0  0  0  0
  185.1440  179.0470  142.6240 C   0  0  1  0  0  3  0  0  0  0  0  0
  183.5400  178.4310  138.2410 C   0  0  0  0  0  2  0  0  0  0  0  0
  185.4750  179.5750  141.3840 C   0  0  2  0  0  3  0  0  0  0  0  0
  183.0510  177.1210  140.3670 C   0  0  0  0  0  2  0  0  0  0  0  0
  183.5170  178.2930  141.0920 N   0  0  1  0  0  0  0  0  0  0  0  0
  184.0970  177.9610  142.3750 C   0  0  0  0  0  2  0  0  0  0  0  0
  184.6720  178.7830  140.3820 C   0  0  1  0  0  3  0  0  0  0  0  0
  182.4970  177.5950  139.0130 C   0  0  0  0  0  2  0  0  0  0  0  0
  184.2110  179.4940  139.1260 C   0  0  0  0  0  2  0  0  0  0  0  0
  190.6110  177.2910  139.6810 C   0  0  1  0  0  3  0  0  0  0  0  0
  192.0610  177.3260  140.1270 C   0  0  0  0  0  1  0  0  0  0  0  0
  190.3920  176.1260  138.7230 C   0  0  0  0  0  2  0  0  0  0  0  0
  188.7920  175.2750  136.8320 C   0  0  2  0  0  0  0  0  0  0  0  0
  189.7540  177.5600  134.3780 O   0  0  0  0  0  0  0  0  0  0  0  0
  189.6230  174.0050  136.9650 C   0  0  0  0  0  1  0  0  0  0  0  0
  189.8580  177.4350  136.7200 N   0  0  0  0  0  2  0  0  0  0  0  0
  188.8680  175.7250  135.4860 O   0  0  0  0  0  0  0  0  0  0  0  0
  189.3330  176.4730  137.6770 C   0  0  2  0  0  3  0  0  0  0  0  0
  189.5050  176.9440  135.4450 C   0  0  0  0  0  0  0  0  0  0  0  0
  187.3480  174.9580  137.2010 C   0  0  0  0  0  2  0  0  0  0  0  0
  186.4960  175.1870  136.1190 O   0  0  0  0  0  1  0  0  0  0  0  0
  187.2090  177.0720  144.3670 C   0  0  0  0  0  2  0  0  0  0  0  0
  188.1710  177.6500  145.7940 S   0  0  0  0  0  0  0  0  0  0  0  0
  186.6760  177.8630  146.7960 C   0  0  0  0  0  2  0  0  0  0  0  0
  185.7200  178.7940  146.0830 C   0  0  0  0  0  1  0  0  0  0  0  0
  1  3  1  0  0  0  0
  2  1  2  0  0  0  0
  2  6  1  0  0  0  0
  3  7  1  0  0  0  0
  3  4  2  0  0  0  0
  4 29  1  0  0  0  0
  5  4  1  0  0  0  0
  6  5  2  0  0  0  0
  7  8  1  0  0  0  0
  8 13  1  6  0  0  0
  9 15  1  0  0  0  0
  9 16  1  0  0  0  0
 10  7  1  6  0  0  0
 10  8  1  0  0  0  0
 12 11  1  6  0  0  0
 12 13  1  0  0  0  0
 14 16  1  6  0  0  0
 14 12  1  0  0  0  0
 14 10  1  0  0  0  0
 15 11  1  0  0  0  0
 17 18  1  1  0  0  0
 17  2  1  0  0  0  0
 19 17  1  0  0  0  0
 20 22  1  1  0  0  0
 20 27  1  0  0  0  0
 20 25  1  0  0  0  0
 21 26  2  0  0  0  0
 23 25  1  0  0  0  0
 24 20  1  0  0  0  0
 25 19  1  1  0  0  0
 26 24  1  0  0  0  0
 26 23  1  0  0  0  0
 28 27  1  0  0  0  0
 29 30  1  0  0  0  0
 30 31  1  0  0  0  0
 32 31  1  0  0  0  0
M  END
>  <MODEL>
9

>  <REMARK>
 VINA RESULT:      -6.6      4.188      7.189
  Name = 
  8 active torsions:
  status: ('A' for Active; 'I' for Inactive)
    1  A    between atoms: N_2  and  C_5
    2  A    between atoms: C_3  and  C_22
    3  A    between atoms: C_4  and  C_24
    4  A    between atoms: C_13  and  S_29
    5  A    between atoms: C_14  and  C_18
    6  A    between atoms: C_16  and  C_20
    7  A    between atoms: C_16  and  C_24
    8  A    between atoms: C_18  and  S_29
                            x       y       z     vdW  Elec       q    Type
                         _______ _______ _______ _____ _____    ______ ____

>  <TORSDO>
F 8

$$$$
