=
 OpenBabel10272413103D

 32 36  0  0  1  0  0  0  0  0999 V2000
  187.7420  177.8770  143.3280 N   0  0  0  0  0  0  0  0  0  0  0  0
  189.3010  177.6590  141.0480 C   0  0  0  0  0  0  0  0  0  0  0  0
  186.7980  177.1370  144.1650 C   0  0  0  0  0  2  0  0  0  0  0  0
  187.2600  178.6220  142.1510 C   0  0  1  0  0  3  0  0  0  0  0  0
  187.4980  178.3920  139.6660 N   0  0  0  0  0  0  0  0  0  0  0  0
  192.0250  176.5070  138.7980 C   0  0  0  0  0  3  0  0  0  0  0  0
  188.0050  178.1780  140.9110 C   0  0  0  0  0  0  0  0  0  0  0  0
  190.1420  177.2570  137.4680 C   0  0  0  0  0  3  0  0  0  0  0  0
  189.4400  177.5660  138.6360 C   0  0  0  0  0  0  0  0  0  0  0  0
  185.7290  178.5330  142.0200 C   0  0  1  0  0  3  0  0  0  0  0  0
  188.1890  178.0870  138.5650 N   0  0  0  0  0  0  0  0  0  0  0  0
  185.0710  178.8510  143.3650 C   0  0  0  0  0  2  0  0  0  0  0  0
  189.8590  177.4540  142.3550 N   0  0  0  0  0  0  0  0  0  0  0  0
  189.1470  177.5770  143.4370 C   0  0  0  0  0  0  0  0  0  0  0  0
  190.0310  177.3440  139.8960 C   0  0  0  0  0  0  0  0  0  0  0  0
  185.5990  178.0070  144.5320 C   0  0  0  0  0  2  0  0  0  0  0  0
  191.4330  176.7270  137.5490 C   0  0  0  0  0  3  0  0  0  0  0  0
  191.3270  176.8140  139.9690 C   0  0  0  0  0  3  0  0  0  0  0  0
  191.4710  176.2780  146.1670 C   0  0  0  0  0  0  0  0  0  0  0  0
  192.5910  175.4700  146.3300 O   0  0  0  0  0  1  0  0  0  0  0  0
  189.7770  177.3110  144.7510 C   0  0  0  0  0  0  0  0  0  0  0  0
  190.9000  176.8820  147.2880 C   0  0  0  0  0  3  0  0  0  0  0  0
  189.2110  177.8960  145.8920 C   0  0  0  0  0  3  0  0  0  0  0  0
  190.9140  176.4810  144.8930 C   0  0  0  0  0  0  0  0  0  0  0  0
  191.5020  175.7580  143.7220 C   0  0  0  0  0  1  0  0  0  0  0  0
  189.7630  177.6910  147.1580 C   0  0  0  0  0  0  0  0  0  0  0  0
  187.8570  177.9760  148.7080 C   0  0  0  0  0  1  0  0  0  0  0  0
  189.1670  178.3010  148.2640 O   0  0  0  0  0  0  0  0  0  0  0  0
  185.2500  179.4860  141.0320 N   0  0  0  0  0  2  0  0  0  0  0  0
  184.0120  178.9540  140.4890 C   0  0  0  0  0  2  0  0  0  0  0  0
  183.8920  179.3440  139.0310 C   0  0  0  0  0  2  0  0  0  0  0  0
  184.2040  180.6950  138.8850 O   0  0  0  0  0  1  0  0  0  0  0  0
  1 14  1  0  0  0  0
  1  3  1  0  0  0  0
  2 13  1  0  0  0  0
  3 16  1  0  0  0  0
  4  7  1  6  0  0  0
  4  1  1  0  0  0  0
  5  7  2  0  0  0  0
  6 18  2  0  0  0  0
  7  2  1  0  0  0  0
  8 17  2  0  0  0  0
  8  9  1  0  0  0  0
  9 15  1  0  0  0  0
 10 29  1  6  0  0  0
 10  4  1  0  0  0  0
 10 12  1  0  0  0  0
 11  9  2  0  0  0  0
 11  5  1  0  0  0  0
 12 16  1  0  0  0  0
 13 14  2  0  0  0  0
 14 21  1  0  0  0  0
 15 18  1  0  0  0  0
 15  2  2  0  0  0  0
 17  6  1  0  0  0  0
 19 20  1  0  0  0  0
 19 22  1  0  0  0  0
 21 24  1  0  0  0  0
 21 23  2  0  0  0  0
 23 26  1  0  0  0  0
 24 19  2  0  0  0  0
 25 24  1  0  0  0  0
 26 22  2  0  0  0  0
 26 28  1  0  0  0  0
 28 27  1  0  0  0  0
 30 29  1  0  0  0  0
 31 30  1  0  0  0  0
 32 31  1  0  0  0  0
M  END
>  <MODEL>
1

>  <REMARK>
 VINA RESULT:     -10.2      0.000      0.000
  Name = 
  5 active torsions:
  status: ('A' for Active; 'I' for Inactive)
    1  A    between atoms: C_13  and  C_18
    2  A    between atoms: C_14  and  N_29
    3  A    between atoms: O_15  and  C_26
    4  A    between atoms: C_16  and  C_27
    5  A    between atoms: C_18  and  N_29
                            x       y       z     vdW  Elec       q    Type
                         _______ _______ _______ _____ _____    ______ ____

>  <TORSDO>
F 5

$$$$
=
 OpenBabel10272413103D

 32 36  0  0  1  0  0  0  0  0999 V2000
  188.9370  177.7720  143.0320 N   0  0  0  0  0  0  0  0  0  0  0  0
  186.1840  178.0560  142.9160 C   0  0  0  0  0  0  0  0  0  0  0  0
  190.1840  178.5370  143.0660 C   0  0  0  0  0  2  0  0  0  0  0  0
  188.3140  177.4310  141.7410 C   0  0  1  0  0  3  0  0  0  0  0  0
  186.2230  178.1000  140.5300 N   0  0  0  0  0  0  0  0  0  0  0  0
  182.7320  178.9250  143.9840 C   0  0  0  0  0  3  0  0  0  0  0  0
  186.8830  177.9190  141.7070 C   0  0  0  0  0  0  0  0  0  0  0  0
  182.8630  178.9620  141.5640 C   0  0  0  0  0  3  0  0  0  0  0  0
  184.2120  178.6060  141.6310 C   0  0  0  0  0  0  0  0  0  0  0  0
  189.1660  177.9260  140.5590 C   0  0  1  0  0  3  0  0  0  0  0  0
  184.9330  178.4410  140.4930 N   0  0  0  0  0  0  0  0  0  0  0  0
  190.6260  177.5140  140.7590 C   0  0  0  0  0  2  0  0  0  0  0  0
  186.8600  177.8420  144.1660 N   0  0  0  0  0  0  0  0  0  0  0  0
  188.1490  177.6820  144.2340 C   0  0  0  0  0  0  0  0  0  0  0  0
  184.8300  178.4070  142.8820 C   0  0  0  0  0  0  0  0  0  0  0  0
  191.2140  177.9400  142.1110 C   0  0  0  0  0  2  0  0  0  0  0  0
  182.1240  179.1220  142.7400 C   0  0  0  0  0  3  0  0  0  0  0  0
  184.0810  178.5690  144.0570 C   0  0  0  0  0  3  0  0  0  0  0  0
  188.7670  177.5930  147.9960 C   0  0  0  0  0  0  0  0  0  0  0  0
  188.1220  177.8660  149.1980 O   0  0  0  0  0  1  0  0  0  0  0  0
  188.7850  177.5050  145.5600 C   0  0  0  0  0  0  0  0  0  0  0  0
  190.0810  177.1240  148.0210 C   0  0  0  0  0  3  0  0  0  0  0  0
  190.1100  177.0480  145.6090 C   0  0  0  0  0  3  0  0  0  0  0  0
  188.1100  177.7930  146.7700 C   0  0  0  0  0  0  0  0  0  0  0  0
  186.7300  178.3710  146.7730 C   0  0  0  0  0  1  0  0  0  0  0  0
  190.7620  176.8520  146.8270 C   0  0  0  0  0  0  0  0  0  0  0  0
  192.6670  175.7320  147.9380 C   0  0  0  0  0  1  0  0  0  0  0  0
  192.0800  176.3890  146.8230 O   0  0  0  0  0  0  0  0  0  0  0  0
  188.6870  177.3480  139.3130 N   0  0  0  0  0  2  0  0  0  0  0  0
  189.6630  177.6730  138.2870 C   0  0  0  0  0  2  0  0  0  0  0  0
  188.9770  178.4060  137.1540 C   0  0  0  0  0  2  0  0  0  0  0  0
  188.9440  179.7710  137.4370 O   0  0  0  0  0  1  0  0  0  0  0  0
  1  3  1  0  0  0  0
  1 14  1  0  0  0  0
  2 13  1  0  0  0  0
  4  7  1  1  0  0  0
  4  1  1  0  0  0  0
  5  7  1  0  0  0  0
  6 18  1  0  0  0  0
  7  2  2  0  0  0  0
  8  9  2  0  0  0  0
  8 17  1  0  0  0  0
  9 15  1  0  0  0  0
 10 29  1  6  0  0  0
 10 12  1  0  0  0  0
 10  4  1  0  0  0  0
 11  5  2  0  0  0  0
 11  9  1  0  0  0  0
 12 16  1  0  0  0  0
 13 14  2  0  0  0  0
 14 21  1  0  0  0  0
 15  2  1  0  0  0  0
 15 18  2  0  0  0  0
 16  3  1  0  0  0  0
 17  6  2  0  0  0  0
 19 22  1  0  0  0  0
 19 20  1  0  0  0  0
 21 23  2  0  0  0  0
 21 24  1  0  0  0  0
 23 26  1  0  0  0  0
 24 25  1  0  0  0  0
 24 19  2  0  0  0  0
 26 22  2  0  0  0  0
 28 26  1  0  0  0  0
 28 27  1  0  0  0  0
 30 29  1  0  0  0  0
 31 32  1  0  0  0  0
 31 30  1  0  0  0  0
M  END
>  <MODEL>
2

>  <REMARK>
 VINA RESULT:      -9.5      1.680      5.230
  Name = 
  5 active torsions:
  status: ('A' for Active; 'I' for Inactive)
    1  A    between atoms: C_13  and  C_18
    2  A    between atoms: C_14  and  N_29
    3  A    between atoms: O_15  and  C_26
    4  A    between atoms: C_16  and  C_27
    5  A    between atoms: C_18  and  N_29
                            x       y       z     vdW  Elec       q    Type
                         _______ _______ _______ _____ _____    ______ ____

>  <TORSDO>
F 5

$$$$
=
 OpenBabel10272413103D

 32 36  0  0  1  0  0  0  0  0999 V2000
  189.5110  177.7460  142.6960 N   0  0  0  0  0  0  0  0  0  0  0  0
  186.8110  178.0780  142.1750 C   0  0  0  0  0  0  0  0  0  0  0  0
  190.7490  178.4890  142.9320 C   0  0  0  0  0  2  0  0  0  0  0  0
  189.0840  177.4390  141.3190 C   0  0  1  0  0  3  0  0  0  0  0  0
  187.2080  178.1650  139.8230 N   0  0  0  0  0  0  0  0  0  0  0  0
  183.2500  178.9860  142.7310 C   0  0  0  0  0  3  0  0  0  0  0  0
  187.6800  177.9510  141.0810 C   0  0  0  0  0  0  0  0  0  0  0  0
  183.7430  179.0650  140.3590 C   0  0  0  0  0  3  0  0  0  0  0  0
  185.0610  178.6850  140.6200 C   0  0  0  0  0  0  0  0  0  0  0  0
  190.1110  177.9410  140.2890 C   0  0  1  0  0  3  0  0  0  0  0  0
  185.9430  178.5300  139.6000 N   0  0  0  0  0  0  0  0  0  0  0  0
  191.5180  177.5010  140.6970 C   0  0  0  0  0  2  0  0  0  0  0  0
  187.2880  177.8300  143.5060 N   0  0  0  0  0  0  0  0  0  0  0  0
  188.5500  177.6470  143.7640 C   0  0  0  0  0  0  0  0  0  0  0  0
  185.4820  178.4530  141.9450 C   0  0  0  0  0  0  0  0  0  0  0  0
  191.9020  177.8920  142.1300 C   0  0  0  0  0  2  0  0  0  0  0  0
  182.8380  179.2160  141.4140 C   0  0  0  0  0  3  0  0  0  0  0  0
  184.5680  178.6060  142.9980 C   0  0  0  0  0  3  0  0  0  0  0  0
  188.5540  177.3440  147.5650 C   0  0  0  0  0  0  0  0  0  0  0  0
  187.6980  177.4680  148.6540 O   0  0  0  0  0  1  0  0  0  0  0  0
  188.9770  177.4350  145.1660 C   0  0  0  0  0  0  0  0  0  0  0  0
  189.8890  177.0000  147.7850 C   0  0  0  0  0  3  0  0  0  0  0  0
  190.3170  177.1010  145.4120 C   0  0  0  0  0  3  0  0  0  0  0  0
  188.0890  177.5710  146.2590 C   0  0  0  0  0  0  0  0  0  0  0  0
  186.6730  178.0150  146.0620 C   0  0  0  0  0  1  0  0  0  0  0  0
  190.7790  176.8800  146.7110 C   0  0  0  0  0  0  0  0  0  0  0  0
  192.5530  175.6630  147.9320 C   0  0  0  0  0  1  0  0  0  0  0  0
  192.1210  176.5440  146.9030 O   0  0  0  0  0  0  0  0  0  0  0  0
  189.8160  177.3950  138.9730 N   0  0  0  0  0  2  0  0  0  0  0  0
  190.7380  176.2950  138.7500 C   0  0  0  0  0  2  0  0  0  0  0  0
  190.1710  175.3690  137.6950 C   0  0  0  0  0  2  0  0  0  0  0  0
  190.8120  174.1330  137.7690 O   0  0  0  0  0  1  0  0  0  0  0  0
  1  3  1  0  0  0  0
  1 14  1  0  0  0  0
  2 13  1  0  0  0  0
  4  7  1  6  0  0  0
  4  1  1  0  0  0  0
  5  7  1  0  0  0  0
  6 18  1  0  0  0  0
  7  2  2  0  0  0  0
  8  9  2  0  0  0  0
  8 17  1  0  0  0  0
  9 15  1  0  0  0  0
 10 29  1  6  0  0  0
 10 12  1  0  0  0  0
 10  4  1  0  0  0  0
 11  5  2  0  0  0  0
 11  9  1  0  0  0  0
 12 16  1  0  0  0  0
 13 14  2  0  0  0  0
 14 21  1  0  0  0  0
 15  2  1  0  0  0  0
 15 18  2  0  0  0  0
 16  3  1  0  0  0  0
 17  6  2  0  0  0  0
 19 22  1  0  0  0  0
 19 20  1  0  0  0  0
 21 23  2  0  0  0  0
 21 24  1  0  0  0  0
 23 26  1  0  0  0  0
 24 19  2  0  0  0  0
 25 24  1  0  0  0  0
 26 28  1  0  0  0  0
 26 22  2  0  0  0  0
 28 27  1  0  0  0  0
 30 29  1  0  0  0  0
 31 32  1  0  0  0  0
 31 30  1  0  0  0  0
M  END
>  <MODEL>
3

>  <REMARK>
 VINA RESULT:      -9.3      2.054      5.278
  Name = 
  5 active torsions:
  status: ('A' for Active; 'I' for Inactive)
    1  A    between atoms: C_13  and  C_18
    2  A    between atoms: C_14  and  N_29
    3  A    between atoms: O_15  and  C_26
    4  A    between atoms: C_16  and  C_27
    5  A    between atoms: C_18  and  N_29
                            x       y       z     vdW  Elec       q    Type
                         _______ _______ _______ _____ _____    ______ ____

>  <TORSDO>
F 5

$$$$
=
 OpenBabel10272413103D

 32 36  0  0  1  0  0  0  0  0999 V2000
  187.9460  177.7220  141.5820 N   0  0  0  0  0  0  0  0  0  0  0  0
  189.2160  177.0610  143.9530 C   0  0  0  0  0  0  0  0  0  0  0  0
  187.6900  178.8400  140.6730 C   0  0  0  0  0  2  0  0  0  0  0  0
  187.0610  177.4900  142.7370 C   0  0  1  0  0  3  0  0  0  0  0  0
  187.2880  177.6570  145.2290 N   0  0  0  0  0  0  0  0  0  0  0  0
  191.9800  176.4240  146.3560 C   0  0  0  0  0  3  0  0  0  0  0  0
  187.8700  177.4510  144.0150 C   0  0  0  0  0  0  0  0  0  0  0  0
  189.9800  177.0530  147.5730 C   0  0  0  0  0  3  0  0  0  0  0  0
  189.2840  177.1770  146.3680 C   0  0  0  0  0  0  0  0  0  0  0  0
  185.9030  178.5040  142.7670 C   0  0  1  0  0  3  0  0  0  0  0  0
  187.9750  177.5340  146.3660 N   0  0  0  0  0  0  0  0  0  0  0  0
  185.2430  178.5840  141.3890 C   0  0  0  0  0  2  0  0  0  0  0  0
  189.8360  176.8130  142.6820 N   0  0  0  0  0  0  0  0  0  0  0  0
  189.2430  177.0950  141.5590 C   0  0  0  0  0  0  0  0  0  0  0  0
  189.9380  176.9240  145.1450 C   0  0  0  0  0  0  0  0  0  0  0  0
  186.2260  178.8660  140.2440 C   0  0  0  0  0  2  0  0  0  0  0  0
  191.3260  176.6780  147.5670 C   0  0  0  0  0  3  0  0  0  0  0  0
  191.2890  176.5470  145.1470 C   0  0  0  0  0  3  0  0  0  0  0  0
  191.9710  176.7830  138.9120 C   0  0  0  0  0  0  0  0  0  0  0  0
  193.3400  176.9620  138.7550 O   0  0  0  0  0  1  0  0  0  0  0  0
  189.9560  176.8510  140.2840 C   0  0  0  0  0  0  0  0  0  0  0  0
  191.2120  176.3480  137.8250 C   0  0  0  0  0  3  0  0  0  0  0  0
  189.2130  176.4260  139.1740 C   0  0  0  0  0  3  0  0  0  0  0  0
  191.3510  177.0440  140.1470 C   0  0  0  0  0  0  0  0  0  0  0  0
  192.1780  177.5840  141.2710 C   0  0  0  0  0  1  0  0  0  0  0  0
  189.8280  176.1710  137.9470 C   0  0  0  0  0  0  0  0  0  0  0  0
  187.6400  175.9520  136.8140 C   0  0  0  0  0  1  0  0  0  0  0  0
  189.0450  175.7430  136.8730 O   0  0  0  0  0  0  0  0  0  0  0  0
  184.9000  178.0960  143.7390 N   0  0  0  0  0  2  0  0  0  0  0  0
  183.6500  178.7300  143.3560 C   0  0  0  0  0  2  0  0  0  0  0  0
  182.8310  179.0200  144.5960 C   0  0  0  0  0  2  0  0  0  0  0  0
  183.6760  179.0960  145.7030 O   0  0  0  0  0  1  0  0  0  0  0  0
  1  4  1  0  0  0  0
  2  7  2  0  0  0  0
  2 15  1  0  0  0  0
  3  1  1  0  0  0  0
  4 10  1  0  0  0  0
  4  7  1  1  0  0  0
  5 11  2  0  0  0  0
  6 17  1  0  0  0  0
  7  5  1  0  0  0  0
  9  8  1  0  0  0  0
 10 29  1  1  0  0  0
 11  9  1  0  0  0  0
 12 10  1  0  0  0  0
 13  2  1  0  0  0  0
 14  1  1  0  0  0  0
 14 13  2  0  0  0  0
 15 18  1  0  0  0  0
 15  9  2  0  0  0  0
 16  3  1  0  0  0  0
 16 12  1  0  0  0  0
 17  8  2  0  0  0  0
 18  6  2  0  0  0  0
 19 24  1  0  0  0  0
 20 19  1  0  0  0  0
 21 14  1  0  0  0  0
 22 26  1  0  0  0  0
 22 19  2  0  0  0  0
 23 21  1  0  0  0  0
 24 21  2  0  0  0  0
 24 25  1  0  0  0  0
 26 23  2  0  0  0  0
 27 28  1  0  0  0  0
 28 26  1  0  0  0  0
 30 29  1  0  0  0  0
 30 31  1  0  0  0  0
 31 32  1  0  0  0  0
M  END
>  <MODEL>
4

>  <REMARK>
 VINA RESULT:      -9.2      2.565      6.391
  Name = 
  5 active torsions:
  status: ('A' for Active; 'I' for Inactive)
    1  A    between atoms: C_13  and  C_18
    2  A    between atoms: C_14  and  N_29
    3  A    between atoms: O_15  and  C_26
    4  A    between atoms: C_16  and  C_27
    5  A    between atoms: C_18  and  N_29
                            x       y       z     vdW  Elec       q    Type
                         _______ _______ _______ _____ _____    ______ ____

>  <TORSDO>
F 5

$$$$
=
 OpenBabel10272413103D

 32 36  0  0  1  0  0  0  0  0999 V2000
  189.3690  177.2140  142.6760 N   0  0  0  0  0  0  0  0  0  0  0  0
  186.7610  178.1170  142.9150 C   0  0  0  0  0  0  0  0  0  0  0  0
  190.1780  175.9950  142.6400 C   0  0  0  0  0  2  0  0  0  0  0  0
  189.0230  177.8340  143.9680 C   0  0  1  0  0  3  0  0  0  0  0  0
  186.9200  178.1520  145.2960 N   0  0  0  0  0  0  0  0  0  0  0  0
  183.2040  178.7390  142.0340 C   0  0  0  0  0  3  0  0  0  0  0  0
  187.5240  177.9940  144.0850 C   0  0  0  0  0  0  0  0  0  0  0  0
  183.4520  178.7420  144.4450 C   0  0  0  0  0  3  0  0  0  0  0  0
  184.8200  178.4960  144.3050 C   0  0  0  0  0  0  0  0  0  0  0  0
  189.6600  177.0720  145.1430 C   0  0  1  0  0  3  0  0  0  0  0  0
  185.6110  178.3850  145.4030 N   0  0  0  0  0  0  0  0  0  0  0  0
  191.1440  176.8240  144.8630 C   0  0  0  0  0  2  0  0  0  0  0  0
  187.3880  177.9810  141.6300 N   0  0  0  0  0  0  0  0  0  0  0  0
  188.6200  177.5820  141.5020 C   0  0  0  0  0  0  0  0  0  0  0  0
  185.3880  178.3690  143.0220 C   0  0  0  0  0  0  0  0  0  0  0  0
  191.4180  176.1400  143.5170 C   0  0  0  0  0  2  0  0  0  0  0  0
  182.6450  178.8630  143.3100 C   0  0  0  0  0  3  0  0  0  0  0  0
  184.5720  178.4930  141.8880 C   0  0  0  0  0  3  0  0  0  0  0  0
  189.0500  177.5340  137.7130 C   0  0  0  0  0  0  0  0  0  0  0  0
  188.3380  177.7940  136.5480 O   0  0  0  0  0  1  0  0  0  0  0  0
  189.1910  177.4250  140.1450 C   0  0  0  0  0  0  0  0  0  0  0  0
  190.3750  177.1060  137.6190 C   0  0  0  0  0  3  0  0  0  0  0  0
  190.5160  176.9820  140.0260 C   0  0  0  0  0  3  0  0  0  0  0  0
  188.4450  177.6910  138.9720 C   0  0  0  0  0  0  0  0  0  0  0  0
  187.0010  178.0760  139.0380 C   0  0  0  0  0  1  0  0  0  0  0  0
  191.1150  176.8230  138.7750 C   0  0  0  0  0  0  0  0  0  0  0  0
  193.1770  176.3460  137.4950 C   0  0  0  0  0  1  0  0  0  0  0  0
  192.4400  176.3860  138.7090 O   0  0  0  0  0  0  0  0  0  0  0  0
  189.5410  177.8440  146.3700 N   0  0  0  0  0  2  0  0  0  0  0  0
  189.5190  176.8970  147.4720 C   0  0  0  0  0  2  0  0  0  0  0  0
  188.2320  177.0610  148.2520 C   0  0  0  0  0  2  0  0  0  0  0  0
  188.1040  178.3880  148.6620 O   0  0  0  0  0  1  0  0  0  0  0  0
  1  4  1  0  0  0  0
  2 15  2  0  0  0  0
  2  7  1  0  0  0  0
  3  1  1  0  0  0  0
  3 16  1  0  0  0  0
  4  7  1  1  0  0  0
  4 10  1  0  0  0  0
  5 11  1  0  0  0  0
  6 17  1  0  0  0  0
  7  5  2  0  0  0  0
  9  8  1  0  0  0  0
  9 11  2  0  0  0  0
 10 29  1  1  0  0  0
 12 10  1  0  0  0  0
 13  2  1  0  0  0  0
 14 13  2  0  0  0  0
 14  1  1  0  0  0  0
 15  9  1  0  0  0  0
 16 12  1  0  0  0  0
 17  8  2  0  0  0  0
 18  6  2  0  0  0  0
 18 15  1  0  0  0  0
 19 24  1  0  0  0  0
 20 19  1  0  0  0  0
 21 14  1  0  0  0  0
 22 19  2  0  0  0  0
 22 26  1  0  0  0  0
 23 21  1  0  0  0  0
 24 25  1  0  0  0  0
 24 21  2  0  0  0  0
 26 23  2  0  0  0  0
 27 28  1  0  0  0  0
 28 26  1  0  0  0  0
 29 30  1  0  0  0  0
 30 31  1  0  0  0  0
 31 32  1  0  0  0  0
M  END
>  <MODEL>
5

>  <REMARK>
 VINA RESULT:      -9.2      2.216      7.559
  Name = 
  5 active torsions:
  status: ('A' for Active; 'I' for Inactive)
    1  A    between atoms: C_13  and  C_18
    2  A    between atoms: C_14  and  N_29
    3  A    between atoms: O_15  and  C_26
    4  A    between atoms: C_16  and  C_27
    5  A    between atoms: C_18  and  N_29
                            x       y       z     vdW  Elec       q    Type
                         _______ _______ _______ _____ _____    ______ ____

>  <TORSDO>
F 5

$$$$
=
 OpenBabel10272413103D

 32 36  0  0  1  0  0  0  0  0999 V2000
  186.5840  178.2200  142.1930 N   0  0  0  0  0  0  0  0  0  0  0  0
  187.4590  177.8430  144.7940 C   0  0  0  0  0  0  0  0  0  0  0  0
  186.3890  179.2480  141.1700 C   0  0  0  0  0  2  0  0  0  0  0  0
  185.5300  177.9620  143.1910 C   0  0  1  0  0  3  0  0  0  0  0  0
  185.2830  178.2990  145.6630 N   0  0  0  0  0  0  0  0  0  0  0  0
  189.7890  177.6550  147.6840 C   0  0  0  0  0  3  0  0  0  0  0  0
  186.0930  178.0860  144.5890 C   0  0  0  0  0  0  0  0  0  0  0  0
  187.5490  178.1320  148.4810 C   0  0  0  0  0  3  0  0  0  0  0  0
  187.0760  178.1080  147.1670 C   0  0  0  0  0  0  0  0  0  0  0  0
  184.2920  178.8420  142.9390 C   0  0  1  0  0  3  0  0  0  0  0  0
  185.7600  178.3190  146.9090 N   0  0  0  0  0  0  0  0  0  0  0  0
  183.8900  178.7690  141.4650 C   0  0  0  0  0  2  0  0  0  0  0  0
  188.3210  177.5910  143.6730 N   0  0  0  0  0  0  0  0  0  0  0  0
  187.9170  177.7390  142.4460 C   0  0  0  0  0  0  0  0  0  0  0  0
  187.9630  177.8560  146.1000 C   0  0  0  0  0  0  0  0  0  0  0  0
  185.0320  179.0890  140.4910 C   0  0  0  0  0  2  0  0  0  0  0  0
  188.9040  177.9060  148.7390 C   0  0  0  0  0  3  0  0  0  0  0  0
  189.3200  177.6300  146.3680 C   0  0  0  0  0  3  0  0  0  0  0  0
  191.1250  177.3020  140.4300 C   0  0  0  0  0  0  0  0  0  0  0  0
  192.5060  177.3420  140.5870 O   0  0  0  0  0  1  0  0  0  0  0  0
  188.8710  177.5000  141.3380 C   0  0  0  0  0  0  0  0  0  0  0  0
  190.5910  177.0190  139.1720 C   0  0  0  0  0  3  0  0  0  0  0  0
  188.3570  177.2280  140.0620 C   0  0  0  0  0  3  0  0  0  0  0  0
  190.2730  177.5500  141.5200 C   0  0  0  0  0  0  0  0  0  0  0  0
  190.8750  177.9260  142.8380 C   0  0  0  0  0  1  0  0  0  0  0  0
  189.2040  176.9850  138.9790 C   0  0  0  0  0  0  0  0  0  0  0  0
  187.2400  176.6870  137.5050 C   0  0  0  0  0  1  0  0  0  0  0  0
  188.6430  176.7130  137.7290 O   0  0  0  0  0  0  0  0  0  0  0  0
  183.1740  178.3850  143.7490 N   0  0  0  0  0  2  0  0  0  0  0  0
  182.0200  179.1830  143.3750 C   0  0  0  0  0  2  0  0  0  0  0  0
  180.7620  178.5310  143.9090 C   0  0  0  0  0  2  0  0  0  0  0  0
  179.9820  178.0850  142.8420 O   0  0  0  0  0  1  0  0  0  0  0  0
  1 14  1  0  0  0  0
  1  4  1  0  0  0  0
  2 15  1  0  0  0  0
  3  1  1  0  0  0  0
  4  7  1  1  0  0  0
  5 11  2  0  0  0  0
  6 17  1  0  0  0  0
  7  2  2  0  0  0  0
  7  5  1  0  0  0  0
  8 17  2  0  0  0  0
  9  8  1  0  0  0  0
 10  4  1  0  0  0  0
 10 29  1  1  0  0  0
 11  9  1  0  0  0  0
 12 10  1  0  0  0  0
 13  2  1  0  0  0  0
 14 13  2  0  0  0  0
 15 18  1  0  0  0  0
 15  9  2  0  0  0  0
 16  3  1  0  0  0  0
 16 12  1  0  0  0  0
 18  6  2  0  0  0  0
 19 20  1  0  0  0  0
 19 24  1  0  0  0  0
 21 24  2  0  0  0  0
 21 14  1  0  0  0  0
 22 19  2  0  0  0  0
 23 21  1  0  0  0  0
 24 25  1  0  0  0  0
 26 22  1  0  0  0  0
 26 23  2  0  0  0  0
 27 28  1  0  0  0  0
 28 26  1  0  0  0  0
 30 29  1  0  0  0  0
 30 31  1  0  0  0  0
 32 31  1  0  0  0  0
M  END
>  <MODEL>
6

>  <REMARK>
 VINA RESULT:      -9.1      2.657      6.448
  Name = 
  5 active torsions:
  status: ('A' for Active; 'I' for Inactive)
    1  A    between atoms: C_13  and  C_18
    2  A    between atoms: C_14  and  N_29
    3  A    between atoms: O_15  and  C_26
    4  A    between atoms: C_16  and  C_27
    5  A    between atoms: C_18  and  N_29
                            x       y       z     vdW  Elec       q    Type
                         _______ _______ _______ _____ _____    ______ ____

>  <TORSDO>
F 5

$$$$
=
 OpenBabel10272413103D

 32 36  0  0  1  0  0  0  0  0999 V2000
  189.7030  176.9400  142.8980 N   0  0  0  0  0  0  0  0  0  0  0  0
  187.1270  177.9510  142.7780 C   0  0  0  0  0  0  0  0  0  0  0  0
  190.4570  175.6920  143.0260 C   0  0  0  0  0  2  0  0  0  0  0  0
  189.2390  177.6500  144.1030 C   0  0  1  0  0  3  0  0  0  0  0  0
  187.0130  178.1240  145.1560 N   0  0  0  0  0  0  0  0  0  0  0  0
  183.7250  178.6480  141.4530 C   0  0  0  0  0  3  0  0  0  0  0  0
  187.7440  177.8720  144.0360 C   0  0  0  0  0  0  0  0  0  0  0  0
  183.6940  178.7890  143.8730 C   0  0  0  0  0  3  0  0  0  0  0  0
  185.0570  178.4850  143.9090 C   0  0  0  0  0  0  0  0  0  0  0  0
  189.7020  176.9370  145.3870 C   0  0  1  0  0  3  0  0  0  0  0  0
  185.7110  178.4110  145.0950 N   0  0  0  0  0  0  0  0  0  0  0  0
  191.1960  176.6190  145.2960 C   0  0  0  0  0  2  0  0  0  0  0  0
  187.8910  177.7140  141.5860 N   0  0  0  0  0  0  0  0  0  0  0  0
  189.1100  177.2630  141.6260 C   0  0  0  0  0  0  0  0  0  0  0  0
  185.7630  178.2590  142.7100 C   0  0  0  0  0  0  0  0  0  0  0  0
  191.5930  175.8450  144.0320 C   0  0  0  0  0  2  0  0  0  0  0  0
  183.0290  178.8700  142.6460 C   0  0  0  0  0  3  0  0  0  0  0  0
  185.0880  178.3430  141.4830 C   0  0  0  0  0  3  0  0  0  0  0  0
  191.8430  176.9250  138.9880 C   0  0  0  0  0  0  0  0  0  0  0  0
  193.2120  177.1100  138.8300 O   0  0  0  0  0  1  0  0  0  0  0  0
  189.8270  177.0030  140.3560 C   0  0  0  0  0  0  0  0  0  0  0  0
  191.0890  176.4690  137.9060 C   0  0  0  0  0  3  0  0  0  0  0  0
  189.0870  176.5570  139.2510 C   0  0  0  0  0  3  0  0  0  0  0  0
  191.2210  177.2020  140.2170 C   0  0  0  0  0  0  0  0  0  0  0  0
  192.0420  177.7640  141.3340 C   0  0  0  0  0  1  0  0  0  0  0  0
  189.7060  176.2860  138.0300 C   0  0  0  0  0  0  0  0  0  0  0  0
  187.5090  175.7640  137.0210 C   0  0  0  0  0  1  0  0  0  0  0  0
  188.9260  175.8370  136.9610 O   0  0  0  0  0  0  0  0  0  0  0  0
  189.4770  177.7860  146.5460 N   0  0  0  0  0  2  0  0  0  0  0  0
  189.3030  176.9100  147.6910 C   0  0  0  0  0  2  0  0  0  0  0  0
  188.2290  177.4730  148.5980 C   0  0  0  0  0  2  0  0  0  0  0  0
  187.9390  178.7830  148.2160 O   0  0  0  0  0  1  0  0  0  0  0  0
  1  3  1  0  0  0  0
  1  4  1  0  0  0  0
  2  7  1  0  0  0  0
  3 16  1  0  0  0  0
  4  7  1  6  0  0  0
  4 10  1  0  0  0  0
  6 18  2  0  0  0  0
  6 17  1  0  0  0  0
  7  5  2  0  0  0  0
  8  9  1  0  0  0  0
  9 11  2  0  0  0  0
 10 29  1  1  0  0  0
 11  5  1  0  0  0  0
 12 10  1  0  0  0  0
 13 14  2  0  0  0  0
 13  2  1  0  0  0  0
 14  1  1  0  0  0  0
 15  2  2  0  0  0  0
 15  9  1  0  0  0  0
 16 12  1  0  0  0  0
 17  8  2  0  0  0  0
 18 15  1  0  0  0  0
 19 24  1  0  0  0  0
 20 19  1  0  0  0  0
 21 14  1  0  0  0  0
 22 26  1  0  0  0  0
 22 19  2  0  0  0  0
 23 21  1  0  0  0  0
 24 21  2  0  0  0  0
 24 25  1  0  0  0  0
 26 23  2  0  0  0  0
 28 27  1  0  0  0  0
 28 26  1  0  0  0  0
 29 30  1  0  0  0  0
 30 31  1  0  0  0  0
 32 31  1  0  0  0  0
M  END
>  <MODEL>
7

>  <REMARK>
 VINA RESULT:      -8.9      2.325      7.179
  Name = 
  5 active torsions:
  status: ('A' for Active; 'I' for Inactive)
    1  A    between atoms: C_13  and  C_18
    2  A    between atoms: C_14  and  N_29
    3  A    between atoms: O_15  and  C_26
    4  A    between atoms: C_16  and  C_27
    5  A    between atoms: C_18  and  N_29
                            x       y       z     vdW  Elec       q    Type
                         _______ _______ _______ _____ _____    ______ ____

>  <TORSDO>
F 5

$$$$
=
 OpenBabel10272413103D

 32 36  0  0  1  0  0  0  0  0999 V2000
  189.5050  176.9900  138.2580 N   0  0  0  0  0  0  0  0  0  0  0  0
  189.8980  176.9190  140.9990 C   0  0  0  0  0  0  0  0  0  0  0  0
  189.7900  177.7850  137.0630 C   0  0  0  0  0  2  0  0  0  0  0  0
  188.3200  177.2910  139.0810 C   0  0  1  0  0  3  0  0  0  0  0  0
  187.9240  178.2050  141.3820 N   0  0  0  0  0  0  0  0  0  0  0  0
  191.6800  176.6310  144.2480 C   0  0  0  0  0  3  0  0  0  0  0  0
  188.7290  177.5270  140.5180 C   0  0  0  0  0  0  0  0  0  0  0  0
  189.6620  177.9410  144.5460 C   0  0  0  0  0  3  0  0  0  0  0  0
  189.3610  177.7870  143.1910 C   0  0  0  0  0  0  0  0  0  0  0  0
  187.4940  178.4390  138.4740 C   0  0  1  0  0  3  0  0  0  0  0  0
  188.2350  178.3390  142.6730 N   0  0  0  0  0  0  0  0  0  0  0  0
  187.2610  178.1840  136.9840 C   0  0  0  0  0  2  0  0  0  0  0  0
  190.7440  176.1780  140.1050 N   0  0  0  0  0  0  0  0  0  0  0  0
  190.5570  176.1810  138.8180 C   0  0  0  0  0  0  0  0  0  0  0  0
  190.2240  177.0510  142.3540 C   0  0  0  0  0  0  0  0  0  0  0  0
  188.5460  177.9180  136.1890 C   0  0  0  0  0  2  0  0  0  0  0  0
  190.8210  177.3630  145.0740 C   0  0  0  0  0  3  0  0  0  0  0  0
  191.3840  176.4740  142.8910 C   0  0  0  0  0  3  0  0  0  0  0  0
  192.0000  173.6880  136.3190 C   0  0  0  0  0  0  0  0  0  0  0  0
  191.6050  172.6360  135.5000 O   0  0  0  0  0  1  0  0  0  0  0  0
  191.4910  175.4270  137.9500 C   0  0  0  0  0  0  0  0  0  0  0  0
  193.3430  174.0700  136.3350 C   0  0  0  0  0  3  0  0  0  0  0  0
  192.8470  175.7840  137.9610 C   0  0  0  0  0  3  0  0  0  0  0  0
  191.0660  174.3570  137.1280 C   0  0  0  0  0  0  0  0  0  0  0  0
  189.6490  173.8740  137.1480 C   0  0  0  0  0  1  0  0  0  0  0  0
  193.7750  175.1170  137.1590 C   0  0  0  0  0  0  0  0  0  0  0  0
  196.1860  174.6360  136.8840 C   0  0  0  0  0  1  0  0  0  0  0  0
  195.1140  175.5140  137.2000 O   0  0  0  0  0  0  0  0  0  0  0  0
  186.2020  178.5370  139.1360 N   0  0  0  0  0  2  0  0  0  0  0  0
  185.1870  178.2410  138.1410 C   0  0  0  0  0  2  0  0  0  0  0  0
  183.9060  178.9680  138.4960 C   0  0  0  0  0  2  0  0  0  0  0  0
  184.2160  180.1840  139.1020 O   0  0  0  0  0  1  0  0  0  0  0  0
  1 14  1  0  0  0  0
  1  4  1  0  0  0  0
  2 15  1  0  0  0  0
  3  1  1  0  0  0  0
  4  7  1  1  0  0  0
  5 11  2  0  0  0  0
  6 17  1  0  0  0  0
  7  2  2  0  0  0  0
  7  5  1  0  0  0  0
  8 17  2  0  0  0  0
  9  8  1  0  0  0  0
 10  4  1  0  0  0  0
 10 29  1  1  0  0  0
 11  9  1  0  0  0  0
 12 10  1  0  0  0  0
 13  2  1  0  0  0  0
 14 13  2  0  0  0  0
 15 18  1  0  0  0  0
 15  9  2  0  0  0  0
 16 12  1  0  0  0  0
 16  3  1  0  0  0  0
 18  6  2  0  0  0  0
 19 22  2  0  0  0  0
 19 24  1  0  0  0  0
 20 19  1  0  0  0  0
 21 23  1  0  0  0  0
 21 14  1  0  0  0  0
 22 26  1  0  0  0  0
 24 25  1  0  0  0  0
 24 21  2  0  0  0  0
 26 28  1  0  0  0  0
 26 23  2  0  0  0  0
 27 28  1  0  0  0  0
 30 31  1  0  0  0  0
 30 29  1  0  0  0  0
 31 32  1  0  0  0  0
M  END
>  <MODEL>
8

>  <REMARK>
 VINA RESULT:      -8.8      3.273      7.082
  Name = 
  5 active torsions:
  status: ('A' for Active; 'I' for Inactive)
    1  A    between atoms: C_13  and  C_18
    2  A    between atoms: C_14  and  N_29
    3  A    between atoms: O_15  and  C_26
    4  A    between atoms: C_16  and  C_27
    5  A    between atoms: C_18  and  N_29
                            x       y       z     vdW  Elec       q    Type
                         _______ _______ _______ _____ _____    ______ ____

>  <TORSDO>
F 5

$$$$
=
 OpenBabel10272413103D

 32 36  0  0  1  0  0  0  0  0999 V2000
  189.9890  177.5250  142.5490 N   0  0  0  0  0  0  0  0  0  0  0  0
  187.2470  177.9160  142.5980 C   0  0  0  0  0  0  0  0  0  0  0  0
  191.2650  178.2390  142.5800 C   0  0  0  0  0  2  0  0  0  0  0  0
  189.2910  177.3150  141.2680 C   0  0  1  0  0  3  0  0  0  0  0  0
  187.1720  178.1560  140.2240 N   0  0  0  0  0  0  0  0  0  0  0  0
  183.8880  178.8160  143.9090 C   0  0  0  0  0  3  0  0  0  0  0  0
  187.8800  177.8540  141.3470 C   0  0  0  0  0  0  0  0  0  0  0  0
  183.9030  179.0490  141.4950 C   0  0  0  0  0  3  0  0  0  0  0  0
  185.2380  178.6410  141.4640 C   0  0  0  0  0  0  0  0  0  0  0  0
  190.1040  177.8760  140.0880 C   0  0  1  0  0  3  0  0  0  0  0  0
  185.8970  178.5460  140.2810 N   0  0  0  0  0  0  0  0  0  0  0  0
  191.5550  177.3960  140.1780 C   0  0  0  0  0  2  0  0  0  0  0  0
  187.9730  177.5740  143.7890 N   0  0  0  0  0  0  0  0  0  0  0  0
  189.2560  177.3630  143.7780 C   0  0  0  0  0  0  0  0  0  0  0  0
  185.9080  178.3170  142.6620 C   0  0  0  0  0  0  0  0  0  0  0  0
  192.2230  177.6870  141.5290 C   0  0  0  0  0  2  0  0  0  0  0  0
  183.2280  179.1380  142.7170 C   0  0  0  0  0  3  0  0  0  0  0  0
  185.2240  178.4070  143.8820 C   0  0  0  0  0  3  0  0  0  0  0  0
  191.6630  175.9150  146.3580 C   0  0  0  0  0  0  0  0  0  0  0  0
  192.7400  175.0410  146.4500 O   0  0  0  0  0  1  0  0  0  0  0  0
  189.9480  177.0530  145.0500 C   0  0  0  0  0  0  0  0  0  0  0  0
  191.1970  176.5450  147.5130 C   0  0  0  0  0  3  0  0  0  0  0  0
  189.4890  177.6640  146.2260 C   0  0  0  0  0  3  0  0  0  0  0  0
  191.0410  176.1570  145.1210 C   0  0  0  0  0  0  0  0  0  0  0  0
  191.5120  175.4070  143.9150 C   0  0  0  0  0  1  0  0  0  0  0  0
  190.1050  177.4200  147.4540 C   0  0  0  0  0  0  0  0  0  0  0  0
  188.2410  178.0330  148.9610 C   0  0  0  0  0  1  0  0  0  0  0  0
  189.6140  178.0590  148.5960 O   0  0  0  0  0  0  0  0  0  0  0  0
  189.5430  177.4210  138.8250 N   0  0  0  0  0  2  0  0  0  0  0  0
  190.4590  176.4350  138.2790 C   0  0  0  0  0  2  0  0  0  0  0  0
  189.6690  175.3280  137.6130 C   0  0  0  0  0  2  0  0  0  0  0  0
  190.4500  174.1750  137.5480 O   0  0  0  0  0  1  0  0  0  0  0  0
  1  3  1  0  0  0  0
  1 14  1  0  0  0  0
  2 15  1  0  0  0  0
  2 13  1  0  0  0  0
  4  7  1  1  0  0  0
  4  1  1  0  0  0  0
  5 11  2  0  0  0  0
  5  7  1  0  0  0  0
  7  2  2  0  0  0  0
  8 17  1  0  0  0  0
  9  8  2  0  0  0  0
  9 15  1  0  0  0  0
 10 29  1  6  0  0  0
 10 12  1  0  0  0  0
 10  4  1  0  0  0  0
 11  9  1  0  0  0  0
 12 16  1  0  0  0  0
 14 13  2  0  0  0  0
 14 21  1  0  0  0  0
 15 18  2  0  0  0  0
 16  3  1  0  0  0  0
 17  6  2  0  0  0  0
 18  6  1  0  0  0  0
 19 20  1  0  0  0  0
 19 22  1  0  0  0  0
 21 24  1  0  0  0  0
 21 23  2  0  0  0  0
 23 26  1  0  0  0  0
 24 19  2  0  0  0  0
 25 24  1  0  0  0  0
 26 22  2  0  0  0  0
 26 28  1  0  0  0  0
 28 27  1  0  0  0  0
 30 29  1  0  0  0  0
 31 30  1  0  0  0  0
 32 31  1  0  0  0  0
M  END
>  <MODEL>
9

>  <REMARK>
 VINA RESULT:      -8.8      1.904      4.903
  Name = 
  5 active torsions:
  status: ('A' for Active; 'I' for Inactive)
    1  A    between atoms: C_13  and  C_18
    2  A    between atoms: C_14  and  N_29
    3  A    between atoms: O_15  and  C_26
    4  A    between atoms: C_16  and  C_27
    5  A    between atoms: C_18  and  N_29
                            x       y       z     vdW  Elec       q    Type
                         _______ _______ _______ _____ _____    ______ ____

>  <TORSDO>
F 5

$$$$
