=
 OpenBabel10272414223D

 43 47  0  0  1  0  0  0  0  0999 V2000
  181.2180  178.4550  140.9340 C   0  0  2  0  0  3  0  0  0  0  0  0
  186.0540  178.1890  142.4240 C   0  0  2  0  0  3  0  0  0  0  0  0
  187.6220  177.9750  140.1300 C   0  0  2  0  0  3  0  0  0  0  0  0
  183.2460  179.1630  142.3560 C   0  0  1  0  0  3  0  0  0  0  0  0
  182.0280  177.3080  140.3110 C   0  0  0  0  0  2  0  0  0  0  0  0
  181.2300  179.5640  140.0870 O   0  0  0  0  0  1  0  0  0  0  0  0
  183.9720  178.7540  141.0560 C   0  0  2  0  0  3  0  0  0  0  0  0
  181.7420  178.8450  142.3210 C   0  0  0  0  0  2  0  0  0  0  0  0
  183.5320  177.3550  140.6170 C   0  0  0  0  0  2  0  0  0  0  0  0
  186.2010  178.4870  139.8860 C   0  0  0  0  0  2  0  0  0  0  0  0
  185.4950  178.9080  141.1790 C   0  0  2  0  0  3  0  0  0  0  0  0
  185.3490  178.7220  143.6670 C   0  0  0  0  0  2  0  0  0  0  0  0
  187.5140  178.3440  142.5870 N   0  0  0  0  0  0  0  0  0  0  0  0
  188.2350  178.6670  141.3450 C   0  0  0  0  0  2  0  0  0  0  0  0
  183.8500  178.4670  143.5770 C   0  0  0  0  0  2  0  0  0  0  0  0
  188.4990  178.1640  138.8980 C   0  0  2  0  0  3  0  0  0  0  0  0
  189.0270  179.4450  138.8670 F   0  0  0  0  0  0  0  0  0  0  0  0
  187.7130  177.9240  137.6970 N   0  0  0  0  0  2  0  0  0  0  0  0
  188.3020  177.6570  136.4240 C   0  0  0  0  0  0  0  0  0  0  0  0
  189.5490  177.5340  136.3050 O   0  0  0  0  0  0  0  0  0  0  0  0
  187.2480  177.4980  134.9850 S   0  0  0  0  0  0  0  0  0  0  0  0
  185.9730  176.4800  135.8160 C   0  0  1  0  0  3  0  0  0  0  0  0
  184.5580  176.9760  135.5380 C   0  0  0  0  0  2  0  0  0  0  0  0
  182.4650  176.4190  136.7680 C   0  0  0  0  0  1  0  0  0  0  0  0
  183.7790  177.1720  136.8270 C   0  0  0  0  0  2  0  0  0  0  0  0
  186.0950  175.1440  135.4230 O   0  0  0  0  0  0  0  0  0  0  0  0
  186.1400  174.4180  136.6160 C   0  0  2  0  0  3  0  0  0  0  0  0
  187.4630  174.0880  136.9190 O   0  0  0  0  0  1  0  0  0  0  0  0
  185.3160  173.1780  136.4960 C   0  0  0  0  0  0  0  0  0  0  0  0
  184.9770  170.9870  135.5170 C   0  0  0  0  0  3  0  0  0  0  0  0
  183.3800  171.8540  137.1180 C   0  0  0  0  0  3  0  0  0  0  0  0
  183.8010  170.8360  136.2560 C   0  0  0  0  0  3  0  0  0  0  0  0
  184.1370  173.0230  137.2380 C   0  0  0  0  0  3  0  0  0  0  0  0
  185.7340  172.1570  135.6370 C   0  0  0  0  0  3  0  0  0  0  0  0
  188.0150  177.1120  143.0390 N   0  0  0  0  0  2  0  0  0  0  0  0
  191.3440  176.5380  144.6430 C   0  0  0  0  0  3  0  0  0  0  0  0
  191.0560  176.8570  145.9800 C   0  0  0  0  0  0  0  0  0  0  0  0
  188.7610  177.3360  145.3510 C   0  0  0  0  0  3  0  0  0  0  0  0
  190.3460  176.6210  143.6680 C   0  0  0  0  0  3  0  0  0  0  0  0
  189.0510  177.0250  144.0190 C   0  0  0  0  0  0  0  0  0  0  0  0
  189.7600  177.2540  146.3260 C   0  0  0  0  0  3  0  0  0  0  0  0
  192.0310  176.7870  146.9780 O   0  0  0  0  0  0  0  0  0  0  0  0
  192.3200  175.5900  147.6860 C   0  0  0  0  0  1  0  0  0  0  0  0
  1  6  1  6  0  0  0
  1  8  1  0  0  0  0
  2 13  1  0  0  0  0
  2 12  1  1  0  0  0
  3 16  1  6  0  0  0
  3 14  1  0  0  0  0
  4  8  1  6  0  0  0
  4 15  1  0  0  0  0
  5  9  1  0  0  0  0
  5  1  1  0  0  0  0
  7  9  1  1  0  0  0
  7 11  1  0  0  0  0
  7  4  1  0  0  0  0
 10  3  1  0  0  0  0
 11 10  1  6  0  0  0
 11  2  1  0  0  0  0
 13 35  1  0  0  0  0
 14 13  1  0  0  0  0
 15 12  1  0  0  0  0
 16 17  1  6  0  0  0
 18 16  1  0  0  0  0
 19 18  1  0  0  0  0
 20 19  2  0  0  0  0
 21 22  1  0  0  0  0
 21 19  1  0  0  0  0
 22 23  1  6  0  0  0
 23 25  1  0  0  0  0
 24 25  1  0  0  0  0
 26 22  1  0  0  0  0
 26 27  1  0  0  0  0
 27 28  1  6  0  0  0
 29 27  1  0  0  0  0
 29 33  1  0  0  0  0
 30 34  1  0  0  0  0
 30 32  2  0  0  0  0
 31 33  2  0  0  0  0
 32 31  1  0  0  0  0
 34 29  2  0  0  0  0
 35 40  1  0  0  0  0
 36 37  1  0  0  0  0
 37 41  2  0  0  0  0
 37 42  1  0  0  0  0
 38 41  1  0  0  0  0
 39 40  1  0  0  0  0
 39 36  2  0  0  0  0
 40 38  2  0  0  0  0
 42 43  1  0  0  0  0
M  END
>  <MODEL>
1

>  <REMARK>
 VINA RESULT:      -7.9      0.000      0.000
  Name = 
  12 active torsions:
  status: ('A' for Active; 'I' for Inactive)
    1  A    between atoms: N_1  and  N_34
    2  A    between atoms: N_1  and  C_35
    3  A    between atoms: C_2  and  N_6
    4  A    between atoms: C_2  and  C_13
    5  A    between atoms: S_3  and  C_4
    6  A    between atoms: S_3  and  C_12
    7  A    between atoms: C_4  and  C_15
    8  A    between atoms: C_4  and  O_22
    9  A    between atoms: C_11  and  C_14
   10  A    between atoms: C_14  and  O_22
   11  A    between atoms: C_15  and  C_42
   12  A    between atoms: C_19  and  O_25
                            x       y       z     vdW  Elec       q    Type
                         _______ _______ _______ _____ _____    ______ ____

>  <TORSDO>
F 12

$$$$
=
 OpenBabel10272414223D

 43 47  0  0  1  0  0  0  0  0999 V2000
  183.9150  173.0630  135.4660 C   0  0  2  0  0  3  0  0  0  0  0  0
  188.6720  174.3450  136.6550 C   0  0  2  0  0  3  0  0  0  0  0  0
  188.6570  177.0440  137.3550 C   0  0  2  0  0  3  0  0  0  0  0  0
  186.1990  172.6960  136.5990 C   0  0  1  0  0  3  0  0  0  0  0  0
  184.4360  174.3360  134.7800 C   0  0  0  0  0  2  0  0  0  0  0  0
  183.2190  173.3980  136.6290 O   0  0  0  0  0  1  0  0  0  0  0  0
  186.1190  174.2360  136.6730 C   0  0  2  0  0  3  0  0  0  0  0  0
  185.0440  172.0800  135.7930 C   0  0  0  0  0  2  0  0  0  0  0  0
  185.8000  174.8200  135.2950 C   0  0  0  0  0  2  0  0  0  0  0  0
  187.2830  176.3710  137.3770 C   0  0  0  0  0  2  0  0  0  0  0  0
  187.3720  174.8430  137.3220 C   0  0  2  0  0  3  0  0  0  0  0  0
  188.7100  172.8220  136.7130 C   0  0  0  0  0  2  0  0  0  0  0  0
  189.8970  174.8890  137.2770 N   0  0  0  0  0  0  0  0  0  0  0  0
  189.6990  176.1460  138.0180 C   0  0  0  0  0  2  0  0  0  0  0  0
  187.5160  172.2320  135.9740 C   0  0  0  0  0  2  0  0  0  0  0  0
  188.6150  178.4120  138.0230 C   0  0  2  0  0  3  0  0  0  0  0  0
  189.4030  179.3180  137.3300 F   0  0  0  0  0  0  0  0  0  0  0  0
  189.0820  178.3000  139.3970 N   0  0  0  0  0  2  0  0  0  0  0  0
  188.2150  178.4230  140.5240 C   0  0  0  0  0  0  0  0  0  0  0  0
  186.9720  178.5510  140.3700 O   0  0  0  0  0  0  0  0  0  0  0  0
  188.9100  178.3920  142.1750 S   0  0  0  0  0  0  0  0  0  0  0  0
  188.6520  176.5980  142.4370 C   0  0  1  0  0  3  0  0  0  0  0  0
  189.9220  175.8870  142.8940 C   0  0  0  0  0  2  0  0  0  0  0  0
  191.6520  176.8950  144.3740 C   0  0  0  0  0  1  0  0  0  0  0  0
  191.0960  176.8460  142.9640 C   0  0  0  0  0  2  0  0  0  0  0  0
  187.6300  176.3930  143.3680 O   0  0  0  0  0  0  0  0  0  0  0  0
  187.7020  177.4880  144.2330 C   0  0  2  0  0  3  0  0  0  0  0  0
  188.3730  177.1230  145.4020 O   0  0  0  0  0  1  0  0  0  0  0  0
  186.3290  177.9770  144.5590 C   0  0  0  0  0  0  0  0  0  0  0  0
  184.1440  178.7110  143.8120 C   0  0  0  0  0  3  0  0  0  0  0  0
  184.6360  178.6020  146.1810 C   0  0  0  0  0  3  0  0  0  0  0  0
  183.7440  178.8830  145.1400 C   0  0  0  0  0  3  0  0  0  0  0  0
  185.9260  178.1490  145.8920 C   0  0  0  0  0  3  0  0  0  0  0  0
  185.4350  178.2570  143.5220 C   0  0  0  0  0  3  0  0  0  0  0  0
  190.8010  175.1680  136.2390 N   0  0  0  0  0  2  0  0  0  0  0  0
  194.1720  174.3510  137.6380 C   0  0  0  0  0  3  0  0  0  0  0  0
  195.0030  175.0930  136.7840 C   0  0  0  0  0  0  0  0  0  0  0  0
  193.0430  175.8740  135.5840 C   0  0  0  0  0  3  0  0  0  0  0  0
  192.7850  174.3710  137.4640 C   0  0  0  0  0  3  0  0  0  0  0  0
  192.2160  175.1310  136.4320 C   0  0  0  0  0  0  0  0  0  0  0  0
  194.4290  175.8530  135.7590 C   0  0  0  0  0  3  0  0  0  0  0  0
  196.3930  175.0920  136.9300 O   0  0  0  0  0  0  0  0  0  0  0  0
  197.2750  175.4640  135.8800 C   0  0  0  0  0  1  0  0  0  0  0  0
  1  8  1  0  0  0  0
  1  6  1  1  0  0  0
  2 12  1  1  0  0  0
  2 13  1  0  0  0  0
  2 11  1  0  0  0  0
  3 10  1  0  0  0  0
  3 14  1  0  0  0  0
  3 16  1  1  0  0  0
  4  8  1  6  0  0  0
  4  7  1  0  0  0  0
  5  9  1  0  0  0  0
  5  1  1  0  0  0  0
  7  9  1  6  0  0  0
  7 11  1  0  0  0  0
 11 10  1  6  0  0  0
 13 14  1  0  0  0  0
 15  4  1  0  0  0  0
 15 12  1  0  0  0  0
 16 17  1  6  0  0  0
 16 18  1  0  0  0  0
 18 19  1  0  0  0  0
 19 21  1  0  0  0  0
 20 19  2  0  0  0  0
 21 22  1  0  0  0  0
 22 23  1  1  0  0  0
 22 26  1  0  0  0  0
 23 25  1  0  0  0  0
 25 24  1  0  0  0  0
 26 27  1  0  0  0  0
 27 29  1  0  0  0  0
 27 28  1  1  0  0  0
 29 33  1  0  0  0  0
 30 32  2  0  0  0  0
 32 31  1  0  0  0  0
 33 31  2  0  0  0  0
 34 30  1  0  0  0  0
 34 29  2  0  0  0  0
 35 40  1  0  0  0  0
 35 13  1  0  0  0  0
 37 42  1  0  0  0  0
 37 36  2  0  0  0  0
 38 41  2  0  0  0  0
 38 40  1  0  0  0  0
 39 36  1  0  0  0  0
 40 39  2  0  0  0  0
 41 37  1  0  0  0  0
 43 42  1  0  0  0  0
M  END
>  <MODEL>
2

>  <REMARK>
 VINA RESULT:      -7.8      3.770      8.468
  Name = 
  12 active torsions:
  status: ('A' for Active; 'I' for Inactive)
    1  A    between atoms: N_1  and  N_34
    2  A    between atoms: N_1  and  C_35
    3  A    between atoms: C_2  and  N_6
    4  A    between atoms: C_2  and  C_13
    5  A    between atoms: S_3  and  C_4
    6  A    between atoms: S_3  and  C_12
    7  A    between atoms: C_4  and  C_15
    8  A    between atoms: C_4  and  O_22
    9  A    between atoms: C_11  and  C_14
   10  A    between atoms: C_14  and  O_22
   11  A    between atoms: C_15  and  C_42
   12  A    between atoms: C_19  and  O_25
                            x       y       z     vdW  Elec       q    Type
                         _______ _______ _______ _____ _____    ______ ____

>  <TORSDO>
F 12

$$$$
=
 OpenBabel10272414223D

 43 47  0  0  1  0  0  0  0  0999 V2000
  189.5940  177.2420  144.5010 C   0  0  2  0  0  3  0  0  0  0  0  0
  190.7060  177.0640  139.5600 C   0  0  2  0  0  3  0  0  0  0  0  0
  188.3070  177.2910  138.1590 C   0  0  2  0  0  3  0  0  0  0  0  0
  190.9710  177.8580  142.4130 C   0  0  1  0  0  3  0  0  0  0  0  0
  188.7520  176.2520  143.6810 C   0  0  0  0  0  2  0  0  0  0  0  0
  188.9260  178.4620  144.6110 O   0  0  0  0  0  1  0  0  0  0  0  0
  189.5790  177.6930  141.7650 C   0  0  2  0  0  3  0  0  0  0  0  0
  190.9860  177.4550  143.8970 C   0  0  0  0  0  2  0  0  0  0  0  0
  188.9630  176.3490  142.1620 C   0  0  0  0  0  2  0  0  0  0  0  0
  188.2380  177.7420  139.6190 C   0  0  0  0  0  2  0  0  0  0  0  0
  189.6230  177.9220  140.2470 C   0  0  2  0  0  3  0  0  0  0  0  0
  192.0580  177.3630  140.1980 C   0  0  0  0  0  2  0  0  0  0  0  0
  190.7940  177.2860  138.1020 N   0  0  0  0  0  0  0  0  0  0  0  0
  189.5700  177.8330  137.4940 C   0  0  0  0  0  2  0  0  0  0  0  0
  192.0300  177.0300  141.6840 C   0  0  0  0  0  2  0  0  0  0  0  0
  187.0630  177.7140  137.3870 C   0  0  2  0  0  3  0  0  0  0  0  0
  187.0360  179.0910  137.2240 F   0  0  0  0  0  0  0  0  0  0  0  0
  185.8730  177.2770  138.1000 N   0  0  0  0  0  2  0  0  0  0  0  0
  184.6870  176.8370  137.4370 C   0  0  0  0  0  0  0  0  0  0  0  0
  184.6540  176.7280  136.1830 O   0  0  0  0  0  0  0  0  0  0  0  0
  183.2350  176.4370  138.4060 S   0  0  0  0  0  0  0  0  0  0  0  0
  183.2840  177.9570  139.4270 C   0  0  1  0  0  3  0  0  0  0  0  0
  181.9100  178.5990  139.5820 C   0  0  0  0  0  2  0  0  0  0  0  0
  180.3340  178.2540  141.4790 C   0  0  0  0  0  1  0  0  0  0  0  0
  180.9230  177.6410  140.2240 C   0  0  0  0  0  2  0  0  0  0  0  0
  183.8220  177.6730  140.6840 O   0  0  0  0  0  0  0  0  0  0  0  0
  184.1060  178.9200  141.2480 C   0  0  2  0  0  3  0  0  0  0  0  0
  185.2370  179.4670  140.6380 O   0  0  0  0  0  1  0  0  0  0  0  0
  184.3300  178.7820  142.7180 C   0  0  0  0  0  0  0  0  0  0  0  0
  183.5070  179.0190  144.9850 C   0  0  0  0  0  3  0  0  0  0  0  0
  185.7360  178.1560  144.5940 C   0  0  0  0  0  3  0  0  0  0  0  0
  184.7170  178.5240  145.4790 C   0  0  0  0  0  3  0  0  0  0  0  0
  185.5430  178.2840  143.2150 C   0  0  0  0  0  3  0  0  0  0  0  0
  183.3140  179.1470  143.6050 C   0  0  0  0  0  3  0  0  0  0  0  0
  191.0190  176.0340  137.5050 N   0  0  0  0  0  2  0  0  0  0  0  0
  194.3000  175.8310  135.7210 C   0  0  0  0  0  3  0  0  0  0  0  0
  194.8800  174.7190  136.3530 C   0  0  0  0  0  0  0  0  0  0  0  0
  192.8970  174.4940  137.7350 C   0  0  0  0  0  3  0  0  0  0  0  0
  193.0270  176.2700  136.0960 C   0  0  0  0  0  3  0  0  0  0  0  0
  192.3230  175.6040  137.1090 C   0  0  0  0  0  0  0  0  0  0  0  0
  194.1700  174.0550  137.3590 C   0  0  0  0  0  3  0  0  0  0  0  0
  196.1510  174.2570  136.0030 O   0  0  0  0  0  0  0  0  0  0  0  0
  197.2680  174.3490  136.8750 C   0  0  0  0  0  1  0  0  0  0  0  0
  1  6  1  6  0  0  0
  2 12  1  1  0  0  0
  2 11  1  0  0  0  0
  3 16  1  6  0  0  0
  3 10  1  0  0  0  0
  4 15  1  6  0  0  0
  4  8  1  0  0  0  0
  5  1  1  0  0  0  0
  7  9  1  6  0  0  0
  7  4  1  0  0  0  0
  8  1  1  0  0  0  0
  9  5  1  0  0  0  0
 11 10  1  6  0  0  0
 11  7  1  0  0  0  0
 12 15  1  0  0  0  0
 13  2  1  0  0  0  0
 14 13  1  0  0  0  0
 14  3  1  0  0  0  0
 16 17  1  1  0  0  0
 16 18  1  0  0  0  0
 19 18  1  0  0  0  0
 19 21  1  0  0  0  0
 20 19  2  0  0  0  0
 21 22  1  0  0  0  0
 22 23  1  1  0  0  0
 22 26  1  0  0  0  0
 23 25  1  0  0  0  0
 25 24  1  0  0  0  0
 26 27  1  0  0  0  0
 27 28  1  6  0  0  0
 27 29  1  0  0  0  0
 29 33  2  0  0  0  0
 29 34  1  0  0  0  0
 30 32  1  0  0  0  0
 31 32  2  0  0  0  0
 33 31  1  0  0  0  0
 34 30  2  0  0  0  0
 35 13  1  0  0  0  0
 36 39  2  0  0  0  0
 36 37  1  0  0  0  0
 37 41  2  0  0  0  0
 39 40  1  0  0  0  0
 40 35  1  0  0  0  0
 40 38  2  0  0  0  0
 41 38  1  0  0  0  0
 42 37  1  0  0  0  0
 42 43  1  0  0  0  0
M  END
>  <MODEL>
3

>  <REMARK>
 VINA RESULT:      -7.8      3.569      7.624
  Name = 
  12 active torsions:
  status: ('A' for Active; 'I' for Inactive)
    1  A    between atoms: N_1  and  N_34
    2  A    between atoms: N_1  and  C_35
    3  A    between atoms: C_2  and  N_6
    4  A    between atoms: C_2  and  C_13
    5  A    between atoms: S_3  and  C_4
    6  A    between atoms: S_3  and  C_12
    7  A    between atoms: C_4  and  C_15
    8  A    between atoms: C_4  and  O_22
    9  A    between atoms: C_11  and  C_14
   10  A    between atoms: C_14  and  O_22
   11  A    between atoms: C_15  and  C_42
   12  A    between atoms: C_19  and  O_25
                            x       y       z     vdW  Elec       q    Type
                         _______ _______ _______ _____ _____    ______ ____

>  <TORSDO>
F 12

$$$$
=
 OpenBabel10272414223D

 43 47  0  0  1  0  0  0  0  0999 V2000
  196.5950  174.1110  137.3550 C   0  0  2  0  0  3  0  0  0  0  0  0
  191.5720  173.8980  136.7200 C   0  0  2  0  0  3  0  0  0  0  0  0
  190.4550  175.9680  138.2150 C   0  0  2  0  0  3  0  0  0  0  0  0
  194.4460  173.8460  135.9600 C   0  0  1  0  0  3  0  0  0  0  0  0
  195.7740  174.1530  138.6520 C   0  0  0  0  0  2  0  0  0  0  0  0
  196.8920  175.4090  136.9340 O   0  0  0  0  0  1  0  0  0  0  0  0
  193.9330  174.8200  137.0420 C   0  0  2  0  0  3  0  0  0  0  0  0
  195.8740  173.3480  136.2390 C   0  0  0  0  0  2  0  0  0  0  0  0
  194.2580  174.2850  138.4390 C   0  0  0  0  0  2  0  0  0  0  0  0
  191.9520  176.1190  137.9350 C   0  0  0  0  0  2  0  0  0  0  0  0
  192.4480  175.1620  136.8470 C   0  0  2  0  0  3  0  0  0  0  0  0
  192.0930  173.0440  135.5680 C   0  0  0  0  0  2  0  0  0  0  0  0
  190.1410  174.1940  136.5000 N   0  0  0  0  0  0  0  0  0  0  0  0
  189.7190  175.5300  136.9510 C   0  0  0  0  0  2  0  0  0  0  0  0
  193.5340  172.6250  135.8270 C   0  0  0  0  0  2  0  0  0  0  0  0
  189.8620  177.2580  138.7690 C   0  0  2  0  0  3  0  0  0  0  0  0
  189.8330  178.2400  137.7920 F   0  0  0  0  0  0  0  0  0  0  0  0
  190.6510  177.7110  139.9040 N   0  0  0  0  0  2  0  0  0  0  0  0
  190.6670  177.0320  141.1600 C   0  0  0  0  0  0  0  0  0  0  0  0
  190.0510  175.9440  141.3120 O   0  0  0  0  0  0  0  0  0  0  0  0
  191.5750  177.7410  142.5310 S   0  0  0  0  0  0  0  0  0  0  0  0
  190.4300  177.1400  143.8270 C   0  0  1  0  0  3  0  0  0  0  0  0
  190.9380  177.4310  145.2350 C   0  0  0  0  0  2  0  0  0  0  0  0
  191.6000  176.1680  147.2770 C   0  0  0  0  0  1  0  0  0  0  0  0
  191.7640  176.2770  145.7740 C   0  0  0  0  0  2  0  0  0  0  0  0
  189.1660  177.7070  143.6500 O   0  0  0  0  0  0  0  0  0  0  0  0
  188.2790  176.8110  144.2530 C   0  0  2  0  0  3  0  0  0  0  0  0
  187.9160  175.8190  143.3390 O   0  0  0  0  0  1  0  0  0  0  0  0
  187.0640  177.5340  144.7350 C   0  0  0  0  0  0  0  0  0  0  0  0
  184.9920  178.6900  144.2420 C   0  0  0  0  0  3  0  0  0  0  0  0
  185.6950  178.4020  146.5410 C   0  0  0  0  0  3  0  0  0  0  0  0
  184.7710  178.8830  145.6080 C   0  0  0  0  0  3  0  0  0  0  0  0
  186.8400  177.7280  146.1060 C   0  0  0  0  0  3  0  0  0  0  0  0
  186.1370  178.0150  143.8060 C   0  0  0  0  0  3  0  0  0  0  0  0
  189.4050  173.2620  137.2490 N   0  0  0  0  0  2  0  0  0  0  0  0
  186.9190  171.2540  135.3060 C   0  0  0  0  0  3  0  0  0  0  0  0
  185.7160  171.6800  135.8900 C   0  0  0  0  0  0  0  0  0  0  0  0
  186.9700  173.1470  137.3610 C   0  0  0  0  0  3  0  0  0  0  0  0
  188.1390  171.7710  135.7500 C   0  0  0  0  0  3  0  0  0  0  0  0
  188.1680  172.7180  136.7830 C   0  0  0  0  0  0  0  0  0  0  0  0
  185.7500  172.6290  136.9170 C   0  0  0  0  0  3  0  0  0  0  0  0
  184.4800  171.1810  135.4710 O   0  0  0  0  0  0  0  0  0  0  0  0
  183.3300  171.1790  136.3050 C   0  0  0  0  0  1  0  0  0  0  0  0
  1  6  1  6  0  0  0
  1  5  1  0  0  0  0
  2 12  1  6  0  0  0
  2 11  1  0  0  0  0
  3 16  1  6  0  0  0
  4 15  1  1  0  0  0
  4  8  1  0  0  0  0
  4  7  1  0  0  0  0
  7  9  1  1  0  0  0
  8  1  1  0  0  0  0
  9  5  1  0  0  0  0
 10  3  1  0  0  0  0
 11  7  1  0  0  0  0
 11 10  1  1  0  0  0
 12 15  1  0  0  0  0
 13  2  1  0  0  0  0
 13 14  1  0  0  0  0
 13 35  1  0  0  0  0
 14  3  1  0  0  0  0
 16 17  1  6  0  0  0
 16 18  1  0  0  0  0
 18 19  1  0  0  0  0
 19 20  2  0  0  0  0
 19 21  1  0  0  0  0
 21 22  1  0  0  0  0
 22 23  1  1  0  0  0
 23 25  1  0  0  0  0
 25 24  1  0  0  0  0
 26 22  1  0  0  0  0
 26 27  1  0  0  0  0
 27 28  1  6  0  0  0
 27 29  1  0  0  0  0
 29 33  1  0  0  0  0
 30 32  2  0  0  0  0
 32 31  1  0  0  0  0
 33 31  2  0  0  0  0
 34 30  1  0  0  0  0
 34 29  2  0  0  0  0
 36 39  2  0  0  0  0
 36 37  1  0  0  0  0
 37 41  2  0  0  0  0
 39 40  1  0  0  0  0
 40 35  1  0  0  0  0
 40 38  2  0  0  0  0
 41 38  1  0  0  0  0
 42 37  1  0  0  0  0
 42 43  1  0  0  0  0
M  END
>  <MODEL>
4

>  <REMARK>
 VINA RESULT:      -7.8      4.523     10.681
  Name = 
  12 active torsions:
  status: ('A' for Active; 'I' for Inactive)
    1  A    between atoms: N_1  and  N_34
    2  A    between atoms: N_1  and  C_35
    3  A    between atoms: C_2  and  N_6
    4  A    between atoms: C_2  and  C_13
    5  A    between atoms: S_3  and  C_4
    6  A    between atoms: S_3  and  C_12
    7  A    between atoms: C_4  and  C_15
    8  A    between atoms: C_4  and  O_22
    9  A    between atoms: C_11  and  C_14
   10  A    between atoms: C_14  and  O_22
   11  A    between atoms: C_15  and  C_42
   12  A    between atoms: C_19  and  O_25
                            x       y       z     vdW  Elec       q    Type
                         _______ _______ _______ _____ _____    ______ ____

>  <TORSDO>
F 12

$$$$
=
 OpenBabel10272414223D

 43 47  0  0  1  0  0  0  0  0999 V2000
  191.2050  177.6070  145.6140 C   0  0  2  0  0  3  0  0  0  0  0  0
  187.5590  177.9930  142.1150 C   0  0  2  0  0  3  0  0  0  0  0  0
  188.8060  178.3930  139.6540 C   0  0  2  0  0  3  0  0  0  0  0  0
  189.0000  176.9100  144.4780 C   0  0  1  0  0  3  0  0  0  0  0  0
  191.3290  178.8180  144.6770 C   0  0  0  0  0  2  0  0  0  0  0  0
  191.9700  176.5460  145.1280 O   0  0  0  0  0  1  0  0  0  0  0  0
  189.7770  177.4160  143.2440 C   0  0  2  0  0  3  0  0  0  0  0  0
  189.7480  177.1660  145.7970 C   0  0  0  0  0  2  0  0  0  0  0  0
  190.3360  178.8170  143.5040 C   0  0  0  0  0  2  0  0  0  0  0  0
  189.7180  177.8360  140.7490 C   0  0  0  0  0  2  0  0  0  0  0  0
  188.9380  177.3190  141.9610 C   0  0  2  0  0  3  0  0  0  0  0  0
  186.8260  177.3660  143.2950 C   0  0  0  0  0  2  0  0  0  0  0  0
  186.7160  177.8900  140.9050 N   0  0  0  0  0  0  0  0  0  0  0  0
  187.4650  177.6630  139.6580 C   0  0  0  0  0  2  0  0  0  0  0  0
  187.6210  177.5630  144.5790 C   0  0  0  0  0  2  0  0  0  0  0  0
  189.4670  178.3050  138.2830 C   0  0  2  0  0  3  0  0  0  0  0  0
  188.9320  179.2510  137.4230 F   0  0  0  0  0  0  0  0  0  0  0  0
  189.2780  176.9720  137.7330 N   0  0  0  0  0  2  0  0  0  0  0  0
  189.1000  176.7250  136.3390 C   0  0  0  0  0  0  0  0  0  0  0  0
  189.1870  177.6620  135.5020 O   0  0  0  0  0  0  0  0  0  0  0  0
  188.7520  175.0600  135.7790 S   0  0  0  0  0  0  0  0  0  0  0  0
  186.9390  175.2910  135.6660 C   0  0  1  0  0  3  0  0  0  0  0  0
  186.1890  173.9690  135.5340 C   0  0  0  0  0  2  0  0  0  0  0  0
  184.7620  172.5520  137.0030 C   0  0  0  0  0  1  0  0  0  0  0  0
  186.1010  173.2490  136.8680 C   0  0  0  0  0  2  0  0  0  0  0  0
  186.4750  175.9910  136.7830 O   0  0  0  0  0  0  0  0  0  0  0  0
  185.5800  176.9350  136.2720 C   0  0  2  0  0  3  0  0  0  0  0  0
  186.0360  178.2230  136.5640 O   0  0  0  0  0  1  0  0  0  0  0  0
  184.2220  176.7270  136.8570 C   0  0  0  0  0  0  0  0  0  0  0  0
  181.8170  176.9750  136.6870 C   0  0  0  0  0  3  0  0  0  0  0  0
  182.7850  175.8960  138.6270 C   0  0  0  0  0  3  0  0  0  0  0  0
  181.6610  176.3400  137.9220 C   0  0  0  0  0  3  0  0  0  0  0  0
  184.0640  176.0890  138.0960 C   0  0  0  0  0  3  0  0  0  0  0  0
  183.0960  177.1670  136.1550 C   0  0  0  0  0  3  0  0  0  0  0  0
  186.0460  179.1160  140.7600 N   0  0  0  0  0  2  0  0  0  0  0  0
  182.3290  178.7880  141.0010 C   0  0  0  0  0  3  0  0  0  0  0  0
  181.9310  179.3470  139.7760 C   0  0  0  0  0  0  0  0  0  0  0  0
  184.2600  179.7420  139.2210 C   0  0  0  0  0  3  0  0  0  0  0  0
  183.6850  178.7090  141.3320 C   0  0  0  0  0  3  0  0  0  0  0  0
  184.6560  179.1900  140.4430 C   0  0  0  0  0  0  0  0  0  0  0  0
  182.9040  179.8210  138.8900 C   0  0  0  0  0  3  0  0  0  0  0  0
  180.5840  179.4430  139.4170 O   0  0  0  0  0  0  0  0  0  0  0  0
  180.1570  180.0110  138.1870 C   0  0  0  0  0  1  0  0  0  0  0  0
  1  6  1  6  0  0  0
  1  8  1  0  0  0  0
  2 12  1  1  0  0  0
  3 16  1  6  0  0  0
  3 14  1  0  0  0  0
  3 10  1  0  0  0  0
  4 15  1  1  0  0  0
  4  8  1  0  0  0  0
  5  1  1  0  0  0  0
  7  9  1  1  0  0  0
  7  4  1  0  0  0  0
  9  5  1  0  0  0  0
 11 10  1  6  0  0  0
 11  2  1  0  0  0  0
 11  7  1  0  0  0  0
 12 15  1  0  0  0  0
 13  2  1  0  0  0  0
 14 13  1  0  0  0  0
 16 17  1  6  0  0  0
 18 16  1  0  0  0  0
 19 18  1  0  0  0  0
 20 19  2  0  0  0  0
 21 19  1  0  0  0  0
 22 23  1  1  0  0  0
 22 21  1  0  0  0  0
 22 26  1  0  0  0  0
 23 25  1  0  0  0  0
 25 24  1  0  0  0  0
 27 28  1  1  0  0  0
 27 26  1  0  0  0  0
 27 29  1  0  0  0  0
 29 33  1  0  0  0  0
 30 32  2  0  0  0  0
 32 31  1  0  0  0  0
 33 31  2  0  0  0  0
 34 30  1  0  0  0  0
 34 29  2  0  0  0  0
 35 13  1  0  0  0  0
 36 39  1  0  0  0  0
 37 36  2  0  0  0  0
 38 40  1  0  0  0  0
 40 35  1  0  0  0  0
 40 39  2  0  0  0  0
 41 38  2  0  0  0  0
 41 37  1  0  0  0  0
 42 37  1  0  0  0  0
 43 42  1  0  0  0  0
M  END
>  <MODEL>
5

>  <REMARK>
 VINA RESULT:      -7.3      1.632      6.610
  Name = 
  12 active torsions:
  status: ('A' for Active; 'I' for Inactive)
    1  A    between atoms: N_1  and  N_34
    2  A    between atoms: N_1  and  C_35
    3  A    between atoms: C_2  and  N_6
    4  A    between atoms: C_2  and  C_13
    5  A    between atoms: S_3  and  C_4
    6  A    between atoms: S_3  and  C_12
    7  A    between atoms: C_4  and  C_15
    8  A    between atoms: C_4  and  O_22
    9  A    between atoms: C_11  and  C_14
   10  A    between atoms: C_14  and  O_22
   11  A    between atoms: C_15  and  C_42
   12  A    between atoms: C_19  and  O_25
                            x       y       z     vdW  Elec       q    Type
                         _______ _______ _______ _____ _____    ______ ____

>  <TORSDO>
F 12

$$$$
=
 OpenBabel10272414223D

 43 47  0  0  1  0  0  0  0  0999 V2000
  194.0780  173.4020  135.1990 C   0  0  2  0  0  3  0  0  0  0  0  0
  190.2300  176.1930  136.9570 C   0  0  2  0  0  3  0  0  0  0  0  0
  190.9320  177.0660  139.5090 C   0  0  2  0  0  3  0  0  0  0  0  0
  192.2350  175.1910  135.0030 C   0  0  1  0  0  3  0  0  0  0  0  0
  193.5990  173.0320  136.6120 C   0  0  0  0  0  2  0  0  0  0  0  0
  195.1490  174.2930  135.2760 O   0  0  0  0  0  1  0  0  0  0  0  0
  192.6010  175.3600  136.4940 C   0  0  2  0  0  3  0  0  0  0  0  0
  192.9550  174.0010  134.3460 C   0  0  0  0  0  2  0  0  0  0  0  0
  192.5700  174.0060  137.2060 C   0  0  0  0  0  2  0  0  0  0  0  0
  192.1050  176.5780  138.6560 C   0  0  0  0  0  2  0  0  0  0  0  0
  191.7390  176.4320  137.1760 C   0  0  2  0  0  3  0  0  0  0  0  0
  189.9470  176.1360  135.4590 C   0  0  0  0  0  2  0  0  0  0  0  0
  189.3750  177.2260  137.5760 N   0  0  0  0  0  0  0  0  0  0  0  0
  190.0100  177.9590  138.6830 C   0  0  0  0  0  2  0  0  0  0  0  0
  190.7290  174.9990  134.8140 C   0  0  0  0  0  2  0  0  0  0  0  0
  191.4180  177.7930  140.7570 C   0  0  2  0  0  3  0  0  0  0  0  0
  192.7040  178.2750  140.5710 F   0  0  0  0  0  0  0  0  0  0  0  0
  191.3890  176.8850  141.8940 N   0  0  0  0  0  2  0  0  0  0  0  0
  191.4720  177.3320  143.2470 C   0  0  0  0  0  0  0  0  0  0  0  0
  191.4890  178.5620  143.5190 O   0  0  0  0  0  0  0  0  0  0  0  0
  191.5520  176.1250  144.5680 S   0  0  0  0  0  0  0  0  0  0  0  0
  189.9730  176.6210  145.3510 C   0  0  1  0  0  3  0  0  0  0  0  0
  190.1810  177.3310  146.6850 C   0  0  0  0  0  2  0  0  0  0  0  0
  188.4140  178.1340  148.2440 C   0  0  0  0  0  1  0  0  0  0  0  0
  189.1310  176.9150  147.7000 C   0  0  0  0  0  2  0  0  0  0  0  0
  189.2450  177.4400  144.4840 O   0  0  0  0  0  0  0  0  0  0  0  0
  188.1000  176.7030  144.1650 C   0  0  2  0  0  3  0  0  0  0  0  0
  188.1830  176.2500  142.8470 O   0  0  0  0  0  1  0  0  0  0  0  0
  186.8800  177.5450  144.3430 C   0  0  0  0  0  0  0  0  0  0  0  0
  184.9480  178.6470  143.3800 C   0  0  0  0  0  3  0  0  0  0  0  0
  185.3590  178.7940  145.7620 C   0  0  0  0  0  3  0  0  0  0  0  0
  184.5790  179.1110  144.6450 C   0  0  0  0  0  3  0  0  0  0  0  0
  186.5070  178.0110  145.6120 C   0  0  0  0  0  3  0  0  0  0  0  0
  186.0970  177.8640  143.2290 C   0  0  0  0  0  3  0  0  0  0  0  0
  188.2550  176.5710  138.1130 N   0  0  0  0  0  2  0  0  0  0  0  0
  185.3640  175.3830  136.0600 C   0  0  0  0  0  3  0  0  0  0  0  0
  184.5210  176.5050  136.1110 C   0  0  0  0  0  0  0  0  0  0  0  0
  186.1610  177.6520  137.4830 C   0  0  0  0  0  3  0  0  0  0  0  0
  186.5960  175.3980  136.7190 C   0  0  0  0  0  3  0  0  0  0  0  0
  186.9970  176.5340  137.4360 C   0  0  0  0  0  0  0  0  0  0  0  0
  184.9280  177.6370  136.8250 C   0  0  0  0  0  3  0  0  0  0  0  0
  183.2810  176.5210  135.4660 O   0  0  0  0  0  0  0  0  0  0  0  0
  182.1980  177.3270  135.9060 C   0  0  0  0  0  1  0  0  0  0  0  0
  1  6  1  1  0  0  0
  1  5  1  0  0  0  0
  2 12  1  6  0  0  0
  2 11  1  0  0  0  0
  2 13  1  0  0  0  0
  3 16  1  1  0  0  0
  4  8  1  1  0  0  0
  4  7  1  0  0  0  0
  5  9  1  0  0  0  0
  7 11  1  0  0  0  0
  7  9  1  1  0  0  0
  8  1  1  0  0  0  0
 10  3  1  0  0  0  0
 11 10  1  1  0  0  0
 13 35  1  0  0  0  0
 13 14  1  0  0  0  0
 14  3  1  0  0  0  0
 15  4  1  0  0  0  0
 15 12  1  0  0  0  0
 16 17  1  6  0  0  0
 16 18  1  0  0  0  0
 18 19  1  0  0  0  0
 19 20  2  0  0  0  0
 19 21  1  0  0  0  0
 21 22  1  0  0  0  0
 22 23  1  1  0  0  0
 23 25  1  0  0  0  0
 25 24  1  0  0  0  0
 26 22  1  0  0  0  0
 27 28  1  6  0  0  0
 27 29  1  0  0  0  0
 27 26  1  0  0  0  0
 29 33  1  0  0  0  0
 30 32  2  0  0  0  0
 32 31  1  0  0  0  0
 33 31  2  0  0  0  0
 34 30  1  0  0  0  0
 34 29  2  0  0  0  0
 36 37  2  0  0  0  0
 36 39  1  0  0  0  0
 37 41  1  0  0  0  0
 39 40  2  0  0  0  0
 40 38  1  0  0  0  0
 40 35  1  0  0  0  0
 41 38  2  0  0  0  0
 42 43  1  0  0  0  0
 42 37  1  0  0  0  0
M  END
>  <MODEL>
6

>  <REMARK>
 VINA RESULT:      -7.1      3.757     10.117
  Name = 
  12 active torsions:
  status: ('A' for Active; 'I' for Inactive)
    1  A    between atoms: N_1  and  N_34
    2  A    between atoms: N_1  and  C_35
    3  A    between atoms: C_2  and  N_6
    4  A    between atoms: C_2  and  C_13
    5  A    between atoms: S_3  and  C_4
    6  A    between atoms: S_3  and  C_12
    7  A    between atoms: C_4  and  C_15
    8  A    between atoms: C_4  and  O_22
    9  A    between atoms: C_11  and  C_14
   10  A    between atoms: C_14  and  O_22
   11  A    between atoms: C_15  and  C_42
   12  A    between atoms: C_19  and  O_25
                            x       y       z     vdW  Elec       q    Type
                         _______ _______ _______ _____ _____    ______ ____

>  <TORSDO>
F 12

$$$$
=
 OpenBabel10272414223D

 43 47  0  0  1  0  0  0  0  0999 V2000
  189.1160  178.5310  137.1910 C   0  0  2  0  0  3  0  0  0  0  0  0
  184.3770  176.7720  137.5570 C   0  0  2  0  0  3  0  0  0  0  0  0
  183.3840  177.5650  140.0380 C   0  0  2  0  0  3  0  0  0  0  0  0
  186.7460  178.0550  136.3000 C   0  0  1  0  0  3  0  0  0  0  0  0
  188.8010  177.7780  138.4920 C   0  0  0  0  0  2  0  0  0  0  0  0
  188.9370  179.9020  137.3770 O   0  0  0  0  0  1  0  0  0  0  0  0
  186.4190  178.2900  137.7910 C   0  0  2  0  0  3  0  0  0  0  0  0
  188.2580  178.0420  136.0190 C   0  0  0  0  0  2  0  0  0  0  0  0
  187.3170  177.4230  138.6760 C   0  0  0  0  0  2  0  0  0  0  0  0
  184.6160  178.3410  139.5660 C   0  0  0  0  0  2  0  0  0  0  0  0
  184.9210  178.1170  138.0820 C   0  0  2  0  0  3  0  0  0  0  0  0
  184.6580  176.6690  136.0620 C   0  0  0  0  0  2  0  0  0  0  0  0
  182.9300  176.5900  137.7950 N   0  0  0  0  0  0  0  0  0  0  0  0
  182.3860  177.4050  138.8940 C   0  0  0  0  0  2  0  0  0  0  0  0
  186.1570  176.7360  135.7980 C   0  0  0  0  0  2  0  0  0  0  0  0
  182.7310  178.2390  141.2390 C   0  0  2  0  0  3  0  0  0  0  0  0
  181.9190  179.2850  140.8280 F   0  0  0  0  0  0  0  0  0  0  0  0
  183.7580  178.7340  142.1420 N   0  0  0  0  0  2  0  0  0  0  0  0
  183.5680  178.8370  143.5530 C   0  0  0  0  0  0  0  0  0  0  0  0
  182.5110  178.4160  144.0930 O   0  0  0  0  0  0  0  0  0  0  0  0
  184.8520  179.5740  144.5600 S   0  0  0  0  0  0  0  0  0  0  0  0
  185.9440  178.1050  144.5520 C   0  0  1  0  0  3  0  0  0  0  0  0
  186.0290  177.4490  143.1780 C   0  0  0  0  0  2  0  0  0  0  0  0
  187.5330  178.7950  141.7190 C   0  0  0  0  0  1  0  0  0  0  0  0
  187.4270  177.5630  142.5970 C   0  0  0  0  0  2  0  0  0  0  0  0
  187.2230  178.4550  144.9920 O   0  0  0  0  0  0  0  0  0  0  0  0
  187.4520  177.6540  146.1150 C   0  0  2  0  0  3  0  0  0  0  0  0
  187.0680  178.3400  147.2700 O   0  0  0  0  0  1  0  0  0  0  0  0
  188.8960  177.2810  146.1950 C   0  0  0  0  0  0  0  0  0  0  0  0
  191.0420  177.0020  145.1040 C   0  0  0  0  0  3  0  0  0  0  0  0
  190.8220  176.5390  147.4710 C   0  0  0  0  0  3  0  0  0  0  0  0
  191.6090  176.6000  146.3160 C   0  0  0  0  0  3  0  0  0  0  0  0
  189.4670  176.8790  147.4110 C   0  0  0  0  0  3  0  0  0  0  0  0
  189.6870  177.3430  145.0430 C   0  0  0  0  0  3  0  0  0  0  0  0
  182.7340  175.2460  138.1520 N   0  0  0  0  0  2  0  0  0  0  0  0
  184.9160  172.4630  136.9370 C   0  0  0  0  0  3  0  0  0  0  0  0
  184.2190  172.0580  135.7870 C   0  0  0  0  0  0  0  0  0  0  0  0
  182.5530  173.7690  136.2180 C   0  0  0  0  0  3  0  0  0  0  0  0
  184.4320  173.5130  137.7210 C   0  0  0  0  0  3  0  0  0  0  0  0
  183.2440  174.1680  137.3650 C   0  0  0  0  0  0  0  0  0  0  0  0
  183.0370  172.7190  135.4340 C   0  0  0  0  0  3  0  0  0  0  0  0
  184.6760  171.0110  134.9830 O   0  0  0  0  0  0  0  0  0  0  0  0
  184.3790  169.6490  135.2560 C   0  0  0  0  0  1  0  0  0  0  0  0
  1  6  1  1  0  0  0
  1  5  1  0  0  0  0
  2 12  1  6  0  0  0
  2 13  1  0  0  0  0
  2 11  1  0  0  0  0
  3 16  1  1  0  0  0
  4 15  1  1  0  0  0
  4  7  1  0  0  0  0
  5  9  1  0  0  0  0
  7 11  1  0  0  0  0
  7  9  1  1  0  0  0
  8  4  1  0  0  0  0
  8  1  1  0  0  0  0
 10  3  1  0  0  0  0
 11 10  1  1  0  0  0
 13 35  1  0  0  0  0
 13 14  1  0  0  0  0
 14  3  1  0  0  0  0
 15 12  1  0  0  0  0
 16 17  1  6  0  0  0
 16 18  1  0  0  0  0
 18 19  1  0  0  0  0
 19 20  2  0  0  0  0
 19 21  1  0  0  0  0
 22 23  1  6  0  0  0
 22 21  1  0  0  0  0
 22 26  1  0  0  0  0
 24 25  1  0  0  0  0
 25 23  1  0  0  0  0
 26 27  1  0  0  0  0
 27 29  1  0  0  0  0
 27 28  1  1  0  0  0
 29 33  1  0  0  0  0
 30 32  2  0  0  0  0
 32 31  1  0  0  0  0
 33 31  2  0  0  0  0
 34 30  1  0  0  0  0
 34 29  2  0  0  0  0
 36 39  1  0  0  0  0
 37 36  2  0  0  0  0
 38 40  1  0  0  0  0
 40 39  2  0  0  0  0
 40 35  1  0  0  0  0
 41 37  1  0  0  0  0
 41 38  2  0  0  0  0
 42 43  1  0  0  0  0
 42 37  1  0  0  0  0
M  END
>  <MODEL>
7

>  <REMARK>
 VINA RESULT:      -7.1      2.988      9.515
  Name = 
  12 active torsions:
  status: ('A' for Active; 'I' for Inactive)
    1  A    between atoms: N_1  and  N_34
    2  A    between atoms: N_1  and  C_35
    3  A    between atoms: C_2  and  N_6
    4  A    between atoms: C_2  and  C_13
    5  A    between atoms: S_3  and  C_4
    6  A    between atoms: S_3  and  C_12
    7  A    between atoms: C_4  and  C_15
    8  A    between atoms: C_4  and  O_22
    9  A    between atoms: C_11  and  C_14
   10  A    between atoms: C_14  and  O_22
   11  A    between atoms: C_15  and  C_42
   12  A    between atoms: C_19  and  O_25
                            x       y       z     vdW  Elec       q    Type
                         _______ _______ _______ _____ _____    ______ ____

>  <TORSDO>
F 12

$$$$
=
 OpenBabel10272414223D

 43 47  0  0  1  0  0  0  0  0999 V2000
  194.0990  175.4190  136.5820 C   0  0  2  0  0  3  0  0  0  0  0  0
  189.0390  175.6250  136.7710 C   0  0  2  0  0  3  0  0  0  0  0  0
  188.3520  177.2930  138.8950 C   0  0  2  0  0  3  0  0  0  0  0  0
  191.7490  175.6280  135.5480 C   0  0  1  0  0  3  0  0  0  0  0  0
  193.4900  175.1660  137.9700 C   0  0  0  0  0  2  0  0  0  0  0  0
  194.4450  176.7640  136.4500 O   0  0  0  0  0  1  0  0  0  0  0  0
  191.4950  176.3150  136.9070 C   0  0  2  0  0  3  0  0  0  0  0  0
  193.1520  175.0050  135.4510 C   0  0  0  0  0  2  0  0  0  0  0  0
  191.9770  175.4230  138.0540 C   0  0  0  0  0  2  0  0  0  0  0  0
  189.7970  177.4360  138.4120 C   0  0  0  0  0  2  0  0  0  0  0  0
  190.0350  176.7680  137.0550 C   0  0  2  0  0  3  0  0  0  0  0  0
  189.3010  175.0710  135.3740 C   0  0  0  0  0  2  0  0  0  0  0  0
  187.6240  176.0380  136.8750 N   0  0  0  0  0  0  0  0  0  0  0  0
  187.3980  177.2320  137.7050 C   0  0  0  0  0  2  0  0  0  0  0  0
  190.7210  174.5290  135.2750 C   0  0  0  0  0  2  0  0  0  0  0  0
  187.9690  178.4240  139.8420 C   0  0  2  0  0  3  0  0  0  0  0  0
  189.0910  179.1430  140.2220 F   0  0  0  0  0  0  0  0  0  0  0  0
  187.3090  177.8760  141.0170 N   0  0  0  0  0  2  0  0  0  0  0  0
  186.2050  178.5150  141.6570 C   0  0  0  0  0  0  0  0  0  0  0  0
  185.6920  179.5570  141.1690 O   0  0  0  0  0  0  0  0  0  0  0  0
  185.5440  177.8210  143.1700 S   0  0  0  0  0  0  0  0  0  0  0  0
  185.0490  179.4280  143.8950 C   0  0  1  0  0  3  0  0  0  0  0  0
  183.5390  179.5480  144.0710 C   0  0  0  0  0  2  0  0  0  0  0  0
  181.5460  179.0850  142.6520 C   0  0  0  0  0  1  0  0  0  0  0  0
  182.8040  178.4960  143.2590 C   0  0  0  0  0  2  0  0  0  0  0  0
  185.6880  179.6160  145.1240 O   0  0  0  0  0  0  0  0  0  0  0  0
  185.6260  178.3730  145.7590 C   0  0  2  0  0  3  0  0  0  0  0  0
  184.6410  178.3970  146.7490 O   0  0  0  0  0  1  0  0  0  0  0  0
  186.9510  178.0350  146.3610 C   0  0  0  0  0  0  0  0  0  0  0  0
  189.2690  177.3920  146.0730 C   0  0  0  0  0  3  0  0  0  0  0  0
  188.3810  177.7400  148.2990 C   0  0  0  0  0  3  0  0  0  0  0  0
  189.4490  177.4090  147.4580 C   0  0  0  0  0  3  0  0  0  0  0  0
  187.1330  178.0530  147.7510 C   0  0  0  0  0  3  0  0  0  0  0  0
  188.0220  177.7050  145.5240 C   0  0  0  0  0  3  0  0  0  0  0  0
  186.9270  174.9820  137.4850 N   0  0  0  0  0  2  0  0  0  0  0  0
  184.4950  173.8850  134.8650 C   0  0  0  0  0  3  0  0  0  0  0  0
  183.7770  172.9000  135.5620 C   0  0  0  0  0  0  0  0  0  0  0  0
  185.1520  173.3090  137.5190 C   0  0  0  0  0  3  0  0  0  0  0  0
  185.5350  174.5750  135.4930 C   0  0  0  0  0  3  0  0  0  0  0  0
  185.8700  174.2850  136.8230 C   0  0  0  0  0  0  0  0  0  0  0  0
  184.1120  172.6180  136.8910 C   0  0  0  0  0  3  0  0  0  0  0  0
  182.7330  172.1900  134.9620 O   0  0  0  0  0  0  0  0  0  0  0  0
  182.7440  170.7760  134.8300 C   0  0  0  0  0  1  0  0  0  0  0  0
  1  6  1  6  0  0  0
  1  5  1  0  0  0  0
  2 12  1  6  0  0  0
  2 13  1  0  0  0  0
  2 11  1  0  0  0  0
  3 16  1  1  0  0  0
  4 15  1  1  0  0  0
  4  7  1  0  0  0  0
  5  9  1  0  0  0  0
  7 11  1  0  0  0  0
  7  9  1  1  0  0  0
  8  4  1  0  0  0  0
  8  1  1  0  0  0  0
 10  3  1  0  0  0  0
 11 10  1  1  0  0  0
 13 35  1  0  0  0  0
 13 14  1  0  0  0  0
 14  3  1  0  0  0  0
 15 12  1  0  0  0  0
 16 17  1  1  0  0  0
 16 18  1  0  0  0  0
 18 19  1  0  0  0  0
 19 21  1  0  0  0  0
 20 19  2  0  0  0  0
 21 22  1  0  0  0  0
 22 23  1  1  0  0  0
 22 26  1  0  0  0  0
 24 25  1  0  0  0  0
 25 23  1  0  0  0  0
 26 27  1  0  0  0  0
 27 29  1  0  0  0  0
 27 28  1  1  0  0  0
 29 33  1  0  0  0  0
 30 32  2  0  0  0  0
 32 31  1  0  0  0  0
 33 31  2  0  0  0  0
 34 30  1  0  0  0  0
 34 29  2  0  0  0  0
 36 39  2  0  0  0  0
 36 37  1  0  0  0  0
 37 41  2  0  0  0  0
 39 40  1  0  0  0  0
 40 35  1  0  0  0  0
 40 38  2  0  0  0  0
 41 38  1  0  0  0  0
 42 37  1  0  0  0  0
 43 42  1  0  0  0  0
M  END
>  <MODEL>
8

>  <REMARK>
 VINA RESULT:      -7.1      3.396     10.111
  Name = 
  12 active torsions:
  status: ('A' for Active; 'I' for Inactive)
    1  A    between atoms: N_1  and  N_34
    2  A    between atoms: N_1  and  C_35
    3  A    between atoms: C_2  and  N_6
    4  A    between atoms: C_2  and  C_13
    5  A    between atoms: S_3  and  C_4
    6  A    between atoms: S_3  and  C_12
    7  A    between atoms: C_4  and  C_15
    8  A    between atoms: C_4  and  O_22
    9  A    between atoms: C_11  and  C_14
   10  A    between atoms: C_14  and  O_22
   11  A    between atoms: C_15  and  C_42
   12  A    between atoms: C_19  and  O_25
                            x       y       z     vdW  Elec       q    Type
                         _______ _______ _______ _____ _____    ______ ____

>  <TORSDO>
F 12

$$$$
=
 OpenBabel10272414223D

 43 47  0  0  1  0  0  0  0  0999 V2000
  191.2050  177.6130  145.7060 C   0  0  2  0  0  3  0  0  0  0  0  0
  187.6350  177.9660  142.1270 C   0  0  2  0  0  3  0  0  0  0  0  0
  188.9350  178.2900  139.6830 C   0  0  2  0  0  3  0  0  0  0  0  0
  189.0140  176.9180  144.5440 C   0  0  1  0  0  3  0  0  0  0  0  0
  191.3650  178.8000  144.7440 C   0  0  0  0  0  2  0  0  0  0  0  0
  191.9650  176.5300  145.2600 O   0  0  0  0  0  1  0  0  0  0  0  0
  189.8220  177.3850  143.3140 C   0  0  2  0  0  3  0  0  0  0  0  0
  189.7400  177.1960  145.8710 C   0  0  0  0  0  2  0  0  0  0  0  0
  190.3950  178.7840  143.5520 C   0  0  0  0  0  2  0  0  0  0  0  0
  189.8180  177.7470  140.8090 C   0  0  0  0  0  2  0  0  0  0  0  0
  189.0070  177.2690  142.0170 C   0  0  2  0  0  3  0  0  0  0  0  0
  186.8700  177.3760  143.3080 C   0  0  0  0  0  2  0  0  0  0  0  0
  186.8140  177.8450  140.9040 N   0  0  0  0  0  0  0  0  0  0  0  0
  187.5830  177.5790  139.6780 C   0  0  0  0  0  2  0  0  0  0  0  0
  187.6420  177.5930  144.6020 C   0  0  0  0  0  2  0  0  0  0  0  0
  189.6210  178.1610  138.3280 C   0  0  2  0  0  3  0  0  0  0  0  0
  189.2940  179.2330  137.5130 F   0  0  0  0  0  0  0  0  0  0  0  0
  189.2200  176.9150  137.6930 N   0  0  0  0  0  2  0  0  0  0  0  0
  190.1240  176.0930  136.9560 C   0  0  0  0  0  0  0  0  0  0  0  0
  191.3500  176.3770  136.8960 O   0  0  0  0  0  0  0  0  0  0  0  0
  189.5020  174.6430  136.1090 S   0  0  0  0  0  0  0  0  0  0  0  0
  187.8420  175.3380  135.7730 C   0  0  1  0  0  3  0  0  0  0  0  0
  187.7800  176.0800  134.4420 C   0  0  0  0  0  2  0  0  0  0  0  0
  186.7320  178.0340  135.5770 C   0  0  0  0  0  1  0  0  0  0  0  0
  186.6260  177.0670  134.4140 C   0  0  0  0  0  2  0  0  0  0  0  0
  186.8830  174.3220  135.7960 O   0  0  0  0  0  0  0  0  0  0  0  0
  186.2850  174.4170  137.0560 C   0  0  2  0  0  3  0  0  0  0  0  0
  186.2700  173.1610  137.6670 O   0  0  0  0  0  1  0  0  0  0  0  0
  184.8930  174.9420  136.9270 C   0  0  0  0  0  0  0  0  0  0  0  0
  182.6730  174.7530  135.9740 C   0  0  0  0  0  3  0  0  0  0  0  0
  183.1810  176.5630  137.5010 C   0  0  0  0  0  3  0  0  0  0  0  0
  182.2730  175.8950  136.6730 C   0  0  0  0  0  3  0  0  0  0  0  0
  184.4890  176.0870  137.6290 C   0  0  0  0  0  3  0  0  0  0  0  0
  183.9820  174.2770  136.1010 C   0  0  0  0  0  3  0  0  0  0  0  0
  186.1640  179.0760  140.7170 N   0  0  0  0  0  2  0  0  0  0  0  0
  182.9520  179.8060  138.9480 C   0  0  0  0  0  3  0  0  0  0  0  0
  182.0180  179.3250  139.8800 C   0  0  0  0  0  0  0  0  0  0  0  0
  183.8400  178.6900  141.3510 C   0  0  0  0  0  3  0  0  0  0  0  0
  184.3210  179.7270  139.2180 C   0  0  0  0  0  3  0  0  0  0  0  0
  184.7700  179.1640  140.4200 C   0  0  0  0  0  0  0  0  0  0  0  0
  182.4710  178.7690  141.0810 C   0  0  0  0  0  3  0  0  0  0  0  0
  180.6430  179.3880  139.6390 O   0  0  0  0  0  0  0  0  0  0  0  0
  180.0410  178.8350  138.4770 C   0  0  0  0  0  1  0  0  0  0  0  0
  1  6  1  6  0  0  0
  1  8  1  0  0  0  0
  2 12  1  1  0  0  0
  3 16  1  6  0  0  0
  3 10  1  0  0  0  0
  4 15  1  1  0  0  0
  4  8  1  0  0  0  0
  5  1  1  0  0  0  0
  7  9  1  1  0  0  0
  7  4  1  0  0  0  0
  9  5  1  0  0  0  0
 11 10  1  6  0  0  0
 11  2  1  0  0  0  0
 11  7  1  0  0  0  0
 12 15  1  0  0  0  0
 13  2  1  0  0  0  0
 14  3  1  0  0  0  0
 14 13  1  0  0  0  0
 16 17  1  6  0  0  0
 18 16  1  0  0  0  0
 19 18  1  0  0  0  0
 20 19  2  0  0  0  0
 21 19  1  0  0  0  0
 22 23  1  6  0  0  0
 22 26  1  0  0  0  0
 22 21  1  0  0  0  0
 25 23  1  0  0  0  0
 25 24  1  0  0  0  0
 26 27  1  0  0  0  0
 27 28  1  6  0  0  0
 29 27  1  0  0  0  0
 29 33  1  0  0  0  0
 30 34  1  0  0  0  0
 30 32  2  0  0  0  0
 31 33  2  0  0  0  0
 32 31  1  0  0  0  0
 34 29  2  0  0  0  0
 35 13  1  0  0  0  0
 36 39  2  0  0  0  0
 36 37  1  0  0  0  0
 37 41  2  0  0  0  0
 39 40  1  0  0  0  0
 40 35  1  0  0  0  0
 40 38  2  0  0  0  0
 41 38  1  0  0  0  0
 42 37  1  0  0  0  0
 43 42  1  0  0  0  0
M  END
>  <MODEL>
9

>  <REMARK>
 VINA RESULT:      -7.1      1.818      6.404
  Name = 
  12 active torsions:
  status: ('A' for Active; 'I' for Inactive)
    1  A    between atoms: N_1  and  N_34
    2  A    between atoms: N_1  and  C_35
    3  A    between atoms: C_2  and  N_6
    4  A    between atoms: C_2  and  C_13
    5  A    between atoms: S_3  and  C_4
    6  A    between atoms: S_3  and  C_12
    7  A    between atoms: C_4  and  C_15
    8  A    between atoms: C_4  and  O_22
    9  A    between atoms: C_11  and  C_14
   10  A    between atoms: C_14  and  O_22
   11  A    between atoms: C_15  and  C_42
   12  A    between atoms: C_19  and  O_25
                            x       y       z     vdW  Elec       q    Type
                         _______ _______ _______ _____ _____    ______ ____

>  <TORSDO>
F 12

$$$$
