=
 OpenBabel10272401003D

 27 31  0  0  1  0  0  0  0  0999 V2000
  188.4710  177.7340  137.1130 C   0  0  2  0  0  0  0  0  0  0  0  0
  186.5650  178.4670  138.6470 C   0  0  1  0  0  3  0  0  0  0  0  0
  188.7370  177.7320  139.6570 C   0  0  0  0  0  2  0  0  0  0  0  0
  184.9480  179.2640  142.5980 C   0  0  0  0  0  2  0  0  0  0  0  0
  185.4020  178.9880  144.8970 O   0  0  0  0  0  0  0  0  0  0  0  0
  185.0530  178.6120  138.8180 C   0  0  0  0  0  2  0  0  0  0  0  0
  187.4590  177.6520  142.3630 C   0  0  0  0  0  2  0  0  0  0  0  0
  191.0500  175.8040  139.0180 O   0  0  0  0  0  1  0  0  0  0  0  0
  186.5080  177.4080  143.5410 C   0  0  0  0  0  2  0  0  0  0  0  0
  191.1120  176.6570  136.7840 C   0  0  0  0  0  2  0  0  0  0  0  0
  187.2180  177.7380  139.8390 C   0  0  1  0  0  3  0  0  0  0  0  0
  186.9360  177.8060  137.3010 C   0  0  2  0  0  3  0  0  0  0  0  0
  185.6120  178.5900  143.7640 C   0  0  0  0  0  0  0  0  0  0  0  0
  185.3070  178.5590  141.2940 C   0  0  2  0  0  3  0  0  0  0  0  0
  189.0010  179.1590  136.9670 C   0  0  0  0  0  1  0  0  0  0  0  0
  186.8360  178.4070  141.1670 C   0  0  1  0  0  3  0  0  0  0  0  0
  190.6390  176.8750  138.2260 C   0  0  1  0  0  3  0  0  0  0  0  0
  184.7440  179.3410  140.1170 C   0  0  0  0  0  2  0  0  0  0  0  0
  190.0160  176.0410  135.9200 C   0  0  0  0  0  2  0  0  0  0  0  0
  188.8200  176.9910  135.8050 C   0  0  0  0  0  2  0  0  0  0  0  0
  189.1160  177.0450  138.3450 C   0  0  2  0  0  3  0  0  0  0  0  0
  184.8410  174.1000  136.5900 C   0  0  0  0  0  3  0  0  0  0  0  0
  186.2190  176.4950  137.0630 C   0  0  0  0  0  0  0  0  0  0  0  0
  186.7630  175.2700  137.4820 C   0  0  0  0  0  3  0  0  0  0  0  0
  186.0760  174.0770  137.2460 C   0  0  0  0  0  3  0  0  0  0  0  0
  184.2950  175.3170  136.1710 C   0  0  0  0  0  3  0  0  0  0  0  0
  184.9830  176.5100  136.4070 C   0  0  0  0  0  3  0  0  0  0  0  0
  1 15  1  6  0  0  0
  1 12  1  0  0  0  0
  1 21  1  0  0  0  0
  2  6  1  1  0  0  0
  2 11  1  0  0  0  0
  4 13  1  0  0  0  0
  6 18  1  0  0  0  0
  7  9  1  0  0  0  0
  9 13  1  0  0  0  0
 10 17  1  0  0  0  0
 11  3  1  6  0  0  0
 11 16  1  0  0  0  0
 12 23  1  1  0  0  0
 12  2  1  0  0  0  0
 13  5  2  0  0  0  0
 14 18  1  6  0  0  0
 14  4  1  0  0  0  0
 16 14  1  0  0  0  0
 16  7  1  1  0  0  0
 17 21  1  0  0  0  0
 17  8  1  1  0  0  0
 19 10  1  0  0  0  0
 20 19  1  0  0  0  0
 20  1  1  0  0  0  0
 21  3  1  1  0  0  0
 22 25  1  0  0  0  0
 23 24  1  0  0  0  0
 25 24  2  0  0  0  0
 26 27  1  0  0  0  0
 26 22  2  0  0  0  0
 27 23  2  0  0  0  0
M  END
>  <MODEL>
1

>  <REMARK>
 VINA RESULT:      -6.4      0.000      0.000
  Name = 
  1 active torsions:
  status: ('A' for Active; 'I' for Inactive)
    1  A    between atoms: C_9  and  C_15
                            x       y       z     vdW  Elec       q    Type
                         _______ _______ _______ _____ _____    ______ ____

>  <TORSDO>
F 1

$$$$
=
 OpenBabel10272401003D

 27 31  0  0  1  0  0  0  0  0999 V2000
  188.6830  177.7900  136.6670 C   0  0  2  0  0  0  0  0  0  0  0  0
  187.8200  178.2060  139.0340 C   0  0  1  0  0  3  0  0  0  0  0  0
  190.0380  177.0840  138.7190 C   0  0  0  0  0  2  0  0  0  0  0  0
  188.2890  178.0130  143.3480 C   0  0  0  0  0  2  0  0  0  0  0  0
  189.6490  177.0990  145.0450 O   0  0  0  0  0  0  0  0  0  0  0  0
  186.5940  178.4000  139.9260 C   0  0  0  0  0  2  0  0  0  0  0  0
  190.0930  176.3620  141.6240 C   0  0  0  0  0  2  0  0  0  0  0  0
  191.4330  175.2510  136.6770 O   0  0  0  0  0  1  0  0  0  0  0  0
  189.7320  175.8730  143.0320 C   0  0  0  0  0  2  0  0  0  0  0  0
  190.6600  176.6690  134.9120 C   0  0  0  0  0  2  0  0  0  0  0  0
  188.7850  177.1420  139.5950 C   0  0  1  0  0  3  0  0  0  0  0  0
  187.4310  177.9100  137.5700 C   0  0  2  0  0  3  0  0  0  0  0  0
  189.2610  177.0080  143.8930 C   0  0  0  0  0  0  0  0  0  0  0  0
  187.8990  177.6640  141.9150 C   0  0  2  0  0  3  0  0  0  0  0  0
  189.3470  179.1630  136.5870 C   0  0  0  0  0  1  0  0  0  0  0  0
  189.1580  177.4520  141.0510 C   0  0  1  0  0  3  0  0  0  0  0  0
  190.9200  176.5210  136.4160 C   0  0  1  0  0  3  0  0  0  0  0  0
  187.0300  178.7710  141.3370 C   0  0  0  0  0  2  0  0  0  0  0  0
  189.2030  176.3830  134.5630 C   0  0  0  0  0  2  0  0  0  0  0  0
  188.2760  177.4060  135.2280 C   0  0  0  0  0  2  0  0  0  0  0  0
  189.6660  176.7530  137.2740 C   0  0  2  0  0  3  0  0  0  0  0  0
  184.5940  174.6810  137.1760 C   0  0  0  0  0  3  0  0  0  0  0  0
  186.4550  176.7620  137.4330 C   0  0  0  0  0  0  0  0  0  0  0  0
  186.8870  175.4270  137.3840 C   0  0  0  0  0  3  0  0  0  0  0  0
  185.9600  174.3910  137.2560 C   0  0  0  0  0  3  0  0  0  0  0  0
  184.1590  176.0080  137.2240 C   0  0  0  0  0  3  0  0  0  0  0  0
  185.0870  177.0450  137.3520 C   0  0  0  0  0  3  0  0  0  0  0  0
  1 15  1  6  0  0  0
  1 21  1  0  0  0  0
  1 12  1  0  0  0  0
  2 11  1  0  0  0  0
  2  6  1  1  0  0  0
  4 13  1  0  0  0  0
  6 18  1  0  0  0  0
  7  9  1  0  0  0  0
  9 13  1  0  0  0  0
 10 17  1  0  0  0  0
 11  3  1  6  0  0  0
 11 16  1  0  0  0  0
 12 23  1  1  0  0  0
 12  2  1  0  0  0  0
 13  5  2  0  0  0  0
 14 18  1  6  0  0  0
 14  4  1  0  0  0  0
 16  7  1  1  0  0  0
 16 14  1  0  0  0  0
 17  8  1  6  0  0  0
 17 21  1  0  0  0  0
 19 10  1  0  0  0  0
 19 20  1  0  0  0  0
 20  1  1  0  0  0  0
 21  3  1  1  0  0  0
 22 26  2  0  0  0  0
 22 25  1  0  0  0  0
 24 23  1  0  0  0  0
 25 24  2  0  0  0  0
 26 27  1  0  0  0  0
 27 23  2  0  0  0  0
M  END
>  <MODEL>
2

>  <REMARK>
 VINA RESULT:      -6.1      1.596      2.180
  Name = 
  1 active torsions:
  status: ('A' for Active; 'I' for Inactive)
    1  A    between atoms: C_9  and  C_15
                            x       y       z     vdW  Elec       q    Type
                         _______ _______ _______ _____ _____    ______ ____

>  <TORSDO>
F 1

$$$$
=
 OpenBabel10272401003D

 27 31  0  0  1  0  0  0  0  0999 V2000
  186.9160  176.8350  135.9220 C   0  0  2  0  0  0  0  0  0  0  0  0
  184.4360  177.2880  136.3290 C   0  0  1  0  0  3  0  0  0  0  0  0
  186.1110  178.0140  138.0450 C   0  0  0  0  0  2  0  0  0  0  0  0
  181.2070  178.9310  138.7250 C   0  0  0  0  0  2  0  0  0  0  0  0
  180.7320  179.8630  140.8390 O   0  0  0  0  0  0  0  0  0  0  0  0
  182.9990  176.8560  136.0390 C   0  0  0  0  0  2  0  0  0  0  0  0
  183.8970  178.5620  139.9840 C   0  0  0  0  0  2  0  0  0  0  0  0
  188.8660  177.1380  139.1020 O   0  0  0  0  0  1  0  0  0  0  0  0
  182.6340  178.4700  140.8490 C   0  0  0  0  0  2  0  0  0  0  0  0
  189.6330  176.9120  136.8470 C   0  0  0  0  0  2  0  0  0  0  0  0
  184.6960  177.4700  137.8370 C   0  0  1  0  0  3  0  0  0  0  0  0
  185.4690  176.3400  135.6810 C   0  0  2  0  0  3  0  0  0  0  0  0
  181.4740  179.1510  140.1850 C   0  0  0  0  0  0  0  0  0  0  0  0
  182.2230  177.9590  138.1320 C   0  0  2  0  0  3  0  0  0  0  0  0
  187.1070  178.1430  135.1580 C   0  0  0  0  0  1  0  0  0  0  0  0
  183.6590  178.4130  138.4640 C   0  0  1  0  0  3  0  0  0  0  0  0
  188.5750  177.5010  137.7880 C   0  0  1  0  0  3  0  0  0  0  0  0
  182.0230  177.8650  136.6270 C   0  0  0  0  0  2  0  0  0  0  0  0
  189.1660  175.6000  136.2270 C   0  0  0  0  0  2  0  0  0  0  0  0
  187.9340  175.8270  135.3450 C   0  0  0  0  0  2  0  0  0  0  0  0
  187.1440  177.0620  137.4400 C   0  0  2  0  0  3  0  0  0  0  0  0
  184.8150  172.1760  136.6100 C   0  0  0  0  0  3  0  0  0  0  0  0
  185.2440  174.8850  136.0300 C   0  0  0  0  0  0  0  0  0  0  0  0
  185.3750  174.4130  137.3460 C   0  0  0  0  0  3  0  0  0  0  0  0
  185.1610  173.0630  137.6340 C   0  0  0  0  0  3  0  0  0  0  0  0
  184.6830  172.6410  135.2990 C   0  0  0  0  0  3  0  0  0  0  0  0
  184.8970  173.9920  135.0100 C   0  0  0  0  0  3  0  0  0  0  0  0
  1 15  1  6  0  0  0
  1 21  1  0  0  0  0
  2  6  1  1  0  0  0
  2 11  1  0  0  0  0
  4 13  1  0  0  0  0
  6 18  1  0  0  0  0
  7  9  1  0  0  0  0
 10 17  1  0  0  0  0
 11  3  1  6  0  0  0
 11 16  1  0  0  0  0
 12  1  1  0  0  0  0
 12 23  1  1  0  0  0
 12  2  1  0  0  0  0
 13  5  2  0  0  0  0
 13  9  1  0  0  0  0
 14 18  1  6  0  0  0
 14 16  1  0  0  0  0
 14  4  1  0  0  0  0
 16  7  1  1  0  0  0
 17  8  1  1  0  0  0
 19 10  1  0  0  0  0
 20  1  1  0  0  0  0
 20 19  1  0  0  0  0
 21 17  1  0  0  0  0
 21  3  1  6  0  0  0
 22 25  1  0  0  0  0
 23 24  1  0  0  0  0
 24 25  2  0  0  0  0
 26 22  2  0  0  0  0
 27 26  1  0  0  0  0
 27 23  2  0  0  0  0
M  END
>  <MODEL>
3

>  <REMARK>
 VINA RESULT:      -6.1      2.421      3.426
  Name = 
  1 active torsions:
  status: ('A' for Active; 'I' for Inactive)
    1  A    between atoms: C_9  and  C_15
                            x       y       z     vdW  Elec       q    Type
                         _______ _______ _______ _____ _____    ______ ____

>  <TORSDO>
F 1

$$$$
=
 OpenBabel10272401003D

 27 31  0  0  1  0  0  0  0  0999 V2000
  183.6280  178.8880  138.9540 C   0  0  2  0  0  0  0  0  0  0  0  0
  183.2960  179.0110  141.4830 C   0  0  1  0  0  3  0  0  0  0  0  0
  185.5650  178.4670  140.5710 C   0  0  0  0  0  2  0  0  0  0  0  0
  184.8320  178.8030  145.5410 C   0  0  0  0  0  2  0  0  0  0  0  0
  186.7350  178.1910  146.7930 O   0  0  0  0  0  0  0  0  0  0  0  0
  182.3130  178.8760  142.6460 C   0  0  0  0  0  2  0  0  0  0  0  0
  186.4880  177.6890  143.3100 C   0  0  0  0  0  2  0  0  0  0  0  0
  186.7990  177.0880  138.1100 O   0  0  0  0  0  1  0  0  0  0  0  0
  186.6010  177.0850  144.7150 C   0  0  0  0  0  2  0  0  0  0  0  0
  185.3180  178.3320  136.7010 C   0  0  0  0  0  2  0  0  0  0  0  0
  184.5830  178.1930  141.7120 C   0  0  1  0  0  3  0  0  0  0  0  0
  182.6390  178.6750  140.1270 C   0  0  2  0  0  3  0  0  0  0  0  0
  186.1090  178.0450  145.7570 C   0  0  0  0  0  0  0  0  0  0  0  0
  184.1950  178.4140  144.2100 C   0  0  2  0  0  3  0  0  0  0  0  0
  183.9230  180.3830  138.8450 C   0  0  0  0  0  1  0  0  0  0  0  0
  185.2200  178.5390  143.0650 C   0  0  1  0  0  3  0  0  0  0  0  0
  185.9640  178.2040  138.0860 C   0  0  1  0  0  3  0  0  0  0  0  0
  182.9830  179.2960  143.9460 C   0  0  0  0  0  2  0  0  0  0  0  0
  183.9240  177.7140  136.6710 C   0  0  0  0  0  2  0  0  0  0  0  0
  182.9810  178.4630  137.6180 C   0  0  0  0  0  2  0  0  0  0  0  0
  184.9370  178.1010  139.2250 C   0  0  2  0  0  3  0  0  0  0  0  0
  180.6050  174.8690  140.1260 C   0  0  0  0  0  3  0  0  0  0  0  0
  181.9460  177.3300  140.1160 C   0  0  0  0  0  0  0  0  0  0  0  0
  182.5660  176.1830  139.5960 C   0  0  0  0  0  3  0  0  0  0  0  0
  181.8970  174.9570  139.6010 C   0  0  0  0  0  3  0  0  0  0  0  0
  179.9820  176.0070  140.6450 C   0  0  0  0  0  3  0  0  0  0  0  0
  180.6510  177.2340  140.6390 C   0  0  0  0  0  3  0  0  0  0  0  0
  1 15  1  6  0  0  0
  1 21  1  0  0  0  0
  1 12  1  0  0  0  0
  2 11  1  0  0  0  0
  2  6  1  1  0  0  0
  4 13  1  0  0  0  0
  6 18  1  0  0  0  0
  7  9  1  0  0  0  0
  9 13  1  0  0  0  0
 10 17  1  0  0  0  0
 11  3  1  6  0  0  0
 11 16  1  0  0  0  0
 12 23  1  1  0  0  0
 12  2  1  0  0  0  0
 13  5  2  0  0  0  0
 14 18  1  6  0  0  0
 14  4  1  0  0  0  0
 16  7  1  1  0  0  0
 16 14  1  0  0  0  0
 17  8  1  6  0  0  0
 17 21  1  0  0  0  0
 19 10  1  0  0  0  0
 19 20  1  0  0  0  0
 20  1  1  0  0  0  0
 21  3  1  1  0  0  0
 22 26  1  0  0  0  0
 23 27  1  0  0  0  0
 24 25  1  0  0  0  0
 24 23  2  0  0  0  0
 25 22  2  0  0  0  0
 27 26  2  0  0  0  0
M  END
>  <MODEL>
4

>  <REMARK>
 VINA RESULT:      -6.0      2.922      4.588
  Name = 
  1 active torsions:
  status: ('A' for Active; 'I' for Inactive)
    1  A    between atoms: C_9  and  C_15
                            x       y       z     vdW  Elec       q    Type
                         _______ _______ _______ _____ _____    ______ ____

>  <TORSDO>
F 1

$$$$
=
 OpenBabel10272401003D

 27 31  0  0  1  0  0  0  0  0999 V2000
  188.6780  177.1150  137.0580 C   0  0  2  0  0  0  0  0  0  0  0  0
  186.3110  177.1480  136.1000 C   0  0  1  0  0  3  0  0  0  0  0  0
  186.6850  177.8860  138.4650 C   0  0  0  0  0  2  0  0  0  0  0  0
  182.0650  177.9850  136.4660 C   0  0  0  0  0  2  0  0  0  0  0  0
  180.3990  178.5610  138.0330 O   0  0  0  0  0  0  0  0  0  0  0  0
  185.3430  176.5510  135.0780 C   0  0  0  0  0  2  0  0  0  0  0  0
  183.7310  177.8550  138.9490 C   0  0  0  0  0  2  0  0  0  0  0  0
  188.6070  177.2930  140.7950 O   0  0  0  0  0  1  0  0  0  0  0  0
  182.2480  177.4700  139.0080 C   0  0  0  0  0  2  0  0  0  0  0  0
  190.4550  177.4700  139.2860 C   0  0  0  0  0  2  0  0  0  0  0  0
  185.7150  177.1720  137.5210 C   0  0  1  0  0  3  0  0  0  0  0  0
  187.6890  176.4500  136.0700 C   0  0  2  0  0  3  0  0  0  0  0  0
  181.4920  178.0540  137.8510 C   0  0  0  0  0  0  0  0  0  0  0  0
  183.4050  177.2550  136.4730 C   0  0  2  0  0  3  0  0  0  0  0  0
  188.9830  178.5240  136.5520 C   0  0  0  0  0  1  0  0  0  0  0  0
  184.3450  177.8670  137.5300 C   0  0  1  0  0  3  0  0  0  0  0  0
  188.9730  177.7740  139.5390 C   0  0  1  0  0  3  0  0  0  0  0  0
  184.0330  177.3240  135.0890 C   0  0  0  0  0  2  0  0  0  0  0  0
  190.6350  176.1930  138.4710 C   0  0  0  0  0  2  0  0  0  0  0  0
  190.0180  176.3490  137.0770 C   0  0  0  0  0  2  0  0  0  0  0  0
  188.0410  177.1790  138.4710 C   0  0  2  0  0  3  0  0  0  0  0  0
  187.4700  172.1520  136.3880 C   0  0  0  0  0  3  0  0  0  0  0  0
  187.5980  174.9450  136.2010 C   0  0  0  0  0  0  0  0  0  0  0  0
  186.8950  174.3370  137.2530 C   0  0  0  0  0  3  0  0  0  0  0  0
  186.8310  172.9450  137.3450 C   0  0  0  0  0  3  0  0  0  0  0  0
  188.1720  172.7520  135.3390 C   0  0  0  0  0  3  0  0  0  0  0  0
  188.2360  174.1450  135.2470 C   0  0  0  0  0  3  0  0  0  0  0  0
  1 15  1  6  0  0  0
  1 20  1  0  0  0  0
  1 21  1  0  0  0  0
  2  6  1  6  0  0  0
  2 11  1  0  0  0  0
  4 14  1  0  0  0  0
  4 13  1  0  0  0  0
  6 18  1  0  0  0  0
  7  9  1  0  0  0  0
 10 17  1  0  0  0  0
 11 16  1  0  0  0  0
 11  3  1  1  0  0  0
 12  2  1  0  0  0  0
 12 23  1  1  0  0  0
 12  1  1  0  0  0  0
 13  5  2  0  0  0  0
 13  9  1  0  0  0  0
 14 18  1  6  0  0  0
 14 16  1  0  0  0  0
 16  7  1  1  0  0  0
 17  8  1  1  0  0  0
 19 10  1  0  0  0  0
 20 19  1  0  0  0  0
 21  3  1  6  0  0  0
 21 17  1  0  0  0  0
 22 25  1  0  0  0  0
 23 24  1  0  0  0  0
 24 25  2  0  0  0  0
 26 22  2  0  0  0  0
 27 26  1  0  0  0  0
 27 23  2  0  0  0  0
M  END
>  <MODEL>
5

>  <REMARK>
 VINA RESULT:      -5.8      2.504      4.099
  Name = 
  1 active torsions:
  status: ('A' for Active; 'I' for Inactive)
    1  A    between atoms: C_9  and  C_15
                            x       y       z     vdW  Elec       q    Type
                         _______ _______ _______ _____ _____    ______ ____

>  <TORSDO>
F 1

$$$$
=
 OpenBabel10272401003D

 27 31  0  0  1  0  0  0  0  0999 V2000
  186.8810  177.0610  135.6110 C   0  0  2  0  0  0  0  0  0  0  0  0
  185.1130  177.6340  137.3610 C   0  0  1  0  0  3  0  0  0  0  0  0
  187.5320  177.9940  137.9020 C   0  0  0  0  0  2  0  0  0  0  0  0
  183.9700  179.1630  141.2630 C   0  0  0  0  0  2  0  0  0  0  0  0
  184.8560  179.8280  143.3460 O   0  0  0  0  0  0  0  0  0  0  0  0
  183.7060  177.3510  137.8900 C   0  0  0  0  0  2  0  0  0  0  0  0
  186.8310  178.4310  140.7800 C   0  0  0  0  0  2  0  0  0  0  0  0
  190.2680  176.7830  137.1780 O   0  0  0  0  0  1  0  0  0  0  0  0
  186.2450  178.3130  142.1920 C   0  0  0  0  0  2  0  0  0  0  0  0
  189.6440  176.8130  134.8690 C   0  0  0  0  0  2  0  0  0  0  0  0
  186.1740  177.5880  138.4780 C   0  0  1  0  0  3  0  0  0  0  0  0
  185.4850  176.7110  136.1810 C   0  0  2  0  0  3  0  0  0  0  0  0
  185.0160  179.1610  142.3390 C   0  0  0  0  0  0  0  0  0  0  0  0
  184.3550  178.2110  140.1350 C   0  0  2  0  0  3  0  0  0  0  0  0
  186.8010  178.4450  134.9690 C   0  0  0  0  0  1  0  0  0  0  0  0
  185.7860  178.5090  139.6440 C   0  0  1  0  0  3  0  0  0  0  0  0
  189.3610  177.3430  136.2800 C   0  0  1  0  0  3  0  0  0  0  0  0
  183.3570  178.3380  138.9940 C   0  0  0  0  0  2  0  0  0  0  0  0
  188.7400  175.6360  134.5190 C   0  0  0  0  0  2  0  0  0  0  0  0
  187.2710  176.0710  134.4920 C   0  0  0  0  0  2  0  0  0  0  0  0
  187.9270  177.0610  136.7570 C   0  0  2  0  0  3  0  0  0  0  0  0
  184.8750  172.5210  137.0130 C   0  0  0  0  0  3  0  0  0  0  0  0
  185.2900  175.2420  136.4870 C   0  0  0  0  0  0  0  0  0  0  0  0
  186.1550  174.5470  137.3460 C   0  0  0  0  0  3  0  0  0  0  0  0
  185.9480  173.1900  137.6080 C   0  0  0  0  0  3  0  0  0  0  0  0
  184.0100  173.2090  136.1570 C   0  0  0  0  0  3  0  0  0  0  0  0
  184.2180  174.5660  135.8950 C   0  0  0  0  0  3  0  0  0  0  0  0
  1 15  1  6  0  0  0
  1 12  1  0  0  0  0
  1 21  1  0  0  0  0
  2  6  1  1  0  0  0
  2 11  1  0  0  0  0
  4 13  1  0  0  0  0
  6 18  1  0  0  0  0
  7  9  1  0  0  0  0
  9 13  1  0  0  0  0
 10 17  1  0  0  0  0
 11  3  1  6  0  0  0
 11 16  1  0  0  0  0
 12 23  1  1  0  0  0
 12  2  1  0  0  0  0
 13  5  2  0  0  0  0
 14 18  1  6  0  0  0
 14  4  1  0  0  0  0
 16 14  1  0  0  0  0
 16  7  1  1  0  0  0
 17 21  1  0  0  0  0
 17  8  1  1  0  0  0
 19 10  1  0  0  0  0
 20 19  1  0  0  0  0
 20  1  1  0  0  0  0
 21  3  1  1  0  0  0
 22 25  1  0  0  0  0
 23 24  1  0  0  0  0
 24 25  2  0  0  0  0
 26 22  2  0  0  0  0
 27 26  1  0  0  0  0
 27 23  2  0  0  0  0
M  END
>  <MODEL>
6

>  <REMARK>
 VINA RESULT:      -5.6      1.410      1.982
  Name = 
  1 active torsions:
  status: ('A' for Active; 'I' for Inactive)
    1  A    between atoms: C_9  and  C_15
                            x       y       z     vdW  Elec       q    Type
                         _______ _______ _______ _____ _____    ______ ____

>  <TORSDO>
F 1

$$$$
=
 OpenBabel10272401003D

 27 31  0  0  1  0  0  0  0  0999 V2000
  191.5330  175.2770  135.5290 C   0  0  2  0  0  0  0  0  0  0  0  0
  189.8380  176.6100  136.8960 C   0  0  1  0  0  3  0  0  0  0  0  0
  191.9440  175.8130  137.9960 C   0  0  0  0  0  2  0  0  0  0  0  0
  188.5780  178.5120  140.5920 C   0  0  0  0  0  2  0  0  0  0  0  0
  189.1220  178.7020  142.8800 O   0  0  0  0  0  0  0  0  0  0  0  0
  188.3730  177.0110  137.0660 C   0  0  0  0  0  2  0  0  0  0  0  0
  190.8260  176.5380  140.6770 C   0  0  0  0  0  2  0  0  0  0  0  0
  193.9290  173.4720  137.7670 O   0  0  0  0  0  1  0  0  0  0  0  0
  189.9200  176.7110  141.9020 C   0  0  0  0  0  2  0  0  0  0  0  0
  193.9780  173.7770  135.3940 C   0  0  0  0  0  2  0  0  0  0  0  0
  190.4530  176.0840  138.2090 C   0  0  1  0  0  3  0  0  0  0  0  0
  190.0360  175.6140  135.7330 C   0  0  2  0  0  3  0  0  0  0  0  0
  189.2090  178.0310  141.8660 C   0  0  0  0  0  0  0  0  0  0  0  0
  188.7600  177.4840  139.4800 C   0  0  2  0  0  3  0  0  0  0  0  0
  192.2440  176.5380  135.0410 C   0  0  0  0  0  1  0  0  0  0  0  0
  190.2440  177.0850  139.3540 C   0  0  1  0  0  3  0  0  0  0  0  0
  193.6240  174.3840  136.7570 C   0  0  1  0  0  3  0  0  0  0  0  0
  188.2420  178.0530  138.1670 C   0  0  0  0  0  2  0  0  0  0  0  0
  192.7600  173.1490  134.7250 C   0  0  0  0  0  2  0  0  0  0  0  0
  191.7000  174.2140  134.4210 C   0  0  0  0  0  2  0  0  0  0  0  0
  192.1480  174.7990  136.8710 C   0  0  2  0  0  3  0  0  0  0  0  0
  187.4350  172.1760  135.9330 C   0  0  0  0  0  3  0  0  0  0  0  0
  189.1340  174.4030  135.8250 C   0  0  0  0  0  0  0  0  0  0  0  0
  189.1890  173.5230  136.9170 C   0  0  0  0  0  3  0  0  0  0  0  0
  188.3420  172.4130  136.9700 C   0  0  0  0  0  3  0  0  0  0  0  0
  187.3760  173.0490  134.8440 C   0  0  0  0  0  3  0  0  0  0  0  0
  188.2230  174.1590  134.7900 C   0  0  0  0  0  3  0  0  0  0  0  0
  1 15  1  6  0  0  0
  1 12  1  0  0  0  0
  1 21  1  0  0  0  0
  2  6  1  1  0  0  0
  2 11  1  0  0  0  0
  4 13  1  0  0  0  0
  6 18  1  0  0  0  0
  7  9  1  0  0  0  0
 10 17  1  0  0  0  0
 11  3  1  6  0  0  0
 11 16  1  0  0  0  0
 12 23  1  1  0  0  0
 12  2  1  0  0  0  0
 13  9  1  0  0  0  0
 13  5  2  0  0  0  0
 14 18  1  6  0  0  0
 14  4  1  0  0  0  0
 16 14  1  0  0  0  0
 16  7  1  1  0  0  0
 17 21  1  0  0  0  0
 17  8  1  1  0  0  0
 19 10  1  0  0  0  0
 20 19  1  0  0  0  0
 20  1  1  0  0  0  0
 21  3  1  1  0  0  0
 22 25  1  0  0  0  0
 23 24  1  0  0  0  0
 24 25  2  0  0  0  0
 26 22  2  0  0  0  0
 27 26  1  0  0  0  0
 27 23  2  0  0  0  0
M  END
>  <MODEL>
7

>  <REMARK>
 VINA RESULT:      -5.5      2.708      4.019
  Name = 
  1 active torsions:
  status: ('A' for Active; 'I' for Inactive)
    1  A    between atoms: C_9  and  C_15
                            x       y       z     vdW  Elec       q    Type
                         _______ _______ _______ _____ _____    ______ ____

>  <TORSDO>
F 1

$$$$
=
 OpenBabel10272401003D

 27 31  0  0  1  0  0  0  0  0999 V2000
  189.1760  177.6630  137.5970 C   0  0  2  0  0  0  0  0  0  0  0  0
  187.2170  177.4210  135.9770 C   0  0  1  0  0  3  0  0  0  0  0  0
  186.7550  177.8620  138.4000 C   0  0  0  0  0  2  0  0  0  0  0  0
  182.9590  177.4420  135.1180 C   0  0  0  0  0  2  0  0  0  0  0  0
  180.8400  177.4850  136.1540 O   0  0  0  0  0  0  0  0  0  0  0  0
  186.7190  176.8180  134.6630 C   0  0  0  0  0  2  0  0  0  0  0  0
  183.8570  177.2460  137.9660 C   0  0  0  0  0  2  0  0  0  0  0  0
  188.0310  177.2820  141.1400 O   0  0  0  0  0  1  0  0  0  0  0  0
  182.5310  176.6040  137.5420 C   0  0  0  0  0  2  0  0  0  0  0  0
  190.1470  177.9950  140.2790 C   0  0  0  0  0  2  0  0  0  0  0  0
  186.2570  177.1340  137.1490 C   0  0  1  0  0  3  0  0  0  0  0  0
  188.6620  176.9860  136.3030 C   0  0  2  0  0  3  0  0  0  0  0  0
  182.0220  177.2080  136.2670 C   0  0  0  0  0  0  0  0  0  0  0  0
  184.3660  176.9640  135.4650 C   0  0  2  0  0  3  0  0  0  0  0  0
  189.3070  179.1610  137.3310 C   0  0  0  0  0  1  0  0  0  0  0  0
  184.8250  177.5710  136.8050 C   0  0  1  0  0  3  0  0  0  0  0  0
  188.6240  177.9960  140.0990 C   0  0  1  0  0  3  0  0  0  0  0  0
  185.3250  177.3410  134.3460 C   0  0  0  0  0  2  0  0  0  0  0  0
  190.8100  176.9010  139.4490 C   0  0  0  0  0  2  0  0  0  0  0  0
  190.5870  177.1470  137.9530 C   0  0  0  0  0  2  0  0  0  0  0  0
  188.1720  177.4090  138.7530 C   0  0  2  0  0  3  0  0  0  0  0  0
  189.2710  172.7150  136.1670 C   0  0  0  0  0  3  0  0  0  0  0  0
  188.8560  175.4850  136.2690 C   0  0  0  0  0  0  0  0  0  0  0  0
  187.9880  174.6140  136.9460 C   0  0  0  0  0  3  0  0  0  0  0  0
  188.1960  173.2330  136.8950 C   0  0  0  0  0  3  0  0  0  0  0  0
  190.1380  173.5780  135.4910 C   0  0  0  0  0  3  0  0  0  0  0  0
  189.9300  174.9600  135.5430 C   0  0  0  0  0  3  0  0  0  0  0  0
  1 15  1  6  0  0  0
  1 20  1  0  0  0  0
  1 21  1  0  0  0  0
  2  6  1  6  0  0  0
  2 12  1  0  0  0  0
  2 11  1  0  0  0  0
  4 14  1  0  0  0  0
  4 13  1  0  0  0  0
  5 13  2  0  0  0  0
  9  7  1  0  0  0  0
 11  3  1  1  0  0  0
 12 23  1  1  0  0  0
 12  1  1  0  0  0  0
 13  9  1  0  0  0  0
 14 18  1  6  0  0  0
 14 16  1  0  0  0  0
 16 11  1  0  0  0  0
 16  7  1  1  0  0  0
 17 10  1  0  0  0  0
 17  8  1  1  0  0  0
 18  6  1  0  0  0  0
 19 10  1  0  0  0  0
 20 19  1  0  0  0  0
 21  3  1  6  0  0  0
 21 17  1  0  0  0  0
 22 25  1  0  0  0  0
 23 24  1  0  0  0  0
 25 24  2  0  0  0  0
 26 27  1  0  0  0  0
 26 22  2  0  0  0  0
 27 23  2  0  0  0  0
M  END
>  <MODEL>
8

>  <REMARK>
 VINA RESULT:      -5.2      2.675      4.848
  Name = 
  1 active torsions:
  status: ('A' for Active; 'I' for Inactive)
    1  A    between atoms: C_9  and  C_15
                            x       y       z     vdW  Elec       q    Type
                         _______ _______ _______ _____ _____    ______ ____

>  <TORSDO>
F 1

$$$$
=
 OpenBabel10272401003D

 27 31  0  0  1  0  0  0  0  0999 V2000
  182.5860  178.3010  138.9500 C   0  0  2  0  0  0  0  0  0  0  0  0
  184.7910  177.6290  137.8510 C   0  0  1  0  0  3  0  0  0  0  0  0
  182.9660  175.9270  138.0760 C   0  0  0  0  0  2  0  0  0  0  0  0
  187.3200  174.7150  135.8570 C   0  0  0  0  0  2  0  0  0  0  0  0
  187.4660  172.4240  135.3120 O   0  0  0  0  0  0  0  0  0  0  0  0
  186.2920  177.8960  137.7430 C   0  0  0  0  0  2  0  0  0  0  0  0
  184.8830  173.7600  137.3080 C   0  0  0  0  0  2  0  0  0  0  0  0
  180.6290  175.2790  139.9720 O   0  0  0  0  0  1  0  0  0  0  0  0
  186.1060  172.8420  137.1920 C   0  0  0  0  0  2  0  0  0  0  0  0
  179.9820  177.5810  139.9230 C   0  0  0  0  0  2  0  0  0  0  0  0
  184.4810  176.1390  138.0950 C   0  0  1  0  0  3  0  0  0  0  0  0
  184.1160  178.5320  138.9060 C   0  0  2  0  0  3  0  0  0  0  0  0
  186.9920  173.2640  136.0570 C   0  0  0  0  0  0  0  0  0  0  0  0
  186.6680  175.5690  136.9400 C   0  0  2  0  0  3  0  0  0  0  0  0
  181.9910  178.7900  137.6310 C   0  0  0  0  0  1  0  0  0  0  0  0
  185.1620  175.2560  137.0380 C   0  0  1  0  0  3  0  0  0  0  0  0
  180.7940  176.4640  139.2570 C   0  0  1  0  0  3  0  0  0  0  0  0
  186.8940  177.0420  136.6360 C   0  0  0  0  0  2  0  0  0  0  0  0
  180.8450  178.4240  140.8560 C   0  0  0  0  0  2  0  0  0  0  0  0
  181.9440  179.1480  140.0710 C   0  0  0  0  0  2  0  0  0  0  0  0
  182.2920  176.7900  139.1440 C   0  0  2  0  0  3  0  0  0  0  0  0
  186.1010  178.3960  142.7360 C   0  0  0  0  0  3  0  0  0  0  0  0
  184.7910  178.4760  140.2590 C   0  0  0  0  0  0  0  0  0  0  0  0
  184.1000  178.0760  141.4130 C   0  0  0  0  0  3  0  0  0  0  0  0
  184.7530  178.0360  142.6470 C   0  0  0  0  0  3  0  0  0  0  0  0
  186.7940  178.7950  141.5900 C   0  0  0  0  0  3  0  0  0  0  0  0
  186.1400  178.8360  140.3560 C   0  0  0  0  0  3  0  0  0  0  0  0
  1 15  1  6  0  0  0
  1 21  1  0  0  0  0
  1 20  1  0  0  0  0
  2  6  1  1  0  0  0
  2 11  1  0  0  0  0
  2 12  1  0  0  0  0
  4 13  1  0  0  0  0
  5 13  2  0  0  0  0
  9  7  1  0  0  0  0
 10 19  1  0  0  0  0
 11  3  1  6  0  0  0
 12  1  1  0  0  0  0
 12 23  1  1  0  0  0
 13  9  1  0  0  0  0
 14  4  1  6  0  0  0
 14 16  1  0  0  0  0
 16  7  1  1  0  0  0
 16 11  1  0  0  0  0
 17 10  1  0  0  0  0
 17  8  1  1  0  0  0
 18 14  1  0  0  0  0
 18  6  1  0  0  0  0
 20 19  1  0  0  0  0
 21  3  1  6  0  0  0
 21 17  1  0  0  0  0
 23 27  2  0  0  0  0
 23 24  1  0  0  0  0
 24 25  2  0  0  0  0
 25 22  1  0  0  0  0
 26 22  2  0  0  0  0
 27 26  1  0  0  0  0
M  END
>  <MODEL>
9

>  <REMARK>
 VINA RESULT:      -4.9      2.923      7.315
  Name = 
  1 active torsions:
  status: ('A' for Active; 'I' for Inactive)
    1  A    between atoms: C_9  and  C_15
                            x       y       z     vdW  Elec       q    Type
                         _______ _______ _______ _____ _____    ______ ____

>  <TORSDO>
F 1

$$$$
