=
 OpenBabel10272415233D

 34 39  0  0  1  0  0  0  0  0999 V2000
  188.6960  177.6830  143.4720 C   0  0  0  0  0  0  0  0  0  0  0  0
  190.9970  177.7340  142.3490 C   0  0  0  0  0  0  0  0  0  0  0  0
  191.4490  177.8160  144.7680 C   0  0  0  0  0  3  0  0  0  0  0  0
  186.4600  177.5620  145.2820 C   0  0  0  0  0  3  0  0  0  0  0  0
  187.3420  177.9620  143.0650 N   0  0  0  0  0  0  0  0  0  0  0  0
  187.8900  177.4560  145.7100 C   0  0  0  0  0  0  0  0  0  0  0  0
  189.3760  177.0030  147.5580 C   0  0  0  0  0  3  0  0  0  0  0  0
  188.0960  177.1640  147.0570 C   0  0  0  0  0  3  0  0  0  0  0  0
  186.3090  177.9610  143.8500 C   0  0  0  0  0  0  0  0  0  0  0  0
  190.3030  177.4710  145.3580 C   0  0  0  0  0  0  0  0  0  0  0  0
  188.9870  177.5510  144.7990 C   0  0  1  0  0  3  0  0  0  0  0  0
  190.4640  177.1720  146.7150 C   0  0  0  0  0  3  0  0  0  0  0  0
  191.7540  177.5700  141.1820 C   0  0  0  0  0  3  0  0  0  0  0  0
  191.1800  177.0590  140.0170 C   0  0  0  0  0  0  0  0  0  0  0  0
  189.8300  176.7180  140.0130 C   0  0  0  0  0  3  0  0  0  0  0  0
  191.6620  178.2240  143.4590 O   0  0  0  0  0  0  0  0  0  0  0  0
  189.0660  176.9030  141.1650 C   0  0  0  0  0  3  0  0  0  0  0  0
  189.6290  177.4140  142.3490 C   0  0  0  0  0  0  0  0  0  0  0  0
  182.6710  179.0470  143.6550 C   0  0  0  0  0  3  0  0  0  0  0  0
  184.7040  178.1140  141.9320 C   0  0  0  0  0  3  0  0  0  0  0  0
  181.5560  178.7030  140.0890 C   0  0  2  0  0  3  0  0  0  0  0  0
  181.1850  179.1120  141.5340 C   0  0  0  0  0  2  0  0  0  0  0  0
  182.4440  178.8740  142.2910 C   0  0  0  0  0  0  0  0  0  0  0  0
  182.9680  178.3260  140.1280 N   0  0  0  0  0  0  0  0  0  0  0  0
  183.4280  178.4240  141.4600 C   0  0  0  0  0  0  0  0  0  0  0  0
  183.6670  177.6410  139.0530 C   0  0  0  0  0  1  0  0  0  0  0  0
  184.9720  178.2770  143.3050 C   0  0  0  0  0  0  0  0  0  0  0  0
  183.9460  178.7460  144.1600 C   0  0  0  0  0  3  0  0  0  0  0  0
  181.3480  179.8530  139.1590 C   0  0  0  0  0  0  0  0  0  0  0  0
  180.2210  180.0320  138.6310 O   0  0  0  0  0  0  0  0  0  0  0  0
  182.3880  180.7330  138.8810 O   0  0  0  0  0  1  0  0  0  0  0  0
  191.9560  176.8820  138.8310 N   0  0  0  0  0  2  0  0  0  0  0  0
  193.3040  176.7390  138.8720 O   0  0  0  0  0  0  0  0  0  0  0  0
  193.5960  175.7840  137.8970 C   0  0  0  0  0  1  0  0  0  0  0  0
  2 16  1  0  0  0  0
  3 10  2  0  0  0  0
  4  6  1  0  0  0  0
  5  1  2  0  0  0  0
  5  9  1  0  0  0  0
  6  8  2  0  0  0  0
  8  7  1  0  0  0  0
  9  4  2  0  0  0  0
 10 12  1  0  0  0  0
 11  1  1  6  0  0  0
 11 10  1  0  0  0  0
 11  6  1  0  0  0  0
 12  7  2  0  0  0  0
 13  2  2  0  0  0  0
 14 13  1  0  0  0  0
 15 14  2  0  0  0  0
 15 17  1  0  0  0  0
 16  3  1  0  0  0  0
 17 18  2  0  0  0  0
 18  2  1  0  0  0  0
 18  1  1  0  0  0  0
 19 28  1  0  0  0  0
 20 27  1  0  0  0  0
 21 29  1  6  0  0  0
 21 24  1  0  0  0  0
 21 22  1  0  0  0  0
 22 23  1  0  0  0  0
 23 19  2  0  0  0  0
 24 25  1  0  0  0  0
 25 20  2  0  0  0  0
 25 23  1  0  0  0  0
 26 24  1  0  0  0  0
 27  9  1  0  0  0  0
 27 28  2  0  0  0  0
 30 29  2  0  0  0  0
 31 29  1  0  0  0  0
 32 33  1  0  0  0  0
 32 14  1  0  0  0  0
 34 33  1  0  0  0  0
M  END
>  <MODEL>
1

>  <REMARK>
 VINA RESULT:     -10.9      0.000      0.000
  Name = 
  4 active torsions:
  status: ('A' for Active; 'I' for Inactive)
    1  A    between atoms: N_3  and  O_13
    2  A    between atoms: N_3  and  C_25
    3  A    between atoms: C_7  and  C_11
    4  A    between atoms: C_18  and  C_30
                            x       y       z     vdW  Elec       q    Type
                         _______ _______ _______ _____ _____    ______ ____

>  <TORSDO>
F 4

$$$$
=
 OpenBabel10272415233D

 34 39  0  0  1  0  0  0  0  0999 V2000
  188.7020  177.6370  145.2060 C   0  0  0  0  0  0  0  0  0  0  0  0
  189.9010  177.6820  147.4690 C   0  0  0  0  0  0  0  0  0  0  0  0
  187.6450  178.5670  147.9070 C   0  0  0  0  0  3  0  0  0  0  0  0
  186.8320  177.7470  143.0200 C   0  0  0  0  0  2  0  0  0  0  0  0
  189.1070  177.5740  143.8240 N   0  0  0  0  0  0  0  0  0  0  0  0
  186.4640  177.9900  144.4500 C   0  0  0  0  0  0  0  0  0  0  0  0
  184.6410  178.3510  145.9910 C   0  0  0  0  0  3  0  0  0  0  0  0
  185.1030  178.1580  144.7010 C   0  0  0  0  0  3  0  0  0  0  0  0
  188.3080  177.6600  142.8060 C   0  0  0  0  0  0  0  0  0  0  0  0
  186.9230  178.2540  146.8300 C   0  0  0  0  0  0  0  0  0  0  0  0
  187.4130  177.9630  145.5170 C   0  0  0  0  0  0  0  0  0  0  0  0
  185.5480  178.4120  147.0390 C   0  0  0  0  0  3  0  0  0  0  0  0
  191.0000  177.2830  148.2410 C   0  0  0  0  0  3  0  0  0  0  0  0
  191.9260  176.3600  147.7510 C   0  0  0  0  0  0  0  0  0  0  0  0
  191.7590  175.8380  146.4710 C   0  0  0  0  0  3  0  0  0  0  0  0
  189.0260  178.5820  148.0510 O   0  0  0  0  0  0  0  0  0  0  0  0
  190.6810  176.2520  145.6890 C   0  0  0  0  0  3  0  0  0  0  0  0
  189.7360  177.1780  146.1680 C   0  0  0  0  0  0  0  0  0  0  0  0
  190.7730  177.3060  139.9340 C   0  0  0  0  0  3  0  0  0  0  0  0
  188.0110  177.7520  140.3190 C   0  0  0  0  0  3  0  0  0  0  0  0
  188.8710  177.7230  136.7260 C   0  0  2  0  0  3  0  0  0  0  0  0
  190.2350  177.4530  137.4030 C   0  0  0  0  0  2  0  0  0  0  0  0
  189.9050  177.4670  138.8540 C   0  0  0  0  0  0  0  0  0  0  0  0
  187.8940  177.8160  137.8100 N   0  0  0  0  0  0  0  0  0  0  0  0
  188.5710  177.6810  139.0430 C   0  0  0  0  0  0  0  0  0  0  0  0
  186.5360  178.3080  137.6550 C   0  0  0  0  0  1  0  0  0  0  0  0
  188.8560  177.5930  141.4350 C   0  0  0  0  0  0  0  0  0  0  0  0
  190.2380  177.3690  141.2300 C   0  0  0  0  0  3  0  0  0  0  0  0
  188.5230  176.6020  135.8030 C   0  0  0  0  0  0  0  0  0  0  0  0
  188.3790  176.8260  134.5740 O   0  0  0  0  0  0  0  0  0  0  0  0
  188.3640  175.3100  136.2920 O   0  0  0  0  0  1  0  0  0  0  0  0
  193.0400  175.9450  148.5430 N   0  0  0  0  0  2  0  0  0  0  0  0
  193.9520  176.8300  149.0160 O   0  0  0  0  0  0  0  0  0  0  0  0
  193.7920  176.8070  150.4030 C   0  0  0  0  0  1  0  0  0  0  0  0
  1 11  2  0  0  0  0
  1 18  1  0  0  0  0
  2 16  1  0  0  0  0
  2 13  1  0  0  0  0
  3 16  1  0  0  0  0
  4  6  1  0  0  0  0
  5  1  1  0  0  0  0
  6  8  2  0  0  0  0
  6 11  1  0  0  0  0
  7 12  2  0  0  0  0
  8  7  1  0  0  0  0
  9  4  1  0  0  0  0
  9  5  2  0  0  0  0
 10 12  1  0  0  0  0
 10  3  2  0  0  0  0
 11 10  1  0  0  0  0
 14 13  2  0  0  0  0
 14 32  1  0  0  0  0
 15 14  1  0  0  0  0
 17 18  1  0  0  0  0
 17 15  2  0  0  0  0
 18  2  2  0  0  0  0
 19 28  1  0  0  0  0
 20 27  1  0  0  0  0
 21 29  1  6  0  0  0
 21 22  1  0  0  0  0
 21 24  1  0  0  0  0
 22 23  1  0  0  0  0
 23 25  1  0  0  0  0
 23 19  2  0  0  0  0
 24 25  1  0  0  0  0
 25 20  2  0  0  0  0
 26 24  1  0  0  0  0
 27  9  1  0  0  0  0
 28 27  2  0  0  0  0
 29 31  1  0  0  0  0
 30 29  2  0  0  0  0
 32 33  1  0  0  0  0
 33 34  1  0  0  0  0
M  END
>  <MODEL>
2

>  <REMARK>
 VINA RESULT:      -9.8      3.655      6.540
  Name = 
  4 active torsions:
  status: ('A' for Active; 'I' for Inactive)
    1  A    between atoms: N_3  and  O_13
    2  A    between atoms: N_3  and  C_25
    3  A    between atoms: C_7  and  C_11
    4  A    between atoms: C_18  and  C_30
                            x       y       z     vdW  Elec       q    Type
                         _______ _______ _______ _____ _____    ______ ____

>  <TORSDO>
F 4

$$$$
=
 OpenBabel10272415233D

 34 39  0  0  1  0  0  0  0  0999 V2000
  184.2590  178.1620  141.6960 C   0  0  0  0  0  0  0  0  0  0  0  0
  183.8410  177.6950  139.2130 C   0  0  0  0  0  0  0  0  0  0  0  0
  181.6060  177.9430  140.2160 C   0  0  0  0  0  3  0  0  0  0  0  0
  184.0840  178.7980  144.4990 C   0  0  0  0  0  3  0  0  0  0  0  0
  185.3530  177.9670  142.6140 N   0  0  0  0  0  0  0  0  0  0  0  0
  182.9180  178.8180  143.5620 C   0  0  0  0  0  0  0  0  0  0  0  0
  180.5860  179.3950  143.3140 C   0  0  0  0  0  3  0  0  0  0  0  0
  181.7220  179.2940  144.0980 C   0  0  0  0  0  3  0  0  0  0  0  0
  185.3100  178.2000  143.8900 C   0  0  0  0  0  0  0  0  0  0  0  0
  181.8110  178.4950  141.4130 C   0  0  0  0  0  0  0  0  0  0  0  0
  183.0200  178.4680  142.1800 C   0  0  1  0  0  3  0  0  0  0  0  0
  180.6330  178.9830  141.9900 C   0  0  0  0  0  3  0  0  0  0  0  0
  184.3650  177.5930  137.9180 C   0  0  0  0  0  3  0  0  0  0  0  0
  185.6800  177.9750  137.6410 C   0  0  0  0  0  0  0  0  0  0  0  0
  186.4840  178.4510  138.6720 C   0  0  0  0  0  3  0  0  0  0  0  0
  182.5210  177.3150  139.3820 O   0  0  0  0  0  0  0  0  0  0  0  0
  185.9760  178.5290  139.9680 C   0  0  0  0  0  3  0  0  0  0  0  0
  184.6520  178.1530  140.2650 C   0  0  0  0  0  0  0  0  0  0  0  0
  187.5030  177.5510  146.9270 C   0  0  0  0  0  3  0  0  0  0  0  0
  187.7800  177.8550  144.1330 C   0  0  0  0  0  3  0  0  0  0  0  0
  191.0560  177.2910  145.7480 C   0  0  2  0  0  3  0  0  0  0  0  0
  190.0750  177.2360  146.9430 C   0  0  0  0  0  2  0  0  0  0  0  0
  188.7480  177.4680  146.3080 C   0  0  0  0  0  0  0  0  0  0  0  0
  190.2300  177.4930  144.5580 N   0  0  0  0  0  0  0  0  0  0  0  0
  188.8800  177.6140  144.9570 C   0  0  0  0  0  0  0  0  0  0  0  0
  190.7470  177.8520  143.2490 C   0  0  0  0  0  1  0  0  0  0  0  0
  186.5040  177.9450  144.7230 C   0  0  0  0  0  0  0  0  0  0  0  0
  186.3760  177.7910  146.1240 C   0  0  0  0  0  3  0  0  0  0  0  0
  191.8160  176.0100  145.6460 C   0  0  0  0  0  0  0  0  0  0  0  0
  192.2910  175.4830  146.6840 O   0  0  0  0  0  1  0  0  0  0  0  0
  191.9940  175.3910  144.4140 O   0  0  0  0  0  0  0  0  0  0  0  0
  186.2090  177.8820  136.3170 N   0  0  0  0  0  2  0  0  0  0  0  0
  187.4110  178.4150  135.9880 O   0  0  0  0  0  0  0  0  0  0  0  0
  188.1680  177.3380  135.5220 C   0  0  0  0  0  1  0  0  0  0  0  0
  1 11  1  0  0  0  0
  1  5  2  0  0  0  0
  2 16  1  0  0  0  0
  2 18  1  0  0  0  0
  3 10  2  0  0  0  0
  5  9  1  0  0  0  0
  6  8  2  0  0  0  0
  6  4  1  0  0  0  0
  7  8  1  0  0  0  0
  9  4  2  0  0  0  0
  9 27  1  0  0  0  0
 10 12  1  0  0  0  0
 11 10  1  6  0  0  0
 11  6  1  0  0  0  0
 12  7  2  0  0  0  0
 13  2  2  0  0  0  0
 14 13  1  0  0  0  0
 14 15  2  0  0  0  0
 15 17  1  0  0  0  0
 16  3  1  0  0  0  0
 17 18  2  0  0  0  0
 18  1  1  0  0  0  0
 20 27  2  0  0  0  0
 20 25  1  0  0  0  0
 21 29  1  6  0  0  0
 21 22  1  0  0  0  0
 23 19  1  0  0  0  0
 23 22  1  0  0  0  0
 24 25  1  0  0  0  0
 24 21  1  0  0  0  0
 25 23  2  0  0  0  0
 26 24  1  0  0  0  0
 27 28  1  0  0  0  0
 28 19  2  0  0  0  0
 29 30  1  0  0  0  0
 31 29  2  0  0  0  0
 32 14  1  0  0  0  0
 33 32  1  0  0  0  0
 34 33  1  0  0  0  0
M  END
>  <MODEL>
3

>  <REMARK>
 VINA RESULT:      -9.7      2.511      7.921
  Name = 
  4 active torsions:
  status: ('A' for Active; 'I' for Inactive)
    1  A    between atoms: N_3  and  O_13
    2  A    between atoms: N_3  and  C_25
    3  A    between atoms: C_7  and  C_11
    4  A    between atoms: C_18  and  C_30
                            x       y       z     vdW  Elec       q    Type
                         _______ _______ _______ _____ _____    ______ ____

>  <TORSDO>
F 4

$$$$
=
 OpenBabel10272415233D

 34 39  0  0  1  0  0  0  0  0999 V2000
  187.9340  177.6480  143.6760 C   0  0  0  0  0  0  0  0  0  0  0  0
  185.7790  177.9410  145.0300 C   0  0  0  0  0  0  0  0  0  0  0  0
  187.4910  177.2610  146.6640 C   0  0  0  0  0  3  0  0  0  0  0  0
  190.6290  177.2500  142.7430 C   0  0  0  0  0  2  0  0  0  0  0  0
  188.2610  177.4460  142.2860 N   0  0  0  0  0  0  0  0  0  0  0  0
  190.2380  177.2800  144.1880 C   0  0  0  0  0  0  0  0  0  0  0  0
  191.0550  177.2880  146.4600 C   0  0  0  0  0  3  0  0  0  0  0  0
  191.2930  177.2270  145.0980 C   0  0  0  0  0  3  0  0  0  0  0  0
  189.4520  177.2230  141.8230 C   0  0  0  0  0  0  0  0  0  0  0  0
  188.6610  177.4160  146.0420 C   0  0  0  0  0  0  0  0  0  0  0  0
  188.8900  177.4470  144.6290 C   0  0  0  0  0  0  0  0  0  0  0  0
  189.7490  177.3660  146.9210 C   0  0  0  0  0  3  0  0  0  0  0  0
  184.4620  178.4140  145.0800 C   0  0  0  0  0  3  0  0  0  0  0  0
  183.9350  179.1890  144.0450 C   0  0  0  0  0  0  0  0  0  0  0  0
  184.7300  179.4860  142.9410 C   0  0  0  0  0  3  0  0  0  0  0  0
  186.2180  177.2020  146.1140 O   0  0  0  0  0  0  0  0  0  0  0  0
  186.0340  178.9960  142.8740 C   0  0  0  0  0  3  0  0  0  0  0  0
  186.5820  178.2160  143.9100 C   0  0  0  0  0  0  0  0  0  0  0  0
  191.0890  176.3530  138.5050 C   0  0  0  0  0  3  0  0  0  0  0  0
  188.6090  177.3020  139.4650 C   0  0  0  0  0  3  0  0  0  0  0  0
  188.5980  177.0240  135.7800 C   0  0  2  0  0  3  0  0  0  0  0  0
  190.0150  176.5290  136.1530 C   0  0  0  0  0  2  0  0  0  0  0  0
  190.0370  176.6400  137.6370 C   0  0  0  0  0  0  0  0  0  0  0  0
  187.9290  177.3210  137.0460 N   0  0  0  0  0  0  0  0  0  0  0  0
  188.8390  177.0980  138.1030 C   0  0  0  0  0  0  0  0  0  0  0  0
  186.6750  178.0460  137.1640 C   0  0  0  0  0  1  0  0  0  0  0  0
  189.6490  177.0220  140.3720 C   0  0  0  0  0  0  0  0  0  0  0  0
  190.8880  176.5460  139.8810 C   0  0  0  0  0  3  0  0  0  0  0  0
  187.8600  175.9600  135.0350 C   0  0  0  0  0  0  0  0  0  0  0  0
  188.2950  174.7810  135.0380 O   0  0  0  0  0  1  0  0  0  0  0  0
  186.6910  176.2630  134.3460 O   0  0  0  0  0  0  0  0  0  0  0  0
  182.5950  179.6800  144.1030 N   0  0  0  0  0  2  0  0  0  0  0  0
  181.6540  179.3020  143.2020 O   0  0  0  0  0  0  0  0  0  0  0  0
  180.7460  178.5320  143.9320 C   0  0  0  0  0  1  0  0  0  0  0  0
  1 18  1  0  0  0  0
  1 11  2  0  0  0  0
  2 13  1  0  0  0  0
  2 16  1  0  0  0  0
  4  6  1  0  0  0  0
  5  1  1  0  0  0  0
  6 11  1  0  0  0  0
  6  8  2  0  0  0  0
  7 12  2  0  0  0  0
  8  7  1  0  0  0  0
  9  5  2  0  0  0  0
  9  4  1  0  0  0  0
 10  3  2  0  0  0  0
 10 12  1  0  0  0  0
 11 10  1  0  0  0  0
 14 32  1  0  0  0  0
 14 13  2  0  0  0  0
 15 14  1  0  0  0  0
 16  3  1  0  0  0  0
 17 15  2  0  0  0  0
 17 18  1  0  0  0  0
 18  2  2  0  0  0  0
 19 28  1  0  0  0  0
 20 27  1  0  0  0  0
 21 29  1  1  0  0  0
 21 22  1  0  0  0  0
 21 24  1  0  0  0  0
 22 23  1  0  0  0  0
 23 25  1  0  0  0  0
 23 19  2  0  0  0  0
 24 26  1  0  0  0  0
 24 25  1  0  0  0  0
 25 20  2  0  0  0  0
 27  9  1  0  0  0  0
 28 27  2  0  0  0  0
 29 30  1  0  0  0  0
 31 29  2  0  0  0  0
 33 34  1  0  0  0  0
 33 32  1  0  0  0  0
M  END
>  <MODEL>
4

>  <REMARK>
 VINA RESULT:      -9.4      3.014      7.066
  Name = 
  4 active torsions:
  status: ('A' for Active; 'I' for Inactive)
    1  A    between atoms: N_3  and  O_13
    2  A    between atoms: N_3  and  C_25
    3  A    between atoms: C_7  and  C_11
    4  A    between atoms: C_18  and  C_30
                            x       y       z     vdW  Elec       q    Type
                         _______ _______ _______ _____ _____    ______ ____

>  <TORSDO>
F 4

$$$$
=
 OpenBabel10272415233D

 34 39  0  0  1  0  0  0  0  0999 V2000
  188.4150  177.5830  142.6120 C   0  0  0  0  0  0  0  0  0  0  0  0
  186.0870  177.7420  143.6700 C   0  0  0  0  0  0  0  0  0  0  0  0
  187.6230  177.2730  145.5360 C   0  0  0  0  0  3  0  0  0  0  0  0
  191.2310  177.3820  142.0450 C   0  0  0  0  0  2  0  0  0  0  0  0
  188.9330  177.3570  141.2860 N   0  0  0  0  0  0  0  0  0  0  0  0
  190.6560  177.4330  143.4260 C   0  0  0  0  0  0  0  0  0  0  0  0
  191.1700  177.5980  145.7790 C   0  0  0  0  0  3  0  0  0  0  0  0
  191.5850  177.5060  144.4620 C   0  0  0  0  0  3  0  0  0  0  0  0
  190.1880  177.2190  140.9870 C   0  0  0  0  0  0  0  0  0  0  0  0
  188.8470  177.5050  145.0600 C   0  0  0  0  0  0  0  0  0  0  0  0
  189.2530  177.5010  143.6860 C   0  0  0  0  0  0  0  0  0  0  0  0
  189.8130  177.5810  146.0690 C   0  0  0  0  0  3  0  0  0  0  0  0
  184.7410  178.1010  143.5310 C   0  0  0  0  0  3  0  0  0  0  0  0
  184.2920  178.7880  142.4020 C   0  0  0  0  0  0  0  0  0  0  0  0
  185.1950  179.1100  141.3930 C   0  0  0  0  0  3  0  0  0  0  0  0
  186.4400  177.0850  144.8360 O   0  0  0  0  0  0  0  0  0  0  0  0
  186.5320  178.7310  141.5140 C   0  0  0  0  0  3  0  0  0  0  0  0
  187.0030  178.0410  142.6470 C   0  0  0  0  0  0  0  0  0  0  0  0
  190.0900  177.1300  137.1880 C   0  0  0  0  0  3  0  0  0  0  0  0
  191.8230  176.3750  139.2860 C   0  0  0  0  0  3  0  0  0  0  0  0
  193.2580  175.5140  135.9910 C   0  0  2  0  0  3  0  0  0  0  0  0
  191.9160  176.1820  135.6120 C   0  0  0  0  0  2  0  0  0  0  0  0
  191.3220  176.5310  136.9320 C   0  0  0  0  0  0  0  0  0  0  0  0
  193.3420  175.5790  137.4500 N   0  0  0  0  0  0  0  0  0  0  0  0
  192.1580  176.1670  137.9470 C   0  0  0  0  0  0  0  0  0  0  0  0
  194.3120  174.8520  138.2510 C   0  0  0  0  0  1  0  0  0  0  0  0
  190.5860  176.9800  139.5840 C   0  0  0  0  0  0  0  0  0  0  0  0
  189.7250  177.3550  138.5250 C   0  0  0  0  0  3  0  0  0  0  0  0
  194.3960  176.2540  135.3680 C   0  0  0  0  0  0  0  0  0  0  0  0
  194.6890  177.4070  135.7770 O   0  0  0  0  0  1  0  0  0  0  0  0
  195.1390  175.6750  134.3460 O   0  0  0  0  0  0  0  0  0  0  0  0
  182.9200  179.1650  142.2680 N   0  0  0  0  0  2  0  0  0  0  0  0
  182.0540  179.0960  143.3090 O   0  0  0  0  0  0  0  0  0  0  0  0
  180.8290  179.5170  142.7870 C   0  0  0  0  0  1  0  0  0  0  0  0
  1 18  1  0  0  0  0
  1 11  2  0  0  0  0
  2 16  1  0  0  0  0
  4  6  1  0  0  0  0
  5  1  1  0  0  0  0
  6 11  1  0  0  0  0
  6  8  2  0  0  0  0
  7 12  2  0  0  0  0
  8  7  1  0  0  0  0
  9  5  2  0  0  0  0
  9  4  1  0  0  0  0
 10  3  2  0  0  0  0
 10 12  1  0  0  0  0
 11 10  1  0  0  0  0
 13  2  1  0  0  0  0
 14 13  2  0  0  0  0
 15 17  2  0  0  0  0
 15 14  1  0  0  0  0
 16  3  1  0  0  0  0
 17 18  1  0  0  0  0
 18  2  2  0  0  0  0
 19 28  1  0  0  0  0
 20 27  1  0  0  0  0
 21 29  1  6  0  0  0
 21 24  1  0  0  0  0
 22 21  1  0  0  0  0
 22 23  1  0  0  0  0
 23 19  2  0  0  0  0
 23 25  1  0  0  0  0
 24 25  1  0  0  0  0
 24 26  1  0  0  0  0
 25 20  2  0  0  0  0
 27  9  1  0  0  0  0
 28 27  2  0  0  0  0
 29 30  1  0  0  0  0
 31 29  2  0  0  0  0
 32 14  1  0  0  0  0
 32 33  1  0  0  0  0
 34 33  1  0  0  0  0
M  END
>  <MODEL>
5

>  <REMARK>
 VINA RESULT:      -9.3      2.236      8.519
  Name = 
  4 active torsions:
  status: ('A' for Active; 'I' for Inactive)
    1  A    between atoms: N_3  and  O_13
    2  A    between atoms: N_3  and  C_25
    3  A    between atoms: C_7  and  C_11
    4  A    between atoms: C_18  and  C_30
                            x       y       z     vdW  Elec       q    Type
                         _______ _______ _______ _____ _____    ______ ____

>  <TORSDO>
F 4

$$$$
=
 OpenBabel10272415233D

 34 39  0  0  1  0  0  0  0  0999 V2000
  186.7080  178.2470  143.7920 C   0  0  0  0  0  0  0  0  0  0  0  0
  187.6180  178.2460  146.1860 C   0  0  0  0  0  0  0  0  0  0  0  0
  185.2930  179.0360  146.3720 C   0  0  0  0  0  3  0  0  0  0  0  0
  185.1150  178.3770  141.3970 C   0  0  0  0  0  2  0  0  0  0  0  0
  187.2810  178.2520  142.4700 N   0  0  0  0  0  0  0  0  0  0  0  0
  184.5660  178.5520  142.7780 C   0  0  0  0  0  0  0  0  0  0  0  0
  182.5560  178.7900  144.0940 C   0  0  0  0  0  3  0  0  0  0  0  0
  183.1800  178.6630  142.8650 C   0  0  0  0  0  3  0  0  0  0  0  0
  186.6090  178.3500  141.3640 C   0  0  0  0  0  0  0  0  0  0  0  0
  184.7210  178.7390  145.2040 C   0  0  0  0  0  0  0  0  0  0  0  0
  185.3790  178.5160  143.9530 C   0  0  0  0  0  0  0  0  0  0  0  0
  183.3260  178.8420  145.2470 C   0  0  0  0  0  3  0  0  0  0  0  0
  188.6290  177.8560  147.0730 C   0  0  0  0  0  3  0  0  0  0  0  0
  189.6440  176.9850  146.6710 C   0  0  0  0  0  0  0  0  0  0  0  0
  189.6560  176.5070  145.3630 C   0  0  0  0  0  3  0  0  0  0  0  0
  186.6440  179.0920  146.6860 O   0  0  0  0  0  0  0  0  0  0  0  0
  188.6650  176.9140  144.4690 C   0  0  0  0  0  3  0  0  0  0  0  0
  187.6340  177.7880  144.8580 C   0  0  0  0  0  0  0  0  0  0  0  0
  189.3600  178.7880  138.7780 C   0  0  0  0  0  3  0  0  0  0  0  0
  186.6680  177.9420  138.8920 C   0  0  0  0  0  3  0  0  0  0  0  0
  187.9640  177.8130  135.4340 C   0  0  2  0  0  3  0  0  0  0  0  0
  189.1890  178.3090  136.2370 C   0  0  0  0  0  2  0  0  0  0  0  0
  188.6810  178.3710  137.6340 C   0  0  0  0  0  0  0  0  0  0  0  0
  186.9030  177.5900  136.4160 N   0  0  0  0  0  0  0  0  0  0  0  0
  187.3800  177.9620  137.6920 C   0  0  0  0  0  0  0  0  0  0  0  0
  185.5070  177.3630  136.0810 C   0  0  0  0  0  1  0  0  0  0  0  0
  187.3230  178.3540  140.0700 C   0  0  0  0  0  0  0  0  0  0  0  0
  188.6720  178.7760  140.0010 C   0  0  0  0  0  3  0  0  0  0  0  0
  188.2940  176.5420  134.7240 C   0  0  0  0  0  0  0  0  0  0  0  0
  189.4940  176.2610  134.4720 O   0  0  0  0  0  1  0  0  0  0  0  0
  187.2860  175.6620  134.3460 O   0  0  0  0  0  0  0  0  0  0  0  0
  190.6680  176.5780  147.5800 N   0  0  0  0  0  2  0  0  0  0  0  0
  191.9760  176.8610  147.3580 O   0  0  0  0  0  0  0  0  0  0  0  0
  192.6760  175.7850  147.9080 C   0  0  0  0  0  1  0  0  0  0  0  0
  1 11  2  0  0  0  0
  1 18  1  0  0  0  0
  2 16  1  0  0  0  0
  2 13  1  0  0  0  0
  3 16  1  0  0  0  0
  4  6  1  0  0  0  0
  5  1  1  0  0  0  0
  6  8  2  0  0  0  0
  6 11  1  0  0  0  0
  7 12  2  0  0  0  0
  8  7  1  0  0  0  0
  9  4  1  0  0  0  0
  9  5  2  0  0  0  0
 10 12  1  0  0  0  0
 10  3  2  0  0  0  0
 11 10  1  0  0  0  0
 14 13  2  0  0  0  0
 14 32  1  0  0  0  0
 15 14  1  0  0  0  0
 17 18  1  0  0  0  0
 17 15  2  0  0  0  0
 18  2  2  0  0  0  0
 19 28  1  0  0  0  0
 20 27  1  0  0  0  0
 21 29  1  1  0  0  0
 21 22  1  0  0  0  0
 21 24  1  0  0  0  0
 22 23  1  0  0  0  0
 23 25  1  0  0  0  0
 23 19  2  0  0  0  0
 24 25  1  0  0  0  0
 25 20  2  0  0  0  0
 26 24  1  0  0  0  0
 27  9  1  0  0  0  0
 28 27  2  0  0  0  0
 30 29  1  0  0  0  0
 31 29  2  0  0  0  0
 33 32  1  0  0  0  0
 33 34  1  0  0  0  0
M  END
>  <MODEL>
6

>  <REMARK>
 VINA RESULT:      -9.3      3.442      6.533
  Name = 
  4 active torsions:
  status: ('A' for Active; 'I' for Inactive)
    1  A    between atoms: N_3  and  O_13
    2  A    between atoms: N_3  and  C_25
    3  A    between atoms: C_7  and  C_11
    4  A    between atoms: C_18  and  C_30
                            x       y       z     vdW  Elec       q    Type
                         _______ _______ _______ _____ _____    ______ ____

>  <TORSDO>
F 4

$$$$
=
 OpenBabel10272415233D

 34 39  0  0  1  0  0  0  0  0999 V2000
  188.4800  177.5760  142.9980 C   0  0  0  0  0  0  0  0  0  0  0  0
  186.0110  177.7730  143.6490 C   0  0  0  0  0  0  0  0  0  0  0  0
  187.2080  177.3240  145.7540 C   0  0  0  0  0  3  0  0  0  0  0  0
  191.3490  177.3420  142.9130 C   0  0  0  0  0  2  0  0  0  0  0  0
  189.2100  177.3230  141.7810 N   0  0  0  0  0  0  0  0  0  0  0  0
  190.5520  177.4220  144.1780 C   0  0  0  0  0  0  0  0  0  0  0  0
  190.6670  177.6220  146.5810 C   0  0  0  0  0  3  0  0  0  0  0  0
  191.2960  177.5050  145.3540 C   0  0  0  0  0  3  0  0  0  0  0  0
  190.4960  177.1700  141.6990 C   0  0  0  0  0  0  0  0  0  0  0  0
  188.4970  177.5360  145.4850 C   0  0  0  0  0  0  0  0  0  0  0  0
  189.1260  177.5060  144.1990 C   0  0  0  0  0  0  0  0  0  0  0  0
  189.2810  177.6220  146.6400 C   0  0  0  0  0  3  0  0  0  0  0  0
  184.7110  178.1410  143.2820 C   0  0  0  0  0  3  0  0  0  0  0  0
  184.4640  178.8130  142.0830 C   0  0  0  0  0  0  0  0  0  0  0  0
  185.5270  179.1090  141.2350 C   0  0  0  0  0  3  0  0  0  0  0  0
  186.1560  177.1330  144.8680 O   0  0  0  0  0  0  0  0  0  0  0  0
  186.8210  178.7210  141.5830 C   0  0  0  0  0  3  0  0  0  0  0  0
  187.0880  178.0470  142.7890 C   0  0  0  0  0  0  0  0  0  0  0  0
  193.0930  176.9490  138.9310 C   0  0  0  0  0  3  0  0  0  0  0  0
  190.3600  176.3590  139.3310 C   0  0  0  0  0  3  0  0  0  0  0  0
  191.4080  175.5590  135.8790 C   0  0  2  0  0  3  0  0  0  0  0  0
  192.7180  176.0770  136.5200 C   0  0  0  0  0  2  0  0  0  0  0  0
  192.3100  176.4090  137.9130 C   0  0  0  0  0  0  0  0  0  0  0  0
  190.4020  175.5890  136.9400 N   0  0  0  0  0  0  0  0  0  0  0  0
  190.9900  176.1240  138.1080 C   0  0  0  0  0  0  0  0  0  0  0  0
  188.9740  175.4270  136.7250 C   0  0  0  0  0  1  0  0  0  0  0  0
  191.1200  176.9030  140.3860 C   0  0  0  0  0  0  0  0  0  0  0  0
  192.4890  177.1950  140.1740 C   0  0  0  0  0  3  0  0  0  0  0  0
  191.5970  174.1660  135.3770 C   0  0  0  0  0  0  0  0  0  0  0  0
  192.4740  173.4290  135.8950 O   0  0  0  0  0  1  0  0  0  0  0  0
  190.8040  173.6750  134.3460 O   0  0  0  0  0  0  0  0  0  0  0  0
  183.1380  179.1980  141.7150 N   0  0  0  0  0  2  0  0  0  0  0  0
  182.0470  178.7040  142.3510 O   0  0  0  0  0  0  0  0  0  0  0  0
  180.9570  179.1950  141.6290 C   0  0  0  0  0  1  0  0  0  0  0  0
  1 11  2  0  0  0  0
  2 16  1  0  0  0  0
  4  6  1  0  0  0  0
  5  1  1  0  0  0  0
  6 11  1  0  0  0  0
  6  8  2  0  0  0  0
  7 12  2  0  0  0  0
  8  7  1  0  0  0  0
  9  5  2  0  0  0  0
  9  4  1  0  0  0  0
 10  3  2  0  0  0  0
 10 12  1  0  0  0  0
 11 10  1  0  0  0  0
 13  2  1  0  0  0  0
 14 13  2  0  0  0  0
 15 17  2  0  0  0  0
 15 14  1  0  0  0  0
 16  3  1  0  0  0  0
 17 18  1  0  0  0  0
 18  1  1  0  0  0  0
 18  2  2  0  0  0  0
 19 28  1  0  0  0  0
 20 27  1  0  0  0  0
 21 29  1  1  0  0  0
 21 22  1  0  0  0  0
 21 24  1  0  0  0  0
 22 23  1  0  0  0  0
 23 25  1  0  0  0  0
 23 19  2  0  0  0  0
 24 25  1  0  0  0  0
 25 20  2  0  0  0  0
 26 24  1  0  0  0  0
 27  9  1  0  0  0  0
 28 27  2  0  0  0  0
 29 30  1  0  0  0  0
 31 29  2  0  0  0  0
 32 14  1  0  0  0  0
 32 33  1  0  0  0  0
 34 33  1  0  0  0  0
M  END
>  <MODEL>
7

>  <REMARK>
 VINA RESULT:      -9.0      2.357      7.945
  Name = 
  4 active torsions:
  status: ('A' for Active; 'I' for Inactive)
    1  A    between atoms: N_3  and  O_13
    2  A    between atoms: N_3  and  C_25
    3  A    between atoms: C_7  and  C_11
    4  A    between atoms: C_18  and  C_30
                            x       y       z     vdW  Elec       q    Type
                         _______ _______ _______ _____ _____    ______ ____

>  <TORSDO>
F 4

$$$$
=
 OpenBabel10272415233D

 34 39  0  0  1  0  0  0  0  0999 V2000
  190.1590  176.7890  138.9040 C   0  0  0  0  0  0  0  0  0  0  0  0
  191.4630  175.8530  136.9090 C   0  0  0  0  0  0  0  0  0  0  0  0
  189.2070  176.3330  136.0470 C   0  0  0  0  0  3  0  0  0  0  0  0
  188.2350  177.9640  140.6950 C   0  0  0  0  0  3  0  0  0  0  0  0
  190.3010  176.7570  140.3380 N   0  0  0  0  0  0  0  0  0  0  0  0
  188.0270  177.8210  139.2200 C   0  0  0  0  0  0  0  0  0  0  0  0
  186.5940  178.3800  137.3590 C   0  0  0  0  0  3  0  0  0  0  0  0
  186.8710  178.4140  138.7150 C   0  0  0  0  0  3  0  0  0  0  0  0
  189.4440  177.2360  141.1860 C   0  0  0  0  0  0  0  0  0  0  0  0
  188.6290  177.1040  136.9690 C   0  0  0  0  0  0  0  0  0  0  0  0
  188.9810  177.2060  138.3530 C   0  0  1  0  0  3  0  0  0  0  0  0
  187.4610  177.7170  136.5030 C   0  0  0  0  0  3  0  0  0  0  0  0
  192.7010  175.4910  136.3620 C   0  0  0  0  0  3  0  0  0  0  0  0
  193.8950  175.7870  137.0240 C   0  0  0  0  0  0  0  0  0  0  0  0
  193.8510  176.4410  138.2510 C   0  0  0  0  0  3  0  0  0  0  0  0
  190.3390  175.5380  136.1670 O   0  0  0  0  0  0  0  0  0  0  0  0
  192.6200  176.7810  138.8120 C   0  0  0  0  0  3  0  0  0  0  0  0
  191.4080  176.4930  138.1580 C   0  0  0  0  0  0  0  0  0  0  0  0
  191.2790  176.7580  144.4800 C   0  0  0  0  0  3  0  0  0  0  0  0
  188.6590  177.2810  143.5650 C   0  0  0  0  0  3  0  0  0  0  0  0
  188.7670  177.0550  147.2520 C   0  0  2  0  0  3  0  0  0  0  0  0
  190.2460  176.8340  146.8550 C   0  0  0  0  0  2  0  0  0  0  0  0
  190.2180  176.9170  145.3690 C   0  0  0  0  0  0  0  0  0  0  0  0
  188.0460  177.2900  146.0020 N   0  0  0  0  0  0  0  0  0  0  0  0
  188.9520  177.1700  144.9250 C   0  0  0  0  0  0  0  0  0  0  0  0
  186.5980  177.2950  145.8750 C   0  0  0  0  0  1  0  0  0  0  0  0
  189.7070  177.1280  142.6360 C   0  0  0  0  0  0  0  0  0  0  0  0
  191.0160  176.8670  143.1050 C   0  0  0  0  0  3  0  0  0  0  0  0
  188.6480  178.2380  148.1550 C   0  0  0  0  0  0  0  0  0  0  0  0
  189.6830  178.7470  148.6570 O   0  0  0  0  0  1  0  0  0  0  0  0
  187.4020  178.7880  148.4360 O   0  0  0  0  0  0  0  0  0  0  0  0
  195.1570  175.4280  136.4590 N   0  0  0  0  0  2  0  0  0  0  0  0
  195.9510  176.3380  135.8430 O   0  0  0  0  0  0  0  0  0  0  0  0
  197.1280  175.6490  135.5460 C   0  0  0  0  0  1  0  0  0  0  0  0
  1  5  2  0  0  0  0
  2 18  1  0  0  0  0
  3 16  1  0  0  0  0
  3 10  2  0  0  0  0
  4  9  2  0  0  0  0
  5  9  1  0  0  0  0
  6  4  1  0  0  0  0
  7  8  1  0  0  0  0
  8  6  2  0  0  0  0
  9 27  1  0  0  0  0
 11 10  1  6  0  0  0
 11  1  1  0  0  0  0
 11  6  1  0  0  0  0
 12 10  1  0  0  0  0
 12  7  2  0  0  0  0
 13  2  2  0  0  0  0
 13 14  1  0  0  0  0
 14 15  2  0  0  0  0
 15 17  1  0  0  0  0
 16  2  1  0  0  0  0
 18 17  2  0  0  0  0
 18  1  1  0  0  0  0
 19 23  1  0  0  0  0
 20 25  1  0  0  0  0
 21 29  1  1  0  0  0
 22 21  1  0  0  0  0
 23 22  1  0  0  0  0
 24 21  1  0  0  0  0
 25 23  2  0  0  0  0
 25 24  1  0  0  0  0
 26 24  1  0  0  0  0
 27 28  1  0  0  0  0
 27 20  2  0  0  0  0
 28 19  2  0  0  0  0
 29 31  2  0  0  0  0
 29 30  1  0  0  0  0
 32 14  1  0  0  0  0
 33 32  1  0  0  0  0
 34 33  1  0  0  0  0
M  END
>  <MODEL>
8

>  <REMARK>
 VINA RESULT:      -8.7      4.172      7.592
  Name = 
  4 active torsions:
  status: ('A' for Active; 'I' for Inactive)
    1  A    between atoms: N_3  and  O_13
    2  A    between atoms: N_3  and  C_25
    3  A    between atoms: C_7  and  C_11
    4  A    between atoms: C_18  and  C_30
                            x       y       z     vdW  Elec       q    Type
                         _______ _______ _______ _____ _____    ______ ____

>  <TORSDO>
F 4

$$$$
=
 OpenBabel10272415233D

 34 39  0  0  1  0  0  0  0  0999 V2000
  189.7330  176.8620  138.3900 C   0  0  0  0  0  0  0  0  0  0  0  0
  191.4510  175.7250  136.8680 C   0  0  0  0  0  0  0  0  0  0  0  0
  189.4500  176.0460  135.4690 C   0  0  0  0  0  3  0  0  0  0  0  0
  187.4600  178.1970  139.5470 C   0  0  0  0  0  3  0  0  0  0  0  0
  189.5490  177.0050  139.8120 N   0  0  0  0  0  0  0  0  0  0  0  0
  187.5900  177.8740  138.0910 C   0  0  0  0  0  0  0  0  0  0  0  0
  186.6170  178.1730  135.9020 C   0  0  0  0  0  3  0  0  0  0  0  0
  186.5810  178.3750  137.2710 C   0  0  0  0  0  3  0  0  0  0  0  0
  188.5240  177.5610  140.3810 C   0  0  0  0  0  0  0  0  0  0  0  0
  188.6810  176.9070  136.1370 C   0  0  0  0  0  0  0  0  0  0  0  0
  188.7130  177.1820  137.5420 C   0  0  1  0  0  3  0  0  0  0  0  0
  187.6510  177.4330  135.3490 C   0  0  0  0  0  3  0  0  0  0  0  0
  192.7790  175.3290  136.6610 C   0  0  0  0  0  3  0  0  0  0  0  0
  193.7930  175.7300  137.5330 C   0  0  0  0  0  0  0  0  0  0  0  0
  193.4770  176.5250  138.6310 C   0  0  0  0  0  3  0  0  0  0  0  0
  190.5220  175.2970  135.9360 O   0  0  0  0  0  0  0  0  0  0  0  0
  192.1520  176.9000  138.8550 C   0  0  0  0  0  3  0  0  0  0  0  0
  191.1170  176.5080  137.9850 C   0  0  0  0  0  0  0  0  0  0  0  0
  187.1170  177.6610  143.9110 C   0  0  0  0  0  3  0  0  0  0  0  0
  189.6290  177.7460  142.6220 C   0  0  0  0  0  3  0  0  0  0  0  0
  189.9990  178.0110  146.2900 C   0  0  2  0  0  3  0  0  0  0  0  0
  188.4680  177.8740  146.1120 C   0  0  0  0  0  2  0  0  0  0  0  0
  188.3020  177.7710  144.6370 C   0  0  0  0  0  0  0  0  0  0  0  0
  190.5680  177.9270  144.9460 N   0  0  0  0  0  0  0  0  0  0  0  0
  189.5150  177.8120  144.0120 C   0  0  0  0  0  0  0  0  0  0  0  0
  191.9440  178.2570  144.6130 C   0  0  0  0  0  1  0  0  0  0  0  0
  188.4520  177.6330  141.8550 C   0  0  0  0  0  0  0  0  0  0  0  0
  187.1990  177.5910  142.5110 C   0  0  0  0  0  3  0  0  0  0  0  0
  190.5180  176.9060  147.1480 C   0  0  0  0  0  0  0  0  0  0  0  0
  189.7590  175.9560  147.4710 O   0  0  0  0  0  0  0  0  0  0  0  0
  191.8380  176.9130  147.5860 O   0  0  0  0  0  1  0  0  0  0  0  0
  195.1490  175.3360  137.3140 N   0  0  0  0  0  2  0  0  0  0  0  0
  195.9650  174.9800  138.3370 O   0  0  0  0  0  0  0  0  0  0  0  0
  195.7560  173.6090  138.5050 C   0  0  0  0  0  1  0  0  0  0  0  0
  1  5  2  0  0  0  0
  2 18  1  0  0  0  0
  3 16  1  0  0  0  0
  3 10  2  0  0  0  0
  4  9  2  0  0  0  0
  5  9  1  0  0  0  0
  6  4  1  0  0  0  0
  7  8  1  0  0  0  0
  8  6  2  0  0  0  0
  9 27  1  0  0  0  0
 11 10  1  6  0  0  0
 11  6  1  0  0  0  0
 11  1  1  0  0  0  0
 12  7  2  0  0  0  0
 12 10  1  0  0  0  0
 13  2  2  0  0  0  0
 13 14  1  0  0  0  0
 14 15  2  0  0  0  0
 15 17  1  0  0  0  0
 16  2  1  0  0  0  0
 18  1  1  0  0  0  0
 18 17  2  0  0  0  0
 19 23  1  0  0  0  0
 20 25  1  0  0  0  0
 21 29  1  1  0  0  0
 22 21  1  0  0  0  0
 23 22  1  0  0  0  0
 24 21  1  0  0  0  0
 25 23  2  0  0  0  0
 25 24  1  0  0  0  0
 26 24  1  0  0  0  0
 27 28  1  0  0  0  0
 27 20  2  0  0  0  0
 28 19  2  0  0  0  0
 29 30  2  0  0  0  0
 29 31  1  0  0  0  0
 32 14  1  0  0  0  0
 32 33  1  0  0  0  0
 33 34  1  0  0  0  0
M  END
>  <MODEL>
9

>  <REMARK>
 VINA RESULT:      -8.5      4.072      7.762
  Name = 
  4 active torsions:
  status: ('A' for Active; 'I' for Inactive)
    1  A    between atoms: N_3  and  O_13
    2  A    between atoms: N_3  and  C_25
    3  A    between atoms: C_7  and  C_11
    4  A    between atoms: C_18  and  C_30
                            x       y       z     vdW  Elec       q    Type
                         _______ _______ _______ _____ _____    ______ ____

>  <TORSDO>
F 4

$$$$
