=
 OpenBabel10272400153D

 31 35  0  0  1  0  0  0  0  0999 V2000
  184.9460  178.5650  144.5310 C   0  0  0  0  0  0  0  0  0  0  0  0
  188.4650  177.7770  143.4080 C   0  0  0  0  0  0  0  0  0  0  0  0
  189.2470  177.5650  144.6010 C   0  0  0  0  0  0  0  0  0  0  0  0
  189.3550  177.6220  147.2040 C   0  0  0  0  0  2  0  0  0  0  0  0
  187.0620  178.0790  143.4020 C   0  0  0  0  0  0  0  0  0  0  0  0
  184.3010  178.6860  143.3020 C   0  0  0  0  0  3  0  0  0  0  0  0
  188.5380  177.4110  145.9380 C   0  0  0  0  0  2  0  0  0  0  0  0
  188.3900  177.8400  140.9500 C   0  0  0  0  0  0  0  0  0  0  0  0
  184.1840  178.7500  145.7930 C   0  0  0  0  0  1  0  0  0  0  0  0
  191.2410  177.2850  143.2140 C   0  0  0  0  0  3  0  0  0  0  0  0
  190.2100  176.4830  147.4090 N   0  0  0  0  0  0  0  0  0  0  0  0
  187.0610  178.0970  140.9960 N   0  0  0  0  0  0  0  0  0  0  0  0
  189.1150  177.6850  142.1430 C   0  0  0  0  0  0  0  0  0  0  0  0
  189.0470  177.7250  139.6820 N   0  0  0  0  0  2  0  0  0  0  0  0
  186.3090  178.2690  144.5750 C   0  0  0  0  0  3  0  0  0  0  0  0
  191.2470  176.2910  146.6750 C   0  0  0  0  0  3  0  0  0  0  0  0
  186.3880  178.2250  142.1620 C   0  0  0  0  0  0  0  0  0  0  0  0
  185.0220  178.5180  142.1210 C   0  0  0  0  0  3  0  0  0  0  0  0
  190.4850  177.4410  142.0670 C   0  0  0  0  0  3  0  0  0  0  0  0
  190.6530  177.3350  144.4710 C   0  0  0  0  0  0  0  0  0  0  0  0
  191.6290  177.2730  145.6120 C   0  0  0  0  0  2  0  0  0  0  0  0
  189.2200  178.7230  137.4680 C   0  0  0  0  0  1  0  0  0  0  0  0
  188.3560  177.9080  138.4140 C   0  0  1  0  0  3  0  0  0  0  0  0
  188.0810  176.6070  137.8240 N   0  0  0  0  0  2  0  0  0  0  0  0
  189.2140  176.2060  137.1450 O   0  0  0  0  0  0  0  0  0  0  0  0
  189.1470  173.8990  137.1430 O   0  0  0  0  0  0  0  0  0  0  0  0
  189.7960  174.9550  137.3710 C   0  0  0  0  0  0  0  0  0  0  0  0
  191.1300  174.8630  137.8650 N   0  0  0  0  0  2  0  0  0  0  0  0
  193.3900  175.6800  138.1340 C   0  0  0  0  0  2  0  0  0  0  0  0
  192.7790  176.3650  136.9320 C   0  0  0  0  0  2  0  0  0  0  0  0
  191.9210  176.0510  138.1410 C   0  0  0  0  0  3  0  0  0  0  0  0
  1 15  1  0  0  0  0
  1  9  1  0  0  0  0
  2  3  1  0  0  0  0
  3  7  1  0  0  0  0
  4 11  1  0  0  0  0
  5  2  1  0  0  0  0
  5 15  2  0  0  0  0
  6  1  2  0  0  0  0
  7  4  1  0  0  0  0
  8 12  2  0  0  0  0
  8 13  1  0  0  0  0
 10 20  1  0  0  0  0
 12 17  1  0  0  0  0
 13  2  2  0  0  0  0
 14  8  1  0  0  0  0
 16 11  2  0  0  0  0
 17  5  1  0  0  0  0
 18 17  2  0  0  0  0
 18  6  1  0  0  0  0
 19 13  1  0  0  0  0
 19 10  2  0  0  0  0
 20  3  2  0  0  0  0
 20 21  1  0  0  0  0
 21 16  1  0  0  0  0
 23 22  1  6  0  0  0
 23 14  1  0  0  0  0
 24 23  1  0  0  0  0
 25 27  1  0  0  0  0
 25 24  1  0  0  0  0
 26 27  2  0  0  0  0
 27 28  1  0  0  0  0
 28 31  1  0  0  0  0
 29 31  1  0  0  0  0
 30 29  1  0  0  0  0
 30 31  1  0  0  0  0
M  END
>  <MODEL>
1

>  <REMARK>
 VINA RESULT:      -9.7      0.000      0.000
  Name = 
  5 active torsions:
  status: ('A' for Active; 'I' for Inactive)
    1  A    between atoms: O_3  and  C_19
    2  A    between atoms: O_3  and  N_22
    3  A    between atoms: C_9  and  N_22
    4  A    between atoms: C_9  and  N_23
    5  A    between atoms: C_11  and  N_24
                            x       y       z     vdW  Elec       q    Type
                         _______ _______ _______ _____ _____    ______ ____

>  <TORSDO>
F 5

$$$$
=
 OpenBabel10272400153D

 31 35  0  0  1  0  0  0  0  0999 V2000
  190.5950  176.9190  145.3020 C   0  0  0  0  0  0  0  0  0  0  0  0
  187.6250  177.9840  143.2280 C   0  0  0  0  0  0  0  0  0  0  0  0
  186.5000  178.0810  144.1260 C   0  0  0  0  0  0  0  0  0  0  0  0
  185.5610  177.7100  146.5270 C   0  0  0  0  0  2  0  0  0  0  0  0
  188.9550  177.6270  143.6310 C   0  0  0  0  0  0  0  0  0  0  0  0
  191.6020  176.9230  144.3390 C   0  0  0  0  0  3  0  0  0  0  0  0
  186.7410  178.0410  145.6270 C   0  0  0  0  0  2  0  0  0  0  0  0
  188.4870  178.2200  140.9360 C   0  0  0  0  0  0  0  0  0  0  0  0
  190.9110  176.5500  146.7060 C   0  0  0  0  0  1  0  0  0  0  0  0
  185.0590  178.6120  142.2230 C   0  0  0  0  0  3  0  0  0  0  0  0
  184.6850  178.8500  146.5940 N   0  0  0  0  0  0  0  0  0  0  0  0
  189.7310  177.9050  141.3700 N   0  0  0  0  0  0  0  0  0  0  0  0
  187.4170  178.2580  141.8450 C   0  0  0  0  0  0  0  0  0  0  0  0
  188.2730  178.5170  139.5500 N   0  0  0  0  0  2  0  0  0  0  0  0
  189.2910  177.2650  144.9480 C   0  0  0  0  0  3  0  0  0  0  0  0
  183.9390  179.1730  145.5990 C   0  0  0  0  0  3  0  0  0  0  0  0
  189.9920  177.6070  142.6630 C   0  0  0  0  0  0  0  0  0  0  0  0
  191.2990  177.2640  143.0220 C   0  0  0  0  0  3  0  0  0  0  0  0
  186.1440  178.5670  141.3670 C   0  0  0  0  0  3  0  0  0  0  0  0
  185.2110  178.3830  143.5850 C   0  0  0  0  0  0  0  0  0  0  0  0
  183.9200  178.3460  144.3520 C   0  0  0  0  0  2  0  0  0  0  0  0
  189.6370  177.0170  138.2030 C   0  0  0  0  0  1  0  0  0  0  0  0
  189.3350  178.4630  138.5570 C   0  0  1  0  0  3  0  0  0  0  0  0
  188.9140  179.1790  137.3620 N   0  0  0  0  0  2  0  0  0  0  0  0
  187.5410  179.0690  137.2690 O   0  0  0  0  0  0  0  0  0  0  0  0
  187.4630  178.0870  135.1830 O   0  0  0  0  0  0  0  0  0  0  0  0
  186.9380  178.2410  136.3180 C   0  0  0  0  0  0  0  0  0  0  0  0
  185.7210  177.5650  136.6230 N   0  0  0  0  0  2  0  0  0  0  0  0
  183.6200  178.0660  137.7120 C   0  0  0  0  0  2  0  0  0  0  0  0
  184.0060  176.6460  138.0590 C   0  0  0  0  0  2  0  0  0  0  0  0
  185.0780  177.7070  137.9190 C   0  0  0  0  0  3  0  0  0  0  0  0
  1  9  1  0  0  0  0
  2  5  1  0  0  0  0
  2  3  1  0  0  0  0
  3  7  1  0  0  0  0
  4 11  1  0  0  0  0
  5 15  2  0  0  0  0
  6  1  2  0  0  0  0
  7  4  1  0  0  0  0
  8 12  2  0  0  0  0
  8 13  1  0  0  0  0
 10 20  1  0  0  0  0
 12 17  1  0  0  0  0
 13  2  2  0  0  0  0
 14  8  1  0  0  0  0
 15  1  1  0  0  0  0
 16 11  2  0  0  0  0
 17 18  2  0  0  0  0
 17  5  1  0  0  0  0
 18  6  1  0  0  0  0
 19 13  1  0  0  0  0
 19 10  2  0  0  0  0
 20  3  2  0  0  0  0
 20 21  1  0  0  0  0
 21 16  1  0  0  0  0
 23 22  1  6  0  0  0
 23 14  1  0  0  0  0
 24 23  1  0  0  0  0
 25 24  1  0  0  0  0
 26 27  2  0  0  0  0
 27 28  1  0  0  0  0
 27 25  1  0  0  0  0
 28 31  1  0  0  0  0
 29 31  1  0  0  0  0
 29 30  1  0  0  0  0
 31 30  1  0  0  0  0
M  END
>  <MODEL>
2

>  <REMARK>
 VINA RESULT:      -9.6      2.286      5.213
  Name = 
  5 active torsions:
  status: ('A' for Active; 'I' for Inactive)
    1  A    between atoms: O_3  and  C_19
    2  A    between atoms: O_3  and  N_22
    3  A    between atoms: C_9  and  N_22
    4  A    between atoms: C_9  and  N_23
    5  A    between atoms: C_11  and  N_24
                            x       y       z     vdW  Elec       q    Type
                         _______ _______ _______ _____ _____    ______ ____

>  <TORSDO>
F 5

$$$$
=
 OpenBabel10272400153D

 31 35  0  0  1  0  0  0  0  0999 V2000
  184.9590  178.5200  144.6480 C   0  0  0  0  0  0  0  0  0  0  0  0
  188.4570  177.7820  143.4310 C   0  0  0  0  0  0  0  0  0  0  0  0
  189.2710  177.5660  144.6030 C   0  0  0  0  0  0  0  0  0  0  0  0
  189.4420  177.5970  147.2020 C   0  0  0  0  0  2  0  0  0  0  0  0
  187.0520  178.0690  143.4630 C   0  0  0  0  0  0  0  0  0  0  0  0
  184.2830  178.6470  143.4360 C   0  0  0  0  0  3  0  0  0  0  0  0
  188.5970  177.3900  145.9550 C   0  0  0  0  0  2  0  0  0  0  0  0
  188.3220  177.8700  140.9770 C   0  0  0  0  0  0  0  0  0  0  0  0
  184.2260  178.6840  145.9300 C   0  0  0  0  0  1  0  0  0  0  0  0
  191.2330  177.3220  143.1640 C   0  0  0  0  0  3  0  0  0  0  0  0
  190.3140  176.4650  147.3740 N   0  0  0  0  0  0  0  0  0  0  0  0
  186.9910  178.1110  141.0580 N   0  0  0  0  0  0  0  0  0  0  0  0
  189.0770  177.7100  142.1500 C   0  0  0  0  0  0  0  0  0  0  0  0
  188.9490  177.7750  139.6910 N   0  0  0  0  0  2  0  0  0  0  0  0
  186.3260  178.2380  144.6560 C   0  0  0  0  0  3  0  0  0  0  0  0
  191.3350  176.2920  146.6130 C   0  0  0  0  0  3  0  0  0  0  0  0
  186.3460  178.2200  142.2410 C   0  0  0  0  0  0  0  0  0  0  0  0
  184.9760  178.4990  142.2370 C   0  0  0  0  0  3  0  0  0  0  0  0
  190.4470  177.4810  142.0370 C   0  0  0  0  0  3  0  0  0  0  0  0
  190.6760  177.3530  144.4360 C   0  0  0  0  0  0  0  0  0  0  0  0
  191.6800  177.2890  145.5510 C   0  0  0  0  0  2  0  0  0  0  0  0
  189.0500  178.8110  137.4910 C   0  0  0  0  0  1  0  0  0  0  0  0
  188.2250  177.9630  138.4430 C   0  0  1  0  0  3  0  0  0  0  0  0
  187.9620  176.6660  137.8380 N   0  0  0  0  0  2  0  0  0  0  0  0
  186.6270  176.6280  137.4900 O   0  0  0  0  0  0  0  0  0  0  0  0
  186.5460  176.7100  135.1860 O   0  0  0  0  0  0  0  0  0  0  0  0
  186.2090  176.1310  136.2530 C   0  0  0  0  0  0  0  0  0  0  0  0
  185.3940  174.9620  136.1870 N   0  0  0  0  0  2  0  0  0  0  0  0
  184.4930  172.8740  137.0060 C   0  0  0  0  0  2  0  0  0  0  0  0
  185.8780  173.0510  137.5860 C   0  0  0  0  0  2  0  0  0  0  0  0
  184.9810  174.2560  137.3880 C   0  0  0  0  0  3  0  0  0  0  0  0
  1 15  1  0  0  0  0
  1  9  1  0  0  0  0
  2  5  1  0  0  0  0
  2  3  1  0  0  0  0
  3  7  1  0  0  0  0
  4 11  1  0  0  0  0
  5 15  2  0  0  0  0
  6  1  2  0  0  0  0
  7  4  1  0  0  0  0
  8 12  2  0  0  0  0
  8 13  1  0  0  0  0
 10 20  1  0  0  0  0
 12 17  1  0  0  0  0
 13  2  2  0  0  0  0
 14  8  1  0  0  0  0
 16 11  2  0  0  0  0
 17  5  1  0  0  0  0
 18 17  2  0  0  0  0
 18  6  1  0  0  0  0
 19 13  1  0  0  0  0
 19 10  2  0  0  0  0
 20  3  2  0  0  0  0
 20 21  1  0  0  0  0
 21 16  1  0  0  0  0
 23 22  1  6  0  0  0
 23 14  1  0  0  0  0
 24 23  1  0  0  0  0
 25 24  1  0  0  0  0
 26 27  2  0  0  0  0
 27 25  1  0  0  0  0
 28 27  1  0  0  0  0
 28 31  1  0  0  0  0
 29 31  1  0  0  0  0
 29 30  1  0  0  0  0
 31 30  1  0  0  0  0
M  END
>  <MODEL>
3

>  <REMARK>
 VINA RESULT:      -9.3      1.957      2.985
  Name = 
  5 active torsions:
  status: ('A' for Active; 'I' for Inactive)
    1  A    between atoms: O_3  and  C_19
    2  A    between atoms: O_3  and  N_22
    3  A    between atoms: C_9  and  N_22
    4  A    between atoms: C_9  and  N_23
    5  A    between atoms: C_11  and  N_24
                            x       y       z     vdW  Elec       q    Type
                         _______ _______ _______ _____ _____    ______ ____

>  <TORSDO>
F 5

$$$$
=
 OpenBabel10272400153D

 31 35  0  0  1  0  0  0  0  0999 V2000
  190.8800  177.2140  141.9990 C   0  0  0  0  0  0  0  0  0  0  0  0
  187.8440  177.7280  144.1840 C   0  0  0  0  0  0  0  0  0  0  0  0
  188.2900  177.6280  145.5520 C   0  0  0  0  0  0  0  0  0  0  0  0
  190.2400  177.1080  147.2000 C   0  0  0  0  0  2  0  0  0  0  0  0
  188.7020  177.6130  143.0410 C   0  0  0  0  0  0  0  0  0  0  0  0
  190.3250  177.3910  140.7340 C   0  0  0  0  0  3  0  0  0  0  0  0
  189.7820  177.6380  145.8500 C   0  0  0  0  0  2  0  0  0  0  0  0
  185.9780  178.1020  142.6240 C   0  0  0  0  0  0  0  0  0  0  0  0
  192.3280  176.9120  142.1400 C   0  0  0  0  0  1  0  0  0  0  0  0
  185.9770  177.8870  146.3000 C   0  0  0  0  0  3  0  0  0  0  0  0
  189.9250  178.0760  148.2180 N   0  0  0  0  0  0  0  0  0  0  0  0
  186.8350  178.0130  141.5780 N   0  0  0  0  0  0  0  0  0  0  0  0
  186.4580  177.9540  143.9360 C   0  0  0  0  0  0  0  0  0  0  0  0
  184.5870  178.3500  142.3840 N   0  0  0  0  0  2  0  0  0  0  0  0
  190.0760  177.3220  143.1340 C   0  0  0  0  0  3  0  0  0  0  0  0
  188.7150  178.2580  148.6090 C   0  0  0  0  0  3  0  0  0  0  0  0
  188.1550  177.7720  141.7420 C   0  0  0  0  0  0  0  0  0  0  0  0
  188.9650  177.6670  140.6070 C   0  0  0  0  0  3  0  0  0  0  0  0
  185.5520  178.0310  144.9920 C   0  0  0  0  0  3  0  0  0  0  0  0
  187.3190  177.6960  146.6000 C   0  0  0  0  0  0  0  0  0  0  0  0
  187.5950  177.4340  148.0540 C   0  0  0  0  0  2  0  0  0  0  0  0
  182.5430  178.7870  141.1370 C   0  0  0  0  0  1  0  0  0  0  0  0
  184.0270  178.4790  141.0470 C   0  0  1  0  0  3  0  0  0  0  0  0
  184.7070  179.5560  140.3420 N   0  0  0  0  0  2  0  0  0  0  0  0
  184.5310  179.3480  138.9880 O   0  0  0  0  0  0  0  0  0  0  0  0
  186.5480  178.5620  138.1910 O   0  0  0  0  0  0  0  0  0  0  0  0
  185.3000  178.4150  138.2870 C   0  0  0  0  0  0  0  0  0  0  0  0
  184.6780  177.2900  137.6710 N   0  0  0  0  0  2  0  0  0  0  0  0
  182.9010  175.7540  137.0960 C   0  0  0  0  0  2  0  0  0  0  0  0
  182.9760  175.8480  138.6030 C   0  0  0  0  0  2  0  0  0  0  0  0
  183.2430  177.0750  137.7560 C   0  0  0  0  0  3  0  0  0  0  0  0
  1  9  1  0  0  0  0
  1 15  1  0  0  0  0
  2  3  1  0  0  0  0
  3  7  1  0  0  0  0
  3 20  2  0  0  0  0
  4 11  1  0  0  0  0
  5 15  2  0  0  0  0
  5  2  1  0  0  0  0
  6  1  2  0  0  0  0
  7  4  1  0  0  0  0
  8 13  1  0  0  0  0
 10 20  1  0  0  0  0
 11 16  2  0  0  0  0
 12 17  1  0  0  0  0
 12  8  2  0  0  0  0
 13  2  2  0  0  0  0
 13 19  1  0  0  0  0
 14  8  1  0  0  0  0
 17  5  1  0  0  0  0
 18  6  1  0  0  0  0
 18 17  2  0  0  0  0
 19 10  2  0  0  0  0
 20 21  1  0  0  0  0
 21 16  1  0  0  0  0
 23 22  1  1  0  0  0
 23 14  1  0  0  0  0
 24 23  1  0  0  0  0
 25 24  1  0  0  0  0
 26 27  2  0  0  0  0
 27 25  1  0  0  0  0
 28 31  1  0  0  0  0
 28 27  1  0  0  0  0
 29 31  1  0  0  0  0
 29 30  1  0  0  0  0
 31 30  1  0  0  0  0
M  END
>  <MODEL>
4

>  <REMARK>
 VINA RESULT:      -9.2      2.660      5.491
  Name = 
  5 active torsions:
  status: ('A' for Active; 'I' for Inactive)
    1  A    between atoms: O_3  and  C_19
    2  A    between atoms: O_3  and  N_22
    3  A    between atoms: C_9  and  N_22
    4  A    between atoms: C_9  and  N_23
    5  A    between atoms: C_11  and  N_24
                            x       y       z     vdW  Elec       q    Type
                         _______ _______ _______ _____ _____    ______ ____

>  <TORSDO>
F 5

$$$$
=
 OpenBabel10272400153D

 31 35  0  0  1  0  0  0  0  0999 V2000
  190.6590  177.3360  141.6530 C   0  0  0  0  0  0  0  0  0  0  0  0
  187.2220  178.1170  143.0080 C   0  0  0  0  0  0  0  0  0  0  0  0
  187.2810  177.9250  144.4370 C   0  0  0  0  0  0  0  0  0  0  0  0
  188.6680  177.1380  146.4970 C   0  0  0  0  0  2  0  0  0  0  0  0
  188.3360  177.9430  142.1210 C   0  0  0  0  0  0  0  0  0  0  0  0
  190.4770  177.6150  140.3000 C   0  0  0  0  0  3  0  0  0  0  0  0
  188.6350  177.7580  145.1090 C   0  0  0  0  0  2  0  0  0  0  0  0
  185.8800  178.7470  141.0450 C   0  0  0  0  0  0  0  0  0  0  0  0
  191.9820  176.8700  142.1450 C   0  0  0  0  0  1  0  0  0  0  0  0
  184.8910  178.4180  144.5770 C   0  0  0  0  0  3  0  0  0  0  0  0
  188.1950  178.1020  147.4560 N   0  0  0  0  0  0  0  0  0  0  0  0
  186.9680  178.5970  140.2520 N   0  0  0  0  0  0  0  0  0  0  0  0
  185.9810  178.5050  142.4250 C   0  0  0  0  0  0  0  0  0  0  0  0
  184.6330  179.1570  140.4700 N   0  0  0  0  0  2  0  0  0  0  0  0
  189.6000  177.4970  142.5470 C   0  0  0  0  0  3  0  0  0  0  0  0
  186.9480  178.4050  147.5320 C   0  0  0  0  0  3  0  0  0  0  0  0
  188.1680  178.2040  140.7360 C   0  0  0  0  0  0  0  0  0  0  0  0
  189.2320  178.0450  139.8440 C   0  0  0  0  0  3  0  0  0  0  0  0
  184.8410  178.6490  143.2150 C   0  0  0  0  0  3  0  0  0  0  0  0
  186.0810  178.0670  145.2010 C   0  0  0  0  0  0  0  0  0  0  0  0
  185.9380  177.7310  146.6580 C   0  0  0  0  0  2  0  0  0  0  0  0
  183.8910  178.1470  138.3820 C   0  0  0  0  0  1  0  0  0  0  0  0
  184.4590  179.3910  139.0440 C   0  0  1  0  0  3  0  0  0  0  0  0
  183.5470  180.5080  138.8460 N   0  0  0  0  0  2  0  0  0  0  0  0
  182.2850  179.9870  138.6390 O   0  0  0  0  0  0  0  0  0  0  0  0
  180.6410  181.6030  138.7430 O   0  0  0  0  0  0  0  0  0  0  0  0
  181.1550  180.5600  139.2290 C   0  0  0  0  0  0  0  0  0  0  0  0
  180.5730  179.9690  140.3890 N   0  0  0  0  0  2  0  0  0  0  0  0
  181.0450  178.8770  142.4940 C   0  0  0  0  0  2  0  0  0  0  0  0
  180.0320  178.0420  141.7450 C   0  0  0  0  0  2  0  0  0  0  0  0
  181.1250  178.7640  140.9850 C   0  0  0  0  0  3  0  0  0  0  0  0
  1  9  1  0  0  0  0
  1 15  1  0  0  0  0
  2  3  1  0  0  0  0
  3  7  1  0  0  0  0
  3 20  2  0  0  0  0
  4 11  1  0  0  0  0
  5 15  2  0  0  0  0
  5  2  1  0  0  0  0
  6  1  2  0  0  0  0
  7  4  1  0  0  0  0
  8 13  1  0  0  0  0
 10 20  1  0  0  0  0
 11 16  2  0  0  0  0
 12 17  1  0  0  0  0
 12  8  2  0  0  0  0
 13  2  2  0  0  0  0
 13 19  1  0  0  0  0
 14  8  1  0  0  0  0
 17  5  1  0  0  0  0
 18  6  1  0  0  0  0
 18 17  2  0  0  0  0
 19 10  2  0  0  0  0
 20 21  1  0  0  0  0
 21 16  1  0  0  0  0
 23 22  1  6  0  0  0
 23 14  1  0  0  0  0
 24 23  1  0  0  0  0
 25 24  1  0  0  0  0
 25 27  1  0  0  0  0
 26 27  2  0  0  0  0
 27 28  1  0  0  0  0
 28 31  1  0  0  0  0
 30 29  1  0  0  0  0
 31 30  1  0  0  0  0
 31 29  1  0  0  0  0
M  END
>  <MODEL>
5

>  <REMARK>
 VINA RESULT:      -9.1      3.497      6.878
  Name = 
  5 active torsions:
  status: ('A' for Active; 'I' for Inactive)
    1  A    between atoms: O_3  and  C_19
    2  A    between atoms: O_3  and  N_22
    3  A    between atoms: C_9  and  N_22
    4  A    between atoms: C_9  and  N_23
    5  A    between atoms: C_11  and  N_24
                            x       y       z     vdW  Elec       q    Type
                         _______ _______ _______ _____ _____    ______ ____

>  <TORSDO>
F 5

$$$$
=
 OpenBabel10272400153D

 31 35  0  0  1  0  0  0  0  0999 V2000
  184.7480  178.7100  143.6500 C   0  0  0  0  0  0  0  0  0  0  0  0
  188.3740  177.7780  143.1540 C   0  0  0  0  0  0  0  0  0  0  0  0
  188.9390  177.5810  144.4660 C   0  0  0  0  0  0  0  0  0  0  0  0
  188.6140  177.7210  147.0480 C   0  0  0  0  0  2  0  0  0  0  0  0
  187.0040  178.1230  142.9050 C   0  0  0  0  0  0  0  0  0  0  0  0
  184.3210  178.8100  142.3280 C   0  0  0  0  0  3  0  0  0  0  0  0
  188.0130  177.4930  145.6690 C   0  0  0  0  0  2  0  0  0  0  0  0
  188.7110  177.7620  140.7170 C   0  0  0  0  0  0  0  0  0  0  0  0
  183.7940  178.9590  144.7610 C   0  0  0  0  0  1  0  0  0  0  0  0
  191.1240  177.1950  143.4400 C   0  0  0  0  0  3  0  0  0  0  0  0
  189.3830  176.5630  147.4240 N   0  0  0  0  0  0  0  0  0  0  0  0
  187.4030  178.0610  140.5330 N   0  0  0  0  0  0  0  0  0  0  0  0
  189.2220  177.6240  142.0180 C   0  0  0  0  0  0  0  0  0  0  0  0
  189.5650  177.5850  139.5800 N   0  0  0  0  0  2  0  0  0  0  0  0
  186.0730  178.3730  143.9300 C   0  0  0  0  0  3  0  0  0  0  0  0
  190.5200  176.3160  146.8790 C   0  0  0  0  0  3  0  0  0  0  0  0
  186.5510  178.2470  141.5660 C   0  0  0  0  0  0  0  0  0  0  0  0
  185.2220  178.5810  141.2890 C   0  0  0  0  0  3  0  0  0  0  0  0
  190.5760  177.3360  142.1790 C   0  0  0  0  0  3  0  0  0  0  0  0
  190.3380  177.3040  144.5790 C   0  0  0  0  0  0  0  0  0  0  0  0
  191.1080  177.2500  145.8680 C   0  0  0  0  0  2  0  0  0  0  0  0
  188.9750  179.2240  137.8790 C   0  0  0  0  0  1  0  0  0  0  0  0
  189.1020  177.7470  138.2100 C   0  0  1  0  0  3  0  0  0  0  0  0
  190.0540  177.1240  137.3020 N   0  0  0  0  0  2  0  0  0  0  0  0
  189.5250  175.9120  136.9070 O   0  0  0  0  0  0  0  0  0  0  0  0
  191.0810  174.6900  138.0930 O   0  0  0  0  0  0  0  0  0  0  0  0
  190.0580  174.7010  137.3570 C   0  0  0  0  0  0  0  0  0  0  0  0
  189.4510  173.4670  136.9840 N   0  0  0  0  0  2  0  0  0  0  0  0
  187.6590  172.0420  136.2060 C   0  0  0  0  0  2  0  0  0  0  0  0
  187.0510  173.1730  137.0040 C   0  0  0  0  0  2  0  0  0  0  0  0
  188.2690  173.4270  136.1390 C   0  0  0  0  0  3  0  0  0  0  0  0
  1 15  1  0  0  0  0
  1  9  1  0  0  0  0
  2  3  1  0  0  0  0
  3 20  2  0  0  0  0
  3  7  1  0  0  0  0
  4 11  1  0  0  0  0
  5  2  1  0  0  0  0
  5 15  2  0  0  0  0
  6  1  2  0  0  0  0
  7  4  1  0  0  0  0
  8 13  1  0  0  0  0
 10 20  1  0  0  0  0
 12  8  2  0  0  0  0
 12 17  1  0  0  0  0
 13 19  1  0  0  0  0
 13  2  2  0  0  0  0
 14  8  1  0  0  0  0
 16 11  2  0  0  0  0
 17  5  1  0  0  0  0
 18 17  2  0  0  0  0
 18  6  1  0  0  0  0
 19 10  2  0  0  0  0
 20 21  1  0  0  0  0
 21 16  1  0  0  0  0
 23 22  1  6  0  0  0
 23 14  1  0  0  0  0
 24 23  1  0  0  0  0
 25 24  1  0  0  0  0
 25 27  1  0  0  0  0
 27 26  2  0  0  0  0
 28 27  1  0  0  0  0
 29 30  1  0  0  0  0
 31 29  1  0  0  0  0
 31 28  1  0  0  0  0
 31 30  1  0  0  0  0
M  END
>  <MODEL>
6

>  <REMARK>
 VINA RESULT:      -8.9      1.344      2.144
  Name = 
  5 active torsions:
  status: ('A' for Active; 'I' for Inactive)
    1  A    between atoms: O_3  and  C_19
    2  A    between atoms: O_3  and  N_22
    3  A    between atoms: C_9  and  N_22
    4  A    between atoms: C_9  and  N_23
    5  A    between atoms: C_11  and  N_24
                            x       y       z     vdW  Elec       q    Type
                         _______ _______ _______ _____ _____    ______ ____

>  <TORSDO>
F 5

$$$$
=
 OpenBabel10272400153D

 31 35  0  0  1  0  0  0  0  0999 V2000
  189.8520  177.3960  141.8540 C   0  0  0  0  0  0  0  0  0  0  0  0
  186.3800  178.3510  142.9920 C   0  0  0  0  0  0  0  0  0  0  0  0
  186.3530  178.2000  144.4270 C   0  0  0  0  0  0  0  0  0  0  0  0
  187.5920  177.4230  146.5830 C   0  0  0  0  0  2  0  0  0  0  0  0
  187.5320  178.1070  142.1730 C   0  0  0  0  0  0  0  0  0  0  0  0
  189.7540  177.6400  140.4860 C   0  0  0  0  0  3  0  0  0  0  0  0
  187.6610  178.0020  145.1780 C   0  0  0  0  0  2  0  0  0  0  0  0
  185.1730  178.9730  140.9400 C   0  0  0  0  0  0  0  0  0  0  0  0
  191.1250  176.8940  142.4310 C   0  0  0  0  0  1  0  0  0  0  0  0
  183.9800  178.7900  144.4190 C   0  0  0  0  0  3  0  0  0  0  0  0
  187.1060  178.4340  147.4860 N   0  0  0  0  0  0  0  0  0  0  0  0
  186.2960  178.7560  140.2140 N   0  0  0  0  0  0  0  0  0  0  0  0
  185.1890  178.7690  142.3300 C   0  0  0  0  0  0  0  0  0  0  0  0
  183.9770  179.4130  140.2850 N   0  0  0  0  0  2  0  0  0  0  0  0
  188.7520  177.6250  142.6820 C   0  0  0  0  0  3  0  0  0  0  0  0
  185.8710  178.7880  147.4840 C   0  0  0  0  0  3  0  0  0  0  0  0
  187.4510  178.3320  140.7750 C   0  0  0  0  0  0  0  0  0  0  0  0
  188.5550  178.1050  139.9490 C   0  0  0  0  0  3  0  0  0  0  0  0
  184.0150  178.9810  143.0510 C   0  0  0  0  0  3  0  0  0  0  0  0
  185.1190  178.4130  145.1190 C   0  0  0  0  0  0  0  0  0  0  0  0
  184.8830  178.1260  146.5740 C   0  0  0  0  0  2  0  0  0  0  0  0
  184.4260  178.3850  138.1240 C   0  0  0  0  0  1  0  0  0  0  0  0
  183.8910  179.6100  138.8450 C   0  0  1  0  0  3  0  0  0  0  0  0
  182.5020  179.8280  138.4710 N   0  0  0  0  0  2  0  0  0  0  0  0
  182.2290  181.1710  138.6370 O   0  0  0  0  0  0  0  0  0  0  0  0
  180.2410  181.1680  139.8080 O   0  0  0  0  0  0  0  0  0  0  0  0
  180.9260  181.6290  138.8570 C   0  0  0  0  0  0  0  0  0  0  0  0
  180.3610  182.6200  138.0020 N   0  0  0  0  0  2  0  0  0  0  0  0
  180.5070  184.5210  136.5150 C   0  0  0  0  0  2  0  0  0  0  0  0
  181.7690  184.4730  137.3460 C   0  0  0  0  0  2  0  0  0  0  0  0
  181.1120  183.1850  136.8940 C   0  0  0  0  0  3  0  0  0  0  0  0
  1  9  1  0  0  0  0
  1 15  1  0  0  0  0
  2  3  1  0  0  0  0
  3 20  2  0  0  0  0
  3  7  1  0  0  0  0
  4 11  1  0  0  0  0
  5 15  2  0  0  0  0
  5  2  1  0  0  0  0
  6  1  2  0  0  0  0
  7  4  1  0  0  0  0
  8 13  1  0  0  0  0
 10 20  1  0  0  0  0
 12 17  1  0  0  0  0
 12  8  2  0  0  0  0
 13  2  2  0  0  0  0
 13 19  1  0  0  0  0
 14  8  1  0  0  0  0
 16 11  2  0  0  0  0
 17  5  1  0  0  0  0
 18  6  1  0  0  0  0
 18 17  2  0  0  0  0
 19 10  2  0  0  0  0
 20 21  1  0  0  0  0
 21 16  1  0  0  0  0
 23 22  1  6  0  0  0
 23 14  1  0  0  0  0
 24 25  1  0  0  0  0
 24 23  1  0  0  0  0
 25 27  1  0  0  0  0
 27 26  2  0  0  0  0
 28 27  1  0  0  0  0
 29 31  1  0  0  0  0
 29 30  1  0  0  0  0
 31 30  1  0  0  0  0
 31 28  1  0  0  0  0
M  END
>  <MODEL>
7

>  <REMARK>
 VINA RESULT:      -8.8      4.501      7.367
  Name = 
  5 active torsions:
  status: ('A' for Active; 'I' for Inactive)
    1  A    between atoms: O_3  and  C_19
    2  A    between atoms: O_3  and  N_22
    3  A    between atoms: C_9  and  N_22
    4  A    between atoms: C_9  and  N_23
    5  A    between atoms: C_11  and  N_24
                            x       y       z     vdW  Elec       q    Type
                         _______ _______ _______ _____ _____    ______ ____

>  <TORSDO>
F 5

$$$$
=
 OpenBabel10272400153D

 31 35  0  0  1  0  0  0  0  0999 V2000
  190.1280  177.1240  145.9260 C   0  0  0  0  0  0  0  0  0  0  0  0
  187.5640  177.9430  143.2780 C   0  0  0  0  0  0  0  0  0  0  0  0
  186.3060  178.1340  143.9570 C   0  0  0  0  0  0  0  0  0  0  0  0
  184.9720  178.0270  146.1930 C   0  0  0  0  0  2  0  0  0  0  0  0
  188.8020  177.6370  143.9350 C   0  0  0  0  0  0  0  0  0  0  0  0
  191.2820  177.0260  145.1510 C   0  0  0  0  0  3  0  0  0  0  0  0
  186.2920  178.2610  145.4730 C   0  0  0  0  0  2  0  0  0  0  0  0
  188.8020  177.9280  141.1510 C   0  0  0  0  0  0  0  0  0  0  0  0
  190.1980  176.9130  147.3950 C   0  0  0  0  0  1  0  0  0  0  0  0
  185.2130  178.4460  141.7930 C   0  0  0  0  0  3  0  0  0  0  0  0
  184.1140  179.1640  145.9860 N   0  0  0  0  0  0  0  0  0  0  0  0
  189.9500  177.6670  141.8210 N   0  0  0  0  0  0  0  0  0  0  0  0
  187.5950  178.0610  141.8570 C   0  0  0  0  0  0  0  0  0  0  0  0
  188.8270  178.0700  139.7250 N   0  0  0  0  0  2  0  0  0  0  0  0
  188.9070  177.4240  145.3220 C   0  0  0  0  0  3  0  0  0  0  0  0
  183.5510  179.3730  144.8500 C   0  0  0  0  0  3  0  0  0  0  0  0
  189.9870  177.5150  143.1640 C   0  0  0  0  0  0  0  0  0  0  0  0
  191.2090  177.2180  143.7730 C   0  0  0  0  0  3  0  0  0  0  0  0
  186.4250  178.3110  141.1420 C   0  0  0  0  0  3  0  0  0  0  0  0
  185.1310  178.3700  143.1770 C   0  0  0  0  0  0  0  0  0  0  0  0
  183.7290  178.4130  143.7150 C   0  0  0  0  0  2  0  0  0  0  0  0
  190.6380  176.5350  139.1830 C   0  0  0  0  0  1  0  0  0  0  0  0
  190.0400  177.9090  138.9370 C   0  0  1  0  0  3  0  0  0  0  0  0
  189.7200  178.0560  137.5250 N   0  0  0  0  0  2  0  0  0  0  0  0
  188.3940  177.7080  137.3570 O   0  0  0  0  0  0  0  0  0  0  0  0
  187.6660  178.0400  135.1940 O   0  0  0  0  0  0  0  0  0  0  0  0
  187.9130  177.2370  136.1330 C   0  0  0  0  0  0  0  0  0  0  0  0
  187.6950  175.8420  135.9360 N   0  0  0  0  0  2  0  0  0  0  0  0
  187.9550  173.4810  136.3920 C   0  0  0  0  0  2  0  0  0  0  0  0
  189.2720  174.1670  136.6800 C   0  0  0  0  0  2  0  0  0  0  0  0
  187.9670  174.8750  136.9860 C   0  0  0  0  0  3  0  0  0  0  0  0
  1  9  1  0  0  0  0
  2  5  1  0  0  0  0
  2  3  1  0  0  0  0
  3  7  1  0  0  0  0
  5 15  2  0  0  0  0
  6  1  2  0  0  0  0
  7  4  1  0  0  0  0
  8 12  2  0  0  0  0
  8 13  1  0  0  0  0
 10 20  1  0  0  0  0
 11  4  1  0  0  0  0
 12 17  1  0  0  0  0
 13  2  2  0  0  0  0
 14  8  1  0  0  0  0
 15  1  1  0  0  0  0
 16 11  2  0  0  0  0
 17 18  2  0  0  0  0
 17  5  1  0  0  0  0
 18  6  1  0  0  0  0
 19 10  2  0  0  0  0
 19 13  1  0  0  0  0
 20 21  1  0  0  0  0
 20  3  2  0  0  0  0
 21 16  1  0  0  0  0
 23 22  1  6  0  0  0
 23 14  1  0  0  0  0
 24 23  1  0  0  0  0
 25 24  1  0  0  0  0
 26 27  2  0  0  0  0
 27 25  1  0  0  0  0
 28 27  1  0  0  0  0
 28 31  1  0  0  0  0
 29 30  1  0  0  0  0
 29 31  1  0  0  0  0
 30 31  1  0  0  0  0
M  END
>  <MODEL>
8

>  <REMARK>
 VINA RESULT:      -8.8      1.944      4.634
  Name = 
  5 active torsions:
  status: ('A' for Active; 'I' for Inactive)
    1  A    between atoms: O_3  and  C_19
    2  A    between atoms: O_3  and  N_22
    3  A    between atoms: C_9  and  N_22
    4  A    between atoms: C_9  and  N_23
    5  A    between atoms: C_11  and  N_24
                            x       y       z     vdW  Elec       q    Type
                         _______ _______ _______ _____ _____    ______ ____

>  <TORSDO>
F 5

$$$$
=
 OpenBabel10272400153D

 31 35  0  0  1  0  0  0  0  0999 V2000
  190.2040  176.9380  145.9590 C   0  0  0  0  0  0  0  0  0  0  0  0
  188.2140  177.7430  142.8520 C   0  0  0  0  0  0  0  0  0  0  0  0
  189.1380  177.7170  141.7440 C   0  0  0  0  0  0  0  0  0  0  0  0
  191.6070  177.5010  140.9410 C   0  0  0  0  0  2  0  0  0  0  0  0
  188.5730  177.4650  144.2130 C   0  0  0  0  0  0  0  0  0  0  0  0
  189.1960  176.9400  146.9220 C   0  0  0  0  0  3  0  0  0  0  0  0
  190.5300  177.1370  141.9500 C   0  0  0  0  0  2  0  0  0  0  0  0
  185.9020  178.0630  143.6280 C   0  0  0  0  0  0  0  0  0  0  0  0
  191.6080  176.6550  146.3520 C   0  0  0  0  0  1  0  0  0  0  0  0
  187.3310  178.4130  140.2520 C   0  0  0  0  0  3  0  0  0  0  0  0
  191.3740  176.7760  139.7190 N   0  0  0  0  0  0  0  0  0  0  0  0
  186.2840  177.7670  144.8930 N   0  0  0  0  0  0  0  0  0  0  0  0
  186.8510  178.0660  142.5920 C   0  0  0  0  0  0  0  0  0  0  0  0
  184.5280  178.3680  143.3550 N   0  0  0  0  0  2  0  0  0  0  0  0
  189.8910  177.2000  144.6250 C   0  0  0  0  0  3  0  0  0  0  0  0
  190.4120  177.0990  138.9300 C   0  0  0  0  0  3  0  0  0  0  0  0
  187.5660  177.4790  145.2130 C   0  0  0  0  0  0  0  0  0  0  0  0
  187.8820  177.2120  146.5480 C   0  0  0  0  0  3  0  0  0  0  0  0
  186.4330  178.3930  141.3030 C   0  0  0  0  0  3  0  0  0  0  0  0
  188.6650  178.0780  140.4440 C   0  0  0  0  0  0  0  0  0  0  0  0
  189.5300  178.2710  139.2310 C   0  0  0  0  0  2  0  0  0  0  0  0
  184.0310  179.1690  145.5990 C   0  0  0  0  0  1  0  0  0  0  0  0
  183.5070  178.4130  144.3910 C   0  0  1  0  0  3  0  0  0  0  0  0
  182.3240  179.0840  143.8720 N   0  0  0  0  0  2  0  0  0  0  0  0
  182.4540  179.1620  142.5000 O   0  0  0  0  0  0  0  0  0  0  0  0
  180.2150  178.8650  142.0290 O   0  0  0  0  0  0  0  0  0  0  0  0
  181.4130  178.7890  141.6460 C   0  0  0  0  0  0  0  0  0  0  0  0
  181.6980  178.3140  140.3320 N   0  0  0  0  0  2  0  0  0  0  0  0
  183.0600  178.3710  138.3340 C   0  0  0  0  0  2  0  0  0  0  0  0
  183.4650  179.5310  139.2160 C   0  0  0  0  0  2  0  0  0  0  0  0
  183.0620  178.2110  139.8410 C   0  0  0  0  0  3  0  0  0  0  0  0
  1  9  1  0  0  0  0
  1  6  1  0  0  0  0
  2  5  1  0  0  0  0
  3  7  1  0  0  0  0
  3  2  2  0  0  0  0
  4  7  1  0  0  0  0
  5 15  1  0  0  0  0
  5 17  2  0  0  0  0
  8 12  2  0  0  0  0
 10 20  2  0  0  0  0
 10 19  1  0  0  0  0
 11  4  1  0  0  0  0
 12 17  1  0  0  0  0
 13  2  1  0  0  0  0
 13  8  1  0  0  0  0
 14  8  1  0  0  0  0
 14 23  1  0  0  0  0
 15  1  2  0  0  0  0
 16 21  1  0  0  0  0
 16 11  2  0  0  0  0
 17 18  1  0  0  0  0
 18  6  2  0  0  0  0
 19 13  2  0  0  0  0
 20  3  1  0  0  0  0
 21 20  1  0  0  0  0
 23 22  1  1  0  0  0
 24 23  1  0  0  0  0
 25 24  1  0  0  0  0
 27 26  2  0  0  0  0
 27 25  1  0  0  0  0
 28 27  1  0  0  0  0
 29 30  1  0  0  0  0
 29 31  1  0  0  0  0
 30 31  1  0  0  0  0
 31 28  1  0  0  0  0
M  END
>  <MODEL>
9

>  <REMARK>
 VINA RESULT:      -8.6      3.422      6.994
  Name = 
  5 active torsions:
  status: ('A' for Active; 'I' for Inactive)
    1  A    between atoms: O_3  and  C_19
    2  A    between atoms: O_3  and  N_22
    3  A    between atoms: C_9  and  N_22
    4  A    between atoms: C_9  and  N_23
    5  A    between atoms: C_11  and  N_24
                            x       y       z     vdW  Elec       q    Type
                         _______ _______ _______ _____ _____    ______ ____

>  <TORSDO>
F 5

$$$$
