=
 OpenBabel10262423533D

 34 38  0  0  1  0  0  0  0  0999 V2000
  184.7400  178.7340  145.1980 C   0  0  0  0  0  0  0  0  0  0  0  0
  186.8410  177.5820  144.7890 C   0  0  0  0  0  0  0  0  0  0  0  0
  185.3990  178.3850  142.8660 C   0  0  0  0  0  0  0  0  0  0  0  0
  185.8580  178.1560  140.4400 C   0  0  2  0  0  3  0  0  0  0  0  0
  186.2260  178.2520  147.0410 C   0  0  0  0  0  3  0  0  0  0  0  0
  187.1070  177.6280  146.1620 C   0  0  0  0  0  3  0  0  0  0  0  0
  187.8520  178.2660  141.8440 C   0  0  0  0  0  2  0  0  0  0  0  0
  185.6960  178.2440  144.2610 C   0  0  0  0  0  0  0  0  0  0  0  0
  187.1800  178.3130  139.2020 S   0  0  0  0  0  0  0  0  0  0  0  0
  185.0300  178.7740  146.5620 C   0  0  0  0  0  3  0  0  0  0  0  0
  183.1380  179.1060  143.4320 C   0  0  0  0  0  3  0  0  0  0  0  0
  183.4770  179.1450  144.7780 C   0  0  0  0  0  3  0  0  0  0  0  0
  187.6250  176.5720  144.0260 C   0  0  0  0  0  1  0  0  0  0  0  0
  184.7430  178.9330  140.0730 O   0  0  0  0  0  0  0  0  0  0  0  0
  183.6880  178.7530  141.0130 C   0  0  2  0  0  3  0  0  0  0  0  0
  188.4500  178.5740  140.4850 C   0  0  2  0  0  3  0  0  0  0  0  0
  186.4020  178.6500  141.7580 C   0  0  2  0  0  3  0  0  0  0  0  0
  184.0820  178.7240  142.4800 C   0  0  0  0  0  0  0  0  0  0  0  0
  181.1790  176.6710  139.0420 C   0  0  1  0  0  3  0  0  0  0  0  0
  181.1590  175.3010  139.3040 O   0  0  0  0  0  1  0  0  0  0  0  0
  182.6160  177.7280  140.5960 C   0  0  2  0  0  3  0  0  0  0  0  0
  180.3270  177.3640  140.0090 N   0  0  0  0  0  2  0  0  0  0  0  0
  182.5960  177.1890  139.1790 C   0  0  2  0  0  3  0  0  0  0  0  0
  181.1960  178.1450  140.8860 C   0  0  0  0  0  2  0  0  0  0  0  0
  182.8170  178.2560  138.1180 C   0  0  0  0  0  1  0  0  0  0  0  0
  189.6450  177.6770  140.2250 C   0  0  0  0  0  2  0  0  0  0  0  0
  190.0580  177.0660  141.4380 O   0  0  0  0  0  0  0  0  0  0  0  0
  191.2430  177.4160  142.0870 C   0  0  0  0  0  0  0  0  0  0  0  0
  192.3420  177.2270  141.5030 O   0  0  0  0  0  0  0  0  0  0  0  0
  191.2400  178.1580  143.7230 S   0  0  0  0  0  0  0  0  0  0  0  0
  191.3650  176.5530  144.5690 C   0  0  0  0  0  2  0  0  0  0  0  0
  190.3250  177.0290  146.7650 C   0  0  0  0  0  1  0  0  0  0  0  0
  192.2740  175.5200  146.6420 C   0  0  0  0  0  1  0  0  0  0  0  0
  191.6330  176.7580  146.0490 C   0  0  0  0  0  3  0  0  0  0  0  0
  1 10  2  0  0  0  0
  2  6  1  0  0  0  0
  3  8  1  0  0  0  0
  4  9  1  6  0  0  0
  4 17  1  0  0  0  0
  6  5  2  0  0  0  0
  8  2  2  0  0  0  0
  8  1  1  0  0  0  0
  9 16  1  0  0  0  0
 10  5  1  0  0  0  0
 11 12  2  0  0  0  0
 12  1  1  0  0  0  0
 13  2  1  0  0  0  0
 14  4  1  0  0  0  0
 15 14  1  6  0  0  0
 15 18  1  0  0  0  0
 16 26  1  6  0  0  0
 16  7  1  0  0  0  0
 17  7  1  1  0  0  0
 17  3  1  0  0  0  0
 18  3  2  0  0  0  0
 18 11  1  0  0  0  0
 19 23  1  0  0  0  0
 19 20  1  1  0  0  0
 19 22  1  0  0  0  0
 21 24  1  6  0  0  0
 21 15  1  0  0  0  0
 22 24  1  0  0  0  0
 23 25  1  6  0  0  0
 23 21  1  0  0  0  0
 26 27  1  0  0  0  0
 27 28  1  0  0  0  0
 28 30  1  0  0  0  0
 29 28  2  0  0  0  0
 30 31  1  0  0  0  0
 31 34  1  0  0  0  0
 34 33  1  0  0  0  0
 34 32  1  0  0  0  0
M  END
>  <MODEL>
1

>  <REMARK>
 VINA RESULT:      -9.9      0.000      0.000
  Name = 
  7 active torsions:
  status: ('A' for Active; 'I' for Inactive)
    1  A    between atoms: O_3  and  C_13
    2  A    between atoms: O_3  and  C_17
    3  A    between atoms: S_11  and  C_13
    4  A    between atoms: S_11  and  C_14
    5  A    between atoms: C_12  and  C_28
    6  A    between atoms: C_14  and  C_34
    7  A    between atoms: C_17  and  C_29
                            x       y       z     vdW  Elec       q    Type
                         _______ _______ _______ _____ _____    ______ ____

>  <TORSDO>
F 7

$$$$
=
 OpenBabel10262423533D

 34 38  0  0  1  0  0  0  0  0999 V2000
  186.0000  178.4020  145.1140 C   0  0  0  0  0  0  0  0  0  0  0  0
  187.9220  177.1660  144.2860 C   0  0  0  0  0  0  0  0  0  0  0  0
  186.2720  178.2340  142.6870 C   0  0  0  0  0  0  0  0  0  0  0  0
  186.3420  178.2060  140.2080 C   0  0  2  0  0  3  0  0  0  0  0  0
  187.7050  177.6580  146.6550 C   0  0  0  0  0  3  0  0  0  0  0  0
  188.3940  177.0650  145.6000 C   0  0  0  0  0  3  0  0  0  0  0  0
  188.5270  178.0590  141.2870 C   0  0  0  0  0  2  0  0  0  0  0  0
  186.7640  177.9440  144.0010 C   0  0  0  0  0  0  0  0  0  0  0  0
  187.4710  178.3960  138.7950 S   0  0  0  0  0  0  0  0  0  0  0  0
  186.4940  178.2950  146.4140 C   0  0  0  0  0  3  0  0  0  0  0  0
  184.1820  179.0370  143.6580 C   0  0  0  0  0  3  0  0  0  0  0  0
  184.7220  178.9280  144.9330 C   0  0  0  0  0  3  0  0  0  0  0  0
  188.5040  176.1860  143.3280 C   0  0  0  0  0  1  0  0  0  0  0  0
  185.2470  179.0820  140.0860 O   0  0  0  0  0  0  0  0  0  0  0  0
  184.3340  178.8790  141.1610 C   0  0  2  0  0  3  0  0  0  0  0  0
  188.9350  178.4560  139.8820 C   0  0  2  0  0  3  0  0  0  0  0  0
  187.1140  178.5390  141.4610 C   0  0  2  0  0  3  0  0  0  0  0  0
  184.9410  178.6880  142.5420 C   0  0  0  0  0  0  0  0  0  0  0  0
  181.4400  177.1160  139.4220 C   0  0  1  0  0  3  0  0  0  0  0  0
  181.3360  175.7390  139.6190 O   0  0  0  0  0  1  0  0  0  0  0  0
  183.1370  177.9660  140.8330 C   0  0  2  0  0  3  0  0  0  0  0  0
  180.7720  177.8160  140.5210 N   0  0  0  0  0  2  0  0  0  0  0  0
  182.9010  177.5140  139.4060 C   0  0  2  0  0  3  0  0  0  0  0  0
  181.8030  178.4750  141.3190 C   0  0  0  0  0  2  0  0  0  0  0  0
  183.0800  178.6210  138.3790 C   0  0  0  0  0  1  0  0  0  0  0  0
  190.0060  177.5160  139.3630 C   0  0  0  0  0  2  0  0  0  0  0  0
  189.5490  176.8730  138.1830 O   0  0  0  0  0  0  0  0  0  0  0  0
  189.9930  175.6060  137.8000 C   0  0  0  0  0  0  0  0  0  0  0  0
  190.9620  175.0860  138.4110 O   0  0  0  0  0  0  0  0  0  0  0  0
  189.2000  174.6870  136.4760 S   0  0  0  0  0  0  0  0  0  0  0  0
  187.5230  175.0730  137.0670 C   0  0  0  0  0  2  0  0  0  0  0  0
  185.3550  176.1180  136.4870 C   0  0  0  0  0  1  0  0  0  0  0  0
  187.4040  176.8330  135.3140 C   0  0  0  0  0  1  0  0  0  0  0  0
  186.6890  175.6540  135.9400 C   0  0  0  0  0  3  0  0  0  0  0  0
  1 10  2  0  0  0  0
  2  6  1  0  0  0  0
  3  8  1  0  0  0  0
  4  9  1  6  0  0  0
  4 17  1  0  0  0  0
  6  5  2  0  0  0  0
  8  2  2  0  0  0  0
  8  1  1  0  0  0  0
  9 16  1  0  0  0  0
 10  5  1  0  0  0  0
 11 12  2  0  0  0  0
 12  1  1  0  0  0  0
 13  2  1  0  0  0  0
 14  4  1  0  0  0  0
 15 14  1  6  0  0  0
 15 18  1  0  0  0  0
 16 26  1  6  0  0  0
 16  7  1  0  0  0  0
 17  7  1  1  0  0  0
 17  3  1  0  0  0  0
 18  3  2  0  0  0  0
 18 11  1  0  0  0  0
 19 20  1  1  0  0  0
 19 22  1  0  0  0  0
 21 15  1  0  0  0  0
 21 24  1  6  0  0  0
 22 24  1  0  0  0  0
 23 25  1  6  0  0  0
 23 19  1  0  0  0  0
 23 21  1  0  0  0  0
 27 26  1  0  0  0  0
 28 27  1  0  0  0  0
 28 29  2  0  0  0  0
 30 31  1  0  0  0  0
 30 28  1  0  0  0  0
 33 34  1  0  0  0  0
 34 32  1  0  0  0  0
 34 31  1  0  0  0  0
M  END
>  <MODEL>
2

>  <REMARK>
 VINA RESULT:      -9.0      2.220      4.304
  Name = 
  7 active torsions:
  status: ('A' for Active; 'I' for Inactive)
    1  A    between atoms: O_3  and  C_13
    2  A    between atoms: O_3  and  C_17
    3  A    between atoms: S_11  and  C_13
    4  A    between atoms: S_11  and  C_14
    5  A    between atoms: C_12  and  C_28
    6  A    between atoms: C_14  and  C_34
    7  A    between atoms: C_17  and  C_29
                            x       y       z     vdW  Elec       q    Type
                         _______ _______ _______ _____ _____    ______ ____

>  <TORSDO>
F 7

$$$$
=
 OpenBabel10262423533D

 34 38  0  0  1  0  0  0  0  0999 V2000
  185.6980  178.5770  145.1580 C   0  0  0  0  0  0  0  0  0  0  0  0
  187.5540  177.2460  144.3270 C   0  0  0  0  0  0  0  0  0  0  0  0
  185.9440  178.3780  142.7300 C   0  0  0  0  0  0  0  0  0  0  0  0
  185.9960  178.3290  140.2510 C   0  0  2  0  0  3  0  0  0  0  0  0
  187.3780  177.7650  146.6930 C   0  0  0  0  0  3  0  0  0  0  0  0
  188.0300  177.1330  145.6380 C   0  0  0  0  0  3  0  0  0  0  0  0
  188.1790  178.0870  141.3160 C   0  0  0  0  0  2  0  0  0  0  0  0
  186.4320  178.0750  144.0440 C   0  0  0  0  0  0  0  0  0  0  0  0
  187.1210  178.4550  138.8300 S   0  0  0  0  0  0  0  0  0  0  0  0
  186.1960  178.4570  146.4560 C   0  0  0  0  0  3  0  0  0  0  0  0
  183.9020  179.2860  143.7100 C   0  0  0  0  0  3  0  0  0  0  0  0
  184.4460  179.1610  144.9810 C   0  0  0  0  0  3  0  0  0  0  0  0
  188.0820  176.2320  143.3720 C   0  0  0  0  0  1  0  0  0  0  0  0
  184.9420  179.2540  140.1300 O   0  0  0  0  0  0  0  0  0  0  0  0
  184.0290  179.1030  141.2130 C   0  0  2  0  0  3  0  0  0  0  0  0
  188.5950  178.4540  139.9050 C   0  0  2  0  0  3  0  0  0  0  0  0
  186.7910  178.6340  141.4960 C   0  0  2  0  0  3  0  0  0  0  0  0
  184.6350  178.8940  142.5910 C   0  0  0  0  0  0  0  0  0  0  0  0
  181.0110  177.5020  139.5260 C   0  0  1  0  0  3  0  0  0  0  0  0
  180.8630  176.1240  139.6840 O   0  0  0  0  0  1  0  0  0  0  0  0
  182.7870  178.2440  140.9000 C   0  0  2  0  0  3  0  0  0  0  0  0
  180.4090  178.1900  140.6690 N   0  0  0  0  0  2  0  0  0  0  0  0
  182.4850  177.8460  139.4690 C   0  0  2  0  0  3  0  0  0  0  0  0
  181.4910  178.7860  141.4490 C   0  0  0  0  0  2  0  0  0  0  0  0
  182.6700  178.9780  138.4710 C   0  0  0  0  0  1  0  0  0  0  0  0
  189.6170  177.4600  139.3870 C   0  0  0  0  0  2  0  0  0  0  0  0
  188.9920  176.5560  138.4880 O   0  0  0  0  0  0  0  0  0  0  0  0
  189.6020  176.1380  137.3040 C   0  0  0  0  0  0  0  0  0  0  0  0
  189.2850  176.6950  136.2200 O   0  0  0  0  0  0  0  0  0  0  0  0
  190.8490  174.8450  137.2890 S   0  0  0  0  0  0  0  0  0  0  0  0
  192.0940  175.9050  136.4940 C   0  0  0  0  0  2  0  0  0  0  0  0
  193.1800  176.6210  138.6010 C   0  0  0  0  0  1  0  0  0  0  0  0
  193.8020  174.4610  137.5830 C   0  0  0  0  0  1  0  0  0  0  0  0
  193.3860  175.8880  137.2910 C   0  0  0  0  0  3  0  0  0  0  0  0
  1 10  2  0  0  0  0
  2  6  1  0  0  0  0
  3  8  1  0  0  0  0
  4  9  1  6  0  0  0
  4 17  1  0  0  0  0
  6  5  2  0  0  0  0
  8  2  2  0  0  0  0
  8  1  1  0  0  0  0
  9 16  1  0  0  0  0
 10  5  1  0  0  0  0
 11 12  2  0  0  0  0
 12  1  1  0  0  0  0
 13  2  1  0  0  0  0
 14  4  1  0  0  0  0
 15 14  1  6  0  0  0
 15 18  1  0  0  0  0
 16 26  1  6  0  0  0
 16  7  1  0  0  0  0
 17  7  1  1  0  0  0
 17  3  1  0  0  0  0
 18  3  2  0  0  0  0
 18 11  1  0  0  0  0
 19 20  1  1  0  0  0
 19 22  1  0  0  0  0
 21 15  1  0  0  0  0
 21 24  1  6  0  0  0
 22 24  1  0  0  0  0
 23 25  1  6  0  0  0
 23 19  1  0  0  0  0
 23 21  1  0  0  0  0
 27 26  1  0  0  0  0
 28 27  1  0  0  0  0
 29 28  2  0  0  0  0
 30 28  1  0  0  0  0
 31 30  1  0  0  0  0
 31 34  1  0  0  0  0
 34 33  1  0  0  0  0
 34 32  1  0  0  0  0
M  END
>  <MODEL>
3

>  <REMARK>
 VINA RESULT:      -8.6      2.378      3.648
  Name = 
  7 active torsions:
  status: ('A' for Active; 'I' for Inactive)
    1  A    between atoms: O_3  and  C_13
    2  A    between atoms: O_3  and  C_17
    3  A    between atoms: S_11  and  C_13
    4  A    between atoms: S_11  and  C_14
    5  A    between atoms: C_12  and  C_28
    6  A    between atoms: C_14  and  C_34
    7  A    between atoms: C_17  and  C_29
                            x       y       z     vdW  Elec       q    Type
                         _______ _______ _______ _____ _____    ______ ____

>  <TORSDO>
F 7

$$$$
=
 OpenBabel10262423533D

 34 38  0  0  1  0  0  0  0  0999 V2000
  185.1040  178.8780  142.0270 C   0  0  0  0  0  0  0  0  0  0  0  0
  186.3220  177.7300  143.7900 C   0  0  0  0  0  0  0  0  0  0  0  0
  187.3700  178.1080  141.5140 C   0  0  0  0  0  0  0  0  0  0  0  0
  189.6370  177.4320  140.7680 C   0  0  2  0  0  3  0  0  0  0  0  0
  184.1940  178.8010  144.2640 C   0  0  0  0  0  3  0  0  0  0  0  0
  185.2880  178.0450  144.6780 C   0  0  0  0  0  3  0  0  0  0  0  0
  189.4440  177.8650  143.1620 C   0  0  0  0  0  2  0  0  0  0  0  0
  186.3050  178.2450  142.4630 C   0  0  0  0  0  0  0  0  0  0  0  0
  191.3750  177.3860  141.2980 S   0  0  0  0  0  0  0  0  0  0  0  0
  184.0890  179.1870  142.9330 C   0  0  0  0  0  3  0  0  0  0  0  0
  185.8730  178.8590  139.7400 C   0  0  0  0  0  3  0  0  0  0  0  0
  184.8980  179.1640  140.6790 C   0  0  0  0  0  3  0  0  0  0  0  0
  187.2100  176.6150  144.2220 C   0  0  0  0  0  1  0  0  0  0  0  0
  189.5150  178.0920  139.5310 O   0  0  0  0  0  0  0  0  0  0  0  0
  188.1600  178.0640  139.0910 C   0  0  2  0  0  3  0  0  0  0  0  0
  190.9490  177.9240  142.9880 C   0  0  2  0  0  3  0  0  0  0  0  0
  188.8560  178.1840  141.8170 C   0  0  2  0  0  3  0  0  0  0  0  0
  187.0970  178.3290  140.1440 C   0  0  0  0  0  0  0  0  0  0  0  0
  187.8700  175.9360  135.9440 C   0  0  1  0  0  3  0  0  0  0  0  0
  188.0580  174.5630  136.0970 O   0  0  0  0  0  1  0  0  0  0  0  0
  187.8280  176.9480  138.0820 C   0  0  2  0  0  3  0  0  0  0  0  0
  186.4740  176.2730  136.2310 N   0  0  0  0  0  2  0  0  0  0  0  0
  188.7620  176.6780  136.9190 C   0  0  2  0  0  3  0  0  0  0  0  0
  186.4490  177.0320  137.4780 C   0  0  0  0  0  2  0  0  0  0  0  0
  189.2650  177.9410  136.2360 C   0  0  0  0  0  1  0  0  0  0  0  0
  191.6290  177.0290  144.0060 C   0  0  0  0  0  2  0  0  0  0  0  0
  191.5800  177.6390  145.2880 O   0  0  0  0  0  0  0  0  0  0  0  0
  191.3670  176.9060  146.4570 C   0  0  0  0  0  0  0  0  0  0  0  0
  192.3560  176.5670  147.1570 O   0  0  0  0  0  0  0  0  0  0  0  0
  189.7150  176.4600  147.0040 S   0  0  0  0  0  0  0  0  0  0  0  0
  189.0820  178.1560  146.8280 C   0  0  0  0  0  2  0  0  0  0  0  0
  186.8360  179.0080  147.4310 C   0  0  0  0  0  1  0  0  0  0  0  0
  187.8870  177.2560  148.8160 C   0  0  0  0  0  1  0  0  0  0  0  0
  188.1510  178.4920  147.9800 C   0  0  0  0  0  3  0  0  0  0  0  0
  1  8  1  0  0  0  0
  1 10  2  0  0  0  0
  2 13  1  0  0  0  0
  2  6  1  0  0  0  0
  3 17  1  0  0  0  0
  3  8  1  0  0  0  0
  4 14  1  6  0  0  0
  4  9  1  0  0  0  0
  4 17  1  0  0  0  0
  5  6  2  0  0  0  0
  8  2  2  0  0  0  0
  9 16  1  0  0  0  0
 10  5  1  0  0  0  0
 11 18  1  0  0  0  0
 11 12  2  0  0  0  0
 12  1  1  0  0  0  0
 15 14  1  1  0  0  0
 15 18  1  0  0  0  0
 16  7  1  0  0  0  0
 16 26  1  1  0  0  0
 17  7  1  1  0  0  0
 18  3  2  0  0  0  0
 19 20  1  1  0  0  0
 19 22  1  0  0  0  0
 19 23  1  0  0  0  0
 21 24  1  6  0  0  0
 21 15  1  0  0  0  0
 22 24  1  0  0  0  0
 23 25  1  6  0  0  0
 23 21  1  0  0  0  0
 26 27  1  0  0  0  0
 27 28  1  0  0  0  0
 28 30  1  0  0  0  0
 28 29  2  0  0  0  0
 31 30  1  0  0  0  0
 31 34  1  0  0  0  0
 32 34  1  0  0  0  0
 34 33  1  0  0  0  0
M  END
>  <MODEL>
4

>  <REMARK>
 VINA RESULT:      -8.5      2.852      4.621
  Name = 
  7 active torsions:
  status: ('A' for Active; 'I' for Inactive)
    1  A    between atoms: O_3  and  C_13
    2  A    between atoms: O_3  and  C_17
    3  A    between atoms: S_11  and  C_13
    4  A    between atoms: S_11  and  C_14
    5  A    between atoms: C_12  and  C_28
    6  A    between atoms: C_14  and  C_34
    7  A    between atoms: C_17  and  C_29
                            x       y       z     vdW  Elec       q    Type
                         _______ _______ _______ _____ _____    ______ ____

>  <TORSDO>
F 7

$$$$
=
 OpenBabel10262423533D

 34 38  0  0  1  0  0  0  0  0999 V2000
  183.3200  176.8630  136.0610 C   0  0  0  0  0  0  0  0  0  0  0  0
  182.1980  176.5150  138.1880 C   0  0  0  0  0  0  0  0  0  0  0  0
  184.5650  177.4130  138.0950 C   0  0  0  0  0  0  0  0  0  0  0  0
  186.0130  178.0470  140.0060 C   0  0  2  0  0  3  0  0  0  0  0  0
  180.9730  176.2930  136.1030 C   0  0  0  0  0  3  0  0  0  0  0  0
  181.0190  176.2250  137.4920 C   0  0  0  0  0  3  0  0  0  0  0  0
  183.6200  178.2880  140.4230 C   0  0  0  0  0  2  0  0  0  0  0  0
  183.3530  176.9560  137.4820 C   0  0  0  0  0  0  0  0  0  0  0  0
  185.9970  178.9220  141.5990 S   0  0  0  0  0  0  0  0  0  0  0  0
  182.1310  176.5780  135.3890 C   0  0  0  0  0  3  0  0  0  0  0  0
  185.6940  177.2770  135.9360 C   0  0  0  0  0  3  0  0  0  0  0  0
  184.4840  177.0110  135.3100 C   0  0  0  0  0  3  0  0  0  0  0  0
  182.2360  176.0340  139.5970 C   0  0  0  0  0  1  0  0  0  0  0  0
  187.0280  178.5550  139.1740 O   0  0  0  0  0  0  0  0  0  0  0  0
  187.0780  177.8200  137.9550 C   0  0  2  0  0  3  0  0  0  0  0  0
  184.1860  179.1360  141.5450 C   0  0  2  0  0  3  0  0  0  0  0  0
  184.6710  178.2610  139.3500 C   0  0  2  0  0  3  0  0  0  0  0  0
  185.7440  177.4710  137.3160 C   0  0  0  0  0  0  0  0  0  0  0  0
  189.9870  175.5700  136.9620 C   0  0  1  0  0  3  0  0  0  0  0  0
  190.8460  175.1680  137.9850 O   0  0  0  0  0  1  0  0  0  0  0  0
  188.1430  176.7070  137.9110 C   0  0  2  0  0  3  0  0  0  0  0  0
  188.8430  174.6570  136.9000 N   0  0  0  0  0  2  0  0  0  0  0  0
  189.4810  176.9680  137.2490 C   0  0  2  0  0  3  0  0  0  0  0  0
  187.6630  175.3960  137.3430 C   0  0  0  0  0  2  0  0  0  0  0  0
  189.3720  177.7140  135.9280 C   0  0  0  0  0  1  0  0  0  0  0  0
  183.5730  178.7250  142.8700 C   0  0  0  0  0  2  0  0  0  0  0  0
  184.6020  178.4160  143.7980 O   0  0  0  0  0  0  0  0  0  0  0  0
  184.4940  178.7050  145.1600 C   0  0  0  0  0  0  0  0  0  0  0  0
  183.4140  179.1760  145.6030 O   0  0  0  0  0  0  0  0  0  0  0  0
  185.8440  178.3920  146.3020 S   0  0  0  0  0  0  0  0  0  0  0  0
  186.7770  177.3980  145.0970 C   0  0  0  0  0  2  0  0  0  0  0  0
  188.8610  177.2880  146.4270 C   0  0  0  0  0  1  0  0  0  0  0  0
  188.9770  177.1350  143.9680 C   0  0  0  0  0  1  0  0  0  0  0  0
  188.2470  177.7740  145.1310 C   0  0  0  0  0  3  0  0  0  0  0  0
  1  8  1  0  0  0  0
  2 13  1  0  0  0  0
  3 17  1  0  0  0  0
  4 14  1  6  0  0  0
  4  9  1  0  0  0  0
  5  6  2  0  0  0  0
  6  2  1  0  0  0  0
  7 16  1  0  0  0  0
  8  3  1  0  0  0  0
  8  2  2  0  0  0  0
 10  1  2  0  0  0  0
 10  5  1  0  0  0  0
 11 18  1  0  0  0  0
 12 11  2  0  0  0  0
 12  1  1  0  0  0  0
 15 18  1  1  0  0  0
 15 14  1  0  0  0  0
 16  9  1  0  0  0  0
 16 26  1  1  0  0  0
 17  4  1  0  0  0  0
 17  7  1  1  0  0  0
 18  3  2  0  0  0  0
 19 23  1  0  0  0  0
 19 20  1  1  0  0  0
 21 24  1  6  0  0  0
 21 15  1  0  0  0  0
 22 19  1  0  0  0  0
 22 24  1  0  0  0  0
 23 25  1  6  0  0  0
 23 21  1  0  0  0  0
 26 27  1  0  0  0  0
 27 28  1  0  0  0  0
 28 29  2  0  0  0  0
 28 30  1  0  0  0  0
 31 34  1  0  0  0  0
 31 30  1  0  0  0  0
 33 34  1  0  0  0  0
 34 32  1  0  0  0  0
M  END
>  <MODEL>
5

>  <REMARK>
 VINA RESULT:      -7.2      3.272      7.201
  Name = 
  7 active torsions:
  status: ('A' for Active; 'I' for Inactive)
    1  A    between atoms: O_3  and  C_13
    2  A    between atoms: O_3  and  C_17
    3  A    between atoms: S_11  and  C_13
    4  A    between atoms: S_11  and  C_14
    5  A    between atoms: C_12  and  C_28
    6  A    between atoms: C_14  and  C_34
    7  A    between atoms: C_17  and  C_29
                            x       y       z     vdW  Elec       q    Type
                         _______ _______ _______ _____ _____    ______ ____

>  <TORSDO>
F 7

$$$$
=
 OpenBabel10262423533D

 34 38  0  0  1  0  0  0  0  0999 V2000
  192.4940  176.5380  138.6030 C   0  0  0  0  0  0  0  0  0  0  0  0
  190.7150  175.5330  137.2870 C   0  0  0  0  0  0  0  0  0  0  0  0
  190.1900  177.1060  139.2030 C   0  0  0  0  0  0  0  0  0  0  0  0
  187.9520  177.8330  139.9860 C   0  0  2  0  0  3  0  0  0  0  0  0
  193.0330  175.2880  136.6070 C   0  0  0  0  0  3  0  0  0  0  0  0
  191.6810  175.0160  136.4170 C   0  0  0  0  0  3  0  0  0  0  0  0
  188.0630  177.2710  137.6130 C   0  0  0  0  0  2  0  0  0  0  0  0
  191.0990  176.4090  138.3410 C   0  0  0  0  0  0  0  0  0  0  0  0
  186.3290  178.3970  139.3920 S   0  0  0  0  0  0  0  0  0  0  0  0
  193.4390  176.0190  137.7170 C   0  0  0  0  0  3  0  0  0  0  0  0
  192.0430  177.6630  140.6890 C   0  0  0  0  0  3  0  0  0  0  0  0
  192.9470  177.1480  139.7700 C   0  0  0  0  0  3  0  0  0  0  0  0
  189.3840  174.8670  137.2220 C   0  0  0  0  0  1  0  0  0  0  0  0
  188.4840  178.7500  140.9120 O   0  0  0  0  0  0  0  0  0  0  0  0
  189.7240  178.2680  141.4230 C   0  0  2  0  0  3  0  0  0  0  0  0
  186.7690  178.0600  137.6530 C   0  0  2  0  0  3  0  0  0  0  0  0
  188.8700  177.7350  138.7930 C   0  0  2  0  0  3  0  0  0  0  0  0
  190.6760  177.6400  140.4190 C   0  0  0  0  0  0  0  0  0  0  0  0
  190.2590  177.1730  145.0320 C   0  0  1  0  0  3  0  0  0  0  0  0
  189.1130  176.9130  145.7840 O   0  0  0  0  0  1  0  0  0  0  0  0
  189.6300  177.5510  142.7830 C   0  0  2  0  0  3  0  0  0  0  0  0
  190.6280  175.9740  144.2780 N   0  0  0  0  0  2  0  0  0  0  0  0
  189.9760  178.2970  144.0570 C   0  0  2  0  0  3  0  0  0  0  0  0
  190.3860  176.2480  142.8640 C   0  0  0  0  0  2  0  0  0  0  0  0
  191.2290  179.1510  143.9400 C   0  0  0  0  0  1  0  0  0  0  0  0
  185.6590  177.2780  136.9780 C   0  0  0  0  0  2  0  0  0  0  0  0
  186.0010  175.9000  136.9370 O   0  0  0  0  0  0  0  0  0  0  0  0
  185.1190  174.8980  137.3460 C   0  0  0  0  0  0  0  0  0  0  0  0
  183.9550  175.2140  137.7040 O   0  0  0  0  0  0  0  0  0  0  0  0
  185.5940  173.1650  137.3460 S   0  0  0  0  0  0  0  0  0  0  0  0
  184.2050  172.6740  136.2790 C   0  0  0  0  0  2  0  0  0  0  0  0
  181.9170  172.0310  136.9710 C   0  0  0  0  0  1  0  0  0  0  0  0
  183.4960  170.2900  136.2200 C   0  0  0  0  0  1  0  0  0  0  0  0
  183.3700  171.6050  136.9620 C   0  0  0  0  0  3  0  0  0  0  0  0
  1 12  1  0  0  0  0
  2  8  1  0  0  0  0
  3 18  2  0  0  0  0
  4  9  1  6  0  0  0
  4 14  1  0  0  0  0
  5 10  2  0  0  0  0
  6  5  1  0  0  0  0
  6  2  2  0  0  0  0
  7 16  1  0  0  0  0
  8  1  2  0  0  0  0
  8  3  1  0  0  0  0
 10  1  1  0  0  0  0
 12 11  2  0  0  0  0
 13  2  1  0  0  0  0
 14 15  1  0  0  0  0
 15 18  1  6  0  0  0
 15 21  1  0  0  0  0
 16 26  1  1  0  0  0
 16  9  1  0  0  0  0
 17  7  1  6  0  0  0
 17  3  1  0  0  0  0
 17  4  1  0  0  0  0
 18 11  1  0  0  0  0
 19 20  1  6  0  0  0
 21 24  1  6  0  0  0
 21 23  1  0  0  0  0
 22 19  1  0  0  0  0
 23 25  1  6  0  0  0
 23 19  1  0  0  0  0
 24 22  1  0  0  0  0
 27 26  1  0  0  0  0
 27 28  1  0  0  0  0
 28 29  2  0  0  0  0
 30 28  1  0  0  0  0
 31 34  1  0  0  0  0
 31 30  1  0  0  0  0
 33 34  1  0  0  0  0
 34 32  1  0  0  0  0
M  END
>  <MODEL>
6

>  <REMARK>
 VINA RESULT:      -6.9      4.288      9.175
  Name = 
  7 active torsions:
  status: ('A' for Active; 'I' for Inactive)
    1  A    between atoms: O_3  and  C_13
    2  A    between atoms: O_3  and  C_17
    3  A    between atoms: S_11  and  C_13
    4  A    between atoms: S_11  and  C_14
    5  A    between atoms: C_12  and  C_28
    6  A    between atoms: C_14  and  C_34
    7  A    between atoms: C_17  and  C_29
                            x       y       z     vdW  Elec       q    Type
                         _______ _______ _______ _____ _____    ______ ____

>  <TORSDO>
F 7

$$$$
=
 OpenBabel10262423533D

 34 38  0  0  1  0  0  0  0  0999 V2000
  192.6600  176.3270  138.3670 C   0  0  0  0  0  0  0  0  0  0  0  0
  190.9740  175.2960  136.9530 C   0  0  0  0  0  0  0  0  0  0  0  0
  190.3220  176.9180  138.7880 C   0  0  0  0  0  0  0  0  0  0  0  0
  188.0380  177.6710  139.3930 C   0  0  2  0  0  3  0  0  0  0  0  0
  193.3330  175.0270  136.4450 C   0  0  0  0  0  3  0  0  0  0  0  0
  191.9970  174.7560  136.1660 C   0  0  0  0  0  3  0  0  0  0  0  0
  188.3140  177.0520  137.0480 C   0  0  0  0  0  2  0  0  0  0  0  0
  191.2870  176.1970  138.0100 C   0  0  0  0  0  0  0  0  0  0  0  0
  186.4650  178.2260  138.6720 S   0  0  0  0  0  0  0  0  0  0  0  0
  193.6630  175.7840  137.5630 C   0  0  0  0  0  3  0  0  0  0  0  0
  192.0680  177.5050  140.3890 C   0  0  0  0  0  3  0  0  0  0  0  0
  193.0330  176.9640  139.5490 C   0  0  0  0  0  3  0  0  0  0  0  0
  189.6480  174.6340  136.8090 C   0  0  0  0  0  1  0  0  0  0  0  0
  188.5080  178.6090  140.3320 O   0  0  0  0  0  0  0  0  0  0  0  0
  189.7060  178.1350  140.9410 C   0  0  2  0  0  3  0  0  0  0  0  0
  187.0250  177.8450  136.9770 C   0  0  2  0  0  3  0  0  0  0  0  0
  189.0380  177.5410  138.2710 C   0  0  2  0  0  3  0  0  0  0  0  0
  190.7240  177.4790  140.0220 C   0  0  0  0  0  0  0  0  0  0  0  0
  190.0250  177.0790  144.5870 C   0  0  1  0  0  3  0  0  0  0  0  0
  188.8360  176.9060  145.2960 O   0  0  0  0  0  1  0  0  0  0  0  0
  189.5130  177.4510  142.3080 C   0  0  2  0  0  3  0  0  0  0  0  0
  190.3480  175.8440  143.8690 N   0  0  0  0  0  2  0  0  0  0  0  0
  189.8540  178.1990  143.5820 C   0  0  2  0  0  3  0  0  0  0  0  0
  190.1800  176.1060  142.4410 C   0  0  0  0  0  2  0  0  0  0  0  0
  191.1620  178.9700  143.5030 C   0  0  0  0  0  1  0  0  0  0  0  0
  185.9620  177.0510  136.2440 C   0  0  0  0  0  2  0  0  0  0  0  0
  185.1190  176.3980  137.1820 O   0  0  0  0  0  0  0  0  0  0  0  0
  184.9390  175.0140  137.1900 C   0  0  0  0  0  0  0  0  0  0  0  0
  185.9490  174.2630  137.1990 O   0  0  0  0  0  0  0  0  0  0  0  0
  183.3010  174.2750  137.2160 S   0  0  0  0  0  0  0  0  0  0  0  0
  182.5070  175.7970  137.8170 C   0  0  0  0  0  2  0  0  0  0  0  0
  182.8960  177.0370  139.9240 C   0  0  0  0  0  1  0  0  0  0  0  0
  180.9000  175.6030  139.7050 C   0  0  0  0  0  1  0  0  0  0  0  0
  182.3590  175.7530  139.3270 C   0  0  0  0  0  3  0  0  0  0  0  0
  1 12  1  0  0  0  0
  2  8  1  0  0  0  0
  3 18  2  0  0  0  0
  4  9  1  6  0  0  0
  4 14  1  0  0  0  0
  5 10  2  0  0  0  0
  6  5  1  0  0  0  0
  6  2  2  0  0  0  0
  8  1  2  0  0  0  0
  8  3  1  0  0  0  0
 10  1  1  0  0  0  0
 12 11  2  0  0  0  0
 13  2  1  0  0  0  0
 14 15  1  0  0  0  0
 15 18  1  6  0  0  0
 15 21  1  0  0  0  0
 16 26  1  1  0  0  0
 16  7  1  0  0  0  0
 16  9  1  0  0  0  0
 17  7  1  6  0  0  0
 17  3  1  0  0  0  0
 17  4  1  0  0  0  0
 18 11  1  0  0  0  0
 19 20  1  6  0  0  0
 21 24  1  6  0  0  0
 21 23  1  0  0  0  0
 22 19  1  0  0  0  0
 23 25  1  6  0  0  0
 23 19  1  0  0  0  0
 24 22  1  0  0  0  0
 26 27  1  0  0  0  0
 27 28  1  0  0  0  0
 28 29  2  0  0  0  0
 28 30  1  0  0  0  0
 30 31  1  0  0  0  0
 31 34  1  0  0  0  0
 34 33  1  0  0  0  0
 34 32  1  0  0  0  0
M  END
>  <MODEL>
7

>  <REMARK>
 VINA RESULT:      -6.9      3.809      8.964
  Name = 
  7 active torsions:
  status: ('A' for Active; 'I' for Inactive)
    1  A    between atoms: O_3  and  C_13
    2  A    between atoms: O_3  and  C_17
    3  A    between atoms: S_11  and  C_13
    4  A    between atoms: S_11  and  C_14
    5  A    between atoms: C_12  and  C_28
    6  A    between atoms: C_14  and  C_34
    7  A    between atoms: C_17  and  C_29
                            x       y       z     vdW  Elec       q    Type
                         _______ _______ _______ _____ _____    ______ ____

>  <TORSDO>
F 7

$$$$
