=
 OpenBabel10272414113D

 43 49  0  0  1  0  0  0  0  0999 V2000
  187.4370  177.6780  147.2860 C   0  0  0  0  0  0  0  0  0  0  0  0
  187.0870  178.0060  142.1610 C   0  0  2  0  0  3  0  0  0  0  0  0
  184.4120  178.1040  141.5110 C   0  0  2  0  0  3  0  0  0  0  0  0
  187.8690  177.6070  144.8990 C   0  0  0  0  0  0  0  0  0  0  0  0
  186.2340  178.3460  147.0520 C   0  0  0  0  0  3  0  0  0  0  0  0
  187.8240  177.3920  148.5870 O   0  0  0  0  0  1  0  0  0  0  0  0
  186.6280  178.2510  144.6530 C   0  0  0  0  0  0  0  0  0  0  0  0
  188.2500  177.3130  146.2120 C   0  0  0  0  0  3  0  0  0  0  0  0
  185.8350  178.6350  145.7440 C   0  0  0  0  0  3  0  0  0  0  0  0
  184.7350  178.3540  142.9960 C   0  0  0  0  0  2  0  0  0  0  0  0
  186.2170  178.6430  143.2550 C   0  0  2  0  0  3  0  0  0  0  0  0
  188.5650  178.0590  142.5360 C   0  0  0  0  0  2  0  0  0  0  0  0
  186.8050  178.6810  140.8100 C   0  0  2  0  0  3  0  0  0  0  0  0
  185.2930  178.9330  140.5720 C   0  0  0  0  0  2  0  0  0  0  0  0
  188.7760  177.1960  143.7740 C   0  0  0  0  0  2  0  0  0  0  0  0
  187.4640  177.9360  139.6400 C   0  0  2  0  0  3  0  0  0  0  0  0
  188.0590  176.0940  137.4100 C   0  0  0  0  0  2  0  0  0  0  0  0
  189.5480  176.3390  137.6630 C   0  0  0  0  0  0  0  0  0  0  0  0
  190.2010  175.1210  137.5510 F   0  0  0  0  0  0  0  0  0  0  0  0
  189.1440  178.5710  139.3170 S   0  0  0  0  0  0  0  0  0  0  0  0
  187.3040  177.3920  137.1370 C   0  0  0  0  0  2  0  0  0  0  0  0
  186.5880  177.9200  138.3770 C   0  0  0  0  0  2  0  0  0  0  0  0
  190.0660  177.2010  136.7120 F   0  0  0  0  0  0  0  0  0  0  0  0
  189.8140  176.8910  139.0690 C   0  0  0  0  0  2  0  0  0  0  0  0
  182.9580  178.3040  141.2330 C   0  0  0  0  0  0  0  0  0  0  0  0
  182.3560  177.5770  140.1580 N   0  0  0  0  0  2  0  0  0  0  0  0
  182.1950  178.8230  142.1440 N   0  0  0  0  0  2  0  0  0  0  0  0
  182.5240  177.9360  138.7510 C   0  0  2  0  0  3  0  0  0  0  0  0
  182.3860  179.4330  138.5470 C   0  0  0  0  0  1  0  0  0  0  0  0
  181.5110  177.1670  137.8680 C   0  0  2  0  0  3  0  0  0  0  0  0
  181.9130  175.7990  137.4780 C   0  0  1  0  0  3  0  0  0  0  0  0
  183.6270  177.2570  134.7550 C   0  0  0  0  0  1  0  0  0  0  0  0
  181.9460  176.8690  136.4740 N   0  0  2  0  0  0  0  0  0  0  0  0
  183.3630  175.4420  137.7260 C   0  0  2  0  0  3  0  0  0  0  0  0
  184.1540  176.0660  136.7520 O   0  0  0  0  0  0  0  0  0  0  0  0
  183.3710  177.1170  136.2410 C   0  0  1  0  0  3  0  0  0  0  0  0
  182.6530  173.2310  136.8490 C   0  0  0  0  0  2  0  0  0  0  0  0
  183.5430  173.9840  137.7530 N   0  0  1  0  0  0  0  0  0  0  0  0
  186.7310  173.3600  136.0330 F   0  0  0  0  0  0  0  0  0  0  0  0
  184.5470  172.8500  135.2620 C   0  0  0  0  0  2  0  0  0  0  0  0
  185.4120  173.7450  136.1310 C   0  0  1  0  0  3  0  0  0  0  0  0
  183.0960  173.2900  135.3850 C   0  0  0  0  0  2  0  0  0  0  0  0
  184.9590  173.6370  137.5880 C   0  0  0  0  0  2  0  0  0  0  0  0
  1  6  1  0  0  0  0
  2 12  1  1  0  0  0
  2 11  1  0  0  0  0
  3 25  1  1  0  0  0
  3 10  1  0  0  0  0
  4  8  1  0  0  0  0
  5  1  1  0  0  0  0
  7  4  2  0  0  0  0
  7  9  1  0  0  0  0
  8  1  2  0  0  0  0
  9  5  2  0  0  0  0
 11 10  1  6  0  0  0
 11  7  1  0  0  0  0
 12 15  1  0  0  0  0
 13 14  1  6  0  0  0
 13  2  1  0  0  0  0
 14  3  1  0  0  0  0
 15  4  1  0  0  0  0
 16 22  1  6  0  0  0
 16 13  1  0  0  0  0
 17 18  1  0  0  0  0
 18 24  1  0  0  0  0
 19 18  1  0  0  0  0
 20 16  1  0  0  0  0
 21 17  1  0  0  0  0
 21 22  1  0  0  0  0
 23 18  1  0  0  0  0
 24 20  1  0  0  0  0
 25 27  2  0  0  0  0
 26 25  1  0  0  0  0
 28 29  1  1  0  0  0
 28 26  1  0  0  0  0
 30 28  1  1  0  0  0
 31 34  1  0  0  0  0
 31 30  1  0  0  0  0
 32 36  1  0  0  0  0
 33 31  1  0  0  0  0
 33 30  1  0  0  0  0
 34 38  1  0  0  0  0
 35 34  1  0  0  0  0
 36 33  1  0  0  0  0
 36 35  1  0  0  0  0
 37 38  1  0  0  0  0
 39 41  1  0  0  0  0
 40 42  1  0  0  0  0
 40 41  1  0  0  0  0
 41 43  1  0  0  0  0
 42 37  1  0  0  0  0
 43 38  1  0  0  0  0
M  END
>  <MODEL>
1

>  <REMARK>
 VINA RESULT:      -9.6      0.000      0.000
  Name = 
  5 active torsions:
  status: ('A' for Active; 'I' for Inactive)
    1  A    between atoms: C_1  and  C_34
    2  A    between atoms: C_2  and  C_13
    3  A    between atoms: C_3  and  C_12
    4  A    between atoms: N_6  and  C_12
    5  A    between atoms: N_14  and  C_22
                            x       y       z     vdW  Elec       q    Type
                         _______ _______ _______ _____ _____    ______ ____

>  <TORSDO>
F 5

$$$$
=
 OpenBabel10272414113D

 43 49  0  0  1  0  0  0  0  0999 V2000
  186.9420  177.3640  144.5040 C   0  0  0  0  0  0  0  0  0  0  0  0
  189.7110  176.9100  140.1890 C   0  0  2  0  0  3  0  0  0  0  0  0
  188.1120  177.6840  138.0840 C   0  0  2  0  0  3  0  0  0  0  0  0
  188.6020  176.7670  142.8370 C   0  0  0  0  0  0  0  0  0  0  0  0
  186.4000  178.3080  143.6300 C   0  0  0  0  0  3  0  0  0  0  0  0
  186.3940  177.2000  145.7680 O   0  0  0  0  0  1  0  0  0  0  0  0
  188.0310  177.6970  141.9310 C   0  0  0  0  0  0  0  0  0  0  0  0
  188.0400  176.5990  144.1070 C   0  0  0  0  0  3  0  0  0  0  0  0
  186.9450  178.4770  142.3540 C   0  0  0  0  0  3  0  0  0  0  0  0
  187.5920  178.0740  139.4810 C   0  0  0  0  0  2  0  0  0  0  0  0
  188.6520  177.9510  140.5790 C   0  0  2  0  0  3  0  0  0  0  0  0
  190.6230  176.5870  141.3690 C   0  0  0  0  0  2  0  0  0  0  0  0
  190.4990  177.4000  138.9630 C   0  0  2  0  0  3  0  0  0  0  0  0
  189.5880  178.0440  137.8860 C   0  0  0  0  0  2  0  0  0  0  0  0
  189.7840  175.9220  142.4540 C   0  0  0  0  0  2  0  0  0  0  0  0
  191.4080  176.3080  138.3830 C   0  0  2  0  0  3  0  0  0  0  0  0
  192.5070  173.7670  137.3550 C   0  0  0  0  0  2  0  0  0  0  0  0
  193.9050  174.2760  137.7170 C   0  0  0  0  0  0  0  0  0  0  0  0
  194.6060  173.2190  138.2760 F   0  0  0  0  0  0  0  0  0  0  0  0
  193.0960  176.9370  138.0960 S   0  0  0  0  0  0  0  0  0  0  0  0
  191.7810  174.7150  136.4050 C   0  0  0  0  0  2  0  0  0  0  0  0
  190.8100  175.6390  137.1350 C   0  0  0  0  0  2  0  0  0  0  0  0
  194.5770  174.6940  136.5820 F   0  0  0  0  0  0  0  0  0  0  0  0
  193.8590  175.4120  138.7470 C   0  0  0  0  0  2  0  0  0  0  0  0
  187.2490  178.2550  137.0060 C   0  0  0  0  0  0  0  0  0  0  0  0
  185.9710  177.6630  136.7630 N   0  0  0  0  0  2  0  0  0  0  0  0
  187.4820  179.4510  136.5640 N   0  0  0  0  0  2  0  0  0  0  0  0
  185.7910  176.4060  136.0370 C   0  0  2  0  0  3  0  0  0  0  0  0
  186.8860  176.2070  135.0060 C   0  0  0  0  0  1  0  0  0  0  0  0
  184.3950  176.3570  135.3700 C   0  0  2  0  0  3  0  0  0  0  0  0
  183.2470  176.5660  136.2770 C   0  0  1  0  0  3  0  0  0  0  0  0
  183.3670  173.1030  136.9620 C   0  0  0  0  0  1  0  0  0  0  0  0
  183.5170  175.2180  135.7640 N   0  0  2  0  0  0  0  0  0  0  0  0
  183.5540  176.4980  137.7570 C   0  0  2  0  0  3  0  0  0  0  0  0
  183.7300  175.1550  138.1200 O   0  0  0  0  0  0  0  0  0  0  0  0
  184.0140  174.4720  136.9230 C   0  0  1  0  0  3  0  0  0  0  0  0
  182.4760  176.8120  139.9710 C   0  0  0  0  0  2  0  0  0  0  0  0
  182.5010  177.1620  138.5390 N   0  0  1  0  0  0  0  0  0  0  0  0
  183.5760  180.6640  138.8460 F   0  0  0  0  0  0  0  0  0  0  0  0
  183.4930  179.0210  140.5540 C   0  0  0  0  0  2  0  0  0  0  0  0
  183.6420  179.3060  139.0700 C   0  0  1  0  0  3  0  0  0  0  0  0
  183.5660  177.5190  140.7810 C   0  0  0  0  0  2  0  0  0  0  0  0
  182.5200  178.6100  138.2990 C   0  0  0  0  0  2  0  0  0  0  0  0
  1  6  1  0  0  0  0
  2 11  1  0  0  0  0
  2 12  1  1  0  0  0
  3 25  1  6  0  0  0
  3 10  1  0  0  0  0
  4  8  2  0  0  0  0
  5  1  2  0  0  0  0
  7  9  2  0  0  0  0
  7  4  1  0  0  0  0
  8  1  1  0  0  0  0
  9  5  1  0  0  0  0
 11 10  1  6  0  0  0
 11  7  1  0  0  0  0
 12 15  1  0  0  0  0
 13 14  1  6  0  0  0
 13  2  1  0  0  0  0
 14  3  1  0  0  0  0
 15  4  1  0  0  0  0
 16 22  1  6  0  0  0
 16 13  1  0  0  0  0
 17 18  1  0  0  0  0
 18 19  1  0  0  0  0
 18 24  1  0  0  0  0
 20 16  1  0  0  0  0
 20 24  1  0  0  0  0
 21 22  1  0  0  0  0
 21 17  1  0  0  0  0
 23 18  1  0  0  0  0
 26 25  1  0  0  0  0
 27 25  2  0  0  0  0
 28 29  1  6  0  0  0
 28 26  1  0  0  0  0
 30 33  1  0  0  0  0
 30 28  1  1  0  0  0
 30 31  1  0  0  0  0
 31 34  1  0  0  0  0
 33 31  1  0  0  0  0
 33 36  1  0  0  0  0
 34 35  1  0  0  0  0
 34 38  1  0  0  0  0
 36 32  1  0  0  0  0
 36 35  1  0  0  0  0
 37 42  1  0  0  0  0
 38 37  1  0  0  0  0
 39 41  1  0  0  0  0
 40 42  1  0  0  0  0
 41 40  1  0  0  0  0
 43 38  1  0  0  0  0
 43 41  1  0  0  0  0
M  END
>  <MODEL>
2

>  <REMARK>
 VINA RESULT:      -8.9      2.721      4.670
  Name = 
  5 active torsions:
  status: ('A' for Active; 'I' for Inactive)
    1  A    between atoms: C_1  and  C_34
    2  A    between atoms: C_2  and  C_13
    3  A    between atoms: C_3  and  C_12
    4  A    between atoms: N_6  and  C_12
    5  A    between atoms: N_14  and  C_22
                            x       y       z     vdW  Elec       q    Type
                         _______ _______ _______ _____ _____    ______ ____

>  <TORSDO>
F 5

$$$$
=
 OpenBabel10272414113D

 43 49  0  0  1  0  0  0  0  0999 V2000
  189.8060  176.8530  146.3790 C   0  0  0  0  0  0  0  0  0  0  0  0
  188.1920  177.7170  141.5680 C   0  0  2  0  0  3  0  0  0  0  0  0
  185.4480  177.9470  141.6350 C   0  0  2  0  0  3  0  0  0  0  0  0
  189.6180  177.0190  143.9650 C   0  0  0  0  0  0  0  0  0  0  0  0
  188.6180  177.5700  146.5240 C   0  0  0  0  0  3  0  0  0  0  0  0
  190.4940  176.4250  147.5050 O   0  0  0  0  0  1  0  0  0  0  0  0
  188.3890  177.7140  144.1050 C   0  0  0  0  0  0  0  0  0  0  0  0
  190.3030  176.5820  145.1030 C   0  0  0  0  0  3  0  0  0  0  0  0
  187.9170  178.0030  145.3940 C   0  0  0  0  0  3  0  0  0  0  0  0
  186.1470  178.0340  143.0060 C   0  0  0  0  0  2  0  0  0  0  0  0
  187.6590  178.2590  142.9030 C   0  0  2  0  0  3  0  0  0  0  0  0
  189.7180  177.6960  141.5550 C   0  0  0  0  0  2  0  0  0  0  0  0
  187.6130  178.5350  140.4030 C   0  0  2  0  0  3  0  0  0  0  0  0
  186.1040  178.8470  140.5840 C   0  0  0  0  0  2  0  0  0  0  0  0
  190.1910  176.7040  142.6120 C   0  0  0  0  0  2  0  0  0  0  0  0
  187.9190  177.9000  139.0390 C   0  0  2  0  0  3  0  0  0  0  0  0
  187.9510  176.1680  136.6470 C   0  0  0  0  0  2  0  0  0  0  0  0
  189.3810  176.6420  136.3780 C   0  0  0  0  0  0  0  0  0  0  0  0
  190.1220  175.5390  135.9810 F   0  0  0  0  0  0  0  0  0  0  0  0
  189.2640  178.7870  138.1850 S   0  0  0  0  0  0  0  0  0  0  0  0
  186.9660  177.3320  136.7230 C   0  0  0  0  0  2  0  0  0  0  0  0
  186.6650  177.7460  138.1620 C   0  0  0  0  0  2  0  0  0  0  0  0
  189.3980  177.5710  135.3530 F   0  0  0  0  0  0  0  0  0  0  0  0
  190.0420  177.2310  137.6300 C   0  0  0  0  0  2  0  0  0  0  0  0
  183.9830  178.2100  141.7580 C   0  0  0  0  0  0  0  0  0  0  0  0
  183.0850  177.5300  140.8770 N   0  0  0  0  0  2  0  0  0  0  0  0
  183.5150  178.7400  142.8450 N   0  0  0  0  0  2  0  0  0  0  0  0
  182.8860  177.9100  139.4800 C   0  0  2  0  0  3  0  0  0  0  0  0
  182.7740  179.4160  139.3320 C   0  0  0  0  0  1  0  0  0  0  0  0
  181.6360  177.2070  138.8960 C   0  0  2  0  0  3  0  0  0  0  0  0
  181.8780  175.8900  138.2710 C   0  0  1  0  0  3  0  0  0  0  0  0
  182.6550  177.6260  135.2950 C   0  0  0  0  0  1  0  0  0  0  0  0
  181.6020  177.0480  137.4150 N   0  0  2  0  0  0  0  0  0  0  0  0
  183.3270  175.5380  138.0120 C   0  0  2  0  0  3  0  0  0  0  0  0
  183.7750  176.2650  136.9000 O   0  0  0  0  0  0  0  0  0  0  0  0
  182.8830  177.3440  136.7660 C   0  0  1  0  0  3  0  0  0  0  0  0
  182.4270  173.4310  137.0580 C   0  0  0  0  0  2  0  0  0  0  0  0
  183.4890  174.0880  137.8430 N   0  0  1  0  0  0  0  0  0  0  0  0
  186.2620  173.6840  135.4650 F   0  0  0  0  0  0  0  0  0  0  0  0
  183.9620  173.2420  135.0930 C   0  0  0  0  0  2  0  0  0  0  0  0
  184.9950  174.0440  135.8660 C   0  0  1  0  0  3  0  0  0  0  0  0
  182.5710  173.6540  135.5500 C   0  0  0  0  0  2  0  0  0  0  0  0
  184.8390  173.7730  137.3620 C   0  0  0  0  0  2  0  0  0  0  0  0
  1  5  1  0  0  0  0
  1  6  1  0  0  0  0
  2 12  1  1  0  0  0
  2 11  1  0  0  0  0
  3 25  1  1  0  0  0
  3 10  1  0  0  0  0
  4  7  2  0  0  0  0
  4  8  1  0  0  0  0
  7  9  1  0  0  0  0
  8  1  2  0  0  0  0
  9  5  2  0  0  0  0
 11 10  1  1  0  0  0
 11  7  1  0  0  0  0
 12 15  1  0  0  0  0
 13 14  1  1  0  0  0
 13  2  1  0  0  0  0
 14  3  1  0  0  0  0
 15  4  1  0  0  0  0
 16 22  1  6  0  0  0
 16 13  1  0  0  0  0
 17 21  1  0  0  0  0
 18 17  1  0  0  0  0
 18 24  1  0  0  0  0
 19 18  1  0  0  0  0
 20 16  1  0  0  0  0
 21 22  1  0  0  0  0
 23 18  1  0  0  0  0
 24 20  1  0  0  0  0
 25 27  2  0  0  0  0
 26 25  1  0  0  0  0
 28 29  1  1  0  0  0
 28 26  1  0  0  0  0
 30 28  1  6  0  0  0
 31 30  1  0  0  0  0
 32 36  1  0  0  0  0
 33 31  1  0  0  0  0
 33 30  1  0  0  0  0
 34 31  1  0  0  0  0
 35 34  1  0  0  0  0
 36 35  1  0  0  0  0
 36 33  1  0  0  0  0
 37 38  1  0  0  0  0
 38 34  1  0  0  0  0
 39 41  1  0  0  0  0
 40 42  1  0  0  0  0
 40 41  1  0  0  0  0
 41 43  1  0  0  0  0
 42 37  1  0  0  0  0
 43 38  1  0  0  0  0
M  END
>  <MODEL>
3

>  <REMARK>
 VINA RESULT:      -8.7      1.138      1.378
  Name = 
  5 active torsions:
  status: ('A' for Active; 'I' for Inactive)
    1  A    between atoms: C_1  and  C_34
    2  A    between atoms: C_2  and  C_13
    3  A    between atoms: C_3  and  C_12
    4  A    between atoms: N_6  and  C_12
    5  A    between atoms: N_14  and  C_22
                            x       y       z     vdW  Elec       q    Type
                         _______ _______ _______ _____ _____    ______ ____

>  <TORSDO>
F 5

$$$$
=
 OpenBabel10272414113D

 43 49  0  0  1  0  0  0  0  0999 V2000
  181.5400  178.8370  140.3160 C   0  0  0  0  0  0  0  0  0  0  0  0
  186.5890  178.3700  141.2020 C   0  0  2  0  0  3  0  0  0  0  0  0
  187.8270  177.9400  138.7790 C   0  0  2  0  0  3  0  0  0  0  0  0
  183.7190  178.4970  141.3280 C   0  0  0  0  0  0  0  0  0  0  0  0
  182.1510  179.2610  139.1350 C   0  0  0  0  0  3  0  0  0  0  0  0
  180.1560  178.8060  140.4020 O   0  0  0  0  0  1  0  0  0  0  0  0
  184.3460  178.8900  140.1170 C   0  0  0  0  0  0  0  0  0  0  0  0
  182.3230  178.4590  141.4070 C   0  0  0  0  0  3  0  0  0  0  0  0
  183.5450  179.2930  139.0380 C   0  0  0  0  0  3  0  0  0  0  0  0
  186.3750  178.4490  138.6930 C   0  0  0  0  0  2  0  0  0  0  0  0
  185.8470  179.0070  140.0180 C   0  0  2  0  0  3  0  0  0  0  0  0
  185.9090  178.7140  142.5240 C   0  0  0  0  0  2  0  0  0  0  0  0
  188.0660  178.7910  141.1810 C   0  0  2  0  0  3  0  0  0  0  0  0
  188.6760  178.7590  139.7560 C   0  0  0  0  0  2  0  0  0  0  0  0
  184.5220  178.0830  142.5280 C   0  0  0  0  0  2  0  0  0  0  0  0
  188.9090  178.0040  142.1960 C   0  0  2  0  0  3  0  0  0  0  0  0
  189.8660  176.5380  144.5740 C   0  0  0  0  0  2  0  0  0  0  0  0
  191.2950  176.9140  144.1760 C   0  0  0  0  0  0  0  0  0  0  0  0
  191.9750  177.2660  145.3320 F   0  0  0  0  0  0  0  0  0  0  0  0
  190.6080  177.7470  141.5850 S   0  0  0  0  0  0  0  0  0  0  0  0
  189.1420  175.7830  143.4620 C   0  0  0  0  0  2  0  0  0  0  0  0
  188.2370  176.6930  142.6360 C   0  0  0  0  0  2  0  0  0  0  0  0
  191.9390  175.8320  143.6040 F   0  0  0  0  0  0  0  0  0  0  0  0
  191.3340  178.1120  143.2190 C   0  0  0  0  0  2  0  0  0  0  0  0
  188.4530  177.8610  137.4250 C   0  0  0  0  0  0  0  0  0  0  0  0
  187.9430  176.9110  136.4860 N   0  0  0  0  0  2  0  0  0  0  0  0
  189.1740  178.8480  136.9920 N   0  0  0  0  0  2  0  0  0  0  0  0
  188.2390  175.4810  136.5450 C   0  0  2  0  0  3  0  0  0  0  0  0
  189.6870  175.2370  136.9270 C   0  0  0  0  0  1  0  0  0  0  0  0
  187.9050  174.7990  135.1960 C   0  0  2  0  0  3  0  0  0  0  0  0
  186.5220  174.2960  135.0600 C   0  0  1  0  0  3  0  0  0  0  0  0
  187.6190  171.3270  136.6270 C   0  0  0  0  0  1  0  0  0  0  0  0
  187.6150  173.3380  135.2520 N   0  0  2  0  0  0  0  0  0  0  0  0
  185.7120  174.2380  136.3380 C   0  0  2  0  0  3  0  0  0  0  0  0
  186.1470  173.1430  137.0970 O   0  0  0  0  0  0  0  0  0  0  0  0
  187.4300  172.8300  136.6140 C   0  0  1  0  0  3  0  0  0  0  0  0
  183.4110  173.8730  137.1960 C   0  0  0  0  0  2  0  0  0  0  0  0
  184.2740  174.1870  136.0410 N   0  0  1  0  0  0  0  0  0  0  0  0
  183.2580  177.6820  135.5290 F   0  0  0  0  0  0  0  0  0  0  0  0
  182.7020  176.2660  137.3480 C   0  0  0  0  0  2  0  0  0  0  0  0
  183.7000  176.5970  136.2520 C   0  0  1  0  0  3  0  0  0  0  0  0
  183.2070  175.0650  138.1340 C   0  0  0  0  0  2  0  0  0  0  0  0
  183.8540  175.3950  135.3200 C   0  0  0  0  0  2  0  0  0  0  0  0
  1  6  1  0  0  0  0
  1  8  1  0  0  0  0
  2 12  1  1  0  0  0
  3 25  1  6  0  0  0
  3 14  1  0  0  0  0
  4  8  2  0  0  0  0
  4 15  1  0  0  0  0
  5  1  2  0  0  0  0
  7  4  1  0  0  0  0
  9  5  1  0  0  0  0
  9  7  2  0  0  0  0
 10  3  1  0  0  0  0
 11 10  1  6  0  0  0
 11  7  1  0  0  0  0
 11  2  1  0  0  0  0
 12 15  1  0  0  0  0
 13 14  1  6  0  0  0
 13  2  1  0  0  0  0
 13 16  1  0  0  0  0
 16 22  1  6  0  0  0
 18 17  1  0  0  0  0
 18 19  1  0  0  0  0
 20 16  1  0  0  0  0
 20 24  1  0  0  0  0
 21 17  1  0  0  0  0
 22 21  1  0  0  0  0
 23 18  1  0  0  0  0
 24 18  1  0  0  0  0
 26 28  1  0  0  0  0
 26 25  1  0  0  0  0
 27 25  2  0  0  0  0
 28 29  1  6  0  0  0
 30 33  1  0  0  0  0
 30 28  1  1  0  0  0
 31 30  1  0  0  0  0
 31 33  1  0  0  0  0
 31 34  1  0  0  0  0
 33 36  1  0  0  0  0
 34 35  1  0  0  0  0
 36 32  1  0  0  0  0
 36 35  1  0  0  0  0
 37 42  1  0  0  0  0
 38 34  1  0  0  0  0
 38 37  1  0  0  0  0
 39 41  1  0  0  0  0
 40 42  1  0  0  0  0
 41 40  1  0  0  0  0
 43 38  1  0  0  0  0
 43 41  1  0  0  0  0
M  END
>  <MODEL>
4

>  <REMARK>
 VINA RESULT:      -8.7      3.341      5.888
  Name = 
  5 active torsions:
  status: ('A' for Active; 'I' for Inactive)
    1  A    between atoms: C_1  and  C_34
    2  A    between atoms: C_2  and  C_13
    3  A    between atoms: C_3  and  C_12
    4  A    between atoms: N_6  and  C_12
    5  A    between atoms: N_14  and  C_22
                            x       y       z     vdW  Elec       q    Type
                         _______ _______ _______ _____ _____    ______ ____

>  <TORSDO>
F 5

$$$$
=
 OpenBabel10272414113D

 43 49  0  0  1  0  0  0  0  0999 V2000
  181.8590  178.8130  140.8920 C   0  0  0  0  0  0  0  0  0  0  0  0
  186.9210  178.2480  141.6350 C   0  0  2  0  0  3  0  0  0  0  0  0
  188.0470  177.5450  139.2210 C   0  0  2  0  0  3  0  0  0  0  0  0
  184.0640  178.4920  141.8520 C   0  0  0  0  0  0  0  0  0  0  0  0
  182.4360  179.1000  139.6530 C   0  0  0  0  0  3  0  0  0  0  0  0
  180.4790  178.8410  141.0310 O   0  0  0  0  0  1  0  0  0  0  0  0
  184.6550  178.7440  140.5870 C   0  0  0  0  0  0  0  0  0  0  0  0
  182.6720  178.5130  141.9850 C   0  0  0  0  0  3  0  0  0  0  0  0
  183.8250  179.0710  139.5040 C   0  0  0  0  0  3  0  0  0  0  0  0
  186.6100  178.0950  139.1390 C   0  0  0  0  0  2  0  0  0  0  0  0
  186.1540  178.7970  140.4220 C   0  0  2  0  0  3  0  0  0  0  0  0
  186.3060  178.7420  142.9410 C   0  0  0  0  0  2  0  0  0  0  0  0
  188.4090  178.6110  141.5190 C   0  0  2  0  0  3  0  0  0  0  0  0
  188.9610  178.4210  140.0820 C   0  0  0  0  0  2  0  0  0  0  0  0
  184.9000  178.1650  143.0570 C   0  0  0  0  0  2  0  0  0  0  0  0
  189.2650  177.8950  142.5740 C   0  0  2  0  0  3  0  0  0  0  0  0
  190.6390  175.8740  144.2320 C   0  0  0  0  0  2  0  0  0  0  0  0
  190.7070  176.9090  145.3580 C   0  0  0  0  0  0  0  0  0  0  0  0
  190.4140  176.2580  146.5460 F   0  0  0  0  0  0  0  0  0  0  0  0
  190.0370  179.0870  143.7180 S   0  0  0  0  0  0  0  0  0  0  0  0
  191.3000  176.3760  142.9520 C   0  0  0  0  0  2  0  0  0  0  0  0
  190.2870  176.9290  141.9520 C   0  0  0  0  0  2  0  0  0  0  0  0
  191.9830  177.4370  145.4530 F   0  0  0  0  0  0  0  0  0  0  0  0
  189.6860  178.0370  145.1710 C   0  0  0  0  0  2  0  0  0  0  0  0
  188.6160  177.3130  137.8600 C   0  0  0  0  0  0  0  0  0  0  0  0
  187.7610  176.7980  136.8360 N   0  0  0  0  0  2  0  0  0  0  0  0
  189.7240  177.8940  137.5200 N   0  0  0  0  0  2  0  0  0  0  0  0
  187.3650  175.3940  136.7480 C   0  0  2  0  0  3  0  0  0  0  0  0
  188.5790  174.4820  136.7370 C   0  0  0  0  0  1  0  0  0  0  0  0
  186.4880  175.1520  135.4960 C   0  0  2  0  0  3  0  0  0  0  0  0
  185.0550  175.4810  135.6470 C   0  0  1  0  0  3  0  0  0  0  0  0
  184.6120  172.2280  136.9490 C   0  0  0  0  0  1  0  0  0  0  0  0
  185.4650  174.0730  135.6080 N   0  0  2  0  0  0  0  0  0  0  0  0
  184.5780  175.7170  137.0650 C   0  0  2  0  0  3  0  0  0  0  0  0
  184.4710  174.4810  137.7160 O   0  0  0  0  0  0  0  0  0  0  0  0
  185.2720  173.5910  136.9780 C   0  0  1  0  0  3  0  0  0  0  0  0
  182.7300  176.7110  135.7390 C   0  0  0  0  0  2  0  0  0  0  0  0
  183.3180  176.4730  137.0710 N   0  0  1  0  0  0  0  0  0  0  0  0
  180.7910  174.1460  138.3800 F   0  0  0  0  0  0  0  0  0  0  0  0
  181.0020  174.9540  136.1610 C   0  0  0  0  0  2  0  0  0  0  0  0
  181.7040  174.6240  137.4660 C   0  0  1  0  0  3  0  0  0  0  0  0
  182.0250  175.4800  135.1660 C   0  0  0  0  0  2  0  0  0  0  0  0
  182.3690  175.8830  138.0230 C   0  0  0  0  0  2  0  0  0  0  0  0
  1  6  1  0  0  0  0
  1  8  1  0  0  0  0
  2 12  1  1  0  0  0
  3 25  1  6  0  0  0
  3 14  1  0  0  0  0
  4  8  2  0  0  0  0
  4 15  1  0  0  0  0
  5  1  2  0  0  0  0
  7  4  1  0  0  0  0
  9  5  1  0  0  0  0
  9  7  2  0  0  0  0
 10  3  1  0  0  0  0
 11 10  1  6  0  0  0
 11  7  1  0  0  0  0
 11  2  1  0  0  0  0
 12 15  1  0  0  0  0
 13 14  1  6  0  0  0
 13  2  1  0  0  0  0
 13 16  1  0  0  0  0
 16 22  1  6  0  0  0
 16 20  1  0  0  0  0
 17 18  1  0  0  0  0
 18 23  1  0  0  0  0
 18 19  1  0  0  0  0
 20 24  1  0  0  0  0
 21 17  1  0  0  0  0
 22 21  1  0  0  0  0
 24 18  1  0  0  0  0
 26 25  1  0  0  0  0
 27 25  2  0  0  0  0
 28 29  1  6  0  0  0
 28 26  1  0  0  0  0
 30 33  1  0  0  0  0
 30 31  1  0  0  0  0
 30 28  1  1  0  0  0
 31 34  1  0  0  0  0
 32 36  1  0  0  0  0
 33 31  1  0  0  0  0
 33 36  1  0  0  0  0
 34 38  1  0  0  0  0
 34 35  1  0  0  0  0
 36 35  1  0  0  0  0
 37 38  1  0  0  0  0
 38 43  1  0  0  0  0
 40 41  1  0  0  0  0
 41 43  1  0  0  0  0
 41 39  1  0  0  0  0
 42 37  1  0  0  0  0
 42 40  1  0  0  0  0
M  END
>  <MODEL>
5

>  <REMARK>
 VINA RESULT:      -8.0      3.293      5.717
  Name = 
  5 active torsions:
  status: ('A' for Active; 'I' for Inactive)
    1  A    between atoms: C_1  and  C_34
    2  A    between atoms: C_2  and  C_13
    3  A    between atoms: C_3  and  C_12
    4  A    between atoms: N_6  and  C_12
    5  A    between atoms: N_14  and  C_22
                            x       y       z     vdW  Elec       q    Type
                         _______ _______ _______ _____ _____    ______ ____

>  <TORSDO>
F 5

$$$$
=
 OpenBabel10272414113D

 43 49  0  0  1  0  0  0  0  0999 V2000
  187.4410  178.2590  147.2690 C   0  0  0  0  0  0  0  0  0  0  0  0
  185.4060  178.4180  142.5430 C   0  0  2  0  0  3  0  0  0  0  0  0
  187.4860  178.4240  140.7370 C   0  0  2  0  0  3  0  0  0  0  0  0
  185.9710  178.5460  145.3590 C   0  0  0  0  0  0  0  0  0  0  0  0
  188.3860  177.6350  146.4520 C   0  0  0  0  0  3  0  0  0  0  0  0
  187.6980  178.4160  148.6230 O   0  0  0  0  0  1  0  0  0  0  0  0
  186.9430  177.9480  144.5170 C   0  0  0  0  0  0  0  0  0  0  0  0
  186.2380  178.7100  146.7220 C   0  0  0  0  0  3  0  0  0  0  0  0
  188.1350  177.4760  145.0860 C   0  0  0  0  0  3  0  0  0  0  0  0
  187.8690  178.0300  142.1770 C   0  0  0  0  0  2  0  0  0  0  0  0
  186.6610  177.6950  143.0570 C   0  0  2  0  0  3  0  0  0  0  0  0
  184.2610  178.3060  143.5450 C   0  0  0  0  0  2  0  0  0  0  0  0
  185.0210  177.8770  141.1580 C   0  0  2  0  0  3  0  0  0  0  0  0
  186.2500  177.6720  140.2340 C   0  0  0  0  0  2  0  0  0  0  0  0
  184.6620  179.0460  144.8160 C   0  0  0  0  0  2  0  0  0  0  0  0
  183.9220  178.7170  140.4910 C   0  0  2  0  0  3  0  0  0  0  0  0
  182.3710  180.8860  139.2220 C   0  0  0  0  0  2  0  0  0  0  0  0
  181.0940  180.1880  139.6930 C   0  0  0  0  0  0  0  0  0  0  0  0
  180.2250  181.1650  140.1540 F   0  0  0  0  0  0  0  0  0  0  0  0
  182.3690  177.7730  140.3420 S   0  0  0  0  0  0  0  0  0  0  0  0
  183.2380  179.9730  138.3590 C   0  0  0  0  0  2  0  0  0  0  0  0
  184.3710  179.3270  139.1530 C   0  0  0  0  0  2  0  0  0  0  0  0
  180.4870  179.5260  138.6400 F   0  0  0  0  0  0  0  0  0  0  0  0
  181.3580  179.2080  140.8430 C   0  0  0  0  0  2  0  0  0  0  0  0
  188.6470  178.2740  139.8090 C   0  0  0  0  0  0  0  0  0  0  0  0
  188.5470  178.8140  138.4900 N   0  0  0  0  0  2  0  0  0  0  0  0
  189.8200  177.9970  140.2880 N   0  0  0  0  0  2  0  0  0  0  0  0
  187.7920  178.1750  137.4120 C   0  0  2  0  0  3  0  0  0  0  0  0
  186.6250  179.0400  136.9740 C   0  0  0  0  0  1  0  0  0  0  0  0
  187.3030  176.7730  137.8470 C   0  0  2  0  0  3  0  0  0  0  0  0
  188.2580  175.6670  137.6270 C   0  0  1  0  0  3  0  0  0  0  0  0
  186.9710  175.4240  134.3470 C   0  0  0  0  0  1  0  0  0  0  0  0
  187.0860  175.7840  136.7530 N   0  0  2  0  0  0  0  0  0  0  0  0
  189.4460  175.9860  136.7450 C   0  0  2  0  0  3  0  0  0  0  0  0
  189.0190  176.0220  135.4100 O   0  0  0  0  0  0  0  0  0  0  0  0
  187.6270  176.2130  135.4610 C   0  0  1  0  0  3  0  0  0  0  0  0
  191.3750  174.7530  135.7860 C   0  0  0  0  0  2  0  0  0  0  0  0
  190.5330  175.0220  136.9670 N   0  0  1  0  0  0  0  0  0  0  0  0
  193.0120  176.8020  139.0160 F   0  0  0  0  0  0  0  0  0  0  0  0
  193.2100  176.1570  136.7430 C   0  0  0  0  0  2  0  0  0  0  0  0
  192.2790  176.5380  137.8810 C   0  0  1  0  0  3  0  0  0  0  0  0
  192.3820  175.8700  135.4990 C   0  0  0  0  0  2  0  0  0  0  0  0
  191.3100  175.3880  138.1570 C   0  0  0  0  0  2  0  0  0  0  0  0
  1  6  1  0  0  0  0
  2 11  1  0  0  0  0
  2 12  1  1  0  0  0
  3 25  1  6  0  0  0
  3 10  1  0  0  0  0
  4  8  2  0  0  0  0
  5  1  2  0  0  0  0
  7  9  2  0  0  0  0
  7  4  1  0  0  0  0
  8  1  1  0  0  0  0
  9  5  1  0  0  0  0
 11 10  1  6  0  0  0
 11  7  1  0  0  0  0
 12 15  1  0  0  0  0
 13 14  1  6  0  0  0
 13  2  1  0  0  0  0
 14  3  1  0  0  0  0
 15  4  1  0  0  0  0
 16 22  1  6  0  0  0
 16 13  1  0  0  0  0
 17 18  1  0  0  0  0
 18 19  1  0  0  0  0
 18 24  1  0  0  0  0
 20 16  1  0  0  0  0
 20 24  1  0  0  0  0
 21 22  1  0  0  0  0
 21 17  1  0  0  0  0
 23 18  1  0  0  0  0
 25 27  2  0  0  0  0
 26 25  1  0  0  0  0
 28 29  1  1  0  0  0
 28 26  1  0  0  0  0
 30 28  1  6  0  0  0
 31 30  1  0  0  0  0
 32 36  1  0  0  0  0
 33 31  1  0  0  0  0
 33 30  1  0  0  0  0
 34 38  1  0  0  0  0
 34 31  1  0  0  0  0
 35 36  1  0  0  0  0
 35 34  1  0  0  0  0
 36 33  1  0  0  0  0
 37 38  1  0  0  0  0
 38 43  1  0  0  0  0
 40 41  1  0  0  0  0
 41 43  1  0  0  0  0
 41 39  1  0  0  0  0
 42 37  1  0  0  0  0
 42 40  1  0  0  0  0
M  END
>  <MODEL>
6

>  <REMARK>
 VINA RESULT:      -7.6      3.577      5.958
  Name = 
  5 active torsions:
  status: ('A' for Active; 'I' for Inactive)
    1  A    between atoms: C_1  and  C_34
    2  A    between atoms: C_2  and  C_13
    3  A    between atoms: C_3  and  C_12
    4  A    between atoms: N_6  and  C_12
    5  A    between atoms: N_14  and  C_22
                            x       y       z     vdW  Elec       q    Type
                         _______ _______ _______ _____ _____    ______ ____

>  <TORSDO>
F 5

$$$$
=
 OpenBabel10272414113D

 43 49  0  0  1  0  0  0  0  0999 V2000
  185.1910  172.0990  136.1400 C   0  0  0  0  0  0  0  0  0  0  0  0
  189.6880  174.5480  136.6620 C   0  0  2  0  0  3  0  0  0  0  0  0
  189.1430  177.1580  137.3560 C   0  0  2  0  0  3  0  0  0  0  0  0
  187.5230  172.7640  136.0360 C   0  0  0  0  0  0  0  0  0  0  0  0
  184.9380  173.1180  137.0590 C   0  0  0  0  0  3  0  0  0  0  0  0
  184.1620  171.2570  135.7450 O   0  0  0  0  0  1  0  0  0  0  0  0
  187.2630  173.8260  136.9400 C   0  0  0  0  0  0  0  0  0  0  0  0
  186.4800  171.9230  135.6330 C   0  0  0  0  0  3  0  0  0  0  0  0
  185.9690  173.9730  137.4610 C   0  0  0  0  0  3  0  0  0  0  0  0
  187.9580  176.1810  137.4930 C   0  0  0  0  0  2  0  0  0  0  0  0
  188.3770  174.7090  137.4460 C   0  0  2  0  0  3  0  0  0  0  0  0
  189.9830  173.0770  136.3830 C   0  0  0  0  0  2  0  0  0  0  0  0
  190.8350  175.2390  137.4150 C   0  0  2  0  0  3  0  0  0  0  0  0
  190.4240  176.6170  137.9960 C   0  0  0  0  0  2  0  0  0  0  0  0
  188.8940  172.5360  135.4650 C   0  0  0  0  0  2  0  0  0  0  0  0
  192.1180  175.3180  136.5740 C   0  0  2  0  0  3  0  0  0  0  0  0
  194.1630  175.0150  134.4660 C   0  0  0  0  0  2  0  0  0  0  0  0
  195.2310  175.3050  135.5220 C   0  0  0  0  0  0  0  0  0  0  0  0
  196.2870  174.4340  135.3050 F   0  0  0  0  0  0  0  0  0  0  0  0
  193.4160  176.2640  137.4370 S   0  0  0  0  0  0  0  0  0  0  0  0
  193.1360  176.1390  134.3650 C   0  0  0  0  0  2  0  0  0  0  0  0
  191.8620  175.8340  135.1490 C   0  0  0  0  0  2  0  0  0  0  0  0
  195.7010  176.6010  135.3920 F   0  0  0  0  0  0  0  0  0  0  0  0
  194.7140  175.0770  136.9480 C   0  0  0  0  0  2  0  0  0  0  0  0
  188.7890  178.5130  137.8740 C   0  0  0  0  0  0  0  0  0  0  0  0
  188.8380  178.7450  139.2840 N   0  0  0  0  0  2  0  0  0  0  0  0
  188.7950  179.5300  137.0700 N   0  0  0  0  0  2  0  0  0  0  0  0
  187.8080  178.2820  140.2130 C   0  0  2  0  0  3  0  0  0  0  0  0
  186.4310  178.3420  139.5780 C   0  0  0  0  0  1  0  0  0  0  0  0
  187.8440  179.1080  141.5220 C   0  0  2  0  0  3  0  0  0  0  0  0
  189.0490  178.9250  142.3590 C   0  0  1  0  0  3  0  0  0  0  0  0
  187.4230  176.1450  143.8090 C   0  0  0  0  0  1  0  0  0  0  0  0
  187.7810  178.3300  142.7920 N   0  0  2  0  0  0  0  0  0  0  0  0
  189.9350  177.7530  141.9930 C   0  0  2  0  0  3  0  0  0  0  0  0
  189.3230  176.5720  142.4330 O   0  0  0  0  0  0  0  0  0  0  0  0
  187.9630  176.8880  142.6040 C   0  0  1  0  0  3  0  0  0  0  0  0
  191.3620  178.7850  143.7430 C   0  0  0  0  0  2  0  0  0  0  0  0
  191.2860  177.9310  142.5430 N   0  0  1  0  0  0  0  0  0  0  0  0
  192.1350  174.7130  144.1050 F   0  0  0  0  0  0  0  0  0  0  0  0
  191.6690  176.7690  145.1900 C   0  0  0  0  0  2  0  0  0  0  0  0
  191.4470  175.8980  143.9660 C   0  0  1  0  0  3  0  0  0  0  0  0
  190.9030  178.0720  145.0170 C   0  0  0  0  0  2  0  0  0  0  0  0
  191.9450  176.6310  142.7200 C   0  0  0  0  0  2  0  0  0  0  0  0
  1  5  1  0  0  0  0
  2 12  1  1  0  0  0
  2 13  1  0  0  0  0
  2 11  1  0  0  0  0
  3 10  1  0  0  0  0
  3 25  1  1  0  0  0
  3 14  1  0  0  0  0
  4  7  2  0  0  0  0
  5  9  2  0  0  0  0
  6  1  1  0  0  0  0
  7 11  1  0  0  0  0
  7  9  1  0  0  0  0
  8  4  1  0  0  0  0
  8  1  2  0  0  0  0
 11 10  1  6  0  0  0
 13 14  1  6  0  0  0
 15  4  1  0  0  0  0
 15 12  1  0  0  0  0
 16 22  1  6  0  0  0
 16 13  1  0  0  0  0
 16 20  1  0  0  0  0
 17 18  1  0  0  0  0
 18 24  1  0  0  0  0
 19 18  1  0  0  0  0
 21 17  1  0  0  0  0
 21 22  1  0  0  0  0
 23 18  1  0  0  0  0
 24 20  1  0  0  0  0
 25 26  1  0  0  0  0
 26 28  1  0  0  0  0
 27 25  2  0  0  0  0
 28 29  1  6  0  0  0
 30 28  1  6  0  0  0
 30 31  1  0  0  0  0
 30 33  1  0  0  0  0
 31 33  1  0  0  0  0
 34 31  1  0  0  0  0
 34 35  1  0  0  0  0
 34 38  1  0  0  0  0
 35 36  1  0  0  0  0
 36 33  1  0  0  0  0
 36 32  1  0  0  0  0
 37 42  1  0  0  0  0
 38 43  1  0  0  0  0
 38 37  1  0  0  0  0
 41 39  1  0  0  0  0
 41 40  1  0  0  0  0
 42 40  1  0  0  0  0
 43 41  1  0  0  0  0
M  END
>  <MODEL>
7

>  <REMARK>
 VINA RESULT:      -7.4      4.017      8.728
  Name = 
  5 active torsions:
  status: ('A' for Active; 'I' for Inactive)
    1  A    between atoms: C_1  and  C_34
    2  A    between atoms: C_2  and  C_13
    3  A    between atoms: C_3  and  C_12
    4  A    between atoms: N_6  and  C_12
    5  A    between atoms: N_14  and  C_22
                            x       y       z     vdW  Elec       q    Type
                         _______ _______ _______ _____ _____    ______ ____

>  <TORSDO>
F 5

$$$$
=
 OpenBabel10272414113D

 43 49  0  0  1  0  0  0  0  0999 V2000
  194.1610  174.9210  137.9020 C   0  0  0  0  0  0  0  0  0  0  0  0
  189.1000  175.6570  137.3220 C   0  0  2  0  0  3  0  0  0  0  0  0
  188.2460  177.2630  139.3900 C   0  0  2  0  0  3  0  0  0  0  0  0
  191.8270  174.7470  137.2620 C   0  0  0  0  0  0  0  0  0  0  0  0
  193.9090  176.1570  138.4990 C   0  0  0  0  0  3  0  0  0  0  0  0
  195.4470  174.4000  137.9140 O   0  0  0  0  0  1  0  0  0  0  0  0
  191.5570  175.9840  137.9020 C   0  0  0  0  0  0  0  0  0  0  0  0
  193.1230  174.2210  137.2850 C   0  0  0  0  0  3  0  0  0  0  0  0
  192.6160  176.6880  138.4930 C   0  0  0  0  0  3  0  0  0  0  0  0
  189.7730  177.2120  139.1860 C   0  0  0  0  0  2  0  0  0  0  0  0
  190.1860  176.6120  137.8390 C   0  0  2  0  0  3  0  0  0  0  0  0
  189.6000  174.8570  136.1220 C   0  0  0  0  0  2  0  0  0  0  0  0
  187.8190  176.4440  137.0030 C   0  0  2  0  0  3  0  0  0  0  0  0
  187.4890  177.5080  138.0820 C   0  0  0  0  0  2  0  0  0  0  0  0
  190.7400  173.9590  136.5860 C   0  0  0  0  0  2  0  0  0  0  0  0
  186.6290  175.5210  136.7080 C   0  0  2  0  0  3  0  0  0  0  0  0
  184.9090  173.2720  135.8680 C   0  0  0  0  0  2  0  0  0  0  0  0
  183.7480  174.2620  135.7500 C   0  0  0  0  0  0  0  0  0  0  0  0
  183.0430  173.9490  134.5980 F   0  0  0  0  0  0  0  0  0  0  0  0
  185.0490  176.3200  137.1460 S   0  0  0  0  0  0  0  0  0  0  0  0
  185.5230  173.2720  137.2650 C   0  0  0  0  0  2  0  0  0  0  0  0
  186.7820  174.1310  137.3470 C   0  0  0  0  0  2  0  0  0  0  0  0
  182.8930  174.1360  136.8320 F   0  0  0  0  0  0  0  0  0  0  0  0
  184.2310  175.7120  135.6310 C   0  0  0  0  0  2  0  0  0  0  0  0
  187.8750  178.2540  140.4440 C   0  0  0  0  0  0  0  0  0  0  0  0
  188.9160  178.8890  141.1890 N   0  0  0  0  0  2  0  0  0  0  0  0
  186.6930  178.7880  140.4350 N   0  0  0  0  0  2  0  0  0  0  0  0
  189.6480  178.2330  142.2720 C   0  0  2  0  0  3  0  0  0  0  0  0
  191.1460  178.4100  142.1070 C   0  0  0  0  0  1  0  0  0  0  0  0
  189.2780  176.7320  142.3480 C   0  0  2  0  0  3  0  0  0  0  0  0
  188.1960  176.3890  143.2950 C   0  0  1  0  0  3  0  0  0  0  0  0
  190.6720  176.2100  145.8070 C   0  0  0  0  0  1  0  0  0  0  0  0
  189.5810  176.0450  143.6360 N   0  0  2  0  0  0  0  0  0  0  0  0
  187.8030  177.4760  144.2710 C   0  0  2  0  0  3  0  0  0  0  0  0
  188.7870  177.5650  145.2660 O   0  0  0  0  0  0  0  0  0  0  0  0
  189.9360  176.9650  144.7200 C   0  0  1  0  0  3  0  0  0  0  0  0
  186.3670  177.3180  146.2890 C   0  0  0  0  0  2  0  0  0  0  0  0
  186.4640  177.2240  144.8210 N   0  0  1  0  0  0  0  0  0  0  0  0
  184.4770  180.1910  143.9470 F   0  0  0  0  0  0  0  0  0  0  0  0
  185.2330  179.5380  146.0980 C   0  0  0  0  0  2  0  0  0  0  0  0
  185.4690  179.4920  144.5980 C   0  0  1  0  0  3  0  0  0  0  0  0
  186.3380  178.7610  146.7980 C   0  0  0  0  0  2  0  0  0  0  0  0
  185.4610  178.0380  144.1240 C   0  0  0  0  0  2  0  0  0  0  0  0
  1  6  1  0  0  0  0
  1  5  1  0  0  0  0
  2 12  1  6  0  0  0
  2 11  1  0  0  0  0
  3 25  1  1  0  0  0
  4  8  1  0  0  0  0
  4  7  2  0  0  0  0
  7  9  1  0  0  0  0
  8  1  2  0  0  0  0
  9  5  2  0  0  0  0
 10  3  1  0  0  0  0
 11  7  1  0  0  0  0
 11 10  1  1  0  0  0
 12 15  1  0  0  0  0
 13  2  1  0  0  0  0
 13 14  1  1  0  0  0
 14  3  1  0  0  0  0
 15  4  1  0  0  0  0
 16 13  1  0  0  0  0
 16 20  1  0  0  0  0
 16 22  1  1  0  0  0
 17 21  1  0  0  0  0
 18 17  1  0  0  0  0
 18 23  1  0  0  0  0
 19 18  1  0  0  0  0
 21 22  1  0  0  0  0
 24 18  1  0  0  0  0
 24 20  1  0  0  0  0
 25 26  1  0  0  0  0
 26 28  1  0  0  0  0
 27 25  2  0  0  0  0
 28 29  1  6  0  0  0
 30 28  1  1  0  0  0
 30 31  1  0  0  0  0
 30 33  1  0  0  0  0
 31 33  1  0  0  0  0
 31 34  1  0  0  0  0
 33 36  1  0  0  0  0
 34 38  1  0  0  0  0
 34 35  1  0  0  0  0
 36 35  1  0  0  0  0
 36 32  1  0  0  0  0
 37 42  1  0  0  0  0
 38 37  1  0  0  0  0
 39 41  1  0  0  0  0
 40 42  1  0  0  0  0
 41 40  1  0  0  0  0
 43 41  1  0  0  0  0
 43 38  1  0  0  0  0
M  END
>  <MODEL>
8

>  <REMARK>
 VINA RESULT:      -7.3      3.705      8.625
  Name = 
  5 active torsions:
  status: ('A' for Active; 'I' for Inactive)
    1  A    between atoms: C_1  and  C_34
    2  A    between atoms: C_2  and  C_13
    3  A    between atoms: C_3  and  C_12
    4  A    between atoms: N_6  and  C_12
    5  A    between atoms: N_14  and  C_22
                            x       y       z     vdW  Elec       q    Type
                         _______ _______ _______ _____ _____    ______ ____

>  <TORSDO>
F 5

$$$$
=
 OpenBabel10272414113D

 43 49  0  0  1  0  0  0  0  0999 V2000
  183.7650  178.3670  141.0580 C   0  0  0  0  0  0  0  0  0  0  0  0
  188.3160  177.9990  143.4330 C   0  0  2  0  0  3  0  0  0  0  0  0
  190.2300  177.5380  141.5060 C   0  0  2  0  0  3  0  0  0  0  0  0
  185.5410  178.0840  142.6870 C   0  0  0  0  0  0  0  0  0  0  0  0
  184.6990  178.7750  140.1050 C   0  0  0  0  0  3  0  0  0  0  0  0
  182.4190  178.3160  140.7250 O   0  0  0  0  0  1  0  0  0  0  0  0
  186.5000  178.4600  141.7110 C   0  0  0  0  0  0  0  0  0  0  0  0
  184.1870  178.0250  142.3440 C   0  0  0  0  0  3  0  0  0  0  0  0
  186.0570  178.8270  140.4320 C   0  0  0  0  0  3  0  0  0  0  0  0
  188.8670  178.0210  140.9740 C   0  0  0  0  0  2  0  0  0  0  0  0
  187.9600  178.5990  142.0640 C   0  0  2  0  0  3  0  0  0  0  0  0
  187.2670  178.3610  144.4800 C   0  0  0  0  0  2  0  0  0  0  0  0
  189.7280  178.4430  143.8470 C   0  0  2  0  0  3  0  0  0  0  0  0
  190.7390  178.3900  142.6720 C   0  0  0  0  0  2  0  0  0  0  0  0
  185.9490  177.7070  144.0830 C   0  0  0  0  0  2  0  0  0  0  0  0
  190.2330  177.6910  145.0870 C   0  0  2  0  0  3  0  0  0  0  0  0
  191.1240  176.9580  147.8050 C   0  0  0  0  0  2  0  0  0  0  0  0
  191.8940  175.7880  147.1900 C   0  0  0  0  0  0  0  0  0  0  0  0
  193.1230  175.7120  147.8270 F   0  0  0  0  0  0  0  0  0  0  0  0
  190.6200  175.9530  144.6940 S   0  0  0  0  0  0  0  0  0  0  0  0
  189.6380  176.9110  147.4590 C   0  0  0  0  0  2  0  0  0  0  0  0
  189.2840  177.8260  146.2890 C   0  0  0  0  0  2  0  0  0  0  0  0
  191.2190  174.5990  147.4000 F   0  0  0  0  0  0  0  0  0  0  0  0
  192.1490  175.9870  145.6900 C   0  0  0  0  0  2  0  0  0  0  0  0
  191.2350  177.4390  140.4050 C   0  0  0  0  0  0  0  0  0  0  0  0
  190.7880  177.5610  139.0530 N   0  0  0  0  0  2  0  0  0  0  0  0
  192.4940  177.6060  140.6690 N   0  0  0  0  0  2  0  0  0  0  0  0
  190.1100  176.4870  138.3290 C   0  0  2  0  0  3  0  0  0  0  0  0
  190.8570  175.1730  138.4710 C   0  0  0  0  0  1  0  0  0  0  0  0
  189.9350  176.8600  136.8370 C   0  0  2  0  0  3  0  0  0  0  0  0
  188.5470  177.1170  136.4020 C   0  0  1  0  0  3  0  0  0  0  0  0
  188.2410  173.6390  135.8720 C   0  0  0  0  0  1  0  0  0  0  0  0
  189.2050  175.8720  135.9930 N   0  0  2  0  0  0  0  0  0  0  0  0
  187.4620  176.6950  137.3700 C   0  0  2  0  0  3  0  0  0  0  0  0
  187.3310  175.3010  137.3190 O   0  0  0  0  0  0  0  0  0  0  0  0
  188.5340  174.8240  136.7670 C   0  0  1  0  0  3  0  0  0  0  0  0
  186.1420  178.0380  135.7520 C   0  0  0  0  0  2  0  0  0  0  0  0
  186.2030  177.3940  137.0780 N   0  0  1  0  0  0  0  0  0  0  0  0
  183.7220  174.7420  136.5140 F   0  0  0  0  0  0  0  0  0  0  0  0
  184.6500  176.2180  134.9080 C   0  0  0  0  0  2  0  0  0  0  0  0
  184.8380  175.4970  136.2310 C   0  0  1  0  0  3  0  0  0  0  0  0
  185.8920  177.0470  134.6140 C   0  0  0  0  0  2  0  0  0  0  0  0
  185.0550  176.5200  137.3460 C   0  0  0  0  0  2  0  0  0  0  0  0
  1  8  1  0  0  0  0
  2 13  1  0  0  0  0
  2 12  1  1  0  0  0
  3 25  1  6  0  0  0
  3 14  1  0  0  0  0
  4 15  1  0  0  0  0
  5  9  1  0  0  0  0
  5  1  2  0  0  0  0
  6  1  1  0  0  0  0
  7 11  1  0  0  0  0
  7  4  1  0  0  0  0
  8  4  2  0  0  0  0
  9  7  2  0  0  0  0
 10  3  1  0  0  0  0
 11 10  1  6  0  0  0
 11  2  1  0  0  0  0
 13 14  1  6  0  0  0
 13 16  1  0  0  0  0
 15 12  1  0  0  0  0
 16 22  1  1  0  0  0
 18 23  1  0  0  0  0
 18 17  1  0  0  0  0
 18 19  1  0  0  0  0
 20 16  1  0  0  0  0
 20 24  1  0  0  0  0
 21 17  1  0  0  0  0
 22 21  1  0  0  0  0
 24 18  1  0  0  0  0
 25 27  2  0  0  0  0
 26 25  1  0  0  0  0
 28 29  1  6  0  0  0
 28 26  1  0  0  0  0
 30 28  1  1  0  0  0
 31 30  1  0  0  0  0
 31 34  1  0  0  0  0
 32 36  1  0  0  0  0
 33 31  1  0  0  0  0
 33 36  1  0  0  0  0
 33 30  1  0  0  0  0
 35 34  1  0  0  0  0
 36 35  1  0  0  0  0
 37 38  1  0  0  0  0
 38 43  1  0  0  0  0
 38 34  1  0  0  0  0
 40 41  1  0  0  0  0
 41 39  1  0  0  0  0
 41 43  1  0  0  0  0
 42 40  1  0  0  0  0
 42 37  1  0  0  0  0
M  END
>  <MODEL>
9

>  <REMARK>
 VINA RESULT:      -7.3      3.855      6.730
  Name = 
  5 active torsions:
  status: ('A' for Active; 'I' for Inactive)
    1  A    between atoms: C_1  and  C_34
    2  A    between atoms: C_2  and  C_13
    3  A    between atoms: C_3  and  C_12
    4  A    between atoms: N_6  and  C_12
    5  A    between atoms: N_14  and  C_22
                            x       y       z     vdW  Elec       q    Type
                         _______ _______ _______ _____ _____    ______ ____

>  <TORSDO>
F 5

$$$$
