=
 OpenBabel10272413303D

 32 37  0  0  1  0  0  0  0  0999 V2000
  188.4680  177.4580  147.0980 C   0  0  0  0  0  0  0  0  0  0  0  0
  190.9200  177.6670  144.8090 C   0  0  0  0  0  3  0  0  0  0  0  0
  189.2100  177.0560  139.9540 C   0  0  0  0  0  0  0  0  0  0  0  0
  193.4430  176.4300  137.7040 C   0  0  0  0  0  3  0  0  0  0  0  0
  192.7670  176.1910  136.5480 N   0  0  0  0  0  0  0  0  0  0  0  0
  189.0930  177.5750  142.2690 C   0  0  0  0  0  0  0  0  0  0  0  0
  191.2200  177.2860  141.2090 N   0  0  0  0  0  0  0  0  0  0  0  0
  189.5200  176.9180  146.6030 N   0  0  0  0  0  0  0  0  0  0  0  0
  191.2950  177.8830  143.5500 C   0  0  0  0  0  3  0  0  0  0  0  0
  192.7470  176.7120  138.8790 C   0  0  0  0  0  3  0  0  0  0  0  0
  190.6100  177.0290  140.0210 C   0  0  0  0  0  0  0  0  0  0  0  0
  191.3470  176.7470  138.8610 C   0  0  0  0  0  0  0  0  0  0  0  0
  189.2540  176.5290  137.6340 C   0  0  0  0  0  0  0  0  0  0  0  0
  187.3230  178.2190  145.9540 S   0  0  0  0  0  0  0  0  0  0  0  0
  188.4740  177.7380  144.6810 C   0  0  0  0  0  0  0  0  0  0  0  0
  188.2300  177.4710  148.5680 C   0  0  0  0  0  1  0  0  0  0  0  0
  190.5130  177.5470  142.3420 C   0  0  0  0  0  0  0  0  0  0  0  0
  188.2080  177.9400  143.3940 C   0  0  0  0  0  3  0  0  0  0  0  0
  189.6520  176.9740  145.1730 C   0  0  1  0  0  3  0  0  0  0  0  0
  191.4090  176.2170  136.4980 C   0  0  0  0  0  3  0  0  0  0  0  0
  190.6630  176.4930  137.6510 C   0  0  0  0  0  0  0  0  0  0  0  0
  188.4940  177.3390  141.0710 N   0  0  0  0  0  0  0  0  0  0  0  0
  188.5740  176.8110  138.7780 N   0  0  0  0  0  0  0  0  0  0  0  0
  188.4810  176.2490  136.3830 C   0  0  0  0  0  2  0  0  0  0  0  0
  186.0310  175.8210  136.8150 N   0  0  0  0  0  0  0  0  0  0  0  0
  187.3020  174.0300  136.9250 C   0  0  0  0  0  0  0  0  0  0  0  0
  185.9880  173.6830  137.1910 C   0  0  0  0  0  3  0  0  0  0  0  0
  185.2370  174.8040  137.1110 N   0  0  0  0  0  0  0  0  0  0  0  0
  188.4700  173.1090  136.9050 C   0  0  0  0  0  1  0  0  0  0  0  0
  187.2950  175.3850  136.6810 C   0  0  0  0  0  0  0  0  0  0  0  0
  185.5580  177.1830  136.6220 C   0  0  0  0  0  2  0  0  0  0  0  0
  185.2360  177.8130  137.9640 C   0  0  0  0  0  1  0  0  0  0  0  0
  1 16  1  0  0  0  0
  3 11  1  0  0  0  0
  3 22  2  0  0  0  0
  4 10  1  0  0  0  0
  5  4  2  0  0  0  0
  6 17  2  0  0  0  0
  6 18  1  0  0  0  0
  7 17  1  0  0  0  0
  8  1  2  0  0  0  0
  9  2  2  0  0  0  0
 11  7  2  0  0  0  0
 12 10  2  0  0  0  0
 12 11  1  0  0  0  0
 13 21  1  0  0  0  0
 13 23  2  0  0  0  0
 14  1  1  0  0  0  0
 15 19  1  0  0  0  0
 15 14  1  0  0  0  0
 17  9  1  0  0  0  0
 18 15  2  0  0  0  0
 19  2  1  1  0  0  0
 19  8  1  0  0  0  0
 20  5  1  0  0  0  0
 20 21  2  0  0  0  0
 21 12  1  0  0  0  0
 22  6  1  0  0  0  0
 23  3  1  0  0  0  0
 24 30  1  0  0  0  0
 24 13  1  0  0  0  0
 25 28  1  0  0  0  0
 26 27  1  0  0  0  0
 28 27  2  0  0  0  0
 29 26  1  0  0  0  0
 30 25  1  0  0  0  0
 30 26  2  0  0  0  0
 31 25  1  0  0  0  0
 31 32  1  0  0  0  0
M  END
>  <MODEL>
1

>  <REMARK>
 VINA RESULT:      -8.6      0.000      0.000
  Name = 
  3 active torsions:
  status: ('A' for Active; 'I' for Inactive)
    1  A    between atoms: C_6  and  N_7
    2  A    between atoms: C_16  and  C_27
    3  A    between atoms: C_27  and  C_32
                            x       y       z     vdW  Elec       q    Type
                         _______ _______ _______ _____ _____    ______ ____

>  <TORSDO>
F 3

$$$$
=
 OpenBabel10272413303D

 32 37  0  0  1  0  0  0  0  0999 V2000
  191.3960  176.4090  146.2610 C   0  0  0  0  0  0  0  0  0  0  0  0
  191.9500  176.9660  142.9920 C   0  0  0  0  0  3  0  0  0  0  0  0
  187.6290  178.1460  140.3830 C   0  0  0  0  0  0  0  0  0  0  0  0
  189.2800  177.6490  135.8660 C   0  0  0  0  0  3  0  0  0  0  0  0
  188.0220  177.8810  135.4060 N   0  0  0  0  0  0  0  0  0  0  0  0
  189.0630  177.9300  142.2650 C   0  0  0  0  0  0  0  0  0  0  0  0
  189.9410  177.6830  140.0520 N   0  0  0  0  0  0  0  0  0  0  0  0
  191.7260  175.9050  145.1280 N   0  0  0  0  0  0  0  0  0  0  0  0
  191.5570  177.5060  141.8410 C   0  0  0  0  0  3  0  0  0  0  0  0
  189.5370  177.6490  137.2370 C   0  0  0  0  0  3  0  0  0  0  0  0
  188.7080  177.8980  139.5220 C   0  0  0  0  0  0  0  0  0  0  0  0
  188.4900  177.8880  138.1360 C   0  0  0  0  0  0  0  0  0  0  0  0
  186.1370  178.3650  138.5430 C   0  0  0  0  0  0  0  0  0  0  0  0
  190.1030  177.6440  146.2610 S   0  0  0  0  0  0  0  0  0  0  0  0
  190.0670  177.4220  144.4930 C   0  0  0  0  0  0  0  0  0  0  0  0
  192.0860  175.9990  147.5150 C   0  0  0  0  0  1  0  0  0  0  0  0
  190.1590  177.6780  141.3950 C   0  0  0  0  0  0  0  0  0  0  0  0
  189.1750  178.0510  143.7330 C   0  0  0  0  0  3  0  0  0  0  0  0
  191.0010  176.3830  143.9830 C   0  0  1  0  0  3  0  0  0  0  0  0
  186.9840  178.1160  136.2520 C   0  0  0  0  0  3  0  0  0  0  0  0
  187.1890  178.1240  137.6380 C   0  0  0  0  0  0  0  0  0  0  0  0
  187.8380  178.1670  141.7230 N   0  0  0  0  0  0  0  0  0  0  0  0
  186.3870  178.3720  139.8810 N   0  0  0  0  0  0  0  0  0  0  0  0
  184.7360  178.6020  138.0680 C   0  0  0  0  0  2  0  0  0  0  0  0
  183.0400  177.5640  139.6230 N   0  0  0  0  0  0  0  0  0  0  0  0
  183.6970  176.2520  137.9850 C   0  0  0  0  0  0  0  0  0  0  0  0
  182.7840  175.5810  138.7780 C   0  0  0  0  0  3  0  0  0  0  0  0
  182.4000  176.4140  139.7690 N   0  0  0  0  0  0  0  0  0  0  0  0
  184.3820  175.7140  136.7780 C   0  0  0  0  0  1  0  0  0  0  0  0
  183.8310  177.5060  138.5370 C   0  0  0  0  0  0  0  0  0  0  0  0
  182.8500  178.7100  140.4980 C   0  0  0  0  0  2  0  0  0  0  0  0
  183.5130  178.4530  141.8380 C   0  0  0  0  0  1  0  0  0  0  0  0
  1 16  1  0  0  0  0
  3 22  2  0  0  0  0
  4 10  1  0  0  0  0
  5  4  2  0  0  0  0
  5 20  1  0  0  0  0
  6 18  1  0  0  0  0
  7 17  1  0  0  0  0
  8  1  2  0  0  0  0
  9  2  2  0  0  0  0
 10 12  2  0  0  0  0
 11  7  2  0  0  0  0
 11  3  1  0  0  0  0
 12 11  1  0  0  0  0
 13 23  2  0  0  0  0
 14  1  1  0  0  0  0
 15 14  1  0  0  0  0
 17  9  1  0  0  0  0
 17  6  2  0  0  0  0
 18 15  2  0  0  0  0
 19  2  1  6  0  0  0
 19 15  1  0  0  0  0
 19  8  1  0  0  0  0
 20 21  2  0  0  0  0
 21 12  1  0  0  0  0
 21 13  1  0  0  0  0
 22  6  1  0  0  0  0
 23  3  1  0  0  0  0
 24 30  1  0  0  0  0
 24 13  1  0  0  0  0
 25 28  1  0  0  0  0
 25 31  1  0  0  0  0
 26 30  2  0  0  0  0
 26 27  1  0  0  0  0
 27 28  2  0  0  0  0
 29 26  1  0  0  0  0
 30 25  1  0  0  0  0
 31 32  1  0  0  0  0
M  END
>  <MODEL>
2

>  <REMARK>
 VINA RESULT:      -8.4      2.571      3.488
  Name = 
  3 active torsions:
  status: ('A' for Active; 'I' for Inactive)
    1  A    between atoms: C_6  and  N_7
    2  A    between atoms: C_16  and  C_27
    3  A    between atoms: C_27  and  C_32
                            x       y       z     vdW  Elec       q    Type
                         _______ _______ _______ _____ _____    ______ ____

>  <TORSDO>
F 3

$$$$
=
 OpenBabel10272413303D

 32 37  0  0  1  0  0  0  0  0999 V2000
  188.5320  177.4820  147.1370 C   0  0  0  0  0  0  0  0  0  0  0  0
  190.9650  177.7850  144.8370 C   0  0  0  0  0  3  0  0  0  0  0  0
  189.3020  176.8970  140.0080 C   0  0  0  0  0  0  0  0  0  0  0  0
  193.5690  176.4900  137.7710 C   0  0  0  0  0  3  0  0  0  0  0  0
  192.9120  176.1680  136.6260 N   0  0  0  0  0  0  0  0  0  0  0  0
  189.1500  177.4830  142.3050 C   0  0  0  0  0  0  0  0  0  0  0  0
  191.2910  177.3060  141.2500 N   0  0  0  0  0  0  0  0  0  0  0  0
  189.6200  177.0000  146.6570 N   0  0  0  0  0  0  0  0  0  0  0  0
  191.3240  177.9840  143.5710 C   0  0  0  0  0  3  0  0  0  0  0  0
  192.8540  176.7630  138.9380 C   0  0  0  0  0  3  0  0  0  0  0  0
  190.7010  176.9690  140.0730 C   0  0  0  0  0  0  0  0  0  0  0  0
  191.4560  176.7000  138.9210 C   0  0  0  0  0  0  0  0  0  0  0  0
  189.3830  176.2980  137.7070 C   0  0  0  0  0  0  0  0  0  0  0  0
  187.3380  178.1240  145.9710 S   0  0  0  0  0  0  0  0  0  0  0  0
  188.5190  177.6820  144.7120 C   0  0  0  0  0  0  0  0  0  0  0  0
  188.2940  177.5270  148.6050 C   0  0  0  0  0  1  0  0  0  0  0  0
  190.5680  177.5560  142.3760 C   0  0  0  0  0  0  0  0  0  0  0  0
  188.2410  177.8230  143.4190 C   0  0  0  0  0  3  0  0  0  0  0  0
  189.7470  177.0180  145.2260 C   0  0  1  0  0  3  0  0  0  0  0  0
  191.5540  176.0980  136.5770 C   0  0  0  0  0  3  0  0  0  0  0  0
  190.7910  176.3600  137.7220 C   0  0  0  0  0  0  0  0  0  0  0  0
  188.5690  177.1670  141.1170 N   0  0  0  0  0  0  0  0  0  0  0  0
  188.6840  176.5700  138.8430 N   0  0  0  0  0  0  0  0  0  0  0  0
  188.6310  175.9240  136.4670 C   0  0  0  0  0  2  0  0  0  0  0  0
  186.2460  175.2350  136.9220 N   0  0  0  0  0  0  0  0  0  0  0  0
  186.5110  177.3780  136.5050 C   0  0  0  0  0  0  0  0  0  0  0  0
  185.1710  177.1110  136.7250 C   0  0  0  0  0  3  0  0  0  0  0  0
  185.0460  175.7900  136.9810 N   0  0  0  0  0  0  0  0  0  0  0  0
  187.1060  178.7040  136.1870 C   0  0  0  0  0  1  0  0  0  0  0  0
  187.1660  176.1760  136.6460 C   0  0  0  0  0  0  0  0  0  0  0  0
  186.4950  173.8240  137.1750 C   0  0  0  0  0  2  0  0  0  0  0  0
  185.2360  173.1630  137.7010 C   0  0  0  0  0  1  0  0  0  0  0  0
  1 16  1  0  0  0  0
  3 11  1  0  0  0  0
  3 22  2  0  0  0  0
  4 10  1  0  0  0  0
  5  4  2  0  0  0  0
  6 17  2  0  0  0  0
  6 18  1  0  0  0  0
  7 17  1  0  0  0  0
  8  1  2  0  0  0  0
  9  2  2  0  0  0  0
 11  7  2  0  0  0  0
 12 10  2  0  0  0  0
 12 11  1  0  0  0  0
 13 21  1  0  0  0  0
 13 23  2  0  0  0  0
 14  1  1  0  0  0  0
 15 19  1  0  0  0  0
 15 14  1  0  0  0  0
 17  9  1  0  0  0  0
 18 15  2  0  0  0  0
 19  2  1  1  0  0  0
 19  8  1  0  0  0  0
 20  5  1  0  0  0  0
 20 21  2  0  0  0  0
 21 12  1  0  0  0  0
 22  6  1  0  0  0  0
 23  3  1  0  0  0  0
 24 30  1  0  0  0  0
 24 13  1  0  0  0  0
 25 28  1  0  0  0  0
 25 31  1  0  0  0  0
 26 30  2  0  0  0  0
 26 27  1  0  0  0  0
 27 28  2  0  0  0  0
 29 26  1  0  0  0  0
 30 25  1  0  0  0  0
 31 32  1  0  0  0  0
M  END
>  <MODEL>
3

>  <REMARK>
 VINA RESULT:      -8.4      0.572      1.725
  Name = 
  3 active torsions:
  status: ('A' for Active; 'I' for Inactive)
    1  A    between atoms: C_6  and  N_7
    2  A    between atoms: C_16  and  C_27
    3  A    between atoms: C_27  and  C_32
                            x       y       z     vdW  Elec       q    Type
                         _______ _______ _______ _____ _____    ______ ____

>  <TORSDO>
F 3

$$$$
=
 OpenBabel10272413303D

 32 37  0  0  1  0  0  0  0  0999 V2000
  192.2270  176.1130  136.3980 C   0  0  0  0  0  0  0  0  0  0  0  0
  189.7310  178.0490  137.5470 C   0  0  0  0  0  3  0  0  0  0  0  0
  188.6140  177.1580  142.5300 C   0  0  0  0  0  0  0  0  0  0  0  0
  184.3960  179.5040  142.8200 C   0  0  0  0  0  3  0  0  0  0  0  0
  184.2620  179.0560  144.0970 N   0  0  0  0  0  0  0  0  0  0  0  0
  189.9310  177.2000  140.5530 C   0  0  0  0  0  0  0  0  0  0  0  0
  187.8550  178.3900  140.6400 N   0  0  0  0  0  0  0  0  0  0  0  0
  190.9750  176.3860  136.3530 N   0  0  0  0  0  0  0  0  0  0  0  0
  189.0960  178.6060  138.5760 C   0  0  0  0  0  3  0  0  0  0  0  0
  185.5190  179.1560  142.0690 C   0  0  0  0  0  3  0  0  0  0  0  0
  187.6510  177.9710  141.9160 C   0  0  0  0  0  0  0  0  0  0  0  0
  186.5060  178.3420  142.6390 C   0  0  0  0  0  0  0  0  0  0  0  0
  187.3400  177.0660  144.5380 C   0  0  0  0  0  0  0  0  0  0  0  0
  193.0200  176.1690  138.0000 S   0  0  0  0  0  0  0  0  0  0  0  0
  191.4230  176.6460  138.6310 C   0  0  0  0  0  0  0  0  0  0  0  0
  192.9880  175.7920  135.1590 C   0  0  0  0  0  1  0  0  0  0  0  0
  188.9560  178.0250  139.9270 C   0  0  0  0  0  0  0  0  0  0  0  0
  191.2140  176.8100  139.9340 C   0  0  0  0  0  3  0  0  0  0  0  0
  190.3450  176.6920  137.6080 C   0  0  1  0  0  3  0  0  0  0  0  0
  185.2020  178.2640  144.6780 C   0  0  0  0  0  3  0  0  0  0  0  0
  186.3460  177.8840  143.9660 C   0  0  0  0  0  0  0  0  0  0  0  0
  189.7270  176.8060  141.8390 N   0  0  0  0  0  0  0  0  0  0  0  0
  188.4400  176.7310  143.8080 N   0  0  0  0  0  0  0  0  0  0  0  0
  187.2110  176.5390  145.9340 C   0  0  0  0  0  2  0  0  0  0  0  0
  189.3280  177.1540  147.1620 N   0  0  0  0  0  0  0  0  0  0  0  0
  187.5890  178.4050  147.6610 C   0  0  0  0  0  0  0  0  0  0  0  0
  188.6850  178.8190  148.3970 C   0  0  0  0  0  3  0  0  0  0  0  0
  189.7330  178.0340  148.0640 N   0  0  0  0  0  0  0  0  0  0  0  0
  186.2220  178.9890  147.7090 C   0  0  0  0  0  1  0  0  0  0  0  0
  188.0290  177.3590  146.8820 C   0  0  0  0  0  0  0  0  0  0  0  0
  190.2020  176.1640  146.5520 C   0  0  0  0  0  2  0  0  0  0  0  0
  191.6010  176.2870  147.1260 C   0  0  0  0  0  1  0  0  0  0  0  0
  1 14  1  0  0  0  0
  2  9  2  0  0  0  0
  3 23  1  0  0  0  0
  4  5  1  0  0  0  0
  5 20  2  0  0  0  0
  6 22  1  0  0  0  0
  7 11  2  0  0  0  0
  8  1  2  0  0  0  0
  8 19  1  0  0  0  0
  9 17  1  0  0  0  0
 10 12  1  0  0  0  0
 10  4  2  0  0  0  0
 11  3  1  0  0  0  0
 11 12  1  0  0  0  0
 12 21  2  0  0  0  0
 13 24  1  0  0  0  0
 14 15  1  0  0  0  0
 15 18  2  0  0  0  0
 16  1  1  0  0  0  0
 17  6  2  0  0  0  0
 17  7  1  0  0  0  0
 18  6  1  0  0  0  0
 19  2  1  6  0  0  0
 19 15  1  0  0  0  0
 21 13  1  0  0  0  0
 21 20  1  0  0  0  0
 22  3  2  0  0  0  0
 23 13  2  0  0  0  0
 24 30  1  0  0  0  0
 25 28  1  0  0  0  0
 26 29  1  0  0  0  0
 26 27  1  0  0  0  0
 28 27  2  0  0  0  0
 30 25  1  0  0  0  0
 30 26  2  0  0  0  0
 31 32  1  0  0  0  0
 31 25  1  0  0  0  0
M  END
>  <MODEL>
4

>  <REMARK>
 VINA RESULT:      -8.2      3.163      8.983
  Name = 
  3 active torsions:
  status: ('A' for Active; 'I' for Inactive)
    1  A    between atoms: C_6  and  N_7
    2  A    between atoms: C_16  and  C_27
    3  A    between atoms: C_27  and  C_32
                            x       y       z     vdW  Elec       q    Type
                         _______ _______ _______ _____ _____    ______ ____

>  <TORSDO>
F 3

$$$$
=
 OpenBabel10272413303D

 32 37  0  0  1  0  0  0  0  0999 V2000
  190.9010  177.3040  147.4180 C   0  0  0  0  0  0  0  0  0  0  0  0
  187.5550  177.4000  147.1040 C   0  0  0  0  0  3  0  0  0  0  0  0
  186.0060  178.1900  142.2210 C   0  0  0  0  0  0  0  0  0  0  0  0
  181.3560  179.2370  143.0330 C   0  0  0  0  0  3  0  0  0  0  0  0
  181.2070  179.4990  141.7070 N   0  0  0  0  0  0  0  0  0  0  0  0
  187.4590  177.5240  143.9780 C   0  0  0  0  0  0  0  0  0  0  0  0
  185.1630  178.0200  144.4410 N   0  0  0  0  0  0  0  0  0  0  0  0
  189.8180  177.9420  147.6730 N   0  0  0  0  0  0  0  0  0  0  0  0
  186.4740  177.2870  146.3350 C   0  0  0  0  0  3  0  0  0  0  0  0
  182.5940  178.8370  143.5350 C   0  0  0  0  0  3  0  0  0  0  0  0
  184.9450  178.3070  143.1310 C   0  0  0  0  0  0  0  0  0  0  0  0
  183.6840  178.7090  142.6650 C   0  0  0  0  0  0  0  0  0  0  0  0
  184.6070  178.8600  140.4160 C   0  0  0  0  0  0  0  0  0  0  0  0
  191.0380  176.5380  145.8070 S   0  0  0  0  0  0  0  0  0  0  0  0
  189.4000  177.1730  145.5070 C   0  0  0  0  0  0  0  0  0  0  0  0
  191.9810  177.1850  148.4350 C   0  0  0  0  0  1  0  0  0  0  0  0
  186.3860  177.6430  144.9040 C   0  0  0  0  0  0  0  0  0  0  0  0
  188.8080  177.0320  144.3250 C   0  0  0  0  0  3  0  0  0  0  0  0
  188.8390  177.9830  146.6210 C   0  0  1  0  0  3  0  0  0  0  0  0
  182.2460  179.3850  140.8360 C   0  0  0  0  0  3  0  0  0  0  0  0
  183.5100  178.9900  141.2910 C   0  0  0  0  0  0  0  0  0  0  0  0
  187.2240  177.7920  142.6650 N   0  0  0  0  0  0  0  0  0  0  0  0
  185.8150  178.4630  140.9030 N   0  0  0  0  0  0  0  0  0  0  0  0
  184.4810  179.1630  138.9550 C   0  0  0  0  0  2  0  0  0  0  0  0
  183.9200  176.9390  137.9020 N   0  0  0  0  0  0  0  0  0  0  0  0
  185.9820  177.6180  137.5510 C   0  0  0  0  0  0  0  0  0  0  0  0
  185.7890  176.3890  136.9440 C   0  0  0  0  0  3  0  0  0  0  0  0
  184.5150  176.0050  137.1760 N   0  0  0  0  0  0  0  0  0  0  0  0
  187.2390  178.4140  137.5520 C   0  0  0  0  0  1  0  0  0  0  0  0
  184.7810  177.9440  138.1390 C   0  0  0  0  0  0  0  0  0  0  0  0
  182.5270  176.8720  138.3170 C   0  0  0  0  0  2  0  0  0  0  0  0
  182.3760  175.8900  139.4630 C   0  0  0  0  0  1  0  0  0  0  0  0
  1  8  2  0  0  0  0
  1 16  1  0  0  0  0
  3 22  2  0  0  0  0
  3 11  1  0  0  0  0
  4 10  1  0  0  0  0
  5  4  2  0  0  0  0
  6 18  1  0  0  0  0
  6 17  2  0  0  0  0
  7 17  1  0  0  0  0
  9  2  2  0  0  0  0
 11  7  2  0  0  0  0
 12 11  1  0  0  0  0
 12 10  2  0  0  0  0
 13 23  2  0  0  0  0
 13 21  1  0  0  0  0
 14  1  1  0  0  0  0
 15 14  1  0  0  0  0
 15 19  1  0  0  0  0
 17  9  1  0  0  0  0
 18 15  2  0  0  0  0
 19  2  1  1  0  0  0
 19  8  1  0  0  0  0
 20 21  2  0  0  0  0
 20  5  1  0  0  0  0
 21 12  1  0  0  0  0
 22  6  1  0  0  0  0
 23  3  1  0  0  0  0
 24 13  1  0  0  0  0
 25 30  1  0  0  0  0
 25 31  1  0  0  0  0
 26 29  1  0  0  0  0
 26 30  2  0  0  0  0
 27 28  2  0  0  0  0
 27 26  1  0  0  0  0
 28 25  1  0  0  0  0
 30 24  1  0  0  0  0
 31 32  1  0  0  0  0
M  END
>  <MODEL>
5

>  <REMARK>
 VINA RESULT:      -8.0      3.438      6.028
  Name = 
  3 active torsions:
  status: ('A' for Active; 'I' for Inactive)
    1  A    between atoms: C_6  and  N_7
    2  A    between atoms: C_16  and  C_27
    3  A    between atoms: C_27  and  C_32
                            x       y       z     vdW  Elec       q    Type
                         _______ _______ _______ _____ _____    ______ ____

>  <TORSDO>
F 3

$$$$
=
 OpenBabel10272413303D

 32 37  0  0  1  0  0  0  0  0999 V2000
  190.8960  177.3100  147.4230 C   0  0  0  0  0  0  0  0  0  0  0  0
  187.5510  177.4040  147.1070 C   0  0  0  0  0  3  0  0  0  0  0  0
  186.0040  178.1820  142.2210 C   0  0  0  0  0  0  0  0  0  0  0  0
  181.3530  179.2280  143.0270 C   0  0  0  0  0  3  0  0  0  0  0  0
  181.2060  179.4870  141.7010 N   0  0  0  0  0  0  0  0  0  0  0  0
  187.4570  177.5210  143.9810 C   0  0  0  0  0  0  0  0  0  0  0  0
  185.1610  178.0170  144.4410 N   0  0  0  0  0  0  0  0  0  0  0  0
  189.8130  177.9490  147.6760 N   0  0  0  0  0  0  0  0  0  0  0  0
  186.4710  177.2890  146.3380 C   0  0  0  0  0  3  0  0  0  0  0  0
  182.5920  178.8300  143.5310 C   0  0  0  0  0  3  0  0  0  0  0  0
  184.9430  178.3010  143.1290 C   0  0  0  0  0  0  0  0  0  0  0  0
  183.6820  178.7010  142.6620 C   0  0  0  0  0  0  0  0  0  0  0  0
  184.6060  178.8470  140.4130 C   0  0  0  0  0  0  0  0  0  0  0  0
  191.0350  176.5410  145.8140 S   0  0  0  0  0  0  0  0  0  0  0  0
  189.3970  177.1740  145.5110 C   0  0  0  0  0  0  0  0  0  0  0  0
  191.9760  177.1950  148.4410 C   0  0  0  0  0  1  0  0  0  0  0  0
  186.3830  177.6410  144.9050 C   0  0  0  0  0  0  0  0  0  0  0  0
  188.8060  177.0300  144.3290 C   0  0  0  0  0  3  0  0  0  0  0  0
  188.8350  177.9870  146.6240 C   0  0  1  0  0  3  0  0  0  0  0  0
  182.2450  179.3720  140.8310 C   0  0  0  0  0  3  0  0  0  0  0  0
  183.5090  178.9780  141.2870 C   0  0  0  0  0  0  0  0  0  0  0  0
  187.2220  177.7850  142.6670 N   0  0  0  0  0  0  0  0  0  0  0  0
  185.8140  178.4520  140.9030 N   0  0  0  0  0  0  0  0  0  0  0  0
  184.4820  179.1460  138.9510 C   0  0  0  0  0  2  0  0  0  0  0  0
  185.8440  177.6270  137.4660 N   0  0  0  0  0  0  0  0  0  0  0  0
  183.8160  176.8960  137.9020 C   0  0  0  0  0  0  0  0  0  0  0  0
  184.4650  175.9970  137.0730 C   0  0  0  0  0  3  0  0  0  0  0  0
  185.7050  176.4740  136.8290 N   0  0  0  0  0  0  0  0  0  0  0  0
  182.4280  176.7720  138.4230 C   0  0  0  0  0  1  0  0  0  0  0  0
  184.7160  177.9100  138.1410 C   0  0  0  0  0  0  0  0  0  0  0  0
  187.0680  178.4130  137.4520 C   0  0  0  0  0  2  0  0  0  0  0  0
  188.1180  177.7500  138.3230 C   0  0  0  0  0  1  0  0  0  0  0  0
  1  8  2  0  0  0  0
  1 16  1  0  0  0  0
  3 22  2  0  0  0  0
  3 11  1  0  0  0  0
  4 10  1  0  0  0  0
  5  4  2  0  0  0  0
  6 18  1  0  0  0  0
  6 17  2  0  0  0  0
  7 17  1  0  0  0  0
  9  2  2  0  0  0  0
 11  7  2  0  0  0  0
 12 11  1  0  0  0  0
 12 10  2  0  0  0  0
 13 23  2  0  0  0  0
 13 21  1  0  0  0  0
 14  1  1  0  0  0  0
 15 14  1  0  0  0  0
 15 19  1  0  0  0  0
 17  9  1  0  0  0  0
 18 15  2  0  0  0  0
 19  2  1  1  0  0  0
 19  8  1  0  0  0  0
 20 21  2  0  0  0  0
 20  5  1  0  0  0  0
 21 12  1  0  0  0  0
 22  6  1  0  0  0  0
 23  3  1  0  0  0  0
 24 13  1  0  0  0  0
 25 30  1  0  0  0  0
 26 30  2  0  0  0  0
 26 29  1  0  0  0  0
 27 26  1  0  0  0  0
 28 27  2  0  0  0  0
 28 25  1  0  0  0  0
 30 24  1  0  0  0  0
 31 25  1  0  0  0  0
 31 32  1  0  0  0  0
M  END
>  <MODEL>
6

>  <REMARK>
 VINA RESULT:      -7.9      3.220      6.062
  Name = 
  3 active torsions:
  status: ('A' for Active; 'I' for Inactive)
    1  A    between atoms: C_6  and  N_7
    2  A    between atoms: C_16  and  C_27
    3  A    between atoms: C_27  and  C_32
                            x       y       z     vdW  Elec       q    Type
                         _______ _______ _______ _____ _____    ______ ____

>  <TORSDO>
F 3

$$$$
=
 OpenBabel10272413303D

 32 37  0  0  1  0  0  0  0  0999 V2000
  189.3290  177.7640  147.2430 C   0  0  0  0  0  0  0  0  0  0  0  0
  187.5760  177.6560  144.3770 C   0  0  0  0  0  3  0  0  0  0  0  0
  190.5430  176.7350  140.2270 C   0  0  0  0  0  0  0  0  0  0  0  0
  187.3860  177.8610  136.7410 C   0  0  0  0  0  3  0  0  0  0  0  0
  188.3680  177.6640  135.8210 N   0  0  0  0  0  0  0  0  0  0  0  0
  189.9190  176.7320  142.5200 C   0  0  0  0  0  0  0  0  0  0  0  0
  188.3090  177.2890  140.8380 N   0  0  0  0  0  0  0  0  0  0  0  0
  188.6420  178.4200  146.3810 N   0  0  0  0  0  0  0  0  0  0  0  0
  187.4800  177.2640  143.1090 C   0  0  0  0  0  3  0  0  0  0  0  0
  187.6520  177.6860  138.1000 C   0  0  0  0  0  3  0  0  0  0  0  0
  189.2430  177.1180  139.8650 C   0  0  0  0  0  0  0  0  0  0  0  0
  188.9370  177.3070  138.5090 C   0  0  0  0  0  0  0  0  0  0  0  0
  191.2350  176.7280  137.9510 C   0  0  0  0  0  0  0  0  0  0  0  0
  190.4420  176.5110  146.6190 S   0  0  0  0  0  0  0  0  0  0  0  0
  189.8420  176.9640  145.0030 C   0  0  0  0  0  0  0  0  0  0  0  0
  189.1780  178.0200  148.7020 C   0  0  0  0  0  1  0  0  0  0  0  0
  188.6010  177.1210  142.1570 C   0  0  0  0  0  0  0  0  0  0  0  0
  190.3460  176.4210  143.8990 C   0  0  0  0  0  3  0  0  0  0  0  0
  188.8600  178.0810  145.0020 C   0  0  1  0  0  3  0  0  0  0  0  0
  189.6250  177.2960  136.1860 C   0  0  0  0  0  3  0  0  0  0  0  0
  189.9440  177.1100  137.5380 C   0  0  0  0  0  0  0  0  0  0  0  0
  190.8400  176.5420  141.5360 N   0  0  0  0  0  0  0  0  0  0  0  0
  191.4940  176.5500  139.2750 N   0  0  0  0  0  0  0  0  0  0  0  0
  192.3430  176.5250  136.9640 C   0  0  0  0  0  2  0  0  0  0  0  0
  193.6910  174.4490  137.4620 N   0  0  0  0  0  0  0  0  0  0  0  0
  192.0450  174.1470  136.0340 C   0  0  0  0  0  0  0  0  0  0  0  0
  192.7210  172.9540  136.2220 C   0  0  0  0  0  3  0  0  0  0  0  0
  193.7200  173.1750  137.1040 N   0  0  0  0  0  0  0  0  0  0  0  0
  190.8730  174.3660  135.1440 C   0  0  0  0  0  1  0  0  0  0  0  0
  192.6740  175.0700  136.8380 C   0  0  0  0  0  0  0  0  0  0  0  0
  194.6070  175.0380  138.4250 C   0  0  0  0  0  2  0  0  0  0  0  0
  195.6430  174.0120  138.8460 C   0  0  0  0  0  1  0  0  0  0  0  0
  1 16  1  0  0  0  0
  3 22  2  0  0  0  0
  4 10  1  0  0  0  0
  5 20  1  0  0  0  0
  5  4  2  0  0  0  0
  6 18  1  0  0  0  0
  7 17  1  0  0  0  0
  8  1  2  0  0  0  0
  9  2  2  0  0  0  0
 10 12  2  0  0  0  0
 11  3  1  0  0  0  0
 11  7  2  0  0  0  0
 12 11  1  0  0  0  0
 13 23  2  0  0  0  0
 14  1  1  0  0  0  0
 15 14  1  0  0  0  0
 17  6  2  0  0  0  0
 17  9  1  0  0  0  0
 18 15  2  0  0  0  0
 19  2  1  1  0  0  0
 19 15  1  0  0  0  0
 19  8  1  0  0  0  0
 20 21  2  0  0  0  0
 21 13  1  0  0  0  0
 21 12  1  0  0  0  0
 22  6  1  0  0  0  0
 23  3  1  0  0  0  0
 24 13  1  0  0  0  0
 25 31  1  0  0  0  0
 26 27  1  0  0  0  0
 26 30  2  0  0  0  0
 27 28  2  0  0  0  0
 28 25  1  0  0  0  0
 29 26  1  0  0  0  0
 30 24  1  0  0  0  0
 30 25  1  0  0  0  0
 31 32  1  0  0  0  0
M  END
>  <MODEL>
7

>  <REMARK>
 VINA RESULT:      -7.8      2.071      4.569
  Name = 
  3 active torsions:
  status: ('A' for Active; 'I' for Inactive)
    1  A    between atoms: C_6  and  N_7
    2  A    between atoms: C_16  and  C_27
    3  A    between atoms: C_27  and  C_32
                            x       y       z     vdW  Elec       q    Type
                         _______ _______ _______ _____ _____    ______ ____

>  <TORSDO>
F 3

$$$$
=
 OpenBabel10272413303D

 32 37  0  0  1  0  0  0  0  0999 V2000
  182.4830  177.9660  138.8590 C   0  0  0  0  0  0  0  0  0  0  0  0
  182.8580  178.3630  142.1750 C   0  0  0  0  0  3  0  0  0  0  0  0
  187.8200  178.2730  143.6720 C   0  0  0  0  0  0  0  0  0  0  0  0
  187.1910  177.8040  148.4430 C   0  0  0  0  0  3  0  0  0  0  0  0
  188.5390  177.6940  148.5860 N   0  0  0  0  0  0  0  0  0  0  0  0
  185.9810  178.5580  142.1950 C   0  0  0  0  0  0  0  0  0  0  0  0
  185.6080  178.3410  144.5490 N   0  0  0  0  0  0  0  0  0  0  0  0
  182.3100  177.4610  140.0250 N   0  0  0  0  0  0  0  0  0  0  0  0
  183.6290  178.6980  143.2070 C   0  0  0  0  0  3  0  0  0  0  0  0
  186.6320  177.9780  147.1770 C   0  0  0  0  0  3  0  0  0  0  0  0
  186.9440  178.2150  144.7650 C   0  0  0  0  0  0  0  0  0  0  0  0
  187.4680  178.0380  146.0550 C   0  0  0  0  0  0  0  0  0  0  0  0
  189.7050  177.9810  145.0950 C   0  0  0  0  0  0  0  0  0  0  0  0
  184.0060  178.8580  138.5710 S   0  0  0  0  0  0  0  0  0  0  0  0
  184.3950  178.4870  140.2700 C   0  0  0  0  0  0  0  0  0  0  0  0
  181.4410  177.8350  137.8030 C   0  0  0  0  0  1  0  0  0  0  0  0
  185.0900  178.4990  143.3010 C   0  0  0  0  0  0  0  0  0  0  0  0
  185.5660  178.8230  140.8020 C   0  0  0  0  0  3  0  0  0  0  0  0
  183.3760  177.6580  140.9680 C   0  0  1  0  0  3  0  0  0  0  0  0
  189.3770  177.7480  147.5170 C   0  0  0  0  0  3  0  0  0  0  0  0
  188.8660  177.9190  146.2240 C   0  0  0  0  0  0  0  0  0  0  0  0
  187.3180  178.4540  142.4250 N   0  0  0  0  0  0  0  0  0  0  0  0
  189.1610  178.1580  143.8600 N   0  0  0  0  0  0  0  0  0  0  0  0
  191.1910  177.8410  145.2170 C   0  0  0  0  0  2  0  0  0  0  0  0
  191.5110  175.7750  143.8030 N   0  0  0  0  0  0  0  0  0  0  0  0
  192.0920  175.5360  145.9100 C   0  0  0  0  0  0  0  0  0  0  0  0
  192.2950  174.3450  145.2350 C   0  0  0  0  0  3  0  0  0  0  0  0
  191.9320  174.5290  143.9470 N   0  0  0  0  0  0  0  0  0  0  0  0
  192.3570  175.7880  147.3520 C   0  0  0  0  0  1  0  0  0  0  0  0
  191.6060  176.4230  144.9770 C   0  0  0  0  0  0  0  0  0  0  0  0
  191.0670  176.3360  142.5360 C   0  0  0  0  0  2  0  0  0  0  0  0
  192.1180  177.2880  141.9970 C   0  0  0  0  0  1  0  0  0  0  0  0
  1  8  2  0  0  0  0
  2  9  2  0  0  0  0
  3 23  1  0  0  0  0
  3 11  1  0  0  0  0
  4  5  1  0  0  0  0
  6 22  1  0  0  0  0
  6 17  2  0  0  0  0
  7 11  2  0  0  0  0
  8 19  1  0  0  0  0
  9 17  1  0  0  0  0
 10  4  2  0  0  0  0
 11 12  1  0  0  0  0
 12 21  2  0  0  0  0
 12 10  1  0  0  0  0
 13 24  1  0  0  0  0
 13 21  1  0  0  0  0
 14  1  1  0  0  0  0
 14 15  1  0  0  0  0
 15 18  2  0  0  0  0
 15 19  1  0  0  0  0
 16  1  1  0  0  0  0
 17  7  1  0  0  0  0
 18  6  1  0  0  0  0
 19  2  1  1  0  0  0
 20  5  2  0  0  0  0
 21 20  1  0  0  0  0
 22  3  2  0  0  0  0
 23 13  2  0  0  0  0
 25 28  1  0  0  0  0
 25 30  1  0  0  0  0
 26 29  1  0  0  0  0
 27 26  1  0  0  0  0
 28 27  2  0  0  0  0
 30 24  1  0  0  0  0
 30 26  2  0  0  0  0
 31 25  1  0  0  0  0
 32 31  1  0  0  0  0
M  END
>  <MODEL>
8

>  <REMARK>
 VINA RESULT:      -7.6      4.224      8.700
  Name = 
  3 active torsions:
  status: ('A' for Active; 'I' for Inactive)
    1  A    between atoms: C_6  and  N_7
    2  A    between atoms: C_16  and  C_27
    3  A    between atoms: C_27  and  C_32
                            x       y       z     vdW  Elec       q    Type
                         _______ _______ _______ _____ _____    ______ ____

>  <TORSDO>
F 3

$$$$
=
 OpenBabel10272413303D

 32 37  0  0  1  0  0  0  0  0999 V2000
  189.1610  178.0550  147.7880 C   0  0  0  0  0  0  0  0  0  0  0  0
  185.8540  178.3200  147.2450 C   0  0  0  0  0  3  0  0  0  0  0  0
  184.6320  178.3760  142.2080 C   0  0  0  0  0  0  0  0  0  0  0  0
  180.0390  179.8530  142.5320 C   0  0  0  0  0  3  0  0  0  0  0  0
  179.9820  179.8970  141.1750 N   0  0  0  0  0  0  0  0  0  0  0  0
  185.9340  177.9210  144.1420 C   0  0  0  0  0  0  0  0  0  0  0  0
  183.6620  178.6400  144.3660 N   0  0  0  0  0  0  0  0  0  0  0  0
  188.1190  178.7980  147.8640 N   0  0  0  0  0  0  0  0  0  0  0  0
  184.8100  178.1520  146.4370 C   0  0  0  0  0  3  0  0  0  0  0  0
  181.2150  179.4620  143.1730 C   0  0  0  0  0  3  0  0  0  0  0  0
  183.5360  178.7160  143.0150 C   0  0  0  0  0  0  0  0  0  0  0  0
  182.3360  179.1170  142.4080 C   0  0  0  0  0  0  0  0  0  0  0  0
  183.3860  178.8240  140.2310 C   0  0  0  0  0  0  0  0  0  0  0  0
  189.3250  177.0220  146.3380 S   0  0  0  0  0  0  0  0  0  0  0  0
  187.7590  177.7040  145.8310 C   0  0  0  0  0  0  0  0  0  0  0  0
  190.1730  178.0380  148.8790 C   0  0  0  0  0  1  0  0  0  0  0  0
  184.8260  178.2660  144.9640 C   0  0  0  0  0  0  0  0  0  0  0  0
  187.2210  177.4060  144.6520 C   0  0  0  0  0  3  0  0  0  0  0  0
  187.2030  178.7260  146.7580 C   0  0  1  0  0  3  0  0  0  0  0  0
  181.0530  179.5690  140.4040 C   0  0  0  0  0  3  0  0  0  0  0  0
  182.2580  179.1720  140.9990 C   0  0  0  0  0  0  0  0  0  0  0  0
  185.7900  177.9790  142.7910 N   0  0  0  0  0  0  0  0  0  0  0  0
  184.5320  178.4350  140.8540 N   0  0  0  0  0  0  0  0  0  0  0  0
  183.3620  178.8840  138.7340 C   0  0  0  0  0  2  0  0  0  0  0  0
  184.8830  177.2020  137.6250 N   0  0  0  0  0  0  0  0  0  0  0  0
  182.8400  176.4760  137.9990 C   0  0  0  0  0  0  0  0  0  0  0  0
  183.5780  175.4840  137.3790 C   0  0  0  0  0  3  0  0  0  0  0  0
  184.8250  175.9610  137.1680 N   0  0  0  0  0  0  0  0  0  0  0  0
  181.4150  176.3860  138.4160 C   0  0  0  0  0  1  0  0  0  0  0  0
  183.6940  177.5460  138.1510 C   0  0  0  0  0  0  0  0  0  0  0  0
  186.0850  178.0190  137.5900 C   0  0  0  0  0  2  0  0  0  0  0  0
  187.2240  177.2360  136.9640 C   0  0  0  0  0  1  0  0  0  0  0  0
  1  8  2  0  0  0  0
  1 16  1  0  0  0  0
  3 22  2  0  0  0  0
  3 11  1  0  0  0  0
  4 10  1  0  0  0  0
  5  4  2  0  0  0  0
  6 18  1  0  0  0  0
  6 17  2  0  0  0  0
  7 17  1  0  0  0  0
  9  2  2  0  0  0  0
 11  7  2  0  0  0  0
 12 11  1  0  0  0  0
 12 10  2  0  0  0  0
 13 23  2  0  0  0  0
 13 21  1  0  0  0  0
 14  1  1  0  0  0  0
 15 14  1  0  0  0  0
 15 19  1  0  0  0  0
 17  9  1  0  0  0  0
 18 15  2  0  0  0  0
 19  2  1  1  0  0  0
 19  8  1  0  0  0  0
 20 21  2  0  0  0  0
 20  5  1  0  0  0  0
 21 12  1  0  0  0  0
 22  6  1  0  0  0  0
 23  3  1  0  0  0  0
 24 13  1  0  0  0  0
 25 30  1  0  0  0  0
 26 30  2  0  0  0  0
 26 29  1  0  0  0  0
 27 26  1  0  0  0  0
 28 27  2  0  0  0  0
 28 25  1  0  0  0  0
 30 24  1  0  0  0  0
 31 25  1  0  0  0  0
 32 31  1  0  0  0  0
M  END
>  <MODEL>
9

>  <REMARK>
 VINA RESULT:      -7.4      3.830      6.786
  Name = 
  3 active torsions:
  status: ('A' for Active; 'I' for Inactive)
    1  A    between atoms: C_6  and  N_7
    2  A    between atoms: C_16  and  C_27
    3  A    between atoms: C_27  and  C_32
                            x       y       z     vdW  Elec       q    Type
                         _______ _______ _______ _____ _____    ______ ____

>  <TORSDO>
F 3

$$$$
