=
 OpenBabel10272400573D

 27 30  0  0  1  0  0  0  0  0999 V2000
  190.4140  177.5160  141.8570 N   0  0  0  0  0  0  0  0  0  0  0  0
  188.0500  177.9710  141.5510 C   0  0  0  0  0  0  0  0  0  0  0  0
  188.3330  176.6780  143.7170 C   0  0  0  0  0  2  0  0  0  0  0  0
  184.4350  179.3100  142.9200 N   0  0  0  0  0  0  0  0  0  0  0  0
  183.3600  178.7860  145.1150 C   0  0  0  0  0  1  0  0  0  0  0  0
  187.3060  178.7890  140.7370 N   0  0  0  0  0  0  0  0  0  0  0  0
  185.5920  177.9500  144.3200 N   0  0  0  0  0  0  0  0  0  0  0  0
  185.9200  177.1490  145.4910 C   0  0  0  0  0  1  0  0  0  0  0  0
  186.3090  178.1260  143.1970 C   0  0  0  0  0  0  0  0  0  0  0  0
  189.3680  177.4720  141.0770 C   0  0  0  0  0  0  0  0  0  0  0  0
  184.4680  178.6800  144.1220 C   0  0  0  0  0  0  0  0  0  0  0  0
  185.6040  178.9430  142.3640 C   0  0  0  0  0  0  0  0  0  0  0  0
  190.4350  178.1140  143.1930 C   0  0  1  0  0  3  0  0  0  0  0  0
  187.5590  177.6100  142.8310 C   0  0  0  0  0  0  0  0  0  0  0  0
  186.0920  179.2880  141.1120 C   0  0  0  0  0  3  0  0  0  0  0  0
  189.6470  177.2830  144.2270 C   0  0  1  0  0  3  0  0  0  0  0  0
  189.7940  175.8070  137.1810 N   0  0  0  0  0  0  0  0  0  0  0  0
  189.5130  176.9020  139.7160 C   0  0  0  0  0  0  0  0  0  0  0  0
  188.4440  176.9170  138.8090 C   0  0  0  0  0  3  0  0  0  0  0  0
  188.6060  176.3630  137.5370 C   0  0  0  0  0  3  0  0  0  0  0  0
  190.8480  175.7740  138.0400 C   0  0  0  0  0  3  0  0  0  0  0  0
  190.7250  176.3180  139.3200 C   0  0  0  0  0  3  0  0  0  0  0  0
  191.8770  178.3230  143.6390 C   0  0  0  0  0  2  0  0  0  0  0  0
  192.0350  179.5810  144.2240 O   0  0  0  0  0  1  0  0  0  0  0  0
  189.4480  178.0330  145.5480 C   0  0  0  0  0  2  0  0  0  0  0  0
  189.7400  177.1630  146.7610 C   0  0  0  0  0  2  0  0  0  0  0  0
  191.0910  176.8210  146.7720 O   0  0  0  0  0  1  0  0  0  0  0  0
  1 13  1  0  0  0  0
  2 14  1  0  0  0  0
  3 16  1  0  0  0  0
  4 11  2  0  0  0  0
  6 15  1  0  0  0  0
  6  2  2  0  0  0  0
  7  8  1  0  0  0  0
  9  7  1  0  0  0  0
 10  2  1  0  0  0  0
 10  1  2  0  0  0  0
 11  7  1  0  0  0  0
 11  5  1  0  0  0  0
 12  4  1  0  0  0  0
 12  9  1  0  0  0  0
 13 23  1  1  0  0  0
 13 16  1  0  0  0  0
 14  9  2  0  0  0  0
 14  3  1  0  0  0  0
 15 12  2  0  0  0  0
 16 25  1  1  0  0  0
 17 20  2  0  0  0  0
 17 21  1  0  0  0  0
 18 10  1  0  0  0  0
 19 18  2  0  0  0  0
 20 19  1  0  0  0  0
 21 22  2  0  0  0  0
 22 18  1  0  0  0  0
 23 24  1  0  0  0  0
 25 26  1  0  0  0  0
 26 27  1  0  0  0  0
M  END
>  <MODEL>
1

>  <REMARK>
 VINA RESULT:      -7.8      0.000      0.000
  Name = 
  4 active torsions:
  status: ('A' for Active; 'I' for Inactive)
    1  A    between atoms: C_9  and  C_15
    2  A    between atoms: C_10  and  C_20
    3  A    between atoms: CA_18  and  C_22
    4  A    between atoms: C_20  and  C_26
                            x       y       z     vdW  Elec       q    Type
                         _______ _______ _______ _____ _____    ______ ____

>  <TORSDO>
F 4

$$$$
=
 OpenBabel10272400573D

 27 30  0  0  1  0  0  0  0  0999 V2000
  186.1810  178.2990  141.0410 N   0  0  0  0  0  0  0  0  0  0  0  0
  185.3900  178.5850  143.3170 C   0  0  0  0  0  0  0  0  0  0  0  0
  187.2730  176.8820  143.3410 C   0  0  0  0  0  2  0  0  0  0  0  0
  186.0480  179.2460  147.3000 N   0  0  0  0  0  0  0  0  0  0  0  0
  187.7670  178.1550  148.7510 C   0  0  0  0  0  1  0  0  0  0  0  0
  184.5880  179.4870  143.9700 N   0  0  0  0  0  0  0  0  0  0  0  0
  187.4070  177.7270  146.3010 N   0  0  0  0  0  0  0  0  0  0  0  0
  188.4480  176.7240  146.1310 C   0  0  0  0  0  1  0  0  0  0  0  0
  186.5510  178.2110  145.3850 C   0  0  0  0  0  0  0  0  0  0  0  0
  185.1730  178.3280  141.8680 C   0  0  0  0  0  0  0  0  0  0  0  0
  187.0780  178.3730  147.4460 C   0  0  0  0  0  0  0  0  0  0  0  0
  185.7400  179.1210  145.9960 C   0  0  0  0  0  0  0  0  0  0  0  0
  187.5680  178.5890  141.4050 C   0  0  1  0  0  3  0  0  0  0  0  0
  186.4150  177.9080  144.0240 C   0  0  0  0  0  0  0  0  0  0  0  0
  184.7370  179.7760  145.2950 C   0  0  0  0  0  3  0  0  0  0  0  0
  188.1980  177.4820  142.2750 C   0  0  1  0  0  3  0  0  0  0  0  0
  181.2470  177.6650  140.3570 N   0  0  0  0  0  0  0  0  0  0  0  0
  183.8070  178.0860  141.3430 C   0  0  0  0  0  0  0  0  0  0  0  0
  183.6000  177.2860  140.2100 C   0  0  0  0  0  3  0  0  0  0  0  0
  182.3040  177.0850  139.7290 C   0  0  0  0  0  3  0  0  0  0  0  0
  181.4150  178.4490  141.4550 C   0  0  0  0  0  3  0  0  0  0  0  0
  182.6960  178.6730  141.9650 C   0  0  0  0  0  3  0  0  0  0  0  0
  188.3900  178.8300  140.1430 C   0  0  0  0  0  2  0  0  0  0  0  0
  187.6440  178.5230  139.0030 O   0  0  0  0  0  1  0  0  0  0  0  0
  189.5450  177.9020  142.8690 C   0  0  0  0  0  2  0  0  0  0  0  0
  190.6210  176.8440  142.6800 C   0  0  0  0  0  2  0  0  0  0  0  0
  190.3770  176.1420  141.5000 O   0  0  0  0  0  1  0  0  0  0  0  0
  1 13  1  0  0  0  0
  1 10  2  0  0  0  0
  2  6  2  0  0  0  0
  2 14  1  0  0  0  0
  3 14  1  0  0  0  0
  4 11  2  0  0  0  0
  6 15  1  0  0  0  0
  7 11  1  0  0  0  0
  8  7  1  0  0  0  0
  9 12  1  0  0  0  0
  9  7  1  0  0  0  0
 10  2  1  0  0  0  0
 11  5  1  0  0  0  0
 12  4  1  0  0  0  0
 13 23  1  6  0  0  0
 13 16  1  0  0  0  0
 14  9  2  0  0  0  0
 15 12  2  0  0  0  0
 16 25  1  1  0  0  0
 16  3  1  0  0  0  0
 17 21  1  0  0  0  0
 18 10  1  0  0  0  0
 18 22  1  0  0  0  0
 19 18  2  0  0  0  0
 20 19  1  0  0  0  0
 20 17  2  0  0  0  0
 21 22  2  0  0  0  0
 24 23  1  0  0  0  0
 26 25  1  0  0  0  0
 27 26  1  0  0  0  0
M  END
>  <MODEL>
2

>  <REMARK>
 VINA RESULT:      -7.3      2.775      5.156
  Name = 
  4 active torsions:
  status: ('A' for Active; 'I' for Inactive)
    1  A    between atoms: C_9  and  C_15
    2  A    between atoms: C_10  and  C_20
    3  A    between atoms: CA_18  and  C_22
    4  A    between atoms: C_20  and  C_26
                            x       y       z     vdW  Elec       q    Type
                         _______ _______ _______ _____ _____    ______ ____

>  <TORSDO>
F 4

$$$$
=
 OpenBabel10272400573D

 27 30  0  0  1  0  0  0  0  0999 V2000
  190.1780  177.2770  140.6970 N   0  0  0  0  0  0  0  0  0  0  0  0
  187.8470  177.8740  141.0060 C   0  0  0  0  0  0  0  0  0  0  0  0
  188.5750  176.4730  142.9940 C   0  0  0  0  0  2  0  0  0  0  0  0
  184.7790  179.3490  143.2750 N   0  0  0  0  0  0  0  0  0  0  0  0
  184.2510  178.7880  145.6530 C   0  0  0  0  0  1  0  0  0  0  0  0
  186.9790  178.7680  140.4280 N   0  0  0  0  0  0  0  0  0  0  0  0
  186.1570  177.8660  144.3010 N   0  0  0  0  0  0  0  0  0  0  0  0
  186.7130  176.9980  145.3280 C   0  0  0  0  0  1  0  0  0  0  0  0
  186.5820  178.0520  143.0390 C   0  0  0  0  0  0  0  0  0  0  0  0
  188.9710  177.3250  140.2030 C   0  0  0  0  0  0  0  0  0  0  0  0
  185.0680  178.6650  144.4120 C   0  0  0  0  0  0  0  0  0  0  0  0
  185.7470  178.9430  142.4340 C   0  0  0  0  0  0  0  0  0  0  0  0
  190.5680  177.8130  142.0020 C   0  0  1  0  0  3  0  0  0  0  0  0
  187.6670  177.4850  142.3570 C   0  0  0  0  0  0  0  0  0  0  0  0
  185.9310  179.3150  141.1090 C   0  0  0  0  0  3  0  0  0  0  0  0
  190.0110  176.9820  143.1760 C   0  0  1  0  0  3  0  0  0  0  0  0
  188.2930  175.8730  136.2580 N   0  0  0  0  0  0  0  0  0  0  0  0
  188.7370  176.8090  138.8330 C   0  0  0  0  0  0  0  0  0  0  0  0
  189.7080  176.0410  138.1740 C   0  0  0  0  0  3  0  0  0  0  0  0
  189.4650  175.5770  136.8790 C   0  0  0  0  0  3  0  0  0  0  0  0
  187.3340  176.6190  136.8680 C   0  0  0  0  0  3  0  0  0  0  0  0
  187.5400  177.1000  138.1630 C   0  0  0  0  0  3  0  0  0  0  0  0
  192.0870  177.9220  142.0780 C   0  0  0  0  0  2  0  0  0  0  0  0
  192.6630  177.6630  140.8330 O   0  0  0  0  0  1  0  0  0  0  0  0
  190.1940  177.6820  144.5250 C   0  0  0  0  0  2  0  0  0  0  0  0
  190.5640  176.7140  145.6380 C   0  0  0  0  0  2  0  0  0  0  0  0
  190.0670  177.1890  146.8510 O   0  0  0  0  0  1  0  0  0  0  0  0
  1 13  1  0  0  0  0
  2 14  1  0  0  0  0
  3 16  1  0  0  0  0
  4 11  2  0  0  0  0
  6  2  2  0  0  0  0
  6 15  1  0  0  0  0
  7 11  1  0  0  0  0
  7  8  1  0  0  0  0
  9  7  1  0  0  0  0
 10  1  2  0  0  0  0
 10  2  1  0  0  0  0
 11  5  1  0  0  0  0
 12  9  1  0  0  0  0
 12  4  1  0  0  0  0
 13 23  1  6  0  0  0
 13 16  1  0  0  0  0
 14  3  1  0  0  0  0
 14  9  2  0  0  0  0
 15 12  2  0  0  0  0
 16 25  1  1  0  0  0
 17 21  2  0  0  0  0
 17 20  1  0  0  0  0
 18 10  1  0  0  0  0
 19 18  1  0  0  0  0
 20 19  2  0  0  0  0
 21 22  1  0  0  0  0
 22 18  2  0  0  0  0
 24 23  1  0  0  0  0
 25 26  1  0  0  0  0
 26 27  1  0  0  0  0
M  END
>  <MODEL>
3

>  <REMARK>
 VINA RESULT:      -6.8      1.240      1.592
  Name = 
  4 active torsions:
  status: ('A' for Active; 'I' for Inactive)
    1  A    between atoms: C_9  and  C_15
    2  A    between atoms: C_10  and  C_20
    3  A    between atoms: CA_18  and  C_22
    4  A    between atoms: C_20  and  C_26
                            x       y       z     vdW  Elec       q    Type
                         _______ _______ _______ _____ _____    ______ ____

>  <TORSDO>
F 4

$$$$
=
 OpenBabel10272400573D

 27 30  0  0  1  0  0  0  0  0999 V2000
  187.6340  177.5660  142.6440 N   0  0  0  0  0  0  0  0  0  0  0  0
  189.7940  176.6520  143.2670 C   0  0  0  0  0  0  0  0  0  0  0  0
  189.1440  178.3940  144.9950 C   0  0  0  0  0  2  0  0  0  0  0  0
  192.3560  175.0140  146.0040 N   0  0  0  0  0  0  0  0  0  0  0  0
  192.7620  175.7850  148.3470 C   0  0  0  0  0  1  0  0  0  0  0  0
  190.5440  175.5660  142.8910 N   0  0  0  0  0  0  0  0  0  0  0  0
  191.1660  176.8160  146.7030 N   0  0  0  0  0  0  0  0  0  0  0  0
  190.6790  177.8860  147.5600 C   0  0  0  0  0  1  0  0  0  0  0  0
  190.8270  176.5390  145.4310 C   0  0  0  0  0  0  0  0  0  0  0  0
  188.8540  177.2640  142.2920 C   0  0  0  0  0  0  0  0  0  0  0  0
  192.0890  175.8760  147.0190 C   0  0  0  0  0  0  0  0  0  0  0  0
  191.5480  175.4570  145.0230 C   0  0  0  0  0  0  0  0  0  0  0  0
  187.0460  177.2710  143.9520 C   0  0  1  0  0  3  0  0  0  0  0  0
  189.9190  177.1780  144.5770 C   0  0  0  0  0  0  0  0  0  0  0  0
  191.4200  174.9510  143.7370 C   0  0  0  0  0  3  0  0  0  0  0  0
  187.6330  178.1470  145.0780 C   0  0  1  0  0  3  0  0  0  0  0  0
  190.1100  178.0710  138.3040 N   0  0  0  0  0  0  0  0  0  0  0  0
  189.2910  177.5560  140.9050 C   0  0  0  0  0  0  0  0  0  0  0  0
  188.5500  178.4130  140.0790 C   0  0  0  0  0  3  0  0  0  0  0  0
  188.9790  178.6610  138.7730 C   0  0  0  0  0  3  0  0  0  0  0  0
  190.8480  177.2320  139.0790 C   0  0  0  0  0  3  0  0  0  0  0  0
  190.4510  176.9600  140.3900 C   0  0  0  0  0  3  0  0  0  0  0  0
  185.5300  177.4140  143.8770 C   0  0  0  0  0  2  0  0  0  0  0  0
  185.1590  178.1420  142.7440 O   0  0  0  0  0  1  0  0  0  0  0  0
  187.2160  177.6640  146.4700 C   0  0  0  0  0  2  0  0  0  0  0  0
  186.5950  178.7710  147.3090 C   0  0  0  0  0  2  0  0  0  0  0  0
  185.2220  178.8160  147.0740 O   0  0  0  0  0  1  0  0  0  0  0  0
  1 13  1  0  0  0  0
  2 14  1  0  0  0  0
  3 16  1  0  0  0  0
  4 11  2  0  0  0  0
  6  2  2  0  0  0  0
  6 15  1  0  0  0  0
  7 11  1  0  0  0  0
  7  8  1  0  0  0  0
  9  7  1  0  0  0  0
 10  1  2  0  0  0  0
 10  2  1  0  0  0  0
 11  5  1  0  0  0  0
 12  9  1  0  0  0  0
 12  4  1  0  0  0  0
 13 23  1  6  0  0  0
 13 16  1  0  0  0  0
 14  3  1  0  0  0  0
 14  9  2  0  0  0  0
 15 12  2  0  0  0  0
 16 25  1  1  0  0  0
 17 20  2  0  0  0  0
 17 21  1  0  0  0  0
 18 10  1  0  0  0  0
 19 18  2  0  0  0  0
 20 19  1  0  0  0  0
 21 22  2  0  0  0  0
 22 18  1  0  0  0  0
 24 23  1  0  0  0  0
 25 26  1  0  0  0  0
 27 26  1  0  0  0  0
M  END
>  <MODEL>
4

>  <REMARK>
 VINA RESULT:      -6.7      2.912      5.181
  Name = 
  4 active torsions:
  status: ('A' for Active; 'I' for Inactive)
    1  A    between atoms: C_9  and  C_15
    2  A    between atoms: C_10  and  C_20
    3  A    between atoms: CA_18  and  C_22
    4  A    between atoms: C_20  and  C_26
                            x       y       z     vdW  Elec       q    Type
                         _______ _______ _______ _____ _____    ______ ____

>  <TORSDO>
F 4

$$$$
=
 OpenBabel10272400573D

 27 30  0  0  1  0  0  0  0  0999 V2000
  188.2570  177.5990  139.2580 N   0  0  0  0  0  0  0  0  0  0  0  0
  190.5740  176.9270  139.5230 C   0  0  0  0  0  0  0  0  0  0  0  0
  189.5140  175.4360  137.7630 C   0  0  0  0  0  2  0  0  0  0  0  0
  194.2470  175.9860  137.9880 N   0  0  0  0  0  0  0  0  0  0  0  0
  194.7380  174.4860  136.0500 C   0  0  0  0  0  1  0  0  0  0  0  0
  191.6870  177.4620  140.1210 N   0  0  0  0  0  0  0  0  0  0  0  0
  192.4610  175.0460  136.9520 N   0  0  0  0  0  0  0  0  0  0  0  0
  191.6860  174.2380  136.0210 C   0  0  0  0  0  1  0  0  0  0  0  0
  192.0200  175.8160  137.9620 C   0  0  0  0  0  0  0  0  0  0  0  0
  189.2270  177.2550  140.0600 C   0  0  0  0  0  0  0  0  0  0  0  0
  193.8090  175.1720  136.9940 C   0  0  0  0  0  0  0  0  0  0  0  0
  193.1010  176.3740  138.5770 C   0  0  0  0  0  0  0  0  0  0  0  0
  188.3950  177.7810  137.8120 C   0  0  1  0  0  3  0  0  0  0  0  0
  190.7140  176.0700  138.4020 C   0  0  0  0  0  0  0  0  0  0  0  0
  192.9520  177.2090  139.6750 C   0  0  0  0  0  3  0  0  0  0  0  0
  188.5980  176.4480  137.0620 C   0  0  1  0  0  3  0  0  0  0  0  0
  188.4270  177.0340  144.2370 N   0  0  0  0  0  0  0  0  0  0  0  0
  188.9580  177.1820  141.5170 C   0  0  0  0  0  0  0  0  0  0  0  0
  189.8040  176.4600  142.3720 C   0  0  0  0  0  3  0  0  0  0  0  0
  189.5200  176.3990  143.7390 C   0  0  0  0  0  3  0  0  0  0  0  0
  187.5860  177.7390  143.4330 C   0  0  0  0  0  3  0  0  0  0  0  0
  187.8360  177.8230  142.0620 C   0  0  0  0  0  3  0  0  0  0  0  0
  187.1860  178.5360  137.2720 C   0  0  0  0  0  2  0  0  0  0  0  0
  186.2340  178.7250  138.2760 O   0  0  0  0  0  1  0  0  0  0  0  0
  189.0020  176.6560  135.6000 C   0  0  0  0  0  2  0  0  0  0  0  0
  188.2550  175.7300  134.6520 C   0  0  0  0  0  2  0  0  0  0  0  0
  186.9720  175.4980  135.1460 O   0  0  0  0  0  1  0  0  0  0  0  0
  1 10  2  0  0  0  0
  2 10  1  0  0  0  0
  2  6  1  0  0  0  0
  3 14  1  0  0  0  0
  4 12  1  0  0  0  0
  5 11  1  0  0  0  0
  7 11  1  0  0  0  0
  7  9  1  0  0  0  0
  8  7  1  0  0  0  0
  9 14  1  0  0  0  0
  9 12  2  0  0  0  0
 10 18  1  0  0  0  0
 11  4  2  0  0  0  0
 12 15  1  0  0  0  0
 13 23  1  6  0  0  0
 13  1  1  0  0  0  0
 14  2  2  0  0  0  0
 15  6  2  0  0  0  0
 16 25  1  6  0  0  0
 16  3  1  0  0  0  0
 16 13  1  0  0  0  0
 18 22  2  0  0  0  0
 18 19  1  0  0  0  0
 19 20  2  0  0  0  0
 20 17  1  0  0  0  0
 21 17  2  0  0  0  0
 22 21  1  0  0  0  0
 23 24  1  0  0  0  0
 26 27  1  0  0  0  0
 26 25  1  0  0  0  0
M  END
>  <MODEL>
5

>  <REMARK>
 VINA RESULT:      -6.4      3.448      8.305
  Name = 
  4 active torsions:
  status: ('A' for Active; 'I' for Inactive)
    1  A    between atoms: C_9  and  C_15
    2  A    between atoms: C_10  and  C_20
    3  A    between atoms: CA_18  and  C_22
    4  A    between atoms: C_20  and  C_26
                            x       y       z     vdW  Elec       q    Type
                         _______ _______ _______ _____ _____    ______ ____

>  <TORSDO>
F 4

$$$$
=
 OpenBabel10272400573D

 27 30  0  0  1  0  0  0  0  0999 V2000
  187.3070  177.4270  146.0540 N   0  0  0  0  0  0  0  0  0  0  0  0
  187.9310  177.5110  143.7100 C   0  0  0  0  0  0  0  0  0  0  0  0
  189.7900  178.5880  145.0620 C   0  0  0  0  0  2  0  0  0  0  0  0
  190.6040  176.9080  140.6720 N   0  0  0  0  0  0  0  0  0  0  0  0
  193.0250  177.5260  140.6430 C   0  0  0  0  0  1  0  0  0  0  0  0
  187.4830  176.9200  142.5550 N   0  0  0  0  0  0  0  0  0  0  0  0
  191.4210  177.9050  142.5390 N   0  0  0  0  0  0  0  0  0  0  0  0
  192.3570  178.5490  143.4500 C   0  0  0  0  0  1  0  0  0  0  0  0
  190.1160  177.6430  142.7250 C   0  0  0  0  0  0  0  0  0  0  0  0
  186.9800  177.7400  144.8300 C   0  0  0  0  0  0  0  0  0  0  0  0
  191.6850  177.4480  141.2920 C   0  0  0  0  0  0  0  0  0  0  0  0
  189.6370  177.0450  141.5980 C   0  0  0  0  0  0  0  0  0  0  0  0
  188.5540  176.7650  146.4410 C   0  0  1  0  0  3  0  0  0  0  0  0
  189.2900  177.8970  143.8270 C   0  0  0  0  0  0  0  0  0  0  0  0
  188.3030  176.6740  141.4920 C   0  0  0  0  0  3  0  0  0  0  0  0
  189.7840  177.6860  146.3030 C   0  0  1  0  0  3  0  0  0  0  0  0
  183.1480  179.4410  144.0810 N   0  0  0  0  0  0  0  0  0  0  0  0
  185.6480  178.3410  144.5760 C   0  0  0  0  0  0  0  0  0  0  0  0
  184.7630  178.6080  145.6310 C   0  0  0  0  0  3  0  0  0  0  0  0
  183.5100  179.1630  145.3620 C   0  0  0  0  0  3  0  0  0  0  0  0
  183.9830  179.1900  143.0370 C   0  0  0  0  0  3  0  0  0  0  0  0
  185.2430  178.6360  143.2660 C   0  0  0  0  0  3  0  0  0  0  0  0
  188.4280  176.2250  147.8610 C   0  0  0  0  0  2  0  0  0  0  0  0
  188.1480  177.2570  148.7580 O   0  0  0  0  0  1  0  0  0  0  0  0
  191.1030  176.9240  146.4530 C   0  0  0  0  0  2  0  0  0  0  0  0
  191.6100  176.9130  147.8870 C   0  0  0  0  0  2  0  0  0  0  0  0
  192.7300  176.0890  147.9770 O   0  0  0  0  0  1  0  0  0  0  0  0
  1 13  1  0  0  0  0
  2 14  1  0  0  0  0
  2 10  1  0  0  0  0
  3 16  1  0  0  0  0
  4 11  2  0  0  0  0
  4 12  1  0  0  0  0
  5 11  1  0  0  0  0
  6  2  2  0  0  0  0
  7  9  1  0  0  0  0
  7  8  1  0  0  0  0
  9 14  2  0  0  0  0
 10  1  2  0  0  0  0
 11  7  1  0  0  0  0
 12  9  1  0  0  0  0
 13 23  1  1  0  0  0
 14  3  1  0  0  0  0
 15 12  2  0  0  0  0
 15  6  1  0  0  0  0
 16 13  1  0  0  0  0
 16 25  1  6  0  0  0
 17 20  1  0  0  0  0
 18 10  1  0  0  0  0
 18 19  1  0  0  0  0
 20 19  2  0  0  0  0
 21 22  1  0  0  0  0
 21 17  2  0  0  0  0
 22 18  2  0  0  0  0
 23 24  1  0  0  0  0
 25 26  1  0  0  0  0
 26 27  1  0  0  0  0
M  END
>  <MODEL>
6

>  <REMARK>
 VINA RESULT:      -6.0      2.181      6.013
  Name = 
  4 active torsions:
  status: ('A' for Active; 'I' for Inactive)
    1  A    between atoms: C_9  and  C_15
    2  A    between atoms: C_10  and  C_20
    3  A    between atoms: CA_18  and  C_22
    4  A    between atoms: C_20  and  C_26
                            x       y       z     vdW  Elec       q    Type
                         _______ _______ _______ _____ _____    ______ ____

>  <TORSDO>
F 4

$$$$
=
 OpenBabel10272400573D

 27 30  0  0  1  0  0  0  0  0999 V2000
  188.8550  177.6950  146.6410 N   0  0  0  0  0  0  0  0  0  0  0  0
  189.0220  177.7080  144.2200 C   0  0  0  0  0  0  0  0  0  0  0  0
  186.6360  177.1070  144.8450 C   0  0  0  0  0  2  0  0  0  0  0  0
  187.6800  178.8420  140.5250 N   0  0  0  0  0  0  0  0  0  0  0  0
  185.3260  178.7870  139.6890 C   0  0  0  0  0  1  0  0  0  0  0  0
  189.9380  178.1600  143.3040 N   0  0  0  0  0  0  0  0  0  0  0  0
  186.1030  178.0920  141.9750 N   0  0  0  0  0  0  0  0  0  0  0  0
  184.8050  177.6950  142.5020 C   0  0  0  0  0  1  0  0  0  0  0  0
  187.3020  178.0560  142.5820 C   0  0  0  0  0  0  0  0  0  0  0  0
  189.4840  177.2920  145.5710 C   0  0  0  0  0  0  0  0  0  0  0  0
  186.3660  178.5730  140.7360 C   0  0  0  0  0  0  0  0  0  0  0  0
  188.2400  178.5070  141.7030 C   0  0  0  0  0  0  0  0  0  0  0  0
  187.7290  178.6300  146.6450 C   0  0  1  0  0  3  0  0  0  0  0  0
  187.6490  177.6430  143.8750 C   0  0  0  0  0  0  0  0  0  0  0  0
  189.5830  178.5640  142.0490 C   0  0  0  0  0  3  0  0  0  0  0  0
  186.4390  178.0090  146.0710 C   0  0  1  0  0  3  0  0  0  0  0  0
  192.8420  174.7150  146.0330 N   0  0  0  0  0  0  0  0  0  0  0  0
  190.6590  176.4000  145.7240 C   0  0  0  0  0  0  0  0  0  0  0  0
  191.1720  175.6880  144.6310 C   0  0  0  0  0  3  0  0  0  0  0  0
  192.2730  174.8460  144.8060 C   0  0  0  0  0  3  0  0  0  0  0  0
  192.3650  175.3890  147.1140 C   0  0  0  0  0  3  0  0  0  0  0  0
  191.2660  176.2400  146.9780 C   0  0  0  0  0  3  0  0  0  0  0  0
  187.5040  179.1550  148.0590 C   0  0  0  0  0  2  0  0  0  0  0  0
  188.1640  178.3550  148.9930 O   0  0  0  0  0  1  0  0  0  0  0  0
  185.3440  179.0530  145.8330 C   0  0  0  0  0  2  0  0  0  0  0  0
  183.9460  178.4720  145.9700 C   0  0  0  0  0  2  0  0  0  0  0  0
  183.0720  179.1620  145.1310 O   0  0  0  0  0  1  0  0  0  0  0  0
  1 13  1  0  0  0  0
  2 10  1  0  0  0  0
  3 16  1  0  0  0  0
  4 11  2  0  0  0  0
  4 12  1  0  0  0  0
  5 11  1  0  0  0  0
  6  2  2  0  0  0  0
  7  8  1  0  0  0  0
  7  9  1  0  0  0  0
  9 14  2  0  0  0  0
 10 18  1  0  0  0  0
 10  1  2  0  0  0  0
 11  7  1  0  0  0  0
 12 15  2  0  0  0  0
 12  9  1  0  0  0  0
 13 23  1  1  0  0  0
 14  2  1  0  0  0  0
 14  3  1  0  0  0  0
 15  6  1  0  0  0  0
 16 25  1  6  0  0  0
 16 13  1  0  0  0  0
 17 21  1  0  0  0  0
 18 22  1  0  0  0  0
 19 20  1  0  0  0  0
 19 18  2  0  0  0  0
 20 17  2  0  0  0  0
 22 21  2  0  0  0  0
 23 24  1  0  0  0  0
 25 26  1  0  0  0  0
 27 26  1  0  0  0  0
M  END
>  <MODEL>
7

>  <REMARK>
 VINA RESULT:      -6.0      2.785      5.433
  Name = 
  4 active torsions:
  status: ('A' for Active; 'I' for Inactive)
    1  A    between atoms: C_9  and  C_15
    2  A    between atoms: C_10  and  C_20
    3  A    between atoms: CA_18  and  C_22
    4  A    between atoms: C_20  and  C_26
                            x       y       z     vdW  Elec       q    Type
                         _______ _______ _______ _____ _____    ______ ____

>  <TORSDO>
F 4

$$$$
=
 OpenBabel10272400573D

 27 30  0  0  1  0  0  0  0  0999 V2000
  189.3110  177.9000  141.9760 N   0  0  0  0  0  0  0  0  0  0  0  0
  191.3280  177.1820  140.8340 C   0  0  0  0  0  0  0  0  0  0  0  0
  189.3320  176.2360  139.5830 C   0  0  0  0  0  2  0  0  0  0  0  0
  193.5710  176.7070  137.4450 N   0  0  0  0  0  0  0  0  0  0  0  0
  192.8100  175.8020  135.2430 C   0  0  0  0  0  1  0  0  0  0  0  0
  192.6550  177.5330  140.8750 N   0  0  0  0  0  0  0  0  0  0  0  0
  191.3920  176.0890  137.2970 N   0  0  0  0  0  0  0  0  0  0  0  0
  190.1510  175.5700  136.7420 C   0  0  0  0  0  1  0  0  0  0  0  0
  191.6280  176.5490  138.5380 C   0  0  0  0  0  0  0  0  0  0  0  0
  190.4910  177.3480  142.0510 C   0  0  0  0  0  0  0  0  0  0  0  0
  192.5840  176.2000  136.6620 C   0  0  0  0  0  0  0  0  0  0  0  0
  192.9380  176.9160  138.6150 C   0  0  0  0  0  0  0  0  0  0  0  0
  188.7340  178.4750  140.7600 C   0  0  1  0  0  3  0  0  0  0  0  0
  190.7680  176.6700  139.6370 C   0  0  0  0  0  0  0  0  0  0  0  0
  193.4780  177.4140  139.7930 C   0  0  0  0  0  3  0  0  0  0  0  0
  188.3440  177.4020  139.7230 C   0  0  1  0  0  3  0  0  0  0  0  0
  191.8590  175.9950  145.8510 N   0  0  0  0  0  0  0  0  0  0  0  0
  190.9770  176.8740  143.3700 C   0  0  0  0  0  0  0  0  0  0  0  0
  191.5110  175.5870  143.5240 C   0  0  0  0  0  3  0  0  0  0  0  0
  191.9500  175.1630  144.7800 C   0  0  0  0  0  3  0  0  0  0  0  0
  191.3430  177.2480  145.7350 C   0  0  0  0  0  3  0  0  0  0  0  0
  190.8930  177.7070  144.4950 C   0  0  0  0  0  3  0  0  0  0  0  0
  187.5400  179.3490  141.1230 C   0  0  0  0  0  2  0  0  0  0  0  0
  186.5250  178.5830  141.7000 O   0  0  0  0  0  1  0  0  0  0  0  0
  187.9910  178.0070  138.3610 C   0  0  0  0  0  2  0  0  0  0  0  0
  186.5590  177.7050  137.9440 C   0  0  0  0  0  2  0  0  0  0  0  0
  185.7520  178.8060  138.2290 O   0  0  0  0  0  1  0  0  0  0  0  0
  1 10  2  0  0  0  0
  2  6  1  0  0  0  0
  2 10  1  0  0  0  0
  3 14  1  0  0  0  0
  3 16  1  0  0  0  0
  4 12  1  0  0  0  0
  5 11  1  0  0  0  0
  7  9  1  0  0  0  0
  8  7  1  0  0  0  0
  9 12  2  0  0  0  0
  9 14  1  0  0  0  0
 10 18  1  0  0  0  0
 11  7  1  0  0  0  0
 11  4  2  0  0  0  0
 12 15  1  0  0  0  0
 13 23  1  1  0  0  0
 13  1  1  0  0  0  0
 14  2  2  0  0  0  0
 15  6  2  0  0  0  0
 16 25  1  6  0  0  0
 16 13  1  0  0  0  0
 18 19  2  0  0  0  0
 18 22  1  0  0  0  0
 19 20  1  0  0  0  0
 20 17  2  0  0  0  0
 21 17  1  0  0  0  0
 22 21  2  0  0  0  0
 23 24  1  0  0  0  0
 26 27  1  0  0  0  0
 26 25  1  0  0  0  0
M  END
>  <MODEL>
8

>  <REMARK>
 VINA RESULT:      -5.9      3.179      7.509
  Name = 
  4 active torsions:
  status: ('A' for Active; 'I' for Inactive)
    1  A    between atoms: C_9  and  C_15
    2  A    between atoms: C_10  and  C_20
    3  A    between atoms: CA_18  and  C_22
    4  A    between atoms: C_20  and  C_26
                            x       y       z     vdW  Elec       q    Type
                         _______ _______ _______ _____ _____    ______ ____

>  <TORSDO>
F 4

$$$$
=
 OpenBabel10272400573D

 27 30  0  0  1  0  0  0  0  0999 V2000
  187.3730  178.3400  141.8710 N   0  0  0  0  0  0  0  0  0  0  0  0
  188.0520  177.9210  144.1620 C   0  0  0  0  0  0  0  0  0  0  0  0
  189.0660  176.1150  142.6940 C   0  0  0  0  0  2  0  0  0  0  0  0
  190.9050  177.1130  146.9810 N   0  0  0  0  0  0  0  0  0  0  0  0
  192.7320  175.4130  146.8400 C   0  0  0  0  0  1  0  0  0  0  0  0
  188.0280  178.6300  145.3370 N   0  0  0  0  0  0  0  0  0  0  0  0
  191.0070  175.8850  145.0760 N   0  0  0  0  0  0  0  0  0  0  0  0
  191.4510  174.8910  144.1090 C   0  0  0  0  0  1  0  0  0  0  0  0
  189.9750  176.7420  144.9840 C   0  0  0  0  0  0  0  0  0  0  0  0
  187.0270  178.1970  143.1210 C   0  0  0  0  0  0  0  0  0  0  0  0
  191.5480  176.1360  146.2920 C   0  0  0  0  0  0  0  0  0  0  0  0
  189.9240  177.4730  146.1330 C   0  0  0  0  0  0  0  0  0  0  0  0
  188.7520  178.3350  141.3800 C   0  0  1  0  0  3  0  0  0  0  0  0
  189.0490  176.9360  143.9510 C   0  0  0  0  0  0  0  0  0  0  0  0
  188.9410  178.4330  146.3320 C   0  0  0  0  0  3  0  0  0  0  0  0
  189.3990  176.9360  141.4410 C   0  0  1  0  0  3  0  0  0  0  0  0
  182.9150  178.5180  144.1790 N   0  0  0  0  0  0  0  0  0  0  0  0
  185.5930  178.2990  143.4840 C   0  0  0  0  0  0  0  0  0  0  0  0
  184.5960  178.3040  142.4970 C   0  0  0  0  0  3  0  0  0  0  0  0
  183.2540  178.4130  142.8670 C   0  0  0  0  0  3  0  0  0  0  0  0
  183.8580  178.5210  145.1580 C   0  0  0  0  0  3  0  0  0  0  0  0
  185.2100  178.4130  144.8280 C   0  0  0  0  0  3  0  0  0  0  0  0
  188.7940  178.8990  139.9640 C   0  0  0  0  0  2  0  0  0  0  0  0
  187.7240  178.4150  139.2090 O   0  0  0  0  0  1  0  0  0  0  0  0
  190.9070  176.9790  141.1800 C   0  0  0  0  0  2  0  0  0  0  0  0
  191.2450  176.8830  139.7000 C   0  0  0  0  0  2  0  0  0  0  0  0
  190.5830  175.7890  139.1450 O   0  0  0  0  0  1  0  0  0  0  0  0
  1 10  2  0  0  0  0
  2  6  1  0  0  0  0
  3 14  1  0  0  0  0
  6 15  2  0  0  0  0
  7 11  1  0  0  0  0
  8  7  1  0  0  0  0
  9  7  1  0  0  0  0
  9 12  2  0  0  0  0
 10 18  1  0  0  0  0
 10  2  1  0  0  0  0
 11  5  1  0  0  0  0
 11  4  2  0  0  0  0
 12 15  1  0  0  0  0
 12  4  1  0  0  0  0
 13 23  1  6  0  0  0
 13 16  1  0  0  0  0
 13  1  1  0  0  0  0
 14  2  2  0  0  0  0
 14  9  1  0  0  0  0
 16 25  1  1  0  0  0
 16  3  1  0  0  0  0
 17 21  1  0  0  0  0
 18 22  1  0  0  0  0
 19 20  1  0  0  0  0
 19 18  2  0  0  0  0
 20 17  2  0  0  0  0
 22 21  2  0  0  0  0
 24 23  1  0  0  0  0
 26 25  1  0  0  0  0
 27 26  1  0  0  0  0
M  END
>  <MODEL>
9

>  <REMARK>
 VINA RESULT:      -5.8      2.801      6.260
  Name = 
  4 active torsions:
  status: ('A' for Active; 'I' for Inactive)
    1  A    between atoms: C_9  and  C_15
    2  A    between atoms: C_10  and  C_20
    3  A    between atoms: CA_18  and  C_22
    4  A    between atoms: C_20  and  C_26
                            x       y       z     vdW  Elec       q    Type
                         _______ _______ _______ _____ _____    ______ ____

>  <TORSDO>
F 4

$$$$
