=
 OpenBabel10272400513D

 25 27  0  0  1  0  0  0  0  0999 V2000
  185.6990  178.2260  144.9140 N   0  0  0  0  0  0  0  0  0  0  0  0
  186.9960  177.8170  145.0170 C   0  0  0  0  0  0  0  0  0  0  0  0
  185.5680  178.6840  147.2440 C   0  0  0  0  0  3  0  0  0  0  0  0
  184.8550  178.3180  143.8660 C   0  0  0  0  0  0  0  0  0  0  0  0
  186.8640  178.2790  147.3730 N   0  0  0  0  0  0  0  0  0  0  0  0
  183.6530  178.8090  144.3480 C   0  0  0  0  0  0  0  0  0  0  0  0
  188.9250  177.4300  146.4400 C   0  0  0  0  0  0  0  0  0  0  0  0
  189.5990  177.4400  147.7710 C   0  0  0  0  0  1  0  0  0  0  0  0
  187.7380  177.3730  143.9190 C   0  0  0  0  0  3  0  0  0  0  0  0
  184.9910  178.6480  145.9780 C   0  0  0  0  0  0  0  0  0  0  0  0
  183.7280  179.0180  145.6810 N   0  0  0  0  0  0  0  0  0  0  0  0
  189.6190  177.0050  145.3490 N   0  0  0  0  0  0  0  0  0  0  0  0
  189.0630  176.9730  144.1070 C   0  0  0  0  0  0  0  0  0  0  0  0
  187.5940  177.8480  146.2990 C   0  0  0  0  0  0  0  0  0  0  0  0
  181.5290  179.2980  142.9390 N   0  0  0  0  0  0  0  0  0  0  0  0
  182.4760  179.0800  143.5660 C   0  0  0  0  0  0  0  0  0  0  0  0
  185.6460  179.2740  141.7350 C   0  0  0  0  0  1  0  0  0  0  0  0
  185.1830  178.0140  142.4380 C   0  0  0  0  0  2  0  0  0  0  0  0
  189.8590  176.4780  142.9510 C   0  0  0  0  0  2  0  0  0  0  0  0
  189.0700  176.6590  141.6650 C   0  0  0  0  0  2  0  0  0  0  0  0
  189.7720  177.6440  140.7440 C   0  0  2  0  0  3  0  0  0  0  0  0
  188.7830  178.1910  139.7330 C   0  0  0  0  0  1  0  0  0  0  0  0
  190.9260  177.0020  140.0420 C   0  0  0  0  0  0  0  0  0  0  0  0
  190.6990  175.9250  139.1960 O   0  0  0  0  0  0  0  0  0  0  0  0
  192.1000  177.4250  140.2130 O   0  0  0  0  0  1  0  0  0  0  0  0
  1  2  1  0  0  0  0
  1 10  1  0  0  0  0
  2 14  1  0  0  0  0
  3  5  2  0  0  0  0
  4  6  2  0  0  0  0
  4  1  1  0  0  0  0
  6 11  1  0  0  0  0
  7  8  1  0  0  0  0
  9 13  1  0  0  0  0
  9  2  2  0  0  0  0
 10  3  1  0  0  0  0
 11 10  2  0  0  0  0
 12  7  1  0  0  0  0
 13 12  2  0  0  0  0
 14  7  2  0  0  0  0
 14  5  1  0  0  0  0
 15 16  3  0  0  0  0
 16  6  1  0  0  0  0
 17 18  1  0  0  0  0
 18  4  1  0  0  0  0
 19 13  1  0  0  0  0
 20 19  1  0  0  0  0
 21 22  1  6  0  0  0
 21 20  1  0  0  0  0
 23 25  1  0  0  0  0
 23 21  1  0  0  0  0
 24 23  2  0  0  0  0
M  END
>  <MODEL>
1

>  <REMARK>
 VINA RESULT:      -8.3      0.000      0.000
  Name = 
  6 active torsions:
  status: ('A' for Active; 'I' for Inactive)
    1  A    between atoms: C_2  and  C_21
    2  A    between atoms: C_5  and  C_22
    3  A    between atoms: C_6  and  C_15
    4  A    between atoms: C_6  and  C_23
    5  A    between atoms: C_10  and  C_11
    6  A    between atoms: C_15  and  C_21
                            x       y       z     vdW  Elec       q    Type
                         _______ _______ _______ _____ _____    ______ ____

>  <TORSDO>
F 6

$$$$
=
 OpenBabel10272400513D

 25 27  0  0  1  0  0  0  0  0999 V2000
  188.2570  177.5710  145.7440 N   0  0  0  0  0  0  0  0  0  0  0  0
  187.3350  177.8950  144.7930 C   0  0  0  0  0  0  0  0  0  0  0  0
  186.6980  177.9310  147.5030 C   0  0  0  0  0  3  0  0  0  0  0  0
  189.5500  177.1940  145.6670 C   0  0  0  0  0  0  0  0  0  0  0  0
  185.7580  178.2610  146.5720 N   0  0  0  0  0  0  0  0  0  0  0  0
  189.9950  176.9810  146.9600 C   0  0  0  0  0  0  0  0  0  0  0  0
  185.0670  178.5960  144.2800 C   0  0  0  0  0  0  0  0  0  0  0  0
  183.6870  178.9840  144.6920 C   0  0  0  0  0  1  0  0  0  0  0  0
  187.6250  177.8900  143.4270 C   0  0  0  0  0  3  0  0  0  0  0  0
  187.9700  177.5820  147.0590 C   0  0  0  0  0  0  0  0  0  0  0  0
  189.0050  177.2270  147.8480 N   0  0  0  0  0  0  0  0  0  0  0  0
  185.3840  178.5800  142.9570 N   0  0  0  0  0  0  0  0  0  0  0  0
  186.6240  178.2340  142.5150 C   0  0  0  0  0  0  0  0  0  0  0  0
  186.0380  178.2530  145.2320 C   0  0  0  0  0  0  0  0  0  0  0  0
  192.3740  176.2020  147.6480 N   0  0  0  0  0  0  0  0  0  0  0  0
  191.3140  176.5500  147.3410 C   0  0  0  0  0  0  0  0  0  0  0  0
  191.1660  178.2060  144.1020 C   0  0  0  0  0  1  0  0  0  0  0  0
  190.3330  176.9770  144.4100 C   0  0  0  0  0  2  0  0  0  0  0  0
  186.9240  178.2530  141.0570 C   0  0  0  0  0  2  0  0  0  0  0  0
  188.3970  178.5520  140.8370 C   0  0  0  0  0  2  0  0  0  0  0  0
  189.0110  177.5330  139.8910 C   0  0  2  0  0  3  0  0  0  0  0  0
  190.2420  176.9200  140.5290 C   0  0  0  0  0  1  0  0  0  0  0  0
  189.3680  178.1570  138.5790 C   0  0  0  0  0  0  0  0  0  0  0  0
  190.1510  177.4510  137.6740 O   0  0  0  0  0  0  0  0  0  0  0  0
  188.9700  179.3160  138.2880 O   0  0  0  0  0  1  0  0  0  0  0  0
  1 10  1  0  0  0  0
  2 14  1  0  0  0  0
  2  1  1  0  0  0  0
  4  1  1  0  0  0  0
  4  6  2  0  0  0  0
  5  3  2  0  0  0  0
  6 16  1  0  0  0  0
  6 11  1  0  0  0  0
  7  8  1  0  0  0  0
  7 14  2  0  0  0  0
  9  2  2  0  0  0  0
 10  3  1  0  0  0  0
 10 11  2  0  0  0  0
 12  7  1  0  0  0  0
 13 12  2  0  0  0  0
 13  9  1  0  0  0  0
 14  5  1  0  0  0  0
 16 15  3  0  0  0  0
 17 18  1  0  0  0  0
 18  4  1  0  0  0  0
 19 13  1  0  0  0  0
 20 19  1  0  0  0  0
 21 22  1  1  0  0  0
 21 20  1  0  0  0  0
 23 21  1  0  0  0  0
 24 23  2  0  0  0  0
 25 23  1  0  0  0  0
M  END
>  <MODEL>
2

>  <REMARK>
 VINA RESULT:      -8.2      1.746      4.957
  Name = 
  6 active torsions:
  status: ('A' for Active; 'I' for Inactive)
    1  A    between atoms: C_2  and  C_21
    2  A    between atoms: C_5  and  C_22
    3  A    between atoms: C_6  and  C_15
    4  A    between atoms: C_6  and  C_23
    5  A    between atoms: C_10  and  C_11
    6  A    between atoms: C_15  and  C_21
                            x       y       z     vdW  Elec       q    Type
                         _______ _______ _______ _____ _____    ______ ____

>  <TORSDO>
F 6

$$$$
=
 OpenBabel10272400513D

 25 27  0  0  1  0  0  0  0  0999 V2000
  185.6080  178.2130  144.7880 N   0  0  0  0  0  0  0  0  0  0  0  0
  186.8940  177.7670  144.8520 C   0  0  0  0  0  0  0  0  0  0  0  0
  185.5710  178.7050  147.1150 C   0  0  0  0  0  3  0  0  0  0  0  0
  184.7300  178.3180  143.7690 C   0  0  0  0  0  0  0  0  0  0  0  0
  186.8580  178.2620  147.2050 N   0  0  0  0  0  0  0  0  0  0  0  0
  183.5610  178.8510  144.2850 C   0  0  0  0  0  0  0  0  0  0  0  0
  188.8600  177.3400  146.2130 C   0  0  0  0  0  0  0  0  0  0  0  0
  189.5790  177.3460  147.5190 C   0  0  0  0  0  1  0  0  0  0  0  0
  187.5840  177.2870  143.7360 C   0  0  0  0  0  3  0  0  0  0  0  0
  184.9490  178.6700  145.8700 C   0  0  0  0  0  0  0  0  0  0  0  0
  183.6880  179.0740  145.6130 N   0  0  0  0  0  0  0  0  0  0  0  0
  189.5020  176.8800  145.1050 N   0  0  0  0  0  0  0  0  0  0  0  0
  188.9020  176.8500  143.8830 C   0  0  0  0  0  0  0  0  0  0  0  0
  187.5370  177.7960  146.1120 C   0  0  0  0  0  0  0  0  0  0  0  0
  181.4050  179.3860  142.9420 N   0  0  0  0  0  0  0  0  0  0  0  0
  182.3660  179.1480  143.5410 C   0  0  0  0  0  0  0  0  0  0  0  0
  185.4450  179.2300  141.5920 C   0  0  0  0  0  1  0  0  0  0  0  0
  184.9980  177.9860  142.3350 C   0  0  0  0  0  2  0  0  0  0  0  0
  189.6420  176.3170  142.7070 C   0  0  0  0  0  2  0  0  0  0  0  0
  189.9560  177.4450  141.7390 C   0  0  0  0  0  2  0  0  0  0  0  0
  189.9430  176.9360  140.3070 C   0  0  2  0  0  3  0  0  0  0  0  0
  191.2930  177.1830  139.6650 C   0  0  0  0  0  1  0  0  0  0  0  0
  188.8640  177.5950  139.5070 C   0  0  0  0  0  0  0  0  0  0  0  0
  188.2600  176.9010  138.4670 O   0  0  0  0  0  0  0  0  0  0  0  0
  188.5010  178.7740  139.7640 O   0  0  0  0  0  1  0  0  0  0  0  0
  1  2  1  0  0  0  0
  1 10  1  0  0  0  0
  2 14  1  0  0  0  0
  3  5  2  0  0  0  0
  4  6  2  0  0  0  0
  4  1  1  0  0  0  0
  6 11  1  0  0  0  0
  7  8  1  0  0  0  0
  9 13  1  0  0  0  0
  9  2  2  0  0  0  0
 10  3  1  0  0  0  0
 11 10  2  0  0  0  0
 12  7  1  0  0  0  0
 13 12  2  0  0  0  0
 14  7  2  0  0  0  0
 14  5  1  0  0  0  0
 15 16  3  0  0  0  0
 16  6  1  0  0  0  0
 17 18  1  0  0  0  0
 18  4  1  0  0  0  0
 19 13  1  0  0  0  0
 20 19  1  0  0  0  0
 21 22  1  6  0  0  0
 21 20  1  0  0  0  0
 23 25  1  0  0  0  0
 23 21  1  0  0  0  0
 24 23  2  0  0  0  0
M  END
>  <MODEL>
3

>  <REMARK>
 VINA RESULT:      -8.1      1.023      1.227
  Name = 
  6 active torsions:
  status: ('A' for Active; 'I' for Inactive)
    1  A    between atoms: C_2  and  C_21
    2  A    between atoms: C_5  and  C_22
    3  A    between atoms: C_6  and  C_15
    4  A    between atoms: C_6  and  C_23
    5  A    between atoms: C_10  and  C_11
    6  A    between atoms: C_15  and  C_21
                            x       y       z     vdW  Elec       q    Type
                         _______ _______ _______ _____ _____    ______ ____

>  <TORSDO>
F 6

$$$$
=
 OpenBabel10272400513D

 25 27  0  0  1  0  0  0  0  0999 V2000
  186.9440  178.2930  141.6500 N   0  0  0  0  0  0  0  0  0  0  0  0
  186.4070  178.2880  142.9040 C   0  0  0  0  0  0  0  0  0  0  0  0
  184.8610  178.8860  140.6670 C   0  0  0  0  0  3  0  0  0  0  0  0
  188.1890  178.0500  141.1920 C   0  0  0  0  0  0  0  0  0  0  0  0
  184.3000  178.8860  141.9110 N   0  0  0  0  0  0  0  0  0  0  0  0
  188.1610  178.2110  139.8170 C   0  0  0  0  0  0  0  0  0  0  0  0
  184.4490  178.5950  144.3050 C   0  0  0  0  0  0  0  0  0  0  0  0
  183.0030  178.9100  144.4910 C   0  0  0  0  0  1  0  0  0  0  0  0
  187.1560  177.9870  144.0450 C   0  0  0  0  0  3  0  0  0  0  0  0
  186.2140  178.5800  140.5560 C   0  0  0  0  0  0  0  0  0  0  0  0
  186.9170  178.5430  139.4050 N   0  0  0  0  0  0  0  0  0  0  0  0
  185.2080  178.2990  145.3950 N   0  0  0  0  0  0  0  0  0  0  0  0
  186.5330  178.0040  145.2950 C   0  0  0  0  0  0  0  0  0  0  0  0
  185.0330  178.5960  143.0300 C   0  0  0  0  0  0  0  0  0  0  0  0
  190.1800  177.9450  138.2080 N   0  0  0  0  0  0  0  0  0  0  0  0
  189.2810  178.0640  138.9250 C   0  0  0  0  0  0  0  0  0  0  0  0
  189.5340  176.2350  142.1820 C   0  0  0  0  0  1  0  0  0  0  0  0
  189.3910  177.7360  142.0260 C   0  0  0  0  0  2  0  0  0  0  0  0
  187.3130  177.6670  146.5160 C   0  0  0  0  0  2  0  0  0  0  0  0
  188.7400  177.3120  146.1360 C   0  0  0  0  0  2  0  0  0  0  0  0
  189.5570  176.9900  147.3780 C   0  0  2  0  0  3  0  0  0  0  0  0
  189.3600  178.0790  148.4140 C   0  0  0  0  0  1  0  0  0  0  0  0
  191.0090  176.8480  147.0500 C   0  0  0  0  0  0  0  0  0  0  0  0
  191.3940  176.5830  145.7420 O   0  0  0  0  0  0  0  0  0  0  0  0
  191.8860  176.9610  147.9470 O   0  0  0  0  0  1  0  0  0  0  0  0
  1  2  1  0  0  0  0
  2 14  2  0  0  0  0
  2  9  1  0  0  0  0
  3  5  2  0  0  0  0
  4  1  1  0  0  0  0
  4 18  1  0  0  0  0
  5 14  1  0  0  0  0
  6  4  2  0  0  0  0
  7  8  1  0  0  0  0
  7 12  2  0  0  0  0
  9 13  2  0  0  0  0
 10  3  1  0  0  0  0
 10  1  1  0  0  0  0
 11  6  1  0  0  0  0
 11 10  2  0  0  0  0
 13 12  1  0  0  0  0
 13 19  1  0  0  0  0
 14  7  1  0  0  0  0
 15 16  3  0  0  0  0
 16  6  1  0  0  0  0
 18 17  1  0  0  0  0
 20 19  1  0  0  0  0
 20 21  1  0  0  0  0
 21 22  1  1  0  0  0
 23 21  1  0  0  0  0
 23 25  1  0  0  0  0
 24 23  2  0  0  0  0
M  END
>  <MODEL>
4

>  <REMARK>
 VINA RESULT:      -8.1      2.942      5.979
  Name = 
  6 active torsions:
  status: ('A' for Active; 'I' for Inactive)
    1  A    between atoms: C_2  and  C_21
    2  A    between atoms: C_5  and  C_22
    3  A    between atoms: C_6  and  C_15
    4  A    between atoms: C_6  and  C_23
    5  A    between atoms: C_10  and  C_11
    6  A    between atoms: C_15  and  C_21
                            x       y       z     vdW  Elec       q    Type
                         _______ _______ _______ _____ _____    ______ ____

>  <TORSDO>
F 6

$$$$
=
 OpenBabel10272400513D

 25 27  0  0  1  0  0  0  0  0999 V2000
  188.5940  177.4620  145.3560 N   0  0  0  0  0  0  0  0  0  0  0  0
  187.8260  177.7700  144.2730 C   0  0  0  0  0  0  0  0  0  0  0  0
  186.7410  177.6540  146.8340 C   0  0  0  0  0  3  0  0  0  0  0  0
  189.9040  177.1670  145.4890 C   0  0  0  0  0  0  0  0  0  0  0  0
  185.9510  177.9660  145.7670 N   0  0  0  0  0  0  0  0  0  0  0  0
  190.1380  176.9260  146.8320 C   0  0  0  0  0  0  0  0  0  0  0  0
  185.6360  178.3560  143.4020 C   0  0  0  0  0  0  0  0  0  0  0  0
  184.1840  178.6440  143.5850 C   0  0  0  0  0  1  0  0  0  0  0  0
  188.3420  177.8410  142.9760 C   0  0  0  0  0  3  0  0  0  0  0  0
  188.0900  177.4010  146.6030 C   0  0  0  0  0  0  0  0  0  0  0  0
  188.9990  177.0750  147.5450 N   0  0  0  0  0  0  0  0  0  0  0  0
  186.1720  178.4140  142.1520 N   0  0  0  0  0  0  0  0  0  0  0  0
  187.4880  178.1620  141.9180 C   0  0  0  0  0  0  0  0  0  0  0  0
  186.4540  178.0320  144.4950 C   0  0  0  0  0  0  0  0  0  0  0  0
  192.4130  176.2630  147.8910 N   0  0  0  0  0  0  0  0  0  0  0  0
  191.3990  176.5580  147.4190 C   0  0  0  0  0  0  0  0  0  0  0  0
  191.6280  178.3670  144.1960 C   0  0  0  0  0  1  0  0  0  0  0  0
  190.9000  177.0500  144.3780 C   0  0  0  0  0  2  0  0  0  0  0  0
  188.0280  178.2600  140.5340 C   0  0  0  0  0  2  0  0  0  0  0  0
  189.3950  177.6030  140.4650 C   0  0  0  0  0  2  0  0  0  0  0  0
  189.9210  177.6170  139.0380 C   0  0  2  0  0  3  0  0  0  0  0  0
  189.1500  178.6350  138.2210 C   0  0  0  0  0  1  0  0  0  0  0  0
  189.8150  176.2640  138.4080 C   0  0  0  0  0  0  0  0  0  0  0  0
  190.8200  175.3300  138.6190 O   0  0  0  0  0  1  0  0  0  0  0  0
  188.8270  175.9660  137.6860 O   0  0  0  0  0  0  0  0  0  0  0  0
  1  4  1  0  0  0  0
  1 10  1  0  0  0  0
  2 14  1  0  0  0  0
  2  1  1  0  0  0  0
  4  6  2  0  0  0  0
  5  3  2  0  0  0  0
  6 16  1  0  0  0  0
  6 11  1  0  0  0  0
  7  8  1  0  0  0  0
  7 14  2  0  0  0  0
  9  2  2  0  0  0  0
 10  3  1  0  0  0  0
 10 11  2  0  0  0  0
 12  7  1  0  0  0  0
 13 12  2  0  0  0  0
 13  9  1  0  0  0  0
 14  5  1  0  0  0  0
 16 15  3  0  0  0  0
 17 18  1  0  0  0  0
 18  4  1  0  0  0  0
 19 13  1  0  0  0  0
 20 19  1  0  0  0  0
 21 22  1  6  0  0  0
 21 20  1  0  0  0  0
 23 24  1  0  0  0  0
 23 21  1  0  0  0  0
 25 23  2  0  0  0  0
M  END
>  <MODEL>
5

>  <REMARK>
 VINA RESULT:      -7.9      1.748      5.021
  Name = 
  6 active torsions:
  status: ('A' for Active; 'I' for Inactive)
    1  A    between atoms: C_2  and  C_21
    2  A    between atoms: C_5  and  C_22
    3  A    between atoms: C_6  and  C_15
    4  A    between atoms: C_6  and  C_23
    5  A    between atoms: C_10  and  C_11
    6  A    between atoms: C_15  and  C_21
                            x       y       z     vdW  Elec       q    Type
                         _______ _______ _______ _____ _____    ______ ____

>  <TORSDO>
F 6

$$$$
=
 OpenBabel10272400513D

 25 27  0  0  1  0  0  0  0  0999 V2000
  189.1830  177.2960  144.1490 N   0  0  0  0  0  0  0  0  0  0  0  0
  188.2820  177.6500  145.1090 C   0  0  0  0  0  0  0  0  0  0  0  0
  190.8900  176.9270  145.7630 C   0  0  0  0  0  3  0  0  0  0  0  0
  189.0930  177.2050  142.8060 C   0  0  0  0  0  0  0  0  0  0  0  0
  190.0070  177.2780  146.7430 N   0  0  0  0  0  0  0  0  0  0  0  0
  190.3270  176.7840  142.3380 C   0  0  0  0  0  0  0  0  0  0  0  0
  187.8180  178.0010  147.4660 C   0  0  0  0  0  0  0  0  0  0  0  0
  188.2300  178.0080  148.9000 C   0  0  0  0  0  1  0  0  0  0  0  0
  186.9680  178.0220  144.8120 C   0  0  0  0  0  3  0  0  0  0  0  0
  190.4490  176.9430  144.4440 C   0  0  0  0  0  0  0  0  0  0  0  0
  191.1910  176.6200  143.3650 N   0  0  0  0  0  0  0  0  0  0  0  0
  186.5450  178.3560  147.1410 N   0  0  0  0  0  0  0  0  0  0  0  0
  186.1050  178.3690  145.8530 C   0  0  0  0  0  0  0  0  0  0  0  0
  188.7190  177.6380  146.4540 C   0  0  0  0  0  0  0  0  0  0  0  0
  190.9500  176.3400  139.8580 N   0  0  0  0  0  0  0  0  0  0  0  0
  190.6720  176.5380  140.9630 C   0  0  0  0  0  0  0  0  0  0  0  0
  187.9590  178.7900  141.2960 C   0  0  0  0  0  1  0  0  0  0  0  0
  187.8660  177.4430  141.9840 C   0  0  0  0  0  2  0  0  0  0  0  0
  184.7090  178.7870  145.5500 C   0  0  0  0  0  2  0  0  0  0  0  0
  184.6750  179.5730  144.2510 C   0  0  0  0  0  2  0  0  0  0  0  0
  183.3110  179.4520  143.5910 C   0  0  2  0  0  3  0  0  0  0  0  0
  182.3400  178.7860  144.5460 C   0  0  0  0  0  1  0  0  0  0  0  0
  183.3930  178.6760  142.3150 C   0  0  0  0  0  0  0  0  0  0  0  0
  182.2390  178.4460  141.5770 O   0  0  0  0  0  0  0  0  0  0  0  0
  184.4960  178.2250  141.9050 O   0  0  0  0  0  1  0  0  0  0  0  0
  1 10  1  0  0  0  0
  1  2  1  0  0  0  0
  2 14  1  0  0  0  0
  3  5  2  0  0  0  0
  4  1  1  0  0  0  0
  6  4  2  0  0  0  0
  6 11  1  0  0  0  0
  7  8  1  0  0  0  0
  9  2  2  0  0  0  0
  9 13  1  0  0  0  0
 10  3  1  0  0  0  0
 11 10  2  0  0  0  0
 12  7  1  0  0  0  0
 13 12  2  0  0  0  0
 14  5  1  0  0  0  0
 14  7  2  0  0  0  0
 15 16  3  0  0  0  0
 16  6  1  0  0  0  0
 17 18  1  0  0  0  0
 18  4  1  0  0  0  0
 19 13  1  0  0  0  0
 20 19  1  0  0  0  0
 21 20  1  0  0  0  0
 21 22  1  1  0  0  0
 23 21  1  0  0  0  0
 24 23  2  0  0  0  0
 25 23  1  0  0  0  0
M  END
>  <MODEL>
6

>  <REMARK>
 VINA RESULT:      -7.7      2.880      5.914
  Name = 
  6 active torsions:
  status: ('A' for Active; 'I' for Inactive)
    1  A    between atoms: C_2  and  C_21
    2  A    between atoms: C_5  and  C_22
    3  A    between atoms: C_6  and  C_15
    4  A    between atoms: C_6  and  C_23
    5  A    between atoms: C_10  and  C_11
    6  A    between atoms: C_15  and  C_21
                            x       y       z     vdW  Elec       q    Type
                         _______ _______ _______ _____ _____    ______ ____

>  <TORSDO>
F 6

$$$$
=
 OpenBabel10272400513D

 25 27  0  0  1  0  0  0  0  0999 V2000
  189.5590  177.5590  142.6970 N   0  0  0  0  0  0  0  0  0  0  0  0
  188.5340  177.9030  141.8660 C   0  0  0  0  0  0  0  0  0  0  0  0
  190.9650  176.9840  140.8670 C   0  0  0  0  0  3  0  0  0  0  0  0
  189.6810  177.5620  144.0400 C   0  0  0  0  0  0  0  0  0  0  0  0
  189.9550  177.3210  140.0140 N   0  0  0  0  0  0  0  0  0  0  0  0
  190.9590  177.1190  144.3390 C   0  0  0  0  0  0  0  0  0  0  0  0
  187.7120  178.1160  139.5910 C   0  0  0  0  0  0  0  0  0  0  0  0
  187.8870  177.9960  138.1140 C   0  0  0  0  0  1  0  0  0  0  0  0
  187.3010  178.3620  142.3360 C   0  0  0  0  0  3  0  0  0  0  0  0
  190.7420  177.1130  142.2350 C   0  0  0  0  0  0  0  0  0  0  0  0
  191.6360  176.8290  143.2050 N   0  0  0  0  0  0  0  0  0  0  0  0
  186.5250  178.5620  140.0830 N   0  0  0  0  0  0  0  0  0  0  0  0
  186.3020  178.6960  141.4190 C   0  0  0  0  0  0  0  0  0  0  0  0
  188.7480  177.7750  140.4730 C   0  0  0  0  0  0  0  0  0  0  0  0
  191.9720  176.8740  146.7150 N   0  0  0  0  0  0  0  0  0  0  0  0
  191.5210  176.9830  145.6560 C   0  0  0  0  0  0  0  0  0  0  0  0
  187.6670  176.9110  145.3050 C   0  0  0  0  0  1  0  0  0  0  0  0
  188.6510  178.0280  145.0200 C   0  0  0  0  0  2  0  0  0  0  0  0
  184.9770  179.1670  141.9070 C   0  0  0  0  0  2  0  0  0  0  0  0
  185.0970  179.6560  143.3400 C   0  0  0  0  0  2  0  0  0  0  0  0
  184.3410  178.7330  144.2820 C   0  0  2  0  0  3  0  0  0  0  0  0
  182.8490  178.9330  144.1040 C   0  0  0  0  0  1  0  0  0  0  0  0
  184.7270  178.9780  145.7060 C   0  0  0  0  0  0  0  0  0  0  0  0
  184.1060  178.2570  146.7180 O   0  0  0  0  0  1  0  0  0  0  0  0
  185.6050  179.8330  145.9980 O   0  0  0  0  0  0  0  0  0  0  0  0
  1  4  1  0  0  0  0
  2  9  1  0  0  0  0
  2  1  1  0  0  0  0
  3 10  1  0  0  0  0
  4  6  2  0  0  0  0
  4 18  1  0  0  0  0
  5 14  1  0  0  0  0
  5  3  2  0  0  0  0
  6 16  1  0  0  0  0
  7 12  2  0  0  0  0
  7 14  1  0  0  0  0
  8  7  1  0  0  0  0
 10  1  1  0  0  0  0
 10 11  2  0  0  0  0
 11  6  1  0  0  0  0
 12 13  1  0  0  0  0
 13 19  1  0  0  0  0
 13  9  2  0  0  0  0
 14  2  2  0  0  0  0
 16 15  3  0  0  0  0
 18 17  1  0  0  0  0
 19 20  1  0  0  0  0
 20 21  1  0  0  0  0
 21 22  1  1  0  0  0
 21 23  1  0  0  0  0
 23 25  2  0  0  0  0
 23 24  1  0  0  0  0
M  END
>  <MODEL>
7

>  <REMARK>
 VINA RESULT:      -7.7      3.623      7.197
  Name = 
  6 active torsions:
  status: ('A' for Active; 'I' for Inactive)
    1  A    between atoms: C_2  and  C_21
    2  A    between atoms: C_5  and  C_22
    3  A    between atoms: C_6  and  C_15
    4  A    between atoms: C_6  and  C_23
    5  A    between atoms: C_10  and  C_11
    6  A    between atoms: C_15  and  C_21
                            x       y       z     vdW  Elec       q    Type
                         _______ _______ _______ _____ _____    ______ ____

>  <TORSDO>
F 6

$$$$
=
 OpenBabel10272400513D

 25 27  0  0  1  0  0  0  0  0999 V2000
  188.7690  177.4860  144.9210 N   0  0  0  0  0  0  0  0  0  0  0  0
  188.1220  177.7860  143.7590 C   0  0  0  0  0  0  0  0  0  0  0  0
  186.7360  177.4860  146.1550 C   0  0  0  0  0  3  0  0  0  0  0  0
  190.0700  177.2770  145.2100 C   0  0  0  0  0  0  0  0  0  0  0  0
  186.0650  177.7870  145.0050 N   0  0  0  0  0  0  0  0  0  0  0  0
  190.1510  176.9970  146.5640 C   0  0  0  0  0  0  0  0  0  0  0  0
  186.0210  178.2540  142.6340 C   0  0  0  0  0  0  0  0  0  0  0  0
  184.5400  178.4320  142.6380 C   0  0  0  0  0  1  0  0  0  0  0  0
  188.7900  177.9470  142.5420 C   0  0  0  0  0  3  0  0  0  0  0  0
  188.1180  177.3370  146.0900 C   0  0  0  0  0  0  0  0  0  0  0  0
  188.9230  177.0360  147.1300 N   0  0  0  0  0  0  0  0  0  0  0  0
  186.7030  178.4020  141.4660 N   0  0  0  0  0  0  0  0  0  0  0  0
  188.0540  178.2520  141.3940 C   0  0  0  0  0  0  0  0  0  0  0  0
  186.7170  177.9410  143.8110 C   0  0  0  0  0  0  0  0  0  0  0  0
  192.3180  176.4500  147.8830 N   0  0  0  0  0  0  0  0  0  0  0  0
  191.3520  176.6930  147.2950 C   0  0  0  0  0  0  0  0  0  0  0  0
  191.5370  175.8550  143.8300 C   0  0  0  0  0  1  0  0  0  0  0  0
  191.2030  177.2770  144.2330 C   0  0  0  0  0  2  0  0  0  0  0  0
  188.7540  178.4470  140.0950 C   0  0  0  0  0  2  0  0  0  0  0  0
  189.9030  177.4610  139.9750 C   0  0  0  0  0  2  0  0  0  0  0  0
  190.1680  177.1280  138.5150 C   0  0  2  0  0  3  0  0  0  0  0  0
  188.9190  176.5340  137.8930 C   0  0  0  0  0  1  0  0  0  0  0  0
  191.3150  176.1770  138.3750 C   0  0  0  0  0  0  0  0  0  0  0  0
  191.0660  174.8180  138.2400 O   0  0  0  0  0  0  0  0  0  0  0  0
  192.5030  176.5970  138.3830 O   0  0  0  0  0  1  0  0  0  0  0  0
  1  4  1  0  0  0  0
  1 10  1  0  0  0  0
  2 14  1  0  0  0  0
  2  1  1  0  0  0  0
  4  6  2  0  0  0  0
  5  3  2  0  0  0  0
  6 11  1  0  0  0  0
  6 16  1  0  0  0  0
  7  8  1  0  0  0  0
  7 14  2  0  0  0  0
  9  2  2  0  0  0  0
 10  3  1  0  0  0  0
 10 11  2  0  0  0  0
 12  7  1  0  0  0  0
 13 12  2  0  0  0  0
 13  9  1  0  0  0  0
 14  5  1  0  0  0  0
 16 15  3  0  0  0  0
 17 18  1  0  0  0  0
 18  4  1  0  0  0  0
 19 13  1  0  0  0  0
 20 19  1  0  0  0  0
 21 22  1  1  0  0  0
 21 20  1  0  0  0  0
 23 25  1  0  0  0  0
 23 21  1  0  0  0  0
 24 23  2  0  0  0  0
M  END
>  <MODEL>
8

>  <REMARK>
 VINA RESULT:      -7.6      1.847      5.091
  Name = 
  6 active torsions:
  status: ('A' for Active; 'I' for Inactive)
    1  A    between atoms: C_2  and  C_21
    2  A    between atoms: C_5  and  C_22
    3  A    between atoms: C_6  and  C_15
    4  A    between atoms: C_6  and  C_23
    5  A    between atoms: C_10  and  C_11
    6  A    between atoms: C_15  and  C_21
                            x       y       z     vdW  Elec       q    Type
                         _______ _______ _______ _____ _____    ______ ____

>  <TORSDO>
F 6

$$$$
=
 OpenBabel10272400513D

 25 27  0  0  1  0  0  0  0  0999 V2000
  189.6930  177.6600  142.3350 N   0  0  0  0  0  0  0  0  0  0  0  0
  188.7130  178.0010  141.4500 C   0  0  0  0  0  0  0  0  0  0  0  0
  191.2300  177.1850  140.5840 C   0  0  0  0  0  3  0  0  0  0  0  0
  189.7280  177.6220  143.6830 C   0  0  0  0  0  0  0  0  0  0  0  0
  190.2670  177.5210  139.6780 N   0  0  0  0  0  0  0  0  0  0  0  0
  190.9970  177.2060  144.0500 C   0  0  0  0  0  0  0  0  0  0  0  0
  188.0330  178.2660  139.1340 C   0  0  0  0  0  0  0  0  0  0  0  0
  188.3060  178.1990  137.6690 C   0  0  0  0  0  1  0  0  0  0  0  0
  187.4390  178.4100  141.8530 C   0  0  0  0  0  3  0  0  0  0  0  0
  190.9160  177.2620  141.9370 C   0  0  0  0  0  0  0  0  0  0  0  0
  191.7540  176.9720  142.9540 N   0  0  0  0  0  0  0  0  0  0  0  0
  186.8040  178.6610  139.5620 N   0  0  0  0  0  0  0  0  0  0  0  0
  186.4910  178.7450  140.8830 C   0  0  0  0  0  0  0  0  0  0  0  0
  189.0200  177.9260  140.0710 C   0  0  0  0  0  0  0  0  0  0  0  0
  191.8630  176.9120  146.4790 N   0  0  0  0  0  0  0  0  0  0  0  0
  191.4770  177.0430  145.3960 C   0  0  0  0  0  0  0  0  0  0  0  0
  187.7230  176.8400  144.8870 C   0  0  0  0  0  1  0  0  0  0  0  0
  188.6230  178.0270  144.6070 C   0  0  0  0  0  2  0  0  0  0  0  0
  185.1240  179.1620  141.2980 C   0  0  0  0  0  2  0  0  0  0  0  0
  184.6400  178.2860  142.4410 C   0  0  0  0  0  2  0  0  0  0  0  0
  183.9120  179.1230  143.4810 C   0  0  2  0  0  3  0  0  0  0  0  0
  184.4320  178.7830  144.8640 C   0  0  0  0  0  1  0  0  0  0  0  0
  182.4340  178.9020  143.4170 C   0  0  0  0  0  0  0  0  0  0  0  0
  181.8040  178.8300  142.1820 O   0  0  0  0  0  0  0  0  0  0  0  0
  181.7550  178.7840  144.4720 O   0  0  0  0  0  1  0  0  0  0  0  0
  1  4  1  0  0  0  0
  2  9  1  0  0  0  0
  2  1  1  0  0  0  0
  3 10  1  0  0  0  0
  4  6  2  0  0  0  0
  4 18  1  0  0  0  0
  5 14  1  0  0  0  0
  5  3  2  0  0  0  0
  6 16  1  0  0  0  0
  7 12  2  0  0  0  0
  7 14  1  0  0  0  0
  8  7  1  0  0  0  0
 10  1  1  0  0  0  0
 10 11  2  0  0  0  0
 11  6  1  0  0  0  0
 12 13  1  0  0  0  0
 13 19  1  0  0  0  0
 13  9  2  0  0  0  0
 14  2  2  0  0  0  0
 16 15  3  0  0  0  0
 18 17  1  0  0  0  0
 19 20  1  0  0  0  0
 20 21  1  0  0  0  0
 21 22  1  1  0  0  0
 23 21  1  0  0  0  0
 23 25  1  0  0  0  0
 24 23  2  0  0  0  0
M  END
>  <MODEL>
9

>  <REMARK>
 VINA RESULT:      -7.6      3.945      7.414
  Name = 
  6 active torsions:
  status: ('A' for Active; 'I' for Inactive)
    1  A    between atoms: C_2  and  C_21
    2  A    between atoms: C_5  and  C_22
    3  A    between atoms: C_6  and  C_15
    4  A    between atoms: C_6  and  C_23
    5  A    between atoms: C_10  and  C_11
    6  A    between atoms: C_15  and  C_21
                            x       y       z     vdW  Elec       q    Type
                         _______ _______ _______ _____ _____    ______ ____

>  <TORSDO>
F 6

$$$$
