=
 OpenBabel10272402033D

 32 38  0  0  1  0  0  0  0  0999 V2000
  184.2500  178.2230  142.6520 C   0  0  2  0  0  3  0  0  0  0  0  0
  186.7520  178.0010  143.0520 C   0  0  0  0  0  0  0  0  0  0  0  0
  183.2150  179.2300  143.1350 C   0  0  0  0  0  2  0  0  0  0  0  0
  185.4540  178.2030  143.5610 C   0  0  0  0  0  0  0  0  0  0  0  0
  187.8140  177.7150  143.9430 C   0  0  0  0  0  0  0  0  0  0  0  0
  189.8370  177.3060  139.2430 C   0  0  0  0  0  2  0  0  0  0  0  0
  187.0050  178.1140  141.6690 C   0  0  0  0  0  0  0  0  0  0  0  0
  190.7040  177.1270  141.5670 C   0  0  0  0  0  2  0  0  0  0  0  0
  189.3340  177.5050  142.0570 C   0  0  0  0  0  0  0  0  0  0  0  0
  185.2490  178.2890  144.9510 C   0  0  0  0  0  0  0  0  0  0  0  0
  189.0870  177.4480  143.4290 C   0  0  0  0  0  3  0  0  0  0  0  0
  186.3120  178.0490  145.8230 C   0  0  0  0  0  3  0  0  0  0  0  0
  183.9490  178.8000  145.5220 C   0  0  0  0  0  2  0  0  0  0  0  0
  185.9450  178.6970  140.7730 C   0  0  0  0  0  2  0  0  0  0  0  0
  184.5600  178.1690  141.1420 C   0  0  2  0  0  3  0  0  0  0  0  0
  188.2920  177.8450  141.1650 C   0  0  0  0  0  0  0  0  0  0  0  0
  187.5810  177.7270  145.3330 C   0  0  0  0  0  0  0  0  0  0  0  0
  182.7780  178.7880  144.5290 C   0  0  0  0  0  2  0  0  0  0  0  0
  190.9900  177.6630  140.1680 C   0  0  0  0  0  2  0  0  0  0  0  0
  188.5800  178.0390  139.6940 C   0  0  0  0  0  2  0  0  0  0  0  0
  182.1790  177.6000  138.0600 C   0  0  2  0  0  3  0  0  0  0  0  0
  181.1070  180.5940  137.0640 O   0  0  0  0  0  1  0  0  0  0  0  0
  183.4930  176.8700  138.3330 C   0  0  0  0  0  2  0  0  0  0  0  0
  182.6930  180.6650  138.8460 C   0  0  0  0  0  2  0  0  0  0  0  0
  183.4370  178.6720  140.2230 C   0  0  1  0  0  3  0  0  0  0  0  0
  182.4750  178.7900  137.3790 O   0  0  0  0  0  0  0  0  0  0  0  0
  183.8830  179.8610  139.3650 C   0  0  0  0  0  2  0  0  0  0  0  0
  182.7440  177.4950  139.4870 C   0  0  1  0  0  0  0  0  0  0  0  0
  182.0300  176.4710  140.3460 C   0  0  0  0  0  1  0  0  0  0  0  0
  181.7480  179.8020  138.0160 C   0  0  2  0  0  3  0  0  0  0  0  0
  188.6660  177.4260  146.3170 C   0  0  0  0  0  2  0  0  0  0  0  0
  188.1200  177.2890  147.5920 O   0  0  0  0  0  1  0  0  0  0  0  0
  1  3  1  6  0  0  0
  1  4  1  0  0  0  0
  2  4  2  0  0  0  0
  2  5  1  0  0  0  0
  3 18  1  0  0  0  0
  4 10  1  0  0  0  0
  5 17  2  0  0  0  0
  6 20  1  0  0  0  0
  6 19  1  0  0  0  0
  7  2  1  0  0  0  0
  8  9  1  0  0  0  0
  9 11  2  0  0  0  0
 10 13  1  0  0  0  0
 10 12  2  0  0  0  0
 11  5  1  0  0  0  0
 14  7  1  0  0  0  0
 15 14  1  1  0  0  0
 15  1  1  0  0  0  0
 16  7  2  0  0  0  0
 16  9  1  0  0  0  0
 17 12  1  0  0  0  0
 17 31  1  0  0  0  0
 18 13  1  0  0  0  0
 19  8  1  0  0  0  0
 20 16  1  0  0  0  0
 21 23  1  6  0  0  0
 21 28  1  0  0  0  0
 23 28  1  0  0  0  0
 24 27  1  0  0  0  0
 25 27  1  6  0  0  0
 25 15  1  0  0  0  0
 26 30  1  0  0  0  0
 26 21  1  0  0  0  0
 28 25  1  0  0  0  0
 28 29  1  1  0  0  0
 30 22  1  6  0  0  0
 30 24  1  0  0  0  0
 31 32  1  0  0  0  0
M  END
>  <MODEL>
1

>  <REMARK>
 VINA RESULT:     -10.6      0.000      0.000
  Name = 
  2 active torsions:
  status: ('A' for Active; 'I' for Inactive)
    1  A    between atoms: C_13  and  C_29
    2  A    between atoms: C_16  and  C_27
                            x       y       z     vdW  Elec       q    Type
                         _______ _______ _______ _____ _____    ______ ____

>  <TORSDO>
F 2

$$$$
=
 OpenBabel10272402033D

 32 38  0  0  1  0  0  0  0  0999 V2000
  186.8570  178.5960  145.1110 C   0  0  2  0  0  3  0  0  0  0  0  0
  185.7290  178.4440  142.8360 C   0  0  0  0  0  0  0  0  0  0  0  0
  186.6630  177.8260  146.4100 C   0  0  0  0  0  2  0  0  0  0  0  0
  185.6280  178.5090  144.2400 C   0  0  0  0  0  0  0  0  0  0  0  0
  184.5730  178.6380  142.0440 C   0  0  0  0  0  0  0  0  0  0  0  0
  188.4530  178.2390  138.7070 C   0  0  0  0  0  2  0  0  0  0  0  0
  186.9640  178.1520  142.2200 C   0  0  0  0  0  0  0  0  0  0  0  0
  185.9870  178.5040  138.5330 C   0  0  0  0  0  2  0  0  0  0  0  0
  185.9180  178.4060  140.0320 C   0  0  0  0  0  0  0  0  0  0  0  0
  184.3630  178.5970  144.8500 C   0  0  0  0  0  0  0  0  0  0  0  0
  184.6890  178.6400  140.6500 C   0  0  0  0  0  3  0  0  0  0  0  0
  183.2220  178.7450  144.0600 C   0  0  0  0  0  3  0  0  0  0  0  0
  184.1890  178.3650  146.3310 C   0  0  0  0  0  2  0  0  0  0  0  0
  188.1110  177.6650  143.0640 C   0  0  0  0  0  2  0  0  0  0  0  0
  188.2030  178.4470  144.3720 C   0  0  2  0  0  3  0  0  0  0  0  0
  187.0670  178.1550  140.8150 C   0  0  0  0  0  0  0  0  0  0  0  0
  183.3190  178.8030  142.6670 C   0  0  0  0  0  0  0  0  0  0  0  0
  185.4890  178.4700  147.1420 C   0  0  0  0  0  2  0  0  0  0  0  0
  187.2070  177.7910  137.9600 C   0  0  0  0  0  2  0  0  0  0  0  0
  188.3710  177.7700  140.1560 C   0  0  0  0  0  2  0  0  0  0  0  0
  191.9210  177.1970  144.7010 C   0  0  2  0  0  3  0  0  0  0  0  0
  192.2670  175.8960  147.7500 O   0  0  0  0  0  1  0  0  0  0  0  0
  191.0240  177.0510  143.4730 C   0  0  0  0  0  2  0  0  0  0  0  0
  190.0470  176.6050  147.2350 C   0  0  0  0  0  2  0  0  0  0  0  0
  189.3940  178.0460  145.2550 C   0  0  1  0  0  3  0  0  0  0  0  0
  191.6730  176.1100  145.5530 O   0  0  0  0  0  0  0  0  0  0  0  0
  189.1320  176.7450  146.0200 C   0  0  0  0  0  2  0  0  0  0  0  0
  190.7310  178.1450  144.4740 C   0  0  1  0  0  0  0  0  0  0  0  0
  191.1390  179.5180  143.9780 C   0  0  0  0  0  1  0  0  0  0  0  0
  191.5190  176.6410  146.8390 C   0  0  2  0  0  3  0  0  0  0  0  0
  182.0680  179.0190  141.8770 C   0  0  0  0  0  2  0  0  0  0  0  0
  181.0120  179.3120  142.7380 O   0  0  0  0  0  1  0  0  0  0  0  0
  1  3  1  1  0  0  0
  2  4  2  0  0  0  0
  3 18  1  0  0  0  0
  4 10  1  0  0  0  0
  4  1  1  0  0  0  0
  5 17  2  0  0  0  0
  5  2  1  0  0  0  0
  6 20  1  0  0  0  0
  7  2  1  0  0  0  0
  7 14  1  0  0  0  0
  8  9  1  0  0  0  0
  9 11  2  0  0  0  0
  9 16  1  0  0  0  0
 10 13  1  0  0  0  0
 11  5  1  0  0  0  0
 12 10  2  0  0  0  0
 13 18  1  0  0  0  0
 15 14  1  6  0  0  0
 15  1  1  0  0  0  0
 15 25  1  0  0  0  0
 16  7  2  0  0  0  0
 17 12  1  0  0  0  0
 19  8  1  0  0  0  0
 19  6  1  0  0  0  0
 20 16  1  0  0  0  0
 21 23  1  6  0  0  0
 21 26  1  0  0  0  0
 23 28  1  0  0  0  0
 25 27  1  6  0  0  0
 26 30  1  0  0  0  0
 27 24  1  0  0  0  0
 28 29  1  6  0  0  0
 28 21  1  0  0  0  0
 28 25  1  0  0  0  0
 30 24  1  0  0  0  0
 30 22  1  1  0  0  0
 31 17  1  0  0  0  0
 31 32  1  0  0  0  0
M  END
>  <MODEL>
2

>  <REMARK>
 VINA RESULT:     -10.1      2.383      7.278
  Name = 
  2 active torsions:
  status: ('A' for Active; 'I' for Inactive)
    1  A    between atoms: C_13  and  C_29
    2  A    between atoms: C_16  and  C_27
                            x       y       z     vdW  Elec       q    Type
                         _______ _______ _______ _____ _____    ______ ____

>  <TORSDO>
F 2

$$$$
=
 OpenBabel10272402033D

 32 38  0  0  1  0  0  0  0  0999 V2000
  187.3950  178.6530  141.6830 C   0  0  2  0  0  3  0  0  0  0  0  0
  188.1120  177.8380  139.3830 C   0  0  0  0  0  0  0  0  0  0  0  0
  186.2340  178.2770  142.5930 C   0  0  0  0  0  2  0  0  0  0  0  0
  187.0980  178.2940  140.2480 C   0  0  0  0  0  0  0  0  0  0  0  0
  187.8650  177.7730  137.9910 C   0  0  0  0  0  0  0  0  0  0  0  0
  192.8170  176.5380  138.5500 C   0  0  0  0  0  2  0  0  0  0  0  0
  189.3550  177.4130  139.8970 C   0  0  0  0  0  0  0  0  0  0  0  0
  191.2320  176.6860  136.6390 C   0  0  0  0  0  2  0  0  0  0  0  0
  190.1460  177.0140  137.6260 C   0  0  0  0  0  0  0  0  0  0  0  0
  185.8010  178.5220  139.7520 C   0  0  0  0  0  0  0  0  0  0  0  0
  188.8960  177.3840  137.1290 C   0  0  0  0  0  3  0  0  0  0  0  0
  185.5550  178.4130  138.3820 C   0  0  0  0  0  3  0  0  0  0  0  0
  184.6280  178.7140  140.6820 C   0  0  0  0  0  2  0  0  0  0  0  0
  189.5070  177.2110  141.3810 C   0  0  0  0  0  2  0  0  0  0  0  0
  188.8260  178.3320  142.1620 C   0  0  2  0  0  3  0  0  0  0  0  0
  190.3840  177.0210  139.0180 C   0  0  0  0  0  0  0  0  0  0  0  0
  186.5820  178.0790  137.4950 C   0  0  0  0  0  0  0  0  0  0  0  0
  185.0200  179.0740  142.1220 C   0  0  0  0  0  2  0  0  0  0  0  0
  192.3580  175.8690  137.2640 C   0  0  0  0  0  2  0  0  0  0  0  0
  191.6870  176.4960  139.5730 C   0  0  0  0  0  2  0  0  0  0  0  0
  191.0820  177.4930  145.2770 C   0  0  2  0  0  3  0  0  0  0  0  0
  189.0470  176.8890  147.8460 O   0  0  0  0  0  1  0  0  0  0  0  0
  191.3100  177.0190  143.8420 C   0  0  0  0  0  2  0  0  0  0  0  0
  187.9220  177.2880  145.7790 C   0  0  0  0  0  2  0  0  0  0  0  0
  188.9980  178.2250  143.6850 C   0  0  1  0  0  3  0  0  0  0  0  0
  190.2060  176.5900  145.8990 O   0  0  0  0  0  0  0  0  0  0  0  0
  188.1540  177.0950  144.2820 C   0  0  0  0  0  2  0  0  0  0  0  0
  190.4970  178.2700  144.0850 C   0  0  1  0  0  0  0  0  0  0  0  0
  191.2590  179.5380  143.7580 C   0  0  0  0  0  1  0  0  0  0  0  0
  189.2370  177.3640  146.5490 C   0  0  2  0  0  3  0  0  0  0  0  0
  186.2700  178.0330  136.0340 C   0  0  0  0  0  2  0  0  0  0  0  0
  185.3440  177.0220  135.7810 O   0  0  0  0  0  1  0  0  0  0  0  0
  1 15  1  0  0  0  0
  1  3  1  1  0  0  0
  2  7  1  0  0  0  0
  2  4  2  0  0  0  0
  4  1  1  0  0  0  0
  5  2  1  0  0  0  0
  6 20  1  0  0  0  0
  7 14  1  0  0  0  0
  8 19  1  0  0  0  0
  8  9  1  0  0  0  0
  9 16  1  0  0  0  0
 10  4  1  0  0  0  0
 10 13  1  0  0  0  0
 11  9  2  0  0  0  0
 11  5  1  0  0  0  0
 12 10  2  0  0  0  0
 13 18  1  0  0  0  0
 15 14  1  6  0  0  0
 15 25  1  0  0  0  0
 16 20  1  0  0  0  0
 16  7  2  0  0  0  0
 17  5  2  0  0  0  0
 17 12  1  0  0  0  0
 18  3  1  0  0  0  0
 19  6  1  0  0  0  0
 21 23  1  6  0  0  0
 21 26  1  0  0  0  0
 23 28  1  0  0  0  0
 24 30  1  0  0  0  0
 25 28  1  0  0  0  0
 25 27  1  6  0  0  0
 26 30  1  0  0  0  0
 27 24  1  0  0  0  0
 28 29  1  6  0  0  0
 28 21  1  0  0  0  0
 30 22  1  1  0  0  0
 31 17  1  0  0  0  0
 32 31  1  0  0  0  0
M  END
>  <MODEL>
3

>  <REMARK>
 VINA RESULT:      -8.7      2.300      7.407
  Name = 
  2 active torsions:
  status: ('A' for Active; 'I' for Inactive)
    1  A    between atoms: C_13  and  C_29
    2  A    between atoms: C_16  and  C_27
                            x       y       z     vdW  Elec       q    Type
                         _______ _______ _______ _____ _____    ______ ____

>  <TORSDO>
F 2

$$$$
=
 OpenBabel10272402033D

 32 38  0  0  1  0  0  0  0  0999 V2000
  189.4910  177.9790  142.1850 C   0  0  2  0  0  3  0  0  0  0  0  0
  187.0850  178.0510  143.0050 C   0  0  0  0  0  0  0  0  0  0  0  0
  190.6080  176.9600  142.3600 C   0  0  0  0  0  2  0  0  0  0  0  0
  188.4520  177.8360  143.2690 C   0  0  0  0  0  0  0  0  0  0  0  0
  186.1770  178.1790  144.0840 C   0  0  0  0  0  0  0  0  0  0  0  0
  183.4060  179.1050  139.8630 C   0  0  0  0  0  2  0  0  0  0  0  0
  186.6110  178.1050  141.6770 C   0  0  0  0  0  0  0  0  0  0  0  0
  182.9280  178.9520  142.2980 C   0  0  0  0  0  2  0  0  0  0  0  0
  184.3660  178.5680  142.5090 C   0  0  0  0  0  0  0  0  0  0  0  0
  188.8820  177.5820  144.5850 C   0  0  0  0  0  0  0  0  0  0  0  0
  184.8330  178.4600  143.8190 C   0  0  0  0  0  3  0  0  0  0  0  0
  187.9710  177.6670  145.6390 C   0  0  0  0  0  3  0  0  0  0  0  0
  190.2660  177.0530  144.8680 C   0  0  0  0  0  2  0  0  0  0  0  0
  187.5200  177.6830  140.5550 C   0  0  0  0  0  2  0  0  0  0  0  0
  188.9370  178.2130  140.7640 C   0  0  2  0  0  3  0  0  0  0  0  0
  185.2540  178.3860  141.4250 C   0  0  0  0  0  0  0  0  0  0  0  0
  186.6340  177.9990  145.4050 C   0  0  0  0  0  0  0  0  0  0  0  0
  191.2600  177.2370  143.7120 C   0  0  0  0  0  2  0  0  0  0  0  0
  182.4270  178.5880  140.9050 C   0  0  0  0  0  2  0  0  0  0  0  0
  184.7340  178.3700  140.0070 C   0  0  0  0  0  2  0  0  0  0  0  0
  189.5420  177.2880  136.9860 C   0  0  2  0  0  3  0  0  0  0  0  0
  192.5480  175.8640  136.7790 O   0  0  0  0  0  1  0  0  0  0  0  0
  188.2330  177.1260  137.7570 C   0  0  0  0  0  2  0  0  0  0  0  0
  191.8690  176.3960  139.0040 C   0  0  0  0  0  2  0  0  0  0  0  0
  189.9040  177.8750  139.6200 C   0  0  1  0  0  3  0  0  0  0  0  0
  190.3190  176.1390  137.2020 O   0  0  0  0  0  0  0  0  0  0  0  0
  190.5840  176.5170  139.8220 C   0  0  0  0  0  2  0  0  0  0  0  0
  189.2510  178.1350  138.2370 C   0  0  1  0  0  0  0  0  0  0  0  0
  188.8550  179.5640  137.9200 C   0  0  0  0  0  1  0  0  0  0  0  0
  191.6080  176.5860  137.5140 C   0  0  2  0  0  3  0  0  0  0  0  0
  185.7190  178.1300  146.5800 C   0  0  0  0  0  2  0  0  0  0  0  0
  185.7280  179.4460  147.0400 O   0  0  0  0  0  1  0  0  0  0  0  0
  1  3  1  6  0  0  0
  1  4  1  0  0  0  0
  2  4  2  0  0  0  0
  2  5  1  0  0  0  0
  3 18  1  0  0  0  0
  4 10  1  0  0  0  0
  5 17  2  0  0  0  0
  6 20  1  0  0  0  0
  6 19  1  0  0  0  0
  7  2  1  0  0  0  0
  8  9  1  0  0  0  0
  9 11  2  0  0  0  0
 10 13  1  0  0  0  0
 10 12  2  0  0  0  0
 11  5  1  0  0  0  0
 14  7  1  0  0  0  0
 15 14  1  6  0  0  0
 15  1  1  0  0  0  0
 16  7  2  0  0  0  0
 16  9  1  0  0  0  0
 17 12  1  0  0  0  0
 17 31  1  0  0  0  0
 18 13  1  0  0  0  0
 19  8  1  0  0  0  0
 20 16  1  0  0  0  0
 21 26  1  0  0  0  0
 21 23  1  1  0  0  0
 21 28  1  0  0  0  0
 23 28  1  0  0  0  0
 24 27  1  0  0  0  0
 25 27  1  6  0  0  0
 25 15  1  0  0  0  0
 26 30  1  0  0  0  0
 28 29  1  6  0  0  0
 28 25  1  0  0  0  0
 30 22  1  6  0  0  0
 30 24  1  0  0  0  0
 31 32  1  0  0  0  0
M  END
>  <MODEL>
4

>  <REMARK>
 VINA RESULT:      -8.4      2.741      6.248
  Name = 
  2 active torsions:
  status: ('A' for Active; 'I' for Inactive)
    1  A    between atoms: C_13  and  C_29
    2  A    between atoms: C_16  and  C_27
                            x       y       z     vdW  Elec       q    Type
                         _______ _______ _______ _____ _____    ______ ____

>  <TORSDO>
F 2

$$$$
=
 OpenBabel10272402033D

 32 38  0  0  1  0  0  0  0  0999 V2000
  185.7770  177.6930  144.1680 C   0  0  2  0  0  3  0  0  0  0  0  0
  188.1190  177.7110  143.1770 C   0  0  0  0  0  0  0  0  0  0  0  0
  185.0890  178.5750  145.2010 C   0  0  0  0  0  2  0  0  0  0  0  0
  187.2780  177.7650  144.3050 C   0  0  0  0  0  0  0  0  0  0  0  0
  189.5090  177.5050  143.3520 C   0  0  0  0  0  0  0  0  0  0  0  0
  188.7580  177.4510  138.2740 C   0  0  0  0  0  2  0  0  0  0  0  0
  187.5930  177.8930  141.8810 C   0  0  0  0  0  0  0  0  0  0  0  0
  190.7340  177.2860  139.7750 C   0  0  0  0  0  2  0  0  0  0  0  0
  189.8090  177.5090  140.9390 C   0  0  0  0  0  0  0  0  0  0  0  0
  187.8350  177.7860  145.5970 C   0  0  0  0  0  0  0  0  0  0  0  0
  190.3310  177.3840  142.2270 C   0  0  0  0  0  3  0  0  0  0  0  0
  189.2120  177.6270  145.7600 C   0  0  0  0  0  3  0  0  0  0  0  0
  187.0040  178.1450  146.8040 C   0  0  0  0  0  2  0  0  0  0  0  0
  186.1820  178.3940  141.7240 C   0  0  0  0  0  2  0  0  0  0  0  0
  185.2430  177.7190  142.7210 C   0  0  2  0  0  3  0  0  0  0  0  0
  188.4330  177.7710  140.7560 C   0  0  0  0  0  0  0  0  0  0  0  0
  190.0470  177.4490  144.6530 C   0  0  0  0  0  0  0  0  0  0  0  0
  185.4880  178.0470  146.5770 C   0  0  0  0  0  2  0  0  0  0  0  0
  190.1980  177.8930  138.4820 C   0  0  0  0  0  2  0  0  0  0  0  0
  187.8830  178.0400  139.3750 C   0  0  0  0  0  2  0  0  0  0  0  0
  182.3090  179.0910  140.4850 C   0  0  2  0  0  3  0  0  0  0  0  0
  179.9820  180.3110  142.5360 O   0  0  0  0  0  1  0  0  0  0  0  0
  183.8030  179.2420  140.2060 C   0  0  0  0  0  2  0  0  0  0  0  0
  181.9510  179.5370  143.6400 C   0  0  0  0  0  2  0  0  0  0  0  0
  183.7720  178.1350  142.5720 C   0  0  1  0  0  3  0  0  0  0  0  0
  181.9140  180.1420  141.3270 O   0  0  0  0  0  0  0  0  0  0  0  0
  183.4480  179.4020  143.3700 C   0  0  0  0  0  2  0  0  0  0  0  0
  183.3280  178.1080  141.0850 C   0  0  1  0  0  0  0  0  0  0  0  0
  183.3610  176.7670  140.3810 C   0  0  0  0  0  1  0  0  0  0  0  0
  181.1460  179.5660  142.3450 C   0  0  2  0  0  3  0  0  0  0  0  0
  191.5060  177.2280  144.8930 C   0  0  0  0  0  2  0  0  0  0  0  0
  191.7230  176.9420  146.2410 O   0  0  0  0  0  1  0  0  0  0  0  0
  1  4  1  0  0  0  0
  1  3  1  1  0  0  0
  2  5  1  0  0  0  0
  2  4  2  0  0  0  0
  3 18  1  0  0  0  0
  4 10  1  0  0  0  0
  5 17  2  0  0  0  0
  6 19  1  0  0  0  0
  6 20  1  0  0  0  0
  7  2  1  0  0  0  0
  8  9  1  0  0  0  0
  9 11  2  0  0  0  0
 10 12  2  0  0  0  0
 10 13  1  0  0  0  0
 11  5  1  0  0  0  0
 14  7  1  0  0  0  0
 15 14  1  6  0  0  0
 15  1  1  0  0  0  0
 16  9  1  0  0  0  0
 16  7  2  0  0  0  0
 17 31  1  0  0  0  0
 17 12  1  0  0  0  0
 18 13  1  0  0  0  0
 19  8  1  0  0  0  0
 20 16  1  0  0  0  0
 21 23  1  6  0  0  0
 21 28  1  0  0  0  0
 21 26  1  0  0  0  0
 23 28  1  0  0  0  0
 25 15  1  0  0  0  0
 25 27  1  6  0  0  0
 26 30  1  0  0  0  0
 27 24  1  0  0  0  0
 28 29  1  6  0  0  0
 28 25  1  0  0  0  0
 30 22  1  1  0  0  0
 30 24  1  0  0  0  0
 31 32  1  0  0  0  0
M  END
>  <MODEL>
5

>  <REMARK>
 VINA RESULT:      -8.3      1.774      2.796
  Name = 
  2 active torsions:
  status: ('A' for Active; 'I' for Inactive)
    1  A    between atoms: C_13  and  C_29
    2  A    between atoms: C_16  and  C_27
                            x       y       z     vdW  Elec       q    Type
                         _______ _______ _______ _____ _____    ______ ____

>  <TORSDO>
F 2

$$$$
=
 OpenBabel10272402033D

 32 38  0  0  1  0  0  0  0  0999 V2000
  189.9520  177.8330  142.4560 C   0  0  2  0  0  3  0  0  0  0  0  0
  187.7480  177.9070  143.7220 C   0  0  0  0  0  0  0  0  0  0  0  0
  191.0830  176.8150  142.4160 C   0  0  0  0  0  2  0  0  0  0  0  0
  189.1400  177.6930  143.7200 C   0  0  0  0  0  0  0  0  0  0  0  0
  187.0640  178.0380  144.9550 C   0  0  0  0  0  0  0  0  0  0  0  0
  183.5340  178.9500  141.3410 C   0  0  0  0  0  2  0  0  0  0  0  0
  187.0280  177.9560  142.5100 C   0  0  0  0  0  0  0  0  0  0  0  0
  183.5320  178.8050  143.8240 C   0  0  0  0  0  2  0  0  0  0  0  0
  184.9850  178.4220  143.7560 C   0  0  0  0  0  0  0  0  0  0  0  0
  189.8150  177.4430  144.9290 C   0  0  0  0  0  0  0  0  0  0  0  0
  185.6940  178.3170  144.9520 C   0  0  0  0  0  3  0  0  0  0  0  0
  189.1240  177.5310  146.1380 C   0  0  0  0  0  3  0  0  0  0  0  0
  191.2290  176.9150  144.9430 C   0  0  0  0  0  2  0  0  0  0  0  0
  187.7060  177.5310  141.2350 C   0  0  0  0  0  2  0  0  0  0  0  0
  189.1360  178.0620  141.1670 C   0  0  2  0  0  3  0  0  0  0  0  0
  185.6480  178.2360  142.5220 C   0  0  0  0  0  0  0  0  0  0  0  0
  187.7660  177.8620  146.1640 C   0  0  0  0  0  0  0  0  0  0  0  0
  191.9820  177.0960  143.6170 C   0  0  0  0  0  2  0  0  0  0  0  0
  182.7730  178.4360  142.5530 C   0  0  0  0  0  2  0  0  0  0  0  0
  184.8650  178.2150  141.2300 C   0  0  0  0  0  2  0  0  0  0  0  0
  189.0140  177.2710  137.3130 C   0  0  2  0  0  3  0  0  0  0  0  0
  191.8430  175.6920  136.5320 O   0  0  0  0  0  1  0  0  0  0  0  0
  187.8520  177.1490  138.2980 C   0  0  0  0  0  2  0  0  0  0  0  0
  191.5960  176.1640  138.8580 C   0  0  0  0  0  2  0  0  0  0  0  0
  189.8660  177.7220  139.8590 C   0  0  1  0  0  3  0  0  0  0  0  0
  189.7430  176.0720  137.3500 O   0  0  0  0  0  0  0  0  0  0  0  0
  190.4840  176.3200  139.8930 C   0  0  0  0  0  2  0  0  0  0  0  0
  188.9990  178.0780  138.6230 C   0  0  1  0  0  0  0  0  0  0  0  0
  188.6440  179.5380  138.4280 C   0  0  0  0  0  1  0  0  0  0  0  0
  191.0920  176.4330  137.4440 C   0  0  2  0  0  3  0  0  0  0  0  0
  187.0940  177.9960  147.4930 C   0  0  0  0  0  2  0  0  0  0  0  0
  188.0090  177.7370  148.5120 O   0  0  0  0  0  1  0  0  0  0  0  0
  1  3  1  6  0  0  0
  1  4  1  0  0  0  0
  2  5  1  0  0  0  0
  3 18  1  0  0  0  0
  4  2  2  0  0  0  0
  4 10  1  0  0  0  0
  5 17  2  0  0  0  0
  6 19  1  0  0  0  0
  7 16  2  0  0  0  0
  7  2  1  0  0  0  0
  9  8  1  0  0  0  0
  9 11  2  0  0  0  0
 10 13  1  0  0  0  0
 10 12  2  0  0  0  0
 11  5  1  0  0  0  0
 12 17  1  0  0  0  0
 14  7  1  0  0  0  0
 15 14  1  1  0  0  0
 15  1  1  0  0  0  0
 16  9  1  0  0  0  0
 17 31  1  0  0  0  0
 18 13  1  0  0  0  0
 19  8  1  0  0  0  0
 20  6  1  0  0  0  0
 20 16  1  0  0  0  0
 21 26  1  0  0  0  0
 21 23  1  1  0  0  0
 21 28  1  0  0  0  0
 23 28  1  0  0  0  0
 24 27  1  0  0  0  0
 25 27  1  1  0  0  0
 25 15  1  0  0  0  0
 26 30  1  0  0  0  0
 28 29  1  6  0  0  0
 28 25  1  0  0  0  0
 30 22  1  6  0  0  0
 30 24  1  0  0  0  0
 31 32  1  0  0  0  0
M  END
>  <MODEL>
6

>  <REMARK>
 VINA RESULT:      -8.3      2.778      6.196
  Name = 
  2 active torsions:
  status: ('A' for Active; 'I' for Inactive)
    1  A    between atoms: C_13  and  C_29
    2  A    between atoms: C_16  and  C_27
                            x       y       z     vdW  Elec       q    Type
                         _______ _______ _______ _____ _____    ______ ____

>  <TORSDO>
F 2

$$$$
=
 OpenBabel10272402033D

 32 38  0  0  1  0  0  0  0  0999 V2000
  185.8910  178.0440  140.4680 C   0  0  2  0  0  3  0  0  0  0  0  0
  186.8420  178.0640  142.8270 C   0  0  0  0  0  0  0  0  0  0  0  0
  185.1060  179.0730  139.6660 C   0  0  0  0  0  2  0  0  0  0  0  0
  185.7650  178.3010  141.9500 C   0  0  0  0  0  0  0  0  0  0  0  0
  186.6150  178.0510  144.2240 C   0  0  0  0  0  0  0  0  0  0  0  0
  191.5330  176.7030  143.6380 C   0  0  0  0  0  2  0  0  0  0  0  0
  188.1470  177.8760  142.3250 C   0  0  0  0  0  0  0  0  0  0  0  0
  190.0250  177.1080  145.5740 C   0  0  0  0  0  2  0  0  0  0  0  0
  188.9540  177.5070  144.5960 C   0  0  0  0  0  0  0  0  0  0  0  0
  184.5130  178.6880  142.4630 C   0  0  0  0  0  0  0  0  0  0  0  0
  187.6720  177.7490  145.0880 C   0  0  0  0  0  3  0  0  0  0  0  0
  184.3090  178.7150  143.8430 C   0  0  0  0  0  3  0  0  0  0  0  0
  183.4340  179.2390  141.5630 C   0  0  0  0  0  2  0  0  0  0  0  0
  188.4290  178.1770  140.8780 C   0  0  0  0  0  2  0  0  0  0  0  0
  187.3040  177.6670  139.9800 C   0  0  2  0  0  3  0  0  0  0  0  0
  189.2040  177.5740  143.2070 C   0  0  0  0  0  0  0  0  0  0  0  0
  185.3350  178.3640  144.7250 C   0  0  0  0  0  0  0  0  0  0  0  0
  183.6410  178.9340  140.0730 C   0  0  0  0  0  2  0  0  0  0  0  0
  191.4290  177.3280  145.0210 C   0  0  0  0  0  2  0  0  0  0  0  0
  190.6120  177.4460  142.6770 C   0  0  0  0  0  2  0  0  0  0  0  0
  187.6920  176.1900  136.3510 C   0  0  2  0  0  3  0  0  0  0  0  0
  189.3680  178.4300  134.5390 O   0  0  0  0  0  1  0  0  0  0  0  0
  187.8360  175.4170  137.6620 C   0  0  0  0  0  2  0  0  0  0  0  0
  189.1180  179.0210  136.8380 C   0  0  0  0  0  2  0  0  0  0  0  0
  187.5580  177.8820  138.4800 C   0  0  1  0  0  3  0  0  0  0  0  0
  188.9340  176.7710  136.0500 O   0  0  0  0  0  0  0  0  0  0  0  0
  188.9940  178.3380  138.1990 C   0  0  0  0  0  2  0  0  0  0  0  0
  187.0230  176.6910  137.6430 C   0  0  1  0  0  0  0  0  0  0  0  0
  185.5290  176.4340  137.6870 C   0  0  0  0  0  1  0  0  0  0  0  0
  188.6750  178.1020  135.7040 C   0  0  2  0  0  3  0  0  0  0  0  0
  185.0390  178.3580  146.1910 C   0  0  0  0  0  2  0  0  0  0  0  0
  185.4710  179.5530  146.7630 O   0  0  0  0  0  1  0  0  0  0  0  0
  1  3  1  6  0  0  0
  1  4  1  0  0  0  0
  2  5  1  0  0  0  0
  3 18  1  0  0  0  0
  4 10  2  0  0  0  0
  4  2  1  0  0  0  0
  5 17  1  0  0  0  0
  5 11  2  0  0  0  0
  6 19  1  0  0  0  0
  7  2  2  0  0  0  0
  7 16  1  0  0  0  0
  9 11  1  0  0  0  0
  9  8  1  0  0  0  0
 10 12  1  0  0  0  0
 12 17  2  0  0  0  0
 13 10  1  0  0  0  0
 14  7  1  0  0  0  0
 15  1  1  0  0  0  0
 15 14  1  1  0  0  0
 16  9  2  0  0  0  0
 17 31  1  0  0  0  0
 18 13  1  0  0  0  0
 19  8  1  0  0  0  0
 20 16  1  0  0  0  0
 20  6  1  0  0  0  0
 21 28  1  0  0  0  0
 21 23  1  1  0  0  0
 24 27  1  0  0  0  0
 25 27  1  1  0  0  0
 25 15  1  0  0  0  0
 26 21  1  0  0  0  0
 28 23  1  0  0  0  0
 28 29  1  1  0  0  0
 28 25  1  0  0  0  0
 30 22  1  6  0  0  0
 30 26  1  0  0  0  0
 30 24  1  0  0  0  0
 31 32  1  0  0  0  0
M  END
>  <MODEL>
7

>  <REMARK>
 VINA RESULT:      -8.1      2.597      4.339
  Name = 
  2 active torsions:
  status: ('A' for Active; 'I' for Inactive)
    1  A    between atoms: C_13  and  C_29
    2  A    between atoms: C_16  and  C_27
                            x       y       z     vdW  Elec       q    Type
                         _______ _______ _______ _____ _____    ______ ____

>  <TORSDO>
F 2

$$$$
=
 OpenBabel10272402033D

 32 38  0  0  1  0  0  0  0  0999 V2000
  187.5900  177.3690  141.5210 C   0  0  2  0  0  3  0  0  0  0  0  0
  186.6500  178.0640  143.7800 C   0  0  0  0  0  0  0  0  0  0  0  0
  187.7810  178.1200  140.2100 C   0  0  0  0  0  2  0  0  0  0  0  0
  186.5370  178.0300  142.3760 C   0  0  0  0  0  0  0  0  0  0  0  0
  185.5310  178.4400  144.5610 C   0  0  0  0  0  0  0  0  0  0  0  0
  189.1390  177.0520  147.9380 C   0  0  0  0  0  2  0  0  0  0  0  0
  187.8760  177.7610  144.4080 C   0  0  0  0  0  0  0  0  0  0  0  0
  186.8290  177.9620  148.0860 C   0  0  0  0  0  2  0  0  0  0  0  0
  186.8210  178.0560  146.5850 C   0  0  0  0  0  0  0  0  0  0  0  0
  185.3780  178.5270  141.7520 C   0  0  0  0  0  0  0  0  0  0  0  0
  185.6270  178.4080  145.9560 C   0  0  0  0  0  3  0  0  0  0  0  0
  184.2950  178.9380  142.5300 C   0  0  0  0  0  3  0  0  0  0  0  0
  185.3380  178.7890  140.2660 C   0  0  0  0  0  2  0  0  0  0  0  0
  189.1220  177.6480  143.5710 C   0  0  0  0  0  2  0  0  0  0  0  0
  188.8480  176.8900  142.2740 C   0  0  2  0  0  3  0  0  0  0  0  0
  187.9590  177.7340  145.8140 C   0  0  0  0  0  0  0  0  0  0  0  0
  184.3470  178.8630  143.9250 C   0  0  0  0  0  0  0  0  0  0  0  0
  186.4460  178.0800  139.4720 C   0  0  0  0  0  2  0  0  0  0  0  0
  188.2380  178.0380  148.6650 C   0  0  0  0  0  2  0  0  0  0  0  0
  189.2900  177.4820  146.4830 C   0  0  0  0  0  2  0  0  0  0  0  0
  192.7100  177.3780  141.6860 C   0  0  2  0  0  3  0  0  0  0  0  0
  193.2710  177.0310  138.4190 O   0  0  0  0  0  1  0  0  0  0  0  0
  191.8300  178.1940  142.6310 C   0  0  0  0  0  2  0  0  0  0  0  0
  190.9670  176.9230  139.0330 C   0  0  0  0  0  2  0  0  0  0  0  0
  190.0940  176.6790  141.4000 C   0  0  1  0  0  3  0  0  0  0  0  0
  192.6280  177.9540  140.4090 O   0  0  0  0  0  0  0  0  0  0  0  0
  190.0290  177.4850  140.0990 C   0  0  0  0  0  2  0  0  0  0  0  0
  191.3950  176.8020  142.2370 C   0  0  1  0  0  0  0  0  0  0  0  0
  191.5980  175.7880  143.3460 C   0  0  0  0  0  1  0  0  0  0  0  0
  192.4150  176.9010  139.5120 C   0  0  2  0  0  3  0  0  0  0  0  0
  183.1340  179.2650  144.7020 C   0  0  0  0  0  2  0  0  0  0  0  0
  181.9880  178.7880  144.0670 O   0  0  0  0  0  1  0  0  0  0  0  0
  1  3  1  6  0  0  0
  1 15  1  0  0  0  0
  1  4  1  0  0  0  0
  2  7  2  0  0  0  0
  2  5  1  0  0  0  0
  4  2  1  0  0  0  0
  5 11  2  0  0  0  0
  6 19  1  0  0  0  0
  7 16  1  0  0  0  0
  8 19  1  0  0  0  0
  9  8  1  0  0  0  0
 10  4  2  0  0  0  0
 10 12  1  0  0  0  0
 11  9  1  0  0  0  0
 12 17  2  0  0  0  0
 13 10  1  0  0  0  0
 14  7  1  0  0  0  0
 15 14  1  1  0  0  0
 16 20  1  0  0  0  0
 16  9  2  0  0  0  0
 17  5  1  0  0  0  0
 17 31  1  0  0  0  0
 18  3  1  0  0  0  0
 18 13  1  0  0  0  0
 20  6  1  0  0  0  0
 21 28  1  0  0  0  0
 21 23  1  1  0  0  0
 24 30  1  0  0  0  0
 24 27  1  0  0  0  0
 25 27  1  6  0  0  0
 25 28  1  0  0  0  0
 25 15  1  0  0  0  0
 26 21  1  0  0  0  0
 28 23  1  0  0  0  0
 28 29  1  1  0  0  0
 30 22  1  6  0  0  0
 30 26  1  0  0  0  0
 32 31  1  0  0  0  0
M  END
>  <MODEL>
8

>  <REMARK>
 VINA RESULT:      -8.0      2.937      7.077
  Name = 
  2 active torsions:
  status: ('A' for Active; 'I' for Inactive)
    1  A    between atoms: C_13  and  C_29
    2  A    between atoms: C_16  and  C_27
                            x       y       z     vdW  Elec       q    Type
                         _______ _______ _______ _____ _____    ______ ____

>  <TORSDO>
F 2

$$$$
=
 OpenBabel10272402033D

 32 38  0  0  1  0  0  0  0  0999 V2000
  185.8310  178.7340  138.9980 C   0  0  2  0  0  3  0  0  0  0  0  0
  186.5500  178.3410  141.4060 C   0  0  0  0  0  0  0  0  0  0  0  0
  185.9690  177.8980  137.7330 C   0  0  0  0  0  2  0  0  0  0  0  0
  186.8540  178.3280  140.0310 C   0  0  0  0  0  0  0  0  0  0  0  0
  187.5960  178.2240  142.3530 C   0  0  0  0  0  0  0  0  0  0  0  0
  183.3500  179.0590  145.1160 C   0  0  0  0  0  2  0  0  0  0  0  0
  185.2120  178.4350  141.8440 C   0  0  0  0  0  0  0  0  0  0  0  0
  185.7420  178.6150  145.6330 C   0  0  0  0  0  2  0  0  0  0  0  0
  185.9820  178.4520  144.1570 C   0  0  0  0  0  0  0  0  0  0  0  0
  188.1620  178.0320  139.6030 C   0  0  0  0  0  0  0  0  0  0  0  0
  187.2970  178.3050  143.7170 C   0  0  0  0  0  3  0  0  0  0  0  0
  189.1790  177.8740  140.5450 C   0  0  0  0  0  3  0  0  0  0  0  0
  188.4600  177.7110  138.1580 C   0  0  0  0  0  2  0  0  0  0  0  0
  184.0990  178.2670  140.8450 C   0  0  0  0  0  2  0  0  0  0  0  0
  184.4130  178.9990  139.5420 C   0  0  2  0  0  3  0  0  0  0  0  0
  184.9260  178.5130  143.2210 C   0  0  0  0  0  0  0  0  0  0  0  0
  188.9160  178.0040  141.9110 C   0  0  0  0  0  0  0  0  0  0  0  0
  187.3670  178.1560  137.1760 C   0  0  0  0  0  2  0  0  0  0  0  0
  184.3030  178.2990  146.0260 C   0  0  0  0  0  2  0  0  0  0  0  0
  183.4900  178.5380  143.6900 C   0  0  0  0  0  2  0  0  0  0  0  0
  180.6530  179.6140  138.5500 C   0  0  2  0  0  3  0  0  0  0  0  0
  179.9820  177.6600  135.9350 O   0  0  0  0  0  1  0  0  0  0  0  0
  181.2060  179.5020  139.9700 C   0  0  0  0  0  2  0  0  0  0  0  0
  182.1740  177.3740  136.8330 C   0  0  0  0  0  2  0  0  0  0  0  0
  183.2870  178.9260  138.5000 C   0  0  1  0  0  3  0  0  0  0  0  0
  180.3720  178.3190  138.0880 O   0  0  0  0  0  0  0  0  0  0  0  0
  182.8950  177.4800  138.1750 C   0  0  0  0  0  2  0  0  0  0  0  0
  182.1340  179.9040  138.8470 C   0  0  1  0  0  0  0  0  0  0  0  0
  182.4680  181.3830  138.8640 C   0  0  0  0  0  1  0  0  0  0  0  0
  180.9140  178.2320  136.8000 C   0  0  2  0  0  3  0  0  0  0  0  0
  190.0570  177.8800  142.8690 C   0  0  0  0  0  2  0  0  0  0  0  0
  191.1160  177.2130  142.2550 O   0  0  0  0  0  1  0  0  0  0  0  0
  1  3  1  6  0  0  0
  1 15  1  0  0  0  0
  1  4  1  0  0  0  0
  2  7  2  0  0  0  0
  2  5  1  0  0  0  0
  4  2  1  0  0  0  0
  5 11  2  0  0  0  0
  6 19  1  0  0  0  0
  7 16  1  0  0  0  0
  8 19  1  0  0  0  0
  9  8  1  0  0  0  0
 10  4  2  0  0  0  0
 10 12  1  0  0  0  0
 11  9  1  0  0  0  0
 12 17  2  0  0  0  0
 13 10  1  0  0  0  0
 14  7  1  0  0  0  0
 15 14  1  1  0  0  0
 16 20  1  0  0  0  0
 16  9  2  0  0  0  0
 17  5  1  0  0  0  0
 17 31  1  0  0  0  0
 18  3  1  0  0  0  0
 18 13  1  0  0  0  0
 20  6  1  0  0  0  0
 21 28  1  0  0  0  0
 21 23  1  1  0  0  0
 24 27  1  0  0  0  0
 25 27  1  1  0  0  0
 25 28  1  0  0  0  0
 25 15  1  0  0  0  0
 26 21  1  0  0  0  0
 28 29  1  6  0  0  0
 28 23  1  0  0  0  0
 30 22  1  6  0  0  0
 30 24  1  0  0  0  0
 30 26  1  0  0  0  0
 32 31  1  0  0  0  0
M  END
>  <MODEL>
9

>  <REMARK>
 VINA RESULT:      -7.9      1.774      4.865
  Name = 
  2 active torsions:
  status: ('A' for Active; 'I' for Inactive)
    1  A    between atoms: C_13  and  C_29
    2  A    between atoms: C_16  and  C_27
                            x       y       z     vdW  Elec       q    Type
                         _______ _______ _______ _____ _____    ______ ____

>  <TORSDO>
F 2

$$$$
