=
 OpenBabel10272415283D

 34 39  0  0  1  0  0  0  0  0999 V2000
  182.6150  177.6430  141.3320 C   0  0  1  0  0  3  0  0  0  0  0  0
  182.6120  178.2660  137.6120 C   0  0  0  0  0  3  0  0  0  0  0  0
  181.4530  179.5610  139.2960 C   0  0  0  0  0  2  0  0  0  0  0  0
  181.0530  179.0390  142.8470 C   0  0  0  0  0  0  0  0  0  0  0  0
  180.1960  180.0970  142.6090 C   0  0  0  0  0  3  0  0  0  0  0  0
  181.3020  178.4350  144.0730 O   0  0  0  0  0  1  0  0  0  0  0  0
  181.1000  179.5380  140.7140 N   0  0  0  0  0  0  0  0  0  0  0  0
  181.6120  178.7110  141.6380 C   0  0  0  0  0  0  0  0  0  0  0  0
  180.2540  180.3800  141.2860 N   0  0  0  0  0  0  0  0  0  0  0  0
  183.4550  177.1630  137.0660 C   0  0  0  0  0  2  0  0  0  0  0  0
  182.7400  175.8520  137.1200 C   0  0  0  0  0  0  0  0  0  0  0  0
  182.3990  175.3020  138.2890 C   0  0  0  0  0  3  0  0  0  0  0  0
  182.1960  178.3180  138.8780 C   0  0  0  0  0  0  0  0  0  0  0  0
  182.5400  175.9400  139.6140 C   0  0  0  0  0  3  0  0  0  0  0  0
  182.4950  177.2530  139.8880 C   0  0  0  0  0  0  0  0  0  0  0  0
  182.5030  175.1170  135.8650 C   0  0  0  0  0  0  0  0  0  0  0  0
  181.6910  173.9900  135.8620 O   0  0  0  0  0  1  0  0  0  0  0  0
  183.0320  175.4990  134.7860 O   0  0  0  0  0  0  0  0  0  0  0  0
  184.0310  178.1310  141.6120 C   0  0  0  0  0  2  0  0  0  0  0  0
  187.9970  178.0690  143.4080 C   0  0  0  0  0  2  0  0  0  0  0  0
  185.5860  178.3850  145.1630 C   0  0  0  0  0  2  0  0  0  0  0  0
  189.3500  177.0600  146.7990 C   0  0  0  0  0  0  0  0  0  0  0  0
  184.1530  178.6350  143.0440 C   0  0  2  0  0  3  0  0  0  0  0  0
  189.2580  177.3270  145.4300 C   0  0  0  0  0  3  0  0  0  0  0  0
  188.0480  177.7530  144.8720 C   0  0  0  0  0  0  0  0  0  0  0  0
  185.1360  179.7970  143.0920 C   0  0  0  0  0  2  0  0  0  0  0  0
  187.0240  177.6780  147.0730 C   0  0  0  0  0  3  0  0  0  0  0  0
  186.9190  177.9370  145.7030 C   0  0  0  0  0  0  0  0  0  0  0  0
  188.2330  177.2420  147.6210 C   0  0  0  0  0  3  0  0  0  0  0  0
  185.5430  178.4480  143.6370 C   0  0  1  0  0  0  0  0  0  0  0  0
  186.6300  177.7400  142.8250 C   0  0  0  0  0  2  0  0  0  0  0  0
  190.6420  176.6000  147.3850 C   0  0  0  0  0  2  0  0  0  0  0  0
  191.6140  176.3680  146.3470 N   0  0  0  0  0  0  0  0  0  0  0  0
  192.3590  175.4360  146.4140 O   0  0  0  0  0  0  0  0  0  0  0  0
  1 19  1  6  0  0  0
  1  8  1  0  0  0  0
  2 13  2  0  0  0  0
  3  7  1  0  0  0  0
  4  6  1  0  0  0  0
  5  4  1  0  0  0  0
  7  9  1  0  0  0  0
  7  8  1  0  0  0  0
  8  4  2  0  0  0  0
  9  5  2  0  0  0  0
 10 11  1  0  0  0  0
 10  2  1  0  0  0  0
 11 12  2  0  0  0  0
 12 14  1  0  0  0  0
 13  3  1  0  0  0  0
 13 15  1  0  0  0  0
 14 15  2  0  0  0  0
 15  1  1  0  0  0  0
 16 11  1  0  0  0  0
 17 16  1  0  0  0  0
 18 16  2  0  0  0  0
 20 25  1  0  0  0  0
 21 28  1  0  0  0  0
 22 32  1  0  0  0  0
 22 29  1  0  0  0  0
 23 19  1  6  0  0  0
 23 26  1  0  0  0  0
 23 30  1  0  0  0  0
 24 22  2  0  0  0  0
 25 24  1  0  0  0  0
 25 28  2  0  0  0  0
 26 30  1  0  0  0  0
 27 29  2  0  0  0  0
 28 27  1  0  0  0  0
 30 31  1  6  0  0  0
 30 21  1  0  0  0  0
 31 20  1  0  0  0  0
 33 34  2  0  0  0  0
 33 32  1  0  0  0  0
M  END
>  <MODEL>
1

>  <REMARK>
 VINA RESULT:      -9.4      0.000      0.000
  Name = 
  5 active torsions:
  status: ('A' for Active; 'I' for Inactive)
    1  A    between atoms: C_1  and  C_9
    2  A    between atoms: C_3  and  C_25
    3  A    between atoms: C_7  and  C_11
    4  A    between atoms: C_8  and  C_9
    5  A    between atoms: C_11  and  N_15
                            x       y       z     vdW  Elec       q    Type
                         _______ _______ _______ _____ _____    ______ ____

>  <TORSDO>
F 5

$$$$
=
 OpenBabel10272415283D

 34 39  0  0  1  0  0  0  0  0999 V2000
  191.1560  176.3840  138.0710 C   0  0  1  0  0  3  0  0  0  0  0  0
  187.9430  174.8690  136.8060 C   0  0  0  0  0  3  0  0  0  0  0  0
  190.1220  173.8180  136.8410 C   0  0  0  0  0  2  0  0  0  0  0  0
  193.3780  175.1090  137.7210 C   0  0  0  0  0  0  0  0  0  0  0  0
  193.6870  173.8670  137.1980 C   0  0  0  0  0  3  0  0  0  0  0  0
  194.2740  176.0380  138.2350 O   0  0  0  0  0  1  0  0  0  0  0  0
  191.5320  174.1170  137.0790 N   0  0  0  0  0  0  0  0  0  0  0  0
  192.0150  175.2370  137.6380 C   0  0  0  0  0  0  0  0  0  0  0  0
  192.5260  173.2830  136.8170 N   0  0  0  0  0  0  0  0  0  0  0  0
  186.9380  175.9550  136.9970 C   0  0  0  0  0  2  0  0  0  0  0  0
  187.1270  177.0540  136.0020 C   0  0  0  0  0  0  0  0  0  0  0  0
  188.2420  177.7930  135.9960 C   0  0  0  0  0  3  0  0  0  0  0  0
  189.2560  175.0470  136.9530 C   0  0  0  0  0  0  0  0  0  0  0  0
  189.4390  177.5490  136.8260 C   0  0  0  0  0  3  0  0  0  0  0  0
  189.8770  176.3680  137.2880 C   0  0  0  0  0  0  0  0  0  0  0  0
  186.0220  177.3870  135.0870 C   0  0  0  0  0  0  0  0  0  0  0  0
  184.8960  176.5740  135.0320 O   0  0  0  0  0  1  0  0  0  0  0  0
  186.0830  178.4060  134.3470 O   0  0  0  0  0  0  0  0  0  0  0  0
  190.8430  176.2950  139.5600 C   0  0  0  0  0  2  0  0  0  0  0  0
  190.3390  177.7450  143.6350 C   0  0  0  0  0  2  0  0  0  0  0  0
  187.9540  177.5630  141.8260 C   0  0  0  0  0  2  0  0  0  0  0  0
  187.4710  177.7410  146.1090 C   0  0  0  0  0  0  0  0  0  0  0  0
  189.5460  177.0260  139.8820 C   0  0  2  0  0  3  0  0  0  0  0  0
  188.7590  177.7520  145.5670 C   0  0  0  0  0  3  0  0  0  0  0  0
  188.9440  177.6900  144.1820 C   0  0  0  0  0  0  0  0  0  0  0  0
  189.8630  178.4290  140.3820 C   0  0  0  0  0  2  0  0  0  0  0  0
  186.5350  177.6410  143.8760 C   0  0  0  0  0  3  0  0  0  0  0  0
  187.8210  177.6400  143.3250 C   0  0  0  0  0  0  0  0  0  0  0  0
  186.3590  177.6910  145.2610 C   0  0  0  0  0  3  0  0  0  0  0  0
  189.3950  177.3740  141.3570 C   0  0  1  0  0  0  0  0  0  0  0  0
  190.4580  176.9220  142.3600 C   0  0  0  0  0  2  0  0  0  0  0  0
  187.2810  177.8010  147.5870 C   0  0  0  0  0  2  0  0  0  0  0  0
  188.5250  177.5470  148.2670 N   0  0  0  0  0  0  0  0  0  0  0  0
  189.0940  178.4300  148.8360 O   0  0  0  0  0  0  0  0  0  0  0  0
  1 19  1  1  0  0  0
  2 13  2  0  0  0  0
  2 10  1  0  0  0  0
  3 13  1  0  0  0  0
  3  7  1  0  0  0  0
  4  6  1  0  0  0  0
  5  4  1  0  0  0  0
  7  8  1  0  0  0  0
  8  4  2  0  0  0  0
  8  1  1  0  0  0  0
  9  7  1  0  0  0  0
  9  5  2  0  0  0  0
 11 10  1  0  0  0  0
 12 11  2  0  0  0  0
 12 14  1  0  0  0  0
 13 15  1  0  0  0  0
 14 15  2  0  0  0  0
 15  1  1  0  0  0  0
 16 11  1  0  0  0  0
 17 16  1  0  0  0  0
 18 16  2  0  0  0  0
 20 25  1  0  0  0  0
 21 28  1  0  0  0  0
 22 32  1  0  0  0  0
 23 19  1  1  0  0  0
 23 26  1  0  0  0  0
 23 30  1  0  0  0  0
 24 22  1  0  0  0  0
 25 24  2  0  0  0  0
 27 29  1  0  0  0  0
 28 27  2  0  0  0  0
 28 25  1  0  0  0  0
 29 22  2  0  0  0  0
 30 26  1  6  0  0  0
 30 21  1  0  0  0  0
 30 31  1  0  0  0  0
 31 20  1  0  0  0  0
 32 33  1  0  0  0  0
 33 34  2  0  0  0  0
M  END
>  <MODEL>
2

>  <REMARK>
 VINA RESULT:      -8.8      5.217      7.654
  Name = 
  5 active torsions:
  status: ('A' for Active; 'I' for Inactive)
    1  A    between atoms: C_1  and  C_9
    2  A    between atoms: C_3  and  C_25
    3  A    between atoms: C_7  and  C_11
    4  A    between atoms: C_8  and  C_9
    5  A    between atoms: C_11  and  N_15
                            x       y       z     vdW  Elec       q    Type
                         _______ _______ _______ _____ _____    ______ ____

>  <TORSDO>
F 5

$$$$
=
 OpenBabel10272415283D

 34 39  0  0  1  0  0  0  0  0999 V2000
  189.2210  175.9390  137.3550 C   0  0  1  0  0  3  0  0  0  0  0  0
  192.2550  175.7490  135.1240 C   0  0  0  0  0  3  0  0  0  0  0  0
  190.1920  176.9250  134.6610 C   0  0  0  0  0  2  0  0  0  0  0  0
  187.0630  177.0470  136.4610 C   0  0  0  0  0  0  0  0  0  0  0  0
  186.7500  177.7040  135.2850 C   0  0  0  0  0  3  0  0  0  0  0  0
  186.2110  176.8200  137.5340 O   0  0  0  0  0  1  0  0  0  0  0  0
  188.8290  177.0840  135.1640 N   0  0  0  0  0  0  0  0  0  0  0  0
  188.3780  176.6720  136.3590 C   0  0  0  0  0  0  0  0  0  0  0  0
  187.8620  177.7120  134.5130 N   0  0  0  0  0  0  0  0  0  0  0  0
  193.2030  174.8840  135.8860 C   0  0  0  0  0  2  0  0  0  0  0  0
  192.7680  173.4540  135.8710 C   0  0  0  0  0  0  0  0  0  0  0  0
  191.6230  173.0770  136.4490 C   0  0  0  0  0  3  0  0  0  0  0  0
  190.9790  175.9250  135.4690 C   0  0  0  0  0  0  0  0  0  0  0  0
  190.6100  173.9860  137.0230 C   0  0  0  0  0  3  0  0  0  0  0  0
  190.3400  175.2430  136.6390 C   0  0  0  0  0  0  0  0  0  0  0  0
  193.6710  172.4390  135.2990 C   0  0  0  0  0  0  0  0  0  0  0  0
  193.6730  171.1460  135.8060 O   0  0  0  0  0  1  0  0  0  0  0  0
  194.4470  172.7320  134.3490 O   0  0  0  0  0  0  0  0  0  0  0  0
  189.7970  176.9000  138.3890 C   0  0  0  0  0  2  0  0  0  0  0  0
  190.9600  177.9470  142.4520 C   0  0  0  0  0  2  0  0  0  0  0  0
  188.0580  177.5710  141.7980 C   0  0  0  0  0  2  0  0  0  0  0  0
  189.4500  177.3500  145.8740 C   0  0  0  0  0  0  0  0  0  0  0  0
  188.7020  177.4140  139.3150 C   0  0  2  0  0  3  0  0  0  0  0  0
  190.3730  177.5830  144.8510 C   0  0  0  0  0  3  0  0  0  0  0  0
  189.9490  177.6540  143.5190 C   0  0  0  0  0  0  0  0  0  0  0  0
  189.0700  178.8050  139.8140 C   0  0  0  0  0  2  0  0  0  0  0  0
  187.6590  177.2910  144.2430 C   0  0  0  0  0  3  0  0  0  0  0  0
  188.5760  177.5130  143.2110 C   0  0  0  0  0  0  0  0  0  0  0  0
  188.0920  177.2100  145.5690 C   0  0  0  0  0  3  0  0  0  0  0  0
  189.1690  177.6230  140.7490 C   0  0  1  0  0  0  0  0  0  0  0  0
  190.5970  177.2490  141.1490 C   0  0  0  0  0  2  0  0  0  0  0  0
  189.9090  177.2680  147.2910 C   0  0  0  0  0  2  0  0  0  0  0  0
  191.0970  176.4590  147.3910 N   0  0  0  0  0  0  0  0  0  0  0  0
  192.0740  176.8830  147.9320 O   0  0  0  0  0  0  0  0  0  0  0  0
  1 19  1  1  0  0  0
  2 13  2  0  0  0  0
  2 10  1  0  0  0  0
  3  7  1  0  0  0  0
  3 13  1  0  0  0  0
  4  6  1  0  0  0  0
  5  4  1  0  0  0  0
  7  8  1  0  0  0  0
  8  4  2  0  0  0  0
  8  1  1  0  0  0  0
  9  7  1  0  0  0  0
  9  5  2  0  0  0  0
 11 10  1  0  0  0  0
 11 12  2  0  0  0  0
 12 14  1  0  0  0  0
 13 15  1  0  0  0  0
 15 14  2  0  0  0  0
 15  1  1  0  0  0  0
 16 17  1  0  0  0  0
 16 11  1  0  0  0  0
 18 16  2  0  0  0  0
 20 25  1  0  0  0  0
 21 28  1  0  0  0  0
 22 32  1  0  0  0  0
 23 19  1  6  0  0  0
 23 26  1  0  0  0  0
 23 30  1  0  0  0  0
 24 22  2  0  0  0  0
 25 24  1  0  0  0  0
 27 29  2  0  0  0  0
 28 25  2  0  0  0  0
 28 27  1  0  0  0  0
 29 22  1  0  0  0  0
 30 26  1  6  0  0  0
 30 31  1  0  0  0  0
 30 21  1  0  0  0  0
 31 20  1  0  0  0  0
 32 33  1  0  0  0  0
 33 34  2  0  0  0  0
M  END
>  <MODEL>
3

>  <REMARK>
 VINA RESULT:      -8.1      6.387      7.662
  Name = 
  5 active torsions:
  status: ('A' for Active; 'I' for Inactive)
    1  A    between atoms: C_1  and  C_9
    2  A    between atoms: C_3  and  C_25
    3  A    between atoms: C_7  and  C_11
    4  A    between atoms: C_8  and  C_9
    5  A    between atoms: C_11  and  N_15
                            x       y       z     vdW  Elec       q    Type
                         _______ _______ _______ _____ _____    ______ ____

>  <TORSDO>
F 5

$$$$
=
 OpenBabel10272415283D

 34 39  0  0  1  0  0  0  0  0999 V2000
  186.5970  178.4620  138.6120 C   0  0  1  0  0  3  0  0  0  0  0  0
  183.3310  176.5770  138.5390 C   0  0  0  0  0  3  0  0  0  0  0  0
  185.1100  176.4520  136.9020 C   0  0  0  0  0  2  0  0  0  0  0  0
  188.1810  178.3240  136.5730 C   0  0  0  0  0  0  0  0  0  0  0  0
  188.1460  177.6080  135.3900 C   0  0  0  0  0  3  0  0  0  0  0  0
  189.1730  179.2080  136.9770 O   0  0  0  0  0  1  0  0  0  0  0  0
  186.3610  177.1040  136.5220 N   0  0  0  0  0  0  0  0  0  0  0  0
  187.0480  177.9840  137.2670 C   0  0  0  0  0  0  0  0  0  0  0  0
  187.0140  176.8650  135.3960 N   0  0  0  0  0  0  0  0  0  0  0  0
  182.6190  177.0530  139.7600 C   0  0  0  0  0  2  0  0  0  0  0  0
  182.1250  178.4540  139.5910 C   0  0  0  0  0  0  0  0  0  0  0  0
  182.9790  179.4700  139.4320 C   0  0  0  0  0  3  0  0  0  0  0  0
  184.4540  177.1300  138.0780 C   0  0  0  0  0  0  0  0  0  0  0  0
  184.4410  179.3460  139.2620 C   0  0  0  0  0  3  0  0  0  0  0  0
  185.1070  178.3200  138.7130 C   0  0  0  0  0  0  0  0  0  0  0  0
  180.6800  178.7200  139.7070 C   0  0  0  0  0  0  0  0  0  0  0  0
  180.0010  178.3820  140.8710 O   0  0  0  0  0  1  0  0  0  0  0  0
  180.0470  179.2550  138.7560 O   0  0  0  0  0  0  0  0  0  0  0  0
  187.2620  177.6600  139.7240 C   0  0  0  0  0  2  0  0  0  0  0  0
  190.1420  178.0280  142.9690 C   0  0  0  0  0  2  0  0  0  0  0  0
  187.2140  177.8920  143.6020 C   0  0  0  0  0  2  0  0  0  0  0  0
  190.1680  176.9940  146.6130 C   0  0  0  0  0  0  0  0  0  0  0  0
  186.7240  178.0810  141.0860 C   0  0  2  0  0  3  0  0  0  0  0  0
  190.5900  177.3350  145.3250 C   0  0  0  0  0  3  0  0  0  0  0  0
  189.6530  177.6260  144.3280 C   0  0  0  0  0  0  0  0  0  0  0  0
  187.4160  179.3620  141.5320 C   0  0  0  0  0  2  0  0  0  0  0  0
  187.8610  177.2650  145.9270 C   0  0  0  0  0  3  0  0  0  0  0  0
  188.2720  177.5970  144.6320 C   0  0  0  0  0  0  0  0  0  0  0  0
  188.8030  176.9650  146.9140 C   0  0  0  0  0  3  0  0  0  0  0  0
  187.7740  178.0490  142.1890 C   0  0  1  0  0  0  0  0  0  0  0  0
  189.1890  177.5530  141.8820 C   0  0  0  0  0  2  0  0  0  0  0  0
  191.1730  176.6790  147.6690 C   0  0  0  0  0  2  0  0  0  0  0  0
  192.2670  175.9210  147.1170 N   0  0  0  0  0  0  0  0  0  0  0  0
  193.1050  175.4600  147.8320 O   0  0  0  0  0  0  0  0  0  0  0  0
  1 15  1  0  0  0  0
  1 19  1  1  0  0  0
  2 10  1  0  0  0  0
  3 13  1  0  0  0  0
  4  6  1  0  0  0  0
  4  8  2  0  0  0  0
  5  9  2  0  0  0  0
  5  4  1  0  0  0  0
  7  3  1  0  0  0  0
  7  8  1  0  0  0  0
  8  1  1  0  0  0  0
  9  7  1  0  0  0  0
 11 16  1  0  0  0  0
 11 10  1  0  0  0  0
 12 11  2  0  0  0  0
 13  2  2  0  0  0  0
 13 15  1  0  0  0  0
 14 12  1  0  0  0  0
 15 14  2  0  0  0  0
 16 17  1  0  0  0  0
 18 16  2  0  0  0  0
 20 25  1  0  0  0  0
 21 28  1  0  0  0  0
 22 29  1  0  0  0  0
 22 32  1  0  0  0  0
 23 19  1  6  0  0  0
 23 26  1  0  0  0  0
 23 30  1  0  0  0  0
 24 22  2  0  0  0  0
 25 28  2  0  0  0  0
 25 24  1  0  0  0  0
 27 29  2  0  0  0  0
 28 27  1  0  0  0  0
 30 26  1  1  0  0  0
 30 21  1  0  0  0  0
 31 30  1  0  0  0  0
 31 20  1  0  0  0  0
 33 32  1  0  0  0  0
 33 34  2  0  0  0  0
M  END
>  <MODEL>
4

>  <REMARK>
 VINA RESULT:      -8.0      3.257      4.964
  Name = 
  5 active torsions:
  status: ('A' for Active; 'I' for Inactive)
    1  A    between atoms: C_1  and  C_9
    2  A    between atoms: C_3  and  C_25
    3  A    between atoms: C_7  and  C_11
    4  A    between atoms: C_8  and  C_9
    5  A    between atoms: C_11  and  N_15
                            x       y       z     vdW  Elec       q    Type
                         _______ _______ _______ _____ _____    ______ ____

>  <TORSDO>
F 5

$$$$
=
 OpenBabel10272415283D

 34 39  0  0  1  0  0  0  0  0999 V2000
  189.5960  176.3860  136.7280 C   0  0  1  0  0  3  0  0  0  0  0  0
  186.1850  174.7890  136.9240 C   0  0  0  0  0  3  0  0  0  0  0  0
  188.2310  173.7430  136.1630 C   0  0  0  0  0  2  0  0  0  0  0  0
  191.5350  175.0920  135.6110 C   0  0  0  0  0  0  0  0  0  0  0  0
  191.6480  173.8170  135.0870 C   0  0  0  0  0  3  0  0  0  0  0  0
  192.5350  176.0530  135.6730 O   0  0  0  0  0  1  0  0  0  0  0  0
  189.6130  174.0580  135.8090 N   0  0  0  0  0  0  0  0  0  0  0  0
  190.2450  175.2140  136.0630 C   0  0  0  0  0  0  0  0  0  0  0  0
  190.4470  173.2090  135.2300 N   0  0  0  0  0  0  0  0  0  0  0  0
  185.3070  175.8850  137.4270 C   0  0  0  0  0  2  0  0  0  0  0  0
  185.0620  176.9150  136.3720 C   0  0  0  0  0  0  0  0  0  0  0  0
  186.0640  177.6520  135.8830 C   0  0  0  0  0  3  0  0  0  0  0  0
  187.4460  174.9760  136.5310 C   0  0  0  0  0  0  0  0  0  0  0  0
  187.4970  177.4650  136.1890 C   0  0  0  0  0  3  0  0  0  0  0  0
  188.1120  176.3170  136.5130 C   0  0  0  0  0  0  0  0  0  0  0  0
  183.6770  177.1850  135.9470 C   0  0  0  0  0  0  0  0  0  0  0  0
  182.6400  177.1140  136.8690 O   0  0  0  0  0  1  0  0  0  0  0  0
  183.4190  177.4810  134.7490 O   0  0  0  0  0  0  0  0  0  0  0  0
  189.8940  176.3970  138.2220 C   0  0  0  0  0  2  0  0  0  0  0  0
  190.8310  177.6730  142.2790 C   0  0  0  0  0  2  0  0  0  0  0  0
  187.9750  177.6400  141.3640 C   0  0  0  0  0  2  0  0  0  0  0  0
  188.9480  177.6360  145.5650 C   0  0  0  0  0  0  0  0  0  0  0  0
  188.8080  177.1490  138.9830 C   0  0  2  0  0  3  0  0  0  0  0  0
  189.9840  177.6350  144.6260 C   0  0  0  0  0  3  0  0  0  0  0  0
  189.6960  177.6320  143.2570 C   0  0  0  0  0  0  0  0  0  0  0  0
  189.3320  178.5180  139.3960 C   0  0  0  0  0  2  0  0  0  0  0  0
  187.3220  177.6630  143.7700 C   0  0  0  0  0  3  0  0  0  0  0  0
  188.3510  177.6520  142.8220 C   0  0  0  0  0  0  0  0  0  0  0  0
  187.6180  177.6560  145.1360 C   0  0  0  0  0  3  0  0  0  0  0  0
  189.1710  177.4320  140.4340 C   0  0  1  0  0  0  0  0  0  0  0  0
  190.4870  176.9060  141.0100 C   0  0  0  0  0  2  0  0  0  0  0  0
  189.2620  177.6330  147.0240 C   0  0  0  0  0  2  0  0  0  0  0  0
  188.1190  177.2010  147.7860 N   0  0  0  0  0  0  0  0  0  0  0  0
  187.8630  177.7120  148.8350 O   0  0  0  0  0  0  0  0  0  0  0  0
  1 19  1  1  0  0  0
  2 10  1  0  0  0  0
  3 13  1  0  0  0  0
  4  6  1  0  0  0  0
  4  8  2  0  0  0  0
  5  9  2  0  0  0  0
  5  4  1  0  0  0  0
  7  8  1  0  0  0  0
  7  3  1  0  0  0  0
  8  1  1  0  0  0  0
  9  7  1  0  0  0  0
 11 10  1  0  0  0  0
 12 14  1  0  0  0  0
 12 11  2  0  0  0  0
 13  2  2  0  0  0  0
 14 15  2  0  0  0  0
 15 13  1  0  0  0  0
 15  1  1  0  0  0  0
 16 11  1  0  0  0  0
 16 17  1  0  0  0  0
 18 16  2  0  0  0  0
 20 25  1  0  0  0  0
 21 28  1  0  0  0  0
 22 32  1  0  0  0  0
 23 19  1  6  0  0  0
 23 26  1  0  0  0  0
 23 30  1  0  0  0  0
 24 22  2  0  0  0  0
 25 24  1  0  0  0  0
 27 29  2  0  0  0  0
 28 25  2  0  0  0  0
 28 27  1  0  0  0  0
 29 22  1  0  0  0  0
 30 26  1  6  0  0  0
 30 31  1  0  0  0  0
 30 21  1  0  0  0  0
 31 20  1  0  0  0  0
 32 33  1  0  0  0  0
 33 34  2  0  0  0  0
M  END
>  <MODEL>
5

>  <REMARK>
 VINA RESULT:      -8.0      5.114      7.065
  Name = 
  5 active torsions:
  status: ('A' for Active; 'I' for Inactive)
    1  A    between atoms: C_1  and  C_9
    2  A    between atoms: C_3  and  C_25
    3  A    between atoms: C_7  and  C_11
    4  A    between atoms: C_8  and  C_9
    5  A    between atoms: C_11  and  N_15
                            x       y       z     vdW  Elec       q    Type
                         _______ _______ _______ _____ _____    ______ ____

>  <TORSDO>
F 5

$$$$
=
 OpenBabel10272415283D

 34 39  0  0  1  0  0  0  0  0999 V2000
  189.9480  176.8900  139.6410 C   0  0  1  0  0  3  0  0  0  0  0  0
  191.3760  178.4040  142.7860 C   0  0  0  0  0  3  0  0  0  0  0  0
  192.6170  177.6630  140.8450 C   0  0  0  0  0  2  0  0  0  0  0  0
  191.5560  175.9430  137.8520 C   0  0  0  0  0  0  0  0  0  0  0  0
  192.9340  175.9210  137.7300 C   0  0  0  0  0  3  0  0  0  0  0  0
  190.6360  175.4230  136.9500 O   0  0  0  0  0  1  0  0  0  0  0  0
  192.4510  176.9260  139.5950 N   0  0  0  0  0  0  0  0  0  0  0  0
  191.2810  176.5860  139.0320 C   0  0  0  0  0  0  0  0  0  0  0  0
  193.4510  176.5380  138.8180 N   0  0  0  0  0  0  0  0  0  0  0  0
  190.1780  178.6410  143.6430 C   0  0  0  0  0  2  0  0  0  0  0  0
  189.6340  177.3590  144.1850 C   0  0  0  0  0  0  0  0  0  0  0  0
  189.1330  176.4250  143.3700 C   0  0  0  0  0  3  0  0  0  0  0  0
  191.3440  177.7060  141.6500 C   0  0  0  0  0  0  0  0  0  0  0  0
  189.1760  176.4580  141.8940 C   0  0  0  0  0  3  0  0  0  0  0  0
  190.1070  177.0440  141.1250 C   0  0  0  0  0  0  0  0  0  0  0  0
  189.5590  177.1760  145.6450 C   0  0  0  0  0  0  0  0  0  0  0  0
  190.7020  176.8500  146.3650 O   0  0  0  0  0  1  0  0  0  0  0  0
  188.4640  177.3120  146.2550 O   0  0  0  0  0  0  0  0  0  0  0  0
  189.3620  178.1690  139.0550 C   0  0  0  0  0  2  0  0  0  0  0  0
  185.0870  178.9640  139.2660 C   0  0  0  0  0  2  0  0  0  0  0  0
  186.1600  177.2320  137.0660 C   0  0  0  0  0  2  0  0  0  0  0  0
  181.9890  177.0890  138.1540 C   0  0  0  0  0  0  0  0  0  0  0  0
  188.5370  177.8630  137.8120 C   0  0  2  0  0  3  0  0  0  0  0  0
  182.8470  177.9440  138.8530 C   0  0  0  0  0  3  0  0  0  0  0  0
  184.2050  178.0060  138.5230 C   0  0  0  0  0  0  0  0  0  0  0  0
  187.8340  179.1300  137.3440 C   0  0  0  0  0  2  0  0  0  0  0  0
  183.8390  176.3730  136.7630 C   0  0  0  0  0  3  0  0  0  0  0  0
  184.7070  177.2170  137.4630 C   0  0  0  0  0  0  0  0  0  0  0  0
  182.4850  176.3080  137.1060 C   0  0  0  0  0  3  0  0  0  0  0  0
  187.0390  178.0390  138.0210 C   0  0  1  0  0  0  0  0  0  0  0  0
  186.4990  178.4130  139.4030 C   0  0  0  0  0  2  0  0  0  0  0  0
  180.5430  177.0230  138.5150 C   0  0  0  0  0  2  0  0  0  0  0  0
  180.3710  176.3990  139.8020 N   0  0  0  0  0  0  0  0  0  0  0  0
  180.6910  175.2610  139.9700 O   0  0  0  0  0  0  0  0  0  0  0  0
  1 19  1  6  0  0  0
  1 15  1  0  0  0  0
  2 10  1  0  0  0  0
  3 13  1  0  0  0  0
  4  8  2  0  0  0  0
  5  4  1  0  0  0  0
  5  9  2  0  0  0  0
  6  4  1  0  0  0  0
  7  3  1  0  0  0  0
  8  7  1  0  0  0  0
  8  1  1  0  0  0  0
  9  7  1  0  0  0  0
 10 11  1  0  0  0  0
 11 16  1  0  0  0  0
 12 11  2  0  0  0  0
 13  2  2  0  0  0  0
 14 12  1  0  0  0  0
 15 13  1  0  0  0  0
 15 14  2  0  0  0  0
 16 18  2  0  0  0  0
 16 17  1  0  0  0  0
 20 31  1  0  0  0  0
 21 28  1  0  0  0  0
 22 32  1  0  0  0  0
 22 24  1  0  0  0  0
 23 30  1  0  0  0  0
 23 19  1  1  0  0  0
 25 24  2  0  0  0  0
 25 20  1  0  0  0  0
 26 23  1  0  0  0  0
 26 30  1  0  0  0  0
 27 29  1  0  0  0  0
 27 28  2  0  0  0  0
 28 25  1  0  0  0  0
 29 22  2  0  0  0  0
 30 21  1  6  0  0  0
 30 31  1  0  0  0  0
 32 33  1  0  0  0  0
 33 34  2  0  0  0  0
M  END
>  <MODEL>
6

>  <REMARK>
 VINA RESULT:      -7.8      4.169     10.284
  Name = 
  5 active torsions:
  status: ('A' for Active; 'I' for Inactive)
    1  A    between atoms: C_1  and  C_9
    2  A    between atoms: C_3  and  C_25
    3  A    between atoms: C_7  and  C_11
    4  A    between atoms: C_8  and  C_9
    5  A    between atoms: C_11  and  N_15
                            x       y       z     vdW  Elec       q    Type
                         _______ _______ _______ _____ _____    ______ ____

>  <TORSDO>
F 5

$$$$
=
 OpenBabel10272415283D

 34 39  0  0  1  0  0  0  0  0999 V2000
  188.1120  177.5420  145.1120 C   0  0  1  0  0  3  0  0  0  0  0  0
  185.0900  179.7770  144.8050 C   0  0  0  0  0  3  0  0  0  0  0  0
  186.1570  179.0630  146.8560 C   0  0  0  0  0  2  0  0  0  0  0  0
  188.8520  176.7350  147.4540 C   0  0  0  0  0  0  0  0  0  0  0  0
  188.4100  177.0060  148.7360 C   0  0  0  0  0  3  0  0  0  0  0  0
  189.9010  175.8960  147.1000 O   0  0  0  0  0  1  0  0  0  0  0  0
  187.1690  178.1350  147.3550 N   0  0  0  0  0  0  0  0  0  0  0  0
  188.0570  177.4620  146.6060 C   0  0  0  0  0  0  0  0  0  0  0  0
  187.3760  177.8750  148.6360 N   0  0  0  0  0  0  0  0  0  0  0  0
  184.8560  179.8590  143.3340 C   0  0  0  0  0  2  0  0  0  0  0  0
  184.2990  178.5790  142.7990 C   0  0  0  0  0  0  0  0  0  0  0  0
  185.0120  177.4480  142.8400 C   0  0  0  0  0  3  0  0  0  0  0  0
  185.9550  178.9330  145.3680 C   0  0  0  0  0  0  0  0  0  0  0  0
  186.3160  177.2780  143.5120 C   0  0  0  0  0  3  0  0  0  0  0  0
  186.7630  177.9410  144.5890 C   0  0  0  0  0  0  0  0  0  0  0  0
  182.9880  178.5960  142.1260 C   0  0  0  0  0  0  0  0  0  0  0  0
  181.8570  179.0100  142.8190 O   0  0  0  0  0  1  0  0  0  0  0  0
  182.8780  178.2390  140.9220 O   0  0  0  0  0  0  0  0  0  0  0  0
  189.1540  178.5580  144.6610 C   0  0  0  0  0  2  0  0  0  0  0  0
  188.9330  179.1030  140.3470 C   0  0  0  0  0  2  0  0  0  0  0  0
  190.6660  176.9300  141.4740 C   0  0  0  0  0  2  0  0  0  0  0  0
  189.3620  176.8070  137.3650 C   0  0  0  0  0  0  0  0  0  0  0  0
  190.2320  177.8860  143.8200 C   0  0  2  0  0  3  0  0  0  0  0  0
  188.9530  177.8680  138.1780 C   0  0  0  0  0  3  0  0  0  0  0  0
  189.3570  177.9290  139.5160 C   0  0  0  0  0  0  0  0  0  0  0  0
  190.9740  178.9390  143.0080 C   0  0  0  0  0  2  0  0  0  0  0  0
  190.6160  175.8740  139.2160 C   0  0  0  0  0  3  0  0  0  0  0  0
  190.2030  176.9260  140.0410 C   0  0  0  0  0  0  0  0  0  0  0  0
  190.1980  175.8140  137.8840 C   0  0  0  0  0  3  0  0  0  0  0  0
  189.9980  178.0130  142.3210 C   0  0  1  0  0  0  0  0  0  0  0  0
  188.7330  178.6990  141.8000 C   0  0  0  0  0  2  0  0  0  0  0  0
  188.9210  176.7440  135.9410 C   0  0  0  0  0  2  0  0  0  0  0  0
  188.0590  177.8560  135.6290 N   0  0  0  0  0  0  0  0  0  0  0  0
  186.9460  177.6660  135.2390 O   0  0  0  0  0  0  0  0  0  0  0  0
  1 19  1  1  0  0  0
  1  8  1  0  0  0  0
  2 13  2  0  0  0  0
  3  7  1  0  0  0  0
  4  5  1  0  0  0  0
  6  4  1  0  0  0  0
  7  9  1  0  0  0  0
  8  7  1  0  0  0  0
  8  4  2  0  0  0  0
  9  5  2  0  0  0  0
 10  2  1  0  0  0  0
 11 12  2  0  0  0  0
 11 10  1  0  0  0  0
 12 14  1  0  0  0  0
 13  3  1  0  0  0  0
 14 15  2  0  0  0  0
 15  1  1  0  0  0  0
 15 13  1  0  0  0  0
 16 11  1  0  0  0  0
 16 17  1  0  0  0  0
 18 16  2  0  0  0  0
 20 31  1  0  0  0  0
 22 29  2  0  0  0  0
 22 24  1  0  0  0  0
 23 19  1  1  0  0  0
 24 25  2  0  0  0  0
 25 28  1  0  0  0  0
 25 20  1  0  0  0  0
 26 23  1  0  0  0  0
 27 28  2  0  0  0  0
 28 21  1  0  0  0  0
 29 27  1  0  0  0  0
 30 21  1  6  0  0  0
 30 26  1  0  0  0  0
 30 23  1  0  0  0  0
 31 30  1  0  0  0  0
 32 22  1  0  0  0  0
 33 32  1  0  0  0  0
 34 33  2  0  0  0  0
M  END
>  <MODEL>
7

>  <REMARK>
 VINA RESULT:      -7.3      3.799      7.983
  Name = 
  5 active torsions:
  status: ('A' for Active; 'I' for Inactive)
    1  A    between atoms: C_1  and  C_9
    2  A    between atoms: C_3  and  C_25
    3  A    between atoms: C_7  and  C_11
    4  A    between atoms: C_8  and  C_9
    5  A    between atoms: C_11  and  N_15
                            x       y       z     vdW  Elec       q    Type
                         _______ _______ _______ _____ _____    ______ ____

>  <TORSDO>
F 5

$$$$
=
 OpenBabel10272415283D

 34 39  0  0  1  0  0  0  0  0999 V2000
  190.0960  176.7780  144.8060 C   0  0  1  0  0  3  0  0  0  0  0  0
  188.0020  178.7680  147.2300 C   0  0  0  0  0  3  0  0  0  0  0  0
  189.9710  177.4610  147.7540 C   0  0  0  0  0  2  0  0  0  0  0  0
  191.9810  175.2600  145.7150 C   0  0  0  0  0  0  0  0  0  0  0  0
  192.4950  175.0390  146.9800 C   0  0  0  0  0  3  0  0  0  0  0  0
  192.4090  174.6700  144.5330 O   0  0  0  0  0  1  0  0  0  0  0  0
  190.8870  176.4890  147.1630 N   0  0  0  0  0  0  0  0  0  0  0  0
  190.9750  176.1810  145.8600 C   0  0  0  0  0  0  0  0  0  0  0  0
  191.8000  175.8150  147.8450 N   0  0  0  0  0  0  0  0  0  0  0  0
  186.9180  179.3390  146.3790 C   0  0  0  0  0  2  0  0  0  0  0  0
  185.9350  178.2900  145.9720 C   0  0  0  0  0  0  0  0  0  0  0  0
  186.3020  177.2670  145.1930 C   0  0  0  0  0  3  0  0  0  0  0  0
  188.8630  177.8420  146.8050 C   0  0  0  0  0  0  0  0  0  0  0  0
  187.6840  176.9630  144.7680 C   0  0  0  0  0  3  0  0  0  0  0  0
  188.8150  177.2400  145.4340 C   0  0  0  0  0  0  0  0  0  0  0  0
  184.5210  178.4500  146.3550 C   0  0  0  0  0  0  0  0  0  0  0  0
  183.6290  179.0620  145.4830 O   0  0  0  0  0  0  0  0  0  0  0  0
  184.1070  178.0360  147.4720 O   0  0  0  0  0  1  0  0  0  0  0  0
  190.7860  177.9560  144.1280 C   0  0  0  0  0  2  0  0  0  0  0  0
  188.7330  178.4460  140.3200 C   0  0  0  0  0  2  0  0  0  0  0  0
  191.1230  176.6420  140.4880 C   0  0  0  0  0  2  0  0  0  0  0  0
  188.2980  176.2700  137.2490 C   0  0  0  0  0  0  0  0  0  0  0  0
  191.5250  177.4990  142.8770 C   0  0  2  0  0  3  0  0  0  0  0  0
  188.0790  177.2350  138.2370 C   0  0  0  0  0  3  0  0  0  0  0  0
  188.9770  177.3730  139.3010 C   0  0  0  0  0  0  0  0  0  0  0  0
  191.6760  178.6740  141.9190 C   0  0  0  0  0  2  0  0  0  0  0  0
  190.3400  175.5940  138.3650 C   0  0  0  0  0  3  0  0  0  0  0  0
  190.1240  176.5480  139.3640 C   0  0  0  0  0  0  0  0  0  0  0  0
  189.4320  175.4540  137.3110 C   0  0  0  0  0  3  0  0  0  0  0  0
  190.6810  177.5790  141.6110 C   0  0  1  0  0  0  0  0  0  0  0  0
  189.2160  178.0120  141.6960 C   0  0  0  0  0  2  0  0  0  0  0  0
  187.3340  176.1240  136.1210 C   0  0  0  0  0  2  0  0  0  0  0  0
  187.9900  176.3620  134.8600 N   0  0  0  0  0  0  0  0  0  0  0  0
  188.3860  177.4530  134.5810 O   0  0  0  0  0  0  0  0  0  0  0  0
  1 19  1  1  0  0  0
  1 15  1  0  0  0  0
  1  8  1  0  0  0  0
  4  8  2  0  0  0  0
  4  5  1  0  0  0  0
  5  9  2  0  0  0  0
  6  4  1  0  0  0  0
  7  3  1  0  0  0  0
  7  9  1  0  0  0  0
  8  7  1  0  0  0  0
 10  2  1  0  0  0  0
 11 16  1  0  0  0  0
 11 10  1  0  0  0  0
 12 11  2  0  0  0  0
 13  2  2  0  0  0  0
 13  3  1  0  0  0  0
 14 12  1  0  0  0  0
 14 15  2  0  0  0  0
 15 13  1  0  0  0  0
 16 18  1  0  0  0  0
 17 16  2  0  0  0  0
 20 31  1  0  0  0  0
 22 29  2  0  0  0  0
 22 24  1  0  0  0  0
 23 19  1  1  0  0  0
 24 25  2  0  0  0  0
 25 28  1  0  0  0  0
 25 20  1  0  0  0  0
 26 23  1  0  0  0  0
 27 28  2  0  0  0  0
 28 21  1  0  0  0  0
 29 27  1  0  0  0  0
 30 21  1  6  0  0  0
 30 31  1  0  0  0  0
 30 26  1  0  0  0  0
 30 23  1  0  0  0  0
 32 22  1  0  0  0  0
 33 32  1  0  0  0  0
 34 33  2  0  0  0  0
M  END
>  <MODEL>
8

>  <REMARK>
 VINA RESULT:      -6.8      4.767      9.877
  Name = 
  5 active torsions:
  status: ('A' for Active; 'I' for Inactive)
    1  A    between atoms: C_1  and  C_9
    2  A    between atoms: C_3  and  C_25
    3  A    between atoms: C_7  and  C_11
    4  A    between atoms: C_8  and  C_9
    5  A    between atoms: C_11  and  N_15
                            x       y       z     vdW  Elec       q    Type
                         _______ _______ _______ _____ _____    ______ ____

>  <TORSDO>
F 5

$$$$
=
 OpenBabel10272415283D

 34 39  0  0  1  0  0  0  0  0999 V2000
  186.3700  178.4170  138.1730 C   0  0  1  0  0  3  0  0  0  0  0  0
  184.3430  175.2770  137.6690 C   0  0  0  0  0  3  0  0  0  0  0  0
  186.5950  175.6870  136.8820 C   0  0  0  0  0  2  0  0  0  0  0  0
  188.6470  178.6570  136.9720 C   0  0  0  0  0  0  0  0  0  0  0  0
  189.3960  177.8080  136.1780 C   0  0  0  0  0  3  0  0  0  0  0  0
  188.9850  179.9500  137.3500 O   0  0  0  0  0  1  0  0  0  0  0  0
  187.5800  176.7570  136.7420 N   0  0  0  0  0  0  0  0  0  0  0  0
  187.5130  177.9680  137.3170 C   0  0  0  0  0  0  0  0  0  0  0  0
  188.7100  176.6460  136.0610 N   0  0  0  0  0  0  0  0  0  0  0  0
  183.0420  175.5840  138.3300 C   0  0  0  0  0  2  0  0  0  0  0  0
  182.2380  176.5540  137.5260 C   0  0  0  0  0  0  0  0  0  0  0  0
  182.6720  177.8020  137.3190 C   0  0  0  0  0  3  0  0  0  0  0  0
  185.2920  176.1880  137.4510 C   0  0  0  0  0  0  0  0  0  0  0  0
  183.9970  178.3260  137.7060 C   0  0  0  0  0  3  0  0  0  0  0  0
  185.1420  177.6350  137.8090 C   0  0  0  0  0  0  0  0  0  0  0  0
  180.9040  176.1520  137.0470 C   0  0  0  0  0  0  0  0  0  0  0  0
  180.6510  176.0650  135.6840 O   0  0  0  0  0  0  0  0  0  0  0  0
  179.9820  175.8830  137.8650 O   0  0  0  0  0  1  0  0  0  0  0  0
  186.6850  178.2130  139.6500 C   0  0  0  0  0  2  0  0  0  0  0  0
  188.0710  176.3660  143.3410 C   0  0  0  0  0  2  0  0  0  0  0  0
  189.9550  178.0640  141.7420 C   0  0  0  0  0  2  0  0  0  0  0  0
  190.7160  177.2400  145.9070 C   0  0  0  0  0  0  0  0  0  0  0  0
  188.1910  178.1560  139.8760 C   0  0  2  0  0  3  0  0  0  0  0  0
  189.5660  176.7190  145.3080 C   0  0  0  0  0  3  0  0  0  0  0  0
  189.2920  176.9750  143.9600 C   0  0  0  0  0  0  0  0  0  0  0  0
  188.6250  176.7070  140.0470 C   0  0  0  0  0  2  0  0  0  0  0  0
  191.3510  178.2540  143.8000 C   0  0  0  0  0  3  0  0  0  0  0  0
  190.1970  177.7460  143.1940 C   0  0  0  0  0  0  0  0  0  0  0  0
  191.6110  178.0030  145.1500 C   0  0  0  0  0  3  0  0  0  0  0  0
  188.5780  177.6220  141.2490 C   0  0  1  0  0  0  0  0  0  0  0  0
  187.4910  177.2750  142.2680 C   0  0  0  0  0  2  0  0  0  0  0  0
  190.9980  176.9690  147.3460 C   0  0  0  0  0  2  0  0  0  0  0  0
  192.2040  176.1920  147.4870 N   0  0  0  0  0  0  0  0  0  0  0  0
  192.8760  176.2920  148.4700 O   0  0  0  0  0  0  0  0  0  0  0  0
  1 19  1  1  0  0  0
  2 10  1  0  0  0  0
  3 13  1  0  0  0  0
  4  8  2  0  0  0  0
  4  6  1  0  0  0  0
  5  4  1  0  0  0  0
  7  3  1  0  0  0  0
  7  8  1  0  0  0  0
  8  1  1  0  0  0  0
  9  5  2  0  0  0  0
  9  7  1  0  0  0  0
 11 10  1  0  0  0  0
 12 11  2  0  0  0  0
 12 14  1  0  0  0  0
 13  2  2  0  0  0  0
 13 15  1  0  0  0  0
 14 15  2  0  0  0  0
 15  1  1  0  0  0  0
 16 11  1  0  0  0  0
 16 18  1  0  0  0  0
 17 16  2  0  0  0  0
 20 25  1  0  0  0  0
 21 28  1  0  0  0  0
 22 32  1  0  0  0  0
 23 19  1  1  0  0  0
 23 26  1  0  0  0  0
 23 30  1  0  0  0  0
 24 22  1  0  0  0  0
 25 24  2  0  0  0  0
 27 29  1  0  0  0  0
 28 27  2  0  0  0  0
 28 25  1  0  0  0  0
 29 22  2  0  0  0  0
 30 26  1  6  0  0  0
 30 21  1  0  0  0  0
 30 31  1  0  0  0  0
 31 20  1  0  0  0  0
 32 33  1  0  0  0  0
 33 34  2  0  0  0  0
M  END
>  <MODEL>
9

>  <REMARK>
 VINA RESULT:      -6.7      3.626      5.215
  Name = 
  5 active torsions:
  status: ('A' for Active; 'I' for Inactive)
    1  A    between atoms: C_1  and  C_9
    2  A    between atoms: C_3  and  C_25
    3  A    between atoms: C_7  and  C_11
    4  A    between atoms: C_8  and  C_9
    5  A    between atoms: C_11  and  N_15
                            x       y       z     vdW  Elec       q    Type
                         _______ _______ _______ _____ _____    ______ ____

>  <TORSDO>
F 5

$$$$
