=
 OpenBabel10272401533D

 28 32  0  0  1  0  0  0  0  0999 V2000
  189.4270  176.4240  142.8410 C   0  0  1  0  0  3  0  0  0  0  0  0
  185.0420  178.3510  142.7230 C   0  0  0  0  0  3  0  0  0  0  0  0
  189.4270  177.8810  147.0680 O   0  0  0  0  0  1  0  0  0  0  0  0
  184.7460  178.4830  145.1310 C   0  0  0  0  0  0  0  0  0  0  0  0
  187.0290  177.8560  144.1980 C   0  0  1  0  0  3  0  0  0  0  0  0
  182.8740  178.8940  143.6460 C   0  0  0  0  0  0  0  0  0  0  0  0
  185.5910  178.2870  144.0130 C   0  0  0  0  0  0  0  0  0  0  0  0
  186.5730  177.6440  146.6390 C   0  0  0  0  0  2  0  0  0  0  0  0
  183.3980  178.8040  144.9360 C   0  0  0  0  0  3  0  0  0  0  0  0
  189.9190  178.0900  144.7290 C   0  0  1  0  0  3  0  0  0  0  0  0
  187.9650  178.4760  143.1590 C   0  0  0  0  0  2  0  0  0  0  0  0
  185.2730  178.4370  146.5380 C   0  0  0  0  0  2  0  0  0  0  0  0
  191.7620  176.5480  143.7960 C   0  0  0  0  0  2  0  0  0  0  0  0
  188.9480  177.5580  145.7950 C   0  0  2  0  0  3  0  0  0  0  0  0
  191.3210  177.4850  144.9230 C   0  0  0  0  0  2  0  0  0  0  0  0
  181.1850  179.2910  143.4140 Cl  0  0  0  0  0  0  0  0  0  0  0  0
  183.6930  178.6610  142.5390 C   0  0  0  0  0  3  0  0  0  0  0  0
  187.5580  178.1690  145.6030 C   0  0  1  0  0  3  0  0  0  0  0  0
  190.6210  175.6270  143.3810 C   0  0  0  0  0  2  0  0  0  0  0  0
  189.3740  177.8970  143.2960 C   0  0  2  0  0  3  0  0  0  0  0  0
  189.1530  176.2220  141.3320 C   0  0  0  0  0  2  0  0  0  0  0  0
  189.5680  177.3010  140.4190 N   0  0  0  0  0  0  0  0  0  0  0  0
  189.0380  178.1510  138.2500 C   0  0  0  0  0  0  0  0  0  0  0  0
  188.4560  177.7100  139.5740 C   0  0  0  0  0  2  0  0  0  0  0  0
  190.6540  176.9000  139.5310 C   0  0  0  0  0  2  0  0  0  0  0  0
  190.4360  177.5840  138.1960 C   0  0  0  0  0  2  0  0  0  0  0  0
  188.2720  177.6530  137.1960 O   0  0  0  0  0  1  0  0  0  0  0  0
  189.0850  179.5430  138.1870 O   0  0  0  0  0  1  0  0  0  0  0  0
  1 21  1  6  0  0  0
  1 20  1  0  0  0  0
  1 19  1  0  0  0  0
  2  7  1  0  0  0  0
  4 12  1  0  0  0  0
  5 11  1  6  0  0  0
  5 18  1  0  0  0  0
  6  9  2  0  0  0  0
  7  5  1  0  0  0  0
  7  4  2  0  0  0  0
  9  4  1  0  0  0  0
 10 15  1  6  0  0  0
 10 14  1  0  0  0  0
 12  8  1  0  0  0  0
 13 15  1  0  0  0  0
 14  3  1  1  0  0  0
 16  6  1  0  0  0  0
 17  2  2  0  0  0  0
 17  6  1  0  0  0  0
 18 14  1  0  0  0  0
 18  8  1  1  0  0  0
 19 13  1  0  0  0  0
 20 11  1  1  0  0  0
 20 10  1  0  0  0  0
 22 21  1  0  0  0  0
 23 24  1  0  0  0  0
 24 22  1  0  0  0  0
 25 22  1  0  0  0  0
 26 23  1  0  0  0  0
 26 25  1  0  0  0  0
 27 23  1  0  0  0  0
 28 23  1  0  0  0  0
M  END
>  <MODEL>
1

>  <REMARK>
 VINA RESULT:     -10.5      0.000      0.000
  Name = 
  2 active torsions:
  status: ('A' for Active; 'I' for Inactive)
    1  A    between atoms: C_1  and  C_2
    2  A    between atoms: C_2  and  N_3
                            x       y       z     vdW  Elec       q    Type
                         _______ _______ _______ _____ _____    ______ ____

>  <TORSDO>
F 2

$$$$
=
 OpenBabel10272401533D

 28 32  0  0  1  0  0  0  0  0999 V2000
  185.9280  178.3830  144.2520 C   0  0  1  0  0  3  0  0  0  0  0  0
  189.1260  177.0010  140.9640 C   0  0  0  0  0  3  0  0  0  0  0  0
  189.4320  178.2260  147.0250 O   0  0  0  0  0  1  0  0  0  0  0  0
  191.1010  177.6080  142.2440 C   0  0  0  0  0  0  0  0  0  0  0  0
  188.8220  177.6810  143.3760 C   0  0  1  0  0  3  0  0  0  0  0  0
  191.3020  176.9920  139.9070 C   0  0  0  0  0  0  0  0  0  0  0  0
  189.7060  177.3750  142.1870 C   0  0  0  0  0  0  0  0  0  0  0  0
  190.8190  178.6410  144.5170 C   0  0  0  0  0  2  0  0  0  0  0  0
  191.8890  177.3940  141.1080 C   0  0  0  0  0  3  0  0  0  0  0  0
  187.4870  177.2940  145.9750 C   0  0  1  0  0  3  0  0  0  0  0  0
  187.6690  176.6870  143.5190 C   0  0  0  0  0  2  0  0  0  0  0  0
  191.7840  178.0020  143.5240 C   0  0  0  0  0  2  0  0  0  0  0  0
  185.2120  178.2860  146.6730 C   0  0  0  0  0  2  0  0  0  0  0  0
  188.7080  178.2170  145.8300 C   0  0  2  0  0  3  0  0  0  0  0  0
  186.5810  177.7710  147.1250 C   0  0  0  0  0  2  0  0  0  0  0  0
  192.2970  176.7330  138.4910 Cl  0  0  0  0  0  0  0  0  0  0  0  0
  189.9200  176.8010  139.8330 C   0  0  0  0  0  3  0  0  0  0  0  0
  189.6090  177.7320  144.6910 C   0  0  1  0  0  3  0  0  0  0  0  0
  185.3460  179.1660  145.4370 C   0  0  0  0  0  2  0  0  0  0  0  0
  186.7250  177.1210  144.6410 C   0  0  2  0  0  3  0  0  0  0  0  0
  184.9410  178.1670  143.0820 C   0  0  0  0  0  2  0  0  0  0  0  0
  185.1210  179.0030  141.8820 N   0  0  0  0  0  0  0  0  0  0  0  0
  184.4720  179.0470  139.5830 C   0  0  0  0  0  0  0  0  0  0  0  0
  183.9690  178.8840  140.9990 C   0  0  0  0  0  2  0  0  0  0  0  0
  186.2960  178.6270  141.1040 C   0  0  0  0  0  2  0  0  0  0  0  0
  185.9650  178.8280  139.6390 C   0  0  0  0  0  2  0  0  0  0  0  0
  183.8750  178.1050  138.7470 O   0  0  0  0  0  1  0  0  0  0  0  0
  184.1960  180.3340  139.1220 O   0  0  0  0  0  1  0  0  0  0  0  0
  1 21  1  6  0  0  0
  1 20  1  0  0  0  0
  1 19  1  0  0  0  0
  2  7  1  0  0  0  0
  4 12  1  0  0  0  0
  5 11  1  1  0  0  0
  5 18  1  0  0  0  0
  6  9  2  0  0  0  0
  7  4  2  0  0  0  0
  7  5  1  0  0  0  0
  9  4  1  0  0  0  0
 10 15  1  1  0  0  0
 12  8  1  0  0  0  0
 13 15  1  0  0  0  0
 14 10  1  0  0  0  0
 14  3  1  1  0  0  0
 16  6  1  0  0  0  0
 17  6  1  0  0  0  0
 17  2  2  0  0  0  0
 18  8  1  6  0  0  0
 18 14  1  0  0  0  0
 19 13  1  0  0  0  0
 20 11  1  6  0  0  0
 20 10  1  0  0  0  0
 22 21  1  0  0  0  0
 23 26  1  0  0  0  0
 23 24  1  0  0  0  0
 24 22  1  0  0  0  0
 25 22  1  0  0  0  0
 26 25  1  0  0  0  0
 27 23  1  0  0  0  0
 28 23  1  0  0  0  0
M  END
>  <MODEL>
2

>  <REMARK>
 VINA RESULT:     -10.5      3.116      5.717
  Name = 
  2 active torsions:
  status: ('A' for Active; 'I' for Inactive)
    1  A    between atoms: C_1  and  C_2
    2  A    between atoms: C_2  and  N_3
                            x       y       z     vdW  Elec       q    Type
                         _______ _______ _______ _____ _____    ______ ____

>  <TORSDO>
F 2

$$$$
=
 OpenBabel10272401533D

 28 32  0  0  1  0  0  0  0  0999 V2000
  187.0600  178.5170  142.2140 C   0  0  1  0  0  3  0  0  0  0  0  0
  190.2640  176.6350  145.2360 C   0  0  0  0  0  3  0  0  0  0  0  0
  184.5540  178.9350  145.8930 O   0  0  0  0  0  1  0  0  0  0  0  0
  189.2540  177.5030  147.2680 C   0  0  0  0  0  0  0  0  0  0  0  0
  187.9970  177.7300  145.0670 C   0  0  1  0  0  3  0  0  0  0  0  0
  191.4520  176.4820  147.3370 C   0  0  0  0  0  0  0  0  0  0  0  0
  189.1720  177.2350  145.8810 C   0  0  0  0  0  0  0  0  0  0  0  0
  187.1870  178.9220  147.1000 C   0  0  0  0  0  2  0  0  0  0  0  0
  190.3860  177.1060  147.9880 C   0  0  0  0  0  3  0  0  0  0  0  0
  185.2840  177.7880  143.9170 C   0  0  1  0  0  3  0  0  0  0  0  0
  187.5990  176.7540  143.9600 C   0  0  0  0  0  2  0  0  0  0  0  0
  188.1160  178.1360  148.0200 C   0  0  0  0  0  2  0  0  0  0  0  0
  184.6160  178.8410  141.6600 C   0  0  0  0  0  2  0  0  0  0  0  0
  185.6760  178.6960  145.0940 C   0  0  2  0  0  3  0  0  0  0  0  0
  184.1770  178.4450  143.0720 C   0  0  0  0  0  2  0  0  0  0  0  0
  192.8660  175.9940  148.2460 Cl  0  0  0  0  0  0  0  0  0  0  0  0
  191.3950  176.2520  145.9610 C   0  0  0  0  0  3  0  0  0  0  0  0
  186.7700  178.0340  145.9350 C   0  0  1  0  0  3  0  0  0  0  0  0
  185.9950  179.4880  141.6840 C   0  0  0  0  0  2  0  0  0  0  0  0
  186.5090  177.3630  143.0760 C   0  0  2  0  0  3  0  0  0  0  0  0
  188.1010  178.0740  141.1600 C   0  0  0  0  0  2  0  0  0  0  0  0
  188.0180  178.6900  139.8250 N   0  0  0  0  0  0  0  0  0  0  0  0
  187.5940  178.0670  137.5580 C   0  0  0  0  0  0  0  0  0  0  0  0
  187.0910  177.9520  138.9790 C   0  0  0  0  0  2  0  0  0  0  0  0
  189.3020  178.7130  139.1340 C   0  0  0  0  0  2  0  0  0  0  0  0
  189.0360  178.5040  137.6570 C   0  0  0  0  0  2  0  0  0  0  0  0
  187.5050  176.8340  136.9130 O   0  0  0  0  0  1  0  0  0  0  0  0
  186.8530  179.0220  136.8630 O   0  0  0  0  0  1  0  0  0  0  0  0
  1 21  1  6  0  0  0
  1 20  1  0  0  0  0
  2  7  2  0  0  0  0
  2 17  1  0  0  0  0
  4  9  2  0  0  0  0
  4 12  1  0  0  0  0
  5 11  1  6  0  0  0
  5  7  1  0  0  0  0
  5 18  1  0  0  0  0
  6  9  1  0  0  0  0
  6 16  1  0  0  0  0
  7  4  1  0  0  0  0
  8 12  1  0  0  0  0
 10 15  1  6  0  0  0
 10 14  1  0  0  0  0
 13 19  1  0  0  0  0
 13 15  1  0  0  0  0
 14  3  1  1  0  0  0
 14 18  1  0  0  0  0
 17  6  2  0  0  0  0
 18  8  1  1  0  0  0
 19  1  1  0  0  0  0
 20 10  1  0  0  0  0
 20 11  1  1  0  0  0
 22 21  1  0  0  0  0
 23 26  1  0  0  0  0
 23 24  1  0  0  0  0
 24 22  1  0  0  0  0
 25 22  1  0  0  0  0
 26 25  1  0  0  0  0
 27 23  1  0  0  0  0
 28 23  1  0  0  0  0
M  END
>  <MODEL>
3

>  <REMARK>
 VINA RESULT:     -10.4      3.074      5.231
  Name = 
  2 active torsions:
  status: ('A' for Active; 'I' for Inactive)
    1  A    between atoms: C_1  and  C_2
    2  A    between atoms: C_2  and  N_3
                            x       y       z     vdW  Elec       q    Type
                         _______ _______ _______ _____ _____    ______ ____

>  <TORSDO>
F 2

$$$$
=
 OpenBabel10272401533D

 28 32  0  0  1  0  0  0  0  0999 V2000
  186.8820  178.3250  142.6600 C   0  0  1  0  0  3  0  0  0  0  0  0
  190.2530  176.4200  145.4800 C   0  0  0  0  0  3  0  0  0  0  0  0
  184.8030  179.1630  146.5280 O   0  0  0  0  0  1  0  0  0  0  0  0
  189.5170  177.4900  147.5330 C   0  0  0  0  0  0  0  0  0  0  0  0
  188.0570  177.6620  145.4560 C   0  0  1  0  0  3  0  0  0  0  0  0
  191.6390  176.3200  147.4600 C   0  0  0  0  0  0  0  0  0  0  0  0
  189.2740  177.1380  146.1840 C   0  0  0  0  0  0  0  0  0  0  0  0
  187.5400  179.0400  147.4670 C   0  0  0  0  0  2  0  0  0  0  0  0
  190.6890  177.0600  148.1650 C   0  0  0  0  0  3  0  0  0  0  0  0
  185.2490  177.8390  144.5780 C   0  0  1  0  0  3  0  0  0  0  0  0
  187.4840  176.6460  144.4670 C   0  0  0  0  0  2  0  0  0  0  0  0
  188.5060  178.2510  148.3460 C   0  0  0  0  0  2  0  0  0  0  0  0
  184.4210  178.7870  142.3280 C   0  0  0  0  0  2  0  0  0  0  0  0
  185.8180  178.7920  145.6420 C   0  0  2  0  0  3  0  0  0  0  0  0
  184.1050  178.5170  143.8010 C   0  0  0  0  0  2  0  0  0  0  0  0
  193.1050  175.7920  148.2580 Cl  0  0  0  0  0  0  0  0  0  0  0  0
  191.4250  176.0050  146.1160 C   0  0  0  0  0  3  0  0  0  0  0  0
  186.9480  178.1090  146.4170 C   0  0  1  0  0  3  0  0  0  0  0  0
  185.8340  179.3330  142.1690 C   0  0  0  0  0  2  0  0  0  0  0  0
  186.3500  177.2720  143.6540 C   0  0  2  0  0  3  0  0  0  0  0  0
  187.7780  177.7400  141.5440 C   0  0  0  0  0  2  0  0  0  0  0  0
  189.1850  178.1760  141.5070 N   0  0  0  0  0  0  0  0  0  0  0  0
  191.3660  177.3270  141.9900 C   0  0  0  0  0  0  0  0  0  0  0  0
  190.0660  177.0410  141.2730 C   0  0  0  0  0  2  0  0  0  0  0  0
  189.6140  178.8010  142.7530 C   0  0  0  0  0  2  0  0  0  0  0  0
  191.0640  178.4240  142.9830 C   0  0  0  0  0  2  0  0  0  0  0  0
  191.8140  176.1840  142.6510 O   0  0  0  0  0  1  0  0  0  0  0  0
  192.3300  177.7600  141.0800 O   0  0  0  0  0  1  0  0  0  0  0  0
  1 21  1  6  0  0  0
  1 20  1  0  0  0  0
  2 17  2  0  0  0  0
  2  7  1  0  0  0  0
  4  9  1  0  0  0  0
  4 12  1  0  0  0  0
  5 11  1  6  0  0  0
  5  7  1  0  0  0  0
  5 18  1  0  0  0  0
  6  9  2  0  0  0  0
  6 16  1  0  0  0  0
  7  4  2  0  0  0  0
  8 12  1  0  0  0  0
 10 15  1  6  0  0  0
 10 14  1  0  0  0  0
 13 15  1  0  0  0  0
 14 18  1  0  0  0  0
 14  3  1  1  0  0  0
 17  6  1  0  0  0  0
 18  8  1  1  0  0  0
 19 13  1  0  0  0  0
 19  1  1  0  0  0  0
 20 11  1  1  0  0  0
 20 10  1  0  0  0  0
 22 21  1  0  0  0  0
 22 25  1  0  0  0  0
 23 27  1  0  0  0  0
 23 26  1  0  0  0  0
 24 22  1  0  0  0  0
 24 23  1  0  0  0  0
 25 26  1  0  0  0  0
 28 23  1  0  0  0  0
M  END
>  <MODEL>
4

>  <REMARK>
 VINA RESULT:      -9.5      3.374      5.682
  Name = 
  2 active torsions:
  status: ('A' for Active; 'I' for Inactive)
    1  A    between atoms: C_1  and  C_2
    2  A    between atoms: C_2  and  N_3
                            x       y       z     vdW  Elec       q    Type
                         _______ _______ _______ _____ _____    ______ ____

>  <TORSDO>
F 2

$$$$
=
 OpenBabel10272401533D

 28 32  0  0  1  0  0  0  0  0999 V2000
  186.6180  177.3870  144.0140 C   0  0  1  0  0  3  0  0  0  0  0  0
  184.6560  178.2340  139.7270 C   0  0  0  0  0  3  0  0  0  0  0  0
  182.8710  179.2720  145.5630 O   0  0  0  0  0  1  0  0  0  0  0  0
  182.3890  178.5660  140.5340 C   0  0  0  0  0  0  0  0  0  0  0  0
  184.2860  178.3760  142.2190 C   0  0  1  0  0  3  0  0  0  0  0  0
  182.8220  178.3680  138.1560 C   0  0  0  0  0  0  0  0  0  0  0  0
  183.7740  178.4440  140.7980 C   0  0  0  0  0  0  0  0  0  0  0  0
  181.9170  178.3420  142.9920 C   0  0  0  0  0  2  0  0  0  0  0  0
  181.9280  178.5460  139.2130 C   0  0  0  0  0  3  0  0  0  0  0  0
  185.1660  179.3230  144.8680 C   0  0  1  0  0  3  0  0  0  0  0  0
  185.6370  179.0720  142.3880 C   0  0  0  0  0  2  0  0  0  0  0  0
  181.3920  178.8000  141.6350 C   0  0  0  0  0  2  0  0  0  0  0  0
  186.8650  178.1480  146.4110 C   0  0  0  0  0  2  0  0  0  0  0  0
  183.7740  178.7060  144.6580 C   0  0  2  0  0  3  0  0  0  0  0  0
  185.6560  179.0800  146.3080 C   0  0  0  0  0  2  0  0  0  0  0  0
  182.2340  178.3400  136.5080 Cl  0  0  0  0  0  0  0  0  0  0  0  0
  184.1850  178.2060  138.4130 C   0  0  0  0  0  3  0  0  0  0  0  0
  183.2890  178.9590  143.2280 C   0  0  1  0  0  3  0  0  0  0  0  0
  186.7050  176.9500  145.4830 C   0  0  0  0  0  2  0  0  0  0  0  0
  186.1800  178.8500  143.8010 C   0  0  2  0  0  3  0  0  0  0  0  0
  187.8240  176.9590  143.1470 C   0  0  0  0  0  2  0  0  0  0  0  0
  189.0850  176.6510  143.8460 N   0  0  0  0  0  0  0  0  0  0  0  0
  191.2360  177.6190  144.2260 C   0  0  0  0  0  0  0  0  0  0  0  0
  189.7470  177.8770  144.2680 C   0  0  0  0  0  2  0  0  0  0  0  0
  190.0300  175.9220  143.0070 C   0  0  0  0  0  2  0  0  0  0  0  0
  191.4250  176.3910  143.3680 C   0  0  0  0  0  2  0  0  0  0  0  0
  191.8990  178.7090  143.6640 O   0  0  0  0  0  1  0  0  0  0  0  0
  191.7170  177.3810  145.5130 O   0  0  0  0  0  1  0  0  0  0  0  0
  1 21  1  1  0  0  0
  1 19  1  0  0  0  0
  2  7  1  0  0  0  0
  4  7  2  0  0  0  0
  4 12  1  0  0  0  0
  5 11  1  6  0  0  0
  5 18  1  0  0  0  0
  6 17  1  0  0  0  0
  6  9  2  0  0  0  0
  7  5  1  0  0  0  0
  9  4  1  0  0  0  0
 10 15  1  1  0  0  0
 12  8  1  0  0  0  0
 14 10  1  0  0  0  0
 14  3  1  1  0  0  0
 15 13  1  0  0  0  0
 16  6  1  0  0  0  0
 17  2  2  0  0  0  0
 18  8  1  1  0  0  0
 18 14  1  0  0  0  0
 19 13  1  0  0  0  0
 20 11  1  6  0  0  0
 20  1  1  0  0  0  0
 20 10  1  0  0  0  0
 21 22  1  0  0  0  0
 22 24  1  0  0  0  0
 23 24  1  0  0  0  0
 23 28  1  0  0  0  0
 25 26  1  0  0  0  0
 25 22  1  0  0  0  0
 26 23  1  0  0  0  0
 27 23  1  0  0  0  0
M  END
>  <MODEL>
5

>  <REMARK>
 VINA RESULT:      -8.9      3.036      5.208
  Name = 
  2 active torsions:
  status: ('A' for Active; 'I' for Inactive)
    1  A    between atoms: C_1  and  C_2
    2  A    between atoms: C_2  and  N_3
                            x       y       z     vdW  Elec       q    Type
                         _______ _______ _______ _____ _____    ______ ____

>  <TORSDO>
F 2

$$$$
=
 OpenBabel10272401533D

 28 32  0  0  1  0  0  0  0  0999 V2000
  189.3330  176.8360  138.9000 C   0  0  1  0  0  3  0  0  0  0  0  0
  185.8680  178.5790  141.7110 C   0  0  0  0  0  3  0  0  0  0  0  0
  191.6350  176.5690  142.7230 O   0  0  0  0  0  1  0  0  0  0  0  0
  186.7990  177.7760  143.8070 C   0  0  0  0  0  0  0  0  0  0  0  0
  188.1920  177.5960  141.6850 C   0  0  1  0  0  3  0  0  0  0  0  0
  184.5530  178.6880  143.7380 C   0  0  0  0  0  0  0  0  0  0  0  0
  186.9490  178.0390  142.4240 C   0  0  0  0  0  0  0  0  0  0  0  0
  188.9390  176.4600  143.7740 C   0  0  0  0  0  2  0  0  0  0  0  0
  185.6080  178.1220  144.4550 C   0  0  0  0  0  3  0  0  0  0  0  0
  190.9680  177.6640  140.6960 C   0  0  1  0  0  3  0  0  0  0  0  0
  188.6060  178.5830  140.5930 C   0  0  0  0  0  2  0  0  0  0  0  0
  187.9210  177.2060  144.6300 C   0  0  0  0  0  2  0  0  0  0  0  0
  191.8180  176.6290  138.4930 C   0  0  0  0  0  2  0  0  0  0  0  0
  190.5530  176.7460  141.8570 C   0  0  2  0  0  3  0  0  0  0  0  0
  192.1530  177.0570  139.9230 C   0  0  0  0  0  2  0  0  0  0  0  0
  183.0660  179.1120  144.5580 Cl  0  0  0  0  0  0  0  0  0  0  0  0
  184.6800  178.9110  142.3650 C   0  0  0  0  0  3  0  0  0  0  0  0
  189.3800  177.3590  142.6270 C   0  0  1  0  0  3  0  0  0  0  0  0
  190.4730  175.9150  138.4430 C   0  0  0  0  0  2  0  0  0  0  0  0
  189.7750  178.0230  139.7810 C   0  0  2  0  0  3  0  0  0  0  0  0
  188.3350  177.2200  137.7830 C   0  0  0  0  0  2  0  0  0  0  0  0
  186.9190  176.8710  137.9920 N   0  0  0  0  0  0  0  0  0  0  0  0
  184.9840  176.2830  136.7190 C   0  0  0  0  0  0  0  0  0  0  0  0
  186.4500  175.9840  136.9360 C   0  0  0  0  0  2  0  0  0  0  0  0
  186.0440  178.0390  137.9890 C   0  0  0  0  0  2  0  0  0  0  0  0
  184.7320  177.6320  137.3490 C   0  0  0  0  0  2  0  0  0  0  0  0
  184.6970  176.3230  135.3550 O   0  0  0  0  0  1  0  0  0  0  0  0
  184.2000  175.3120  137.3410 O   0  0  0  0  0  1  0  0  0  0  0  0
  1 21  1  6  0  0  0
  1 20  1  0  0  0  0
  2 17  2  0  0  0  0
  2  7  1  0  0  0  0
  4  9  1  0  0  0  0
  4 12  1  0  0  0  0
  5 11  1  6  0  0  0
  5  7  1  0  0  0  0
  5 18  1  0  0  0  0
  6  9  2  0  0  0  0
  6 16  1  0  0  0  0
  7  4  2  0  0  0  0
  8 12  1  0  0  0  0
 10 15  1  6  0  0  0
 10 14  1  0  0  0  0
 13 15  1  0  0  0  0
 14 18  1  0  0  0  0
 14  3  1  1  0  0  0
 17  6  1  0  0  0  0
 18  8  1  1  0  0  0
 19 13  1  0  0  0  0
 19  1  1  0  0  0  0
 20 11  1  1  0  0  0
 20 10  1  0  0  0  0
 21 22  1  0  0  0  0
 23 24  1  0  0  0  0
 23 28  1  0  0  0  0
 23 26  1  0  0  0  0
 24 22  1  0  0  0  0
 25 22  1  0  0  0  0
 26 25  1  0  0  0  0
 27 23  1  0  0  0  0
M  END
>  <MODEL>
6

>  <REMARK>
 VINA RESULT:      -8.8      2.513      3.931
  Name = 
  2 active torsions:
  status: ('A' for Active; 'I' for Inactive)
    1  A    between atoms: C_1  and  C_2
    2  A    between atoms: C_2  and  N_3
                            x       y       z     vdW  Elec       q    Type
                         _______ _______ _______ _____ _____    ______ ____

>  <TORSDO>
F 2

$$$$
=
 OpenBabel10272401533D

 28 32  0  0  1  0  0  0  0  0999 V2000
  183.6320  179.3610  139.5860 C   0  0  1  0  0  3  0  0  0  0  0  0
  186.7180  177.7920  142.8970 C   0  0  0  0  0  3  0  0  0  0  0  0
  180.7000  179.2420  142.9580 O   0  0  0  0  0  1  0  0  0  0  0  0
  185.3740  178.4080  144.8250 C   0  0  0  0  0  0  0  0  0  0  0  0
  184.3500  178.5690  142.5000 C   0  0  1  0  0  3  0  0  0  0  0  0
  187.6740  177.6990  145.1160 C   0  0  0  0  0  0  0  0  0  0  0  0
  185.4860  178.2010  143.4290 C   0  0  0  0  0  0  0  0  0  0  0  0
  183.1560  179.5340  144.4640 C   0  0  0  0  0  2  0  0  0  0  0  0
  186.4640  178.1360  145.6580 C   0  0  0  0  0  3  0  0  0  0  0  0
  181.8010  178.3080  141.0440 C   0  0  1  0  0  3  0  0  0  0  0  0
  184.2220  177.6040  141.3220 C   0  0  0  0  0  2  0  0  0  0  0  0
  184.0800  178.8380  145.4590 C   0  0  0  0  0  2  0  0  0  0  0  0
  181.2440  179.3710  138.7610 C   0  0  0  0  0  2  0  0  0  0  0  0
  181.9260  179.2010  142.2890 C   0  0  2  0  0  3  0  0  0  0  0  0
  180.7120  178.8470  140.0970 C   0  0  0  0  0  2  0  0  0  0  0  0
  189.0340  177.3670  146.1670 Cl  0  0  0  0  0  0  0  0  0  0  0  0
  187.8040  177.5330  143.7350 C   0  0  0  0  0  3  0  0  0  0  0  0
  183.0030  178.6560  143.2290 C   0  0  1  0  0  3  0  0  0  0  0  0
  182.5050  180.2000  138.9690 C   0  0  0  0  0  2  0  0  0  0  0  0
  183.1610  178.1000  140.3380 C   0  0  2  0  0  3  0  0  0  0  0  0
  184.8370  179.1200  138.6470 C   0  0  0  0  0  2  0  0  0  0  0  0
  185.0480  177.7470  138.1560 N   0  0  0  0  0  0  0  0  0  0  0  0
  186.4310  176.5610  136.6100 C   0  0  0  0  0  0  0  0  0  0  0  0
  186.4320  177.5580  137.7460 C   0  0  0  0  0  2  0  0  0  0  0  0
  184.2140  177.4270  137.0030 C   0  0  0  0  0  2  0  0  0  0  0  0
  185.0130  176.5160  136.0930 C   0  0  0  0  0  2  0  0  0  0  0  0
  187.3010  176.9770  135.6030 O   0  0  0  0  0  1  0  0  0  0  0  0
  186.8100  175.3030  137.0760 O   0  0  0  0  0  1  0  0  0  0  0  0
  1 21  1  6  0  0  0
  1 20  1  0  0  0  0
  2  7  2  0  0  0  0
  2 17  1  0  0  0  0
  4 12  1  0  0  0  0
  4  9  2  0  0  0  0
  5 11  1  6  0  0  0
  5 18  1  0  0  0  0
  5  7  1  0  0  0  0
  6  9  1  0  0  0  0
  6 16  1  0  0  0  0
  7  4  1  0  0  0  0
  8 12  1  0  0  0  0
 10 15  1  6  0  0  0
 10 14  1  0  0  0  0
 13 19  1  0  0  0  0
 13 15  1  0  0  0  0
 14  3  1  1  0  0  0
 14 18  1  0  0  0  0
 17  6  2  0  0  0  0
 18  8  1  1  0  0  0
 19  1  1  0  0  0  0
 20 10  1  0  0  0  0
 20 11  1  1  0  0  0
 22 21  1  0  0  0  0
 23 28  1  0  0  0  0
 23 24  1  0  0  0  0
 24 22  1  0  0  0  0
 25 22  1  0  0  0  0
 26 23  1  0  0  0  0
 26 25  1  0  0  0  0
 27 23  1  0  0  0  0
M  END
>  <MODEL>
7

>  <REMARK>
 VINA RESULT:      -8.5      3.649      6.351
  Name = 
  2 active torsions:
  status: ('A' for Active; 'I' for Inactive)
    1  A    between atoms: C_1  and  C_2
    2  A    between atoms: C_2  and  N_3
                            x       y       z     vdW  Elec       q    Type
                         _______ _______ _______ _____ _____    ______ ____

>  <TORSDO>
F 2

$$$$
=
 OpenBabel10272401533D

 28 32  0  0  1  0  0  0  0  0999 V2000
  189.1670  177.2020  140.9300 C   0  0  1  0  0  3  0  0  0  0  0  0
  184.8140  178.6780  142.2810 C   0  0  0  0  0  3  0  0  0  0  0  0
  190.1250  177.6110  145.2780 O   0  0  0  0  0  1  0  0  0  0  0  0
  185.0980  178.2080  144.6480 C   0  0  0  0  0  0  0  0  0  0  0  0
  187.1130  178.0380  143.1030 C   0  0  1  0  0  3  0  0  0  0  0  0
  182.9110  178.7800  143.7700 C   0  0  0  0  0  0  0  0  0  0  0  0
  185.6580  178.3640  143.3570 C   0  0  0  0  0  0  0  0  0  0  0  0
  187.2610  177.2130  145.4500 C   0  0  0  0  0  2  0  0  0  0  0  0
  183.7320  178.4370  144.8460 C   0  0  0  0  0  3  0  0  0  0  0  0
  190.0350  178.4130  143.0200 C   0  0  1  0  0  3  0  0  0  0  0  0
  187.7500  178.9720  142.0730 C   0  0  0  0  0  2  0  0  0  0  0  0
  185.9470  177.8800  145.8440 C   0  0  0  0  0  2  0  0  0  0  0  0
  191.6570  177.3160  141.3420 C   0  0  0  0  0  2  0  0  0  0  0  0
  189.3670  177.5540  144.1050 C   0  0  2  0  0  3  0  0  0  0  0  0
  191.4650  177.9140  142.7370 C   0  0  0  0  0  2  0  0  0  0  0  0
  181.2020  179.0590  144.0280 Cl  0  0  0  0  0  0  0  0  0  0  0  0
  183.4500  178.8940  142.4870 C   0  0  0  0  0  3  0  0  0  0  0  0
  187.9500  178.0590  144.3870 C   0  0  1  0  0  3  0  0  0  0  0  0
  190.4840  176.4160  140.9730 C   0  0  0  0  0  2  0  0  0  0  0  0
  189.1710  178.5140  141.7420 C   0  0  2  0  0  3  0  0  0  0  0  0
  188.5480  177.3370  139.5200 C   0  0  0  0  0  2  0  0  0  0  0  0
  189.1610  176.5530  138.4340 N   0  0  0  0  0  0  0  0  0  0  0  0
  189.7020  176.7690  136.1160 C   0  0  0  0  0  0  0  0  0  0  0  0
  189.8080  177.4330  137.4710 C   0  0  0  0  0  2  0  0  0  0  0  0
  188.1870  175.7550  137.6970 C   0  0  0  0  0  2  0  0  0  0  0  0
  188.6190  175.7240  136.2450 C   0  0  0  0  0  2  0  0  0  0  0  0
  189.3570  177.7070  135.1450 O   0  0  0  0  0  1  0  0  0  0  0  0
  190.9130  176.1630  135.7840 O   0  0  0  0  0  1  0  0  0  0  0  0
  1 21  1  6  0  0  0
  1 19  1  0  0  0  0
  1 20  1  0  0  0  0
  2 17  2  0  0  0  0
  2  7  1  0  0  0  0
  4  9  1  0  0  0  0
  4 12  1  0  0  0  0
  5 11  1  6  0  0  0
  5  7  1  0  0  0  0
  5 18  1  0  0  0  0
  6 16  1  0  0  0  0
  6  9  2  0  0  0  0
  7  4  2  0  0  0  0
  8 12  1  0  0  0  0
 10 15  1  6  0  0  0
 10 14  1  0  0  0  0
 13 15  1  0  0  0  0
 14 18  1  0  0  0  0
 14  3  1  1  0  0  0
 17  6  1  0  0  0  0
 18  8  1  1  0  0  0
 19 13  1  0  0  0  0
 20 11  1  1  0  0  0
 20 10  1  0  0  0  0
 22 21  1  0  0  0  0
 23 26  1  0  0  0  0
 23 24  1  0  0  0  0
 24 22  1  0  0  0  0
 25 22  1  0  0  0  0
 26 25  1  0  0  0  0
 27 23  1  0  0  0  0
 28 23  1  0  0  0  0
M  END
>  <MODEL>
8

>  <REMARK>
 VINA RESULT:      -8.5      1.592      2.025
  Name = 
  2 active torsions:
  status: ('A' for Active; 'I' for Inactive)
    1  A    between atoms: C_1  and  C_2
    2  A    between atoms: C_2  and  N_3
                            x       y       z     vdW  Elec       q    Type
                         _______ _______ _______ _____ _____    ______ ____

>  <TORSDO>
F 2

$$$$
=
 OpenBabel10272401533D

 28 32  0  0  1  0  0  0  0  0999 V2000
  187.3880  177.5310  138.4770 C   0  0  1  0  0  3  0  0  0  0  0  0
  185.8760  178.5590  142.9050 C   0  0  0  0  0  3  0  0  0  0  0  0
  191.2240  176.5250  140.5410 O   0  0  0  0  0  1  0  0  0  0  0  0
  187.6370  177.3580  144.0720 C   0  0  0  0  0  0  0  0  0  0  0  0
  187.8070  177.6610  141.5510 C   0  0  1  0  0  3  0  0  0  0  0  0
  185.7220  178.2080  145.2930 C   0  0  0  0  0  0  0  0  0  0  0  0
  187.1190  177.9080  142.8750 C   0  0  0  0  0  0  0  0  0  0  0  0
  189.3770  176.1320  142.7370 C   0  0  0  0  0  2  0  0  0  0  0  0
  186.9430  177.5310  145.2740 C   0  0  0  0  0  3  0  0  0  0  0  0
  189.7500  178.0040  139.3610 C   0  0  1  0  0  3  0  0  0  0  0  0
  187.7190  178.8650  140.6120 C   0  0  0  0  0  2  0  0  0  0  0  0
  188.9660  176.6560  144.1090 C   0  0  0  0  0  2  0  0  0  0  0  0
  189.3370  177.4750  136.8710 C   0  0  0  0  0  2  0  0  0  0  0  0
  189.8760  176.8530  140.3730 C   0  0  2  0  0  3  0  0  0  0  0  0
  190.3580  177.6020  138.0050 C   0  0  0  0  0  2  0  0  0  0  0  0
  184.8590  178.4140  146.8020 Cl  0  0  0  0  0  0  0  0  0  0  0  0
  185.1850  178.7170  144.1080 C   0  0  0  0  0  3  0  0  0  0  0  0
  189.2780  177.2620  141.7210 C   0  0  1  0  0  3  0  0  0  0  0  0
  188.0830  176.7550  137.3510 C   0  0  0  0  0  2  0  0  0  0  0  0
  188.2970  178.5170  139.2400 C   0  0  2  0  0  3  0  0  0  0  0  0
  186.0080  178.1150  138.0940 C   0  0  0  0  0  2  0  0  0  0  0  0
  184.8990  177.9100  139.0420 N   0  0  0  0  0  0  0  0  0  0  0  0
  182.5180  177.7180  139.0410 C   0  0  0  0  0  0  0  0  0  0  0  0
  183.7910  177.2260  138.3920 C   0  0  0  0  0  2  0  0  0  0  0  0
  184.3740  179.1630  139.5740 C   0  0  0  0  0  2  0  0  0  0  0  0
  182.8800  178.9970  139.7580 C   0  0  0  0  0  2  0  0  0  0  0  0
  181.5460  177.9640  138.0710 O   0  0  0  0  0  1  0  0  0  0  0  0
  182.0490  176.7750  139.9540 O   0  0  0  0  0  1  0  0  0  0  0  0
  1 21  1  6  0  0  0
  1 20  1  0  0  0  0
  2 17  1  0  0  0  0
  4 12  1  0  0  0  0
  4  9  2  0  0  0  0
  5 11  1  6  0  0  0
  5 18  1  0  0  0  0
  5  7  1  0  0  0  0
  6 16  1  0  0  0  0
  7  2  2  0  0  0  0
  7  4  1  0  0  0  0
  8 12  1  0  0  0  0
  9  6  1  0  0  0  0
 10 15  1  6  0  0  0
 10 14  1  0  0  0  0
 13 19  1  0  0  0  0
 13 15  1  0  0  0  0
 14  3  1  1  0  0  0
 14 18  1  0  0  0  0
 17  6  2  0  0  0  0
 18  8  1  1  0  0  0
 19  1  1  0  0  0  0
 20 10  1  0  0  0  0
 20 11  1  1  0  0  0
 21 22  1  0  0  0  0
 22 25  1  0  0  0  0
 23 26  1  0  0  0  0
 23 28  1  0  0  0  0
 24 23  1  0  0  0  0
 24 22  1  0  0  0  0
 25 26  1  0  0  0  0
 27 23  1  0  0  0  0
M  END
>  <MODEL>
9

>  <REMARK>
 VINA RESULT:      -8.3      2.982      5.268
  Name = 
  2 active torsions:
  status: ('A' for Active; 'I' for Inactive)
    1  A    between atoms: C_1  and  C_2
    2  A    between atoms: C_2  and  N_3
                            x       y       z     vdW  Elec       q    Type
                         _______ _______ _______ _____ _____    ______ ____

>  <TORSDO>
F 2

$$$$
