=
 OpenBabel10272401063D

 27 30  0  0  1  0  0  0  0  0999 V2000
  187.6650  177.8990  142.9350 C   0  0  2  0  0  3  0  0  0  0  0  0
  186.1880  178.1470  142.7970 C   0  0  0  0  0  0  0  0  0  0  0  0
  185.7910  178.6750  145.2560 C   0  0  0  0  0  1  0  0  0  0  0  0
  181.7870  178.4780  141.1720 C   0  0  0  0  0  3  0  0  0  0  0  0
  181.1210  178.8120  142.3450 C   0  0  0  0  0  3  0  0  0  0  0  0
  185.4590  178.0180  141.6280 C   0  0  0  0  0  3  0  0  0  0  0  0
  182.9160  178.8970  144.1210 C   0  0  0  0  0  0  0  0  0  0  0  0
  183.0630  179.1390  145.4480 F   0  0  0  0  0  0  0  0  0  0  0  0
  184.0470  178.5790  143.3630 C   0  0  0  0  0  0  0  0  0  0  0  0
  181.6170  178.9950  143.6320 C   0  0  0  0  0  3  0  0  0  0  0  0
  184.1380  178.2820  141.9350 C   0  0  0  0  0  0  0  0  0  0  0  0
  185.3450  178.4760  143.8440 C   0  0  0  0  0  0  0  0  0  0  0  0
  183.1390  178.2380  140.9810 C   0  0  0  0  0  3  0  0  0  0  0  0
  189.6260  177.9240  139.0450 C   0  0  0  0  0  3  0  0  0  0  0  0
  188.4840  178.1350  141.6560 C   0  0  2  0  0  3  0  0  0  0  0  0
  187.6200  178.4690  140.4350 C   0  0  0  0  0  2  0  0  0  0  0  0
  188.4140  178.4880  139.1550 C   0  0  0  0  0  3  0  0  0  0  0  0
  190.3440  177.3150  140.2220 C   0  0  0  0  0  2  0  0  0  0  0  0
  189.3870  176.9430  141.3510 C   0  0  0  0  0  2  0  0  0  0  0  0
  188.0300  176.6710  143.7890 C   0  0  0  0  0  2  0  0  0  0  0  0
  191.6540  176.7170  146.5760 C   0  0  0  0  0  3  0  0  0  0  0  0
  190.4700  176.4530  147.4440 C   0  0  0  0  0  2  0  0  0  0  0  0
  189.1270  176.8960  144.7820 C   0  0  0  0  0  0  0  0  0  0  0  0
  191.5990  176.7080  145.2450 C   0  0  0  0  0  3  0  0  0  0  0  0
  189.3810  177.4470  147.2100 C   0  0  0  0  0  3  0  0  0  0  0  0
  188.7730  177.5990  146.0340 C   0  0  0  0  0  3  0  0  0  0  0  0
  190.3730  176.5350  144.4420 C   0  0  0  0  0  3  0  0  0  0  0  0
  1 20  1  6  0  0  0
  2  1  1  0  0  0  0
  2 12  1  0  0  0  0
  4  5  2  0  0  0  0
  5 10  1  0  0  0  0
  6 11  1  0  0  0  0
  6  2  2  0  0  0  0
  7  8  1  0  0  0  0
  9 12  2  0  0  0  0
  9  7  1  0  0  0  0
 10  7  2  0  0  0  0
 11  9  1  0  0  0  0
 12  3  1  0  0  0  0
 13  4  1  0  0  0  0
 13 11  2  0  0  0  0
 14 17  2  0  0  0  0
 14 18  1  0  0  0  0
 15  1  1  1  0  0  0
 16 15  1  0  0  0  0
 17 16  1  0  0  0  0
 18 19  1  0  0  0  0
 19 15  1  0  0  0  0
 20 23  1  0  0  0  0
 21 22  1  0  0  0  0
 23 26  1  0  0  0  0
 24 21  2  0  0  0  0
 25 22  1  0  0  0  0
 26 25  2  0  0  0  0
 27 23  2  0  0  0  0
 27 24  1  0  0  0  0
M  END
>  <MODEL>
1

>  <REMARK>
 VINA RESULT:     -10.4      0.000      0.000
  Name = 
  4 active torsions:
  status: ('A' for Active; 'I' for Inactive)
    1  A    between atoms: C_1  and  C_15
    2  A    between atoms: C_1  and  C_18
    3  A    between atoms: C_2  and  C_15
    4  A    between atoms: C_9  and  C_15
                            x       y       z     vdW  Elec       q    Type
                         _______ _______ _______ _____ _____    ______ ____

>  <TORSDO>
F 4

$$$$
=
 OpenBabel10272401063D

 27 30  0  0  1  0  0  0  0  0999 V2000
  188.4010  177.9170  142.3330 C   0  0  2  0  0  3  0  0  0  0  0  0
  188.3770  177.8910  140.8290 C   0  0  0  0  0  0  0  0  0  0  0  0
  185.9930  178.7540  140.6010 C   0  0  0  0  0  1  0  0  0  0  0  0
  189.4350  177.2100  136.2980 C   0  0  0  0  0  3  0  0  0  0  0  0
  188.2460  177.6220  135.7070 C   0  0  0  0  0  3  0  0  0  0  0  0
  189.4070  177.4480  140.0180 C   0  0  0  0  0  3  0  0  0  0  0  0
  186.7570  178.3030  137.6310 C   0  0  0  0  0  0  0  0  0  0  0  0
  185.5110  178.7860  137.8690 F   0  0  0  0  0  0  0  0  0  0  0  0
  187.6020  178.0520  138.7160 C   0  0  0  0  0  0  0  0  0  0  0  0
  187.0780  178.1000  136.2930 C   0  0  0  0  0  3  0  0  0  0  0  0
  188.9700  177.5370  138.7110 C   0  0  0  0  0  0  0  0  0  0  0  0
  187.2880  178.2490  140.0540 C   0  0  0  0  0  0  0  0  0  0  0  0
  189.7660  177.1690  137.6430 C   0  0  0  0  0  3  0  0  0  0  0  0
  191.9770  177.5880  144.7990 C   0  0  0  0  0  3  0  0  0  0  0  0
  189.7980  177.7870  142.9610 C   0  0  2  0  0  3  0  0  0  0  0  0
  189.9870  176.4900  143.7550 C   0  0  0  0  0  2  0  0  0  0  0  0
  191.2760  176.4750  144.5360 C   0  0  0  0  0  3  0  0  0  0  0  0
  191.5920  178.9360  144.2460 C   0  0  0  0  0  2  0  0  0  0  0  0
  190.1220  178.9930  143.8390 C   0  0  0  0  0  2  0  0  0  0  0  0
  187.2510  177.1450  143.0040 C   0  0  0  0  0  2  0  0  0  0  0  0
  185.4930  178.5850  146.9710 C   0  0  0  0  0  3  0  0  0  0  0  0
  184.3390  178.4480  146.0350 C   0  0  0  0  0  2  0  0  0  0  0  0
  186.6390  177.8260  144.1880 C   0  0  0  0  0  0  0  0  0  0  0  0
  186.7180  178.1460  146.6890 C   0  0  0  0  0  3  0  0  0  0  0  0
  184.5900  179.1510  144.7430 C   0  0  0  0  0  3  0  0  0  0  0  0
  185.5900  178.8340  143.9220 C   0  0  0  0  0  3  0  0  0  0  0  0
  187.1380  177.5550  145.4030 C   0  0  0  0  0  3  0  0  0  0  0  0
  1 20  1  1  0  0  0
  2  1  1  0  0  0  0
  4 13  1  0  0  0  0
  5 10  1  0  0  0  0
  5  4  2  0  0  0  0
  6  2  2  0  0  0  0
  7  8  1  0  0  0  0
  7  9  1  0  0  0  0
  9 12  2  0  0  0  0
 10  7  2  0  0  0  0
 11  9  1  0  0  0  0
 11  6  1  0  0  0  0
 12  3  1  0  0  0  0
 12  2  1  0  0  0  0
 13 11  2  0  0  0  0
 15  1  1  1  0  0  0
 15 16  1  0  0  0  0
 15 19  1  0  0  0  0
 16 17  1  0  0  0  0
 17 14  2  0  0  0  0
 18 14  1  0  0  0  0
 19 18  1  0  0  0  0
 20 23  1  0  0  0  0
 22 21  1  0  0  0  0
 23 27  2  0  0  0  0
 24 21  2  0  0  0  0
 25 22  1  0  0  0  0
 26 23  1  0  0  0  0
 26 25  2  0  0  0  0
 27 24  1  0  0  0  0
M  END
>  <MODEL>
2

>  <REMARK>
 VINA RESULT:     -10.2      2.513      5.762
  Name = 
  4 active torsions:
  status: ('A' for Active; 'I' for Inactive)
    1  A    between atoms: C_1  and  C_15
    2  A    between atoms: C_1  and  C_18
    3  A    between atoms: C_2  and  C_15
    4  A    between atoms: C_9  and  C_15
                            x       y       z     vdW  Elec       q    Type
                         _______ _______ _______ _____ _____    ______ ____

>  <TORSDO>
F 4

$$$$
=
 OpenBabel10272401063D

 27 30  0  0  1  0  0  0  0  0999 V2000
  187.2790  177.8340  144.3800 C   0  0  2  0  0  3  0  0  0  0  0  0
  186.0050  178.1240  143.6350 C   0  0  0  0  0  0  0  0  0  0  0  0
  184.6100  178.6230  145.7050 C   0  0  0  0  0  1  0  0  0  0  0  0
  182.7200  178.6000  140.3040 C   0  0  0  0  0  3  0  0  0  0  0  0
  181.6240  178.9330  141.0910 C   0  0  0  0  0  3  0  0  0  0  0  0
  185.8400  178.0340  142.2640 C   0  0  0  0  0  3  0  0  0  0  0  0
  182.4950  178.9410  143.4630 C   0  0  0  0  0  0  0  0  0  0  0  0
  182.0680  179.1580  144.7320 F   0  0  0  0  0  0  0  0  0  0  0  0
  183.8350  178.6050  143.2490 C   0  0  0  0  0  0  0  0  0  0  0  0
  181.5290  179.0820  142.4710 C   0  0  0  0  0  3  0  0  0  0  0  0
  184.5190  178.3280  141.9870 C   0  0  0  0  0  0  0  0  0  0  0  0
  184.8030  178.4590  144.2330 C   0  0  0  0  0  0  0  0  0  0  0  0
  184.0200  178.3270  140.6990 C   0  0  0  0  0  3  0  0  0  0  0  0
  191.1390  177.0810  142.5070 C   0  0  0  0  0  3  0  0  0  0  0  0
  188.5290  177.6900  143.4980 C   0  0  2  0  0  3  0  0  0  0  0  0
  188.8870  176.2330  143.1860 C   0  0  0  0  0  2  0  0  0  0  0  0
  190.2240  176.1010  142.5030 C   0  0  0  0  0  3  0  0  0  0  0  0
  190.8690  178.4390  143.1040 C   0  0  0  0  0  2  0  0  0  0  0  0
  189.7260  178.4040  144.1160 C   0  0  0  0  0  2  0  0  0  0  0  0
  187.1240  176.8440  145.5490 C   0  0  0  0  0  2  0  0  0  0  0  0
  189.5050  178.3990  149.1290 C   0  0  0  0  0  3  0  0  0  0  0  0
  190.4980  178.1790  148.0380 C   0  0  0  0  0  2  0  0  0  0  0  0
  187.9910  177.1270  146.7350 C   0  0  0  0  0  0  0  0  0  0  0  0
  188.1880  178.3370  148.9400 C   0  0  0  0  0  3  0  0  0  0  0  0
  190.3720  176.8170  147.4430 C   0  0  0  0  0  3  0  0  0  0  0  0
  189.2660  176.3850  146.8360 C   0  0  0  0  0  3  0  0  0  0  0  0
  187.5230  177.9600  147.6780 C   0  0  0  0  0  3  0  0  0  0  0  0
  1 20  1  6  0  0  0
  2 12  1  0  0  0  0
  2  1  1  0  0  0  0
  4 13  1  0  0  0  0
  4  5  2  0  0  0  0
  5 10  1  0  0  0  0
  6  2  2  0  0  0  0
  7  8  1  0  0  0  0
  9  7  1  0  0  0  0
  9 12  2  0  0  0  0
 10  7  2  0  0  0  0
 11  6  1  0  0  0  0
 11  9  1  0  0  0  0
 12  3  1  0  0  0  0
 13 11  2  0  0  0  0
 14 18  1  0  0  0  0
 15 19  1  0  0  0  0
 15  1  1  1  0  0  0
 16 15  1  0  0  0  0
 17 14  2  0  0  0  0
 17 16  1  0  0  0  0
 18 19  1  0  0  0  0
 20 23  1  0  0  0  0
 22 21  1  0  0  0  0
 23 26  1  0  0  0  0
 23 27  2  0  0  0  0
 24 21  2  0  0  0  0
 25 22  1  0  0  0  0
 26 25  2  0  0  0  0
 27 24  1  0  0  0  0
M  END
>  <MODEL>
3

>  <REMARK>
 VINA RESULT:     -10.2      1.702      2.473
  Name = 
  4 active torsions:
  status: ('A' for Active; 'I' for Inactive)
    1  A    between atoms: C_1  and  C_15
    2  A    between atoms: C_1  and  C_18
    3  A    between atoms: C_2  and  C_15
    4  A    between atoms: C_9  and  C_15
                            x       y       z     vdW  Elec       q    Type
                         _______ _______ _______ _____ _____    ______ ____

>  <TORSDO>
F 4

$$$$
=
 OpenBabel10272401063D

 27 30  0  0  1  0  0  0  0  0999 V2000
  186.5650  178.1170  143.3780 C   0  0  2  0  0  3  0  0  0  0  0  0
  185.2160  178.2360  142.7230 C   0  0  0  0  0  0  0  0  0  0  0  0
  184.0170  179.1390  144.7790 C   0  0  0  0  0  1  0  0  0  0  0  0
  181.6070  177.9850  139.7180 C   0  0  0  0  0  3  0  0  0  0  0  0
  180.5840  178.4630  140.5290 C   0  0  0  0  0  3  0  0  0  0  0  0
  184.9200  177.8630  141.4230 C   0  0  0  0  0  3  0  0  0  0  0  0
  181.6830  178.9690  142.7470 C   0  0  0  0  0  0  0  0  0  0  0  0
  181.3760  179.4390  143.9820 F   0  0  0  0  0  0  0  0  0  0  0  0
  183.0050  178.6080  142.4700 C   0  0  0  0  0  0  0  0  0  0  0  0
  180.6210  178.8930  141.8510 C   0  0  0  0  0  3  0  0  0  0  0  0
  183.5700  178.0830  141.2290 C   0  0  0  0  0  0  0  0  0  0  0  0
  184.0690  178.6770  143.3590 C   0  0  0  0  0  0  0  0  0  0  0  0
  182.9470  177.8110  140.0260 C   0  0  0  0  0  3  0  0  0  0  0  0
  189.5630  177.6360  140.2540 C   0  0  0  0  0  3  0  0  0  0  0  0
  187.7600  178.1470  142.4110 C   0  0  2  0  0  3  0  0  0  0  0  0
  187.3880  178.6180  141.0010 C   0  0  0  0  0  2  0  0  0  0  0  0
  188.5150  178.4400  140.0170 C   0  0  0  0  0  3  0  0  0  0  0  0
  189.7560  176.9250  141.5680 C   0  0  0  0  0  2  0  0  0  0  0  0
  188.4500  176.7880  142.3460 C   0  0  0  0  0  2  0  0  0  0  0  0
  186.6240  177.1110  144.5410 C   0  0  0  0  0  2  0  0  0  0  0  0
  189.3920  177.8140  148.1110 C   0  0  0  0  0  3  0  0  0  0  0  0
  188.0190  177.6740  148.6760 C   0  0  0  0  0  2  0  0  0  0  0  0
  187.4250  177.5590  145.7230 C   0  0  0  0  0  0  0  0  0  0  0  0
  189.6880  177.5550  146.8380 C   0  0  0  0  0  3  0  0  0  0  0  0
  187.0430  178.5640  147.9830 C   0  0  0  0  0  3  0  0  0  0  0  0
  186.7660  178.4710  146.6830 C   0  0  0  0  0  3  0  0  0  0  0  0
  188.7130  177.1880  145.7930 C   0  0  0  0  0  3  0  0  0  0  0  0
  1 20  1  6  0  0  0
  2 12  1  0  0  0  0
  2  1  1  0  0  0  0
  4 13  1  0  0  0  0
  4  5  2  0  0  0  0
  5 10  1  0  0  0  0
  6  2  2  0  0  0  0
  7  8  1  0  0  0  0
  9  7  1  0  0  0  0
  9 12  2  0  0  0  0
 10  7  2  0  0  0  0
 11  6  1  0  0  0  0
 11  9  1  0  0  0  0
 12  3  1  0  0  0  0
 13 11  2  0  0  0  0
 14 18  1  0  0  0  0
 15  1  1  1  0  0  0
 16 15  1  0  0  0  0
 17 14  2  0  0  0  0
 17 16  1  0  0  0  0
 18 19  1  0  0  0  0
 19 15  1  0  0  0  0
 20 23  1  0  0  0  0
 21 22  1  0  0  0  0
 23 27  2  0  0  0  0
 23 26  1  0  0  0  0
 24 21  2  0  0  0  0
 25 22  1  0  0  0  0
 26 25  2  0  0  0  0
 27 24  1  0  0  0  0
M  END
>  <MODEL>
4

>  <REMARK>
 VINA RESULT:     -10.1      1.278      1.805
  Name = 
  4 active torsions:
  status: ('A' for Active; 'I' for Inactive)
    1  A    between atoms: C_1  and  C_15
    2  A    between atoms: C_1  and  C_18
    3  A    between atoms: C_2  and  C_15
    4  A    between atoms: C_9  and  C_15
                            x       y       z     vdW  Elec       q    Type
                         _______ _______ _______ _____ _____    ______ ____

>  <TORSDO>
F 4

$$$$
=
 OpenBabel10272401063D

 27 30  0  0  1  0  0  0  0  0999 V2000
  188.4480  177.8060  142.3280 C   0  0  2  0  0  3  0  0  0  0  0  0
  188.4620  177.7730  140.8240 C   0  0  0  0  0  0  0  0  0  0  0  0
  190.8510  176.9190  140.6120 C   0  0  0  0  0  1  0  0  0  0  0  0
  187.3660  178.2670  136.2770 C   0  0  0  0  0  3  0  0  0  0  0  0
  188.5540  177.8410  135.6950 C   0  0  0  0  0  3  0  0  0  0  0  0
  187.4220  178.1770  140.0040 C   0  0  0  0  0  3  0  0  0  0  0  0
  190.0620  177.2480  137.6330 C   0  0  0  0  0  0  0  0  0  0  0  0
  191.3130  176.7830  137.8800 F   0  0  0  0  0  0  0  0  0  0  0  0
  189.2220  177.5350  138.7130 C   0  0  0  0  0  0  0  0  0  0  0  0
  189.7300  177.3960  136.2900 C   0  0  0  0  0  3  0  0  0  0  0  0
  187.8510  178.0390  138.6980 C   0  0  0  0  0  0  0  0  0  0  0  0
  189.5480  177.3930  140.0560 C   0  0  0  0  0  0  0  0  0  0  0  0
  187.0440  178.3600  137.6220 C   0  0  0  0  0  3  0  0  0  0  0  0
  191.9810  177.6670  144.8720 C   0  0  0  0  0  3  0  0  0  0  0  0
  189.8290  177.6940  142.9920 C   0  0  2  0  0  3  0  0  0  0  0  0
  189.9300  176.5390  143.9940 C   0  0  0  0  0  2  0  0  0  0  0  0
  191.2110  176.5720  144.7870 C   0  0  0  0  0  3  0  0  0  0  0  0
  191.6880  178.9250  144.0960 C   0  0  0  0  0  2  0  0  0  0  0  0
  190.2270  179.0060  143.6620 C   0  0  0  0  0  2  0  0  0  0  0  0
  187.2910  177.0230  142.9730 C   0  0  0  0  0  2  0  0  0  0  0  0
  184.7580  178.7880  146.3450 C   0  0  0  0  0  3  0  0  0  0  0  0
  183.8430  178.6450  145.1760 C   0  0  0  0  0  2  0  0  0  0  0  0
  186.4650  177.8050  143.9460 C   0  0  0  0  0  0  0  0  0  0  0  0
  185.9870  178.2770  146.3780 C   0  0  0  0  0  3  0  0  0  0  0  0
  184.4240  179.2540  143.9430 C   0  0  0  0  0  3  0  0  0  0  0  0
  185.5660  178.8400  143.3930 C   0  0  0  0  0  3  0  0  0  0  0  0
  186.6550  177.5880  145.2570 C   0  0  0  0  0  3  0  0  0  0  0  0
  1 20  1  1  0  0  0
  2  1  1  0  0  0  0
  4 13  1  0  0  0  0
  5  4  2  0  0  0  0
  5 10  1  0  0  0  0
  6  2  2  0  0  0  0
  7  8  1  0  0  0  0
  7  9  1  0  0  0  0
  9 12  2  0  0  0  0
 10  7  2  0  0  0  0
 11  9  1  0  0  0  0
 11  6  1  0  0  0  0
 12  3  1  0  0  0  0
 12  2  1  0  0  0  0
 13 11  2  0  0  0  0
 15  1  1  1  0  0  0
 15 19  1  0  0  0  0
 15 16  1  0  0  0  0
 16 17  1  0  0  0  0
 17 14  2  0  0  0  0
 18 14  1  0  0  0  0
 19 18  1  0  0  0  0
 20 23  1  0  0  0  0
 21 24  2  0  0  0  0
 22 21  1  0  0  0  0
 23 27  2  0  0  0  0
 25 22  1  0  0  0  0
 26 25  2  0  0  0  0
 26 23  1  0  0  0  0
 27 24  1  0  0  0  0
M  END
>  <MODEL>
5

>  <REMARK>
 VINA RESULT:      -9.9      2.906      6.286
  Name = 
  4 active torsions:
  status: ('A' for Active; 'I' for Inactive)
    1  A    between atoms: C_1  and  C_15
    2  A    between atoms: C_1  and  C_18
    3  A    between atoms: C_2  and  C_15
    4  A    between atoms: C_9  and  C_15
                            x       y       z     vdW  Elec       q    Type
                         _______ _______ _______ _____ _____    ______ ____

>  <TORSDO>
F 4

$$$$
=
 OpenBabel10272401063D

 27 30  0  0  1  0  0  0  0  0999 V2000
  188.2990  177.9650  142.6070 C   0  0  2  0  0  3  0  0  0  0  0  0
  188.8260  177.6750  141.2280 C   0  0  0  0  0  0  0  0  0  0  0  0
  186.8240  178.6380  139.9860 C   0  0  0  0  0  1  0  0  0  0  0  0
  191.3810  176.1390  137.5910 C   0  0  0  0  0  3  0  0  0  0  0  0
  190.5550  176.5180  136.5390 C   0  0  0  0  0  3  0  0  0  0  0  0
  190.0170  177.0300  140.9440 C   0  0  0  0  0  3  0  0  0  0  0  0
  188.5620  177.6220  137.6300 C   0  0  0  0  0  0  0  0  0  0  0  0
  187.3880  178.2190  137.3030 F   0  0  0  0  0  0  0  0  0  0  0  0
  188.9100  177.5120  138.9800 C   0  0  0  0  0  0  0  0  0  0  0  0
  189.3240  177.1660  136.5590 C   0  0  0  0  0  3  0  0  0  0  0  0
  190.1070  176.9160  139.5710 C   0  0  0  0  0  0  0  0  0  0  0  0
  188.1540  177.9610  140.0540 C   0  0  0  0  0  0  0  0  0  0  0  0
  191.1860  176.3140  138.9520 C   0  0  0  0  0  3  0  0  0  0  0  0
  191.7080  177.6820  145.3040 C   0  0  0  0  0  3  0  0  0  0  0  0
  189.3710  178.0610  143.7040 C   0  0  2  0  0  3  0  0  0  0  0  0
  190.7170  178.5840  143.1920 C   0  0  0  0  0  2  0  0  0  0  0  0
  191.8100  178.4720  144.2240 C   0  0  0  0  0  3  0  0  0  0  0  0
  190.4510  176.9190  145.6330 C   0  0  0  0  0  2  0  0  0  0  0  0
  189.5610  176.7210  144.4080 C   0  0  0  0  0  2  0  0  0  0  0  0
  186.9940  177.2280  142.9600 C   0  0  0  0  0  2  0  0  0  0  0  0
  184.1690  178.8490  146.1690 C   0  0  0  0  0  3  0  0  0  0  0  0
  183.3610  178.7550  144.9190 C   0  0  0  0  0  2  0  0  0  0  0  0
  186.0830  177.9680  143.8890 C   0  0  0  0  0  0  0  0  0  0  0  0
  185.3940  178.3370  146.2870 C   0  0  0  0  0  3  0  0  0  0  0  0
  184.0450  179.4160  143.7690 C   0  0  0  0  0  3  0  0  0  0  0  0
  185.2320  179.0260  143.3040 C   0  0  0  0  0  3  0  0  0  0  0  0
  186.1590  177.6960  145.2000 C   0  0  0  0  0  3  0  0  0  0  0  0
  1 20  1  1  0  0  0
  2  1  1  0  0  0  0
  3 12  1  0  0  0  0
  4 13  2  0  0  0  0
  5 10  2  0  0  0  0
  5  4  1  0  0  0  0
  6  2  1  0  0  0  0
  7  9  2  0  0  0  0
  8  7  1  0  0  0  0
  9 11  1  0  0  0  0
  9 12  1  0  0  0  0
 10  7  1  0  0  0  0
 11  6  2  0  0  0  0
 12  2  2  0  0  0  0
 13 11  1  0  0  0  0
 14 18  1  0  0  0  0
 15  1  1  6  0  0  0
 15 19  1  0  0  0  0
 16 15  1  0  0  0  0
 16 17  1  0  0  0  0
 17 14  2  0  0  0  0
 19 18  1  0  0  0  0
 20 23  1  0  0  0  0
 21 24  2  0  0  0  0
 22 21  1  0  0  0  0
 23 27  2  0  0  0  0
 25 22  1  0  0  0  0
 26 25  2  0  0  0  0
 26 23  1  0  0  0  0
 27 24  1  0  0  0  0
M  END
>  <MODEL>
6

>  <REMARK>
 VINA RESULT:      -9.7      2.423      6.561
  Name = 
  4 active torsions:
  status: ('A' for Active; 'I' for Inactive)
    1  A    between atoms: C_1  and  C_15
    2  A    between atoms: C_1  and  C_18
    3  A    between atoms: C_2  and  C_15
    4  A    between atoms: C_9  and  C_15
                            x       y       z     vdW  Elec       q    Type
                         _______ _______ _______ _____ _____    ______ ____

>  <TORSDO>
F 4

$$$$
=
 OpenBabel10272401063D

 27 30  0  0  1  0  0  0  0  0999 V2000
  189.7040  177.0950  140.4480 C   0  0  2  0  0  3  0  0  0  0  0  0
  189.8180  177.0150  141.9460 C   0  0  0  0  0  0  0  0  0  0  0  0
  187.4260  177.7420  142.4210 C   0  0  0  0  0  1  0  0  0  0  0  0
  191.4240  176.5730  146.3450 C   0  0  0  0  0  3  0  0  0  0  0  0
  190.2800  176.9140  147.0550 C   0  0  0  0  0  3  0  0  0  0  0  0
  190.9670  176.6870  142.6460 C   0  0  0  0  0  3  0  0  0  0  0  0
  188.5370  177.4150  145.2960 C   0  0  0  0  0  0  0  0  0  0  0  0
  187.2390  177.7960  145.1880 F   0  0  0  0  0  0  0  0  0  0  0  0
  189.2730  177.1900  144.1290 C   0  0  0  0  0  0  0  0  0  0  0  0
  189.0190  177.2800  146.5940 C   0  0  0  0  0  3  0  0  0  0  0  0
  190.6690  176.7770  143.9920 C   0  0  0  0  0  0  0  0  0  0  0  0
  188.8010  177.3250  142.8300 C   0  0  0  0  0  0  0  0  0  0  0  0
  191.6060  176.5110  144.9720 C   0  0  0  0  0  3  0  0  0  0  0  0
  192.7180  175.6010  137.6820 C   0  0  0  0  0  3  0  0  0  0  0  0
  190.8260  176.3870  139.6740 C   0  0  2  0  0  3  0  0  0  0  0  0
  192.0330  177.2890  139.3950 C   0  0  0  0  0  2  0  0  0  0  0  0
  193.0260  176.6510  138.4580 C   0  0  0  0  0  3  0  0  0  0  0  0
  191.3850  174.9030  137.7570 C   0  0  0  0  0  2  0  0  0  0  0  0
  190.3050  175.7900  138.3700 C   0  0  0  0  0  2  0  0  0  0  0  0
  189.2320  178.4600  139.9160 C   0  0  0  0  0  2  0  0  0  0  0  0
  186.3610  177.6810  136.4430 C   0  0  0  0  0  3  0  0  0  0  0  0
  187.7190  177.3160  135.9450 C   0  0  0  0  0  2  0  0  0  0  0  0
  188.3960  178.3980  138.6760 C   0  0  0  0  0  0  0  0  0  0  0  0
  186.1030  177.9590  137.7200 C   0  0  0  0  0  3  0  0  0  0  0  0
  188.7100  178.4040  136.1930 C   0  0  0  0  0  3  0  0  0  0  0  0
  189.0240  178.8410  137.4120 C   0  0  0  0  0  3  0  0  0  0  0  0
  187.1090  178.0380  138.7970 C   0  0  0  0  0  3  0  0  0  0  0  0
  1 20  1  1  0  0  0
  1  2  1  0  0  0  0
  2  6  2  0  0  0  0
  2 12  1  0  0  0  0
  3 12  1  0  0  0  0
  4  5  2  0  0  0  0
  6 11  1  0  0  0  0
  7 10  2  0  0  0  0
  8  7  1  0  0  0  0
  9  7  1  0  0  0  0
 10  5  1  0  0  0  0
 11  9  1  0  0  0  0
 11 13  2  0  0  0  0
 12  9  2  0  0  0  0
 13  4  1  0  0  0  0
 14 18  1  0  0  0  0
 14 17  2  0  0  0  0
 15  1  1  6  0  0  0
 16 15  1  0  0  0  0
 17 16  1  0  0  0  0
 18 19  1  0  0  0  0
 19 15  1  0  0  0  0
 21 24  2  0  0  0  0
 22 25  1  0  0  0  0
 22 21  1  0  0  0  0
 23 27  2  0  0  0  0
 23 20  1  0  0  0  0
 24 27  1  0  0  0  0
 25 26  2  0  0  0  0
 26 23  1  0  0  0  0
M  END
>  <MODEL>
7

>  <REMARK>
 VINA RESULT:      -9.7      2.923      7.131
  Name = 
  4 active torsions:
  status: ('A' for Active; 'I' for Inactive)
    1  A    between atoms: C_1  and  C_15
    2  A    between atoms: C_1  and  C_18
    3  A    between atoms: C_2  and  C_15
    4  A    between atoms: C_9  and  C_15
                            x       y       z     vdW  Elec       q    Type
                         _______ _______ _______ _____ _____    ______ ____

>  <TORSDO>
F 4

$$$$
=
 OpenBabel10272401063D

 27 30  0  0  1  0  0  0  0  0999 V2000
  188.2830  177.7990  142.1280 C   0  0  2  0  0  3  0  0  0  0  0  0
  186.8550  178.0930  142.4970 C   0  0  0  0  0  0  0  0  0  0  0  0
  187.2000  177.9050  145.0120 C   0  0  0  0  0  1  0  0  0  0  0  0
  182.2270  178.9220  142.3690 C   0  0  0  0  0  3  0  0  0  0  0  0
  181.9430  178.9160  143.7290 C   0  0  0  0  0  3  0  0  0  0  0  0
  185.8230  178.3100  141.5990 C   0  0  0  0  0  3  0  0  0  0  0  0
  184.1570  178.4730  144.8630 C   0  0  0  0  0  0  0  0  0  0  0  0
  184.6850  178.3260  146.1040 F   0  0  0  0  0  0  0  0  0  0  0  0
  185.0010  178.3710  143.7530 C   0  0  0  0  0  0  0  0  0  0  0  0
  182.7890  178.7200  144.8160 C   0  0  0  0  0  3  0  0  0  0  0  0
  184.6690  178.4910  142.3350 C   0  0  0  0  0  0  0  0  0  0  0  0
  186.3660  178.1210  143.7910 C   0  0  0  0  0  0  0  0  0  0  0  0
  183.4460  178.7310  141.7370 C   0  0  0  0  0  3  0  0  0  0  0  0
  191.5780  177.3890  144.9470 C   0  0  0  0  0  3  0  0  0  0  0  0
  189.2530  177.7050  143.3160 C   0  0  2  0  0  3  0  0  0  0  0  0
  190.3170  178.8080  143.3200 C   0  0  0  0  0  2  0  0  0  0  0  0
  191.3810  178.5800  144.3620 C   0  0  0  0  0  3  0  0  0  0  0  0
  190.6840  176.2040  144.6910 C   0  0  0  0  0  2  0  0  0  0  0  0
  189.9200  176.3330  143.3760 C   0  0  0  0  0  2  0  0  0  0  0  0
  188.7810  178.5300  140.8680 C   0  0  0  0  0  2  0  0  0  0  0  0
  190.7580  176.1100  137.5300 C   0  0  0  0  0  3  0  0  0  0  0  0
  189.8370  177.0700  136.8540 C   0  0  0  0  0  2  0  0  0  0  0  0
  189.2100  177.6360  139.7470 C   0  0  0  0  0  0  0  0  0  0  0  0
  191.0450  176.1670  138.8300 C   0  0  0  0  0  3  0  0  0  0  0  0
  188.4650  177.0240  137.4380 C   0  0  0  0  0  3  0  0  0  0  0  0
  188.2040  177.3160  138.7110 C   0  0  0  0  0  3  0  0  0  0  0  0
  190.4410  177.1050  139.7970 C   0  0  0  0  0  3  0  0  0  0  0  0
  1 20  1  6  0  0  0
  1  2  1  0  0  0  0
  2 12  1  0  0  0  0
  4  5  2  0  0  0  0
  5 10  1  0  0  0  0
  6 11  1  0  0  0  0
  6  2  2  0  0  0  0
  7  8  1  0  0  0  0
  9 12  2  0  0  0  0
  9  7  1  0  0  0  0
 10  7  2  0  0  0  0
 11  9  1  0  0  0  0
 12  3  1  0  0  0  0
 13 11  2  0  0  0  0
 13  4  1  0  0  0  0
 15  1  1  6  0  0  0
 15 16  1  0  0  0  0
 15 19  1  0  0  0  0
 16 17  1  0  0  0  0
 17 14  2  0  0  0  0
 18 14  1  0  0  0  0
 19 18  1  0  0  0  0
 21 24  2  0  0  0  0
 22 25  1  0  0  0  0
 22 21  1  0  0  0  0
 23 27  2  0  0  0  0
 23 20  1  0  0  0  0
 24 27  1  0  0  0  0
 25 26  2  0  0  0  0
 26 23  1  0  0  0  0
M  END
>  <MODEL>
8

>  <REMARK>
 VINA RESULT:      -9.6      1.415      4.675
  Name = 
  4 active torsions:
  status: ('A' for Active; 'I' for Inactive)
    1  A    between atoms: C_1  and  C_15
    2  A    between atoms: C_1  and  C_18
    3  A    between atoms: C_2  and  C_15
    4  A    between atoms: C_9  and  C_15
                            x       y       z     vdW  Elec       q    Type
                         _______ _______ _______ _____ _____    ______ ____

>  <TORSDO>
F 4

$$$$
=
 OpenBabel10272401063D

 27 30  0  0  1  0  0  0  0  0999 V2000
  183.5740  178.6550  141.2120 C   0  0  2  0  0  3  0  0  0  0  0  0
  184.5610  178.3840  142.3150 C   0  0  0  0  0  0  0  0  0  0  0  0
  182.9560  178.8990  144.2220 C   0  0  0  0  0  1  0  0  0  0  0  0
  188.4680  177.4580  144.7630 C   0  0  0  0  0  3  0  0  0  0  0  0
  187.9900  177.6330  146.0560 C   0  0  0  0  0  3  0  0  0  0  0  0
  185.8880  178.0340  142.1340 C   0  0  0  0  0  3  0  0  0  0  0  0
  185.5570  178.2590  145.7800 C   0  0  0  0  0  0  0  0  0  0  0  0
  184.4680  178.5740  146.5250 F   0  0  0  0  0  0  0  0  0  0  0  0
  185.4390  178.2350  144.3870 C   0  0  0  0  0  0  0  0  0  0  0  0
  186.7170  177.9820  146.4970 C   0  0  0  0  0  3  0  0  0  0  0  0
  186.4590  177.9280  143.3870 C   0  0  0  0  0  0  0  0  0  0  0  0
  184.2870  178.5130  143.6640 C   0  0  0  0  0  0  0  0  0  0  0  0
  187.7880  177.5900  143.5620 C   0  0  0  0  0  3  0  0  0  0  0  0
  180.2330  176.0660  140.1580 C   0  0  0  0  0  3  0  0  0  0  0  0
  182.4430  177.6220  141.0860 C   0  0  2  0  0  3  0  0  0  0  0  0
  182.6620  176.6190  139.9470 C   0  0  0  0  0  2  0  0  0  0  0  0
  181.4540  175.7520  139.7020 C   0  0  0  0  0  3  0  0  0  0  0  0
  179.9820  177.2570  141.0470 C   0  0  0  0  0  2  0  0  0  0  0  0
  181.0870  178.3040  140.9310 C   0  0  0  0  0  2  0  0  0  0  0  0
  184.2010  179.1770  139.9070 C   0  0  0  0  0  2  0  0  0  0  0  0
  180.8050  180.6680  137.2340 C   0  0  0  0  0  3  0  0  0  0  0  0
  180.6990  179.1810  137.2430 C   0  0  0  0  0  2  0  0  0  0  0  0
  183.2190  179.5730  138.8490 C   0  0  0  0  0  0  0  0  0  0  0  0
  181.6170  181.3470  138.0430 C   0  0  0  0  0  3  0  0  0  0  0  0
  182.0040  178.5320  136.9250 C   0  0  0  0  0  3  0  0  0  0  0  0
  183.0970  178.6880  137.6710 C   0  0  0  0  0  3  0  0  0  0  0  0
  182.5820  180.7460  138.9850 C   0  0  0  0  0  3  0  0  0  0  0  0
  1 20  1  6  0  0  0
  1  2  1  0  0  0  0
  2 12  1  0  0  0  0
  4  5  2  0  0  0  0
  5 10  1  0  0  0  0
  6  2  2  0  0  0  0
  6 11  1  0  0  0  0
  7 10  2  0  0  0  0
  7  8  1  0  0  0  0
  9  7  1  0  0  0  0
 11 13  2  0  0  0  0
 11  9  1  0  0  0  0
 12  3  1  0  0  0  0
 12  9  2  0  0  0  0
 13  4  1  0  0  0  0
 14 18  1  0  0  0  0
 15  1  1  6  0  0  0
 16 15  1  0  0  0  0
 17 16  1  0  0  0  0
 17 14  2  0  0  0  0
 19 18  1  0  0  0  0
 19 15  1  0  0  0  0
 21 22  1  0  0  0  0
 21 24  2  0  0  0  0
 23 27  2  0  0  0  0
 23 20  1  0  0  0  0
 24 27  1  0  0  0  0
 25 22  1  0  0  0  0
 25 26  2  0  0  0  0
 26 23  1  0  0  0  0
M  END
>  <MODEL>
9

>  <REMARK>
 VINA RESULT:      -9.6      2.321      7.989
  Name = 
  4 active torsions:
  status: ('A' for Active; 'I' for Inactive)
    1  A    between atoms: C_1  and  C_15
    2  A    between atoms: C_1  and  C_18
    3  A    between atoms: C_2  and  C_15
    4  A    between atoms: C_9  and  C_15
                            x       y       z     vdW  Elec       q    Type
                         _______ _______ _______ _____ _____    ______ ____

>  <TORSDO>
F 4

$$$$
