=
 OpenBabel10272401003D

 27 32  0  0  1  0  0  0  0  0999 V2000
  181.9980  178.6790  142.1690 C   0  0  2  0  0  0  0  0  0  0  0  0
  179.9820  178.5870  138.9400 S   0  0  0  0  0  0  0  0  0  0  0  0
  182.8650  176.8140  140.6930 N   0  0  0  0  0  2  0  0  0  0  0  0
  180.4030  174.0580  136.8750 C   0  0  0  0  0  2  0  0  0  0  0  0
  181.7920  172.5740  135.5570 O   0  0  0  0  0  0  0  0  0  0  0  0
  180.8000  177.0160  139.3860 C   0  0  2  0  0  3  0  0  0  0  0  0
  181.1850  181.7860  137.9280 C   0  0  0  0  0  3  0  0  0  0  0  0
  183.0610  176.1980  138.3010 C   0  0  0  0  0  2  0  0  0  0  0  0
  180.8360  179.8380  140.0310 C   0  0  2  0  0  0  0  0  0  0  0  0
  185.2270  179.4870  141.2500 C   0  0  0  0  0  1  0  0  0  0  0  0
  182.2350  180.1780  139.4640 C   0  0  0  0  0  2  0  0  0  0  0  0
  182.8280  174.0520  137.0610 N   0  0  0  0  0  2  0  0  0  0  0  0
  184.6310  178.2030  143.3180 C   0  0  0  0  0  2  0  0  0  0  0  0
  182.3480  177.0650  139.3580 C   0  0  2  0  0  3  0  0  0  0  0  0
  180.8780  179.5530  141.5720 C   0  0  1  0  0  3  0  0  0  0  0  0
  181.6960  173.4810  136.4240 C   0  0  0  0  0  0  0  0  0  0  0  0
  180.9100  175.2990  137.5850 C   0  0  2  0  0  3  0  0  0  0  0  0
  180.6080  178.1090  141.9690 C   0  0  0  0  0  2  0  0  0  0  0  0
  182.2830  174.9210  138.0830 C   0  0  2  0  0  3  0  0  0  0  0  0
  184.5540  178.2400  141.7930 C   0  0  1  0  0  3  0  0  0  0  0  0
  180.1050  175.7890  138.7670 C   0  0  0  0  0  2  0  0  0  0  0  0
  183.7110  179.2510  143.9280 C   0  0  0  0  0  2  0  0  0  0  0  0
  182.1670  180.9120  138.1510 C   0  0  0  0  0  3  0  0  0  0  0  0
  182.2650  178.8710  143.6600 C   0  0  0  0  0  2  0  0  0  0  0  0
  180.1210  181.9640  138.9290 C   0  0  0  0  0  3  0  0  0  0  0  0
  183.1250  178.1320  141.2510 C   0  0  2  0  0  3  0  0  0  0  0  0
  179.9820  181.0840  139.9280 C   0  0  0  0  0  3  0  0  0  0  0  0
  1 18  1  1  0  0  0
  1 24  1  0  0  0  0
  2  6  1  0  0  0  0
  2  9  1  0  0  0  0
  5 16  2  0  0  0  0
  6 21  1  6  0  0  0
  7 23  2  0  0  0  0
  7 25  1  0  0  0  0
  9 11  1  6  0  0  0
  9 15  1  0  0  0  0
 12 19  1  0  0  0  0
 13 22  1  0  0  0  0
 14  8  1  6  0  0  0
 14  6  1  0  0  0  0
 14  3  1  0  0  0  0
 15 18  1  6  0  0  0
 15  1  1  0  0  0  0
 16  4  1  0  0  0  0
 16 12  1  0  0  0  0
 17  4  1  1  0  0  0
 17 19  1  0  0  0  0
 17 21  1  0  0  0  0
 19  8  1  6  0  0  0
 20 10  1  1  0  0  0
 20 13  1  0  0  0  0
 23 11  1  0  0  0  0
 24 22  1  0  0  0  0
 25 27  2  0  0  0  0
 26  3  1  1  0  0  0
 26 20  1  0  0  0  0
 26  1  1  0  0  0  0
 27  9  1  0  0  0  0
M  END
>  <MODEL>
1

>  <REMARK>
 VINA RESULT:      -5.8      0.000      0.000
  Name = 
  0 active torsions:
  status: ('A' for Active; 'I' for Inactive)
                            x       y       z     vdW  Elec       q    Type
                         _______ _______ _______ _____ _____    ______ ____

>  <TORSDO>
F 0

$$$$
=
 OpenBabel10272401003D

 27 32  0  0  1  0  0  0  0  0999 V2000
  190.8580  176.0490  135.1710 C   0  0  2  0  0  0  0  0  0  0  0  0
  187.1710  175.3470  135.8130 S   0  0  0  0  0  0  0  0  0  0  0  0
  190.1600  177.1570  137.3380 N   0  0  0  0  0  2  0  0  0  0  0  0
  185.3670  178.8000  138.9400 C   0  0  0  0  0  2  0  0  0  0  0  0
  185.1970  179.5290  141.2440 O   0  0  0  0  0  0  0  0  0  0  0  0
  187.8300  176.8360  136.6400 C   0  0  2  0  0  3  0  0  0  0  0  0
  187.7550  171.8520  136.2060 C   0  0  0  0  0  3  0  0  0  0  0  0
  188.5280  176.8940  139.1840 C   0  0  0  0  0  2  0  0  0  0  0  0
  188.7110  174.4230  135.3040 C   0  0  2  0  0  0  0  0  0  0  0  0
  192.5790  174.5070  137.7380 C   0  0  0  0  0  1  0  0  0  0  0  0
  189.3370  173.7090  136.5250 C   0  0  0  0  0  2  0  0  0  0  0  0
  187.1880  178.5070  140.5260 N   0  0  0  0  0  2  0  0  0  0  0  0
  193.4330  176.4860  136.4580 C   0  0  0  0  0  2  0  0  0  0  0  0
  188.8970  176.5500  137.7270 C   0  0  2  0  0  3  0  0  0  0  0  0
  189.7820  175.2010  134.4640 C   0  0  1  0  0  3  0  0  0  0  0  0
  185.8690  178.9920  140.3260 C   0  0  0  0  0  0  0  0  0  0  0  0
  186.3970  177.8090  138.4300 C   0  0  2  0  0  3  0  0  0  0  0  0
  189.6670  176.7180  134.5150 C   0  0  0  0  0  2  0  0  0  0  0  0
  187.6500  178.1240  139.2090 C   0  0  2  0  0  3  0  0  0  0  0  0
  192.3130  175.9500  137.3490 C   0  0  1  0  0  3  0  0  0  0  0  0
  186.7350  177.8720  136.9580 C   0  0  0  0  0  2  0  0  0  0  0  0
  193.3700  175.8540  135.0750 C   0  0  0  0  0  2  0  0  0  0  0  0
  188.4720  172.5940  137.0520 C   0  0  0  0  0  3  0  0  0  0  0  0
  192.1190  176.3320  134.3580 C   0  0  0  0  0  2  0  0  0  0  0  0
  187.7430  172.1820  134.7720 C   0  0  0  0  0  3  0  0  0  0  0  0
  190.9200  176.0800  136.7230 C   0  0  2  0  0  3  0  0  0  0  0  0
  188.2220  173.3570  134.3470 C   0  0  0  0  0  3  0  0  0  0  0  0
  1 24  1  6  0  0  0
  1 26  1  0  0  0  0
  2  6  1  0  0  0  0
  3 14  1  0  0  0  0
  4 16  1  0  0  0  0
  6 21  1  1  0  0  0
  6 14  1  0  0  0  0
  7 23  2  0  0  0  0
  9 27  1  6  0  0  0
  9  2  1  0  0  0  0
  9 11  1  0  0  0  0
 11 23  1  0  0  0  0
 13 20  1  0  0  0  0
 14  8  1  1  0  0  0
 15 18  1  6  0  0  0
 15  1  1  0  0  0  0
 15  9  1  0  0  0  0
 16 12  1  0  0  0  0
 16  5  2  0  0  0  0
 17 21  1  6  0  0  0
 17  4  1  0  0  0  0
 17 19  1  0  0  0  0
 18  1  1  0  0  0  0
 19  8  1  1  0  0  0
 19 12  1  0  0  0  0
 20 10  1  6  0  0  0
 22 13  1  0  0  0  0
 24 22  1  0  0  0  0
 25  7  1  0  0  0  0
 26  3  1  6  0  0  0
 26 20  1  0  0  0  0
 27 25  2  0  0  0  0
M  END
>  <MODEL>
2

>  <REMARK>
 VINA RESULT:      -5.5      7.154      9.892
  Name = 
  0 active torsions:
  status: ('A' for Active; 'I' for Inactive)
                            x       y       z     vdW  Elec       q    Type
                         _______ _______ _______ _____ _____    ______ ____

>  <TORSDO>
F 0

$$$$
=
 OpenBabel10272401003D

 27 32  0  0  1  0  0  0  0  0999 V2000
  185.3320  177.0940  135.4710 C   0  0  2  0  0  0  0  0  0  0  0  0
  182.2940  175.2220  136.8000 S   0  0  0  0  0  0  0  0  0  0  0  0
  184.6860  178.0410  137.7280 N   0  0  0  0  0  2  0  0  0  0  0  0
  179.9850  178.0560  140.2040 C   0  0  0  0  0  2  0  0  0  0  0  0
  179.9820  178.8380  142.4970 O   0  0  0  0  0  0  0  0  0  0  0  0
  182.5300  176.8990  137.4840 C   0  0  2  0  0  3  0  0  0  0  0  0
  184.1160  172.1710  137.0830 C   0  0  0  0  0  3  0  0  0  0  0  0
  183.6010  177.3640  139.8500 C   0  0  0  0  0  2  0  0  0  0  0  0
  183.9430  174.8470  136.0100 C   0  0  2  0  0  0  0  0  0  0  0  0
  187.9050  176.4090  137.6690 C   0  0  0  0  0  1  0  0  0  0  0  0
  184.9830  174.4730  137.0930 C   0  0  0  0  0  2  0  0  0  0  0  0
  182.0440  178.5090  141.4180 N   0  0  0  0  0  2  0  0  0  0  0  0
  187.7780  178.4690  136.2470 C   0  0  0  0  0  2  0  0  0  0  0  0
  183.8030  177.0690  138.3500 C   0  0  2  0  0  3  0  0  0  0  0  0
  184.5110  175.8850  134.9810 C   0  0  1  0  0  3  0  0  0  0  0  0
  180.6250  178.5020  141.4690 C   0  0  0  0  0  0  0  0  0  0  0  0
  181.1870  177.4440  139.5100 C   0  0  2  0  0  3  0  0  0  0  0  0
  183.8870  177.2710  135.0500 C   0  0  0  0  0  2  0  0  0  0  0  0
  182.3690  178.2190  140.0380 C   0  0  2  0  0  3  0  0  0  0  0  0
  187.0910  177.6450  137.3340 C   0  0  1  0  0  3  0  0  0  0  0  0
  181.2180  177.5180  138.0010 C   0  0  0  0  0  2  0  0  0  0  0  0
  187.6960  177.7610  134.9020 C   0  0  0  0  0  2  0  0  0  0  0  0
  184.6680  173.1680  137.7760 C   0  0  0  0  0  3  0  0  0  0  0  0
  186.2510  177.7350  134.4330 C   0  0  0  0  0  2  0  0  0  0  0  0
  183.7370  172.3790  135.6760 C   0  0  0  0  0  3  0  0  0  0  0  0
  185.6530  177.2490  136.9830 C   0  0  2  0  0  3  0  0  0  0  0  0
  183.6950  173.6160  135.1650 C   0  0  0  0  0  3  0  0  0  0  0  0
  1 24  1  6  0  0  0
  1 26  1  0  0  0  0
  2  6  1  0  0  0  0
  3 14  1  0  0  0  0
  4 16  1  0  0  0  0
  6 21  1  1  0  0  0
  6 14  1  0  0  0  0
  7 23  2  0  0  0  0
  9 27  1  6  0  0  0
  9  2  1  0  0  0  0
  9 11  1  0  0  0  0
 11 23  1  0  0  0  0
 12 16  1  0  0  0  0
 13 20  1  0  0  0  0
 14  8  1  1  0  0  0
 15 18  1  1  0  0  0
 15  1  1  0  0  0  0
 15  9  1  0  0  0  0
 16  5  2  0  0  0  0
 17 21  1  6  0  0  0
 17 19  1  0  0  0  0
 17  4  1  0  0  0  0
 18  1  1  0  0  0  0
 19  8  1  1  0  0  0
 19 12  1  0  0  0  0
 20 10  1  6  0  0  0
 22 13  1  0  0  0  0
 24 22  1  0  0  0  0
 25  7  1  0  0  0  0
 26 20  1  0  0  0  0
 26  3  1  6  0  0  0
 27 25  2  0  0  0  0
M  END
>  <MODEL>
3

>  <REMARK>
 VINA RESULT:      -5.5      3.712      6.911
  Name = 
  0 active torsions:
  status: ('A' for Active; 'I' for Inactive)
                            x       y       z     vdW  Elec       q    Type
                         _______ _______ _______ _____ _____    ______ ____

>  <TORSDO>
F 0

$$$$
=
 OpenBabel10272401003D

 27 32  0  0  1  0  0  0  0  0999 V2000
  186.6330  177.0280  135.3890 C   0  0  2  0  0  0  0  0  0  0  0  0
  183.2180  175.5180  136.1350 S   0  0  0  0  0  0  0  0  0  0  0  0
  185.6200  178.1970  137.3940 N   0  0  0  0  0  2  0  0  0  0  0  0
  180.5260  178.7860  138.7850 C   0  0  0  0  0  2  0  0  0  0  0  0
  180.1150  179.7410  140.9740 O   0  0  0  0  0  0  0  0  0  0  0  0
  183.4640  177.2180  136.7550 C   0  0  2  0  0  3  0  0  0  0  0  0
  184.6380  172.3610  136.9840 C   0  0  0  0  0  3  0  0  0  0  0  0
  184.0520  177.7770  139.2650 C   0  0  0  0  0  2  0  0  0  0  0  0
  184.9530  174.9500  135.7450 C   0  0  2  0  0  0  0  0  0  0  0  0
  188.6080  176.3090  138.1290 C   0  0  0  0  0  1  0  0  0  0  0  0
  185.7010  174.5780  137.0480 C   0  0  0  0  0  2  0  0  0  0  0  0
  182.3170  179.1630  140.3890 N   0  0  0  0  0  2  0  0  0  0  0  0
  188.9820  178.2560  136.5960 C   0  0  0  0  0  2  0  0  0  0  0  0
  184.5370  177.3510  137.8650 C   0  0  2  0  0  3  0  0  0  0  0  0
  185.8220  175.8550  134.8050 C   0  0  1  0  0  3  0  0  0  0  0  0
  180.9250  179.2750  140.1310 C   0  0  0  0  0  0  0  0  0  0  0  0
  181.7830  178.0260  138.4060 C   0  0  2  0  0  3  0  0  0  0  0  0
  185.3330  177.2880  134.6560 C   0  0  0  0  0  2  0  0  0  0  0  0
  182.8960  178.7420  139.1310 C   0  0  2  0  0  3  0  0  0  0  0  0
  188.0050  177.5770  137.5540 C   0  0  1  0  0  3  0  0  0  0  0  0
  182.1380  177.9800  136.9380 C   0  0  0  0  0  2  0  0  0  0  0  0
  189.1170  177.4550  135.3090 C   0  0  0  0  0  2  0  0  0  0  0  0
  185.1250  173.3600  137.7210 C   0  0  0  0  0  3  0  0  0  0  0  0
  187.8070  177.5090  134.5410 C   0  0  0  0  0  2  0  0  0  0  0  0
  184.5860  172.4890  135.5190 C   0  0  0  0  0  3  0  0  0  0  0  0
  186.6420  177.2740  136.9230 C   0  0  2  0  0  3  0  0  0  0  0  0
  184.7710  173.6810  134.9400 C   0  0  0  0  0  3  0  0  0  0  0  0
  1 24  1  6  0  0  0
  1 26  1  0  0  0  0
  2  6  1  0  0  0  0
  3 14  1  0  0  0  0
  4 16  1  0  0  0  0
  6 21  1  1  0  0  0
  6 14  1  0  0  0  0
  7 23  2  0  0  0  0
  9 27  1  6  0  0  0
  9  2  1  0  0  0  0
  9 11  1  0  0  0  0
 11 23  1  0  0  0  0
 13 20  1  0  0  0  0
 14  8  1  1  0  0  0
 15 18  1  6  0  0  0
 15  1  1  0  0  0  0
 15  9  1  0  0  0  0
 16 12  1  0  0  0  0
 16  5  2  0  0  0  0
 17 21  1  6  0  0  0
 17  4  1  0  0  0  0
 17 19  1  0  0  0  0
 18  1  1  0  0  0  0
 19  8  1  1  0  0  0
 19 12  1  0  0  0  0
 20 10  1  6  0  0  0
 22 13  1  0  0  0  0
 24 22  1  0  0  0  0
 25  7  1  0  0  0  0
 26  3  1  6  0  0  0
 26 20  1  0  0  0  0
 27 25  2  0  0  0  0
M  END
>  <MODEL>
4

>  <REMARK>
 VINA RESULT:      -5.4      4.233      7.243
  Name = 
  0 active torsions:
  status: ('A' for Active; 'I' for Inactive)
                            x       y       z     vdW  Elec       q    Type
                         _______ _______ _______ _____ _____    ______ ____

>  <TORSDO>
F 0

$$$$
=
 OpenBabel10272401003D

 27 32  0  0  1  0  0  0  0  0999 V2000
  191.1170  176.1970  135.4930 C   0  0  2  0  0  0  0  0  0  0  0  0
  187.7880  176.0140  137.3320 S   0  0  0  0  0  0  0  0  0  0  0  0
  191.4980  176.6210  137.9600 N   0  0  0  0  0  2  0  0  0  0  0  0
  188.1680  178.4840  141.6570 C   0  0  0  0  0  2  0  0  0  0  0  0
  188.9580  178.4150  143.9470 O   0  0  0  0  0  0  0  0  0  0  0  0
  189.0830  176.9890  138.1730 C   0  0  2  0  0  3  0  0  0  0  0  0
  187.4070  172.5460  136.5970 C   0  0  0  0  0  3  0  0  0  0  0  0
  190.5330  176.0600  140.1710 C   0  0  0  0  0  2  0  0  0  0  0  0
  188.7430  175.0480  136.0520 C   0  0  2  0  0  0  0  0  0  0  0  0
  193.0240  173.5940  136.7200 C   0  0  0  0  0  1  0  0  0  0  0  0
  189.4820  173.8620  136.7160 C   0  0  0  0  0  2  0  0  0  0  0  0
  190.2250  177.3440  142.2810 N   0  0  0  0  0  2  0  0  0  0  0  0
  193.9740  175.6930  135.7350 C   0  0  0  0  0  2  0  0  0  0  0  0
  190.3040  176.1630  138.6500 C   0  0  2  0  0  3  0  0  0  0  0  0
  189.6730  175.8510  135.0780 C   0  0  1  0  0  3  0  0  0  0  0  0
  189.1150  178.1040  142.7370 C   0  0  0  0  0  0  0  0  0  0  0  0
  188.6430  177.5510  140.5590 C   0  0  2  0  0  3  0  0  0  0  0  0
  190.0330  177.2550  135.5400 C   0  0  0  0  0  2  0  0  0  0  0  0
  190.1120  177.3490  140.8380 C   0  0  2  0  0  3  0  0  0  0  0  0
  193.0880  175.1050  136.8320 C   0  0  1  0  0  3  0  0  0  0  0  0
  188.5020  178.0410  139.1370 C   0  0  0  0  0  2  0  0  0  0  0  0
  193.2940  175.5860  134.3780 C   0  0  0  0  0  2  0  0  0  0  0  0
  188.5400  172.8140  137.2480 C   0  0  0  0  0  3  0  0  0  0  0  0
  192.0800  176.5000  134.3480 C   0  0  0  0  0  2  0  0  0  0  0  0
  187.0400  173.3350  135.4100 C   0  0  0  0  0  3  0  0  0  0  0  0
  191.6720  175.6930  136.8530 C   0  0  2  0  0  3  0  0  0  0  0  0
  187.6850  174.4750  135.1330 C   0  0  0  0  0  3  0  0  0  0  0  0
  1 24  1  6  0  0  0
  1 18  1  0  0  0  0
  1 26  1  0  0  0  0
  2  6  1  0  0  0  0
  3 14  1  0  0  0  0
  4 16  1  0  0  0  0
  6 14  1  0  0  0  0
  6 21  1  1  0  0  0
  7 23  2  0  0  0  0
  9 27  1  6  0  0  0
  9 11  1  0  0  0  0
  9  2  1  0  0  0  0
 11 23  1  0  0  0  0
 12 16  1  0  0  0  0
 13 20  1  0  0  0  0
 14  8  1  1  0  0  0
 15  1  1  0  0  0  0
 15 18  1  1  0  0  0
 15  9  1  0  0  0  0
 16  5  2  0  0  0  0
 17 21  1  6  0  0  0
 17 19  1  0  0  0  0
 17  4  1  0  0  0  0
 19  8  1  1  0  0  0
 19 12  1  0  0  0  0
 20 10  1  6  0  0  0
 20 26  1  0  0  0  0
 22 13  1  0  0  0  0
 24 22  1  0  0  0  0
 25  7  1  0  0  0  0
 26  3  1  1  0  0  0
 27 25  2  0  0  0  0
M  END
>  <MODEL>
5

>  <REMARK>
 VINA RESULT:      -5.2      7.714     10.521
  Name = 
  0 active torsions:
  status: ('A' for Active; 'I' for Inactive)
                            x       y       z     vdW  Elec       q    Type
                         _______ _______ _______ _____ _____    ______ ____

>  <TORSDO>
F 0

$$$$
=
 OpenBabel10272401003D

 27 32  0  0  1  0  0  0  0  0999 V2000
  188.8650  177.3750  136.3620 C   0  0  2  0  0  0  0  0  0  0  0  0
  188.9330  174.1410  134.3530 S   0  0  0  0  0  0  0  0  0  0  0  0
  187.0770  175.8090  137.2360 N   0  0  0  0  0  2  0  0  0  0  0  0
  184.5140  171.8520  134.7840 C   0  0  0  0  0  2  0  0  0  0  0  0
  183.0990  170.4640  136.1780 O   0  0  0  0  0  0  0  0  0  0  0  0
  187.3430  174.5100  135.1720 C   0  0  2  0  0  3  0  0  0  0  0  0
  192.1800  173.2930  135.5530 C   0  0  0  0  0  3  0  0  0  0  0  0
  186.5830  173.3890  137.4370 C   0  0  0  0  0  2  0  0  0  0  0  0
  190.1290  175.2950  135.2030 C   0  0  2  0  0  0  0  0  0  0  0  0
  189.7220  176.5040  139.5920 C   0  0  0  0  0  1  0  0  0  0  0  0
  190.4980  174.7480  136.6020 C   0  0  0  0  0  2  0  0  0  0  0  0
  184.5020  172.0430  137.2100 N   0  0  0  0  0  2  0  0  0  0  0  0
  188.3360  178.5040  138.9940 C   0  0  0  0  0  2  0  0  0  0  0  0
  187.3950  174.4870  136.7200 C   0  0  2  0  0  3  0  0  0  0  0  0
  189.7670  176.8200  135.2420 C   0  0  1  0  0  3  0  0  0  0  0  0
  183.9610  171.3760  136.0790 C   0  0  0  0  0  0  0  0  0  0  0  0
  185.7180  172.6250  135.2880 C   0  0  2  0  0  3  0  0  0  0  0  0
  188.3040  177.1440  134.9740 C   0  0  0  0  0  2  0  0  0  0  0  0
  185.3170  173.1060  136.6610 C   0  0  2  0  0  3  0  0  0  0  0  0
  188.4490  176.9820  138.9200 C   0  0  1  0  0  3  0  0  0  0  0  0
  186.1470  173.8280  134.4810 C   0  0  0  0  0  2  0  0  0  0  0  0
  189.3510  179.1640  138.0710 C   0  0  0  0  0  2  0  0  0  0  0  0
  191.2980  173.4740  136.5370 C   0  0  0  0  0  3  0  0  0  0  0  0
  188.9830  178.8740  136.6260 C   0  0  0  0  0  2  0  0  0  0  0  0
  192.3060  174.3000  134.4880 C   0  0  0  0  0  3  0  0  0  0  0  0
  188.3670  176.4320  137.4920 C   0  0  2  0  0  3  0  0  0  0  0  0
  191.3770  175.2530  134.3480 C   0  0  0  0  0  3  0  0  0  0  0  0
  1 18  1  6  0  0  0
  1 24  1  0  0  0  0
  1 26  1  0  0  0  0
  2  6  1  0  0  0  0
  2  9  1  0  0  0  0
  4 17  1  0  0  0  0
  4 16  1  0  0  0  0
  6 21  1  6  0  0  0
  6 14  1  0  0  0  0
  7 23  2  0  0  0  0
  9 27  1  6  0  0  0
  9 15  1  0  0  0  0
  9 11  1  0  0  0  0
 14  3  1  0  0  0  0
 14  8  1  1  0  0  0
 15 18  1  6  0  0  0
 15  1  1  0  0  0  0
 16  5  2  0  0  0  0
 16 12  1  0  0  0  0
 17 21  1  6  0  0  0
 17 19  1  0  0  0  0
 19 12  1  0  0  0  0
 19  8  1  1  0  0  0
 20 13  1  0  0  0  0
 20 10  1  6  0  0  0
 22 13  1  0  0  0  0
 23 11  1  0  0  0  0
 24 22  1  0  0  0  0
 25  7  1  0  0  0  0
 26  3  1  6  0  0  0
 26 20  1  0  0  0  0
 27 25  2  0  0  0  0
M  END
>  <MODEL>
6

>  <REMARK>
 VINA RESULT:      -4.8      6.440      8.708
  Name = 
  0 active torsions:
  status: ('A' for Active; 'I' for Inactive)
                            x       y       z     vdW  Elec       q    Type
                         _______ _______ _______ _____ _____    ______ ____

>  <TORSDO>
F 0

$$$$
=
 OpenBabel10272401003D

 27 32  0  0  1  0  0  0  0  0999 V2000
  182.3000  176.2370  135.4320 C   0  0  2  0  0  0  0  0  0  0  0  0
  184.9790  177.7670  137.6630 S   0  0  0  0  0  0  0  0  0  0  0  0
  184.2190  174.6030  135.6760 N   0  0  0  0  0  2  0  0  0  0  0  0
  189.3400  175.4960  136.7770 C   0  0  0  0  0  2  0  0  0  0  0  0
  190.7050  173.5380  137.1940 O   0  0  0  0  0  0  0  0  0  0  0  0
  185.5700  176.4660  136.5250 C   0  0  2  0  0  3  0  0  0  0  0  0
  182.8250  177.7590  140.5020 C   0  0  0  0  0  3  0  0  0  0  0  0
  186.0060  173.9740  137.2720 C   0  0  0  0  0  2  0  0  0  0  0  0
  183.1260  177.5470  137.6380 C   0  0  2  0  0  0  0  0  0  0  0  0
  181.1140  173.4740  137.1300 C   0  0  0  0  0  1  0  0  0  0  0  0
  182.7190  176.3300  138.5040 C   0  0  0  0  0  2  0  0  0  0  0  0
  188.3780  173.2720  136.9970 N   0  0  0  0  0  2  0  0  0  0  0  0
  181.0390  173.7350  134.6390 C   0  0  0  0  0  2  0  0  0  0  0  0
  185.0040  175.0520  136.8130 C   0  0  2  0  0  3  0  0  0  0  0  0
  182.4110  177.5430  136.2430 C   0  0  1  0  0  3  0  0  0  0  0  0
  189.5690  174.0460  137.0050 C   0  0  0  0  0  0  0  0  0  0  0  0
  187.8400  175.5570  137.0000 C   0  0  2  0  0  3  0  0  0  0  0  0
  183.3220  177.2880  135.0510 C   0  0  0  0  0  2  0  0  0  0  0  0
  187.3380  174.1940  136.5930 C   0  0  2  0  0  3  0  0  0  0  0  0
  181.9380  173.6790  135.8730 C   0  0  1  0  0  3  0  0  0  0  0  0
  187.0720  176.5910  136.2100 C   0  0  0  0  0  2  0  0  0  0  0  0
  180.2430  175.0310  134.6110 C   0  0  0  0  0  2  0  0  0  0  0  0
  182.9820  176.5460  139.9710 C   0  0  0  0  0  3  0  0  0  0  0  0
  181.1880  176.1990  134.3860 C   0  0  0  0  0  2  0  0  0  0  0  0
  182.4810  178.8990  139.6380 C   0  0  0  0  0  3  0  0  0  0  0  0
  182.8400  174.9080  136.0270 C   0  0  2  0  0  3  0  0  0  0  0  0
  182.5810  178.7900  138.3070 C   0  0  0  0  0  3  0  0  0  0  0  0
  1 24  1  6  0  0  0
  1 26  1  0  0  0  0
  1 15  1  0  0  0  0
  3 14  1  0  0  0  0
  4 17  1  0  0  0  0
  4 16  1  0  0  0  0
  6 21  1  1  0  0  0
  6 14  1  0  0  0  0
  6  2  1  0  0  0  0
  9  2  1  0  0  0  0
  9 27  1  1  0  0  0
  9 11  1  0  0  0  0
 11 23  1  0  0  0  0
 12 16  1  0  0  0  0
 13 20  1  0  0  0  0
 14  8  1  6  0  0  0
 15 18  1  6  0  0  0
 15  9  1  0  0  0  0
 16  5  2  0  0  0  0
 17 21  1  6  0  0  0
 18  1  1  0  0  0  0
 19 12  1  0  0  0  0
 19 17  1  0  0  0  0
 19  8  1  1  0  0  0
 20 26  1  0  0  0  0
 20 10  1  1  0  0  0
 22 13  1  0  0  0  0
 23  7  2  0  0  0  0
 24 22  1  0  0  0  0
 25  7  1  0  0  0  0
 26  3  1  6  0  0  0
 27 25  2  0  0  0  0
M  END
>  <MODEL>
7

>  <REMARK>
 VINA RESULT:      -4.7      3.848      6.823
  Name = 
  0 active torsions:
  status: ('A' for Active; 'I' for Inactive)
                            x       y       z     vdW  Elec       q    Type
                         _______ _______ _______ _____ _____    ______ ____

>  <TORSDO>
F 0

$$$$
=
 OpenBabel10272401003D

 27 32  0  0  1  0  0  0  0  0999 V2000
  181.3320  176.7450  139.4240 C   0  0  2  0  0  0  0  0  0  0  0  0
  182.9750  176.0870  136.0530 S   0  0  0  0  0  0  0  0  0  0  0  0
  183.6810  177.6910  139.4380 N   0  0  0  0  0  2  0  0  0  0  0  0
  187.9380  176.2940  136.5800 C   0  0  0  0  0  2  0  0  0  0  0  0
  189.8780  177.7320  136.7730 O   0  0  0  0  0  0  0  0  0  0  0  0
  184.1330  176.3410  137.4410 C   0  0  2  0  0  3  0  0  0  0  0  0
  180.6710  178.2110  134.3520 C   0  0  0  0  0  3  0  0  0  0  0  0
  185.3800  178.6210  137.8940 C   0  0  0  0  0  2  0  0  0  0  0  0
  181.3530  176.7180  136.7290 C   0  0  2  0  0  0  0  0  0  0  0  0
  181.0780  180.1780  139.7030 C   0  0  0  0  0  1  0  0  0  0  0  0
  181.3350  178.2660  136.7200 C   0  0  0  0  0  2  0  0  0  0  0  0
  187.8580  178.4240  137.7540 N   0  0  0  0  0  2  0  0  0  0  0  0
  181.1960  178.6110  141.6550 C   0  0  0  0  0  2  0  0  0  0  0  0
  184.1080  177.7650  138.0510 C   0  0  2  0  0  3  0  0  0  0  0  0
  180.8550  176.1300  138.0940 C   0  0  1  0  0  3  0  0  0  0  0  0
  188.6640  177.5130  137.0220 C   0  0  0  0  0  0  0  0  0  0  0  0
  186.5090  176.7490  136.8130 C   0  0  2  0  0  3  0  0  0  0  0  0
  181.9240  175.4420  138.9290 C   0  0  0  0  0  2  0  0  0  0  0  0
  186.6010  177.7330  137.9530 C   0  0  2  0  0  3  0  0  0  0  0  0
  181.9040  179.1110  140.3970 C   0  0  1  0  0  3  0  0  0  0  0  0
  185.5060  175.6860  137.1960 C   0  0  0  0  0  2  0  0  0  0  0  0
  179.9820  177.7690  141.2910 C   0  0  0  0  0  2  0  0  0  0  0  0
  181.3290  178.8390  135.3280 C   0  0  0  0  0  3  0  0  0  0  0  0
  180.4410  176.4780  140.6350 C   0  0  0  0  0  2  0  0  0  0  0  0
  180.0270  176.9150  134.6200 C   0  0  0  0  0  3  0  0  0  0  0  0
  182.2580  177.9930  139.4110 C   0  0  2  0  0  3  0  0  0  0  0  0
  180.3110  176.2400  135.7400 C   0  0  0  0  0  3  0  0  0  0  0  0
  1 18  1  1  0  0  0
  1 24  1  0  0  0  0
  2  9  1  0  0  0  0
  2  6  1  0  0  0  0
  4 16  1  0  0  0  0
  5 16  2  0  0  0  0
  6 21  1  6  0  0  0
  6 14  1  0  0  0  0
  7 25  1  0  0  0  0
  7 23  2  0  0  0  0
  9 27  1  6  0  0  0
  9 15  1  0  0  0  0
 11  9  1  0  0  0  0
 12 19  1  0  0  0  0
 14  8  1  1  0  0  0
 14  3  1  0  0  0  0
 15 18  1  1  0  0  0
 15  1  1  0  0  0  0
 16 12  1  0  0  0  0
 17  4  1  1  0  0  0
 17 21  1  0  0  0  0
 17 19  1  0  0  0  0
 19  8  1  6  0  0  0
 20 10  1  6  0  0  0
 20 13  1  0  0  0  0
 22 13  1  0  0  0  0
 23 11  1  0  0  0  0
 24 22  1  0  0  0  0
 25 27  2  0  0  0  0
 26  1  1  0  0  0  0
 26  3  1  1  0  0  0
 26 20  1  0  0  0  0
M  END
>  <MODEL>
8

>  <REMARK>
 VINA RESULT:      -4.6      3.549      5.152
  Name = 
  0 active torsions:
  status: ('A' for Active; 'I' for Inactive)
                            x       y       z     vdW  Elec       q    Type
                         _______ _______ _______ _____ _____    ______ ____

>  <TORSDO>
F 0

$$$$
=
 OpenBabel10272401003D

 27 32  0  0  1  0  0  0  0  0999 V2000
  184.3340  177.4590  137.5970 C   0  0  2  0  0  0  0  0  0  0  0  0
  180.6270  176.6950  137.1860 S   0  0  0  0  0  0  0  0  0  0  0  0
  184.0600  175.1310  136.6410 N   0  0  0  0  0  2  0  0  0  0  0  0
  179.9820  171.7450  137.0230 C   0  0  0  0  0  2  0  0  0  0  0  0
  180.1150  169.7470  135.6590 O   0  0  0  0  0  0  0  0  0  0  0  0
  181.7070  175.2300  137.3270 C   0  0  2  0  0  3  0  0  0  0  0  0
  180.2300  179.2310  134.7120 C   0  0  0  0  0  3  0  0  0  0  0  0
  182.4940  173.8030  135.2530 C   0  0  0  0  0  2  0  0  0  0  0  0
  181.8270  178.0780  136.8240 C   0  0  2  0  0  0  0  0  0  0  0  0
  185.6590  177.4730  134.4080 C   0  0  0  0  0  1  0  0  0  0  0  0
  182.2770  178.0230  135.3450 C   0  0  0  0  0  2  0  0  0  0  0  0
  181.7120  171.4410  135.3390 N   0  0  0  0  0  2  0  0  0  0  0  0
  186.9790  176.9720  136.4790 C   0  0  0  0  0  2  0  0  0  0  0  0
  182.6950  175.0420  136.1490 C   0  0  2  0  0  3  0  0  0  0  0  0
  183.0380  178.2670  137.8020 C   0  0  1  0  0  3  0  0  0  0  0  0
  180.5730  170.8760  135.9710 C   0  0  0  0  0  0  0  0  0  0  0  0
  180.6740  173.0540  136.6920 C   0  0  2  0  0  3  0  0  0  0  0  0
  183.3520  177.0650  138.6810 C   0  0  0  0  0  2  0  0  0  0  0  0
  181.9950  172.6460  136.0890 C   0  0  2  0  0  3  0  0  0  0  0  0
  185.7910  176.5590  135.6120 C   0  0  1  0  0  3  0  0  0  0  0  0
  180.9580  173.9880  137.8460 C   0  0  0  0  0  2  0  0  0  0  0  0
  186.6860  178.2770  137.2050 C   0  0  0  0  0  2  0  0  0  0  0  0
  181.1580  178.3310  134.3850 C   0  0  0  0  0  3  0  0  0  0  0  0
  185.5910  178.0490  138.2320 C   0  0  0  0  0  2  0  0  0  0  0  0
  180.2520  179.8550  136.0450 C   0  0  0  0  0  3  0  0  0  0  0  0
  184.4650  176.5030  136.3790 C   0  0  2  0  0  3  0  0  0  0  0  0
  181.0230  179.3460  137.0140 C   0  0  0  0  0  3  0  0  0  0  0  0
  1 15  1  0  0  0  0
  1 24  1  1  0  0  0
  1 18  1  0  0  0  0
  2  6  1  0  0  0  0
  5 16  2  0  0  0  0
  6 21  1  6  0  0  0
  7 25  1  0  0  0  0
  9 11  1  6  0  0  0
  9 27  1  0  0  0  0
  9  2  1  0  0  0  0
  9 15  1  0  0  0  0
 12 16  1  0  0  0  0
 12 19  1  0  0  0  0
 13 22  1  0  0  0  0
 14  8  1  1  0  0  0
 14  3  1  0  0  0  0
 14  6  1  0  0  0  0
 15 18  1  1  0  0  0
 16  4  1  0  0  0  0
 17  4  1  1  0  0  0
 17 21  1  0  0  0  0
 19  8  1  6  0  0  0
 19 17  1  0  0  0  0
 20 10  1  6  0  0  0
 20 26  1  0  0  0  0
 20 13  1  0  0  0  0
 22 24  1  0  0  0  0
 23  7  2  0  0  0  0
 23 11  1  0  0  0  0
 25 27  2  0  0  0  0
 26  3  1  1  0  0  0
 26  1  1  0  0  0  0
M  END
>  <MODEL>
9

>  <REMARK>
 VINA RESULT:      -4.5      3.254      4.563
  Name = 
  0 active torsions:
  status: ('A' for Active; 'I' for Inactive)
                            x       y       z     vdW  Elec       q    Type
                         _______ _______ _______ _____ _____    ______ ____

>  <TORSDO>
F 0

$$$$
