=
 OpenBabel10272415183D

 34 38  0  0  1  0  0  0  0  0999 V2000
  188.2320  177.7640  145.0910 C   0  0  0  0  0  0  0  0  0  0  0  0
  191.6000  177.3800  143.4830 C   0  0  0  0  0  3  0  0  0  0  0  0
  190.8770  176.5350  145.6260 C   0  0  0  0  0  2  0  0  0  0  0  0
  186.0580  178.5790  145.8610 C   0  0  0  0  0  0  0  0  0  0  0  0
  186.9410  178.2510  144.8250 C   0  0  0  0  0  3  0  0  0  0  0  0
  187.7600  177.9570  147.4780 C   0  0  0  0  0  0  0  0  0  0  0  0
  188.1330  177.8530  148.8140 O   0  0  0  0  0  1  0  0  0  0  0  0
  186.4780  178.4300  147.1810 C   0  0  0  0  0  3  0  0  0  0  0  0
  190.0250  177.1080  146.7190 C   0  0  0  0  0  0  0  0  0  0  0  0
  188.6570  177.6230  146.4340 C   0  0  0  0  0  0  0  0  0  0  0  0
  190.4720  177.0830  147.8950 O   0  0  0  0  0  0  0  0  0  0  0  0
  191.4660  178.0340  142.1490 C   0  0  0  0  0  2  0  0  0  0  0  0
  190.6420  177.1950  141.2240 C   0  0  0  0  0  0  0  0  0  0  0  0
  189.3530  176.9360  141.4860 C   0  0  0  0  0  3  0  0  0  0  0  0
  190.5700  177.1420  144.3000 C   0  0  0  0  0  0  0  0  0  0  0  0
  188.6370  177.2980  142.7270 C   0  0  0  0  0  3  0  0  0  0  0  0
  189.1530  177.4480  143.9660 C   0  0  0  0  0  0  0  0  0  0  0  0
  191.2410  176.7340  139.9570 C   0  0  0  0  0  0  0  0  0  0  0  0
  190.5590  175.8210  139.1560 O   0  0  0  0  0  0  0  0  0  0  0  0
  192.3890  177.1240  139.6070 O   0  0  0  0  0  1  0  0  0  0  0  0
  184.7860  179.1160  145.6260 O   0  0  0  0  0  0  0  0  0  0  0  0
  181.6540  178.7280  143.6330 C   0  0  0  0  0  3  0  0  0  0  0  0
  184.5030  178.6770  143.3330 C   0  0  0  0  0  3  0  0  0  0  0  0
  182.1490  179.3070  139.9490 N   0  0  0  0  0  0  0  0  0  0  0  0
  181.3700  179.7780  138.8400 C   0  0  0  0  0  0  0  0  0  0  0  0
  181.5310  179.1690  141.2380 C   0  0  0  0  0  3  0  0  0  0  0  0
  181.9420  180.1970  137.7990 O   0  0  0  0  0  0  0  0  0  0  0  0
  182.2480  178.7670  142.2900 C   0  0  0  0  0  0  0  0  0  0  0  0
  179.9820  179.7530  138.8940 O   0  0  0  0  0  1  0  0  0  0  0  0
  184.3240  178.7840  140.8560 C   0  0  0  0  0  3  0  0  0  0  0  0
  183.6800  178.3140  142.1290 C   0  0  1  0  0  3  0  0  0  0  0  0
  183.5790  179.2100  139.8310 C   0  0  0  0  0  3  0  0  0  0  0  0
  183.9440  178.8180  144.5440 C   0  0  0  0  0  0  0  0  0  0  0  0
  182.4640  178.7340  144.6980 C   0  0  0  0  0  3  0  0  0  0  0  0
  1 10  1  0  0  0  0
  2 15  2  0  0  0  0
  3  9  1  0  0  0  0
  4  8  2  0  0  0  0
  5  1  2  0  0  0  0
  5  4  1  0  0  0  0
  6  7  1  0  0  0  0
  8  6  1  0  0  0  0
  9 11  2  0  0  0  0
 10  9  1  0  0  0  0
 10  6  2  0  0  0  0
 12  2  1  0  0  0  0
 13 14  2  0  0  0  0
 13 12  1  0  0  0  0
 14 16  1  0  0  0  0
 15  3  1  0  0  0  0
 16 17  2  0  0  0  0
 17 15  1  0  0  0  0
 17  1  1  0  0  0  0
 18 13  1  0  0  0  0
 19 18  2  0  0  0  0
 20 18  1  0  0  0  0
 21  4  1  0  0  0  0
 22 34  2  0  0  0  0
 23 33  2  0  0  0  0
 24 26  1  0  0  0  0
 25 29  1  0  0  0  0
 25 24  1  0  0  0  0
 26 28  2  0  0  0  0
 27 25  2  0  0  0  0
 28 22  1  0  0  0  0
 31 30  1  6  0  0  0
 31 28  1  0  0  0  0
 31 23  1  0  0  0  0
 32 24  1  0  0  0  0
 32 30  2  0  0  0  0
 33 34  1  0  0  0  0
 33 21  1  0  0  0  0
M  END
>  <MODEL>
1

>  <REMARK>
 VINA RESULT:     -11.5      0.000      0.000
  Name = 
  3 active torsions:
  status: ('A' for Active; 'I' for Inactive)
    1  A    between atoms: C_3  and  C_25
    2  A    between atoms: C_8  and  O_18
    3  A    between atoms: O_18  and  C_30
                            x       y       z     vdW  Elec       q    Type
                         _______ _______ _______ _____ _____    ______ ____

>  <TORSDO>
F 3

$$$$
=
 OpenBabel10272415183D

 34 38  0  0  0  0  0  0  0  0999 V2000
  187.1250  178.0620  143.7860 C   0  0  0  0  0  0  0  0  0  0  0  0
  188.6900  177.8980  147.1920 C   0  0  0  0  0  3  0  0  0  0  0  0
  186.3630  177.6090  146.6150 C   0  0  0  0  0  2  0  0  0  0  0  0
  186.5400  178.6150  141.4760 C   0  0  0  0  0  0  0  0  0  0  0  0
  187.4670  178.1760  142.4280 C   0  0  0  0  0  3  0  0  0  0  0  0
  184.8860  178.8640  143.2370 C   0  0  0  0  0  0  0  0  0  0  0  0
  183.5970  179.2450  143.5980 O   0  0  0  0  0  1  0  0  0  0  0  0
  185.2550  178.9580  141.8920 C   0  0  0  0  0  3  0  0  0  0  0  0
  185.4550  178.3010  145.6430 C   0  0  0  0  0  0  0  0  0  0  0  0
  185.8210  178.4200  144.2040 C   0  0  0  0  0  0  0  0  0  0  0  0
  184.3460  178.7210  146.0620 O   0  0  0  0  0  0  0  0  0  0  0  0
  190.1510  178.0790  146.9520 C   0  0  0  0  0  2  0  0  0  0  0  0
  190.7460  176.8530  146.3370 C   0  0  0  0  0  0  0  0  0  0  0  0
  190.3640  176.4310  145.1230 C   0  0  0  0  0  3  0  0  0  0  0  0
  187.7950  177.7150  146.2160 C   0  0  0  0  0  0  0  0  0  0  0  0
  189.2570  176.9980  144.3240 C   0  0  0  0  0  3  0  0  0  0  0  0
  188.1430  177.6130  144.7730 C   0  0  0  0  0  0  0  0  0  0  0  0
  191.8440  176.1630  147.0420 C   0  0  0  0  0  0  0  0  0  0  0  0
  192.3570  176.6970  148.2220 O   0  0  0  0  0  1  0  0  0  0  0  0
  192.3570  175.1140  146.5650 O   0  0  0  0  0  0  0  0  0  0  0  0
  186.8690  178.7880  140.1250 O   0  0  0  0  0  0  0  0  0  0  0  0
  188.2420  177.0130  137.1440 C   0  0  0  0  0  2  0  0  0  0  0  0
  188.8600  177.5610  139.8870 C   0  0  0  0  0  3  0  0  0  0  0  0
  191.9550  176.4420  137.3280 N   0  0  0  0  0  0  0  0  0  0  0  0
  193.0510  176.3150  136.4100 C   0  0  0  0  0  0  0  0  0  0  0  0
  190.6220  176.5920  136.8180 C   0  0  0  0  0  3  0  0  0  0  0  0
  194.2330  176.4910  136.8090 O   0  0  0  0  0  1  0  0  0  0  0  0
  189.5940  176.7490  137.6550 C   0  0  0  0  0  0  0  0  0  0  0  0
  192.8220  175.9720  135.0830 O   0  0  0  0  0  0  0  0  0  0  0  0
  191.2070  176.7940  139.5940 C   0  0  0  0  0  3  0  0  0  0  0  0
  189.7820  176.6300  139.1490 C   0  0  0  0  0  0  0  0  0  0  0  0
  192.2130  176.6620  138.7250 C   0  0  0  0  0  3  0  0  0  0  0  0
  187.6920  177.9540  139.3560 C   0  0  0  0  0  0  0  0  0  0  0  0
  187.3400  177.5690  137.9610 C   0  0  0  0  0  3  0  0  0  0  0  0
  1 10  1  0  0  0  0
  1 17  1  0  0  0  0
  4  8  2  0  0  0  0
  4  5  1  0  0  0  0
  5  1  2  0  0  0  0
  6  7  1  0  0  0  0
  6 10  2  0  0  0  0
  8  6  1  0  0  0  0
  9 11  2  0  0  0  0
  9  3  1  0  0  0  0
 10  9  1  0  0  0  0
 12  2  1  0  0  0  0
 13 12  1  0  0  0  0
 13 18  1  0  0  0  0
 14 13  2  0  0  0  0
 15  3  1  0  0  0  0
 15  2  2  0  0  0  0
 16 17  2  0  0  0  0
 16 14  1  0  0  0  0
 17 15  1  0  0  0  0
 18 19  1  0  0  0  0
 20 18  2  0  0  0  0
 21  4  1  0  0  0  0
 22 28  1  0  0  0  0
 22 34  1  0  0  0  0
 24 32  1  0  0  0  0
 25 27  1  0  0  0  0
 25 24  1  0  0  0  0
 26 24  1  0  0  0  0
 26 28  2  0  0  0  0
 28 31  1  0  0  0  0
 29 25  2  0  0  0  0
 31 30  1  0  0  0  0
 31 23  2  0  0  0  0
 32 30  2  0  0  0  0
 33 23  1  0  0  0  0
 33 21  1  0  0  0  0
 34 33  2  0  0  0  0
M  END
>  <MODEL>
2

>  <REMARK>
 VINA RESULT:     -11.4      3.177      7.271
  Name = 
  3 active torsions:
  status: ('A' for Active; 'I' for Inactive)
    1  A    between atoms: C_3  and  C_25
    2  A    between atoms: C_8  and  O_18
    3  A    between atoms: O_18  and  C_30
                            x       y       z     vdW  Elec       q    Type
                         _______ _______ _______ _____ _____    ______ ____

>  <TORSDO>
F 3

$$$$
=
 OpenBabel10272415183D

 34 38  0  0  1  0  0  0  0  0999 V2000
  186.8330  178.0450  143.7910 C   0  0  0  0  0  0  0  0  0  0  0  0
  188.5580  177.9130  147.1200 C   0  0  0  0  0  3  0  0  0  0  0  0
  186.2110  177.5930  146.6550 C   0  0  0  0  0  2  0  0  0  0  0  0
  186.1330  178.5820  141.5100 C   0  0  0  0  0  0  0  0  0  0  0  0
  187.1100  178.1580  142.4180 C   0  0  0  0  0  3  0  0  0  0  0  0
  184.5610  178.8180  143.3460 C   0  0  0  0  0  0  0  0  0  0  0  0
  183.2860  179.1830  143.7650 O   0  0  0  0  0  1  0  0  0  0  0  0
  184.8650  178.9110  141.9840 C   0  0  0  0  0  3  0  0  0  0  0  0
  185.2490  178.2700  145.7240 C   0  0  0  0  0  0  0  0  0  0  0  0
  185.5460  178.3880  144.2680 C   0  0  0  0  0  0  0  0  0  0  0  0
  184.1560  178.6780  146.1930 O   0  0  0  0  0  0  0  0  0  0  0  0
  190.0040  178.1120  146.8110 C   0  0  0  0  0  2  0  0  0  0  0  0
  190.5860  176.8910  146.1720 C   0  0  0  0  0  0  0  0  0  0  0  0
  190.1520  176.4600  144.9800 C   0  0  0  0  0  3  0  0  0  0  0  0
  187.6210  177.7160  146.1880 C   0  0  0  0  0  0  0  0  0  0  0  0
  189.0020  177.0100  144.2310 C   0  0  0  0  0  3  0  0  0  0  0  0
  187.9030  177.6130  144.7310 C   0  0  0  0  0  0  0  0  0  0  0  0
  191.7230  176.2170  146.8280 C   0  0  0  0  0  0  0  0  0  0  0  0
  192.2360  176.7190  148.0220 O   0  0  0  0  0  1  0  0  0  0  0  0
  192.2710  175.2130  146.2950 O   0  0  0  0  0  0  0  0  0  0  0  0
  186.3960  178.7550  140.1440 O   0  0  0  0  0  0  0  0  0  0  0  0
  189.9120  177.6960  139.4760 C   0  0  0  0  0  3  0  0  0  0  0  0
  187.3110  177.6590  138.2760 C   0  0  0  0  0  3  0  0  0  0  0  0
  190.1850  174.9690  136.9010 N   0  0  0  0  0  0  0  0  0  0  0  0
  191.0720  173.8800  136.6060 C   0  0  0  0  0  0  0  0  0  0  0  0
  190.4940  175.8560  137.9870 C   0  0  0  0  0  3  0  0  0  0  0  0
  190.6810  172.9270  135.8810 O   0  0  0  0  0  0  0  0  0  0  0  0
  189.6630  176.8520  138.3010 C   0  0  0  0  0  0  0  0  0  0  0  0
  192.3730  173.8800  137.0930 O   0  0  0  0  0  1  0  0  0  0  0  0
  188.0440  176.0260  136.5510 C   0  0  0  0  0  3  0  0  0  0  0  0
  188.4590  177.1610  137.4420 C   0  0  1  0  0  3  0  0  0  0  0  0
  188.8890  175.0260  136.2810 C   0  0  0  0  0  3  0  0  0  0  0  0
  187.5170  178.2820  139.4460 C   0  0  0  0  0  0  0  0  0  0  0  0
  188.8940  178.3860  140.0050 C   0  0  0  0  0  3  0  0  0  0  0  0
  1 10  1  0  0  0  0
  1 17  1  0  0  0  0
  4  8  2  0  0  0  0
  4  5  1  0  0  0  0
  5  1  2  0  0  0  0
  6  7  1  0  0  0  0
  6 10  2  0  0  0  0
  8  6  1  0  0  0  0
  9 11  2  0  0  0  0
  9  3  1  0  0  0  0
 10  9  1  0  0  0  0
 12  2  1  0  0  0  0
 13 12  1  0  0  0  0
 13 18  1  0  0  0  0
 14 13  2  0  0  0  0
 15  3  1  0  0  0  0
 15  2  2  0  0  0  0
 16 17  2  0  0  0  0
 16 14  1  0  0  0  0
 17 15  1  0  0  0  0
 18 19  1  0  0  0  0
 20 18  2  0  0  0  0
 21  4  1  0  0  0  0
 22 34  2  0  0  0  0
 23 33  2  0  0  0  0
 24 26  1  0  0  0  0
 25 24  1  0  0  0  0
 25 29  1  0  0  0  0
 26 28  2  0  0  0  0
 27 25  2  0  0  0  0
 28 22  1  0  0  0  0
 31 30  1  1  0  0  0
 31 23  1  0  0  0  0
 31 28  1  0  0  0  0
 32 30  2  0  0  0  0
 32 24  1  0  0  0  0
 33 34  1  0  0  0  0
 33 21  1  0  0  0  0
M  END
>  <MODEL>
3

>  <REMARK>
 VINA RESULT:     -11.3      3.019      6.975
  Name = 
  3 active torsions:
  status: ('A' for Active; 'I' for Inactive)
    1  A    between atoms: C_3  and  C_25
    2  A    between atoms: C_8  and  O_18
    3  A    between atoms: O_18  and  C_30
                            x       y       z     vdW  Elec       q    Type
                         _______ _______ _______ _____ _____    ______ ____

>  <TORSDO>
F 3

$$$$
=
 OpenBabel10272415183D

 34 38  0  0  0  0  0  0  0  0999 V2000
  186.2020  178.2210  143.1240 C   0  0  0  0  0  0  0  0  0  0  0  0
  188.5600  177.8300  146.0170 C   0  0  0  0  0  3  0  0  0  0  0  0
  186.1580  177.5820  146.0190 C   0  0  0  0  0  2  0  0  0  0  0  0
  185.0720  178.9270  141.0730 C   0  0  0  0  0  0  0  0  0  0  0  0
  186.1990  178.4250  141.7340 C   0  0  0  0  0  3  0  0  0  0  0  0
  183.9120  179.0600  143.2020 C   0  0  0  0  0  0  0  0  0  0  0  0
  182.7590  179.4170  143.8950 O   0  0  0  0  0  1  0  0  0  0  0  0
  183.9370  179.2420  141.8160 C   0  0  0  0  0  3  0  0  0  0  0  0
  185.0500  178.3380  145.3500 C   0  0  0  0  0  0  0  0  0  0  0  0
  185.0490  178.5520  143.8750 C   0  0  0  0  0  0  0  0  0  0  0  0
  184.0870  178.7300  146.0570 O   0  0  0  0  0  0  0  0  0  0  0  0
  189.9190  178.0260  145.4330 C   0  0  0  0  0  2  0  0  0  0  0  0
  190.3220  176.8430  144.6120 C   0  0  0  0  0  0  0  0  0  0  0  0
  189.6430  176.5020  143.5070 C   0  0  0  0  0  3  0  0  0  0  0  0
  187.4480  177.7130  145.2850 C   0  0  0  0  0  0  0  0  0  0  0  0
  188.3830  177.1220  143.0460 C   0  0  0  0  0  3  0  0  0  0  0  0
  187.4260  177.7070  143.7970 C   0  0  0  0  0  0  0  0  0  0  0  0
  191.5480  176.1070  144.9770 C   0  0  0  0  0  0  0  0  0  0  0  0
  192.1000  175.1890  144.0850 O   0  0  0  0  0  0  0  0  0  0  0  0
  192.0810  176.2630  146.1090 O   0  0  0  0  0  1  0  0  0  0  0  0
  185.0590  179.1890  139.6970 O   0  0  0  0  0  0  0  0  0  0  0  0
  186.5150  176.9800  137.0650 C   0  0  0  0  0  2  0  0  0  0  0  0
  184.0680  177.4360  138.4830 C   0  0  0  0  0  3  0  0  0  0  0  0
  184.6450  173.7460  136.6300 N   0  0  0  0  0  0  0  0  0  0  0  0
  184.9400  172.4010  136.2250 C   0  0  0  0  0  0  0  0  0  0  0  0
  185.6810  174.7380  136.5900 C   0  0  0  0  0  3  0  0  0  0  0  0
  184.1600  171.4620  136.5360 O   0  0  0  0  0  1  0  0  0  0  0  0
  185.4360  175.9850  136.9980 C   0  0  0  0  0  0  0  0  0  0  0  0
  186.0710  172.1270  135.4660 O   0  0  0  0  0  0  0  0  0  0  0  0
  183.1150  175.2810  137.6910 C   0  0  0  0  0  3  0  0  0  0  0  0
  184.0390  176.4210  137.3740 C   0  0  0  0  0  0  0  0  0  0  0  0
  183.4050  174.0370  137.2960 C   0  0  0  0  0  3  0  0  0  0  0  0
  185.1270  178.2390  138.6680 C   0  0  0  0  0  0  0  0  0  0  0  0
  186.3550  178.0550  137.8450 C   0  0  0  0  0  3  0  0  0  0  0  0
  1 17  1  0  0  0  0
  1 10  1  0  0  0  0
  4  5  1  0  0  0  0
  4  8  2  0  0  0  0
  5  1  2  0  0  0  0
  6 10  2  0  0  0  0
  6  7  1  0  0  0  0
  8  6  1  0  0  0  0
  9  3  1  0  0  0  0
  9 11  2  0  0  0  0
 10  9  1  0  0  0  0
 12  2  1  0  0  0  0
 13 18  1  0  0  0  0
 13 12  1  0  0  0  0
 14 13  2  0  0  0  0
 15  2  2  0  0  0  0
 15  3  1  0  0  0  0
 16 14  1  0  0  0  0
 16 17  2  0  0  0  0
 17 15  1  0  0  0  0
 18 20  1  0  0  0  0
 19 18  2  0  0  0  0
 21  4  1  0  0  0  0
 22 34  1  0  0  0  0
 23 33  1  0  0  0  0
 24 32  1  0  0  0  0
 25 27  1  0  0  0  0
 25 24  1  0  0  0  0
 26 24  1  0  0  0  0
 26 28  2  0  0  0  0
 28 22  1  0  0  0  0
 28 31  1  0  0  0  0
 29 25  2  0  0  0  0
 31 30  1  0  0  0  0
 31 23  2  0  0  0  0
 32 30  2  0  0  0  0
 33 21  1  0  0  0  0
 34 33  2  0  0  0  0
M  END
>  <MODEL>
4

>  <REMARK>
 VINA RESULT:     -11.2      3.686      5.869
  Name = 
  3 active torsions:
  status: ('A' for Active; 'I' for Inactive)
    1  A    between atoms: C_3  and  C_25
    2  A    between atoms: C_8  and  O_18
    3  A    between atoms: O_18  and  C_30
                            x       y       z     vdW  Elec       q    Type
                         _______ _______ _______ _____ _____    ______ ____

>  <TORSDO>
F 3

$$$$
=
 OpenBabel10272415183D

 34 38  0  0  1  0  0  0  0  0999 V2000
  186.1390  178.1180  143.5280 C   0  0  0  0  0  0  0  0  0  0  0  0
  182.5640  178.7420  142.5740 C   0  0  0  0  0  3  0  0  0  0  0  0
  183.7070  179.4520  144.5790 C   0  0  0  0  0  2  0  0  0  0  0  0
  188.3650  177.1630  143.8600 C   0  0  0  0  0  0  0  0  0  0  0  0
  187.3310  177.5810  143.0150 C   0  0  0  0  0  3  0  0  0  0  0  0
  187.0210  177.7950  145.7810 C   0  0  0  0  0  0  0  0  0  0  0  0
  186.9000  177.8570  147.1660 O   0  0  0  0  0  1  0  0  0  0  0  0
  188.1990  177.2730  145.2390 C   0  0  0  0  0  3  0  0  0  0  0  0
  184.7080  178.7880  145.4780 C   0  0  0  0  0  0  0  0  0  0  0  0
  185.9710  178.2200  144.9300 C   0  0  0  0  0  0  0  0  0  0  0  0
  184.4820  178.7830  146.7150 O   0  0  0  0  0  0  0  0  0  0  0  0
  182.4190  178.1430  141.2160 C   0  0  0  0  0  2  0  0  0  0  0  0
  183.1090  178.9810  140.1870 C   0  0  0  0  0  0  0  0  0  0  0  0
  184.4370  179.1640  140.2190 C   0  0  0  0  0  3  0  0  0  0  0  0
  183.7360  178.8910  143.1980 C   0  0  0  0  0  0  0  0  0  0  0  0
  185.3430  178.7100  141.2960 C   0  0  0  0  0  3  0  0  0  0  0  0
  185.0500  178.5310  142.6010 C   0  0  0  0  0  0  0  0  0  0  0  0
  182.3190  179.5270  139.0670 C   0  0  0  0  0  0  0  0  0  0  0  0
  181.3370  178.7470  138.4620 O   0  0  0  0  0  0  0  0  0  0  0  0
  182.5530  180.6830  138.6170 O   0  0  0  0  0  1  0  0  0  0  0  0
  189.5430  176.5750  143.3790 O   0  0  0  0  0  0  0  0  0  0  0  0
  192.4500  177.5750  141.2640 C   0  0  0  0  0  3  0  0  0  0  0  0
  189.6890  176.8410  141.0470 C   0  0  0  0  0  3  0  0  0  0  0  0
  192.1130  176.5210  137.6690 N   0  0  0  0  0  0  0  0  0  0  0  0
  192.9850  176.1630  136.5870 C   0  0  0  0  0  0  0  0  0  0  0  0
  192.6760  176.9450  138.9190 C   0  0  0  0  0  3  0  0  0  0  0  0
  192.5410  175.5070  135.6090 O   0  0  0  0  0  0  0  0  0  0  0  0
  191.8830  177.2460  139.9490 C   0  0  0  0  0  0  0  0  0  0  0  0
  194.3160  176.5600  136.5960 O   0  0  0  0  0  1  0  0  0  0  0  0
  189.8810  176.5390  138.5870 C   0  0  0  0  0  3  0  0  0  0  0  0
  190.3810  177.2870  139.7890 C   0  0  1  0  0  3  0  0  0  0  0  0
  190.7090  176.2240  137.5860 C   0  0  0  0  0  3  0  0  0  0  0  0
  190.2710  176.9750  142.2490 C   0  0  0  0  0  0  0  0  0  0  0  0
  191.6750  177.4620  142.3490 C   0  0  0  0  0  3  0  0  0  0  0  0
  1 10  1  0  0  0  0
  2 15  2  0  0  0  0
  3  9  1  0  0  0  0
  4  8  2  0  0  0  0
  5  1  2  0  0  0  0
  5  4  1  0  0  0  0
  6  7  1  0  0  0  0
  8  6  1  0  0  0  0
  9 11  2  0  0  0  0
 10  9  1  0  0  0  0
 10  6  2  0  0  0  0
 12  2  1  0  0  0  0
 13 14  2  0  0  0  0
 13 12  1  0  0  0  0
 14 16  1  0  0  0  0
 15  3  1  0  0  0  0
 16 17  2  0  0  0  0
 17 15  1  0  0  0  0
 17  1  1  0  0  0  0
 18 13  1  0  0  0  0
 19 18  2  0  0  0  0
 20 18  1  0  0  0  0
 21  4  1  0  0  0  0
 22 34  2  0  0  0  0
 23 33  2  0  0  0  0
 24 26  1  0  0  0  0
 25 29  1  0  0  0  0
 25 24  1  0  0  0  0
 26 28  2  0  0  0  0
 27 25  2  0  0  0  0
 28 22  1  0  0  0  0
 31 30  1  6  0  0  0
 31 28  1  0  0  0  0
 31 23  1  0  0  0  0
 32 24  1  0  0  0  0
 32 30  2  0  0  0  0
 33 34  1  0  0  0  0
 33 21  1  0  0  0  0
M  END
>  <MODEL>
5

>  <REMARK>
 VINA RESULT:     -11.1      2.546      7.990
  Name = 
  3 active torsions:
  status: ('A' for Active; 'I' for Inactive)
    1  A    between atoms: C_3  and  C_25
    2  A    between atoms: C_8  and  O_18
    3  A    between atoms: O_18  and  C_30
                            x       y       z     vdW  Elec       q    Type
                         _______ _______ _______ _____ _____    ______ ____

>  <TORSDO>
F 3

$$$$
=
 OpenBabel10272415183D

 34 38  0  0  1  0  0  0  0  0999 V2000
  184.8890  178.6730  141.9530 C   0  0  0  0  0  0  0  0  0  0  0  0
  185.7510  178.0350  138.3570 C   0  0  0  0  0  3  0  0  0  0  0  0
  183.9300  179.3590  139.2320 C   0  0  0  0  0  2  0  0  0  0  0  0
  184.5280  178.4960  144.3650 C   0  0  0  0  0  0  0  0  0  0  0  0
  185.3740  178.4460  143.2520 C   0  0  0  0  0  3  0  0  0  0  0  0
  182.6580  178.9830  142.8940 C   0  0  0  0  0  0  0  0  0  0  0  0
  181.2930  179.2190  142.7620 O   0  0  0  0  0  1  0  0  0  0  0  0
  183.1730  178.7620  144.1750 C   0  0  0  0  0  3  0  0  0  0  0  0
  182.9920  179.1740  140.3880 C   0  0  0  0  0  0  0  0  0  0  0  0
  183.5100  178.9340  141.7640 C   0  0  0  0  0  0  0  0  0  0  0  0
  181.7580  179.2920  140.1760 O   0  0  0  0  0  0  0  0  0  0  0  0
  186.9970  177.2180  138.4010 C   0  0  0  0  0  2  0  0  0  0  0  0
  188.1700  178.0550  138.8010 C   0  0  0  0  0  0  0  0  0  0  0  0
  188.2300  178.6310  140.0100 C   0  0  0  0  0  3  0  0  0  0  0  0
  185.2120  178.6250  139.4290 C   0  0  0  0  0  0  0  0  0  0  0  0
  187.1430  178.6440  141.0120 C   0  0  0  0  0  3  0  0  0  0  0  0
  185.8130  178.5900  140.7900 C   0  0  0  0  0  0  0  0  0  0  0  0
  189.3190  178.1580  137.8810 C   0  0  0  0  0  0  0  0  0  0  0  0
  190.4020  177.2920  138.0190 O   0  0  0  0  0  1  0  0  0  0  0  0
  189.3570  179.0540  136.9940 O   0  0  0  0  0  0  0  0  0  0  0  0
  184.9740  178.2220  145.6650 O   0  0  0  0  0  0  0  0  0  0  0  0
  187.8850  178.1590  147.9990 C   0  0  0  0  0  3  0  0  0  0  0  0
  187.2680  177.9960  145.2060 C   0  0  0  0  0  3  0  0  0  0  0  0
  190.9380  176.5250  146.5310 N   0  0  0  0  0  0  0  0  0  0  0  0
  192.0750  175.7900  147.0070 C   0  0  0  0  0  0  0  0  0  0  0  0
  189.9950  177.0550  147.4740 C   0  0  0  0  0  3  0  0  0  0  0  0
  192.7340  175.0650  146.2160 O   0  0  0  0  0  0  0  0  0  0  0  0
  188.9120  177.7090  147.0490 C   0  0  0  0  0  0  0  0  0  0  0  0
  192.4730  175.8910  148.3340 O   0  0  0  0  0  1  0  0  0  0  0  0
  189.5580  177.1900  144.6670 C   0  0  0  0  0  3  0  0  0  0  0  0
  188.7220  178.0340  145.5860 C   0  0  1  0  0  3  0  0  0  0  0  0
  190.6180  176.5210  145.1290 C   0  0  0  0  0  3  0  0  0  0  0  0
  186.3040  178.2340  146.1080 C   0  0  0  0  0  0  0  0  0  0  0  0
  186.6550  178.4230  147.5430 C   0  0  0  0  0  3  0  0  0  0  0  0
  1  5  1  0  0  0  0
  2 12  1  0  0  0  0
  2 15  2  0  0  0  0
  3 15  1  0  0  0  0
  3  9  1  0  0  0  0
  4 21  1  0  0  0  0
  5  4  2  0  0  0  0
  6  8  2  0  0  0  0
  7  6  1  0  0  0  0
  8  4  1  0  0  0  0
  9 10  1  0  0  0  0
 10  1  2  0  0  0  0
 10  6  1  0  0  0  0
 11  9  2  0  0  0  0
 12 13  1  0  0  0  0
 13 14  2  0  0  0  0
 14 16  1  0  0  0  0
 15 17  1  0  0  0  0
 17 16  2  0  0  0  0
 17  1  1  0  0  0  0
 18 19  1  0  0  0  0
 18 13  1  0  0  0  0
 20 18  2  0  0  0  0
 21 33  1  0  0  0  0
 23 31  1  0  0  0  0
 23 33  2  0  0  0  0
 24 25  1  0  0  0  0
 24 26  1  0  0  0  0
 25 29  1  0  0  0  0
 27 25  2  0  0  0  0
 28 26  2  0  0  0  0
 28 22  1  0  0  0  0
 30 32  2  0  0  0  0
 31 30  1  6  0  0  0
 31 28  1  0  0  0  0
 32 24  1  0  0  0  0
 33 34  1  0  0  0  0
 34 22  2  0  0  0  0
M  END
>  <MODEL>
6

>  <REMARK>
 VINA RESULT:     -11.1      2.786      7.769
  Name = 
  3 active torsions:
  status: ('A' for Active; 'I' for Inactive)
    1  A    between atoms: C_3  and  C_25
    2  A    between atoms: C_8  and  O_18
    3  A    between atoms: O_18  and  C_30
                            x       y       z     vdW  Elec       q    Type
                         _______ _______ _______ _____ _____    ______ ____

>  <TORSDO>
F 3

$$$$
=
 OpenBabel10272415183D

 34 38  0  0  0  0  0  0  0  0999 V2000
  185.1980  178.5030  142.6730 C   0  0  0  0  0  0  0  0  0  0  0  0
  185.2220  178.8260  146.4110 C   0  0  0  0  0  3  0  0  0  0  0  0
  183.3520  178.2850  144.9830 C   0  0  0  0  0  2  0  0  0  0  0  0
  185.5990  178.7610  140.2740 C   0  0  0  0  0  0  0  0  0  0  0  0
  186.0660  178.5030  141.5680 C   0  0  0  0  0  3  0  0  0  0  0  0
  183.3590  179.0540  141.1650 C   0  0  0  0  0  0  0  0  0  0  0  0
  182.0240  179.3610  140.9190 O   0  0  0  0  0  1  0  0  0  0  0  0
  184.2470  179.0370  140.0850 C   0  0  0  0  0  3  0  0  0  0  0  0
  182.9030  178.7940  143.6450 C   0  0  0  0  0  0  0  0  0  0  0  0
  183.8260  178.7920  142.4760 C   0  0  0  0  0  0  0  0  0  0  0  0
  181.7070  179.1610  143.5210 O   0  0  0  0  0  0  0  0  0  0  0  0
  186.6450  179.1030  146.7630 C   0  0  0  0  0  2  0  0  0  0  0  0
  187.4820  177.8740  146.6060 C   0  0  0  0  0  0  0  0  0  0  0  0
  187.6490  177.2970  145.4070 C   0  0  0  0  0  3  0  0  0  0  0  0
  184.8160  178.4690  145.1890 C   0  0  0  0  0  0  0  0  0  0  0  0
  186.9520  177.6830  144.1620 C   0  0  0  0  0  3  0  0  0  0  0  0
  185.7320  178.2470  144.0370 C   0  0  0  0  0  0  0  0  0  0  0  0
  188.2130  177.3550  147.7780 C   0  0  0  0  0  0  0  0  0  0  0  0
  189.3080  176.5120  147.5990 O   0  0  0  0  0  0  0  0  0  0  0  0
  187.8310  177.6290  148.9490 O   0  0  0  0  0  1  0  0  0  0  0  0
  186.4500  178.8200  139.1620 O   0  0  0  0  0  0  0  0  0  0  0  0
  188.2150  176.2620  137.0960 C   0  0  0  0  0  2  0  0  0  0  0  0
  188.5420  177.7970  139.4930 C   0  0  0  0  0  3  0  0  0  0  0  0
  191.9290  176.1750  137.6820 N   0  0  0  0  0  0  0  0  0  0  0  0
  193.1090  175.8470  136.9340 C   0  0  0  0  0  0  0  0  0  0  0  0
  190.6390  175.9990  137.0780 C   0  0  0  0  0  3  0  0  0  0  0  0
  194.2330  176.2710  137.3100 O   0  0  0  0  0  1  0  0  0  0  0  0
  189.5320  176.3340  137.7430 C   0  0  0  0  0  0  0  0  0  0  0  0
  193.0260  175.0380  135.8070 O   0  0  0  0  0  0  0  0  0  0  0  0
  190.9560  177.2200  139.6270 C   0  0  0  0  0  3  0  0  0  0  0  0
  189.5930  176.7660  139.1890 C   0  0  0  0  0  0  0  0  0  0  0  0
  192.0430  176.8960  138.9200 C   0  0  0  0  0  3  0  0  0  0  0  0
  187.4000  177.8580  138.7900 C   0  0  0  0  0  0  0  0  0  0  0  0
  187.2030  176.9740  137.6070 C   0  0  0  0  0  3  0  0  0  0  0  0
  1 17  1  0  0  0  0
  2 12  1  0  0  0  0
  3 15  1  0  0  0  0
  4  5  1  0  0  0  0
  5  1  2  0  0  0  0
  6 10  2  0  0  0  0
  7  6  1  0  0  0  0
  8  4  2  0  0  0  0
  8  6  1  0  0  0  0
  9  3  1  0  0  0  0
 10  1  1  0  0  0  0
 10  9  1  0  0  0  0
 11  9  2  0  0  0  0
 13 12  1  0  0  0  0
 13 18  1  0  0  0  0
 14 13  2  0  0  0  0
 15  2  2  0  0  0  0
 16 14  1  0  0  0  0
 17 16  2  0  0  0  0
 17 15  1  0  0  0  0
 18 20  1  0  0  0  0
 19 18  2  0  0  0  0
 21  4  1  0  0  0  0
 22 34  1  0  0  0  0
 22 28  1  0  0  0  0
 24 32  1  0  0  0  0
 25 27  1  0  0  0  0
 25 24  1  0  0  0  0
 26 24  1  0  0  0  0
 26 28  2  0  0  0  0
 28 31  1  0  0  0  0
 29 25  2  0  0  0  0
 31 23  2  0  0  0  0
 31 30  1  0  0  0  0
 32 30  2  0  0  0  0
 33 21  1  0  0  0  0
 33 23  1  0  0  0  0
 34 33  2  0  0  0  0
M  END
>  <MODEL>
7

>  <REMARK>
 VINA RESULT:     -10.8      2.948      8.204
  Name = 
  3 active torsions:
  status: ('A' for Active; 'I' for Inactive)
    1  A    between atoms: C_3  and  C_25
    2  A    between atoms: C_8  and  O_18
    3  A    between atoms: O_18  and  C_30
                            x       y       z     vdW  Elec       q    Type
                         _______ _______ _______ _____ _____    ______ ____

>  <TORSDO>
F 3

$$$$
=
 OpenBabel10272415183D

 34 38  0  0  0  0  0  0  0  0999 V2000
  183.5770  178.6170  141.0820 C   0  0  0  0  0  0  0  0  0  0  0  0
  183.3280  177.0330  137.6890 C   0  0  0  0  0  3  0  0  0  0  0  0
  181.6450  178.3170  138.8520 C   0  0  0  0  0  2  0  0  0  0  0  0
  184.0820  179.1360  143.4180 C   0  0  0  0  0  0  0  0  0  0  0  0
  184.5020  178.8590  142.1120 C   0  0  0  0  0  3  0  0  0  0  0  0
  181.7740  178.9110  142.6990 C   0  0  0  0  0  0  0  0  0  0  0  0
  180.4260  178.9200  143.0450 O   0  0  0  0  0  1  0  0  0  0  0  0
  182.7180  179.1570  143.7000 C   0  0  0  0  0  3  0  0  0  0  0  0
  181.2100  178.3740  140.2860 C   0  0  0  0  0  0  0  0  0  0  0  0
  182.1930  178.6310  141.3760 C   0  0  0  0  0  0  0  0  0  0  0  0
  179.9830  178.2640  140.5390 O   0  0  0  0  0  0  0  0  0  0  0  0
  184.6720  176.4330  137.4460 C   0  0  0  0  0  2  0  0  0  0  0  0
  185.6860  177.4940  137.1600 C   0  0  0  0  0  0  0  0  0  0  0  0
  186.0070  178.4130  138.0820 C   0  0  0  0  0  3  0  0  0  0  0  0
  183.0530  177.8470  138.7130 C   0  0  0  0  0  0  0  0  0  0  0  0
  185.3390  178.5910  139.3890 C   0  0  0  0  0  3  0  0  0  0  0  0
  184.0600  178.3030  139.7090 C   0  0  0  0  0  0  0  0  0  0  0  0
  186.4120  177.4590  135.8760 C   0  0  0  0  0  0  0  0  0  0  0  0
  185.8710  176.7750  134.7890 O   0  0  0  0  0  0  0  0  0  0  0  0
  187.5440  178.0040  135.7590 O   0  0  0  0  0  1  0  0  0  0  0  0
  184.9820  179.3290  144.4750 O   0  0  0  0  0  0  0  0  0  0  0  0
  187.9030  177.0200  144.2210 C   0  0  0  0  0  2  0  0  0  0  0  0
  186.3330  178.4170  146.1690 C   0  0  0  0  0  3  0  0  0  0  0  0
  190.1510  177.1220  147.2350 N   0  0  0  0  0  0  0  0  0  0  0  0
  191.5420  176.9150  147.5230 C   0  0  0  0  0  0  0  0  0  0  0  0
  189.6670  176.9070  145.9010 C   0  0  0  0  0  3  0  0  0  0  0  0
  192.0440  177.3830  148.5780 O   0  0  0  0  0  1  0  0  0  0  0  0
  188.3850  177.1300  145.6040 C   0  0  0  0  0  0  0  0  0  0  0  0
  192.3370  176.1760  146.6560 O   0  0  0  0  0  0  0  0  0  0  0  0
  188.0120  177.9810  147.9500 C   0  0  0  0  0  3  0  0  0  0  0  0
  187.3850  177.4730  146.6830 C   0  0  0  0  0  0  0  0  0  0  0  0
  189.3080  177.7690  148.2030 C   0  0  0  0  0  3  0  0  0  0  0  0
  186.0030  178.4520  144.8690 C   0  0  0  0  0  0  0  0  0  0  0  0
  186.7630  177.6340  143.8830 C   0  0  0  0  0  3  0  0  0  0  0  0
  1 10  2  0  0  0  0
  1  5  1  0  0  0  0
  2 15  2  0  0  0  0
  3  9  1  0  0  0  0
  4  8  1  0  0  0  0
  4 21  1  0  0  0  0
  5  4  2  0  0  0  0
  6  7  1  0  0  0  0
  6  8  2  0  0  0  0
  9 11  2  0  0  0  0
  9 10  1  0  0  0  0
 10  6  1  0  0  0  0
 12  2  1  0  0  0  0
 13 12  1  0  0  0  0
 13 14  2  0  0  0  0
 14 16  1  0  0  0  0
 15  3  1  0  0  0  0
 15 17  1  0  0  0  0
 16 17  2  0  0  0  0
 17  1  1  0  0  0  0
 18 13  1  0  0  0  0
 19 18  2  0  0  0  0
 20 18  1  0  0  0  0
 21 33  1  0  0  0  0
 22 28  1  0  0  0  0
 23 31  2  0  0  0  0
 24 25  1  0  0  0  0
 24 32  1  0  0  0  0
 25 27  1  0  0  0  0
 26 24  1  0  0  0  0
 28 26  2  0  0  0  0
 28 31  1  0  0  0  0
 29 25  2  0  0  0  0
 30 32  2  0  0  0  0
 31 30  1  0  0  0  0
 33 23  1  0  0  0  0
 34 22  1  0  0  0  0
 34 33  2  0  0  0  0
M  END
>  <MODEL>
8

>  <REMARK>
 VINA RESULT:     -10.7      3.136      8.469
  Name = 
  3 active torsions:
  status: ('A' for Active; 'I' for Inactive)
    1  A    between atoms: C_3  and  C_25
    2  A    between atoms: C_8  and  O_18
    3  A    between atoms: O_18  and  C_30
                            x       y       z     vdW  Elec       q    Type
                         _______ _______ _______ _____ _____    ______ ____

>  <TORSDO>
F 3

$$$$
=
 OpenBabel10272415183D

 34 38  0  0  1  0  0  0  0  0999 V2000
  187.6530  177.9280  143.1540 C   0  0  0  0  0  0  0  0  0  0  0  0
  188.6770  177.7470  146.7590 C   0  0  0  0  0  3  0  0  0  0  0  0
  186.4840  177.3690  145.8210 C   0  0  0  0  0  2  0  0  0  0  0  0
  187.4080  178.5140  140.7920 C   0  0  0  0  0  0  0  0  0  0  0  0
  188.1970  178.0920  141.8680 C   0  0  0  0  0  3  0  0  0  0  0  0
  185.4910  178.6440  142.2770 C   0  0  0  0  0  0  0  0  0  0  0  0
  184.1450  178.9570  142.4390 O   0  0  0  0  0  1  0  0  0  0  0  0
  186.0590  178.7880  141.0080 C   0  0  0  0  0  3  0  0  0  0  0  0
  185.7060  178.0450  144.7310 C   0  0  0  0  0  0  0  0  0  0  0  0
  186.2850  178.2170  143.3690 C   0  0  0  0  0  0  0  0  0  0  0  0
  184.5270  178.4040  144.9800 O   0  0  0  0  0  0  0  0  0  0  0  0
  190.1480  177.9990  146.7530 C   0  0  0  0  0  2  0  0  0  0  0  0
  190.8890  176.8170  146.2160 C   0  0  0  0  0  0  0  0  0  0  0  0
  190.7210  176.4090  144.9500 C   0  0  0  0  0  3  0  0  0  0  0  0
  187.9540  177.5490  145.6520 C   0  0  0  0  0  0  0  0  0  0  0  0
  189.7250  176.9470  143.9980 C   0  0  0  0  0  3  0  0  0  0  0  0
  188.5270  177.5000  144.2800 C   0  0  0  0  0  0  0  0  0  0  0  0
  191.8960  176.1580  147.0710 C   0  0  0  0  0  0  0  0  0  0  0  0
  192.3560  176.7960  148.2210 O   0  0  0  0  0  1  0  0  0  0  0  0
  192.3820  175.0390  146.7500 O   0  0  0  0  0  0  0  0  0  0  0  0
  187.9340  178.7370  139.5120 O   0  0  0  0  0  0  0  0  0  0  0  0
  189.7260  175.9890  137.7340 C   0  0  0  0  0  3  0  0  0  0  0  0
  187.2190  177.3750  137.7340 C   0  0  0  0  0  3  0  0  0  0  0  0
  187.4190  173.6080  135.9570 N   0  0  0  0  0  0  0  0  0  0  0  0
  187.4160  172.2230  135.5820 C   0  0  0  0  0  0  0  0  0  0  0  0
  188.5800  174.1630  136.5940 C   0  0  0  0  0  3  0  0  0  0  0  0
  186.3300  171.6440  135.3140 O   0  0  0  0  0  0  0  0  0  0  0  0
  188.5880  175.4400  136.9840 C   0  0  0  0  0  0  0  0  0  0  0  0
  188.6090  171.5170  135.4860 O   0  0  0  0  0  1  0  0  0  0  0  0
  186.1760  175.6510  136.2770 C   0  0  0  0  0  3  0  0  0  0  0  0
  187.4450  176.3660  136.6420 C   0  0  1  0  0  3  0  0  0  0  0  0
  186.1970  174.3630  135.9210 C   0  0  0  0  0  3  0  0  0  0  0  0
  188.2150  177.7600  138.5470 C   0  0  0  0  0  0  0  0  0  0  0  0
  189.5470  177.0990  138.4590 C   0  0  0  0  0  3  0  0  0  0  0  0
  1 10  1  0  0  0  0
  1 17  1  0  0  0  0
  4  8  2  0  0  0  0
  4  5  1  0  0  0  0
  5  1  2  0  0  0  0
  6  7  1  0  0  0  0
  6 10  2  0  0  0  0
  8  6  1  0  0  0  0
  9 11  2  0  0  0  0
  9  3  1  0  0  0  0
 10  9  1  0  0  0  0
 12  2  1  0  0  0  0
 13 12  1  0  0  0  0
 13 18  1  0  0  0  0
 14 13  2  0  0  0  0
 15  3  1  0  0  0  0
 15  2  2  0  0  0  0
 16 17  2  0  0  0  0
 16 14  1  0  0  0  0
 17 15  1  0  0  0  0
 18 19  1  0  0  0  0
 20 18  2  0  0  0  0
 21  4  1  0  0  0  0
 22 34  2  0  0  0  0
 23 33  2  0  0  0  0
 24 26  1  0  0  0  0
 25 24  1  0  0  0  0
 26 28  2  0  0  0  0
 27 25  2  0  0  0  0
 28 22  1  0  0  0  0
 29 25  1  0  0  0  0
 31 30  1  1  0  0  0
 31 28  1  0  0  0  0
 31 23  1  0  0  0  0
 32 24  1  0  0  0  0
 32 30  2  0  0  0  0
 33 21  1  0  0  0  0
 34 33  1  0  0  0  0
M  END
>  <MODEL>
9

>  <REMARK>
 VINA RESULT:     -10.6      3.725      6.948
  Name = 
  3 active torsions:
  status: ('A' for Active; 'I' for Inactive)
    1  A    between atoms: C_3  and  C_25
    2  A    between atoms: C_8  and  O_18
    3  A    between atoms: O_18  and  C_30
                            x       y       z     vdW  Elec       q    Type
                         _______ _______ _______ _____ _____    ______ ____

>  <TORSDO>
F 3

$$$$
