=
 OpenBabel10272413573D

 30 35  0  0  1  0  0  0  0  0999 V2000
  187.8160  178.2700  141.4280 C   0  0  1  0  0  3  0  0  0  0  0  0
  189.5920  176.2520  138.7980 C   0  0  2  0  0  3  0  0  0  0  0  0
  191.7160  178.2180  142.4290 N   0  0  0  0  0  2  0  0  0  0  0  0
  188.5910  177.0430  140.9250 C   0  0  1  0  0  3  0  0  0  0  0  0
  187.0230  178.8560  140.3610 N   0  0  0  0  0  0  0  0  0  0  0  0
  184.0030  178.0460  142.2510 S   0  0  0  0  0  0  0  0  0  0  0  0
  186.2610  177.9770  144.9950 C   0  0  1  0  0  3  0  0  0  0  0  0
  185.6410  178.8550  142.2370 C   0  0  2  0  0  3  0  0  0  0  0  0
  184.7470  179.4030  140.0110 N   0  0  0  0  0  2  0  0  0  0  0  0
  188.4980  177.0280  144.1860 C   0  0  2  0  0  3  0  0  0  0  0  0
  190.5470  178.2070  143.2570 C   0  0  0  0  0  0  0  0  0  0  0  0
  185.8830  179.2180  140.8310 C   0  0  0  0  0  0  0  0  0  0  0  0
  186.7960  177.8980  142.5200 C   0  0  2  0  0  3  0  0  0  0  0  0
  190.9510  175.6030  138.9720 C   0  0  0  0  0  2  0  0  0  0  0  0
  189.0560  177.0140  145.6200 C   0  0  0  0  0  2  0  0  0  0  0  0
  186.6430  177.2140  146.2650 C   0  0  0  0  0  2  0  0  0  0  0  0
  182.4400  179.3610  140.4810 N   0  0  0  0  0  2  0  0  0  0  0  0
  189.3880  176.7200  137.3670 C   0  0  0  0  0  1  0  0  0  0  0  0
  192.0270  177.2020  141.4390 C   0  0  0  0  0  2  0  0  0  0  0  0
  192.0080  176.6800  138.9610 C   0  0  0  0  0  2  0  0  0  0  0  0
  183.6230  178.9030  140.7170 C   0  0  0  0  0  0  0  0  0  0  0  0
  189.3800  177.3690  139.7310 N   0  0  1  0  0  0  0  0  0  0  0  0
  189.4090  176.3170  142.0050 C   0  0  0  0  0  2  0  0  0  0  0  0
  190.3840  179.1580  144.0680 O   0  0  0  0  0  0  0  0  0  0  0  0
  189.5750  177.1370  143.2010 N   0  0  0  0  0  0  0  0  0  0  0  0
  188.0730  177.5370  146.6660 C   0  0  0  0  0  2  0  0  0  0  0  0
  185.8320  179.2610  145.3320 O   0  0  0  0  0  1  0  0  0  0  0  0
  191.6790  177.6970  140.0400 C   0  0  1  0  0  3  0  0  0  0  0  0
  190.3890  178.2910  139.9240 O   0  0  0  0  0  0  0  0  0  0  0  0
  187.3830  178.0690  143.9350 C   0  0  1  0  0  3  0  0  0  0  0  0
  1  5  1  6  0  0  0
  1 13  1  0  0  0  0
  2 18  1  6  0  0  0
  2 14  1  0  0  0  0
  2 22  1  0  0  0  0
  3 11  1  0  0  0  0
  4  1  1  0  0  0  0
  4 23  1  1  0  0  0
  5 12  2  0  0  0  0
  7 27  1  1  0  0  0
  7 16  1  0  0  0  0
  8 12  1  6  0  0  0
  8  6  1  0  0  0  0
  8 13  1  0  0  0  0
  9 21  1  0  0  0  0
  9 12  1  0  0  0  0
 10 15  1  1  0  0  0
 11 24  2  0  0  0  0
 13 30  1  0  0  0  0
 15 26  1  0  0  0  0
 16 26  1  0  0  0  0
 17 21  2  0  0  0  0
 19  3  1  0  0  0  0
 20 14  1  0  0  0  0
 20 28  1  0  0  0  0
 21  6  1  0  0  0  0
 22 29  1  0  0  0  0
 22  4  1  0  0  0  0
 23 25  1  0  0  0  0
 25 11  1  0  0  0  0
 25 10  1  0  0  0  0
 28 19  1  0  0  0  0
 29 28  1  0  0  0  0
 30 10  1  0  0  0  0
 30  7  1  0  0  0  0
M  END
>  <MODEL>
1

>  <REMARK>
 VINA RESULT:      -8.2      0.000      0.000
  Name = 
  0 active torsions:
  status: ('A' for Active; 'I' for Inactive)
                            x       y       z     vdW  Elec       q    Type
                         _______ _______ _______ _____ _____    ______ ____

>  <TORSDO>
F 0

$$$$
=
 OpenBabel10272413573D

 30 35  0  0  1  0  0  0  0  0999 V2000
  188.3750  178.0810  142.1960 C   0  0  1  0  0  3  0  0  0  0  0  0
  188.8290  176.3320  138.8980 C   0  0  2  0  0  3  0  0  0  0  0  0
  192.3280  178.0340  141.4310 N   0  0  0  0  0  2  0  0  0  0  0  0
  188.8420  176.9180  141.3080 C   0  0  1  0  0  3  0  0  0  0  0  0
  187.2110  178.7360  141.6230 N   0  0  0  0  0  0  0  0  0  0  0  0
  185.2750  177.7020  144.5440 S   0  0  0  0  0  0  0  0  0  0  0  0
  188.4860  177.4550  146.0460 C   0  0  1  0  0  3  0  0  0  0  0  0
  186.7610  178.5460  143.9010 C   0  0  2  0  0  3  0  0  0  0  0  0
  185.0120  179.2580  142.3250 N   0  0  0  0  0  2  0  0  0  0  0  0
  190.1490  176.6290  144.2830 C   0  0  2  0  0  3  0  0  0  0  0  0
  191.6230  177.9270  142.6740 C   0  0  0  0  0  0  0  0  0  0  0  0
  186.3870  179.0310  142.5630 C   0  0  0  0  0  0  0  0  0  0  0  0
  187.9120  177.5950  143.5830 C   0  0  2  0  0  3  0  0  0  0  0  0
  190.1220  175.7010  138.4200 C   0  0  0  0  0  2  0  0  0  0  0  0
  191.2660  176.5070  145.3350 C   0  0  0  0  0  2  0  0  0  0  0  0
  189.3610  176.5970  146.9620 C   0  0  0  0  0  2  0  0  0  0  0  0
  183.1260  179.1250  143.7280 N   0  0  0  0  0  2  0  0  0  0  0  0
  188.0400  176.9130  137.7360 C   0  0  0  0  0  1  0  0  0  0  0  0
  192.1710  177.1120  140.3200 C   0  0  0  0  0  2  0  0  0  0  0  0
  191.0890  176.7990  138.0520 C   0  0  0  0  0  2  0  0  0  0  0  0
  184.2890  178.6750  143.3970 C   0  0  0  0  0  0  0  0  0  0  0  0
  189.0520  177.3610  139.9240 N   0  0  1  0  0  0  0  0  0  0  0  0
  190.0320  176.1230  141.8690 C   0  0  0  0  0  2  0  0  0  0  0  0
  191.8360  178.8030  143.5550 O   0  0  0  0  0  0  0  0  0  0  0  0
  190.7040  176.8440  142.9460 N   0  0  0  0  0  0  0  0  0  0  0  0
  190.8300  176.9180  146.7410 C   0  0  0  0  0  2  0  0  0  0  0  0
  188.2610  178.6960  146.6420 O   0  0  0  0  0  1  0  0  0  0  0  0
  191.2670  177.7140  139.2510 C   0  0  1  0  0  3  0  0  0  0  0  0
  190.0600  178.2870  139.7470 O   0  0  0  0  0  0  0  0  0  0  0  0
  189.0500  177.6610  144.6210 C   0  0  1  0  0  3  0  0  0  0  0  0
  1  5  1  6  0  0  0
  1 13  1  0  0  0  0
  2 18  1  6  0  0  0
  2 22  1  0  0  0  0
  3 11  1  0  0  0  0
  4 23  1  1  0  0  0
  4  1  1  0  0  0  0
  5 12  2  0  0  0  0
  7 27  1  1  0  0  0
  7 16  1  0  0  0  0
  8 12  1  6  0  0  0
  8  6  1  0  0  0  0
  9 12  1  0  0  0  0
  9 21  1  0  0  0  0
 10 30  1  0  0  0  0
 10 15  1  1  0  0  0
 11 25  1  0  0  0  0
 11 24  2  0  0  0  0
 13  8  1  0  0  0  0
 13 30  1  0  0  0  0
 14  2  1  0  0  0  0
 15 26  1  0  0  0  0
 19  3  1  0  0  0  0
 20 14  1  0  0  0  0
 20 28  1  0  0  0  0
 21 17  2  0  0  0  0
 21  6  1  0  0  0  0
 22  4  1  0  0  0  0
 23 25  1  0  0  0  0
 25 10  1  0  0  0  0
 26 16  1  0  0  0  0
 28 29  1  0  0  0  0
 28 19  1  0  0  0  0
 29 22  1  0  0  0  0
 30  7  1  0  0  0  0
M  END
>  <MODEL>
2

>  <REMARK>
 VINA RESULT:      -6.7      1.522      1.834
  Name = 
  0 active torsions:
  status: ('A' for Active; 'I' for Inactive)
                            x       y       z     vdW  Elec       q    Type
                         _______ _______ _______ _____ _____    ______ ____

>  <TORSDO>
F 0

$$$$
=
 OpenBabel10272413573D

 30 35  0  0  1  0  0  0  0  0999 V2000
  188.1320  178.2720  143.7720 C   0  0  1  0  0  3  0  0  0  0  0  0
  189.1030  176.4770  146.9310 C   0  0  2  0  0  3  0  0  0  0  0  0
  185.7990  179.7330  146.7120 N   0  0  0  0  0  2  0  0  0  0  0  0
  187.8820  177.3000  144.9350 C   0  0  1  0  0  3  0  0  0  0  0  0
  189.5450  178.3300  143.4390 N   0  0  0  0  0  0  0  0  0  0  0  0
  188.7560  176.9580  140.1460 S   0  0  0  0  0  0  0  0  0  0  0  0
  185.5110  178.2050  140.8830 C   0  0  1  0  0  3  0  0  0  0  0  0
  188.4260  178.2460  141.3970 C   0  0  2  0  0  3  0  0  0  0  0  0
  190.8710  178.0010  141.5070 N   0  0  0  0  0  2  0  0  0  0  0  0
  185.0760  177.9170  143.3890 C   0  0  2  0  0  3  0  0  0  0  0  0
  185.5090  179.4990  145.3280 C   0  0  0  0  0  0  0  0  0  0  0  0
  189.6770  178.3770  142.1620 C   0  0  0  0  0  0  0  0  0  0  0  0
  187.4390  177.8100  142.4770 C   0  0  2  0  0  3  0  0  0  0  0  0
  188.2360  176.3700  148.1700 C   0  0  0  0  0  2  0  0  0  0  0  0
  183.6170  178.3810  143.2310 C   0  0  0  0  0  2  0  0  0  0  0  0
  184.0170  177.8880  140.8060 C   0  0  0  0  0  2  0  0  0  0  0  0
  191.3040  177.2860  139.3050 N   0  0  0  0  0  2  0  0  0  0  0  0
  190.5760  176.5490  147.2970 C   0  0  0  0  0  1  0  0  0  0  0  0
  186.2140  178.7010  147.6460 C   0  0  0  0  0  2  0  0  0  0  0  0
  188.2060  177.7120  148.8580 C   0  0  0  0  0  2  0  0  0  0  0  0
  190.5110  177.3080  140.3220 C   0  0  0  0  0  0  0  0  0  0  0  0
  188.7350  177.6230  146.0860 N   0  0  1  0  0  0  0  0  0  0  0  0
  186.4030  177.1250  145.3150 C   0  0  0  0  0  2  0  0  0  0  0  0
  185.1750  180.4840  144.6170 O   0  0  0  0  0  0  0  0  0  0  0  0
  185.5690  178.1780  144.7420 N   0  0  0  0  0  0  0  0  0  0  0  0
  183.2430  178.7450  141.7950 C   0  0  0  0  0  2  0  0  0  0  0  0
  185.7960  179.3120  140.0810 O   0  0  0  0  0  1  0  0  0  0  0  0
  187.7210  178.7570  147.8680 C   0  0  1  0  0  3  0  0  0  0  0  0
  188.4930  178.8490  146.6740 O   0  0  0  0  0  0  0  0  0  0  0  0
  186.0470  178.4510  142.3120 C   0  0  1  0  0  3  0  0  0  0  0  0
  1  5  1  6  0  0  0
  1  4  1  0  0  0  0
  2 18  1  1  0  0  0
  2 14  1  0  0  0  0
  3 19  1  0  0  0  0
  4 23  1  1  0  0  0
  4 22  1  0  0  0  0
  6 21  1  0  0  0  0
  7 27  1  6  0  0  0
  7 30  1  0  0  0  0
  8  6  1  6  0  0  0
  8 12  1  0  0  0  0
  8 13  1  0  0  0  0
  9 12  1  0  0  0  0
 10 15  1  1  0  0  0
 10 25  1  0  0  0  0
 11  3  1  0  0  0  0
 12  5  2  0  0  0  0
 13  1  1  0  0  0  0
 14 20  1  0  0  0  0
 16  7  1  0  0  0  0
 16 26  1  0  0  0  0
 17 21  2  0  0  0  0
 19 28  1  0  0  0  0
 21  9  1  0  0  0  0
 22 29  1  0  0  0  0
 22  2  1  0  0  0  0
 24 11  2  0  0  0  0
 25 23  1  0  0  0  0
 25 11  1  0  0  0  0
 26 15  1  0  0  0  0
 28 20  1  0  0  0  0
 29 28  1  0  0  0  0
 30 13  1  0  0  0  0
 30 10  1  0  0  0  0
M  END
>  <MODEL>
3

>  <REMARK>
 VINA RESULT:      -6.6      2.507      6.393
  Name = 
  0 active torsions:
  status: ('A' for Active; 'I' for Inactive)
                            x       y       z     vdW  Elec       q    Type
                         _______ _______ _______ _____ _____    ______ ____

>  <TORSDO>
F 0

$$$$
=
 OpenBabel10272413573D

 30 35  0  0  1  0  0  0  0  0999 V2000
  188.2260  177.3740  138.3250 C   0  0  1  0  0  3  0  0  0  0  0  0
  184.6200  176.4440  137.7990 C   0  0  2  0  0  3  0  0  0  0  0  0
  187.6210  177.2400  134.3460 N   0  0  0  0  0  2  0  0  0  0  0  0
  187.0990  176.4300  137.8790 C   0  0  1  0  0  3  0  0  0  0  0  0
  187.7870  178.2260  139.4170 N   0  0  0  0  0  0  0  0  0  0  0  0
  190.2920  176.6560  141.5620 S   0  0  0  0  0  0  0  0  0  0  0  0
  191.8080  175.8320  138.4560 C   0  0  1  0  0  3  0  0  0  0  0  0
  189.9310  177.5240  139.9970 C   0  0  2  0  0  3  0  0  0  0  0  0
  188.5120  178.7150  141.6160 N   0  0  0  0  0  2  0  0  0  0  0  0
  189.9610  175.3420  136.7510 C   0  0  2  0  0  3  0  0  0  0  0  0
  188.7730  176.8850  135.1210 C   0  0  0  0  0  0  0  0  0  0  0  0
  188.7390  178.3420  140.2720 C   0  0  0  0  0  0  0  0  0  0  0  0
  189.4340  176.6010  138.8880 C   0  0  2  0  0  3  0  0  0  0  0  0
  184.0520  175.8590  136.5200 C   0  0  0  0  0  2  0  0  0  0  0  0
  190.9920  174.8940  135.7010 C   0  0  0  0  0  2  0  0  0  0  0  0
  192.5190  174.7210  137.6810 C   0  0  0  0  0  2  0  0  0  0  0  0
  189.7680  178.3770  143.5790 N   0  0  0  0  0  2  0  0  0  0  0  0
  183.6060  177.3410  138.4900 C   0  0  0  0  0  1  0  0  0  0  0  0
  186.3130  176.6260  134.4970 C   0  0  0  0  0  2  0  0  0  0  0  0
  183.9990  176.9440  135.4730 C   0  0  0  0  0  2  0  0  0  0  0  0
  189.3810  177.9420  142.4280 C   0  0  0  0  0  0  0  0  0  0  0  0
  185.8730  177.1770  137.5710 N   0  0  1  0  0  0  0  0  0  0  0  0
  187.4940  175.4430  136.7690 C   0  0  0  0  0  2  0  0  0  0  0  0
  189.8480  177.5060  134.9050 O   0  0  0  0  0  0  0  0  0  0  0  0
  188.7380  175.8350  136.1150 N   0  0  0  0  0  0  0  0  0  0  0  0
  192.4390  174.9830  136.1870 C   0  0  0  0  0  2  0  0  0  0  0  0
  192.6800  176.9060  138.6400 O   0  0  0  0  0  1  0  0  0  0  0  0
  185.3910  177.5290  135.3060 C   0  0  1  0  0  3  0  0  0  0  0  0
  185.9660  178.0470  136.5030 O   0  0  0  0  0  0  0  0  0  0  0  0
  190.4990  176.3360  137.8060 C   0  0  1  0  0  3  0  0  0  0  0  0
  1 13  1  0  0  0  0
  1  5  1  1  0  0  0
  2 18  1  6  0  0  0
  3 19  1  0  0  0  0
  3 11  1  0  0  0  0
  4 23  1  6  0  0  0
  4  1  1  0  0  0  0
  5 12  2  0  0  0  0
  6 21  1  0  0  0  0
  7 27  1  6  0  0  0
  8 12  1  1  0  0  0
  8  6  1  0  0  0  0
  9 21  1  0  0  0  0
 10 15  1  6  0  0  0
 10 30  1  0  0  0  0
 11 25  1  0  0  0  0
 12  9  1  0  0  0  0
 13  8  1  0  0  0  0
 14  2  1  0  0  0  0
 15 26  1  0  0  0  0
 16  7  1  0  0  0  0
 19 28  1  0  0  0  0
 20 14  1  0  0  0  0
 21 17  2  0  0  0  0
 22  2  1  0  0  0  0
 22  4  1  0  0  0  0
 24 11  2  0  0  0  0
 25 10  1  0  0  0  0
 25 23  1  0  0  0  0
 26 16  1  0  0  0  0
 28 20  1  0  0  0  0
 28 29  1  0  0  0  0
 29 22  1  0  0  0  0
 30  7  1  0  0  0  0
 30 13  1  0  0  0  0
M  END
>  <MODEL>
4

>  <REMARK>
 VINA RESULT:      -6.5      3.459      7.283
  Name = 
  0 active torsions:
  status: ('A' for Active; 'I' for Inactive)
                            x       y       z     vdW  Elec       q    Type
                         _______ _______ _______ _____ _____    ______ ____

>  <TORSDO>
F 0

$$$$
=
 OpenBabel10272413573D

 30 35  0  0  1  0  0  0  0  0999 V2000
  191.3190  176.7390  138.9360 C   0  0  1  0  0  3  0  0  0  0  0  0
  190.3620  175.9100  142.4780 C   0  0  2  0  0  3  0  0  0  0  0  0
  188.2890  179.1970  139.9350 N   0  0  0  0  0  2  0  0  0  0  0  0
  190.3730  176.1860  140.0130 C   0  0  1  0  0  3  0  0  0  0  0  0
  192.7080  176.5830  139.3350 N   0  0  0  0  0  0  0  0  0  0  0  0
  193.2050  174.3480  136.4890 S   0  0  0  0  0  0  0  0  0  0  0  0
  190.3250  176.0090  135.2350 C   0  0  1  0  0  3  0  0  0  0  0  0
  192.6330  175.9750  137.0880 C   0  0  2  0  0  3  0  0  0  0  0  0
  194.6540  175.5840  138.4350 N   0  0  0  0  0  2  0  0  0  0  0  0
  188.7620  176.5260  137.1960 C   0  0  2  0  0  3  0  0  0  0  0  0
  188.6070  178.5800  138.6810 C   0  0  0  0  0  0  0  0  0  0  0  0
  193.4040  176.2320  138.3150 C   0  0  0  0  0  0  0  0  0  0  0  0
  191.1990  175.9630  137.6110 C   0  0  2  0  0  3  0  0  0  0  0  0
  189.0310  176.2500  143.1190 C   0  0  0  0  0  2  0  0  0  0  0  0
  187.6670  177.0330  136.2420 C   0  0  0  0  0  2  0  0  0  0  0  0
  188.9940  175.8020  134.5090 C   0  0  0  0  0  2  0  0  0  0  0  0
  195.8630  174.2060  136.9560 N   0  0  0  0  0  2  0  0  0  0  0  0
  191.4920  175.9740  143.4920 C   0  0  0  0  0  1  0  0  0  0  0  0
  188.0100  178.4650  141.1590 C   0  0  0  0  0  2  0  0  0  0  0  0
  188.9830  177.7350  143.3790 C   0  0  0  0  0  2  0  0  0  0  0  0
  194.7240  174.5960  137.4190 C   0  0  0  0  0  0  0  0  0  0  0  0
  190.6660  176.7730  141.3270 N   0  0  1  0  0  0  0  0  0  0  0  0
  188.8820  176.2500  139.6470 C   0  0  0  0  0  2  0  0  0  0  0  0
  188.8470  179.3270  137.6950 O   0  0  0  0  0  0  0  0  0  0  0  0
  188.6400  177.1430  138.5170 N   0  0  0  0  0  0  0  0  0  0  0  0
  188.0630  176.9750  134.7670 C   0  0  0  0  0  2  0  0  0  0  0  0
  191.1680  176.7970  134.4490 O   0  0  0  0  0  1  0  0  0  0  0  0
  189.2300  178.4670  142.0710 C   0  0  1  0  0  3  0  0  0  0  0  0
  190.4550  178.1340  141.4250 O   0  0  0  0  0  0  0  0  0  0  0  0
  190.2020  176.6320  136.6440 C   0  0  1  0  0  3  0  0  0  0  0  0
  1  5  1  1  0  0  0
  1  4  1  0  0  0  0
  2 14  1  0  0  0  0
  2 18  1  1  0  0  0
  3 19  1  0  0  0  0
  4 23  1  6  0  0  0
  4 22  1  0  0  0  0
  6 21  1  0  0  0  0
  7 27  1  6  0  0  0
  7 30  1  0  0  0  0
  8  6  1  1  0  0  0
  8 13  1  0  0  0  0
  8 12  1  0  0  0  0
 10 15  1  6  0  0  0
 10 25  1  0  0  0  0
 11  3  1  0  0  0  0
 12  9  1  0  0  0  0
 12  5  2  0  0  0  0
 13  1  1  0  0  0  0
 14 20  1  0  0  0  0
 16 26  1  0  0  0  0
 16  7  1  0  0  0  0
 17 21  2  0  0  0  0
 19 28  1  0  0  0  0
 21  9  1  0  0  0  0
 22 29  1  0  0  0  0
 22  2  1  0  0  0  0
 24 11  2  0  0  0  0
 25 11  1  0  0  0  0
 25 23  1  0  0  0  0
 26 15  1  0  0  0  0
 28 20  1  0  0  0  0
 29 28  1  0  0  0  0
 30 10  1  0  0  0  0
 30 13  1  0  0  0  0
M  END
>  <MODEL>
5

>  <REMARK>
 VINA RESULT:      -6.4      3.470      7.964
  Name = 
  0 active torsions:
  status: ('A' for Active; 'I' for Inactive)
                            x       y       z     vdW  Elec       q    Type
                         _______ _______ _______ _____ _____    ______ ____

>  <TORSDO>
F 0

$$$$
=
 OpenBabel10272413573D

 30 35  0  0  1  0  0  0  0  0999 V2000
  187.9980  177.4000  144.2650 C   0  0  1  0  0  3  0  0  0  0  0  0
  189.3250  178.4720  147.6180 C   0  0  2  0  0  3  0  0  0  0  0  0
  191.4970  175.4810  144.8070 N   0  0  0  0  0  2  0  0  0  0  0  0
  188.9930  178.1260  145.1840 C   0  0  1  0  0  3  0  0  0  0  0  0
  186.6780  177.3470  144.8690 N   0  0  0  0  0  0  0  0  0  0  0  0
  185.4120  179.3930  142.1200 S   0  0  0  0  0  0  0  0  0  0  0  0
  188.3030  178.1700  140.4530 C   0  0  1  0  0  3  0  0  0  0  0  0
  186.3200  177.8930  142.6330 C   0  0  2  0  0  3  0  0  0  0  0  0
  184.4840  178.0010  144.2680 N   0  0  0  0  0  2  0  0  0  0  0  0
  190.2020  177.9640  142.1580 C   0  0  2  0  0  3  0  0  0  0  0  0
  190.9020  176.0030  143.6130 C   0  0  0  0  0  0  0  0  0  0  0  0
  185.7900  177.5540  143.9630 C   0  0  0  0  0  0  0  0  0  0  0  0
  187.7950  178.1470  142.9340 C   0  0  2  0  0  3  0  0  0  0  0  0
  190.7730  178.3640  148.0520 C   0  0  0  0  0  2  0  0  0  0  0  0
  191.2100  177.6080  141.0520 C   0  0  0  0  0  2  0  0  0  0  0  0
  189.4610  178.5630  139.5340 C   0  0  0  0  0  2  0  0  0  0  0  0
  182.8640  179.1270  142.9820 N   0  0  0  0  0  2  0  0  0  0  0  0
  188.3830  178.2600  148.7910 C   0  0  0  0  0  1  0  0  0  0  0  0
  191.8340  176.2820  145.9710 C   0  0  0  0  0  2  0  0  0  0  0  0
  191.0960  176.9130  148.3090 C   0  0  0  0  0  2  0  0  0  0  0  0
  184.1070  178.9350  143.2690 C   0  0  0  0  0  0  0  0  0  0  0  0
  188.9960  177.5390  146.5300 N   0  0  1  0  0  0  0  0  0  0  0  0
  190.4040  178.2880  144.5970 C   0  0  0  0  0  2  0  0  0  0  0  0
  190.6420  175.1990  142.6780 O   0  0  0  0  0  0  0  0  0  0  0  0
  190.6160  177.4120  143.4490 N   0  0  0  0  0  0  0  0  0  0  0  0
  190.5950  177.5600  139.6540 C   0  0  0  0  0  2  0  0  0  0  0  0
  187.4900  177.2370  139.8080 O   0  0  0  0  0  1  0  0  0  0  0  0
  190.7790  176.1140  147.0570 C   0  0  1  0  0  3  0  0  0  0  0  0
  189.4340  176.2320  146.6020 O   0  0  0  0  0  0  0  0  0  0  0  0
  188.7310  177.6160  141.8310 C   0  0  1  0  0  3  0  0  0  0  0  0
  1  5  1  1  0  0  0
  1  4  1  0  0  0  0
  2 14  1  0  0  0  0
  2 18  1  1  0  0  0
  3 19  1  0  0  0  0
  4 23  1  6  0  0  0
  4 22  1  0  0  0  0
  6 21  1  0  0  0  0
  7 27  1  6  0  0  0
  7 30  1  0  0  0  0
  8  6  1  1  0  0  0
  8 13  1  0  0  0  0
  8 12  1  0  0  0  0
 10 15  1  6  0  0  0
 10 25  1  0  0  0  0
 11  3  1  0  0  0  0
 12  9  1  0  0  0  0
 12  5  2  0  0  0  0
 13  1  1  0  0  0  0
 14 20  1  0  0  0  0
 16 26  1  0  0  0  0
 16  7  1  0  0  0  0
 17 21  2  0  0  0  0
 19 28  1  0  0  0  0
 21  9  1  0  0  0  0
 22 29  1  0  0  0  0
 22  2  1  0  0  0  0
 24 11  2  0  0  0  0
 25 11  1  0  0  0  0
 25 23  1  0  0  0  0
 26 15  1  0  0  0  0
 28 20  1  0  0  0  0
 29 28  1  0  0  0  0
 30 10  1  0  0  0  0
 30 13  1  0  0  0  0
M  END
>  <MODEL>
6

>  <REMARK>
 VINA RESULT:      -6.2      2.423      5.570
  Name = 
  0 active torsions:
  status: ('A' for Active; 'I' for Inactive)
                            x       y       z     vdW  Elec       q    Type
                         _______ _______ _______ _____ _____    ______ ____

>  <TORSDO>
F 0

$$$$
=
 OpenBabel10272413573D

 30 35  0  0  1  0  0  0  0  0999 V2000
  187.8540  177.2960  141.7240 C   0  0  1  0  0  3  0  0  0  0  0  0
  188.9950  178.7000  138.4270 C   0  0  2  0  0  3  0  0  0  0  0  0
  184.5590  177.7970  139.4630 N   0  0  0  0  0  2  0  0  0  0  0  0
  187.9660  178.4020  140.6640 C   0  0  1  0  0  3  0  0  0  0  0  0
  189.0170  176.4260  141.6910 N   0  0  0  0  0  0  0  0  0  0  0  0
  189.8430  177.5130  145.0800 S   0  0  0  0  0  0  0  0  0  0  0  0
  186.3960  178.3710  145.1810 C   0  0  1  0  0  3  0  0  0  0  0  0
  188.5920  176.8140  143.9490 C   0  0  2  0  0  3  0  0  0  0  0  0
  190.6590  175.6910  143.2280 N   0  0  0  0  0  2  0  0  0  0  0  0
  185.6960  179.2100  142.8650 C   0  0  2  0  0  3  0  0  0  0  0  0
  184.7460  177.9490  140.8750 C   0  0  0  0  0  0  0  0  0  0  0  0
  189.3580  176.1310  142.8940 C   0  0  0  0  0  0  0  0  0  0  0  0
  187.8300  177.8700  143.1530 C   0  0  2  0  0  3  0  0  0  0  0  0
  188.1090  179.4430  137.4460 C   0  0  0  0  0  2  0  0  0  0  0  0
  184.3020  179.6040  143.3840 C   0  0  0  0  0  2  0  0  0  0  0  0
  185.4000  179.4400  145.6310 C   0  0  0  0  0  2  0  0  0  0  0  0
  191.8630  175.7250  145.2520 N   0  0  0  0  0  2  0  0  0  0  0  0
  190.0540  177.8860  137.7020 C   0  0  0  0  0  1  0  0  0  0  0  0
  185.2830  178.5550  138.4560 C   0  0  0  0  0  2  0  0  0  0  0  0
  187.1820  178.4530  136.7850 C   0  0  0  0  0  2  0  0  0  0  0  0
  191.0090  176.2890  144.4670 C   0  0  0  0  0  0  0  0  0  0  0  0
  188.2260  177.8360  139.3340 N   0  0  1  0  0  0  0  0  0  0  0  0
  186.8070  179.4120  140.6690 C   0  0  0  0  0  2  0  0  0  0  0  0
  184.0670  177.2180  141.6460 O   0  0  0  0  0  0  0  0  0  0  0  0
  185.6630  178.9200  141.4300 N   0  0  0  0  0  0  0  0  0  0  0  0
  184.0930  179.3010  144.8670 C   0  0  0  0  0  2  0  0  0  0  0  0
  186.1610  177.1870  145.8810 O   0  0  0  0  0  1  0  0  0  0  0  0
  186.4070  177.7150  137.8630 C   0  0  1  0  0  3  0  0  0  0  0  0
  187.2170  177.0430  138.8240 O   0  0  0  0  0  0  0  0  0  0  0  0
  186.3900  178.0820  143.6620 C   0  0  1  0  0  3  0  0  0  0  0  0
  1  5  1  1  0  0  0
  1 13  1  0  0  0  0
  2 18  1  6  0  0  0
  2 22  1  0  0  0  0
  3 11  1  0  0  0  0
  4 23  1  6  0  0  0
  4  1  1  0  0  0  0
  5 12  2  0  0  0  0
  7 16  1  0  0  0  0
  7 27  1  1  0  0  0
  8 12  1  6  0  0  0
  8  6  1  0  0  0  0
  9 21  1  0  0  0  0
 10 15  1  1  0  0  0
 10 30  1  0  0  0  0
 11 25  1  0  0  0  0
 11 24  2  0  0  0  0
 12  9  1  0  0  0  0
 13 30  1  0  0  0  0
 13  8  1  0  0  0  0
 14  2  1  0  0  0  0
 15 26  1  0  0  0  0
 19  3  1  0  0  0  0
 20 14  1  0  0  0  0
 20 28  1  0  0  0  0
 21  6  1  0  0  0  0
 21 17  2  0  0  0  0
 22  4  1  0  0  0  0
 23 25  1  0  0  0  0
 25 10  1  0  0  0  0
 26 16  1  0  0  0  0
 28 19  1  0  0  0  0
 28 29  1  0  0  0  0
 29 22  1  0  0  0  0
 30  7  1  0  0  0  0
M  END
>  <MODEL>
7

>  <REMARK>
 VINA RESULT:      -5.9      2.425      5.165
  Name = 
  0 active torsions:
  status: ('A' for Active; 'I' for Inactive)
                            x       y       z     vdW  Elec       q    Type
                         _______ _______ _______ _____ _____    ______ ____

>  <TORSDO>
F 0

$$$$
=
 OpenBabel10272413573D

 30 35  0  0  1  0  0  0  0  0999 V2000
  184.8340  177.1910  137.6210 C   0  0  1  0  0  3  0  0  0  0  0  0
  188.2020  178.1660  136.2620 C   0  0  2  0  0  3  0  0  0  0  0  0
  186.9800  173.8010  137.2710 N   0  0  0  0  0  2  0  0  0  0  0  0
  185.9220  177.2300  136.5380 C   0  0  1  0  0  3  0  0  0  0  0  0
  184.8910  178.3780  138.4570 N   0  0  0  0  0  0  0  0  0  0  0  0
  181.5620  179.2960  137.2670 S   0  0  0  0  0  0  0  0  0  0  0  0
  181.3500  175.8300  136.5090 C   0  0  1  0  0  3  0  0  0  0  0  0
  182.6280  178.0250  138.0290 C   0  0  2  0  0  3  0  0  0  0  0  0
  183.4010  180.0970  139.1070 N   0  0  0  0  0  2  0  0  0  0  0  0
  183.6560  175.0200  135.7460 C   0  0  2  0  0  3  0  0  0  0  0  0
  185.5800  174.0350  137.0810 C   0  0  0  0  0  0  0  0  0  0  0  0
  183.6960  178.7720  138.7140 C   0  0  0  0  0  0  0  0  0  0  0  0
  183.4180  177.2020  137.0150 C   0  0  2  0  0  3  0  0  0  0  0  0
  189.1650  177.2220  135.5690 C   0  0  0  0  0  2  0  0  0  0  0  0
  183.0930  173.6350  135.3820 C   0  0  0  0  0  2  0  0  0  0  0  0
  180.8860  174.8190  135.4600 C   0  0  0  0  0  2  0  0  0  0  0  0
  181.4250  181.3740  138.9900 N   0  0  0  0  0  2  0  0  0  0  0  0
  188.9480  179.2220  137.0610 C   0  0  0  0  0  1  0  0  0  0  0  0
  188.0300  174.4640  136.5160 C   0  0  0  0  0  2  0  0  0  0  0  0
  189.7690  176.3020  136.6010 C   0  0  0  0  0  2  0  0  0  0  0  0
  182.1900  180.4740  138.4700 C   0  0  0  0  0  0  0  0  0  0  0  0
  187.2470  177.4580  137.1270 N   0  0  1  0  0  0  0  0  0  0  0  0
  185.8960  176.0420  135.5620 C   0  0  0  0  0  2  0  0  0  0  0  0
  184.7680  173.4080  137.8130 O   0  0  0  0  0  0  0  0  0  0  0  0
  185.0810  174.9430  136.0710 N   0  0  0  0  0  0  0  0  0  0  0  0
  181.5970  173.4900  135.6550 C   0  0  0  0  0  2  0  0  0  0  0  0
  180.6140  175.6570  137.6830 O   0  0  0  0  0  1  0  0  0  0  0  0
  188.6460  175.5900  137.3360 C   0  0  1  0  0  3  0  0  0  0  0  0
  187.7020  176.4560  137.9610 O   0  0  0  0  0  0  0  0  0  0  0  0
  182.8600  175.7770  136.8340 C   0  0  1  0  0  3  0  0  0  0  0  0
  1  5  1  1  0  0  0
  2 18  1  1  0  0  0
  2 22  1  0  0  0  0
  4 23  1  1  0  0  0
  4 22  1  0  0  0  0
  4  1  1  0  0  0  0
  5 12  2  0  0  0  0
  6 21  1  0  0  0  0
  7 30  1  0  0  0  0
  7 27  1  1  0  0  0
  8  6  1  6  0  0  0
  8 12  1  0  0  0  0
 10 15  1  1  0  0  0
 10 25  1  0  0  0  0
 10 30  1  0  0  0  0
 11  3  1  0  0  0  0
 11 24  2  0  0  0  0
 12  9  1  0  0  0  0
 13  1  1  0  0  0  0
 13  8  1  0  0  0  0
 14  2  1  0  0  0  0
 14 20  1  0  0  0  0
 15 26  1  0  0  0  0
 16 26  1  0  0  0  0
 16  7  1  0  0  0  0
 19  3  1  0  0  0  0
 19 28  1  0  0  0  0
 20 28  1  0  0  0  0
 21 17  2  0  0  0  0
 21  9  1  0  0  0  0
 22 29  1  0  0  0  0
 23 25  1  0  0  0  0
 25 11  1  0  0  0  0
 28 29  1  0  0  0  0
 30 13  1  0  0  0  0
M  END
>  <MODEL>
8

>  <REMARK>
 VINA RESULT:      -5.8      5.374      7.247
  Name = 
  0 active torsions:
  status: ('A' for Active; 'I' for Inactive)
                            x       y       z     vdW  Elec       q    Type
                         _______ _______ _______ _____ _____    ______ ____

>  <TORSDO>
F 0

$$$$
=
 OpenBabel10272413573D

 30 35  0  0  1  0  0  0  0  0999 V2000
  184.7160  175.8380  136.6140 C   0  0  1  0  0  3  0  0  0  0  0  0
  183.0860  172.4710  137.0050 C   0  0  2  0  0  3  0  0  0  0  0  0
  186.8120  173.2540  134.3460 N   0  0  0  0  0  2  0  0  0  0  0  0
  184.6680  174.3800  137.0940 C   0  0  1  0  0  3  0  0  0  0  0  0
  183.3830  176.4150  136.5730 N   0  0  0  0  0  0  0  0  0  0  0  0
  184.4090  178.8010  139.1420 S   0  0  0  0  0  0  0  0  0  0  0  0
  187.6670  177.9980  137.9730 C   0  0  1  0  0  3  0  0  0  0  0  0
  184.7450  178.0580  137.5090 C   0  0  2  0  0  3  0  0  0  0  0  0
  182.2970  178.3030  137.4990 N   0  0  0  0  0  2  0  0  0  0  0  0
  187.7160  175.5200  137.3310 C   0  0  2  0  0  3  0  0  0  0  0  0
  187.2500  174.3870  135.1060 C   0  0  0  0  0  0  0  0  0  0  0  0
  183.4330  177.6260  137.0010 C   0  0  0  0  0  0  0  0  0  0  0  0
  185.5060  176.7370  137.5840 C   0  0  2  0  0  3  0  0  0  0  0  0
  183.7540  171.1440  136.7070 C   0  0  0  0  0  2  0  0  0  0  0  0
  189.2330  175.5740  137.0780 C   0  0  0  0  0  2  0  0  0  0  0  0
  189.0990  177.6900  138.4140 C   0  0  0  0  0  2  0  0  0  0  0  0
  182.0690  180.1420  138.9530 N   0  0  0  0  0  2  0  0  0  0  0  0
  181.6020  172.4230  136.6830 C   0  0  0  0  0  1  0  0  0  0  0  0
  186.1340  172.1010  134.9140 C   0  0  0  0  0  2  0  0  0  0  0  0
  183.8790  170.9890  135.2110 C   0  0  0  0  0  2  0  0  0  0  0  0
  182.7130  179.0760  138.6130 C   0  0  0  0  0  0  0  0  0  0  0  0
  183.7220  173.5910  136.2950 N   0  0  1  0  0  0  0  0  0  0  0  0
  186.0430  173.7070  137.2310 C   0  0  0  0  0  2  0  0  0  0  0  0
  187.8120  175.3330  134.4920 O   0  0  0  0  0  0  0  0  0  0  0  0
  187.0850  174.4610  136.5410 N   0  0  0  0  0  0  0  0  0  0  0  0
  189.8440  176.9540  137.3130 C   0  0  0  0  0  2  0  0  0  0  0  0
  187.6510  179.1800  137.2300 O   0  0  0  0  0  1  0  0  0  0  0  0
  184.6350  172.1850  134.6590 C   0  0  1  0  0  3  0  0  0  0  0  0
  184.0500  173.4490  134.9610 O   0  0  0  0  0  0  0  0  0  0  0  0
  186.9830  176.8710  137.1660 C   0  0  1  0  0  3  0  0  0  0  0  0
  1  5  1  1  0  0  0
  1  4  1  0  0  0  0
  1 13  1  0  0  0  0
  2 18  1  6  0  0  0
  3 19  1  0  0  0  0
  3 11  1  0  0  0  0
  4 23  1  6  0  0  0
  5 12  2  0  0  0  0
  7 27  1  6  0  0  0
  7 16  1  0  0  0  0
  8 12  1  1  0  0  0
  8 13  1  0  0  0  0
  8  6  1  0  0  0  0
  9 21  1  0  0  0  0
 10 15  1  6  0  0  0
 11 25  1  0  0  0  0
 12  9  1  0  0  0  0
 14  2  1  0  0  0  0
 15 26  1  0  0  0  0
 20 14  1  0  0  0  0
 21 17  2  0  0  0  0
 21  6  1  0  0  0  0
 22  2  1  0  0  0  0
 22  4  1  0  0  0  0
 24 11  2  0  0  0  0
 25 23  1  0  0  0  0
 25 10  1  0  0  0  0
 26 16  1  0  0  0  0
 28 19  1  0  0  0  0
 28 29  1  0  0  0  0
 28 20  1  0  0  0  0
 29 22  1  0  0  0  0
 30 10  1  0  0  0  0
 30 13  1  0  0  0  0
 30  7  1  0  0  0  0
M  END
>  <MODEL>
9

>  <REMARK>
 VINA RESULT:      -5.7      5.205      7.686
  Name = 
  0 active torsions:
  status: ('A' for Active; 'I' for Inactive)
                            x       y       z     vdW  Elec       q    Type
                         _______ _______ _______ _____ _____    ______ ____

>  <TORSDO>
F 0

$$$$
