=
 OpenBabel10272415313D

 34 39  0  0  1  0  0  0  0  0999 V2000
  188.2610  177.9200  142.9310 C   0  0  0  0  0  0  0  0  0  0  0  0
  188.3090  177.4010  146.5820 C   0  0  0  0  0  3  0  0  0  0  0  0
  186.4760  178.2020  145.2540 C   0  0  0  0  0  2  0  0  0  0  0  0
  188.3940  178.3240  140.5550 C   0  0  0  0  0  0  0  0  0  0  0  0
  188.9930  178.0410  141.6910 N   0  0  0  0  0  0  0  0  0  0  0  0
  186.2160  178.3620  141.7000 C   0  0  0  0  0  0  0  0  0  0  0  0
  184.9430  178.7820  142.0560 C   0  0  0  0  0  3  0  0  0  0  0  0
  186.9610  178.5420  140.4950 N   0  0  0  0  0  2  0  0  0  0  0  0
  186.0200  178.2220  143.8690 N   0  0  0  0  0  0  0  0  0  0  0  0
  186.8320  178.0400  142.8430 C   0  0  0  0  0  0  0  0  0  0  0  0
  184.8580  178.6730  143.4140 N   0  0  0  0  0  0  0  0  0  0  0  0
  189.5980  176.9250  147.0950 C   0  0  0  0  0  3  0  0  0  0  0  0
  190.8040  176.8780  146.5240 C   0  0  0  0  0  0  0  0  0  0  0  0
  191.1100  177.3550  145.1660 C   0  0  0  0  0  3  0  0  0  0  0  0
  187.9380  177.7680  145.3590 C   0  0  0  0  0  0  0  0  0  0  0  0
  190.2980  177.7180  144.1800 C   0  0  0  0  0  3  0  0  0  0  0  0
  188.8300  177.7720  144.1420 C   0  0  0  0  0  0  0  0  0  0  0  0
  191.8950  176.3630  147.3060 N   0  0  0  0  0  0  0  0  0  0  0  0
  192.3310  177.0280  148.4030 O   0  0  0  0  0  1  0  0  0  0  0  0
  192.5210  175.1600  146.9530 N   0  0  0  0  0  1  0  0  0  0  0  0
  189.1950  178.3630  139.2890 C   0  0  0  0  0  2  0  0  0  0  0  0
  189.5290  177.1620  137.0940 C   0  0  0  0  0  0  0  0  0  0  0  0
  190.4280  176.1820  139.0210 C   0  0  0  0  0  3  0  0  0  0  0  0
  192.4700  175.5430  135.4600 N   0  0  0  0  0  0  0  0  0  0  0  0
  193.3040  175.5550  136.6940 C   0  0  2  0  0  0  0  0  0  0  0  0
  191.3920  176.5510  135.4800 C   0  0  0  0  0  2  0  0  0  0  0  0
  194.4490  174.5630  136.5650 C   0  0  0  0  0  1  0  0  0  0  0  0
  190.6630  176.5590  136.7910 C   0  0  0  0  0  0  0  0  0  0  0  0
  191.8640  174.2310  135.2260 C   0  0  0  0  0  1  0  0  0  0  0  0
  192.4920  175.2020  137.9600 C   0  0  0  0  0  2  0  0  0  0  0  0
  191.2230  175.9820  137.9810 C   0  0  0  0  0  0  0  0  0  0  0  0
  193.8660  176.8250  136.8610 O   0  0  0  0  0  1  0  0  0  0  0  0
  189.2530  177.0090  138.5640 C   0  0  1  0  0  3  0  0  0  0  0  0
  188.6700  177.9070  136.1290 C   0  0  0  0  0  1  0  0  0  0  0  0
  1 17  2  0  0  0  0
  2 12  1  0  0  0  0
  3 15  1  0  0  0  0
  4  5  2  0  0  0  0
  5  1  1  0  0  0  0
  6  7  1  0  0  0  0
  6 10  2  0  0  0  0
  7 11  2  0  0  0  0
  8  4  1  0  0  0  0
  8  6  1  0  0  0  0
  9  3  1  0  0  0  0
 10  1  1  0  0  0  0
 10  9  1  0  0  0  0
 11  9  1  0  0  0  0
 13 12  2  0  0  0  0
 13 18  1  0  0  0  0
 14 13  1  0  0  0  0
 15  2  2  0  0  0  0
 16 14  2  0  0  0  0
 17 16  1  0  0  0  0
 17 15  1  0  0  0  0
 18 19  1  0  0  0  0
 20 18  1  0  0  0  0
 21  4  1  0  0  0  0
 22 33  1  0  0  0  0
 24 26  1  0  0  0  0
 24 25  1  0  0  0  0
 25 27  1  6  0  0  0
 25 32  1  0  0  0  0
 25 30  1  0  0  0  0
 26 28  1  0  0  0  0
 28 22  2  0  0  0  0
 28 31  1  0  0  0  0
 29 24  1  0  0  0  0
 30 31  1  0  0  0  0
 31 23  2  0  0  0  0
 33 23  1  0  0  0  0
 33 21  1  1  0  0  0
 34 22  1  0  0  0  0
M  END
>  <MODEL>
1

>  <REMARK>
 VINA RESULT:     -10.7      0.000      0.000
  Name = 
  3 active torsions:
  status: ('A' for Active; 'I' for Inactive)
    1  A    between atoms: N_3  and  C_25
    2  A    between atoms: C_8  and  C_18
    3  A    between atoms: C_18  and  C_30
                            x       y       z     vdW  Elec       q    Type
                         _______ _______ _______ _____ _____    ______ ____

>  <TORSDO>
F 3

$$$$
=
 OpenBabel10272415313D

 34 39  0  0  1  0  0  0  0  0999 V2000
  187.7300  177.6650  144.4200 C   0  0  0  0  0  0  0  0  0  0  0  0
  184.4720  178.6870  145.8170 C   0  0  0  0  0  3  0  0  0  0  0  0
  186.4350  178.0370  147.0370 C   0  0  0  0  0  2  0  0  0  0  0  0
  189.7720  176.9070  143.3810 C   0  0  0  0  0  0  0  0  0  0  0  0
  188.5040  177.2410  143.2770 N   0  0  0  0  0  0  0  0  0  0  0  0
  189.7180  177.4160  145.7880 C   0  0  0  0  0  0  0  0  0  0  0  0
  189.9470  177.2810  147.1490 C   0  0  0  0  0  3  0  0  0  0  0  0
  190.4540  176.9360  144.6620 N   0  0  0  0  0  2  0  0  0  0  0  0
  187.8750  177.8970  146.8530 N   0  0  0  0  0  0  0  0  0  0  0  0
  188.4400  177.7850  145.6630 C   0  0  0  0  0  0  0  0  0  0  0  0
  188.7780  177.5960  147.7790 N   0  0  0  0  0  0  0  0  0  0  0  0
  183.4640  178.9990  144.7990 C   0  0  0  0  0  3  0  0  0  0  0  0
  183.4380  178.7520  143.4880 C   0  0  0  0  0  0  0  0  0  0  0  0
  184.4910  178.0380  142.7470 C   0  0  0  0  0  3  0  0  0  0  0  0
  185.7120  178.2180  145.7040 C   0  0  0  0  0  0  0  0  0  0  0  0
  185.7150  177.6850  143.1190 C   0  0  0  0  0  3  0  0  0  0  0  0
  186.4020  177.8840  144.4030 C   0  0  0  0  0  0  0  0  0  0  0  0
  182.2800  179.1750  142.7500 N   0  0  0  0  0  0  0  0  0  0  0  0
  181.3170  179.9210  143.3450 O   0  0  0  0  0  1  0  0  0  0  0  0
  182.1280  178.8300  141.4000 N   0  0  0  0  0  1  0  0  0  0  0  0
  190.5430  176.5470  142.1480 C   0  0  0  0  0  2  0  0  0  0  0  0
  191.2270  177.2420  139.8200 C   0  0  0  0  0  0  0  0  0  0  0  0
  188.9500  177.3270  140.3590 C   0  0  0  0  0  3  0  0  0  0  0  0
  189.9150  176.4770  136.4080 N   0  0  0  0  0  0  0  0  0  0  0  0
  188.6440  175.8860  136.9090 C   0  0  2  0  0  0  0  0  0  0  0  0
  190.9960  176.4610  137.4150 C   0  0  0  0  0  2  0  0  0  0  0  0
  187.6090  175.8460  135.7950 C   0  0  0  0  0  1  0  0  0  0  0  0
  190.5130  176.9260  138.7560 C   0  0  0  0  0  0  0  0  0  0  0  0
  189.7330  177.8580  135.9570 C   0  0  0  0  0  1  0  0  0  0  0  0
  188.0520  176.6730  138.0980 C   0  0  0  0  0  2  0  0  0  0  0  0
  189.1180  176.9540  139.0990 C   0  0  0  0  0  0  0  0  0  0  0  0
  188.8740  174.5670  137.3140 O   0  0  0  0  0  1  0  0  0  0  0  0
  190.3110  177.5180  140.9790 C   0  0  1  0  0  3  0  0  0  0  0  0
  192.7170  177.2890  139.8690 C   0  0  0  0  0  1  0  0  0  0  0  0
  1 10  1  0  0  0  0
  4  8  1  0  0  0  0
  5  4  2  0  0  0  0
  5  1  1  0  0  0  0
  6  7  1  0  0  0  0
  7 11  2  0  0  0  0
  8  6  1  0  0  0  0
  9  3  1  0  0  0  0
  9 11  1  0  0  0  0
 10  6  2  0  0  0  0
 10  9  1  0  0  0  0
 12  2  1  0  0  0  0
 13 12  2  0  0  0  0
 14 16  2  0  0  0  0
 14 13  1  0  0  0  0
 15  2  2  0  0  0  0
 15  3  1  0  0  0  0
 16 17  1  0  0  0  0
 17  1  2  0  0  0  0
 17 15  1  0  0  0  0
 18 19  1  0  0  0  0
 18 13  1  0  0  0  0
 20 18  1  0  0  0  0
 21  4  1  0  0  0  0
 22 34  1  0  0  0  0
 22 33  1  0  0  0  0
 23 33  1  0  0  0  0
 24 25  1  0  0  0  0
 24 26  1  0  0  0  0
 25 27  1  6  0  0  0
 25 32  1  0  0  0  0
 25 30  1  0  0  0  0
 26 28  1  0  0  0  0
 28 31  1  0  0  0  0
 28 22  2  0  0  0  0
 29 24  1  0  0  0  0
 30 31  1  0  0  0  0
 31 23  2  0  0  0  0
 33 21  1  1  0  0  0
M  END
>  <MODEL>
2

>  <REMARK>
 VINA RESULT:     -10.3      3.038      5.608
  Name = 
  3 active torsions:
  status: ('A' for Active; 'I' for Inactive)
    1  A    between atoms: N_3  and  C_25
    2  A    between atoms: C_8  and  C_18
    3  A    between atoms: C_18  and  C_30
                            x       y       z     vdW  Elec       q    Type
                         _______ _______ _______ _____ _____    ______ ____

>  <TORSDO>
F 3

$$$$
=
 OpenBabel10272415313D

 34 39  0  0  1  0  0  0  0  0999 V2000
  189.0860  177.8470  141.3490 C   0  0  0  0  0  0  0  0  0  0  0  0
  187.1020  178.1950  138.2580 C   0  0  0  0  0  3  0  0  0  0  0  0
  189.4820  177.9240  138.4340 C   0  0  0  0  0  2  0  0  0  0  0  0
  190.2790  177.7430  143.4450 C   0  0  0  0  0  0  0  0  0  0  0  0
  189.1620  177.9650  142.7870 N   0  0  0  0  0  0  0  0  0  0  0  0
  191.4230  177.1940  141.3360 C   0  0  0  0  0  0  0  0  0  0  0  0
  192.4140  177.1620  140.3670 C   0  0  0  0  0  3  0  0  0  0  0  0
  191.5000  177.3780  142.7500 N   0  0  0  0  0  2  0  0  0  0  0  0
  190.4910  177.4660  139.3810 N   0  0  0  0  0  0  0  0  0  0  0  0
  190.2730  177.3900  140.6820 C   0  0  0  0  0  0  0  0  0  0  0  0
  191.7940  177.3280  139.1620 N   0  0  0  0  0  0  0  0  0  0  0  0
  185.6660  178.3710  138.4940 C   0  0  0  0  0  3  0  0  0  0  0  0
  184.9910  178.6650  139.6080 C   0  0  0  0  0  0  0  0  0  0  0  0
  185.6060  178.9150  140.9210 C   0  0  0  0  0  3  0  0  0  0  0  0
  188.1240  178.1160  139.1070 C   0  0  0  0  0  0  0  0  0  0  0  0
  186.8500  178.7160  141.3390 C   0  0  0  0  0  3  0  0  0  0  0  0
  188.0150  178.1950  140.6100 C   0  0  0  0  0  0  0  0  0  0  0  0
  183.5620  178.7900  139.5110 N   0  0  0  0  0  0  0  0  0  0  0  0
  183.0040  179.7160  138.6940 O   0  0  0  0  0  1  0  0  0  0  0  0
  182.7210  177.9510  140.2540 N   0  0  0  0  0  1  0  0  0  0  0  0
  190.2790  177.8090  144.9410 C   0  0  0  0  0  2  0  0  0  0  0  0
  188.4780  177.8860  146.7090 C   0  0  0  0  0  0  0  0  0  0  0  0
  187.9200  176.9800  144.6230 C   0  0  0  0  0  3  0  0  0  0  0  0
  184.8920  178.9280  146.6950 N   0  0  0  0  0  0  0  0  0  0  0  0
  184.7940  178.9700  145.2090 C   0  0  2  0  0  0  0  0  0  0  0  0
  186.2780  179.0600  147.1880 C   0  0  0  0  0  2  0  0  0  0  0  0
  183.3370  178.9260  144.7770 C   0  0  0  0  0  1  0  0  0  0  0  0
  187.2260  178.1880  146.4200 C   0  0  0  0  0  0  0  0  0  0  0  0
  184.3300  177.6930  147.2430 C   0  0  0  0  0  1  0  0  0  0  0  0
  185.5390  177.7980  144.5350 C   0  0  0  0  0  2  0  0  0  0  0  0
  186.8970  177.6520  145.1290 C   0  0  0  0  0  0  0  0  0  0  0  0
  185.3340  180.1730  144.7440 O   0  0  0  0  0  1  0  0  0  0  0  0
  189.0780  177.0930  145.5820 C   0  0  1  0  0  3  0  0  0  0  0  0
  189.1940  178.2970  147.9510 C   0  0  0  0  0  1  0  0  0  0  0  0
  1  5  1  0  0  0  0
  2 12  1  0  0  0  0
  2 15  2  0  0  0  0
  3 15  1  0  0  0  0
  3  9  1  0  0  0  0
  4 21  1  0  0  0  0
  5  4  2  0  0  0  0
  6  8  1  0  0  0  0
  7  6  1  0  0  0  0
  8  4  1  0  0  0  0
  9 10  1  0  0  0  0
 10  6  2  0  0  0  0
 10  1  1  0  0  0  0
 11  9  1  0  0  0  0
 11  7  2  0  0  0  0
 12 13  2  0  0  0  0
 13 14  1  0  0  0  0
 14 16  2  0  0  0  0
 15 17  1  0  0  0  0
 17 16  1  0  0  0  0
 17  1  2  0  0  0  0
 18 13  1  0  0  0  0
 18 20  1  0  0  0  0
 19 18  1  0  0  0  0
 22 34  1  0  0  0  0
 23 31  2  0  0  0  0
 23 33  1  0  0  0  0
 24 26  1  0  0  0  0
 24 29  1  0  0  0  0
 25 27  1  6  0  0  0
 25 24  1  0  0  0  0
 28 22  2  0  0  0  0
 28 26  1  0  0  0  0
 30 31  1  0  0  0  0
 30 25  1  0  0  0  0
 31 28  1  0  0  0  0
 32 25  1  0  0  0  0
 33 21  1  6  0  0  0
 33 22  1  0  0  0  0
M  END
>  <MODEL>
3

>  <REMARK>
 VINA RESULT:      -9.8      3.597      9.210
  Name = 
  3 active torsions:
  status: ('A' for Active; 'I' for Inactive)
    1  A    between atoms: N_3  and  C_25
    2  A    between atoms: C_8  and  C_18
    3  A    between atoms: C_18  and  C_30
                            x       y       z     vdW  Elec       q    Type
                         _______ _______ _______ _____ _____    ______ ____

>  <TORSDO>
F 3

$$$$
=
 OpenBabel10272415313D

 34 39  0  0  1  0  0  0  0  0999 V2000
  187.3700  178.1090  141.7820 C   0  0  0  0  0  0  0  0  0  0  0  0
  185.9270  178.0710  145.1770 C   0  0  0  0  0  3  0  0  0  0  0  0
  184.8300  178.7160  143.1400 C   0  0  0  0  0  2  0  0  0  0  0  0
  188.4650  178.1980  139.6330 C   0  0  0  0  0  0  0  0  0  0  0  0
  188.5410  178.0570  140.9390 N   0  0  0  0  0  0  0  0  0  0  0  0
  186.0180  178.4140  139.7910 C   0  0  0  0  0  0  0  0  0  0  0  0
  184.7390  178.8930  139.5520 C   0  0  0  0  0  3  0  0  0  0  0  0
  187.1910  178.4250  138.9760 N   0  0  0  0  0  2  0  0  0  0  0  0
  184.9660  178.5610  141.6970 N   0  0  0  0  0  0  0  0  0  0  0  0
  186.1060  178.2360  141.1130 C   0  0  0  0  0  0  0  0  0  0  0  0
  184.1130  178.9640  140.7630 N   0  0  0  0  0  0  0  0  0  0  0  0
  186.8720  177.6490  146.2160 C   0  0  0  0  0  3  0  0  0  0  0  0
  188.1990  177.5110  146.1890 C   0  0  0  0  0  0  0  0  0  0  0  0
  189.0500  177.8030  145.0250 C   0  0  0  0  0  3  0  0  0  0  0  0
  186.0980  178.2800  143.8740 C   0  0  0  0  0  0  0  0  0  0  0  0
  188.7240  178.0450  143.7610 C   0  0  0  0  0  3  0  0  0  0  0  0
  187.3990  178.1130  143.1280 C   0  0  0  0  0  0  0  0  0  0  0  0
  188.8520  177.0880  147.3980 N   0  0  0  0  0  0  0  0  0  0  0  0
  188.2310  177.2080  148.5970 O   0  0  0  0  0  1  0  0  0  0  0  0
  190.1400  176.5380  147.3580 N   0  0  0  0  0  1  0  0  0  0  0  0
  189.7040  178.0600  138.8020 C   0  0  0  0  0  2  0  0  0  0  0  0
  190.1220  176.4810  136.8780 C   0  0  0  0  0  0  0  0  0  0  0  0
  191.3400  176.1450  138.8490 C   0  0  0  0  0  3  0  0  0  0  0  0
  193.2110  175.1140  135.2860 N   0  0  0  0  0  0  0  0  0  0  0  0
  194.1090  175.5590  136.3870 C   0  0  2  0  0  0  0  0  0  0  0  0
  191.9500  175.8810  135.2220 C   0  0  0  0  0  2  0  0  0  0  0  0
  195.4230  174.7950  136.3340 C   0  0  0  0  0  1  0  0  0  0  0  0
  191.3320  176.0480  136.5770 C   0  0  0  0  0  0  0  0  0  0  0  0
  192.8740  173.6940  135.3990 C   0  0  0  0  0  1  0  0  0  0  0  0
  193.4810  175.3550  137.7830 C   0  0  0  0  0  2  0  0  0  0  0  0
  192.0830  175.8680  137.7890 C   0  0  0  0  0  0  0  0  0  0  0  0
  194.4060  176.9160  136.2220 O   0  0  0  0  0  1  0  0  0  0  0  0
  189.9890  176.6130  138.3700 C   0  0  1  0  0  3  0  0  0  0  0  0
  189.0600  176.8150  135.8850 C   0  0  0  0  0  1  0  0  0  0  0  0
  1 17  2  0  0  0  0
  2 12  1  0  0  0  0
  3 15  1  0  0  0  0
  4  5  2  0  0  0  0
  5  1  1  0  0  0  0
  6 10  2  0  0  0  0
  7  6  1  0  0  0  0
  7 11  2  0  0  0  0
  8  4  1  0  0  0  0
  8  6  1  0  0  0  0
  9  3  1  0  0  0  0
 10  9  1  0  0  0  0
 10  1  1  0  0  0  0
 11  9  1  0  0  0  0
 13 12  2  0  0  0  0
 13 18  1  0  0  0  0
 14 13  1  0  0  0  0
 15  2  2  0  0  0  0
 16 14  2  0  0  0  0
 17 16  1  0  0  0  0
 17 15  1  0  0  0  0
 18 19  1  0  0  0  0
 20 18  1  0  0  0  0
 21  4  1  0  0  0  0
 22 33  1  0  0  0  0
 24 29  1  0  0  0  0
 24 25  1  0  0  0  0
 25 27  1  6  0  0  0
 25 30  1  0  0  0  0
 26 24  1  0  0  0  0
 26 28  1  0  0  0  0
 28 22  2  0  0  0  0
 28 31  1  0  0  0  0
 30 31  1  0  0  0  0
 31 23  2  0  0  0  0
 32 25  1  0  0  0  0
 33 21  1  6  0  0  0
 33 23  1  0  0  0  0
 34 22  1  0  0  0  0
M  END
>  <MODEL>
4

>  <REMARK>
 VINA RESULT:      -9.7      1.475      1.941
  Name = 
  3 active torsions:
  status: ('A' for Active; 'I' for Inactive)
    1  A    between atoms: N_3  and  C_25
    2  A    between atoms: C_8  and  C_18
    3  A    between atoms: C_18  and  C_30
                            x       y       z     vdW  Elec       q    Type
                         _______ _______ _______ _____ _____    ______ ____

>  <TORSDO>
F 3

$$$$
=
 OpenBabel10272415313D

 34 39  0  0  1  0  0  0  0  0999 V2000
  185.2540  178.3000  143.3400 C   0  0  0  0  0  0  0  0  0  0  0  0
  181.6740  179.1870  143.3050 C   0  0  0  0  0  3  0  0  0  0  0  0
  183.0590  178.8150  145.2310 C   0  0  0  0  0  2  0  0  0  0  0  0
  187.5650  177.6110  143.2250 C   0  0  0  0  0  0  0  0  0  0  0  0
  186.4170  177.8320  142.6210 N   0  0  0  0  0  0  0  0  0  0  0  0
  186.5920  178.3420  145.3640 C   0  0  0  0  0  0  0  0  0  0  0  0
  186.2980  178.3570  146.7190 C   0  0  0  0  0  3  0  0  0  0  0  0
  187.7140  177.8170  144.6540 N   0  0  0  0  0  2  0  0  0  0  0  0
  184.4670  178.7750  145.6080 N   0  0  0  0  0  0  0  0  0  0  0  0
  185.4400  178.5940  144.7330 C   0  0  0  0  0  0  0  0  0  0  0  0
  184.9670  178.6370  146.8310 N   0  0  0  0  0  0  0  0  0  0  0  0
  181.1100  179.3180  141.9570 C   0  0  0  0  0  3  0  0  0  0  0  0
  181.5890  178.9460  140.7680 C   0  0  0  0  0  0  0  0  0  0  0  0
  182.8690  178.2510  140.5580 C   0  0  0  0  0  3  0  0  0  0  0  0
  182.8830  178.8100  143.7130 C   0  0  0  0  0  0  0  0  0  0  0  0
  183.8760  178.0340  141.3950 C   0  0  0  0  0  3  0  0  0  0  0  0
  184.0220  178.4090  142.8080 C   0  0  0  0  0  0  0  0  0  0  0  0
  180.7760  179.2020  139.6100 N   0  0  0  0  0  0  0  0  0  0  0  0
  180.2090  178.1800  138.9250 O   0  0  0  0  0  1  0  0  0  0  0  0
  180.5500  180.5140  139.1740 N   0  0  0  0  0  1  0  0  0  0  0  0
  188.7560  177.1970  142.4150 C   0  0  0  0  0  2  0  0  0  0  0  0
  189.9170  177.4590  140.1890 C   0  0  0  0  0  0  0  0  0  0  0  0
  187.7540  178.3300  140.3990 C   0  0  0  0  0  3  0  0  0  0  0  0
  188.8590  176.9280  136.6480 N   0  0  0  0  0  0  0  0  0  0  0  0
  187.4100  176.8270  136.9790 C   0  0  2  0  0  0  0  0  0  0  0  0
  189.7370  176.6280  137.7970 C   0  0  0  0  0  2  0  0  0  0  0  0
  186.5700  177.0510  135.7320 C   0  0  0  0  0  1  0  0  0  0  0  0
  189.2760  177.3210  139.0440 C   0  0  0  0  0  0  0  0  0  0  0  0
  189.2090  178.2550  136.1400 C   0  0  0  0  0  1  0  0  0  0  0  0
  186.9760  177.8480  138.0520 C   0  0  0  0  0  2  0  0  0  0  0  0
  187.9420  177.8330  139.1870 C   0  0  0  0  0  0  0  0  0  0  0  0
  187.1320  175.5390  137.4470 O   0  0  0  0  0  1  0  0  0  0  0  0
  189.0110  178.1040  141.2010 C   0  0  1  0  0  3  0  0  0  0  0  0
  191.3180  177.0150  140.4470 C   0  0  0  0  0  1  0  0  0  0  0  0
  1 10  1  0  0  0  0
  2 15  2  0  0  0  0
  3  9  1  0  0  0  0
  4  8  1  0  0  0  0
  5  4  2  0  0  0  0
  5  1  1  0  0  0  0
  6  7  1  0  0  0  0
  7 11  2  0  0  0  0
  8  6  1  0  0  0  0
  9 11  1  0  0  0  0
 10  6  2  0  0  0  0
 10  9  1  0  0  0  0
 12  2  1  0  0  0  0
 13 12  2  0  0  0  0
 14 13  1  0  0  0  0
 14 16  2  0  0  0  0
 15  3  1  0  0  0  0
 16 17  1  0  0  0  0
 17  1  2  0  0  0  0
 17 15  1  0  0  0  0
 18 13  1  0  0  0  0
 19 18  1  0  0  0  0
 20 18  1  0  0  0  0
 21  4  1  0  0  0  0
 22 34  1  0  0  0  0
 22 33  1  0  0  0  0
 23 33  1  0  0  0  0
 24 25  1  0  0  0  0
 24 26  1  0  0  0  0
 25 27  1  6  0  0  0
 25 32  1  0  0  0  0
 25 30  1  0  0  0  0
 26 28  1  0  0  0  0
 28 31  1  0  0  0  0
 28 22  2  0  0  0  0
 29 24  1  0  0  0  0
 30 31  1  0  0  0  0
 31 23  2  0  0  0  0
 33 21  1  1  0  0  0
M  END
>  <MODEL>
5

>  <REMARK>
 VINA RESULT:      -9.4      3.641      6.833
  Name = 
  3 active torsions:
  status: ('A' for Active; 'I' for Inactive)
    1  A    between atoms: N_3  and  C_25
    2  A    between atoms: C_8  and  C_18
    3  A    between atoms: C_18  and  C_30
                            x       y       z     vdW  Elec       q    Type
                         _______ _______ _______ _____ _____    ______ ____

>  <TORSDO>
F 3

$$$$
=
 OpenBabel10272415313D

 34 39  0  0  1  0  0  0  0  0999 V2000
  188.7340  177.7560  142.2260 C   0  0  0  0  0  0  0  0  0  0  0  0
  186.8360  177.8450  145.3880 C   0  0  0  0  0  3  0  0  0  0  0  0
  189.1100  177.1370  145.0780 C   0  0  0  0  0  2  0  0  0  0  0  0
  189.8280  177.6390  140.0770 C   0  0  0  0  0  0  0  0  0  0  0  0
  188.7300  177.8100  140.7820 N   0  0  0  0  0  0  0  0  0  0  0  0
  191.1310  177.3860  142.1500 C   0  0  0  0  0  0  0  0  0  0  0  0
  192.0620  176.8790  143.0440 C   0  0  0  0  0  3  0  0  0  0  0  0
  191.1010  177.3760  140.7220 N   0  0  0  0  0  2  0  0  0  0  0  0
  190.2030  177.2620  144.1210 N   0  0  0  0  0  0  0  0  0  0  0  0
  190.0150  177.5930  142.8550 C   0  0  0  0  0  0  0  0  0  0  0  0
  191.4480  176.8250  144.2620 N   0  0  0  0  0  0  0  0  0  0  0  0
  185.4530  178.3050  145.2340 C   0  0  0  0  0  3  0  0  0  0  0  0
  184.6990  178.4650  144.1440 C   0  0  0  0  0  0  0  0  0  0  0  0
  185.1330  178.1610  142.7710 C   0  0  0  0  0  3  0  0  0  0  0  0
  187.7840  177.6100  144.4840 C   0  0  0  0  0  0  0  0  0  0  0  0
  186.3400  177.8870  142.2930 C   0  0  0  0  0  3  0  0  0  0  0  0
  187.6280  177.7830  142.9930 C   0  0  0  0  0  0  0  0  0  0  0  0
  183.3490  178.9250  144.3260 N   0  0  0  0  0  0  0  0  0  0  0  0
  182.9100  179.3110  145.5490 O   0  0  0  0  0  1  0  0  0  0  0  0
  182.4650  178.9890  143.2410 N   0  0  0  0  0  1  0  0  0  0  0  0
  189.7760  177.7790  138.5860 C   0  0  0  0  0  2  0  0  0  0  0  0
  190.1860  176.6000  136.3920 C   0  0  0  0  0  0  0  0  0  0  0  0
  190.9770  175.5770  138.3440 C   0  0  0  0  0  3  0  0  0  0  0  0
  193.1660  174.9420  134.8710 N   0  0  0  0  0  0  0  0  0  0  0  0
  193.9420  174.9220  136.1420 C   0  0  2  0  0  0  0  0  0  0  0  0
  192.1080  175.9720  134.8560 C   0  0  0  0  0  2  0  0  0  0  0  0
  195.0720  173.9080  136.0510 C   0  0  0  0  0  1  0  0  0  0  0  0
  191.3210  175.9780  136.1330 C   0  0  0  0  0  0  0  0  0  0  0  0
  192.5450  173.6460  134.5920 C   0  0  0  0  0  1  0  0  0  0  0  0
  193.0670  174.5690  137.3640 C   0  0  0  0  0  2  0  0  0  0  0  0
  191.8140  175.3750  137.3390 C   0  0  0  0  0  0  0  0  0  0  0  0
  194.5210  176.1780  136.3510 O   0  0  0  0  0  1  0  0  0  0  0  0
  189.8400  176.4330  137.8460 C   0  0  1  0  0  3  0  0  0  0  0  0
  189.3860  177.3740  135.4000 C   0  0  0  0  0  1  0  0  0  0  0  0
  1 10  1  0  0  0  0
  1 17  2  0  0  0  0
  4  8  1  0  0  0  0
  4  5  2  0  0  0  0
  5  1  1  0  0  0  0
  6 10  2  0  0  0  0
  6  7  1  0  0  0  0
  7 11  2  0  0  0  0
  8  6  1  0  0  0  0
  9 11  1  0  0  0  0
  9  3  1  0  0  0  0
 10  9  1  0  0  0  0
 12  2  1  0  0  0  0
 13 18  1  0  0  0  0
 13 12  2  0  0  0  0
 14 13  1  0  0  0  0
 15  3  1  0  0  0  0
 15  2  2  0  0  0  0
 16 14  2  0  0  0  0
 16 17  1  0  0  0  0
 17 15  1  0  0  0  0
 18 19  1  0  0  0  0
 20 18  1  0  0  0  0
 21  4  1  0  0  0  0
 22 33  1  0  0  0  0
 24 25  1  0  0  0  0
 25 27  1  6  0  0  0
 25 32  1  0  0  0  0
 25 30  1  0  0  0  0
 26 24  1  0  0  0  0
 26 28  1  0  0  0  0
 28 22  2  0  0  0  0
 28 31  1  0  0  0  0
 29 24  1  0  0  0  0
 31 30  1  0  0  0  0
 31 23  2  0  0  0  0
 33 23  1  0  0  0  0
 33 21  1  1  0  0  0
 34 22  1  0  0  0  0
M  END
>  <MODEL>
6

>  <REMARK>
 VINA RESULT:      -9.3      2.287      4.410
  Name = 
  3 active torsions:
  status: ('A' for Active; 'I' for Inactive)
    1  A    between atoms: N_3  and  C_25
    2  A    between atoms: C_8  and  C_18
    3  A    between atoms: C_18  and  C_30
                            x       y       z     vdW  Elec       q    Type
                         _______ _______ _______ _____ _____    ______ ____

>  <TORSDO>
F 3

$$$$
=
 OpenBabel10272415313D

 34 39  0  0  1  0  0  0  0  0999 V2000
  187.9380  177.9900  140.9760 C   0  0  0  0  0  0  0  0  0  0  0  0
  188.1590  177.3660  144.6050 C   0  0  0  0  0  3  0  0  0  0  0  0
  189.7250  176.6850  142.9160 C   0  0  0  0  0  2  0  0  0  0  0  0
  187.6180  178.3650  138.6130 C   0  0  0  0  0  0  0  0  0  0  0  0
  187.1420  178.3930  139.8390 N   0  0  0  0  0  0  0  0  0  0  0  0
  189.7880  177.5750  139.4630 C   0  0  0  0  0  0  0  0  0  0  0  0
  190.9600  176.8380  139.5450 C   0  0  0  0  0  3  0  0  0  0  0  0
  188.9700  177.9140  138.3420 N   0  0  0  0  0  2  0  0  0  0  0  0
  190.1050  177.0050  141.5450 N   0  0  0  0  0  0  0  0  0  0  0  0
  189.3040  177.6400  140.7070 C   0  0  0  0  0  0  0  0  0  0  0  0
  191.1270  176.5080  140.8590 N   0  0  0  0  0  0  0  0  0  0  0  0
  187.0220  177.8930  145.3660 C   0  0  0  0  0  3  0  0  0  0  0  0
  185.8290  178.3360  144.9630 C   0  0  0  0  0  0  0  0  0  0  0  0
  185.3710  178.3620  143.5650 C   0  0  0  0  0  3  0  0  0  0  0  0
  188.3920  177.3290  143.2950 C   0  0  0  0  0  0  0  0  0  0  0  0
  186.0440  178.1750  142.4370 C   0  0  0  0  0  3  0  0  0  0  0  0
  187.4660  177.8640  142.2300 C   0  0  0  0  0  0  0  0  0  0  0  0
  184.9050  178.7790  145.9720 N   0  0  0  0  0  0  0  0  0  0  0  0
  183.6480  179.1590  145.6370 O   0  0  0  0  0  1  0  0  0  0  0  0
  185.2850  178.8200  147.3200 N   0  0  0  0  0  1  0  0  0  0  0  0
  186.7710  178.8640  137.4820 C   0  0  0  0  0  2  0  0  0  0  0  0
  186.7440  177.2790  135.5180 C   0  0  0  0  0  0  0  0  0  0  0  0
  185.9470  176.4850  137.5710 C   0  0  0  0  0  3  0  0  0  0  0  0
  187.7630  173.7160  135.0630 N   0  0  0  0  0  0  0  0  0  0  0  0
  187.8830  173.4480  136.5240 C   0  0  2  0  0  0  0  0  0  0  0  0
  187.8780  175.1490  134.7270 C   0  0  0  0  0  2  0  0  0  0  0  0
  187.8540  171.9500  136.7870 C   0  0  0  0  0  1  0  0  0  0  0  0
  187.0530  176.0020  135.6440 C   0  0  0  0  0  0  0  0  0  0  0  0
  186.4970  173.2200  134.5220 C   0  0  0  0  0  1  0  0  0  0  0  0
  186.7540  174.1100  137.3420 C   0  0  0  0  0  2  0  0  0  0  0  0
  186.5840  175.5270  136.9160 C   0  0  0  0  0  0  0  0  0  0  0  0
  189.1130  173.9300  136.9830 O   0  0  0  0  0  1  0  0  0  0  0  0
  186.0150  177.7460  136.7470 C   0  0  1  0  0  3  0  0  0  0  0  0
  187.0920  178.1330  134.3460 C   0  0  0  0  0  1  0  0  0  0  0  0
  1 17  2  0  0  0  0
  2 12  1  0  0  0  0
  3 15  1  0  0  0  0
  4  5  2  0  0  0  0
  5  1  1  0  0  0  0
  6  7  1  0  0  0  0
  6 10  2  0  0  0  0
  7 11  2  0  0  0  0
  8  4  1  0  0  0  0
  8  6  1  0  0  0  0
  9  3  1  0  0  0  0
 10  1  1  0  0  0  0
 10  9  1  0  0  0  0
 11  9  1  0  0  0  0
 13 12  2  0  0  0  0
 13 18  1  0  0  0  0
 14 13  1  0  0  0  0
 15  2  2  0  0  0  0
 16 14  2  0  0  0  0
 17 16  1  0  0  0  0
 17 15  1  0  0  0  0
 18 20  1  0  0  0  0
 19 18  1  0  0  0  0
 21  4  1  0  0  0  0
 22 28  2  0  0  0  0
 22 33  1  0  0  0  0
 24 25  1  0  0  0  0
 25 27  1  1  0  0  0
 25 32  1  0  0  0  0
 25 30  1  0  0  0  0
 26 24  1  0  0  0  0
 26 28  1  0  0  0  0
 28 31  1  0  0  0  0
 29 24  1  0  0  0  0
 31 30  1  0  0  0  0
 31 23  2  0  0  0  0
 33 21  1  1  0  0  0
 33 23  1  0  0  0  0
 34 22  1  0  0  0  0
M  END
>  <MODEL>
7

>  <REMARK>
 VINA RESULT:      -9.1      3.342      4.953
  Name = 
  3 active torsions:
  status: ('A' for Active; 'I' for Inactive)
    1  A    between atoms: N_3  and  C_25
    2  A    between atoms: C_8  and  C_18
    3  A    between atoms: C_18  and  C_30
                            x       y       z     vdW  Elec       q    Type
                         _______ _______ _______ _____ _____    ______ ____

>  <TORSDO>
F 3

$$$$
=
 OpenBabel10272415313D

 34 39  0  0  1  0  0  0  0  0999 V2000
  190.3760  177.3400  140.8860 C   0  0  0  0  0  0  0  0  0  0  0  0
  188.3170  177.7920  143.9140 C   0  0  0  0  0  3  0  0  0  0  0  0
  187.6760  178.2340  141.6420 C   0  0  0  0  0  2  0  0  0  0  0  0
  191.8620  177.1100  138.9980 C   0  0  0  0  0  0  0  0  0  0  0  0
  191.6790  177.1270  140.3010 N   0  0  0  0  0  0  0  0  0  0  0  0
  189.4510  177.4640  138.6460 C   0  0  0  0  0  0  0  0  0  0  0  0
  188.2790  177.9730  138.1090 C   0  0  0  0  0  3  0  0  0  0  0  0
  190.7550  177.3170  138.0820 N   0  0  0  0  0  2  0  0  0  0  0  0
  188.0710  177.8970  140.2800 N   0  0  0  0  0  0  0  0  0  0  0  0
  189.2740  177.4460  139.9710 C   0  0  0  0  0  0  0  0  0  0  0  0
  187.4410  178.2230  139.1570 N   0  0  0  0  0  0  0  0  0  0  0  0
  189.0150  177.4550  145.1590 C   0  0  0  0  0  3  0  0  0  0  0  0
  190.3090  177.2490  145.4090 C   0  0  0  0  0  0  0  0  0  0  0  0
  191.3850  177.3530  144.4100 C   0  0  0  0  0  3  0  0  0  0  0  0
  188.7460  177.8300  142.6550 C   0  0  0  0  0  0  0  0  0  0  0  0
  191.3220  177.4530  143.0870 C   0  0  0  0  0  3  0  0  0  0  0  0
  190.1500  177.5080  142.2030 C   0  0  0  0  0  0  0  0  0  0  0  0
  190.6890  176.9470  146.7620 N   0  0  0  0  0  0  0  0  0  0  0  0
  189.7920  177.0570  147.7720 O   0  0  0  0  0  1  0  0  0  0  0  0
  191.9920  176.5260  147.0600 N   0  0  0  0  0  1  0  0  0  0  0  0
  193.2220  176.8100  138.4480 C   0  0  0  0  0  2  0  0  0  0  0  0
  193.6100  175.3640  136.4150 C   0  0  0  0  0  0  0  0  0  0  0  0
  194.5810  174.6880  138.4360 C   0  0  0  0  0  3  0  0  0  0  0  0
  196.6300  173.7250  134.9520 N   0  0  0  0  0  0  0  0  0  0  0  0
  197.4700  173.9410  136.1630 C   0  0  2  0  0  0  0  0  0  0  0  0
  195.4930  174.6640  134.8630 C   0  0  0  0  0  2  0  0  0  0  0  0
  198.6720  173.0090  136.1410 C   0  0  0  0  0  1  0  0  0  0  0  0
  194.7760  174.7950  136.1730 C   0  0  0  0  0  0  0  0  0  0  0  0
  196.1010  172.3620  134.8940 C   0  0  0  0  0  1  0  0  0  0  0  0
  196.6910  173.7040  137.4740 C   0  0  0  0  0  2  0  0  0  0  0  0
  195.3780  174.4050  137.4170 C   0  0  0  0  0  0  0  0  0  0  0  0
  197.9570  175.2520  136.1600 O   0  0  0  0  0  1  0  0  0  0  0  0
  193.3550  175.3810  137.8970 C   0  0  1  0  0  3  0  0  0  0  0  0
  192.7000  175.9300  135.3780 C   0  0  0  0  0  1  0  0  0  0  0  0
  1 17  2  0  0  0  0
  2 12  1  0  0  0  0
  3 15  1  0  0  0  0
  4  5  2  0  0  0  0
  5  1  1  0  0  0  0
  6 10  2  0  0  0  0
  7  6  1  0  0  0  0
  7 11  2  0  0  0  0
  8  6  1  0  0  0  0
  8  4  1  0  0  0  0
  9  3  1  0  0  0  0
 10  9  1  0  0  0  0
 10  1  1  0  0  0  0
 11  9  1  0  0  0  0
 12 13  2  0  0  0  0
 13 18  1  0  0  0  0
 14 13  1  0  0  0  0
 15  2  2  0  0  0  0
 16 14  2  0  0  0  0
 17 15  1  0  0  0  0
 17 16  1  0  0  0  0
 18 20  1  0  0  0  0
 18 19  1  0  0  0  0
 21  4  1  0  0  0  0
 22 33  1  0  0  0  0
 24 25  1  0  0  0  0
 25 27  1  6  0  0  0
 25 30  1  0  0  0  0
 26 24  1  0  0  0  0
 26 28  1  0  0  0  0
 28 22  2  0  0  0  0
 28 31  1  0  0  0  0
 29 24  1  0  0  0  0
 31 30  1  0  0  0  0
 31 23  2  0  0  0  0
 32 25  1  0  0  0  0
 33 23  1  0  0  0  0
 33 21  1  1  0  0  0
 34 22  1  0  0  0  0
M  END
>  <MODEL>
8

>  <REMARK>
 VINA RESULT:      -9.1      2.181      3.839
  Name = 
  3 active torsions:
  status: ('A' for Active; 'I' for Inactive)
    1  A    between atoms: N_3  and  C_25
    2  A    between atoms: C_8  and  C_18
    3  A    between atoms: C_18  and  C_30
                            x       y       z     vdW  Elec       q    Type
                         _______ _______ _______ _____ _____    ______ ____

>  <TORSDO>
F 3

$$$$
=
 OpenBabel10272415313D

 34 39  0  0  1  0  0  0  0  0999 V2000
  189.3100  177.3880  138.2500 C   0  0  0  0  0  0  0  0  0  0  0  0
  191.1810  176.1000  135.3440 C   0  0  0  0  0  3  0  0  0  0  0  0
  188.8180  176.5040  135.4860 C   0  0  0  0  0  2  0  0  0  0  0  0
  188.1890  178.1280  140.2560 C   0  0  0  0  0  0  0  0  0  0  0  0
  189.2770  177.6850  139.6640 N   0  0  0  0  0  0  0  0  0  0  0  0
  186.9960  178.1030  138.1030 C   0  0  0  0  0  0  0  0  0  0  0  0
  185.9750  177.8990  137.1860 C   0  0  0  0  0  3  0  0  0  0  0  0
  186.9590  178.3300  139.5120 N   0  0  0  0  0  2  0  0  0  0  0  0
  187.8550  177.2510  136.2860 N   0  0  0  0  0  0  0  0  0  0  0  0
  188.1170  177.6840  137.5070 C   0  0  0  0  0  0  0  0  0  0  0  0
  186.5520  177.3740  136.0660 N   0  0  0  0  0  0  0  0  0  0  0  0
  192.6180  175.9400  135.5890 C   0  0  0  0  0  3  0  0  0  0  0  0
  193.3180  175.9470  136.7250 C   0  0  0  0  0  0  0  0  0  0  0  0
  192.7380  176.1040  138.0690 C   0  0  0  0  0  3  0  0  0  0  0  0
  190.1900  176.4570  136.1570 C   0  0  0  0  0  0  0  0  0  0  0  0
  191.5150  176.4630  138.4390 C   0  0  0  0  0  3  0  0  0  0  0  0
  190.3440  176.8020  137.6180 C   0  0  0  0  0  0  0  0  0  0  0  0
  194.7380  175.7430  136.6370 N   0  0  0  0  0  0  0  0  0  0  0  0
  195.3790  174.9500  137.5310 O   0  0  0  0  0  1  0  0  0  0  0  0
  195.4850  176.3530  135.6210 N   0  0  0  0  0  1  0  0  0  0  0  0
  188.2350  178.4890  141.7090 C   0  0  0  0  0  2  0  0  0  0  0  0
  189.8720  177.6120  143.4180 C   0  0  0  0  0  0  0  0  0  0  0  0
  187.6120  177.0690  143.6940 C   0  0  0  0  0  3  0  0  0  0  0  0
  189.8820  177.4750  147.1500 N   0  0  0  0  0  0  0  0  0  0  0  0
  188.4370  177.8160  147.2770 C   0  0  2  0  0  0  0  0  0  0  0  0
  190.4690  177.9140  145.8670 C   0  0  0  0  0  2  0  0  0  0  0  0
  187.9240  177.4230  148.6530 C   0  0  0  0  0  1  0  0  0  0  0  0
  189.5860  177.5700  144.7060 C   0  0  0  0  0  0  0  0  0  0  0  0
  190.1160  176.0370  147.2900 C   0  0  0  0  0  1  0  0  0  0  0  0
  187.5680  177.1120  146.2120 C   0  0  0  0  0  2  0  0  0  0  0  0
  188.1920  177.2620  144.8680 C   0  0  0  0  0  0  0  0  0  0  0  0
  188.2750  179.1980  147.1470 O   0  0  0  0  0  1  0  0  0  0  0  0
  188.6360  177.3150  142.6160 C   0  0  1  0  0  3  0  0  0  0  0  0
  191.2120  177.9350  142.8480 C   0  0  0  0  0  1  0  0  0  0  0  0
  1  5  1  0  0  0  0
  2 12  1  0  0  0  0
  2 15  2  0  0  0  0
  3 15  1  0  0  0  0
  3  9  1  0  0  0  0
  4 21  1  0  0  0  0
  5  4  2  0  0  0  0
  6  8  1  0  0  0  0
  7  6  1  0  0  0  0
  8  4  1  0  0  0  0
  9 10  1  0  0  0  0
 10  6  2  0  0  0  0
 10  1  1  0  0  0  0
 11  9  1  0  0  0  0
 11  7  2  0  0  0  0
 12 13  2  0  0  0  0
 13 14  1  0  0  0  0
 14 16  2  0  0  0  0
 15 17  1  0  0  0  0
 17  1  2  0  0  0  0
 17 16  1  0  0  0  0
 18 13  1  0  0  0  0
 18 19  1  0  0  0  0
 20 18  1  0  0  0  0
 22 28  2  0  0  0  0
 23 31  2  0  0  0  0
 24 25  1  0  0  0  0
 24 29  1  0  0  0  0
 25 27  1  1  0  0  0
 26 24  1  0  0  0  0
 28 31  1  0  0  0  0
 28 26  1  0  0  0  0
 30 25  1  0  0  0  0
 31 30  1  0  0  0  0
 32 25  1  0  0  0  0
 33 21  1  6  0  0  0
 33 22  1  0  0  0  0
 33 23  1  0  0  0  0
 34 22  1  0  0  0  0
M  END
>  <MODEL>
9

>  <REMARK>
 VINA RESULT:      -8.8      2.051      8.711
  Name = 
  3 active torsions:
  status: ('A' for Active; 'I' for Inactive)
    1  A    between atoms: N_3  and  C_25
    2  A    between atoms: C_8  and  C_18
    3  A    between atoms: C_18  and  C_30
                            x       y       z     vdW  Elec       q    Type
                         _______ _______ _______ _____ _____    ______ ____

>  <TORSDO>
F 3

$$$$
