=
 OpenBabel10272413433D

 30 33  0  0  1  0  0  0  0  0999 V2000
  188.2960  178.1020  142.4980 C   0  0  2  0  0  3  0  0  0  0  0  0
  186.8640  177.9120  143.0970 C   0  0  1  0  0  0  0  0  0  0  0  0
  188.3420  178.6180  141.0570 C   0  0  0  0  0  2  0  0  0  0  0  0
  184.5860  178.4130  139.6470 S   0  0  0  0  0  0  0  0  0  0  0  0
  184.2830  178.4980  144.1870 C   0  0  2  0  0  3  0  0  0  0  0  0
  185.9160  178.7280  140.8360 C   0  0  2  0  0  3  0  0  0  0  0  0
  187.1980  178.5150  138.8260 C   0  0  0  0  0  2  0  0  0  0  0  0
  185.4380  178.5180  145.2000 C   0  0  0  0  0  2  0  0  0  0  0  0
  187.1550  178.0980  140.2730 C   0  0  1  0  0  3  0  0  0  0  0  0
  185.5930  178.1930  142.2340 C   0  0  2  0  0  3  0  0  0  0  0  0
  185.6950  177.0230  137.6350 N   0  0  0  0  0  1  0  0  0  0  0  0
  185.7930  178.3240  138.2750 C   0  0  1  0  0  3  0  0  0  0  0  0
  186.6760  176.6970  143.9970 C   0  0  0  0  0  2  0  0  0  0  0  0
  186.7920  178.0760  144.6220 C   0  0  1  0  0  3  0  0  0  0  0  0
  185.2280  180.2940  143.0900 O   0  0  0  0  0  1  0  0  0  0  0  0
  184.6330  179.0870  142.8920 N   0  0  0  0  0  0  0  0  0  0  0  0
  183.0480  178.9670  144.6900 O   0  0  0  0  0  0  0  0  0  0  0  0
  180.8940  178.5060  144.0900 O   0  0  0  0  0  1  0  0  0  0  0  0
  182.1130  179.0170  143.6460 C   0  0  0  0  0  2  0  0  0  0  0  0
  189.3460  176.9960  142.7460 C   0  0  2  0  0  3  0  0  0  0  0  0
  190.4330  177.3900  143.7680 C   0  0  0  0  0  3  0  0  0  0  0  0
  190.4870  176.4300  144.9540 C   0  0  0  0  0  2  0  0  0  0  0  0
  189.9150  177.0880  146.1940 C   0  0  0  0  0  1  0  0  0  0  0  0
  190.2780  178.8360  144.2470 C   0  0  0  0  0  2  0  0  0  0  0  0
  191.5700  179.6300  144.1180 C   0  0  0  0  0  1  0  0  0  0  0  0
  189.9090  176.6010  141.5270 O   0  0  0  0  0  0  0  0  0  0  0  0
  191.2260  177.0630  141.5720 C   0  0  0  0  0  2  0  0  0  0  0  0
  191.7390  177.2360  140.1880 C   0  0  0  0  0  0  0  0  0  0  0  0
  193.1000  177.3980  139.9660 O   0  0  0  0  0  1  0  0  0  0  0  0
  190.9430  177.2030  139.2130 O   0  0  0  0  0  0  0  0  0  0  0  0
  1 20  1  6  0  0  0
  1  2  1  0  0  0  0
  2 13  1  6  0  0  0
  2 14  1  0  0  0  0
  3  1  1  0  0  0  0
  5 17  1  1  0  0  0
  5  8  1  0  0  0  0
  6  4  1  6  0  0  0
  6 10  1  0  0  0  0
  9  7  1  6  0  0  0
  9  6  1  0  0  0  0
  9  3  1  0  0  0  0
 10 16  1  1  0  0  0
 10  2  1  0  0  0  0
 12 11  1  1  0  0  0
 12  7  1  0  0  0  0
 12  4  1  0  0  0  0
 14 13  1  1  0  0  0
 14  8  1  0  0  0  0
 16 15  1  0  0  0  0
 16  5  1  0  0  0  0
 19 18  1  0  0  0  0
 19 17  1  0  0  0  0
 20 26  1  6  0  0  0
 20 21  1  0  0  0  0
 21 24  1  0  0  0  0
 21 22  1  0  0  0  0
 22 23  1  0  0  0  0
 25 24  1  0  0  0  0
 26 27  1  0  0  0  0
 28 27  1  0  0  0  0
 29 28  1  0  0  0  0
 30 28  2  0  0  0  0
M  END
>  <MODEL>
1

>  <REMARK>
 VINA RESULT:      -6.5      0.000      0.000
  Name = 
  9 active torsions:
  status: ('A' for Active; 'I' for Inactive)
    1  A    between atoms: C_1  and  C_22
    2  A    between atoms: C_2  and  C_14
    3  A    between atoms: C_3  and  C_19
    4  A    between atoms: C_7  and  O_16
    5  A    between atoms: C_14  and  C_20
    6  A    between atoms: C_14  and  C_22
    7  A    between atoms: O_16  and  C_26
    8  A    between atoms: C_19  and  O_29
    9  A    between atoms: C_22  and  O_29
                            x       y       z     vdW  Elec       q    Type
                         _______ _______ _______ _____ _____    ______ ____

>  <TORSDO>
F 9

$$$$
=
 OpenBabel10272413433D

 30 33  0  0  1  0  0  0  0  0999 V2000
  188.4140  177.4040  144.7020 C   0  0  2  0  0  3  0  0  0  0  0  0
  189.5590  177.8120  143.7170 C   0  0  1  0  0  0  0  0  0  0  0  0
  187.0620  177.1040  144.0470 C   0  0  0  0  0  2  0  0  0  0  0  0
  187.3420  178.3250  140.2300 S   0  0  0  0  0  0  0  0  0  0  0  0
  191.5930  177.6500  141.7090 C   0  0  2  0  0  3  0  0  0  0  0  0
  187.8600  177.5590  141.7870 C   0  0  2  0  0  3  0  0  0  0  0  0
  185.5110  177.7770  142.1930 C   0  0  0  0  0  2  0  0  0  0  0  0
  192.0360  177.2330  143.1200 C   0  0  0  0  0  2  0  0  0  0  0  0
  186.8630  177.9780  142.8260 C   0  0  1  0  0  3  0  0  0  0  0  0
  189.2870  177.9420  142.1850 C   0  0  2  0  0  3  0  0  0  0  0  0
  185.1140  179.7170  140.7840 N   0  0  0  0  0  1  0  0  0  0  0  0
  185.5990  178.3480  140.7850 C   0  0  1  0  0  3  0  0  0  0  0  0
  190.5090  178.8940  144.2150 C   0  0  0  0  0  2  0  0  0  0  0  0
  190.9690  177.4480  144.2060 C   0  0  1  0  0  3  0  0  0  0  0  0
  190.1260  175.8700  141.6540 O   0  0  0  0  0  1  0  0  0  0  0  0
  190.2450  177.1930  141.3620 N   0  0  0  0  0  0  0  0  0  0  0  0
  192.5400  177.3940  140.6930 O   0  0  0  0  0  0  0  0  0  0  0  0
  192.7700  176.7410  138.5170 O   0  0  0  0  0  1  0  0  0  0  0  0
  191.8720  177.2130  139.4730 C   0  0  0  0  0  2  0  0  0  0  0  0
  188.2540  178.2070  146.0110 C   0  0  2  0  0  3  0  0  0  0  0  0
  189.3520  177.9160  147.0550 C   0  0  0  0  0  3  0  0  0  0  0  0
  189.6260  176.4210  147.2050 C   0  0  0  0  0  2  0  0  0  0  0  0
  191.1080  176.1730  147.4060 C   0  0  0  0  0  1  0  0  0  0  0  0
  189.0390  178.5500  148.4140 C   0  0  0  0  0  2  0  0  0  0  0  0
  187.9910  177.7660  149.1910 C   0  0  0  0  0  1  0  0  0  0  0  0
  186.9760  177.9920  146.5400 O   0  0  0  0  0  0  0  0  0  0  0  0
  186.2630  179.1550  146.2470 C   0  0  0  0  0  2  0  0  0  0  0  0
  184.8080  178.8540  146.2280 C   0  0  0  0  0  0  0  0  0  0  0  0
  184.0170  179.3140  145.1840 O   0  0  0  0  0  0  0  0  0  0  0  0
  184.2980  178.1540  147.1410 O   0  0  0  0  0  1  0  0  0  0  0  0
  1 20  1  1  0  0  0
  2 14  1  0  0  0  0
  2 13  1  1  0  0  0
  2  1  1  0  0  0  0
  3  1  1  0  0  0  0
  4 12  1  0  0  0  0
  5 17  1  6  0  0  0
  5  8  1  0  0  0  0
  6  4  1  6  0  0  0
  6 10  1  0  0  0  0
  6  9  1  0  0  0  0
  9  7  1  6  0  0  0
  9  3  1  0  0  0  0
 10 16  1  6  0  0  0
 10  2  1  0  0  0  0
 12 11  1  1  0  0  0
 12  7  1  0  0  0  0
 14  8  1  6  0  0  0
 14 13  1  0  0  0  0
 16 15  1  0  0  0  0
 16  5  1  0  0  0  0
 18 19  1  0  0  0  0
 19 17  1  0  0  0  0
 20 26  1  1  0  0  0
 20 21  1  0  0  0  0
 21 22  1  0  0  0  0
 21 24  1  0  0  0  0
 22 23  1  0  0  0  0
 24 25  1  0  0  0  0
 27 26  1  0  0  0  0
 28 27  1  0  0  0  0
 28 30  1  0  0  0  0
 29 28  2  0  0  0  0
M  END
>  <MODEL>
2

>  <REMARK>
 VINA RESULT:      -6.3      2.069      6.377
  Name = 
  9 active torsions:
  status: ('A' for Active; 'I' for Inactive)
    1  A    between atoms: C_1  and  C_22
    2  A    between atoms: C_2  and  C_14
    3  A    between atoms: C_3  and  C_19
    4  A    between atoms: C_7  and  O_16
    5  A    between atoms: C_14  and  C_20
    6  A    between atoms: C_14  and  C_22
    7  A    between atoms: O_16  and  C_26
    8  A    between atoms: C_19  and  O_29
    9  A    between atoms: C_22  and  O_29
                            x       y       z     vdW  Elec       q    Type
                         _______ _______ _______ _____ _____    ______ ____

>  <TORSDO>
F 9

$$$$
=
 OpenBabel10272413433D

 30 33  0  0  1  0  0  0  0  0999 V2000
  187.8170  177.0210  142.8180 C   0  0  2  0  0  3  0  0  0  0  0  0
  187.0190  178.1130  142.0320 C   0  0  1  0  0  0  0  0  0  0  0  0
  187.2200  176.6180  144.1700 C   0  0  0  0  0  2  0  0  0  0  0  0
  184.3330  179.2880  144.9890 S   0  0  0  0  0  0  0  0  0  0  0  0
  184.9760  179.3890  140.4850 C   0  0  2  0  0  3  0  0  0  0  0  0
  185.3360  178.1570  143.9930 C   0  0  2  0  0  3  0  0  0  0  0  0
  186.0020  177.4770  146.1890 C   0  0  0  0  0  2  0  0  0  0  0  0
  186.0100  178.5960  139.6710 C   0  0  0  0  0  2  0  0  0  0  0  0
  186.5370  177.8040  144.8180 C   0  0  1  0  0  3  0  0  0  0  0  0
  185.7340  178.7590  142.6420 C   0  0  2  0  0  3  0  0  0  0  0  0
  185.6420  179.6010  147.3120 N   0  0  0  0  0  1  0  0  0  0  0  0
  184.9920  178.5620  146.5340 C   0  0  1  0  0  3  0  0  0  0  0  0
  187.8590  179.1360  141.2770 C   0  0  0  0  0  2  0  0  0  0  0  0
  187.1680  178.0260  140.5060 C   0  0  1  0  0  3  0  0  0  0  0  0
  184.2670  177.4300  141.4750 O   0  0  0  0  0  1  0  0  0  0  0  0
  184.5830  178.7280  141.7320 N   0  0  0  0  0  0  0  0  0  0  0  0
  183.8720  179.8600  139.7400 O   0  0  0  0  0  0  0  0  0  0  0  0
  182.5360  178.3180  138.7160 O   0  0  0  0  0  1  0  0  0  0  0  0
  183.7100  179.0600  138.5990 C   0  0  0  0  0  2  0  0  0  0  0  0
  189.3550  177.1430  142.8820 C   0  0  2  0  0  3  0  0  0  0  0  0
  189.8610  177.9870  144.0700 C   0  0  0  0  0  3  0  0  0  0  0  0
  190.6690  179.2000  143.6150 C   0  0  0  0  0  2  0  0  0  0  0  0
  192.0440  179.1900  144.2540 C   0  0  0  0  0  1  0  0  0  0  0  0
  190.6590  177.1500  145.0750 C   0  0  0  0  0  2  0  0  0  0  0  0
  189.9910  177.0950  146.4410 C   0  0  0  0  0  1  0  0  0  0  0  0
  189.8380  177.6350  141.6630 O   0  0  0  0  0  0  0  0  0  0  0  0
  190.5640  176.5790  141.1110 C   0  0  0  0  0  2  0  0  0  0  0  0
  190.5130  176.6650  139.6270 C   0  0  0  0  0  0  0  0  0  0  0  0
  190.2630  177.8840  139.0100 O   0  0  0  0  0  1  0  0  0  0  0  0
  190.7300  175.6400  138.9290 O   0  0  0  0  0  0  0  0  0  0  0  0
  1 20  1  1  0  0  0
  1  3  1  0  0  0  0
  2 13  1  1  0  0  0
  2 10  1  0  0  0  0
  2  1  1  0  0  0  0
  4 12  1  0  0  0  0
  5 17  1  6  0  0  0
  5 16  1  0  0  0  0
  6  9  1  0  0  0  0
  6  4  1  1  0  0  0
  7 12  1  0  0  0  0
  8  5  1  0  0  0  0
  9  3  1  6  0  0  0
  9  7  1  0  0  0  0
 10 16  1  6  0  0  0
 10  6  1  0  0  0  0
 12 11  1  1  0  0  0
 14  8  1  6  0  0  0
 14 13  1  0  0  0  0
 14  2  1  0  0  0  0
 15 16  1  0  0  0  0
 19 18  1  0  0  0  0
 19 17  1  0  0  0  0
 20 26  1  6  0  0  0
 20 21  1  0  0  0  0
 21 24  1  0  0  0  0
 22 21  1  0  0  0  0
 22 23  1  0  0  0  0
 24 25  1  0  0  0  0
 27 26  1  0  0  0  0
 28 27  1  0  0  0  0
 29 28  1  0  0  0  0
 30 28  2  0  0  0  0
M  END
>  <MODEL>
3

>  <REMARK>
 VINA RESULT:      -6.1      2.144      4.237
  Name = 
  9 active torsions:
  status: ('A' for Active; 'I' for Inactive)
    1  A    between atoms: C_1  and  C_22
    2  A    between atoms: C_2  and  C_14
    3  A    between atoms: C_3  and  C_19
    4  A    between atoms: C_7  and  O_16
    5  A    between atoms: C_14  and  C_20
    6  A    between atoms: C_14  and  C_22
    7  A    between atoms: O_16  and  C_26
    8  A    between atoms: C_19  and  O_29
    9  A    between atoms: C_22  and  O_29
                            x       y       z     vdW  Elec       q    Type
                         _______ _______ _______ _____ _____    ______ ____

>  <TORSDO>
F 9

$$$$
=
 OpenBabel10272413433D

 30 33  0  0  1  0  0  0  0  0999 V2000
  189.4830  177.7310  141.3500 C   0  0  2  0  0  3  0  0  0  0  0  0
  189.5990  177.0390  142.7470 C   0  0  1  0  0  0  0  0  0  0  0  0
  188.3290  178.7280  141.2050 C   0  0  0  0  0  2  0  0  0  0  0  0
  185.9890  178.2480  144.4350 S   0  0  0  0  0  0  0  0  0  0  0  0
  190.0970  176.6290  145.5360 C   0  0  2  0  0  3  0  0  0  0  0  0
  187.5220  178.3900  143.4820 C   0  0  2  0  0  3  0  0  0  0  0  0
  185.9520  179.1910  141.8630 C   0  0  0  0  0  2  0  0  0  0  0  0
  191.3350  176.5290  144.6320 C   0  0  0  0  0  2  0  0  0  0  0  0
  187.1430  178.2840  142.0350 C   0  0  1  0  0  3  0  0  0  0  0  0
  188.5580  177.3330  143.8740 C   0  0  2  0  0  3  0  0  0  0  0  0
  184.0170  177.9430  142.6380 N   0  0  0  0  0  1  0  0  0  0  0  0
  185.0200  178.9160  143.0340 C   0  0  1  0  0  3  0  0  0  0  0  0
  190.0100  175.5710  142.7300 C   0  0  0  0  0  2  0  0  0  0  0  0
  191.0280  176.6240  143.1290 C   0  0  1  0  0  3  0  0  0  0  0  0
  189.8800  178.8570  144.9750 O   0  0  0  0  0  1  0  0  0  0  0  0
  189.1790  177.7040  145.1520 N   0  0  0  0  0  0  0  0  0  0  0  0
  190.3750  176.6120  146.9220 O   0  0  0  0  0  0  0  0  0  0  0  0
  192.2520  176.9000  148.1880 O   0  0  0  0  0  1  0  0  0  0  0  0
  191.6970  176.1910  147.1240 C   0  0  0  0  0  2  0  0  0  0  0  0
  189.6530  176.8600  140.0860 C   0  0  2  0  0  3  0  0  0  0  0  0
  190.9790  177.1080  139.3350 C   0  0  0  0  0  3  0  0  0  0  0  0
  191.4410  175.8780  138.5570 C   0  0  0  0  0  2  0  0  0  0  0  0
  191.4220  176.1580  137.0670 C   0  0  0  0  0  1  0  0  0  0  0  0
  192.0860  177.6070  140.2680 C   0  0  0  0  0  2  0  0  0  0  0  0
  193.4610  177.1000  139.8580 C   0  0  0  0  0  1  0  0  0  0  0  0
  188.5490  177.0350  139.2430 O   0  0  0  0  0  0  0  0  0  0  0  0
  188.8850  178.1180  138.4290 C   0  0  0  0  0  2  0  0  0  0  0  0
  187.8440  178.2940  137.3820 C   0  0  0  0  0  0  0  0  0  0  0  0
  186.5900  178.7810  137.7240 O   0  0  0  0  0  1  0  0  0  0  0  0
  188.1100  178.0320  136.1800 O   0  0  0  0  0  0  0  0  0  0  0  0
  1 20  1  6  0  0  0
  1  2  1  0  0  0  0
  2 13  1  6  0  0  0
  2 14  1  0  0  0  0
  2 10  1  0  0  0  0
  3  1  1  0  0  0  0
  5 17  1  1  0  0  0
  6 10  1  0  0  0  0
  6  4  1  1  0  0  0
  7  9  1  0  0  0  0
  7 12  1  0  0  0  0
  8  5  1  0  0  0  0
  9  3  1  6  0  0  0
  9  6  1  0  0  0  0
 10 16  1  1  0  0  0
 12 11  1  6  0  0  0
 12  4  1  0  0  0  0
 14 13  1  6  0  0  0
 14  8  1  0  0  0  0
 15 16  1  0  0  0  0
 16  5  1  0  0  0  0
 17 19  1  0  0  0  0
 19 18  1  0  0  0  0
 20 26  1  6  0  0  0
 21 20  1  0  0  0  0
 21 24  1  0  0  0  0
 22 21  1  0  0  0  0
 23 22  1  0  0  0  0
 25 24  1  0  0  0  0
 27 26  1  0  0  0  0
 28 29  1  0  0  0  0
 28 27  1  0  0  0  0
 30 28  2  0  0  0  0
M  END
>  <MODEL>
4

>  <REMARK>
 VINA RESULT:      -6.0      3.133      5.592
  Name = 
  9 active torsions:
  status: ('A' for Active; 'I' for Inactive)
    1  A    between atoms: C_1  and  C_22
    2  A    between atoms: C_2  and  C_14
    3  A    between atoms: C_3  and  C_19
    4  A    between atoms: C_7  and  O_16
    5  A    between atoms: C_14  and  C_20
    6  A    between atoms: C_14  and  C_22
    7  A    between atoms: O_16  and  C_26
    8  A    between atoms: C_19  and  O_29
    9  A    between atoms: C_22  and  O_29
                            x       y       z     vdW  Elec       q    Type
                         _______ _______ _______ _____ _____    ______ ____

>  <TORSDO>
F 9

$$$$
=
 OpenBabel10272413433D

 30 33  0  0  1  0  0  0  0  0999 V2000
  189.4820  176.7250  144.1770 C   0  0  2  0  0  3  0  0  0  0  0  0
  189.8120  177.4870  142.8520 C   0  0  1  0  0  0  0  0  0  0  0  0
  187.9900  176.5410  144.4730 C   0  0  0  0  0  2  0  0  0  0  0  0
  186.0090  178.8610  141.8610 S   0  0  0  0  0  0  0  0  0  0  0  0
  190.1160  178.0740  140.0670 C   0  0  2  0  0  3  0  0  0  0  0  0
  187.2680  177.7040  142.4550 C   0  0  2  0  0  3  0  0  0  0  0  0
  185.7350  177.6260  144.2910 C   0  0  0  0  0  2  0  0  0  0  0  0
  191.2750  177.2870  140.6970 C   0  0  0  0  0  2  0  0  0  0  0  0
  187.2000  177.7230  143.9530 C   0  0  1  0  0  3  0  0  0  0  0  0
  188.6700  178.0500  141.9470 C   0  0  2  0  0  3  0  0  0  0  0  0
  184.8230  179.8650  144.0510 N   0  0  0  0  0  1  0  0  0  0  0  0
  185.0090  178.5950  143.3710 C   0  0  1  0  0  3  0  0  0  0  0  0
  191.0040  178.4350  142.9110 C   0  0  0  0  0  2  0  0  0  0  0  0
  191.1540  177.0930  142.2170 C   0  0  1  0  0  3  0  0  0  0  0  0
  188.7040  176.2940  140.4650 O   0  0  0  0  0  1  0  0  0  0  0  0
  188.7960  177.6490  140.5410 N   0  0  0  0  0  0  0  0  0  0  0  0
  190.1820  178.2000  138.6610 O   0  0  0  0  0  0  0  0  0  0  0  0
  188.9810  179.7570  137.5020 O   0  0  0  0  0  1  0  0  0  0  0  0
  188.9130  178.5330  138.1670 C   0  0  0  0  0  2  0  0  0  0  0  0
  190.2800  177.0870  145.4480 C   0  0  2  0  0  3  0  0  0  0  0  0
  191.5980  176.2980  145.6000 C   0  0  0  0  0  3  0  0  0  0  0  0
  191.8740  175.3980  144.3970 C   0  0  0  0  0  2  0  0  0  0  0  0
  192.3570  174.0360  144.8560 C   0  0  0  0  0  1  0  0  0  0  0  0
  191.6430  175.4920  146.9010 C   0  0  0  0  0  2  0  0  0  0  0  0
  192.6480  176.0550  147.8960 C   0  0  0  0  0  1  0  0  0  0  0  0
  189.4630  176.9370  146.5750 O   0  0  0  0  0  0  0  0  0  0  0  0
  189.1500  178.2380  146.9690 C   0  0  0  0  0  2  0  0  0  0  0  0
  188.0040  178.2070  147.9160 C   0  0  0  0  0  0  0  0  0  0  0  0
  188.2310  178.0370  149.2760 O   0  0  0  0  0  1  0  0  0  0  0  0
  186.8310  178.3690  147.4910 O   0  0  0  0  0  0  0  0  0  0  0  0
  1  3  1  0  0  0  0
  1 20  1  1  0  0  0
  2 13  1  1  0  0  0
  2  1  1  0  0  0  0
  4 12  1  0  0  0  0
  5 17  1  6  0  0  0
  5 16  1  0  0  0  0
  5  8  1  0  0  0  0
  6  4  1  6  0  0  0
  6  9  1  0  0  0  0
  9  7  1  6  0  0  0
  9  3  1  0  0  0  0
 10 16  1  6  0  0  0
 10  6  1  0  0  0  0
 10  2  1  0  0  0  0
 12 11  1  1  0  0  0
 12  7  1  0  0  0  0
 14  8  1  6  0  0  0
 14  2  1  0  0  0  0
 14 13  1  0  0  0  0
 15 16  1  0  0  0  0
 18 19  1  0  0  0  0
 19 17  1  0  0  0  0
 20 21  1  1  0  0  0
 20 26  1  0  0  0  0
 21 24  1  0  0  0  0
 22 23  1  0  0  0  0
 22 21  1  0  0  0  0
 24 25  1  0  0  0  0
 26 27  1  0  0  0  0
 27 28  1  0  0  0  0
 28 29  1  0  0  0  0
 30 28  2  0  0  0  0
M  END
>  <MODEL>
5

>  <REMARK>
 VINA RESULT:      -5.8      2.604      6.007
  Name = 
  9 active torsions:
  status: ('A' for Active; 'I' for Inactive)
    1  A    between atoms: C_1  and  C_22
    2  A    between atoms: C_2  and  C_14
    3  A    between atoms: C_3  and  C_19
    4  A    between atoms: C_7  and  O_16
    5  A    between atoms: C_14  and  C_20
    6  A    between atoms: C_14  and  C_22
    7  A    between atoms: O_16  and  C_26
    8  A    between atoms: C_19  and  O_29
    9  A    between atoms: C_22  and  O_29
                            x       y       z     vdW  Elec       q    Type
                         _______ _______ _______ _____ _____    ______ ____

>  <TORSDO>
F 9

$$$$
=
 OpenBabel10272413433D

 30 33  0  0  1  0  0  0  0  0999 V2000
  188.5580  178.1500  144.1880 C   0  0  2  0  0  3  0  0  0  0  0  0
  187.2480  177.8340  143.3960 C   0  0  1  0  0  0  0  0  0  0  0  0
  189.7880  178.4520  143.3270 C   0  0  0  0  0  2  0  0  0  0  0  0
  188.8130  177.4770  139.5540 S   0  0  0  0  0  0  0  0  0  0  0  0
  184.9070  178.1730  141.7830 C   0  0  2  0  0  3  0  0  0  0  0  0
  188.5990  178.1590  141.2180 C   0  0  2  0  0  3  0  0  0  0  0  0
  190.9730  177.8540  141.1970 C   0  0  0  0  0  2  0  0  0  0  0  0
  184.7280  178.5150  143.2700 C   0  0  0  0  0  2  0  0  0  0  0  0
  189.7430  177.6500  142.0430 C   0  0  1  0  0  3  0  0  0  0  0  0
  187.2470  177.7900  141.8340 C   0  0  2  0  0  3  0  0  0  0  0  0
  191.0500  175.9940  139.6360 N   0  0  0  0  0  1  0  0  0  0  0  0
  190.6240  177.3730  139.7960 C   0  0  1  0  0  3  0  0  0  0  0  0
  186.3580  176.7480  143.9890 C   0  0  0  0  0  2  0  0  0  0  0  0
  185.9570  178.2050  144.1400 C   0  0  1  0  0  3  0  0  0  0  0  0
  186.4080  179.9130  141.5740 O   0  0  0  0  0  1  0  0  0  0  0  0
  186.1920  178.6140  141.2330 N   0  0  0  0  0  0  0  0  0  0  0  0
  183.8100  178.5170  140.9610 O   0  0  0  0  0  0  0  0  0  0  0  0
  184.0870  179.9690  139.2220 O   0  0  0  0  0  1  0  0  0  0  0  0
  184.2480  178.6480  139.6350 C   0  0  0  0  0  2  0  0  0  0  0  0
  188.9110  177.2640  145.4030 C   0  0  2  0  0  3  0  0  0  0  0  0
  187.9150  177.3930  146.5750 C   0  0  0  0  0  3  0  0  0  0  0  0
  187.3790  178.8160  146.7230 C   0  0  0  0  0  2  0  0  0  0  0  0
  185.9310  178.7900  147.1720 C   0  0  0  0  0  1  0  0  0  0  0  0
  188.5100  176.8980  147.8960 C   0  0  0  0  0  2  0  0  0  0  0  0
  188.8360  178.0390  148.8490 C   0  0  0  0  0  1  0  0  0  0  0  0
  190.2220  177.5310  145.8150 O   0  0  0  0  0  0  0  0  0  0  0  0
  190.9110  176.3330  145.6210 C   0  0  0  0  0  2  0  0  0  0  0  0
  191.8900  176.1400  146.7230 C   0  0  0  0  0  0  0  0  0  0  0  0
  192.7330  175.0370  146.7190 O   0  0  0  0  0  0  0  0  0  0  0  0
  191.9780  176.9950  147.6430 O   0  0  0  0  0  1  0  0  0  0  0  0
  1 20  1  6  0  0  0
  2 13  1  1  0  0  0
  2 14  1  0  0  0  0
  2  1  1  0  0  0  0
  3  1  1  0  0  0  0
  4 12  1  0  0  0  0
  5 17  1  6  0  0  0
  5  8  1  0  0  0  0
  6  4  1  6  0  0  0
  6 10  1  0  0  0  0
  6  9  1  0  0  0  0
  9  7  1  6  0  0  0
  9  3  1  0  0  0  0
 10 16  1  6  0  0  0
 10  2  1  0  0  0  0
 12 11  1  1  0  0  0
 12  7  1  0  0  0  0
 13 14  1  0  0  0  0
 14  8  1  6  0  0  0
 16 15  1  0  0  0  0
 16  5  1  0  0  0  0
 18 19  1  0  0  0  0
 19 17  1  0  0  0  0
 20 26  1  1  0  0  0
 20 21  1  0  0  0  0
 21 22  1  0  0  0  0
 21 24  1  0  0  0  0
 22 23  1  0  0  0  0
 24 25  1  0  0  0  0
 27 26  1  0  0  0  0
 27 28  1  0  0  0  0
 28 30  1  0  0  0  0
 29 28  2  0  0  0  0
M  END
>  <MODEL>
6

>  <REMARK>
 VINA RESULT:      -5.8      2.818      4.239
  Name = 
  9 active torsions:
  status: ('A' for Active; 'I' for Inactive)
    1  A    between atoms: C_1  and  C_22
    2  A    between atoms: C_2  and  C_14
    3  A    between atoms: C_3  and  C_19
    4  A    between atoms: C_7  and  O_16
    5  A    between atoms: C_14  and  C_20
    6  A    between atoms: C_14  and  C_22
    7  A    between atoms: O_16  and  C_26
    8  A    between atoms: C_19  and  O_29
    9  A    between atoms: C_22  and  O_29
                            x       y       z     vdW  Elec       q    Type
                         _______ _______ _______ _____ _____    ______ ____

>  <TORSDO>
F 9

$$$$
=
 OpenBabel10272413433D

 30 33  0  0  1  0  0  0  0  0999 V2000
  185.7150  179.0250  142.0640 C   0  0  2  0  0  3  0  0  0  0  0  0
  184.7050  178.5660  140.9620 C   0  0  1  0  0  0  0  0  0  0  0  0
  187.1510  179.2510  141.5830 C   0  0  0  0  0  2  0  0  0  0  0  0
  187.3620  177.7580  137.8600 S   0  0  0  0  0  0  0  0  0  0  0  0
  182.9700  178.6150  138.6860 C   0  0  2  0  0  3  0  0  0  0  0  0
  186.6580  178.6450  139.2730 C   0  0  2  0  0  3  0  0  0  0  0  0
  188.9230  178.4160  140.0140 C   0  0  0  0  0  2  0  0  0  0  0  0
  182.3500  179.1430  139.9880 C   0  0  0  0  0  2  0  0  0  0  0  0
  187.4910  178.2860  140.4670 C   0  0  1  0  0  3  0  0  0  0  0  0
  185.1790  178.3180  139.4950 C   0  0  2  0  0  3  0  0  0  0  0  0
  189.4540  176.3710  138.8150 N   0  0  0  0  0  1  0  0  0  0  0  0
  189.0120  177.7450  138.6510 C   0  0  1  0  0  3  0  0  0  0  0  0
  183.6660  177.5400  141.3990 C   0  0  0  0  0  2  0  0  0  0  0  0
  183.2520  178.9900  141.2240 C   0  0  1  0  0  3  0  0  0  0  0  0
  184.4790  180.3600  138.7080 O   0  0  0  0  0  1  0  0  0  0  0  0
  184.3650  179.0210  138.4970 N   0  0  0  0  0  0  0  0  0  0  0  0
  182.1780  178.8130  137.5320 O   0  0  0  0  0  0  0  0  0  0  0  0
  181.1180  180.7760  137.0480 O   0  0  0  0  0  1  0  0  0  0  0  0
  181.0900  179.6380  137.8530 C   0  0  0  0  0  2  0  0  0  0  0  0
  185.6720  178.3180  143.4360 C   0  0  2  0  0  3  0  0  0  0  0  0
  184.8340  179.0660  144.4940 C   0  0  0  0  0  3  0  0  0  0  0  0
  185.6240  179.3380  145.7720 C   0  0  0  0  0  2  0  0  0  0  0  0
  185.1900  178.3920  146.8730 C   0  0  0  0  0  1  0  0  0  0  0  0
  183.5230  178.3410  144.8110 C   0  0  0  0  0  2  0  0  0  0  0  0
  182.3010  179.1360  144.3770 C   0  0  0  0  0  1  0  0  0  0  0  0
  186.9780  178.0900  143.8880 O   0  0  0  0  0  0  0  0  0  0  0  0
  187.1730  176.7150  143.7460 C   0  0  0  0  0  2  0  0  0  0  0  0
  188.6300  176.4220  143.7120 C   0  0  0  0  0  0  0  0  0  0  0  0
  189.4380  176.7890  144.7800 O   0  0  0  0  0  1  0  0  0  0  0  0
  189.1260  175.8120  142.7290 O   0  0  0  0  0  0  0  0  0  0  0  0
  1 20  1  1  0  0  0
  2 14  1  0  0  0  0
  2 13  1  1  0  0  0
  2  1  1  0  0  0  0
  3  1  1  0  0  0  0
  4 12  1  0  0  0  0
  5 17  1  6  0  0  0
  5  8  1  0  0  0  0
  6  4  1  6  0  0  0
  6 10  1  0  0  0  0
  6  9  1  0  0  0  0
  9  7  1  6  0  0  0
  9  3  1  0  0  0  0
 10 16  1  6  0  0  0
 10  2  1  0  0  0  0
 12 11  1  1  0  0  0
 12  7  1  0  0  0  0
 14  8  1  6  0  0  0
 14 13  1  0  0  0  0
 16  5  1  0  0  0  0
 16 15  1  0  0  0  0
 17 19  1  0  0  0  0
 18 19  1  0  0  0  0
 20 26  1  1  0  0  0
 20 21  1  0  0  0  0
 21 24  1  0  0  0  0
 21 22  1  0  0  0  0
 22 23  1  0  0  0  0
 25 24  1  0  0  0  0
 27 26  1  0  0  0  0
 28 27  1  0  0  0  0
 28 29  1  0  0  0  0
 30 28  2  0  0  0  0
M  END
>  <MODEL>
7

>  <REMARK>
 VINA RESULT:      -5.6      2.895      4.897
  Name = 
  9 active torsions:
  status: ('A' for Active; 'I' for Inactive)
    1  A    between atoms: C_1  and  C_22
    2  A    between atoms: C_2  and  C_14
    3  A    between atoms: C_3  and  C_19
    4  A    between atoms: C_7  and  O_16
    5  A    between atoms: C_14  and  C_20
    6  A    between atoms: C_14  and  C_22
    7  A    between atoms: O_16  and  C_26
    8  A    between atoms: C_19  and  O_29
    9  A    between atoms: C_22  and  O_29
                            x       y       z     vdW  Elec       q    Type
                         _______ _______ _______ _____ _____    ______ ____

>  <TORSDO>
F 9

$$$$
=
 OpenBabel10272413433D

 30 33  0  0  1  0  0  0  0  0999 V2000
  189.0120  176.5650  144.5860 C   0  0  2  0  0  3  0  0  0  0  0  0
  189.9740  177.2610  143.5680 C   0  0  1  0  0  0  0  0  0  0  0  0
  187.5490  176.4670  144.1430 C   0  0  0  0  0  2  0  0  0  0  0  0
  187.1790  178.7870  140.8850 S   0  0  0  0  0  0  0  0  0  0  0  0
  191.5900  177.7320  141.2530 C   0  0  2  0  0  3  0  0  0  0  0  0
  187.9360  177.5910  142.0140 C   0  0  2  0  0  3  0  0  0  0  0  0
  185.7170  177.6560  142.9080 C   0  0  0  0  0  2  0  0  0  0  0  0
  192.2650  176.9110  142.3630 C   0  0  0  0  0  2  0  0  0  0  0  0
  187.1710  177.6680  143.3010 C   0  0  1  0  0  3  0  0  0  0  0  0
  189.4300  177.8470  142.2260 C   0  0  2  0  0  3  0  0  0  0  0  0
  185.1650  179.9280  142.2460 N   0  0  0  0  0  1  0  0  0  0  0  0
  185.5710  178.6270  141.7450 C   0  0  1  0  0  3  0  0  0  0  0  0
  191.0530  178.1510  144.1750 C   0  0  0  0  0  2  0  0  0  0  0  0
  191.4300  176.7790  143.6460 C   0  0  1  0  0  3  0  0  0  0  0  0
  190.0510  176.0400  140.9510 O   0  0  0  0  0  1  0  0  0  0  0  0
  190.1800  177.3910  141.0500 N   0  0  0  0  0  0  0  0  0  0  0  0
  192.3190  177.8030  140.0440 O   0  0  0  0  0  0  0  0  0  0  0  0
  193.8670  176.5960  138.8790 O   0  0  0  0  0  1  0  0  0  0  0  0
  193.4700  177.0080  140.1500 C   0  0  0  0  0  2  0  0  0  0  0  0
  189.1370  176.9330  146.0810 C   0  0  2  0  0  3  0  0  0  0  0  0
  188.2630  178.1340  146.4990 C   0  0  0  0  0  3  0  0  0  0  0  0
  188.6790  178.7080  147.8520 C   0  0  0  0  0  2  0  0  0  0  0  0
  188.2420  177.7870  148.9740 C   0  0  0  0  0  1  0  0  0  0  0  0
  186.7700  177.7930  146.4910 C   0  0  0  0  0  2  0  0  0  0  0  0
  185.8940  179.0230  146.6770 C   0  0  0  0  0  1  0  0  0  0  0  0
  190.4840  177.1450  146.4010 O   0  0  0  0  0  0  0  0  0  0  0  0
  190.8970  175.9650  147.0210 C   0  0  0  0  0  2  0  0  0  0  0  0
  192.1520  176.2150  147.7760 C   0  0  0  0  0  0  0  0  0  0  0  0
  192.2590  177.3290  148.5980 O   0  0  0  0  0  1  0  0  0  0  0  0
  193.1080  175.3990  147.6970 O   0  0  0  0  0  0  0  0  0  0  0  0
  1 20  1  1  0  0  0
  2 14  1  0  0  0  0
  2 13  1  1  0  0  0
  2  1  1  0  0  0  0
  3  1  1  0  0  0  0
  4 12  1  0  0  0  0
  5 17  1  6  0  0  0
  5  8  1  0  0  0  0
  6  4  1  6  0  0  0
  6 10  1  0  0  0  0
  6  9  1  0  0  0  0
  9  7  1  6  0  0  0
  9  3  1  0  0  0  0
 10 16  1  6  0  0  0
 10  2  1  0  0  0  0
 12 11  1  1  0  0  0
 12  7  1  0  0  0  0
 14  8  1  6  0  0  0
 14 13  1  0  0  0  0
 15 16  1  0  0  0  0
 16  5  1  0  0  0  0
 17 19  1  0  0  0  0
 18 19  1  0  0  0  0
 20 26  1  6  0  0  0
 20 21  1  0  0  0  0
 21 22  1  0  0  0  0
 22 23  1  0  0  0  0
 24 21  1  0  0  0  0
 24 25  1  0  0  0  0
 26 27  1  0  0  0  0
 27 28  1  0  0  0  0
 28 29  1  0  0  0  0
 30 28  2  0  0  0  0
M  END
>  <MODEL>
8

>  <REMARK>
 VINA RESULT:      -5.5      3.254      6.360
  Name = 
  9 active torsions:
  status: ('A' for Active; 'I' for Inactive)
    1  A    between atoms: C_1  and  C_22
    2  A    between atoms: C_2  and  C_14
    3  A    between atoms: C_3  and  C_19
    4  A    between atoms: C_7  and  O_16
    5  A    between atoms: C_14  and  C_20
    6  A    between atoms: C_14  and  C_22
    7  A    between atoms: O_16  and  C_26
    8  A    between atoms: C_19  and  O_29
    9  A    between atoms: C_22  and  O_29
                            x       y       z     vdW  Elec       q    Type
                         _______ _______ _______ _____ _____    ______ ____

>  <TORSDO>
F 9

$$$$
=
 OpenBabel10272413433D

 30 33  0  0  1  0  0  0  0  0999 V2000
  188.2010  178.0380  144.2650 C   0  0  2  0  0  3  0  0  0  0  0  0
  186.6430  177.9190  144.3030 C   0  0  1  0  0  0  0  0  0  0  0  0
  188.7900  178.5180  142.9350 C   0  0  0  0  0  2  0  0  0  0  0  0
  185.7960  178.4270  140.2580 S   0  0  0  0  0  0  0  0  0  0  0  0
  183.8710  178.6320  144.3770 C   0  0  2  0  0  3  0  0  0  0  0  0
  186.6170  178.7170  141.8460 C   0  0  2  0  0  3  0  0  0  0  0  0
  188.5300  178.4070  140.4410 C   0  0  0  0  0  2  0  0  0  0  0  0
  184.5790  178.6300  145.7400 C   0  0  0  0  0  2  0  0  0  0  0  0
  187.9460  178.0260  141.7770 C   0  0  1  0  0  3  0  0  0  0  0  0
  185.7850  178.2290  143.0350 C   0  0  2  0  0  3  0  0  0  0  0  0
  187.4950  176.9470  138.7980 N   0  0  0  0  0  1  0  0  0  0  0  0
  187.4130  178.2570  139.4180 C   0  0  1  0  0  3  0  0  0  0  0  0
  186.0860  176.7350  145.0840 C   0  0  0  0  0  2  0  0  0  0  0  0
  186.0300  178.1230  145.6970 C   0  0  1  0  0  3  0  0  0  0  0  0
  185.2300  180.3630  143.6840 O   0  0  0  0  0  1  0  0  0  0  0  0
  184.6930  179.1750  143.2920 N   0  0  0  0  0  0  0  0  0  0  0  0
  182.5610  179.1600  144.3920 O   0  0  0  0  0  0  0  0  0  0  0  0
  180.6150  178.7410  143.2750 O   0  0  0  0  0  1  0  0  0  0  0  0
  181.9780  178.9900  143.1280 C   0  0  0  0  0  2  0  0  0  0  0  0
  189.0380  176.8990  144.8860 C   0  0  2  0  0  3  0  0  0  0  0  0
  189.8560  177.3310  146.1210 C   0  0  0  0  0  3  0  0  0  0  0  0
  190.1520  176.1620  147.0570 C   0  0  0  0  0  2  0  0  0  0  0  0
  191.6130  176.1670  147.4640 C   0  0  0  0  0  1  0  0  0  0  0  0
  189.1890  178.4800  146.8830 C   0  0  0  0  0  2  0  0  0  0  0  0
  188.6000  178.0290  148.2120 C   0  0  0  0  0  1  0  0  0  0  0  0
  189.8580  176.3290  143.9050 O   0  0  0  0  0  0  0  0  0  0  0  0
  191.1590  176.6630  144.2830 C   0  0  0  0  0  2  0  0  0  0  0  0
  191.7170  177.6490  143.3200 C   0  0  0  0  0  0  0  0  0  0  0  0
  191.9810  178.9490  143.7310 O   0  0  0  0  0  1  0  0  0  0  0  0
  191.9820  177.2970  142.1410 O   0  0  0  0  0  0  0  0  0  0  0  0
  1  2  1  0  0  0  0
  1 20  1  6  0  0  0
  2 13  1  6  0  0  0
  2 14  1  0  0  0  0
  3  1  1  0  0  0  0
  5 17  1  1  0  0  0
  5  8  1  0  0  0  0
  6  4  1  6  0  0  0
  6 10  1  0  0  0  0
  9  7  1  6  0  0  0
  9  6  1  0  0  0  0
  9  3  1  0  0  0  0
 10 16  1  1  0  0  0
 10  2  1  0  0  0  0
 12 11  1  1  0  0  0
 12  4  1  0  0  0  0
 12  7  1  0  0  0  0
 14 13  1  6  0  0  0
 14  8  1  0  0  0  0
 16 15  1  0  0  0  0
 16  5  1  0  0  0  0
 19 18  1  0  0  0  0
 19 17  1  0  0  0  0
 20 26  1  6  0  0  0
 20 21  1  0  0  0  0
 21 24  1  0  0  0  0
 21 22  1  0  0  0  0
 22 23  1  0  0  0  0
 24 25  1  0  0  0  0
 26 27  1  0  0  0  0
 28 29  1  0  0  0  0
 28 27  1  0  0  0  0
 30 28  2  0  0  0  0
M  END
>  <MODEL>
9

>  <REMARK>
 VINA RESULT:      -5.4      1.515      2.178
  Name = 
  9 active torsions:
  status: ('A' for Active; 'I' for Inactive)
    1  A    between atoms: C_1  and  C_22
    2  A    between atoms: C_2  and  C_14
    3  A    between atoms: C_3  and  C_19
    4  A    between atoms: C_7  and  O_16
    5  A    between atoms: C_14  and  C_20
    6  A    between atoms: C_14  and  C_22
    7  A    between atoms: O_16  and  C_26
    8  A    between atoms: C_19  and  O_29
    9  A    between atoms: C_22  and  O_29
                            x       y       z     vdW  Elec       q    Type
                         _______ _______ _______ _____ _____    ______ ____

>  <TORSDO>
F 9

$$$$
