=
 OpenBabel10272414023D

 43 48  0  0  1  0  0  0  0  0999 V2000
  191.1700  176.5410  146.8780 C   0  0  0  0  0  0  0  0  0  0  0  0
  188.9120  178.0110  142.5970 C   0  0  0  0  0  0  0  0  0  0  0  0
  186.0900  177.8430  143.0610 C   0  0  2  0  0  3  0  0  0  0  0  0
  190.7070  177.1640  144.5840 C   0  0  0  0  0  0  0  0  0  0  0  0
  189.8300  176.7590  147.2140 C   0  0  0  0  0  3  0  0  0  0  0  0
  192.0670  176.1220  147.8500 O   0  0  0  0  0  1  0  0  0  0  0  0
  189.3460  177.3850  144.9150 C   0  0  0  0  0  0  0  0  0  0  0  0
  191.6070  176.7440  145.5660 C   0  0  0  0  0  3  0  0  0  0  0  0
  188.9230  177.1800  146.2380 C   0  0  0  0  0  3  0  0  0  0  0  0
  187.0170  178.1470  144.2450 C   0  0  0  0  0  2  0  0  0  0  0  0
  188.4480  177.8070  143.9150 C   0  0  0  0  0  0  0  0  0  0  0  0
  190.2610  177.7930  142.2900 C   0  0  0  0  0  3  0  0  0  0  0  0
  187.9680  178.4550  141.5440 C   0  0  0  0  0  0  0  0  0  0  0  0
  186.6510  178.4280  141.7900 C   0  0  0  0  0  3  0  0  0  0  0  0
  191.1530  177.3710  143.2780 C   0  0  0  0  0  3  0  0  0  0  0  0
  184.6790  178.3700  143.3300 C   0  0  1  0  0  3  0  0  0  0  0  0
  184.7230  179.8180  143.7940 C   0  0  0  0  0  1  0  0  0  0  0  0
  183.8670  178.2800  142.1220 N   0  0  0  0  0  2  0  0  0  0  0  0
  182.4560  178.5030  142.1330 C   0  0  0  0  0  0  0  0  0  0  0  0
  181.8580  178.7650  143.2130 O   0  0  0  0  0  0  0  0  0  0  0  0
  181.6880  178.4000  140.8570 C   0  0  0  0  0  2  0  0  0  0  0  0
  182.2200  179.3190  139.8600 N   0  0  0  0  0  0  0  0  0  0  0  0
  181.7250  179.3890  137.5020 C   0  0  0  0  0  2  0  0  0  0  0  0
  181.1980  180.3370  139.6290 C   0  0  0  0  0  2  0  0  0  0  0  0
  182.3730  178.5840  138.6040 C   0  0  1  0  0  3  0  0  0  0  0  0
  180.6740  180.1890  138.2150 C   0  0  0  0  0  2  0  0  0  0  0  0
  184.2390  177.1780  137.5850 N   0  0  0  0  0  0  0  0  0  0  0  0
  183.8240  178.3490  138.3040 C   0  0  0  0  0  0  0  0  0  0  0  0
  185.7580  175.4440  136.9260 C   0  0  0  0  0  2  0  0  0  0  0  0
  184.1880  174.9280  136.1710 S   0  0  0  0  0  0  0  0  0  0  0  0
  185.6410  176.9000  137.3260 C   0  0  1  0  0  3  0  0  0  0  0  0
  183.2840  176.1860  137.1160 C   0  0  0  0  0  2  0  0  0  0  0  0
  186.0950  177.7080  136.2830 O   0  0  0  0  0  1  0  0  0  0  0  0
  184.6810  179.1920  138.6890 O   0  0  0  0  0  0  0  0  0  0  0  0
  188.4910  178.9570  140.3020 N   0  0  0  0  0  2  0  0  0  0  0  0
  189.2860  176.1650  137.9090 C   0  0  0  0  0  3  0  0  0  0  0  0
  189.4740  176.8860  136.7260 C   0  0  0  0  0  0  0  0  0  0  0  0
  189.0170  178.9480  137.9230 C   0  0  0  0  0  3  0  0  0  0  0  0
  188.9600  176.8350  139.0930 C   0  0  0  0  0  3  0  0  0  0  0  0
  188.8170  178.2310  139.1070 C   0  0  0  0  0  0  0  0  0  0  0  0
  189.3400  178.2810  136.7370 C   0  0  0  0  0  3  0  0  0  0  0  0
  188.8120  175.4590  134.8240 N   0  0  0  0  0  1  0  0  0  0  0  0
  189.7870  176.1860  135.5200 N   0  0  0  0  0  2  0  0  0  0  0  0
  1  5  1  0  0  0  0
  1  6  1  0  0  0  0
  2 11  1  0  0  0  0
  3 16  1  1  0  0  0
  3 10  1  0  0  0  0
  4  7  1  0  0  0  0
  4  8  1  0  0  0  0
  7  9  1  0  0  0  0
  8  1  2  0  0  0  0
  9  5  2  0  0  0  0
 11 10  1  0  0  0  0
 11  7  2  0  0  0  0
 12  2  2  0  0  0  0
 12 15  1  0  0  0  0
 13 14  2  0  0  0  0
 13  2  1  0  0  0  0
 14  3  1  0  0  0  0
 15  4  2  0  0  0  0
 16 17  1  6  0  0  0
 18 19  1  0  0  0  0
 18 16  1  0  0  0  0
 19 20  2  0  0  0  0
 21 19  1  0  0  0  0
 22 21  1  0  0  0  0
 23 26  1  0  0  0  0
 23 25  1  0  0  0  0
 24 22  1  0  0  0  0
 25 28  1  6  0  0  0
 25 22  1  0  0  0  0
 26 24  1  0  0  0  0
 27 28  1  0  0  0  0
 28 34  2  0  0  0  0
 29 31  1  0  0  0  0
 30 29  1  0  0  0  0
 30 32  1  0  0  0  0
 31 33  1  6  0  0  0
 31 27  1  0  0  0  0
 32 27  1  0  0  0  0
 35 13  1  0  0  0  0
 36 39  1  0  0  0  0
 37 41  1  0  0  0  0
 37 36  2  0  0  0  0
 38 40  1  0  0  0  0
 39 40  2  0  0  0  0
 40 35  1  0  0  0  0
 41 38  2  0  0  0  0
 42 43  1  0  0  0  0
 43 37  1  0  0  0  0
M  END
>  <MODEL>
1

>  <REMARK>
 VINA RESULT:      -9.8      0.000      0.000
  Name = 
  8 active torsions:
  status: ('A' for Active; 'I' for Inactive)
    1  A    between atoms: N_1  and  C_34
    2  A    between atoms: N_1  and  C_35
    3  A    between atoms: C_2  and  N_6
    4  A    between atoms: C_2  and  C_13
    5  A    between atoms: C_3  and  N_4
    6  A    between atoms: C_3  and  C_12
    7  A    between atoms: C_14  and  C_22
    8  A    between atoms: C_19  and  N_37
                            x       y       z     vdW  Elec       q    Type
                         _______ _______ _______ _____ _____    ______ ____

>  <TORSDO>
F 8

$$$$
=
 OpenBabel10272414023D

 43 48  0  0  1  0  0  0  0  0999 V2000
  191.2230  176.7500  146.9180 C   0  0  0  0  0  0  0  0  0  0  0  0
  187.1900  177.8230  144.0580 C   0  0  0  0  0  0  0  0  0  0  0  0
  188.1930  178.5820  141.4840 C   0  0  2  0  0  3  0  0  0  0  0  0
  188.9850  177.2570  146.1440 C   0  0  0  0  0  0  0  0  0  0  0  0
  191.6960  176.8040  145.6030 C   0  0  0  0  0  3  0  0  0  0  0  0
  192.0980  176.4720  147.9580 O   0  0  0  0  0  1  0  0  0  0  0  0
  189.4560  177.3170  144.8080 C   0  0  0  0  0  0  0  0  0  0  0  0
  189.8690  176.9750  147.1870 C   0  0  0  0  0  3  0  0  0  0  0  0
  190.8180  177.0860  144.5530 C   0  0  0  0  0  3  0  0  0  0  0  0
  188.9950  177.5800  142.3230 C   0  0  0  0  0  2  0  0  0  0  0  0
  188.5540  177.6040  143.7650 C   0  0  0  0  0  0  0  0  0  0  0  0
  186.7420  177.7550  145.3830 C   0  0  0  0  0  3  0  0  0  0  0  0
  186.2400  178.1250  142.9620 C   0  0  0  0  0  0  0  0  0  0  0  0
  186.7160  178.4220  141.7450 C   0  0  0  0  0  3  0  0  0  0  0  0
  187.6340  177.4730  146.4200 C   0  0  0  0  0  3  0  0  0  0  0  0
  188.5060  178.4140  139.9960 C   0  0  1  0  0  3  0  0  0  0  0  0
  189.6620  177.4460  139.7930 C   0  0  0  0  0  1  0  0  0  0  0  0
  187.3350  177.9140  139.2850 N   0  0  0  0  0  2  0  0  0  0  0  0
  187.0420  178.2900  137.9390 C   0  0  0  0  0  0  0  0  0  0  0  0
  187.7890  179.0990  137.3230 O   0  0  0  0  0  0  0  0  0  0  0  0
  185.8280  177.7350  137.2710 C   0  0  0  0  0  2  0  0  0  0  0  0
  185.9030  176.2820  137.1910 N   0  0  0  0  0  0  0  0  0  0  0  0
  185.2640  174.8690  135.3450 C   0  0  0  0  0  2  0  0  0  0  0  0
  187.0980  175.9580  136.4170 C   0  0  0  0  0  2  0  0  0  0  0  0
  184.7560  175.8130  136.4100 C   0  0  1  0  0  3  0  0  0  0  0  0
  186.6740  175.3240  135.1080 C   0  0  0  0  0  2  0  0  0  0  0  0
  182.4480  175.6730  137.4820 N   0  0  0  0  0  0  0  0  0  0  0  0
  183.7610  175.1240  137.2970 C   0  0  0  0  0  0  0  0  0  0  0  0
  180.3910  176.0680  138.6470 C   0  0  0  0  0  2  0  0  0  0  0  0
  180.2840  177.1950  137.2270 S   0  0  0  0  0  0  0  0  0  0  0  0
  181.4820  175.0550  138.3740 C   0  0  1  0  0  3  0  0  0  0  0  0
  182.0280  176.8990  136.8220 C   0  0  0  0  0  2  0  0  0  0  0  0
  180.9320  173.9290  137.7620 O   0  0  0  0  0  1  0  0  0  0  0  0
  184.0880  174.0530  137.8810 O   0  0  0  0  0  0  0  0  0  0  0  0
  184.8270  178.0370  143.2170 N   0  0  0  0  0  2  0  0  0  0  0  0
  182.7680  178.7910  140.1600 C   0  0  0  0  0  3  0  0  0  0  0  0
  181.5570  179.1630  140.7500 C   0  0  0  0  0  0  0  0  0  0  0  0
  182.5260  178.7910  142.9450 C   0  0  0  0  0  3  0  0  0  0  0  0
  183.8530  178.4170  140.9610 C   0  0  0  0  0  3  0  0  0  0  0  0
  183.7370  178.4080  142.3590 C   0  0  0  0  0  0  0  0  0  0  0  0
  181.4400  179.1630  142.1470 C   0  0  0  0  0  3  0  0  0  0  0  0
  180.4280  180.7410  139.2250 N   0  0  0  0  0  1  0  0  0  0  0  0
  180.4520  179.5240  139.9190 N   0  0  0  0  0  2  0  0  0  0  0  0
  1  8  1  0  0  0  0
  1  6  1  0  0  0  0
  2 12  1  0  0  0  0
  3 16  1  6  0  0  0
  3 14  1  0  0  0  0
  3 10  1  0  0  0  0
  4 15  1  0  0  0  0
  4  8  2  0  0  0  0
  5  1  2  0  0  0  0
  7  4  1  0  0  0  0
  9  7  2  0  0  0  0
  9  5  1  0  0  0  0
 10 11  1  0  0  0  0
 11  2  2  0  0  0  0
 11  7  1  0  0  0  0
 12 15  2  0  0  0  0
 13 35  1  0  0  0  0
 13  2  1  0  0  0  0
 14 13  2  0  0  0  0
 16 17  1  1  0  0  0
 18 16  1  0  0  0  0
 19 18  1  0  0  0  0
 20 19  2  0  0  0  0
 21 19  1  0  0  0  0
 22 21  1  0  0  0  0
 23 25  1  0  0  0  0
 24 22  1  0  0  0  0
 25 22  1  0  0  0  0
 25 28  1  1  0  0  0
 26 23  1  0  0  0  0
 26 24  1  0  0  0  0
 27 31  1  0  0  0  0
 28 27  1  0  0  0  0
 28 34  2  0  0  0  0
 30 29  1  0  0  0  0
 31 33  1  6  0  0  0
 31 29  1  0  0  0  0
 32 30  1  0  0  0  0
 32 27  1  0  0  0  0
 36 37  2  0  0  0  0
 36 39  1  0  0  0  0
 37 41  1  0  0  0  0
 39 40  2  0  0  0  0
 40 38  1  0  0  0  0
 40 35  1  0  0  0  0
 41 38  2  0  0  0  0
 42 43  1  0  0  0  0
 43 37  1  0  0  0  0
M  END
>  <MODEL>
2

>  <REMARK>
 VINA RESULT:      -9.6      2.182      5.570
  Name = 
  8 active torsions:
  status: ('A' for Active; 'I' for Inactive)
    1  A    between atoms: N_1  and  C_34
    2  A    between atoms: N_1  and  C_35
    3  A    between atoms: C_2  and  N_6
    4  A    between atoms: C_2  and  C_13
    5  A    between atoms: C_3  and  N_4
    6  A    between atoms: C_3  and  C_12
    7  A    between atoms: C_14  and  C_22
    8  A    between atoms: C_19  and  N_37
                            x       y       z     vdW  Elec       q    Type
                         _______ _______ _______ _____ _____    ______ ____

>  <TORSDO>
F 8

$$$$
=
 OpenBabel10272414023D

 43 48  0  0  1  0  0  0  0  0999 V2000
  191.1360  176.8330  146.7980 C   0  0  0  0  0  0  0  0  0  0  0  0
  187.1230  177.8830  143.9030 C   0  0  0  0  0  0  0  0  0  0  0  0
  188.1410  178.6080  141.3250 C   0  0  2  0  0  3  0  0  0  0  0  0
  188.9040  177.3370  146.0050 C   0  0  0  0  0  0  0  0  0  0  0  0
  191.6170  176.8700  145.4850 C   0  0  0  0  0  3  0  0  0  0  0  0
  192.0050  176.5650  147.8460 O   0  0  0  0  0  1  0  0  0  0  0  0
  189.3830  177.3790  144.6720 C   0  0  0  0  0  0  0  0  0  0  0  0
  189.7810  177.0650  147.0560 C   0  0  0  0  0  3  0  0  0  0  0  0
  190.7460  177.1420  144.4270 C   0  0  0  0  0  3  0  0  0  0  0  0
  188.9370  177.6140  142.1810 C   0  0  0  0  0  2  0  0  0  0  0  0
  188.4870  177.6570  143.6200 C   0  0  0  0  0  0  0  0  0  0  0  0
  186.6670  177.8310  145.2260 C   0  0  0  0  0  3  0  0  0  0  0  0
  186.1790  178.1740  142.7980 C   0  0  0  0  0  0  0  0  0  0  0  0
  186.6630  178.4550  141.5800 C   0  0  0  0  0  3  0  0  0  0  0  0
  187.5520  177.5600  146.2710 C   0  0  0  0  0  3  0  0  0  0  0  0
  188.4630  178.4220  139.8410 C   0  0  1  0  0  3  0  0  0  0  0  0
  189.7420  177.6160  139.6620 C   0  0  0  0  0  1  0  0  0  0  0  0
  187.3680  177.7340  139.1690 N   0  0  0  0  0  2  0  0  0  0  0  0
  186.8440  178.1750  137.9150 C   0  0  0  0  0  0  0  0  0  0  0  0
  187.3070  179.2070  137.3560 O   0  0  0  0  0  0  0  0  0  0  0  0
  185.7240  177.4180  137.2810 C   0  0  0  0  0  2  0  0  0  0  0  0
  186.0010  177.1740  135.8720 N   0  0  0  0  0  0  0  0  0  0  0  0
  186.3680  175.0530  134.7850 C   0  0  0  0  0  2  0  0  0  0  0  0
  184.7480  176.7420  135.2590 C   0  0  0  0  0  2  0  0  0  0  0  0
  186.9260  176.0410  135.7830 C   0  0  1  0  0  3  0  0  0  0  0  0
  184.8880  175.2950  134.8320 C   0  0  0  0  0  2  0  0  0  0  0  0
  189.4660  175.9250  135.9450 N   0  0  0  0  0  0  0  0  0  0  0  0
  188.2890  176.5060  135.3640 C   0  0  0  0  0  0  0  0  0  0  0  0
  191.7580  175.8760  136.6470 C   0  0  0  0  0  2  0  0  0  0  0  0
  191.0790  174.3420  137.3450 S   0  0  0  0  0  0  0  0  0  0  0  0
  190.7970  176.3910  135.5950 C   0  0  1  0  0  3  0  0  0  0  0  0
  189.3900  174.8720  136.9450 C   0  0  0  0  0  2  0  0  0  0  0  0
  191.1580  175.8850  134.3460 O   0  0  0  0  0  1  0  0  0  0  0  0
  188.3950  177.4130  134.4920 O   0  0  0  0  0  0  0  0  0  0  0  0
  184.7650  178.0930  143.0450 N   0  0  0  0  0  2  0  0  0  0  0  0
  182.7080  178.3620  139.9070 C   0  0  0  0  0  3  0  0  0  0  0  0
  181.5130  178.8700  140.4250 C   0  0  0  0  0  0  0  0  0  0  0  0
  182.4860  178.8590  142.6490 C   0  0  0  0  0  3  0  0  0  0  0  0
  183.7860  178.1000  140.7590 C   0  0  0  0  0  3  0  0  0  0  0  0
  183.6810  178.3410  142.1380 C   0  0  0  0  0  0  0  0  0  0  0  0
  181.4060  179.1200  141.8010 C   0  0  0  0  0  3  0  0  0  0  0  0
  180.5560  179.9110  138.4020 N   0  0  0  0  0  1  0  0  0  0  0  0
  180.4140  179.1130  139.5450 N   0  0  0  0  0  2  0  0  0  0  0  0
  1  8  1  0  0  0  0
  1  6  1  0  0  0  0
  2 12  1  0  0  0  0
  3 16  1  6  0  0  0
  3 14  1  0  0  0  0
  3 10  1  0  0  0  0
  4 15  1  0  0  0  0
  4  8  2  0  0  0  0
  5  1  2  0  0  0  0
  7  4  1  0  0  0  0
  9  7  2  0  0  0  0
  9  5  1  0  0  0  0
 10 11  1  0  0  0  0
 11  2  2  0  0  0  0
 11  7  1  0  0  0  0
 12 15  2  0  0  0  0
 13 35  1  0  0  0  0
 13  2  1  0  0  0  0
 14 13  2  0  0  0  0
 16 17  1  1  0  0  0
 18 16  1  0  0  0  0
 19 18  1  0  0  0  0
 20 19  2  0  0  0  0
 21 19  1  0  0  0  0
 22 21  1  0  0  0  0
 23 26  1  0  0  0  0
 23 25  1  0  0  0  0
 24 22  1  0  0  0  0
 25 28  1  6  0  0  0
 25 22  1  0  0  0  0
 26 24  1  0  0  0  0
 27 32  1  0  0  0  0
 28 27  1  0  0  0  0
 29 30  1  0  0  0  0
 31 33  1  6  0  0  0
 31 27  1  0  0  0  0
 31 29  1  0  0  0  0
 32 30  1  0  0  0  0
 34 28  2  0  0  0  0
 36 37  2  0  0  0  0
 36 39  1  0  0  0  0
 37 41  1  0  0  0  0
 39 40  2  0  0  0  0
 40 38  1  0  0  0  0
 40 35  1  0  0  0  0
 41 38  2  0  0  0  0
 42 43  1  0  0  0  0
 43 37  1  0  0  0  0
M  END
>  <MODEL>
3

>  <REMARK>
 VINA RESULT:      -9.4      2.209      5.727
  Name = 
  8 active torsions:
  status: ('A' for Active; 'I' for Inactive)
    1  A    between atoms: N_1  and  C_34
    2  A    between atoms: N_1  and  C_35
    3  A    between atoms: C_2  and  N_6
    4  A    between atoms: C_2  and  C_13
    5  A    between atoms: C_3  and  N_4
    6  A    between atoms: C_3  and  C_12
    7  A    between atoms: C_14  and  C_22
    8  A    between atoms: C_19  and  N_37
                            x       y       z     vdW  Elec       q    Type
                         _______ _______ _______ _____ _____    ______ ____

>  <TORSDO>
F 8

$$$$
=
 OpenBabel10272414023D

 43 48  0  0  1  0  0  0  0  0999 V2000
  181.4750  179.0840  142.1230 C   0  0  0  0  0  0  0  0  0  0  0  0
  186.1160  178.2700  143.9650 C   0  0  0  0  0  0  0  0  0  0  0  0
  187.7730  177.5800  141.7320 C   0  0  2  0  0  3  0  0  0  0  0  0
  183.3640  178.6880  143.5860 C   0  0  0  0  0  0  0  0  0  0  0  0
  182.3250  179.0660  141.0120 C   0  0  0  0  0  3  0  0  0  0  0  0
  180.1140  179.2890  141.9500 O   0  0  0  0  0  1  0  0  0  0  0  0
  184.2320  178.6650  142.4660 C   0  0  0  0  0  0  0  0  0  0  0  0
  181.9950  178.8970  143.4080 C   0  0  0  0  0  3  0  0  0  0  0  0
  183.6960  178.8580  141.1820 C   0  0  0  0  0  3  0  0  0  0  0  0
  186.5800  178.5180  141.5050 C   0  0  0  0  0  2  0  0  0  0  0  0
  185.6110  178.4520  142.6590 C   0  0  0  0  0  0  0  0  0  0  0  0
  185.2440  178.3020  145.0600 C   0  0  0  0  0  3  0  0  0  0  0  0
  187.5660  178.0460  144.1710 C   0  0  0  0  0  0  0  0  0  0  0  0
  188.3450  177.7810  143.1130 C   0  0  0  0  0  3  0  0  0  0  0  0
  183.8760  178.5090  144.8720 C   0  0  0  0  0  3  0  0  0  0  0  0
  188.8420  177.7950  140.6600 C   0  0  1  0  0  3  0  0  0  0  0  0
  190.1260  177.0630  141.0220 C   0  0  0  0  0  1  0  0  0  0  0  0
  188.3670  177.3150  139.3680 N   0  0  0  0  0  2  0  0  0  0  0  0
  188.4800  178.0940  138.1760 C   0  0  0  0  0  0  0  0  0  0  0  0
  188.9810  179.2510  138.2130 O   0  0  0  0  0  0  0  0  0  0  0  0
  187.9770  177.5360  136.8850 C   0  0  0  0  0  2  0  0  0  0  0  0
  188.0090  176.0800  136.9060 N   0  0  0  0  0  0  0  0  0  0  0  0
  187.4520  174.5640  135.1170 C   0  0  0  0  0  2  0  0  0  0  0  0
  189.2440  175.6710  136.2410 C   0  0  0  0  0  2  0  0  0  0  0  0
  186.9040  175.5910  136.0800 C   0  0  1  0  0  3  0  0  0  0  0  0
  188.8890  174.9610  134.9500 C   0  0  0  0  0  2  0  0  0  0  0  0
  184.6320  175.7300  137.2240 N   0  0  0  0  0  0  0  0  0  0  0  0
  185.8290  174.9930  136.9380 C   0  0  0  0  0  0  0  0  0  0  0  0
  182.6980  176.3430  138.5030 C   0  0  0  0  0  2  0  0  0  0  0  0
  182.7480  177.6060  137.1980 S   0  0  0  0  0  0  0  0  0  0  0  0
  183.5970  175.1950  138.0930 C   0  0  1  0  0  3  0  0  0  0  0  0
  184.4080  177.0670  136.6980 C   0  0  0  0  0  2  0  0  0  0  0  0
  182.8510  174.2410  137.4020 O   0  0  0  0  0  1  0  0  0  0  0  0
  185.9840  173.8310  137.4060 O   0  0  0  0  0  0  0  0  0  0  0  0
  188.1140  178.1740  145.4940 N   0  0  0  0  0  2  0  0  0  0  0  0
  190.3920  176.3010  147.8290 C   0  0  0  0  0  3  0  0  0  0  0  0
  191.5750  176.2970  147.0860 C   0  0  0  0  0  0  0  0  0  0  0  0
  190.4570  177.5300  145.3190 C   0  0  0  0  0  3  0  0  0  0  0  0
  189.2440  176.9140  147.3160 C   0  0  0  0  0  3  0  0  0  0  0  0
  189.2670  177.5280  146.0540 C   0  0  0  0  0  0  0  0  0  0  0  0
  191.6050  176.9160  145.8280 C   0  0  0  0  0  3  0  0  0  0  0  0
  193.4030  176.1520  148.7380 N   0  0  0  0  0  1  0  0  0  0  0  0
  192.7340  175.6490  147.6140 N   0  0  0  0  0  2  0  0  0  0  0  0
  1  8  1  0  0  0  0
  2 13  1  0  0  0  0
  2 12  1  0  0  0  0
  3 16  1  6  0  0  0
  3 14  1  0  0  0  0
  4 15  1  0  0  0  0
  5  9  1  0  0  0  0
  5  1  2  0  0  0  0
  6  1  1  0  0  0  0
  7 11  1  0  0  0  0
  7  4  1  0  0  0  0
  8  4  2  0  0  0  0
  9  7  2  0  0  0  0
 10  3  1  0  0  0  0
 10 11  1  0  0  0  0
 11  2  2  0  0  0  0
 13 35  1  0  0  0  0
 14 13  2  0  0  0  0
 15 12  2  0  0  0  0
 16 17  1  1  0  0  0
 18 16  1  0  0  0  0
 19 20  2  0  0  0  0
 19 18  1  0  0  0  0
 21 22  1  0  0  0  0
 21 19  1  0  0  0  0
 23 25  1  0  0  0  0
 24 22  1  0  0  0  0
 25 22  1  0  0  0  0
 25 28  1  1  0  0  0
 26 23  1  0  0  0  0
 26 24  1  0  0  0  0
 27 31  1  0  0  0  0
 28 27  1  0  0  0  0
 28 34  2  0  0  0  0
 30 29  1  0  0  0  0
 31 33  1  6  0  0  0
 31 29  1  0  0  0  0
 32 30  1  0  0  0  0
 32 27  1  0  0  0  0
 35 40  1  0  0  0  0
 37 43  1  0  0  0  0
 37 36  2  0  0  0  0
 38 41  2  0  0  0  0
 38 40  1  0  0  0  0
 39 36  1  0  0  0  0
 40 39  2  0  0  0  0
 41 37  1  0  0  0  0
 43 42  1  0  0  0  0
M  END
>  <MODEL>
4

>  <REMARK>
 VINA RESULT:      -9.4      2.846      7.491
  Name = 
  8 active torsions:
  status: ('A' for Active; 'I' for Inactive)
    1  A    between atoms: N_1  and  C_34
    2  A    between atoms: N_1  and  C_35
    3  A    between atoms: C_2  and  N_6
    4  A    between atoms: C_2  and  C_13
    5  A    between atoms: C_3  and  N_4
    6  A    between atoms: C_3  and  C_12
    7  A    between atoms: C_14  and  C_22
    8  A    between atoms: C_19  and  N_37
                            x       y       z     vdW  Elec       q    Type
                         _______ _______ _______ _____ _____    ______ ____

>  <TORSDO>
F 8

$$$$
=
 OpenBabel10272414023D

 43 48  0  0  1  0  0  0  0  0999 V2000
  187.9050  177.7160  147.6310 C   0  0  0  0  0  0  0  0  0  0  0  0
  185.5720  178.4850  143.2090 C   0  0  0  0  0  0  0  0  0  0  0  0
  187.6310  178.7770  141.2380 C   0  0  2  0  0  3  0  0  0  0  0  0
  186.2620  178.1870  145.9150 C   0  0  0  0  0  0  0  0  0  0  0  0
  188.8870  177.5380  146.6500 C   0  0  0  0  0  3  0  0  0  0  0  0
  188.2320  177.5720  148.9710 O   0  0  0  0  0  1  0  0  0  0  0  0
  187.2500  178.0110  144.9150 C   0  0  0  0  0  0  0  0  0  0  0  0
  186.5950  178.0390  147.2630 C   0  0  0  0  0  3  0  0  0  0  0  0
  188.5610  177.6840  145.2990 C   0  0  0  0  0  3  0  0  0  0  0  0
  187.8990  177.8900  142.4610 C   0  0  0  0  0  2  0  0  0  0  0  0
  186.9020  178.1650  143.5580 C   0  0  0  0  0  0  0  0  0  0  0  0
  184.6080  178.6500  144.2110 C   0  0  0  0  0  3  0  0  0  0  0  0
  185.2030  178.6480  141.7830 C   0  0  0  0  0  0  0  0  0  0  0  0
  186.1720  178.7250  140.8600 C   0  0  0  0  0  3  0  0  0  0  0  0
  184.9510  178.5020  145.5560 C   0  0  0  0  0  3  0  0  0  0  0  0
  188.5160  178.3590  140.0620 C   0  0  1  0  0  3  0  0  0  0  0  0
  189.6440  177.4510  140.5310 C   0  0  0  0  0  1  0  0  0  0  0  0
  187.7260  177.6580  139.0580 N   0  0  0  0  0  2  0  0  0  0  0  0
  187.6340  178.1110  137.7060 C   0  0  0  0  0  0  0  0  0  0  0  0
  188.2280  179.1640  137.3430 O   0  0  0  0  0  0  0  0  0  0  0  0
  186.8100  177.3400  136.7290 C   0  0  0  0  0  2  0  0  0  0  0  0
  187.3030  175.9750  136.6030 N   0  0  0  0  0  0  0  0  0  0  0  0
  187.1080  174.5030  134.7040 C   0  0  0  0  0  2  0  0  0  0  0  0
  188.5440  176.0380  135.8350 C   0  0  0  0  0  2  0  0  0  0  0  0
  186.3450  175.2210  135.7920 C   0  0  1  0  0  3  0  0  0  0  0  0
  188.3270  175.3550  134.5010 C   0  0  0  0  0  2  0  0  0  0  0  0
  184.2000  173.9860  136.3960 N   0  0  0  0  0  0  0  0  0  0  0  0
  185.5900  174.2430  136.6430 C   0  0  0  0  0  0  0  0  0  0  0  0
  181.9630  173.3410  136.9700 C   0  0  0  0  0  2  0  0  0  0  0  0
  181.7880  173.9780  135.2770 S   0  0  0  0  0  0  0  0  0  0  0  0
  183.4310  173.0830  137.2360 C   0  0  1  0  0  3  0  0  0  0  0  0
  183.4750  174.6470  135.3220 C   0  0  0  0  0  2  0  0  0  0  0  0
  183.7390  171.7620  136.9090 O   0  0  0  0  0  1  0  0  0  0  0  0
  186.1870  173.6450  137.5800 O   0  0  0  0  0  0  0  0  0  0  0  0
  183.8130  178.6620  141.4170 N   0  0  0  0  0  2  0  0  0  0  0  0
  182.2740  179.1210  138.0150 C   0  0  0  0  0  3  0  0  0  0  0  0
  182.0490  177.7910  137.6520 C   0  0  0  0  0  0  0  0  0  0  0  0
  182.9830  177.0660  139.7720 C   0  0  0  0  0  3  0  0  0  0  0  0
  182.8560  179.4220  139.2510 C   0  0  0  0  0  3  0  0  0  0  0  0
  183.2200  178.3960  140.1360 C   0  0  0  0  0  0  0  0  0  0  0  0
  182.4040  176.7620  138.5370 C   0  0  0  0  0  3  0  0  0  0  0  0
  182.0050  178.0290  135.1960 N   0  0  0  0  0  1  0  0  0  0  0  0
  181.4720  177.4980  136.3780 N   0  0  0  0  0  2  0  0  0  0  0  0
  1  6  1  0  0  0  0
  2 11  2  0  0  0  0
  2 12  1  0  0  0  0
  3 16  1  6  0  0  0
  3 10  1  0  0  0  0
  4  8  2  0  0  0  0
  5  1  2  0  0  0  0
  7  9  2  0  0  0  0
  7  4  1  0  0  0  0
  8  1  1  0  0  0  0
  9  5  1  0  0  0  0
 10 11  1  0  0  0  0
 11  7  1  0  0  0  0
 12 15  2  0  0  0  0
 13  2  1  0  0  0  0
 14  3  1  0  0  0  0
 14 13  2  0  0  0  0
 15  4  1  0  0  0  0
 16 17  1  1  0  0  0
 18 16  1  0  0  0  0
 19 18  1  0  0  0  0
 20 19  2  0  0  0  0
 21 19  1  0  0  0  0
 22 21  1  0  0  0  0
 23 25  1  0  0  0  0
 24 22  1  0  0  0  0
 25 22  1  0  0  0  0
 25 28  1  1  0  0  0
 26 23  1  0  0  0  0
 26 24  1  0  0  0  0
 27 28  1  0  0  0  0
 27 31  1  0  0  0  0
 28 34  2  0  0  0  0
 29 31  1  0  0  0  0
 30 32  1  0  0  0  0
 30 29  1  0  0  0  0
 31 33  1  6  0  0  0
 32 27  1  0  0  0  0
 35 13  1  0  0  0  0
 36 39  1  0  0  0  0
 37 36  2  0  0  0  0
 37 41  1  0  0  0  0
 38 40  1  0  0  0  0
 39 40  2  0  0  0  0
 40 35  1  0  0  0  0
 41 38  2  0  0  0  0
 42 43  1  0  0  0  0
 43 37  1  0  0  0  0
M  END
>  <MODEL>
5

>  <REMARK>
 VINA RESULT:      -9.2      2.381      5.677
  Name = 
  8 active torsions:
  status: ('A' for Active; 'I' for Inactive)
    1  A    between atoms: N_1  and  C_34
    2  A    between atoms: N_1  and  C_35
    3  A    between atoms: C_2  and  N_6
    4  A    between atoms: C_2  and  C_13
    5  A    between atoms: C_3  and  N_4
    6  A    between atoms: C_3  and  C_12
    7  A    between atoms: C_14  and  C_22
    8  A    between atoms: C_19  and  N_37
                            x       y       z     vdW  Elec       q    Type
                         _______ _______ _______ _____ _____    ______ ____

>  <TORSDO>
F 8

$$$$
=
 OpenBabel10272414023D

 43 48  0  0  1  0  0  0  0  0999 V2000
  191.6940  176.3990  147.0640 C   0  0  0  0  0  0  0  0  0  0  0  0
  187.3990  177.8460  144.8170 C   0  0  0  0  0  0  0  0  0  0  0  0
  187.9730  178.0610  142.0180 C   0  0  2  0  0  3  0  0  0  0  0  0
  189.4600  177.2210  146.6200 C   0  0  0  0  0  0  0  0  0  0  0  0
  191.8960  176.1920  145.6950 C   0  0  0  0  0  3  0  0  0  0  0  0
  192.7040  176.0950  147.9660 O   0  0  0  0  0  1  0  0  0  0  0  0
  189.6560  177.0170  145.2320 C   0  0  0  0  0  0  0  0  0  0  0  0
  190.4780  176.9120  147.5250 C   0  0  0  0  0  3  0  0  0  0  0  0
  190.8820  176.4990  144.7840 C   0  0  0  0  0  3  0  0  0  0  0  0
  188.7540  177.0410  142.8560 C   0  0  0  0  0  2  0  0  0  0  0  0
  188.6210  177.3350  144.3300 C   0  0  0  0  0  0  0  0  0  0  0  0
  187.2210  178.0360  146.1930 C   0  0  0  0  0  3  0  0  0  0  0  0
  186.3100  178.1810  143.8700 C   0  0  0  0  0  0  0  0  0  0  0  0
  186.5730  178.2220  142.5560 C   0  0  0  0  0  3  0  0  0  0  0  0
  188.2460  177.7250  147.0890 C   0  0  0  0  0  3  0  0  0  0  0  0
  187.9480  177.6460  140.5460 C   0  0  1  0  0  3  0  0  0  0  0  0
  186.8760  178.4130  139.7860 C   0  0  0  0  0  1  0  0  0  0  0  0
  189.2440  177.8990  139.9280 N   0  0  0  0  0  2  0  0  0  0  0  0
  190.2800  176.9160  139.8980 C   0  0  0  0  0  0  0  0  0  0  0  0
  190.1080  175.7880  140.4370 O   0  0  0  0  0  0  0  0  0  0  0  0
  191.5810  177.2420  139.2420 C   0  0  0  0  0  2  0  0  0  0  0  0
  192.0820  176.0970  138.4930 N   0  0  0  0  0  0  0  0  0  0  0  0
  192.4250  175.9250  136.1130 C   0  0  0  0  0  2  0  0  0  0  0  0
  193.4900  176.3570  138.2060 C   0  0  0  0  0  2  0  0  0  0  0  0
  191.3890  176.0630  137.2040 C   0  0  1  0  0  3  0  0  0  0  0  0
  193.6570  176.5390  136.7110 C   0  0  0  0  0  2  0  0  0  0  0  0
  189.0280  175.1590  136.8860 N   0  0  0  0  0  0  0  0  0  0  0  0
  190.4160  174.9210  137.1580 C   0  0  0  0  0  0  0  0  0  0  0  0
  186.6760  174.6980  136.9700 C   0  0  0  0  0  2  0  0  0  0  0  0
  186.7460  176.3590  136.2370 S   0  0  0  0  0  0  0  0  0  0  0  0
  188.0550  174.0790  136.8860 C   0  0  1  0  0  3  0  0  0  0  0  0
  188.5100  176.4960  136.6400 C   0  0  0  0  0  2  0  0  0  0  0  0
  188.1680  173.3470  135.7030 O   0  0  0  0  0  1  0  0  0  0  0  0
  190.8300  173.7460  137.3590 O   0  0  0  0  0  0  0  0  0  0  0  0
  184.9820  178.3980  144.3780 N   0  0  0  0  0  2  0  0  0  0  0  0
  181.3990  179.1630  143.5240 C   0  0  0  0  0  3  0  0  0  0  0  0
  181.4160  178.9660  142.1400 C   0  0  0  0  0  0  0  0  0  0  0  0
  183.7730  178.3960  142.2620 C   0  0  0  0  0  3  0  0  0  0  0  0
  182.5670  178.9810  144.2720 C   0  0  0  0  0  3  0  0  0  0  0  0
  183.7640  178.6020  143.6460 C   0  0  0  0  0  0  0  0  0  0  0  0
  182.6080  178.5790  141.5110 C   0  0  0  0  0  3  0  0  0  0  0  0
  180.1610  180.1290  140.3620 N   0  0  0  0  0  1  0  0  0  0  0  0
  180.2210  179.1750  141.3860 N   0  0  0  0  0  2  0  0  0  0  0  0
  1  8  1  0  0  0  0
  1  6  1  0  0  0  0
  2 12  1  0  0  0  0
  3 16  1  6  0  0  0
  3 14  1  0  0  0  0
  3 10  1  0  0  0  0
  4 15  1  0  0  0  0
  4  8  2  0  0  0  0
  5  1  2  0  0  0  0
  7  4  1  0  0  0  0
  9  7  2  0  0  0  0
  9  5  1  0  0  0  0
 10 11  1  0  0  0  0
 11  2  2  0  0  0  0
 11  7  1  0  0  0  0
 12 15  2  0  0  0  0
 13 35  1  0  0  0  0
 13  2  1  0  0  0  0
 14 13  2  0  0  0  0
 16 17  1  6  0  0  0
 18 16  1  0  0  0  0
 19 18  1  0  0  0  0
 19 20  2  0  0  0  0
 21 19  1  0  0  0  0
 22 21  1  0  0  0  0
 23 26  1  0  0  0  0
 23 25  1  0  0  0  0
 24 22  1  0  0  0  0
 25 28  1  1  0  0  0
 25 22  1  0  0  0  0
 26 24  1  0  0  0  0
 27 28  1  0  0  0  0
 28 34  2  0  0  0  0
 30 32  1  0  0  0  0
 30 29  1  0  0  0  0
 31 33  1  6  0  0  0
 31 27  1  0  0  0  0
 31 29  1  0  0  0  0
 32 27  1  0  0  0  0
 36 39  1  0  0  0  0
 37 36  2  0  0  0  0
 38 40  1  0  0  0  0
 40 39  2  0  0  0  0
 40 35  1  0  0  0  0
 41 37  1  0  0  0  0
 41 38  2  0  0  0  0
 42 43  1  0  0  0  0
 43 37  1  0  0  0  0
M  END
>  <MODEL>
6

>  <REMARK>
 VINA RESULT:      -9.1      2.781      6.932
  Name = 
  8 active torsions:
  status: ('A' for Active; 'I' for Inactive)
    1  A    between atoms: N_1  and  C_34
    2  A    between atoms: N_1  and  C_35
    3  A    between atoms: C_2  and  N_6
    4  A    between atoms: C_2  and  C_13
    5  A    between atoms: C_3  and  N_4
    6  A    between atoms: C_3  and  C_12
    7  A    between atoms: C_14  and  C_22
    8  A    between atoms: C_19  and  N_37
                            x       y       z     vdW  Elec       q    Type
                         _______ _______ _______ _____ _____    ______ ____

>  <TORSDO>
F 8

$$$$
=
 OpenBabel10272414023D

 43 48  0  0  1  0  0  0  0  0999 V2000
  187.8940  177.7670  147.6340 C   0  0  0  0  0  0  0  0  0  0  0  0
  185.5230  178.4980  143.2250 C   0  0  0  0  0  0  0  0  0  0  0  0
  187.5650  178.7890  141.2370 C   0  0  2  0  0  3  0  0  0  0  0  0
  186.2360  178.2190  145.9280 C   0  0  0  0  0  0  0  0  0  0  0  0
  188.8690  177.5890  146.6460 C   0  0  0  0  0  3  0  0  0  0  0  0
  188.2330  177.6330  148.9720 O   0  0  0  0  0  1  0  0  0  0  0  0
  187.2170  178.0420  144.9210 C   0  0  0  0  0  0  0  0  0  0  0  0
  186.5800  178.0810  147.2740 C   0  0  0  0  0  3  0  0  0  0  0  0
  188.5330  177.7250  145.2970 C   0  0  0  0  0  3  0  0  0  0  0  0
  187.8470  177.9110  142.4630 C   0  0  0  0  0  2  0  0  0  0  0  0
  186.8570  178.1860  143.5660 C   0  0  0  0  0  0  0  0  0  0  0  0
  184.5660  178.6630  144.2340 C   0  0  0  0  0  3  0  0  0  0  0  0
  185.1430  178.6500  141.8010 C   0  0  0  0  0  0  0  0  0  0  0  0
  186.1040  178.7260  140.8700 C   0  0  0  0  0  3  0  0  0  0  0  0
  184.9200  178.5250  145.5770 C   0  0  0  0  0  3  0  0  0  0  0  0
  188.4440  178.3690  140.0570 C   0  0  1  0  0  3  0  0  0  0  0  0
  189.1240  177.0360  140.3370 C   0  0  0  0  0  1  0  0  0  0  0  0
  187.6410  178.2500  138.8460 N   0  0  0  0  0  2  0  0  0  0  0  0
  188.1650  178.5470  137.5510 C   0  0  0  0  0  0  0  0  0  0  0  0
  189.3530  178.9530  137.4190 O   0  0  0  0  0  0  0  0  0  0  0  0
  187.2870  178.3980  136.3520 C   0  0  0  0  0  2  0  0  0  0  0  0
  187.3420  177.0350  135.8410 N   0  0  0  0  0  0  0  0  0  0  0  0
  187.8960  175.0250  137.0510 C   0  0  0  0  0  2  0  0  0  0  0  0
  186.1010  176.3780  136.2450 C   0  0  0  0  0  2  0  0  0  0  0  0
  188.4310  176.3370  136.5280 C   0  0  1  0  0  3  0  0  0  0  0  0
  186.4310  175.2870  137.2440 C   0  0  0  0  0  2  0  0  0  0  0  0
  190.9200  176.0000  136.1000 N   0  0  0  0  0  0  0  0  0  0  0  0
  189.5810  176.1060  135.5940 C   0  0  0  0  0  0  0  0  0  0  0  0
  193.3100  176.1530  135.9990 C   0  0  0  0  0  2  0  0  0  0  0  0
  192.9910  175.8140  137.7560 S   0  0  0  0  0  0  0  0  0  0  0  0
  192.0580  175.8280  135.2130 C   0  0  1  0  0  3  0  0  0  0  0  0
  191.2150  176.1040  137.5200 C   0  0  0  0  0  2  0  0  0  0  0  0
  192.1130  174.5050  134.7730 O   0  0  0  0  0  1  0  0  0  0  0  0
  189.3630  176.0040  134.3550 O   0  0  0  0  0  0  0  0  0  0  0  0
  183.7490  178.6540  141.4450 N   0  0  0  0  0  2  0  0  0  0  0  0
  182.2370  179.0900  138.0290 C   0  0  0  0  0  3  0  0  0  0  0  0
  181.9580  177.7610  137.6990 C   0  0  0  0  0  0  0  0  0  0  0  0
  182.8570  177.0530  139.8390 C   0  0  0  0  0  3  0  0  0  0  0  0
  182.8290  179.3980  139.2590 C   0  0  0  0  0  3  0  0  0  0  0  0
  183.1490  178.3800  140.1710 C   0  0  0  0  0  0  0  0  0  0  0  0
  182.2690  176.7420  138.6100 C   0  0  0  0  0  3  0  0  0  0  0  0
  181.8720  178.0160  135.2450 N   0  0  0  0  0  1  0  0  0  0  0  0
  181.3720  177.4600  136.4310 N   0  0  0  0  0  2  0  0  0  0  0  0
  1  6  1  0  0  0  0
  2 11  2  0  0  0  0
  2 12  1  0  0  0  0
  3 16  1  6  0  0  0
  3 10  1  0  0  0  0
  4  8  2  0  0  0  0
  5  1  2  0  0  0  0
  7  9  2  0  0  0  0
  7  4  1  0  0  0  0
  8  1  1  0  0  0  0
  9  5  1  0  0  0  0
 10 11  1  0  0  0  0
 11  7  1  0  0  0  0
 12 15  2  0  0  0  0
 13  2  1  0  0  0  0
 14  3  1  0  0  0  0
 14 13  2  0  0  0  0
 15  4  1  0  0  0  0
 16 17  1  1  0  0  0
 18 16  1  0  0  0  0
 19 18  1  0  0  0  0
 20 19  2  0  0  0  0
 21 19  1  0  0  0  0
 22 24  1  0  0  0  0
 22 21  1  0  0  0  0
 22 25  1  0  0  0  0
 23 26  1  0  0  0  0
 24 26  1  0  0  0  0
 25 28  1  6  0  0  0
 25 23  1  0  0  0  0
 27 32  1  0  0  0  0
 28 27  1  0  0  0  0
 29 30  1  0  0  0  0
 31 33  1  1  0  0  0
 31 29  1  0  0  0  0
 31 27  1  0  0  0  0
 32 30  1  0  0  0  0
 34 28  2  0  0  0  0
 35 13  1  0  0  0  0
 36 39  1  0  0  0  0
 37 36  2  0  0  0  0
 37 41  1  0  0  0  0
 38 40  1  0  0  0  0
 39 40  2  0  0  0  0
 40 35  1  0  0  0  0
 41 38  2  0  0  0  0
 42 43  1  0  0  0  0
 43 37  1  0  0  0  0
M  END
>  <MODEL>
7

>  <REMARK>
 VINA RESULT:      -8.8      2.733      6.181
  Name = 
  8 active torsions:
  status: ('A' for Active; 'I' for Inactive)
    1  A    between atoms: N_1  and  C_34
    2  A    between atoms: N_1  and  C_35
    3  A    between atoms: C_2  and  N_6
    4  A    between atoms: C_2  and  C_13
    5  A    between atoms: C_3  and  N_4
    6  A    between atoms: C_3  and  C_12
    7  A    between atoms: C_14  and  C_22
    8  A    between atoms: C_19  and  N_37
                            x       y       z     vdW  Elec       q    Type
                         _______ _______ _______ _____ _____    ______ ____

>  <TORSDO>
F 8

$$$$
=
 OpenBabel10272414023D

 43 48  0  0  1  0  0  0  0  0999 V2000
  190.6380  176.7100  146.7670 C   0  0  0  0  0  0  0  0  0  0  0  0
  188.0820  177.9950  142.5950 C   0  0  0  0  0  0  0  0  0  0  0  0
  185.3000  177.8650  143.2680 C   0  0  2  0  0  3  0  0  0  0  0  0
  190.0130  177.2290  144.4860 C   0  0  0  0  0  0  0  0  0  0  0  0
  189.3260  176.9510  147.1880 C   0  0  0  0  0  3  0  0  0  0  0  0
  191.6020  176.3310  147.6900 O   0  0  0  0  0  1  0  0  0  0  0  0
  188.6800  177.4740  144.9020 C   0  0  0  0  0  0  0  0  0  0  0  0
  190.9800  176.8500  145.4190 C   0  0  0  0  0  3  0  0  0  0  0  0
  188.3520  177.3310  146.2610 C   0  0  0  0  0  3  0  0  0  0  0  0
  186.3110  178.2180  144.3670 C   0  0  0  0  0  2  0  0  0  0  0  0
  187.7140  177.8540  143.9510 C   0  0  0  0  0  0  0  0  0  0  0  0
  189.4050  177.7550  142.2030 C   0  0  0  0  0  3  0  0  0  0  0  0
  187.0660  178.3950  141.5930 C   0  0  0  0  0  0  0  0  0  0  0  0
  185.7700  178.3880  141.9350 C   0  0  0  0  0  3  0  0  0  0  0  0
  190.3640  177.3740  143.1430 C   0  0  0  0  0  3  0  0  0  0  0  0
  183.9130  178.4120  143.6130 C   0  0  1  0  0  3  0  0  0  0  0  0
  184.0000  179.4320  144.7390 C   0  0  0  0  0  1  0  0  0  0  0  0
  183.3130  179.0420  142.4430 N   0  0  0  0  0  2  0  0  0  0  0  0
  181.9060  179.0180  142.2010 C   0  0  0  0  0  0  0  0  0  0  0  0
  181.1300  178.4190  142.9960 O   0  0  0  0  0  0  0  0  0  0  0  0
  181.3590  179.6890  140.9850 C   0  0  0  0  0  2  0  0  0  0  0  0
  181.3250  178.7660  139.8590 N   0  0  0  0  0  0  0  0  0  0  0  0
  183.0780  178.3070  138.2690 C   0  0  0  0  0  2  0  0  0  0  0  0
  182.0280  177.5560  140.2770 C   0  0  0  0  0  2  0  0  0  0  0  0
  182.1070  179.3520  138.7690 C   0  0  1  0  0  3  0  0  0  0  0  0
  183.2980  177.4240  139.4630 C   0  0  0  0  0  2  0  0  0  0  0  0
  181.0800  181.2070  137.3570 N   0  0  0  0  0  0  0  0  0  0  0  0
  181.2070  179.8110  137.6610 C   0  0  0  0  0  0  0  0  0  0  0  0
  179.9820  183.1710  136.5290 C   0  0  0  0  0  2  0  0  0  0  0  0
  181.4630  183.8380  137.3440 S   0  0  0  0  0  0  0  0  0  0  0  0
  180.1770  181.6840  136.3230 C   0  0  1  0  0  3  0  0  0  0  0  0
  181.8140  182.2240  138.0950 C   0  0  0  0  0  2  0  0  0  0  0  0
  180.7400  181.4560  135.0680 O   0  0  0  0  0  1  0  0  0  0  0  0
  180.5600  178.9570  136.9930 O   0  0  0  0  0  0  0  0  0  0  0  0
  187.5000  178.8370  140.2950 N   0  0  0  0  0  2  0  0  0  0  0  0
  188.8170  176.4110  137.7400 C   0  0  0  0  0  3  0  0  0  0  0  0
  187.9080  176.6150  136.6990 C   0  0  0  0  0  0  0  0  0  0  0  0
  186.7570  178.2760  138.0430 C   0  0  0  0  0  3  0  0  0  0  0  0
  188.6930  177.1350  138.9310 C   0  0  0  0  0  3  0  0  0  0  0  0
  187.6580  178.0690  139.0930 C   0  0  0  0  0  0  0  0  0  0  0  0
  186.8770  177.5530  136.8540 C   0  0  0  0  0  3  0  0  0  0  0  0
  189.2830  175.6360  134.8980 N   0  0  0  0  0  1  0  0  0  0  0  0
  188.0350  175.8530  135.4960 N   0  0  0  0  0  2  0  0  0  0  0  0
  1  5  1  0  0  0  0
  1  6  1  0  0  0  0
  2 11  1  0  0  0  0
  3 16  1  1  0  0  0
  3 10  1  0  0  0  0
  4  7  1  0  0  0  0
  4  8  1  0  0  0  0
  7  9  1  0  0  0  0
  8  1  2  0  0  0  0
  9  5  2  0  0  0  0
 11 10  1  0  0  0  0
 11  7  2  0  0  0  0
 12  2  2  0  0  0  0
 12 15  1  0  0  0  0
 13 14  2  0  0  0  0
 13  2  1  0  0  0  0
 14  3  1  0  0  0  0
 15  4  2  0  0  0  0
 16 17  1  1  0  0  0
 18 16  1  0  0  0  0
 19 18  1  0  0  0  0
 19 20  2  0  0  0  0
 21 19  1  0  0  0  0
 22 24  1  0  0  0  0
 22 21  1  0  0  0  0
 23 25  1  0  0  0  0
 23 26  1  0  0  0  0
 25 28  1  6  0  0  0
 25 22  1  0  0  0  0
 26 24  1  0  0  0  0
 27 28  1  0  0  0  0
 27 32  1  0  0  0  0
 29 30  1  0  0  0  0
 30 32  1  0  0  0  0
 31 33  1  6  0  0  0
 31 29  1  0  0  0  0
 31 27  1  0  0  0  0
 34 28  2  0  0  0  0
 35 13  1  0  0  0  0
 36 39  1  0  0  0  0
 37 41  1  0  0  0  0
 37 36  2  0  0  0  0
 38 40  1  0  0  0  0
 39 40  2  0  0  0  0
 40 35  1  0  0  0  0
 41 38  2  0  0  0  0
 42 43  1  0  0  0  0
 43 37  1  0  0  0  0
M  END
>  <MODEL>
8

>  <REMARK>
 VINA RESULT:      -8.6      2.206      3.200
  Name = 
  8 active torsions:
  status: ('A' for Active; 'I' for Inactive)
    1  A    between atoms: N_1  and  C_34
    2  A    between atoms: N_1  and  C_35
    3  A    between atoms: C_2  and  N_6
    4  A    between atoms: C_2  and  C_13
    5  A    between atoms: C_3  and  N_4
    6  A    between atoms: C_3  and  C_12
    7  A    between atoms: C_14  and  C_22
    8  A    between atoms: C_19  and  N_37
                            x       y       z     vdW  Elec       q    Type
                         _______ _______ _______ _____ _____    ______ ____

>  <TORSDO>
F 8

$$$$
=
 OpenBabel10272414023D

 43 48  0  0  1  0  0  0  0  0999 V2000
  191.6150  176.4180  147.1940 C   0  0  0  0  0  0  0  0  0  0  0  0
  187.5850  177.7230  144.4280 C   0  0  0  0  0  0  0  0  0  0  0  0
  188.4810  177.9050  141.7120 C   0  0  2  0  0  3  0  0  0  0  0  0
  189.4310  177.1780  146.4730 C   0  0  0  0  0  0  0  0  0  0  0  0
  191.9810  176.1930  145.8620 C   0  0  0  0  0  3  0  0  0  0  0  0
  192.5170  176.1540  148.2140 O   0  0  0  0  0  1  0  0  0  0  0  0
  189.7940  176.9550  145.1220 C   0  0  0  0  0  0  0  0  0  0  0  0
  190.3410  176.9090  147.4980 C   0  0  0  0  0  3  0  0  0  0  0  0
  191.0760  176.4600  144.8320 C   0  0  0  0  0  3  0  0  0  0  0  0
  189.1790  176.9180  142.6570 C   0  0  0  0  0  2  0  0  0  0  0  0
  188.8670  177.2330  144.0980 C   0  0  0  0  0  0  0  0  0  0  0  0
  187.2410  177.9310  145.7690 C   0  0  0  0  0  3  0  0  0  0  0  0
  186.6080  178.0150  143.3520 C   0  0  0  0  0  0  0  0  0  0  0  0
  187.0240  178.0410  142.0790 C   0  0  0  0  0  3  0  0  0  0  0  0
  188.1590  177.6610  146.7860 C   0  0  0  0  0  3  0  0  0  0  0  0
  188.6400  177.4650  140.2560 C   0  0  1  0  0  3  0  0  0  0  0  0
  187.9020  178.4130  139.3220 C   0  0  0  0  0  1  0  0  0  0  0  0
  190.0500  177.4350  139.8880 N   0  0  0  0  0  2  0  0  0  0  0  0
  190.6130  176.3800  139.1060 C   0  0  0  0  0  0  0  0  0  0  0  0
  189.8950  175.4140  138.7240 O   0  0  0  0  0  0  0  0  0  0  0  0
  192.0650  176.4160  138.7610 C   0  0  0  0  0  2  0  0  0  0  0  0
  192.2500  176.5860  137.3260 N   0  0  0  0  0  0  0  0  0  0  0  0
  192.2400  174.8800  135.6230 C   0  0  0  0  0  2  0  0  0  0  0  0
  190.9230  176.5450  136.7170 C   0  0  0  0  0  2  0  0  0  0  0  0
  192.9810  175.4220  136.8230 C   0  0  1  0  0  3  0  0  0  0  0  0
  190.8180  175.2980  135.8630 C   0  0  0  0  0  2  0  0  0  0  0  0
  195.4710  174.8950  136.6990 N   0  0  0  0  0  0  0  0  0  0  0  0
  194.3840  175.8000  136.4530 C   0  0  0  0  0  0  0  0  0  0  0  0
  197.7490  174.2840  137.1280 C   0  0  0  0  0  2  0  0  0  0  0  0
  196.8530  172.7190  137.3470 S   0  0  0  0  0  0  0  0  0  0  0  0
  196.8460  175.2560  136.3980 C   0  0  1  0  0  3  0  0  0  0  0  0
  195.2610  173.5890  137.3030 C   0  0  0  0  0  2  0  0  0  0  0  0
  197.0660  175.1560  135.0240 O   0  0  0  0  0  1  0  0  0  0  0  0
  194.6040  176.9230  135.9200 O   0  0  0  0  0  0  0  0  0  0  0  0
  185.2250  178.2080  143.6960 N   0  0  0  0  0  2  0  0  0  0  0  0
  181.7740  178.9830  142.4150 C   0  0  0  0  0  3  0  0  0  0  0  0
  181.9550  178.7750  141.0450 C   0  0  0  0  0  0  0  0  0  0  0  0
  184.2770  178.1950  141.4520 C   0  0  0  0  0  3  0  0  0  0  0  0
  182.8430  178.8020  143.2990 C   0  0  0  0  0  3  0  0  0  0  0  0
  184.1050  178.4120  142.8220 C   0  0  0  0  0  0  0  0  0  0  0  0
  183.2110  178.3770  140.5660 C   0  0  0  0  0  3  0  0  0  0  0  0
  180.1870  180.2110  140.0950 N   0  0  0  0  0  1  0  0  0  0  0  0
  180.8590  178.9830  140.1520 N   0  0  0  0  0  2  0  0  0  0  0  0
  1  8  1  0  0  0  0
  1  6  1  0  0  0  0
  2 12  1  0  0  0  0
  3 16  1  6  0  0  0
  3 14  1  0  0  0  0
  3 10  1  0  0  0  0
  4 15  1  0  0  0  0
  4  8  2  0  0  0  0
  5  1  2  0  0  0  0
  7  4  1  0  0  0  0
  9  7  2  0  0  0  0
  9  5  1  0  0  0  0
 10 11  1  0  0  0  0
 11  2  2  0  0  0  0
 11  7  1  0  0  0  0
 12 15  2  0  0  0  0
 13 35  1  0  0  0  0
 13  2  1  0  0  0  0
 14 13  2  0  0  0  0
 16 17  1  6  0  0  0
 18 16  1  0  0  0  0
 19 18  1  0  0  0  0
 20 19  2  0  0  0  0
 21 19  1  0  0  0  0
 22 21  1  0  0  0  0
 23 26  1  0  0  0  0
 23 25  1  0  0  0  0
 24 22  1  0  0  0  0
 25 28  1  6  0  0  0
 25 22  1  0  0  0  0
 26 24  1  0  0  0  0
 27 32  1  0  0  0  0
 28 27  1  0  0  0  0
 29 30  1  0  0  0  0
 31 33  1  6  0  0  0
 31 27  1  0  0  0  0
 31 29  1  0  0  0  0
 32 30  1  0  0  0  0
 34 28  2  0  0  0  0
 36 39  1  0  0  0  0
 37 36  2  0  0  0  0
 38 40  1  0  0  0  0
 40 39  2  0  0  0  0
 40 35  1  0  0  0  0
 41 37  1  0  0  0  0
 41 38  2  0  0  0  0
 42 43  1  0  0  0  0
 43 37  1  0  0  0  0
M  END
>  <MODEL>
9

>  <REMARK>
 VINA RESULT:      -8.2      4.104      8.072
  Name = 
  8 active torsions:
  status: ('A' for Active; 'I' for Inactive)
    1  A    between atoms: N_1  and  C_34
    2  A    between atoms: N_1  and  C_35
    3  A    between atoms: C_2  and  N_6
    4  A    between atoms: C_2  and  C_13
    5  A    between atoms: C_3  and  N_4
    6  A    between atoms: C_3  and  C_12
    7  A    between atoms: C_14  and  C_22
    8  A    between atoms: C_19  and  N_37
                            x       y       z     vdW  Elec       q    Type
                         _______ _______ _______ _____ _____    ______ ____

>  <TORSDO>
F 8

$$$$
