=
 OpenBabel10272401453D

 28 31  0  0  1  0  0  0  0  0999 V2000
  187.4080  178.7210  139.5960 N   0  0  0  0  0  0  0  0  0  0  0  0
  190.3350  176.0520  139.2750 O   0  0  0  0  0  1  0  0  0  0  0  0
  188.3540  178.7830  140.7220 C   0  0  0  0  0  2  0  0  0  0  0  0
  189.4340  178.0410  138.3210 C   0  0  0  0  0  2  0  0  0  0  0  0
  190.0980  177.4010  139.5430 C   0  0  1  0  0  3  0  0  0  0  0  0
  187.9120  177.9580  138.4420 C   0  0  0  0  0  2  0  0  0  0  0  0
  189.2470  177.5330  140.8280 C   0  0  1  0  0  3  0  0  0  0  0  0
  190.8620  176.3540  142.1610 C   0  0  0  0  0  1  0  0  0  0  0  0
  190.0810  177.5800  142.0480 N   0  0  0  0  0  0  0  0  0  0  0  0
  190.2410  177.2110  147.0200 C   0  0  0  0  0  3  0  0  0  0  0  0
  187.9680  177.3890  145.8750 C   0  0  0  0  0  0  0  0  0  0  0  0
  190.1190  177.6580  144.5840 C   0  0  0  0  0  2  0  0  0  0  0  0
  188.2800  177.9960  148.2140 C   0  0  0  0  0  0  0  0  0  0  0  0
  189.4290  176.9840  145.7690 C   0  0  1  0  0  3  0  0  0  0  0  0
  187.8970  176.4610  143.2670 S   0  0  0  0  0  0  0  0  0  0  0  0
  187.4470  177.8440  147.0170 C   0  0  0  0  0  3  0  0  0  0  0  0
  187.0610  177.2440  144.6900 C   0  0  0  0  0  2  0  0  0  0  0  0
  187.7730  178.4130  149.2880 O   0  0  0  0  0  0  0  0  0  0  0  0
  189.7060  177.6690  148.1520 C   0  0  0  0  0  3  0  0  0  0  0  0
  189.2810  177.6580  143.2840 C   0  0  2  0  0  3  0  0  0  0  0  0
  186.2140  178.0430  140.0790 C   0  0  0  0  0  2  0  0  0  0  0  0
  185.2900  179.0320  140.7860 C   0  0  2  0  0  3  0  0  0  0  0  0
  183.0110  178.3900  140.7270 N   0  0  0  0  0  0  0  0  0  0  0  0
  184.9630  178.5320  142.0570 O   0  0  0  0  0  0  0  0  0  0  0  0
  184.0050  179.1290  138.5310 C   0  0  0  0  0  1  0  0  0  0  0  0
  183.9810  179.2370  140.0590 C   0  0  2  0  0  3  0  0  0  0  0  0
  183.0250  177.0330  140.1860 C   0  0  0  0  0  1  0  0  0  0  0  0
  183.5680  178.2940  142.0700 C   0  0  0  0  0  2  0  0  0  0  0  0
  1 21  1  0  0  0  0
  1  3  1  0  0  0  0
  3  7  1  0  0  0  0
  4  6  1  0  0  0  0
  4  5  1  0  0  0  0
  5  2  1  6  0  0  0
  5  7  1  0  0  0  0
  6  1  1  0  0  0  0
  7  9  1  1  0  0  0
  9  8  1  0  0  0  0
 10 19  2  0  0  0  0
 11 16  2  0  0  0  0
 13 18  2  0  0  0  0
 14 12  1  6  0  0  0
 14 11  1  0  0  0  0
 14 10  1  0  0  0  0
 15 20  1  0  0  0  0
 15 17  1  0  0  0  0
 16 13  1  0  0  0  0
 17 11  1  0  0  0  0
 19 13  1  0  0  0  0
 20  9  1  6  0  0  0
 20 12  1  0  0  0  0
 22 21  1  6  0  0  0
 22 24  1  0  0  0  0
 23 28  1  0  0  0  0
 24 28  1  0  0  0  0
 26 25  1  6  0  0  0
 26 23  1  0  0  0  0
 26 22  1  0  0  0  0
 27 23  1  0  0  0  0
M  END
>  <MODEL>
1

>  <REMARK>
 VINA RESULT:      -8.1      0.000      0.000
  Name = 
  4 active torsions:
  status: ('A' for Active; 'I' for Inactive)
    1  A    between atoms: N_1  and  C_2
    2  A    between atoms: C_2  and  C_3
    3  A    between atoms: N_20  and  C_25
    4  A    between atoms: N_20  and  C_27
                            x       y       z     vdW  Elec       q    Type
                         _______ _______ _______ _____ _____    ______ ____

>  <TORSDO>
F 4

$$$$
=
 OpenBabel10272401453D

 28 31  0  0  1  0  0  0  0  0999 V2000
  187.7510  178.4350  138.4920 N   0  0  0  0  0  0  0  0  0  0  0  0
  190.4460  175.6860  139.4760 O   0  0  0  0  0  1  0  0  0  0  0  0
  188.6080  178.8610  139.6110 C   0  0  0  0  0  2  0  0  0  0  0  0
  189.8000  177.2220  137.7730 C   0  0  0  0  0  2  0  0  0  0  0  0
  190.3090  177.0480  139.2070 C   0  0  1  0  0  3  0  0  0  0  0  0
  188.2730  177.2720  137.7570 C   0  0  0  0  0  2  0  0  0  0  0  0
  189.3760  177.6940  140.2580 C   0  0  1  0  0  3  0  0  0  0  0  0
  191.2840  177.3020  141.6660 C   0  0  0  0  0  1  0  0  0  0  0  0
  190.1150  178.1470  141.4570 N   0  0  0  0  0  0  0  0  0  0  0  0
  190.3010  177.1090  146.3330 C   0  0  0  0  0  3  0  0  0  0  0  0
  188.0200  177.3920  145.2240 C   0  0  0  0  0  0  0  0  0  0  0  0
  190.1610  177.8810  143.9800 C   0  0  0  0  0  2  0  0  0  0  0  0
  188.3280  177.6810  147.6240 C   0  0  0  0  0  0  0  0  0  0  0  0
  189.4900  177.0370  145.0620 C   0  0  1  0  0  3  0  0  0  0  0  0
  187.9600  176.8250  142.5140 S   0  0  0  0  0  0  0  0  0  0  0  0
  187.4940  177.6750  146.4170 C   0  0  0  0  0  3  0  0  0  0  0  0
  187.1120  177.3890  144.0310 C   0  0  0  0  0  2  0  0  0  0  0  0
  187.8160  177.9380  148.7450 O   0  0  0  0  0  0  0  0  0  0  0  0
  189.7610  177.3970  147.5170 C   0  0  0  0  0  3  0  0  0  0  0  0
  189.3180  178.0390  142.6930 C   0  0  2  0  0  3  0  0  0  0  0  0
  186.4680  178.0510  139.0620 C   0  0  0  0  0  2  0  0  0  0  0  0
  185.3310  178.7970  138.3670 C   0  0  2  0  0  3  0  0  0  0  0  0
  183.1810  178.0990  139.0760 N   0  0  0  0  0  0  0  0  0  0  0  0
  184.8330  179.7880  139.2280 O   0  0  0  0  0  0  0  0  0  0  0  0
  184.4750  176.4410  137.6860 C   0  0  0  0  0  1  0  0  0  0  0  0
  184.1620  177.9010  138.0250 C   0  0  2  0  0  3  0  0  0  0  0  0
  183.4360  177.2230  140.2160 C   0  0  0  0  0  1  0  0  0  0  0  0
  183.4910  179.4500  139.5270 C   0  0  0  0  0  2  0  0  0  0  0  0
  1 21  1  0  0  0  0
  1  3  1  0  0  0  0
  3  7  1  0  0  0  0
  4  5  1  0  0  0  0
  5  2  1  1  0  0  0
  5  7  1  0  0  0  0
  6  4  1  0  0  0  0
  6  1  1  0  0  0  0
  7  9  1  1  0  0  0
  9  8  1  0  0  0  0
 10 19  2  0  0  0  0
 11 16  2  0  0  0  0
 13 18  2  0  0  0  0
 14 12  1  6  0  0  0
 14 11  1  0  0  0  0
 14 10  1  0  0  0  0
 15 20  1  0  0  0  0
 15 17  1  0  0  0  0
 16 13  1  0  0  0  0
 17 11  1  0  0  0  0
 19 13  1  0  0  0  0
 20  9  1  6  0  0  0
 20 12  1  0  0  0  0
 22 21  1  1  0  0  0
 22 24  1  0  0  0  0
 23 28  1  0  0  0  0
 23 27  1  0  0  0  0
 24 28  1  0  0  0  0
 26 25  1  1  0  0  0
 26 22  1  0  0  0  0
 26 23  1  0  0  0  0
M  END
>  <MODEL>
2

>  <REMARK>
 VINA RESULT:      -7.7      1.184      1.397
  Name = 
  4 active torsions:
  status: ('A' for Active; 'I' for Inactive)
    1  A    between atoms: N_1  and  C_2
    2  A    between atoms: C_2  and  C_3
    3  A    between atoms: N_20  and  C_25
    4  A    between atoms: N_20  and  C_27
                            x       y       z     vdW  Elec       q    Type
                         _______ _______ _______ _____ _____    ______ ____

>  <TORSDO>
F 4

$$$$
=
 OpenBabel10272401453D

 28 31  0  0  1  0  0  0  0  0999 V2000
  188.4600  177.1350  145.1760 N   0  0  0  0  0  0  0  0  0  0  0  0
  191.9990  178.5640  144.0710 O   0  0  0  0  0  1  0  0  0  0  0  0
  188.9350  176.5490  143.9120 C   0  0  0  0  0  2  0  0  0  0  0  0
  190.8900  177.2270  145.7020 C   0  0  0  0  0  2  0  0  0  0  0  0
  191.2940  177.3710  144.2320 C   0  0  1  0  0  3  0  0  0  0  0  0
  189.5080  177.8380  145.9330 C   0  0  0  0  0  2  0  0  0  0  0  0
  190.0820  177.3510  143.2710 C   0  0  1  0  0  3  0  0  0  0  0  0
  191.6720  177.4090  141.4690 C   0  0  0  0  0  1  0  0  0  0  0  0
  190.4320  176.8040  141.9420 N   0  0  0  0  0  0  0  0  0  0  0  0
  189.7080  177.6320  137.0760 C   0  0  0  0  0  3  0  0  0  0  0  0
  187.7790  178.0490  138.6930 C   0  0  0  0  0  0  0  0  0  0  0  0
  189.9360  176.9880  139.4600 C   0  0  0  0  0  2  0  0  0  0  0  0
  187.4010  177.6270  136.3230 C   0  0  0  0  0  0  0  0  0  0  0  0
  189.2820  177.9650  138.4850 C   0  0  1  0  0  3  0  0  0  0  0  0
  188.5370  178.6700  141.2830 S   0  0  0  0  0  0  0  0  0  0  0  0
  186.9210  177.9030  137.6810 C   0  0  0  0  0  3  0  0  0  0  0  0
  187.2240  178.3420  140.0550 C   0  0  0  0  0  2  0  0  0  0  0  0
  186.5820  177.5050  135.3750 O   0  0  0  0  0  0  0  0  0  0  0  0
  188.8390  177.4860  136.0760 C   0  0  0  0  0  3  0  0  0  0  0  0
  189.4210  177.1110  140.9140 C   0  0  2  0  0  3  0  0  0  0  0  0
  187.4380  178.1130  144.8340 C   0  0  0  0  0  2  0  0  0  0  0  0
  186.1030  177.4190  144.5700 C   0  0  2  0  0  3  0  0  0  0  0  0
  184.2820  178.9240  144.4010 N   0  0  0  0  0  0  0  0  0  0  0  0
  185.7820  177.5360  143.2070 O   0  0  0  0  0  0  0  0  0  0  0  0
  185.2740  178.6480  146.7020 C   0  0  0  0  0  1  0  0  0  0  0  0
  184.9560  178.0400  145.3330 C   0  0  2  0  0  3  0  0  0  0  0  0
  184.8990  180.2470  144.3800 C   0  0  0  0  0  1  0  0  0  0  0  0
  184.6000  178.3100  143.1180 C   0  0  0  0  0  2  0  0  0  0  0  0
  1  6  1  0  0  0  0
  3  1  1  0  0  0  0
  4  6  1  0  0  0  0
  5  2  1  1  0  0  0
  5  4  1  0  0  0  0
  7  9  1  6  0  0  0
  7  3  1  0  0  0  0
  7  5  1  0  0  0  0
  8  9  1  0  0  0  0
 11 17  1  0  0  0  0
 12 20  1  0  0  0  0
 13 16  1  0  0  0  0
 14 10  1  6  0  0  0
 14 11  1  0  0  0  0
 14 12  1  0  0  0  0
 16 11  2  0  0  0  0
 17 15  1  0  0  0  0
 18 13  2  0  0  0  0
 19 13  1  0  0  0  0
 19 10  2  0  0  0  0
 20 15  1  0  0  0  0
 20  9  1  1  0  0  0
 21  1  1  0  0  0  0
 22 21  1  6  0  0  0
 22 26  1  0  0  0  0
 23 26  1  0  0  0  0
 24 22  1  0  0  0  0
 26 25  1  1  0  0  0
 27 23  1  0  0  0  0
 28 24  1  0  0  0  0
 28 23  1  0  0  0  0
M  END
>  <MODEL>
3

>  <REMARK>
 VINA RESULT:      -7.1      2.613      6.724
  Name = 
  4 active torsions:
  status: ('A' for Active; 'I' for Inactive)
    1  A    between atoms: N_1  and  C_2
    2  A    between atoms: C_2  and  C_3
    3  A    between atoms: N_20  and  C_25
    4  A    between atoms: N_20  and  C_27
                            x       y       z     vdW  Elec       q    Type
                         _______ _______ _______ _____ _____    ______ ____

>  <TORSDO>
F 4

$$$$
=
 OpenBabel10272401453D

 28 31  0  0  1  0  0  0  0  0999 V2000
  190.1890  177.0250  140.9730 N   0  0  0  0  0  0  0  0  0  0  0  0
  188.7100  179.2850  138.0590 O   0  0  0  0  0  1  0  0  0  0  0  0
  188.7230  176.9300  140.8740 C   0  0  0  0  0  2  0  0  0  0  0  0
  190.0360  177.3580  138.5120 C   0  0  0  0  0  2  0  0  0  0  0  0
  188.6470  177.9990  138.5960 C   0  0  1  0  0  3  0  0  0  0  0  0
  190.8230  177.6350  139.7930 C   0  0  0  0  0  2  0  0  0  0  0  0
  188.1020  178.0650  140.0410 C   0  0  1  0  0  3  0  0  0  0  0  0
  186.0630  178.8980  139.0770 C   0  0  0  0  0  1  0  0  0  0  0  0
  186.6250  178.0050  140.0840 N   0  0  0  0  0  0  0  0  0  0  0  0
  186.7000  177.2750  145.0180 C   0  0  0  0  0  3  0  0  0  0  0  0
  184.9450  178.8460  144.0350 C   0  0  0  0  0  0  0  0  0  0  0  0
  186.7880  177.8730  142.6130 C   0  0  0  0  0  2  0  0  0  0  0  0
  185.6360  178.9880  146.3680 C   0  0  0  0  0  0  0  0  0  0  0  0
  185.8720  177.6610  143.8170 C   0  0  1  0  0  3  0  0  0  0  0  0
  184.2470  178.3210  141.4080 S   0  0  0  0  0  0  0  0  0  0  0  0
  184.8370  179.4420  145.2250 C   0  0  0  0  0  3  0  0  0  0  0  0
  184.0920  179.3490  142.9110 C   0  0  0  0  0  2  0  0  0  0  0  0
  185.5150  179.5510  147.4880 O   0  0  0  0  0  0  0  0  0  0  0  0
  186.5830  177.8830  146.1990 C   0  0  0  0  0  3  0  0  0  0  0  0
  186.0710  178.4590  141.3730 C   0  0  2  0  0  3  0  0  0  0  0  0
  190.4840  177.8770  142.1160 C   0  0  0  0  0  2  0  0  0  0  0  0
  191.7630  177.4140  142.8100 C   0  0  2  0  0  3  0  0  0  0  0  0
  191.5460  177.2530  145.1630 N   0  0  0  0  0  0  0  0  0  0  0  0
  191.6490  176.0500  143.1280 O   0  0  0  0  0  0  0  0  0  0  0  0
  191.5470  179.5890  144.2130 C   0  0  0  0  0  1  0  0  0  0  0  0
  192.0200  178.1350  144.1130 C   0  0  2  0  0  3  0  0  0  0  0  0
  190.1190  177.4410  145.4150 C   0  0  0  0  0  1  0  0  0  0  0  0
  191.6760  175.9430  144.5390 C   0  0  0  0  0  2  0  0  0  0  0  0
  1 21  1  0  0  0  0
  3  1  1  0  0  0  0
  4  5  1  0  0  0  0
  4  6  1  0  0  0  0
  5  2  1  1  0  0  0
  5  7  1  0  0  0  0
  6  1  1  0  0  0  0
  7  9  1  6  0  0  0
  7  3  1  0  0  0  0
  8  9  1  0  0  0  0
 10 19  2  0  0  0  0
 11 16  2  0  0  0  0
 13 18  2  0  0  0  0
 14 12  1  6  0  0  0
 14 11  1  0  0  0  0
 14 10  1  0  0  0  0
 15 17  1  0  0  0  0
 16 13  1  0  0  0  0
 17 11  1  0  0  0  0
 19 13  1  0  0  0  0
 20  9  1  6  0  0  0
 20 15  1  0  0  0  0
 20 12  1  0  0  0  0
 22 21  1  1  0  0  0
 22 24  1  0  0  0  0
 22 26  1  0  0  0  0
 23 27  1  0  0  0  0
 24 28  1  0  0  0  0
 26 25  1  6  0  0  0
 26 23  1  0  0  0  0
 28 23  1  0  0  0  0
M  END
>  <MODEL>
4

>  <REMARK>
 VINA RESULT:      -7.1      2.322      5.371
  Name = 
  4 active torsions:
  status: ('A' for Active; 'I' for Inactive)
    1  A    between atoms: N_1  and  C_2
    2  A    between atoms: C_2  and  C_3
    3  A    between atoms: N_20  and  C_25
    4  A    between atoms: N_20  and  C_27
                            x       y       z     vdW  Elec       q    Type
                         _______ _______ _______ _____ _____    ______ ____

>  <TORSDO>
F 4

$$$$
=
 OpenBabel10272401453D

 28 31  0  0  1  0  0  0  0  0999 V2000
  189.8210  175.7770  137.3800 N   0  0  0  0  0  0  0  0  0  0  0  0
  189.0430  179.5020  138.5250 O   0  0  0  0  0  1  0  0  0  0  0  0
  189.0360  175.8320  138.6240 C   0  0  0  0  0  2  0  0  0  0  0  0
  188.5780  177.8680  136.8550 C   0  0  0  0  0  2  0  0  0  0  0  0
  188.4370  178.2600  138.3280 C   0  0  1  0  0  3  0  0  0  0  0  0
  189.8540  177.0520  136.6450 C   0  0  0  0  0  2  0  0  0  0  0  0
  189.0590  177.2200  139.2890 C   0  0  1  0  0  3  0  0  0  0  0  0
  187.7170  178.4700  140.8430 C   0  0  0  0  0  1  0  0  0  0  0  0
  188.3740  177.1920  140.5990 N   0  0  0  0  0  0  0  0  0  0  0  0
  189.0280  177.9000  145.4940 C   0  0  0  0  0  3  0  0  0  0  0  0
  191.0070  177.1050  144.0930 C   0  0  0  0  0  0  0  0  0  0  0  0
  188.6880  177.2840  143.1160 C   0  0  0  0  0  2  0  0  0  0  0  0
  190.9070  176.7400  146.5000 C   0  0  0  0  0  0  0  0  0  0  0  0
  189.6790  177.8440  144.1340 C   0  0  1  0  0  3  0  0  0  0  0  0
  190.9110  177.8230  141.4200 S   0  0  0  0  0  0  0  0  0  0  0  0
  191.5690  176.6110  145.1990 C   0  0  0  0  0  3  0  0  0  0  0  0
  191.7410  176.9510  142.7950 C   0  0  0  0  0  2  0  0  0  0  0  0
  191.4540  176.2810  147.5370 O   0  0  0  0  0  0  0  0  0  0  0  0
  189.6010  177.3990  146.5880 C   0  0  0  0  0  3  0  0  0  0  0  0
  189.3050  177.0000  141.7260 C   0  0  2  0  0  3  0  0  0  0  0  0
  191.1900  175.4540  137.7540 C   0  0  0  0  0  2  0  0  0  0  0  0
  192.1760  176.1500  136.8200 C   0  0  2  0  0  3  0  0  0  0  0  0
  194.4210  175.4700  137.1520 N   0  0  0  0  0  0  0  0  0  0  0  0
  192.5100  175.2810  135.7680 O   0  0  0  0  0  0  0  0  0  0  0  0
  193.4100  176.8690  138.9900 C   0  0  0  0  0  1  0  0  0  0  0  0
  193.4760  176.5140  137.5010 C   0  0  2  0  0  3  0  0  0  0  0  0
  194.3300  174.3390  138.0710 C   0  0  0  0  0  1  0  0  0  0  0  0
  193.8920  174.9980  135.8780 C   0  0  0  0  0  2  0  0  0  0  0  0
  1 21  1  0  0  0  0
  1  3  1  0  0  0  0
  3  7  1  0  0  0  0
  4  5  1  0  0  0  0
  5  2  1  6  0  0  0
  5  7  1  0  0  0  0
  6  4  1  0  0  0  0
  6  1  1  0  0  0  0
  7  9  1  1  0  0  0
  9  8  1  0  0  0  0
 10 19  2  0  0  0  0
 11 14  1  0  0  0  0
 11 16  2  0  0  0  0
 13 19  1  0  0  0  0
 13 18  2  0  0  0  0
 14 12  1  6  0  0  0
 14 10  1  0  0  0  0
 15 20  1  0  0  0  0
 15 17  1  0  0  0  0
 16 13  1  0  0  0  0
 17 11  1  0  0  0  0
 20  9  1  6  0  0  0
 20 12  1  0  0  0  0
 22 26  1  0  0  0  0
 22 21  1  1  0  0  0
 23 26  1  0  0  0  0
 23 27  1  0  0  0  0
 24 28  1  0  0  0  0
 24 22  1  0  0  0  0
 26 25  1  1  0  0  0
 28 23  1  0  0  0  0
M  END
>  <MODEL>
5

>  <REMARK>
 VINA RESULT:      -7.1      3.135      6.185
  Name = 
  4 active torsions:
  status: ('A' for Active; 'I' for Inactive)
    1  A    between atoms: N_1  and  C_2
    2  A    between atoms: C_2  and  C_3
    3  A    between atoms: N_20  and  C_25
    4  A    between atoms: N_20  and  C_27
                            x       y       z     vdW  Elec       q    Type
                         _______ _______ _______ _____ _____    ______ ____

>  <TORSDO>
F 4

$$$$
=
 OpenBabel10272401453D

 28 31  0  0  1  0  0  0  0  0999 V2000
  187.3870  176.8780  144.5430 N   0  0  0  0  0  0  0  0  0  0  0  0
  190.5410  179.2040  143.8870 O   0  0  0  0  0  1  0  0  0  0  0  0
  188.3270  176.2920  143.5730 C   0  0  0  0  0  2  0  0  0  0  0  0
  189.4600  177.8450  145.5200 C   0  0  0  0  0  2  0  0  0  0  0  0
  190.1840  177.8850  144.1710 C   0  0  1  0  0  3  0  0  0  0  0  0
  187.9530  177.9950  145.3150 C   0  0  0  0  0  2  0  0  0  0  0  0
  189.3290  177.3180  143.0140 C   0  0  1  0  0  3  0  0  0  0  0  0
  191.4350  177.4210  141.8590 C   0  0  0  0  0  1  0  0  0  0  0  0
  190.1610  176.7180  141.9470 N   0  0  0  0  0  0  0  0  0  0  0  0
  191.0580  176.6020  137.0420 C   0  0  0  0  0  3  0  0  0  0  0  0
  188.7560  177.3480  137.8520 C   0  0  0  0  0  0  0  0  0  0  0  0
  190.4800  176.4260  139.4470 C   0  0  0  0  0  2  0  0  0  0  0  0
  189.1090  176.4820  135.6010 C   0  0  0  0  0  0  0  0  0  0  0  0
  190.2390  177.2060  138.1560 C   0  0  1  0  0  3  0  0  0  0  0  0
  188.7110  178.4460  140.3930 S   0  0  0  0  0  0  0  0  0  0  0  0
  188.2500  177.0210  136.6600 C   0  0  0  0  0  3  0  0  0  0  0  0
  187.8270  177.9050  138.8870 C   0  0  0  0  0  2  0  0  0  0  0  0
  188.6210  176.1910  134.4780 O   0  0  0  0  0  0  0  0  0  0  0  0
  190.5370  176.2770  135.8590 C   0  0  0  0  0  3  0  0  0  0  0  0
  189.5470  176.8340  140.6120 C   0  0  2  0  0  3  0  0  0  0  0  0
  186.2600  177.3980  143.7830 C   0  0  0  0  0  2  0  0  0  0  0  0
  185.7600  178.7030  144.3980 C   0  0  2  0  0  3  0  0  0  0  0  0
  183.6460  179.3790  143.5690 N   0  0  0  0  0  0  0  0  0  0  0  0
  184.8080  178.4110  145.3900 O   0  0  0  0  0  0  0  0  0  0  0  0
  185.5710  179.5490  141.9500 C   0  0  0  0  0  1  0  0  0  0  0  0
  185.0700  179.6000  143.3960 C   0  0  2  0  0  3  0  0  0  0  0  0
  183.1820  178.2440  142.7760 C   0  0  0  0  0  1  0  0  0  0  0  0
  183.5740  178.9550  144.9610 C   0  0  0  0  0  2  0  0  0  0  0  0
  1  6  1  0  0  0  0
  3  1  1  0  0  0  0
  5  2  1  6  0  0  0
  5  4  1  0  0  0  0
  6  4  1  0  0  0  0
  7  9  1  6  0  0  0
  7  3  1  0  0  0  0
  7  5  1  0  0  0  0
  8  9  1  0  0  0  0
 11 14  1  0  0  0  0
 11 17  1  0  0  0  0
 12 20  1  0  0  0  0
 13 19  1  0  0  0  0
 13 16  1  0  0  0  0
 14 10  1  6  0  0  0
 14 12  1  0  0  0  0
 15 20  1  0  0  0  0
 16 11  2  0  0  0  0
 17 15  1  0  0  0  0
 18 13  2  0  0  0  0
 19 10  2  0  0  0  0
 20  9  1  1  0  0  0
 21  1  1  0  0  0  0
 22 21  1  6  0  0  0
 22 24  1  0  0  0  0
 23 28  1  0  0  0  0
 26 25  1  6  0  0  0
 26 23  1  0  0  0  0
 26 22  1  0  0  0  0
 27 23  1  0  0  0  0
 28 24  1  0  0  0  0
M  END
>  <MODEL>
6

>  <REMARK>
 VINA RESULT:      -7.0      2.470      6.683
  Name = 
  4 active torsions:
  status: ('A' for Active; 'I' for Inactive)
    1  A    between atoms: N_1  and  C_2
    2  A    between atoms: C_2  and  C_3
    3  A    between atoms: N_20  and  C_25
    4  A    between atoms: N_20  and  C_27
                            x       y       z     vdW  Elec       q    Type
                         _______ _______ _______ _____ _____    ______ ____

>  <TORSDO>
F 4

$$$$
=
 OpenBabel10272401453D

 28 31  0  0  1  0  0  0  0  0999 V2000
  188.3770  176.7100  144.0680 N   0  0  0  0  0  0  0  0  0  0  0  0
  191.7870  178.1450  142.6200 O   0  0  0  0  0  1  0  0  0  0  0  0
  188.3130  176.9600  142.6180 C   0  0  0  0  0  2  0  0  0  0  0  0
  190.7650  176.2170  143.5770 C   0  0  0  0  0  2  0  0  0  0  0  0
  190.8110  177.1770  142.3840 C   0  0  1  0  0  3  0  0  0  0  0  0
  189.7460  176.7030  144.6070 C   0  0  0  0  0  2  0  0  0  0  0  0
  189.4520  177.8640  142.1130 C   0  0  1  0  0  3  0  0  0  0  0  0
  187.8560  178.4090  140.4010 C   0  0  0  0  0  1  0  0  0  0  0  0
  189.2700  178.1980  140.6840 N   0  0  0  0  0  0  0  0  0  0  0  0
  193.0620  176.4400  137.9600 C   0  0  0  0  0  3  0  0  0  0  0  0
  190.7690  175.3440  137.7250 C   0  0  0  0  0  0  0  0  0  0  0  0
  191.2160  177.1030  139.4780 C   0  0  0  0  0  2  0  0  0  0  0  0
  192.8210  174.1720  137.1310 C   0  0  0  0  0  0  0  0  0  0  0  0
  191.5650  176.5890  138.0820 C   0  0  1  0  0  3  0  0  0  0  0  0
  188.6210  176.9910  138.3120 S   0  0  0  0  0  0  0  0  0  0  0  0
  191.3630  174.2370  137.2730 C   0  0  0  0  0  3  0  0  0  0  0  0
  189.2740  175.3520  137.8350 C   0  0  0  0  0  2  0  0  0  0  0  0
  193.3670  173.1260  136.6920 O   0  0  0  0  0  0  0  0  0  0  0  0
  193.6400  175.3260  137.5110 C   0  0  0  0  0  3  0  0  0  0  0  0
  189.7000  177.1110  139.7850 C   0  0  2  0  0  3  0  0  0  0  0  0
  187.6570  177.7950  144.7180 C   0  0  0  0  0  2  0  0  0  0  0  0
  186.3240  177.2940  145.2700 C   0  0  2  0  0  3  0  0  0  0  0  0
  185.4310  178.6840  146.9670 N   0  0  0  0  0  0  0  0  0  0  0  0
  185.2770  178.0350  144.6960 O   0  0  0  0  0  0  0  0  0  0  0  0
  187.4890  177.3670  147.5900 C   0  0  0  0  0  1  0  0  0  0  0  0
  186.2020  177.4720  146.7660 C   0  0  2  0  0  3  0  0  0  0  0  0
  186.2860  179.8680  146.9610 C   0  0  0  0  0  1  0  0  0  0  0  0
  184.6440  178.7480  145.7420 C   0  0  0  0  0  2  0  0  0  0  0  0
  1  6  1  0  0  0  0
  1 21  1  0  0  0  0
  3  1  1  0  0  0  0
  4  6  1  0  0  0  0
  5  2  1  1  0  0  0
  5  4  1  0  0  0  0
  7  9  1  6  0  0  0
  7  5  1  0  0  0  0
  7  3  1  0  0  0  0
  8  9  1  0  0  0  0
 11 17  1  0  0  0  0
 11 14  1  0  0  0  0
 12 20  1  0  0  0  0
 13 16  1  0  0  0  0
 13 19  1  0  0  0  0
 14 10  1  1  0  0  0
 14 12  1  0  0  0  0
 15 20  1  0  0  0  0
 16 11  2  0  0  0  0
 17 15  1  0  0  0  0
 18 13  2  0  0  0  0
 19 10  2  0  0  0  0
 20  9  1  6  0  0  0
 22 21  1  6  0  0  0
 22 26  1  0  0  0  0
 24 22  1  0  0  0  0
 24 28  1  0  0  0  0
 26 23  1  0  0  0  0
 26 25  1  1  0  0  0
 27 23  1  0  0  0  0
 28 23  1  0  0  0  0
M  END
>  <MODEL>
7

>  <REMARK>
 VINA RESULT:      -6.7      3.001      7.251
  Name = 
  4 active torsions:
  status: ('A' for Active; 'I' for Inactive)
    1  A    between atoms: N_1  and  C_2
    2  A    between atoms: C_2  and  C_3
    3  A    between atoms: N_20  and  C_25
    4  A    between atoms: N_20  and  C_27
                            x       y       z     vdW  Elec       q    Type
                         _______ _______ _______ _____ _____    ______ ____

>  <TORSDO>
F 4

$$$$
=
 OpenBabel10272401453D

 28 31  0  0  1  0  0  0  0  0999 V2000
  187.7740  176.4740  136.2310 N   0  0  0  0  0  0  0  0  0  0  0  0
  190.5780  174.0850  137.7210 O   0  0  0  0  0  1  0  0  0  0  0  0
  188.7600  177.2020  137.0450 C   0  0  0  0  0  2  0  0  0  0  0  0
  189.7240  175.0220  135.7030 C   0  0  0  0  0  2  0  0  0  0  0  0
  190.4050  175.2950  137.0480 C   0  0  1  0  0  3  0  0  0  0  0  0
  188.2060  175.1200  135.8500 C   0  0  0  0  0  2  0  0  0  0  0  0
  189.6050  176.2750  137.9370 C   0  0  1  0  0  3  0  0  0  0  0  0
  191.8440  176.5390  138.7720 C   0  0  0  0  0  1  0  0  0  0  0  0
  190.4830  177.0580  138.8330 N   0  0  0  0  0  0  0  0  0  0  0  0
  187.0390  178.4110  142.1790 C   0  0  0  0  0  3  0  0  0  0  0  0
  189.1780  177.2880  143.0030 C   0  0  0  0  0  0  0  0  0  0  0  0
  188.6570  177.4870  140.5420 C   0  0  0  0  0  2  0  0  0  0  0  0
  187.1290  177.2790  144.3230 C   0  0  0  0  0  0  0  0  0  0  0  0
  188.4970  178.1170  141.9250 C   0  0  1  0  0  3  0  0  0  0  0  0
  191.3810  177.6220  141.3590 S   0  0  0  0  0  0  0  0  0  0  0  0
  188.5350  176.9190  144.1140 C   0  0  0  0  0  3  0  0  0  0  0  0
  190.6180  176.9010  142.8550 C   0  0  0  0  0  2  0  0  0  0  0  0
  186.5400  176.9350  145.3810 O   0  0  0  0  0  0  0  0  0  0  0  0
  186.4110  178.0320  143.2920 C   0  0  0  0  0  3  0  0  0  0  0  0
  190.0840  176.9650  140.2490 C   0  0  2  0  0  3  0  0  0  0  0  0
  186.5710  176.3380  137.0390 C   0  0  0  0  0  2  0  0  0  0  0  0
  185.7000  177.5860  136.9120 C   0  0  2  0  0  3  0  0  0  0  0  0
  183.4400  177.2150  137.5160 N   0  0  0  0  0  0  0  0  0  0  0  0
  185.5090  178.1490  138.1850 O   0  0  0  0  0  0  0  0  0  0  0  0
  184.1990  176.1320  135.3690 C   0  0  0  0  0  1  0  0  0  0  0  0
  184.3220  177.2880  136.3660 C   0  0  2  0  0  3  0  0  0  0  0  0
  183.4290  175.8750  138.0950 C   0  0  0  0  0  1  0  0  0  0  0  0
  184.1270  178.0660  138.4790 C   0  0  0  0  0  2  0  0  0  0  0  0
  1 21  1  0  0  0  0
  1  3  1  0  0  0  0
  3  7  1  0  0  0  0
  4  6  1  0  0  0  0
  4  5  1  0  0  0  0
  5  2  1  1  0  0  0
  5  7  1  0  0  0  0
  6  1  1  0  0  0  0
  7  9  1  6  0  0  0
  8  9  1  0  0  0  0
 10 19  2  0  0  0  0
 11 16  2  0  0  0  0
 13 18  2  0  0  0  0
 14 12  1  6  0  0  0
 14 10  1  0  0  0  0
 14 11  1  0  0  0  0
 15 17  1  0  0  0  0
 16 13  1  0  0  0  0
 17 11  1  0  0  0  0
 19 13  1  0  0  0  0
 20  9  1  6  0  0  0
 20 12  1  0  0  0  0
 20 15  1  0  0  0  0
 22 21  1  1  0  0  0
 22 24  1  0  0  0  0
 23 27  1  0  0  0  0
 23 28  1  0  0  0  0
 24 28  1  0  0  0  0
 26 25  1  1  0  0  0
 26 22  1  0  0  0  0
 26 23  1  0  0  0  0
M  END
>  <MODEL>
8

>  <REMARK>
 VINA RESULT:      -6.7      2.716      3.926
  Name = 
  4 active torsions:
  status: ('A' for Active; 'I' for Inactive)
    1  A    between atoms: N_1  and  C_2
    2  A    between atoms: C_2  and  C_3
    3  A    between atoms: N_20  and  C_25
    4  A    between atoms: N_20  and  C_27
                            x       y       z     vdW  Elec       q    Type
                         _______ _______ _______ _____ _____    ______ ____

>  <TORSDO>
F 4

$$$$
=
 OpenBabel10272401453D

 28 31  0  0  1  0  0  0  0  0999 V2000
  182.6360  175.0830  138.4810 N   0  0  0  0  0  0  0  0  0  0  0  0
  180.1330  178.0230  137.5450 O   0  0  0  0  0  1  0  0  0  0  0  0
  182.5950  176.1370  139.5080 C   0  0  0  0  0  2  0  0  0  0  0  0
  180.2540  175.7230  138.1540 C   0  0  0  0  0  2  0  0  0  0  0  0
  180.4900  177.1720  138.5900 C   0  0  1  0  0  3  0  0  0  0  0  0
  181.5210  175.1480  137.5220 C   0  0  0  0  0  2  0  0  0  0  0  0
  181.9550  177.4430  139.0040 C   0  0  1  0  0  3  0  0  0  0  0  0
  182.2660  179.7990  139.3690 C   0  0  0  0  0  1  0  0  0  0  0  0
  182.0600  178.5110  140.0210 N   0  0  0  0  0  0  0  0  0  0  0  0
  183.7270  179.2010  144.6720 C   0  0  0  0  0  3  0  0  0  0  0  0
  185.3770  178.4560  142.8730 C   0  0  0  0  0  0  0  0  0  0  0  0
  182.9000  178.5930  142.4140 C   0  0  0  0  0  2  0  0  0  0  0  0
  185.7990  178.0730  145.2430 C   0  0  0  0  0  0  0  0  0  0  0  0
  184.0750  179.1670  143.2040 C   0  0  1  0  0  3  0  0  0  0  0  0
  184.7010  179.1890  140.2900 S   0  0  0  0  0  0  0  0  0  0  0  0
  186.1710  177.9660  143.8290 C   0  0  0  0  0  3  0  0  0  0  0  0
  185.8210  178.3260  141.4480 C   0  0  0  0  0  2  0  0  0  0  0  0
  186.5630  177.6180  146.1340 O   0  0  0  0  0  0  0  0  0  0  0  0
  184.5290  178.7040  145.6130 C   0  0  0  0  0  3  0  0  0  0  0  0
  183.2130  178.3310  140.9220 C   0  0  2  0  0  3  0  0  0  0  0  0
  183.8690  175.2670  137.7310 C   0  0  0  0  0  2  0  0  0  0  0  0
  184.2520  173.9770  137.0100 C   0  0  2  0  0  3  0  0  0  0  0  0
  186.5370  173.8920  136.3930 N   0  0  0  0  0  0  0  0  0  0  0  0
  184.8980  173.1160  137.9140 O   0  0  0  0  0  0  0  0  0  0  0  0
  185.1100  175.5300  135.1140 C   0  0  0  0  0  1  0  0  0  0  0  0
  185.2200  174.2030  135.8710 C   0  0  2  0  0  3  0  0  0  0  0  0
  187.1390  175.0490  137.0490 C   0  0  0  0  0  1  0  0  0  0  0  0
  186.2250  172.9430  137.4540 C   0  0  0  0  0  2  0  0  0  0  0  0
  1  3  1  0  0  0  0
  4  5  1  0  0  0  0
  5  2  1  6  0  0  0
  5  7  1  0  0  0  0
  6  4  1  0  0  0  0
  6  1  1  0  0  0  0
  7  3  1  0  0  0  0
  7  9  1  1  0  0  0
  8  9  1  0  0  0  0
 10 19  2  0  0  0  0
 11 14  1  0  0  0  0
 11 16  2  0  0  0  0
 13 19  1  0  0  0  0
 13 18  2  0  0  0  0
 14 12  1  6  0  0  0
 14 10  1  0  0  0  0
 15 20  1  0  0  0  0
 15 17  1  0  0  0  0
 16 13  1  0  0  0  0
 17 11  1  0  0  0  0
 20  9  1  6  0  0  0
 20 12  1  0  0  0  0
 21  1  1  0  0  0  0
 22 21  1  1  0  0  0
 22 24  1  0  0  0  0
 23 27  1  0  0  0  0
 23 28  1  0  0  0  0
 26 25  1  1  0  0  0
 26 23  1  0  0  0  0
 26 22  1  0  0  0  0
 28 24  1  0  0  0  0
M  END
>  <MODEL>
9

>  <REMARK>
 VINA RESULT:      -6.6      3.828      6.760
  Name = 
  4 active torsions:
  status: ('A' for Active; 'I' for Inactive)
    1  A    between atoms: N_1  and  C_2
    2  A    between atoms: C_2  and  C_3
    3  A    between atoms: N_20  and  C_25
    4  A    between atoms: N_20  and  C_27
                            x       y       z     vdW  Elec       q    Type
                         _______ _______ _______ _____ _____    ______ ____

>  <TORSDO>
F 4

$$$$
