=
 OpenBabel10272400133D

 31 34  0  0  1  0  0  0  0  0999 V2000
  185.1710  178.4250  145.6600 C   0  0  0  0  0  0  0  0  0  0  0  0
  187.3950  178.0670  142.6330 C   0  0  0  0  0  0  0  0  0  0  0  0
  188.6790  177.6470  143.1060 C   0  0  0  0  0  0  0  0  0  0  0  0
  190.2640  177.7440  145.0760 C   0  0  0  0  0  2  0  0  0  0  0  0
  186.2560  178.3090  143.4700 C   0  0  0  0  0  0  0  0  0  0  0  0
  183.9720  178.8100  145.0640 C   0  0  0  0  0  3  0  0  0  0  0  0
  188.8990  177.2910  144.5610 C   0  0  0  0  0  2  0  0  0  0  0  0
  186.0150  178.6600  140.6810 C   0  0  0  0  0  0  0  0  0  0  0  0
  185.2530  178.2760  147.1360 C   0  0  0  0  0  1  0  0  0  0  0  0
  189.4860  177.6850  140.8490 N   0  0  0  0  0  0  0  0  0  0  0  0
  191.2640  176.7490  144.9550 O   0  0  0  0  0  0  0  0  0  0  0  0
  184.9180  178.8750  141.5120 C   0  0  0  0  0  3  0  0  0  0  0  0
  187.2410  178.2620  141.2330 C   0  0  0  0  0  0  0  0  0  0  0  0
  186.2960  178.1810  144.8710 C   0  0  0  0  0  3  0  0  0  0  0  0
  191.2240  176.1170  143.6900 C   0  0  0  0  0  2  0  0  0  0  0  0
  185.0260  178.7100  142.8850 C   0  0  0  0  0  0  0  0  0  0  0  0
  183.9000  178.9510  143.6790 C   0  0  0  0  0  3  0  0  0  0  0  0
  188.2940  178.0630  140.4010 N   0  0  0  0  0  0  0  0  0  0  0  0
  189.7240  177.4550  142.1610 C   0  0  0  0  0  0  0  0  0  0  0  0
  191.1430  177.1060  142.5290 C   0  0  0  0  0  2  0  0  0  0  0  0
  185.8940  178.8350  139.2620 N   0  0  0  0  0  2  0  0  0  0  0  0
  183.8960  178.0210  138.1190 C   0  0  0  0  0  1  0  0  0  0  0  0
  185.3810  177.8120  138.3610 C   0  0  1  0  0  3  0  0  0  0  0  0
  185.5580  177.4540  136.0120 O   0  0  0  0  0  0  0  0  0  0  0  0
  186.1270  177.8520  137.0640 C   0  0  0  0  0  0  0  0  0  0  0  0
  187.7200  179.5890  136.9050 O   0  0  0  0  0  0  0  0  0  0  0  0
  187.5190  178.3520  137.0330 C   0  0  0  0  0  0  0  0  0  0  0  0
  188.6580  177.4880  137.1440 N   0  0  0  0  0  2  0  0  0  0  0  0
  188.5940  176.0410  137.2910 C   0  0  0  0  0  2  0  0  0  0  0  0
  189.9730  175.4890  137.5990 C   0  0  0  0  0  2  0  0  0  0  0  0
  190.9760  176.6180  137.7280 C   0  0  0  0  0  1  0  0  0  0  0  0
  1  9  1  0  0  0  0
  2  3  1  0  0  0  0
  2  5  1  0  0  0  0
  3  7  1  0  0  0  0
  5 14  1  0  0  0  0
  6  1  1  0  0  0  0
  7  4  1  0  0  0  0
  8 13  1  0  0  0  0
  8 12  2  0  0  0  0
 10 19  1  0  0  0  0
 11  4  1  0  0  0  0
 12 16  1  0  0  0  0
 13  2  2  0  0  0  0
 14  1  2  0  0  0  0
 15 11  1  0  0  0  0
 16  5  2  0  0  0  0
 16 17  1  0  0  0  0
 17  6  2  0  0  0  0
 18 10  2  0  0  0  0
 18 13  1  0  0  0  0
 19 20  1  0  0  0  0
 19  3  2  0  0  0  0
 20 15  1  0  0  0  0
 21  8  1  0  0  0  0
 23 22  1  6  0  0  0
 23 21  1  0  0  0  0
 24 25  2  0  0  0  0
 25 23  1  0  0  0  0
 26 27  2  0  0  0  0
 27 25  1  0  0  0  0
 27 28  1  0  0  0  0
 28 29  1  0  0  0  0
 29 30  1  0  0  0  0
 30 31  1  0  0  0  0
M  END
>  <MODEL>
1

>  <REMARK>
 VINA RESULT:      -9.2      0.000      0.000
  Name = 
  6 active torsions:
  status: ('A' for Active; 'I' for Inactive)
    1  A    between atoms: C_1  and  C_11
    2  A    between atoms: C_9  and  C_22
    3  A    between atoms: C_9  and  N_23
    4  A    between atoms: C_11  and  N_24
    5  A    between atoms: C_15  and  N_23
    6  A    between atoms: C_19  and  C_22
                            x       y       z     vdW  Elec       q    Type
                         _______ _______ _______ _____ _____    ______ ____

>  <TORSDO>
F 6

$$$$
=
 OpenBabel10272400133D

 31 34  0  0  1  0  0  0  0  0999 V2000
  189.6500  177.0410  145.5570 C   0  0  0  0  0  0  0  0  0  0  0  0
  188.0460  177.9020  142.2510 C   0  0  0  0  0  0  0  0  0  0  0  0
  189.0300  177.6700  141.2380 C   0  0  0  0  0  0  0  0  0  0  0  0
  191.5170  177.6390  140.7720 C   0  0  0  0  0  2  0  0  0  0  0  0
  188.2540  177.6850  143.6540 C   0  0  0  0  0  0  0  0  0  0  0  0
  188.5960  177.2850  146.4350 C   0  0  0  0  0  3  0  0  0  0  0  0
  190.3630  177.0360  141.5720 C   0  0  0  0  0  2  0  0  0  0  0  0
  185.7480  178.6260  142.7610 C   0  0  0  0  0  0  0  0  0  0  0  0
  190.9570  176.5670  146.0790 C   0  0  0  0  0  1  0  0  0  0  0  0
  187.4580  178.4160  139.5890 N   0  0  0  0  0  0  0  0  0  0  0  0
  191.7850  176.9430  139.5680 O   0  0  0  0  0  0  0  0  0  0  0  0
  185.9670  178.3950  144.1170 C   0  0  0  0  0  3  0  0  0  0  0  0
  186.7750  178.3850  141.8360 C   0  0  0  0  0  0  0  0  0  0  0  0
  189.4770  177.2410  144.1860 C   0  0  0  0  0  3  0  0  0  0  0  0
  190.5970  176.6350  138.8640 C   0  0  0  0  0  2  0  0  0  0  0  0
  187.1960  177.9360  144.5680 C   0  0  0  0  0  0  0  0  0  0  0  0
  187.3710  177.7330  145.9400 C   0  0  0  0  0  3  0  0  0  0  0  0
  186.5360  178.6220  140.5220 N   0  0  0  0  0  0  0  0  0  0  0  0
  188.6890  177.9400  139.8840 C   0  0  0  0  0  0  0  0  0  0  0  0
  189.6540  177.8300  138.7320 C   0  0  0  0  0  2  0  0  0  0  0  0
  184.4740  179.1020  142.3030 N   0  0  0  0  0  2  0  0  0  0  0  0
  182.4940  179.1170  143.7320 C   0  0  0  0  0  1  0  0  0  0  0  0
  183.2110  178.4310  142.5820 C   0  0  1  0  0  3  0  0  0  0  0  0
  181.2030  178.9590  141.4140 O   0  0  0  0  0  0  0  0  0  0  0  0
  182.3490  178.4360  141.3590 C   0  0  0  0  0  0  0  0  0  0  0  0
  182.9860  176.5750  140.0510 O   0  0  0  0  0  0  0  0  0  0  0  0
  182.8480  177.8260  140.1070 C   0  0  0  0  0  0  0  0  0  0  0  0
  183.1840  178.5980  138.9460 N   0  0  0  0  0  2  0  0  0  0  0  0
  183.0880  180.0470  138.8530 C   0  0  0  0  0  2  0  0  0  0  0  0
  181.8230  180.4370  138.1120 C   0  0  0  0  0  2  0  0  0  0  0  0
  181.4540  181.8760  138.4220 C   0  0  0  0  0  1  0  0  0  0  0  0
  1  9  1  0  0  0  0
  1  6  1  0  0  0  0
  2  5  1  0  0  0  0
  3  7  1  0  0  0  0
  3  2  1  0  0  0  0
  4  7  1  0  0  0  0
  5 14  1  0  0  0  0
  5 16  2  0  0  0  0
  8 12  2  0  0  0  0
 10 19  1  0  0  0  0
 10 18  2  0  0  0  0
 11  4  1  0  0  0  0
 12 16  1  0  0  0  0
 13  2  2  0  0  0  0
 13  8  1  0  0  0  0
 14  1  2  0  0  0  0
 15 11  1  0  0  0  0
 16 17  1  0  0  0  0
 17  6  2  0  0  0  0
 18 13  1  0  0  0  0
 19  3  2  0  0  0  0
 20 15  1  0  0  0  0
 20 19  1  0  0  0  0
 21 23  1  0  0  0  0
 21  8  1  0  0  0  0
 23 22  1  1  0  0  0
 25 24  2  0  0  0  0
 25 23  1  0  0  0  0
 26 27  2  0  0  0  0
 27 25  1  0  0  0  0
 28 27  1  0  0  0  0
 29 28  1  0  0  0  0
 30 31  1  0  0  0  0
 30 29  1  0  0  0  0
M  END
>  <MODEL>
2

>  <REMARK>
 VINA RESULT:      -9.1      2.589      5.018
  Name = 
  6 active torsions:
  status: ('A' for Active; 'I' for Inactive)
    1  A    between atoms: C_1  and  C_11
    2  A    between atoms: C_9  and  C_22
    3  A    between atoms: C_9  and  N_23
    4  A    between atoms: C_11  and  N_24
    5  A    between atoms: C_15  and  N_23
    6  A    between atoms: C_19  and  C_22
                            x       y       z     vdW  Elec       q    Type
                         _______ _______ _______ _____ _____    ______ ____

>  <TORSDO>
F 6

$$$$
=
 OpenBabel10272400133D

 31 34  0  0  1  0  0  0  0  0999 V2000
  187.0090  177.9780  147.2910 C   0  0  0  0  0  0  0  0  0  0  0  0
  187.3850  178.0430  143.5370 C   0  0  0  0  0  0  0  0  0  0  0  0
  188.7350  177.6680  143.2460 C   0  0  0  0  0  0  0  0  0  0  0  0
  191.1010  177.6920  144.1430 C   0  0  0  0  0  2  0  0  0  0  0  0
  186.8290  178.1330  144.8560 C   0  0  0  0  0  0  0  0  0  0  0  0
  185.6690  178.3340  147.4290 C   0  0  0  0  0  3  0  0  0  0  0  0
  189.6690  177.1980  144.3400 C   0  0  0  0  0  2  0  0  0  0  0  0
  185.1960  178.7180  142.6300 C   0  0  0  0  0  0  0  0  0  0  0  0
  187.8330  177.7010  148.4960 C   0  0  0  0  0  1  0  0  0  0  0  0
  188.2790  177.9640  140.9110 N   0  0  0  0  0  0  0  0  0  0  0  0
  191.9110  176.7800  143.4220 O   0  0  0  0  0  0  0  0  0  0  0  0
  184.6730  178.7840  143.9190 C   0  0  0  0  0  3  0  0  0  0  0  0
  186.5370  178.3530  142.4380 C   0  0  0  0  0  0  0  0  0  0  0  0
  187.5780  177.8810  146.0200 C   0  0  0  0  0  3  0  0  0  0  0  0
  191.2390  176.2640  142.2890 C   0  0  0  0  0  2  0  0  0  0  0  0
  185.4670  178.5020  145.0210 C   0  0  0  0  0  0  0  0  0  0  0  0
  184.9000  178.5950  146.2960 C   0  0  0  0  0  3  0  0  0  0  0  0
  187.0220  178.3010  141.1720 N   0  0  0  0  0  0  0  0  0  0  0  0
  189.1550  177.6330  141.8880 C   0  0  0  0  0  0  0  0  0  0  0  0
  190.5670  177.3470  141.4470 C   0  0  0  0  0  2  0  0  0  0  0  0
  184.3670  179.0120  141.4960 N   0  0  0  0  0  2  0  0  0  0  0  0
  182.0360  178.3280  141.2570 C   0  0  0  0  0  1  0  0  0  0  0  0
  183.4770  178.0430  140.8710 C   0  0  1  0  0  3  0  0  0  0  0  0
  182.9920  177.2740  138.6690 O   0  0  0  0  0  0  0  0  0  0  0  0
  183.6320  178.0920  139.3830 C   0  0  0  0  0  0  0  0  0  0  0  0
  184.2700  180.3170  138.9090 O   0  0  0  0  0  0  0  0  0  0  0  0
  184.5350  179.0930  138.7720 C   0  0  0  0  0  0  0  0  0  0  0  0
  185.7050  178.7310  138.0260 N   0  0  0  0  0  2  0  0  0  0  0  0
  186.1420  177.3660  137.7720 C   0  0  0  0  0  2  0  0  0  0  0  0
  187.5740  177.3630  137.2710 C   0  0  0  0  0  2  0  0  0  0  0  0
  188.0340  178.7790  136.9860 C   0  0  0  0  0  1  0  0  0  0  0  0
  1  6  1  0  0  0  0
  1  9  1  0  0  0  0
  2  5  1  0  0  0  0
  3  2  1  0  0  0  0
  3  7  1  0  0  0  0
  4  7  1  0  0  0  0
  5 16  2  0  0  0  0
  5 14  1  0  0  0  0
  8 12  2  0  0  0  0
 10 18  2  0  0  0  0
 10 19  1  0  0  0  0
 11  4  1  0  0  0  0
 12 16  1  0  0  0  0
 13  8  1  0  0  0  0
 13  2  2  0  0  0  0
 14  1  2  0  0  0  0
 15 11  1  0  0  0  0
 16 17  1  0  0  0  0
 17  6  2  0  0  0  0
 18 13  1  0  0  0  0
 19  3  2  0  0  0  0
 20 19  1  0  0  0  0
 20 15  1  0  0  0  0
 21  8  1  0  0  0  0
 23 22  1  6  0  0  0
 23 21  1  0  0  0  0
 24 25  2  0  0  0  0
 25 23  1  0  0  0  0
 27 26  2  0  0  0  0
 27 25  1  0  0  0  0
 28 27  1  0  0  0  0
 29 28  1  0  0  0  0
 30 29  1  0  0  0  0
 31 30  1  0  0  0  0
M  END
>  <MODEL>
3

>  <REMARK>
 VINA RESULT:      -9.0      1.734      2.509
  Name = 
  6 active torsions:
  status: ('A' for Active; 'I' for Inactive)
    1  A    between atoms: C_1  and  C_11
    2  A    between atoms: C_9  and  C_22
    3  A    between atoms: C_9  and  N_23
    4  A    between atoms: C_11  and  N_24
    5  A    between atoms: C_15  and  N_23
    6  A    between atoms: C_19  and  C_22
                            x       y       z     vdW  Elec       q    Type
                         _______ _______ _______ _____ _____    ______ ____

>  <TORSDO>
F 6

$$$$
=
 OpenBabel10272400133D

 31 34  0  0  1  0  0  0  0  0999 V2000
  188.9000  177.6370  147.5440 C   0  0  0  0  0  0  0  0  0  0  0  0
  187.5130  177.8090  144.0390 C   0  0  0  0  0  0  0  0  0  0  0  0
  186.1690  178.2910  144.1450 C   0  0  0  0  0  0  0  0  0  0  0  0
  184.1430  178.3780  145.6580 C   0  0  0  0  0  2  0  0  0  0  0  0
  188.3980  177.6080  145.1490 C   0  0  0  0  0  0  0  0  0  0  0  0
  190.1940  177.1840  147.2950 C   0  0  0  0  0  3  0  0  0  0  0  0
  185.6100  178.7610  145.4710 C   0  0  0  0  0  2  0  0  0  0  0  0
  189.3100  177.0400  142.5410 C   0  0  0  0  0  0  0  0  0  0  0  0
  188.4600  177.9010  148.9380 C   0  0  0  0  0  1  0  0  0  0  0  0
  185.9470  178.0970  141.7660 N   0  0  0  0  0  0  0  0  0  0  0  0
  183.2430  179.3810  145.2220 O   0  0  0  0  0  0  0  0  0  0  0  0
  190.1570  176.8660  143.6330 C   0  0  0  0  0  3  0  0  0  0  0  0
  188.0020  177.5050  142.7390 C   0  0  0  0  0  0  0  0  0  0  0  0
  188.0170  177.8440  146.4830 C   0  0  0  0  0  3  0  0  0  0  0  0
  183.6210  179.9140  143.9660 C   0  0  0  0  0  2  0  0  0  0  0  0
  189.7180  177.1390  144.9200 C   0  0  0  0  0  0  0  0  0  0  0  0
  190.6010  176.9350  145.9850 C   0  0  0  0  0  3  0  0  0  0  0  0
  187.1960  177.6610  141.6580 N   0  0  0  0  0  0  0  0  0  0  0  0
  185.4000  178.4310  142.9580 C   0  0  0  0  0  0  0  0  0  0  0  0
  183.9490  178.8370  142.9340 C   0  0  0  0  0  2  0  0  0  0  0  0
  189.7720  176.7550  141.2130 N   0  0  0  0  0  2  0  0  0  0  0  0
  192.0710  177.3380  140.6330 C   0  0  0  0  0  1  0  0  0  0  0  0
  190.6010  177.6630  140.4310 C   0  0  1  0  0  3  0  0  0  0  0  0
  190.9760  176.8850  138.2110 O   0  0  0  0  0  0  0  0  0  0  0  0
  190.2430  177.5620  138.9810 C   0  0  0  0  0  0  0  0  0  0  0  0
  188.9820  179.5130  138.5560 O   0  0  0  0  0  0  0  0  0  0  0  0
  189.0410  178.2580  138.4720 C   0  0  0  0  0  0  0  0  0  0  0  0
  187.9320  177.5640  137.8830 N   0  0  0  0  0  2  0  0  0  0  0  0
  187.8450  176.1200  137.7210 C   0  0  0  0  0  2  0  0  0  0  0  0
  186.6700  175.7680  136.8290 C   0  0  0  0  0  2  0  0  0  0  0  0
  185.6930  176.9260  136.7630 C   0  0  0  0  0  1  0  0  0  0  0  0
  1  9  1  0  0  0  0
  2  3  1  0  0  0  0
  2  5  1  0  0  0  0
  3  7  1  0  0  0  0
  5 14  1  0  0  0  0
  6  1  1  0  0  0  0
  7  4  1  0  0  0  0
  8 13  1  0  0  0  0
  8 12  2  0  0  0  0
 10 19  1  0  0  0  0
 11  4  1  0  0  0  0
 12 16  1  0  0  0  0
 13  2  2  0  0  0  0
 14  1  2  0  0  0  0
 15 11  1  0  0  0  0
 16  5  2  0  0  0  0
 16 17  1  0  0  0  0
 17  6  2  0  0  0  0
 18 10  2  0  0  0  0
 18 13  1  0  0  0  0
 19  3  2  0  0  0  0
 20 19  1  0  0  0  0
 20 15  1  0  0  0  0
 21  8  1  0  0  0  0
 23 22  1  6  0  0  0
 23 21  1  0  0  0  0
 24 25  2  0  0  0  0
 25 23  1  0  0  0  0
 27 26  2  0  0  0  0
 27 25  1  0  0  0  0
 28 27  1  0  0  0  0
 29 28  1  0  0  0  0
 30 29  1  0  0  0  0
 31 30  1  0  0  0  0
M  END
>  <MODEL>
4

>  <REMARK>
 VINA RESULT:      -9.0      2.352      4.960
  Name = 
  6 active torsions:
  status: ('A' for Active; 'I' for Inactive)
    1  A    between atoms: C_1  and  C_11
    2  A    between atoms: C_9  and  C_22
    3  A    between atoms: C_9  and  N_23
    4  A    between atoms: C_11  and  N_24
    5  A    between atoms: C_15  and  N_23
    6  A    between atoms: C_19  and  C_22
                            x       y       z     vdW  Elec       q    Type
                         _______ _______ _______ _____ _____    ______ ____

>  <TORSDO>
F 6

$$$$
=
 OpenBabel10272400133D

 31 34  0  0  1  0  0  0  0  0999 V2000
  189.0530  177.1010  146.2220 C   0  0  0  0  0  0  0  0  0  0  0  0
  187.7560  177.9440  142.7810 C   0  0  0  0  0  0  0  0  0  0  0  0
  188.8210  177.6890  141.8590 C   0  0  0  0  0  0  0  0  0  0  0  0
  191.3380  177.6220  141.6130 C   0  0  0  0  0  2  0  0  0  0  0  0
  187.8370  177.7410  144.1980 C   0  0  0  0  0  0  0  0  0  0  0  0
  187.9300  177.3690  147.0020 C   0  0  0  0  0  3  0  0  0  0  0  0
  190.1110  177.0420  142.3150 C   0  0  0  0  0  2  0  0  0  0  0  0
  185.4320  178.7030  143.0800 C   0  0  0  0  0  0  0  0  0  0  0  0
  190.3040  176.6170  146.8620 C   0  0  0  0  0  1  0  0  0  0  0  0
  187.4090  178.4360  140.0720 N   0  0  0  0  0  0  0  0  0  0  0  0
  191.7010  176.9090  140.4440 O   0  0  0  0  0  0  0  0  0  0  0  0
  185.5280  178.4850  144.4520 C   0  0  0  0  0  3  0  0  0  0  0  0
  186.5320  178.4380  142.2510 C   0  0  0  0  0  0  0  0  0  0  0  0
  189.0040  177.2870  144.8400 C   0  0  0  0  0  3  0  0  0  0  0  0
  190.5750  176.6080  139.6420 C   0  0  0  0  0  2  0  0  0  0  0  0
  186.7070  178.0160  145.0140 C   0  0  0  0  0  0  0  0  0  0  0  0
  186.7590  177.8250  146.3980 C   0  0  0  0  0  3  0  0  0  0  0  0
  186.4120  178.6640  140.9190 N   0  0  0  0  0  0  0  0  0  0  0  0
  188.6030  177.9480  140.4780 C   0  0  0  0  0  0  0  0  0  0  0  0
  189.6630  177.8130  139.4160 C   0  0  0  0  0  2  0  0  0  0  0  0
  184.2090  179.1890  142.5080 N   0  0  0  0  0  2  0  0  0  0  0  0
  182.1080  178.7690  143.6800 C   0  0  0  0  0  1  0  0  0  0  0  0
  182.9690  178.4250  142.4760 C   0  0  1  0  0  3  0  0  0  0  0  0
  180.9960  178.9850  141.2650 O   0  0  0  0  0  0  0  0  0  0  0  0
  182.2240  178.7100  141.2100 C   0  0  0  0  0  0  0  0  0  0  0  0
  183.4210  179.7250  139.4440 O   0  0  0  0  0  0  0  0  0  0  0  0
  182.9360  178.6610  139.9140 C   0  0  0  0  0  0  0  0  0  0  0  0
  183.1010  177.4510  139.1620 N   0  0  0  0  0  2  0  0  0  0  0  0
  182.5960  176.1470  139.5640 C   0  0  0  0  0  2  0  0  0  0  0  0
  181.1920  175.9450  139.0260 C   0  0  0  0  0  2  0  0  0  0  0  0
  180.3630  175.1370  140.0070 C   0  0  0  0  0  1  0  0  0  0  0  0
  1  9  1  0  0  0  0
  1  6  1  0  0  0  0
  2  5  1  0  0  0  0
  3  7  1  0  0  0  0
  3  2  1  0  0  0  0
  4  7  1  0  0  0  0
  5 14  1  0  0  0  0
  5 16  2  0  0  0  0
  8 12  2  0  0  0  0
 10 19  1  0  0  0  0
 10 18  2  0  0  0  0
 11  4  1  0  0  0  0
 12 16  1  0  0  0  0
 13  2  2  0  0  0  0
 13  8  1  0  0  0  0
 14  1  2  0  0  0  0
 15 11  1  0  0  0  0
 16 17  1  0  0  0  0
 17  6  2  0  0  0  0
 18 13  1  0  0  0  0
 19  3  2  0  0  0  0
 20 15  1  0  0  0  0
 20 19  1  0  0  0  0
 21  8  1  0  0  0  0
 23 21  1  0  0  0  0
 23 22  1  1  0  0  0
 25 24  2  0  0  0  0
 25 23  1  0  0  0  0
 26 27  2  0  0  0  0
 27 25  1  0  0  0  0
 28 29  1  0  0  0  0
 28 27  1  0  0  0  0
 30 29  1  0  0  0  0
 30 31  1  0  0  0  0
M  END
>  <MODEL>
5

>  <REMARK>
 VINA RESULT:      -9.0      2.650      4.720
  Name = 
  6 active torsions:
  status: ('A' for Active; 'I' for Inactive)
    1  A    between atoms: C_1  and  C_11
    2  A    between atoms: C_9  and  C_22
    3  A    between atoms: C_9  and  N_23
    4  A    between atoms: C_11  and  N_24
    5  A    between atoms: C_15  and  N_23
    6  A    between atoms: C_19  and  C_22
                            x       y       z     vdW  Elec       q    Type
                         _______ _______ _______ _____ _____    ______ ____

>  <TORSDO>
F 6

$$$$
=
 OpenBabel10272400133D

 31 34  0  0  1  0  0  0  0  0999 V2000
  185.0750  178.4730  144.4880 C   0  0  0  0  0  0  0  0  0  0  0  0
  188.6470  177.7290  143.5270 C   0  0  0  0  0  0  0  0  0  0  0  0
  189.3560  177.4480  144.7390 C   0  0  0  0  0  0  0  0  0  0  0  0
  189.4310  177.9330  147.2210 C   0  0  0  0  0  2  0  0  0  0  0  0
  187.2520  178.0530  143.4540 C   0  0  0  0  0  0  0  0  0  0  0  0
  184.5060  178.7020  143.2370 C   0  0  0  0  0  3  0  0  0  0  0  0
  188.6290  177.3420  146.0630 C   0  0  0  0  0  2  0  0  0  0  0  0
  188.7660  177.9370  141.0760 C   0  0  0  0  0  0  0  0  0  0  0  0
  184.2390  178.5670  145.7130 C   0  0  0  0  0  1  0  0  0  0  0  0
  191.3620  177.1570  143.4590 N   0  0  0  0  0  0  0  0  0  0  0  0
  190.2370  176.9770  147.8870 O   0  0  0  0  0  0  0  0  0  0  0  0
  187.4060  178.2350  141.0270 C   0  0  0  0  0  3  0  0  0  0  0  0
  189.3830  177.6880  142.3110 C   0  0  0  0  0  0  0  0  0  0  0  0
  186.4300  178.1540  144.5910 C   0  0  0  0  0  3  0  0  0  0  0  0
  190.9290  176.1470  146.9720 C   0  0  0  0  0  2  0  0  0  0  0  0
  186.6520  178.2980  142.1900 C   0  0  0  0  0  0  0  0  0  0  0  0
  185.2940  178.6150  142.0910 C   0  0  0  0  0  3  0  0  0  0  0  0
  190.7090  177.4040  142.3300 N   0  0  0  0  0  0  0  0  0  0  0  0
  190.7440  177.1530  144.6630 C   0  0  0  0  0  0  0  0  0  0  0  0
  191.6280  176.9310  145.8640 C   0  0  0  0  0  2  0  0  0  0  0  0
  189.5380  177.8750  139.8680 N   0  0  0  0  0  2  0  0  0  0  0  0
  189.0960  178.6500  137.5950 C   0  0  0  0  0  1  0  0  0  0  0  0
  188.9880  177.4930  138.5740 C   0  0  1  0  0  3  0  0  0  0  0  0
  190.5140  175.6770  138.7920 O   0  0  0  0  0  0  0  0  0  0  0  0
  189.7130  176.2970  138.0420 C   0  0  0  0  0  0  0  0  0  0  0  0
  190.3800  176.0780  135.7860 O   0  0  0  0  0  0  0  0  0  0  0  0
  189.4850  175.8620  136.6460 C   0  0  0  0  0  0  0  0  0  0  0  0
  188.2840  175.2010  136.2250 N   0  0  0  0  0  2  0  0  0  0  0  0
  187.1590  174.8870  137.0920 C   0  0  0  0  0  2  0  0  0  0  0  0
  185.8860  175.4950  136.5340 C   0  0  0  0  0  2  0  0  0  0  0  0
  185.7400  176.9300  137.0010 C   0  0  0  0  0  1  0  0  0  0  0  0
  1 14  1  0  0  0  0
  1  9  1  0  0  0  0
  2  3  1  0  0  0  0
  3  7  1  0  0  0  0
  4 11  1  0  0  0  0
  5  2  1  0  0  0  0
  5 14  2  0  0  0  0
  6  1  2  0  0  0  0
  7  4  1  0  0  0  0
  8 13  1  0  0  0  0
 10 19  1  0  0  0  0
 12  8  2  0  0  0  0
 12 16  1  0  0  0  0
 13 18  1  0  0  0  0
 13  2  2  0  0  0  0
 15 11  1  0  0  0  0
 16  5  1  0  0  0  0
 17 16  2  0  0  0  0
 17  6  1  0  0  0  0
 18 10  2  0  0  0  0
 19  3  2  0  0  0  0
 19 20  1  0  0  0  0
 20 15  1  0  0  0  0
 21  8  1  0  0  0  0
 23 22  1  6  0  0  0
 23 21  1  0  0  0  0
 25 23  1  0  0  0  0
 25 24  2  0  0  0  0
 26 27  2  0  0  0  0
 27 25  1  0  0  0  0
 28 27  1  0  0  0  0
 28 29  1  0  0  0  0
 30 31  1  0  0  0  0
 30 29  1  0  0  0  0
M  END
>  <MODEL>
6

>  <REMARK>
 VINA RESULT:      -9.0      1.996      3.137
  Name = 
  6 active torsions:
  status: ('A' for Active; 'I' for Inactive)
    1  A    between atoms: C_1  and  C_11
    2  A    between atoms: C_9  and  C_22
    3  A    between atoms: C_9  and  N_23
    4  A    between atoms: C_11  and  N_24
    5  A    between atoms: C_15  and  N_23
    6  A    between atoms: C_19  and  C_22
                            x       y       z     vdW  Elec       q    Type
                         _______ _______ _______ _____ _____    ______ ____

>  <TORSDO>
F 6

$$$$
=
 OpenBabel10272400133D

 31 34  0  0  1  0  0  0  0  0999 V2000
  185.0180  178.4240  144.5730 C   0  0  0  0  0  0  0  0  0  0  0  0
  188.5870  177.7630  143.5420 C   0  0  0  0  0  0  0  0  0  0  0  0
  189.3140  177.4500  144.7340 C   0  0  0  0  0  0  0  0  0  0  0  0
  189.4160  177.8480  147.2310 C   0  0  0  0  0  2  0  0  0  0  0  0
  187.1870  178.0700  143.4980 C   0  0  0  0  0  0  0  0  0  0  0  0
  184.4300  178.6890  143.3380 C   0  0  0  0  0  3  0  0  0  0  0  0
  188.6070  177.2880  146.0630 C   0  0  0  0  0  2  0  0  0  0  0  0
  188.6710  178.0580  141.0980 C   0  0  0  0  0  0  0  0  0  0  0  0
  184.1970  178.4650  145.8110 C   0  0  0  0  0  1  0  0  0  0  0  0
  191.3070  177.2300  143.4210 N   0  0  0  0  0  0  0  0  0  0  0  0
  190.2420  176.8800  147.8530 O   0  0  0  0  0  0  0  0  0  0  0  0
  187.3070  178.3390  141.0770 C   0  0  0  0  0  3  0  0  0  0  0  0
  189.3070  177.7740  142.3160 C   0  0  0  0  0  0  0  0  0  0  0  0
  186.3780  178.1210  144.6480 C   0  0  0  0  0  3  0  0  0  0  0  0
  190.9340  176.0930  146.9010 C   0  0  0  0  0  2  0  0  0  0  0  0
  186.5680  178.3520  142.2510 C   0  0  0  0  0  0  0  0  0  0  0  0
  185.2040  178.6530  142.1790 C   0  0  0  0  0  3  0  0  0  0  0  0
  190.6370  177.5080  142.3090 N   0  0  0  0  0  0  0  0  0  0  0  0
  190.7060  177.1760  144.6310 C   0  0  0  0  0  0  0  0  0  0  0  0
  191.6070  176.9250  145.8120 C   0  0  0  0  0  2  0  0  0  0  0  0
  189.4280  178.0480  139.8790 N   0  0  0  0  0  2  0  0  0  0  0  0
  189.1190  178.4580  137.4920 C   0  0  0  0  0  1  0  0  0  0  0  0
  188.9480  177.4680  138.6330 C   0  0  1  0  0  3  0  0  0  0  0  0
  190.5530  175.7880  139.1570 O   0  0  0  0  0  0  0  0  0  0  0  0
  189.6930  176.2040  138.3360 C   0  0  0  0  0  0  0  0  0  0  0  0
  188.2830  174.9330  136.9300 O   0  0  0  0  0  0  0  0  0  0  0  0
  189.4140  175.4660  137.0850 C   0  0  0  0  0  0  0  0  0  0  0  0
  190.3790  175.3260  136.0330 N   0  0  0  0  0  2  0  0  0  0  0  0
  191.7270  175.8740  136.0620 C   0  0  0  0  0  2  0  0  0  0  0  0
  192.7140  174.8040  136.4870 C   0  0  0  0  0  2  0  0  0  0  0  0
  193.5530  175.2940  137.6520 C   0  0  0  0  0  1  0  0  0  0  0  0
  1 14  1  0  0  0  0
  1  9  1  0  0  0  0
  2  3  1  0  0  0  0
  3  7  1  0  0  0  0
  4 11  1  0  0  0  0
  5  2  1  0  0  0  0
  5 14  2  0  0  0  0
  6  1  2  0  0  0  0
  7  4  1  0  0  0  0
  8 13  1  0  0  0  0
 10 19  1  0  0  0  0
 12  8  2  0  0  0  0
 12 16  1  0  0  0  0
 13  2  2  0  0  0  0
 15 11  1  0  0  0  0
 16  5  1  0  0  0  0
 17 16  2  0  0  0  0
 17  6  1  0  0  0  0
 18 13  1  0  0  0  0
 18 10  2  0  0  0  0
 19  3  2  0  0  0  0
 19 20  1  0  0  0  0
 20 15  1  0  0  0  0
 21  8  1  0  0  0  0
 23 22  1  6  0  0  0
 23 21  1  0  0  0  0
 25 23  1  0  0  0  0
 25 24  2  0  0  0  0
 26 27  2  0  0  0  0
 27 25  1  0  0  0  0
 28 29  1  0  0  0  0
 28 27  1  0  0  0  0
 29 30  1  0  0  0  0
 30 31  1  0  0  0  0
M  END
>  <MODEL>
7

>  <REMARK>
 VINA RESULT:      -8.9      2.080      3.038
  Name = 
  6 active torsions:
  status: ('A' for Active; 'I' for Inactive)
    1  A    between atoms: C_1  and  C_11
    2  A    between atoms: C_9  and  C_22
    3  A    between atoms: C_9  and  N_23
    4  A    between atoms: C_11  and  N_24
    5  A    between atoms: C_15  and  N_23
    6  A    between atoms: C_19  and  C_22
                            x       y       z     vdW  Elec       q    Type
                         _______ _______ _______ _____ _____    ______ ____

>  <TORSDO>
F 6

$$$$
=
 OpenBabel10272400133D

 31 34  0  0  1  0  0  0  0  0999 V2000
  190.8760  176.6520  146.0440 C   0  0  0  0  0  0  0  0  0  0  0  0
  188.0870  177.5600  143.6700 C   0  0  0  0  0  0  0  0  0  0  0  0
  186.9760  177.9760  144.4700 C   0  0  0  0  0  0  0  0  0  0  0  0
  185.8530  177.6810  146.7190 C   0  0  0  0  0  2  0  0  0  0  0  0
  189.3560  177.1390  144.1900 C   0  0  0  0  0  0  0  0  0  0  0  0
  191.8810  176.2940  145.1480 C   0  0  0  0  0  3  0  0  0  0  0  0
  187.1080  178.1300  145.9700 C   0  0  0  0  0  2  0  0  0  0  0  0
  188.9580  177.1810  141.3970 C   0  0  0  0  0  0  0  0  0  0  0  0
  191.1280  176.5920  147.5070 C   0  0  0  0  0  1  0  0  0  0  0  0
  185.7000  178.3060  142.4680 N   0  0  0  0  0  0  0  0  0  0  0  0
  184.9380  178.7350  146.9550 O   0  0  0  0  0  0  0  0  0  0  0  0
  190.1860  176.7900  141.9240 C   0  0  0  0  0  3  0  0  0  0  0  0
  187.9180  177.5610  142.2580 C   0  0  0  0  0  0  0  0  0  0  0  0
  189.6310  177.0670  145.5680 C   0  0  0  0  0  3  0  0  0  0  0  0
  184.7560  179.5400  145.8050 C   0  0  0  0  0  2  0  0  0  0  0  0
  190.3930  176.7620  143.2950 C   0  0  0  0  0  0  0  0  0  0  0  0
  191.6390  176.3490  143.7760 C   0  0  0  0  0  3  0  0  0  0  0  0
  186.7300  177.9330  141.7180 N   0  0  0  0  0  0  0  0  0  0  0  0
  185.7710  178.3570  143.8180 C   0  0  0  0  0  0  0  0  0  0  0  0
  184.5000  178.7250  144.5390 C   0  0  0  0  0  2  0  0  0  0  0  0
  188.7530  177.2060  139.9770 N   0  0  0  0  0  2  0  0  0  0  0  0
  190.6350  177.2900  138.4230 C   0  0  0  0  0  1  0  0  0  0  0  0
  189.4970  178.0650  139.0670 C   0  0  1  0  0  3  0  0  0  0  0  0
  188.9860  179.5420  137.2680 O   0  0  0  0  0  0  0  0  0  0  0  0
  188.5830  178.6090  138.0140 C   0  0  0  0  0  0  0  0  0  0  0  0
  186.2620  178.6120  138.4580 O   0  0  0  0  0  0  0  0  0  0  0  0
  187.2210  178.0500  137.8650 C   0  0  0  0  0  0  0  0  0  0  0  0
  186.9410  176.8880  137.0720 N   0  0  0  0  0  2  0  0  0  0  0  0
  187.9350  176.1240  136.3340 C   0  0  0  0  0  2  0  0  0  0  0  0
  187.9490  174.6860  136.8160 C   0  0  0  0  0  2  0  0  0  0  0  0
  189.3760  174.1940  136.9640 C   0  0  0  0  0  1  0  0  0  0  0  0
  1  9  1  0  0  0  0
  2  5  1  0  0  0  0
  2  3  1  0  0  0  0
  3  7  1  0  0  0  0
  4 11  1  0  0  0  0
  5 14  2  0  0  0  0
  6  1  2  0  0  0  0
  7  4  1  0  0  0  0
  8 12  2  0  0  0  0
  8 13  1  0  0  0  0
 10 19  1  0  0  0  0
 12 16  1  0  0  0  0
 13  2  2  0  0  0  0
 14  1  1  0  0  0  0
 15 11  1  0  0  0  0
 16 17  2  0  0  0  0
 16  5  1  0  0  0  0
 17  6  1  0  0  0  0
 18 13  1  0  0  0  0
 18 10  2  0  0  0  0
 19  3  2  0  0  0  0
 19 20  1  0  0  0  0
 20 15  1  0  0  0  0
 21  8  1  0  0  0  0
 23 22  1  6  0  0  0
 23 21  1  0  0  0  0
 24 25  2  0  0  0  0
 25 23  1  0  0  0  0
 27 25  1  0  0  0  0
 27 26  2  0  0  0  0
 28 27  1  0  0  0  0
 29 30  1  0  0  0  0
 29 28  1  0  0  0  0
 30 31  1  0  0  0  0
M  END
>  <MODEL>
8

>  <REMARK>
 VINA RESULT:      -8.8      1.973      4.647
  Name = 
  6 active torsions:
  status: ('A' for Active; 'I' for Inactive)
    1  A    between atoms: C_1  and  C_11
    2  A    between atoms: C_9  and  C_22
    3  A    between atoms: C_9  and  N_23
    4  A    between atoms: C_11  and  N_24
    5  A    between atoms: C_15  and  N_23
    6  A    between atoms: C_19  and  C_22
                            x       y       z     vdW  Elec       q    Type
                         _______ _______ _______ _____ _____    ______ ____

>  <TORSDO>
F 6

$$$$
=
 OpenBabel10272400133D

 31 34  0  0  1  0  0  0  0  0999 V2000
  190.5450  176.9240  145.9920 C   0  0  0  0  0  0  0  0  0  0  0  0
  187.8870  177.6770  143.4210 C   0  0  0  0  0  0  0  0  0  0  0  0
  186.7080  178.0550  144.1390 C   0  0  0  0  0  0  0  0  0  0  0  0
  185.4490  177.7420  146.3110 C   0  0  0  0  0  2  0  0  0  0  0  0
  189.1350  177.3190  144.0320 C   0  0  0  0  0  0  0  0  0  0  0  0
  191.6230  176.5980  145.1720 C   0  0  0  0  0  3  0  0  0  0  0  0
  186.7310  178.2350  145.6420 C   0  0  0  0  0  2  0  0  0  0  0  0
  188.9250  177.3060  141.2190 C   0  0  0  0  0  0  0  0  0  0  0  0
  190.7000  176.8940  147.4690 C   0  0  0  0  0  1  0  0  0  0  0  0
  185.5570  178.3020  142.0510 N   0  0  0  0  0  0  0  0  0  0  0  0
  184.4750  178.7580  146.4690 O   0  0  0  0  0  0  0  0  0  0  0  0
  190.1300  176.9760  141.8330 C   0  0  0  0  0  3  0  0  0  0  0  0
  187.8140  177.6520  142.0010 C   0  0  0  0  0  0  0  0  0  0  0  0
  189.3190  177.2780  145.4260 C   0  0  0  0  0  3  0  0  0  0  0  0
  184.3370  179.5380  145.2960 C   0  0  0  0  0  2  0  0  0  0  0  0
  190.2450  176.9760  143.2150 C   0  0  0  0  0  0  0  0  0  0  0  0
  191.4720  176.6240  143.7860 C   0  0  0  0  0  3  0  0  0  0  0  0
  186.6500  177.9650  141.3770 N   0  0  0  0  0  0  0  0  0  0  0  0
  185.5350  178.3740  143.4010 C   0  0  0  0  0  0  0  0  0  0  0  0
  184.2030  178.6960  144.0290 C   0  0  0  0  0  2  0  0  0  0  0  0
  188.8160  177.3030  139.7880 N   0  0  0  0  0  2  0  0  0  0  0  0
  190.7630  177.0060  138.3440 C   0  0  0  0  0  1  0  0  0  0  0  0
  189.7480  177.9890  138.9030 C   0  0  1  0  0  3  0  0  0  0  0  0
  188.9800  179.9090  137.7210 O   0  0  0  0  0  0  0  0  0  0  0  0
  189.0020  178.6510  137.7870 C   0  0  0  0  0  0  0  0  0  0  0  0
  188.9570  177.3290  135.8300 O   0  0  0  0  0  0  0  0  0  0  0  0
  188.2980  177.8230  136.7830 C   0  0  0  0  0  0  0  0  0  0  0  0
  186.8900  177.5560  136.8450 N   0  0  0  0  0  2  0  0  0  0  0  0
  185.9920  178.0580  137.8740 C   0  0  0  0  0  2  0  0  0  0  0  0
  184.6160  177.4410  137.7100 C   0  0  0  0  0  2  0  0  0  0  0  0
  183.5880  178.2280  138.5010 C   0  0  0  0  0  1  0  0  0  0  0  0
  1  9  1  0  0  0  0
  2  5  1  0  0  0  0
  2  3  1  0  0  0  0
  3  7  1  0  0  0  0
  4 11  1  0  0  0  0
  5 14  2  0  0  0  0
  6  1  2  0  0  0  0
  7  4  1  0  0  0  0
  8 12  2  0  0  0  0
  8 13  1  0  0  0  0
 10 19  1  0  0  0  0
 12 16  1  0  0  0  0
 13  2  2  0  0  0  0
 14  1  1  0  0  0  0
 15 11  1  0  0  0  0
 16 17  2  0  0  0  0
 16  5  1  0  0  0  0
 17  6  1  0  0  0  0
 18 13  1  0  0  0  0
 18 10  2  0  0  0  0
 19 20  1  0  0  0  0
 19  3  2  0  0  0  0
 20 15  1  0  0  0  0
 21  8  1  0  0  0  0
 23 22  1  6  0  0  0
 23 21  1  0  0  0  0
 24 25  2  0  0  0  0
 25 23  1  0  0  0  0
 26 27  2  0  0  0  0
 27 28  1  0  0  0  0
 27 25  1  0  0  0  0
 28 29  1  0  0  0  0
 30 29  1  0  0  0  0
 30 31  1  0  0  0  0
M  END
>  <MODEL>
9

>  <REMARK>
 VINA RESULT:      -8.7      1.894      4.918
  Name = 
  6 active torsions:
  status: ('A' for Active; 'I' for Inactive)
    1  A    between atoms: C_1  and  C_11
    2  A    between atoms: C_9  and  C_22
    3  A    between atoms: C_9  and  N_23
    4  A    between atoms: C_11  and  N_24
    5  A    between atoms: C_15  and  N_23
    6  A    between atoms: C_19  and  C_22
                            x       y       z     vdW  Elec       q    Type
                         _______ _______ _______ _____ _____    ______ ____

>  <TORSDO>
F 6

$$$$
