=
 OpenBabel10272401173D

 55 61  0  0  1  0  0  0  0  0999 V2000
  184.0390  177.9780  137.6110 O   0  0  0  0  0  0  0  0  0  0  0  0
  186.9970  174.9350  135.4830 C   0  0  0  0  0  2  0  0  0  0  0  0
  185.1890  172.9240  134.4880 O   0  0  0  0  0  1  0  0  0  0  0  0
  181.3010  173.7730  136.6760 C   0  0  0  0  0  2  0  0  0  0  0  0
  180.4880  172.8390  137.5610 C   0  0  0  0  0  2  0  0  0  0  0  0
  182.0560  175.0240  138.7670 C   0  0  1  0  0  3  0  0  0  0  0  0
  181.1620  174.1090  139.6010 C   0  0  0  0  0  2  0  0  0  0  0  0
  183.8830  174.7420  135.3350 C   0  0  0  0  0  2  0  0  0  0  0  0
  179.9830  173.5900  138.7850 C   0  0  0  0  0  2  0  0  0  0  0  0
  185.9410  178.1390  139.0790 C   0  0  0  0  0  3  0  0  0  0  0  0
  182.4940  174.3530  137.4490 C   0  0  2  0  0  3  0  0  0  0  0  0
  187.6440  178.4700  136.9130 C   0  0  0  0  0  0  0  0  0  0  0  0
  183.4470  177.8520  136.3230 C   0  0  0  0  0  2  0  0  0  0  0  0
  186.2730  178.3370  136.6950 C   0  0  0  0  0  3  0  0  0  0  0  0
  181.2390  176.8210  137.1380 C   0  0  2  0  0  3  0  0  0  0  0  0
  188.2130  175.3980  136.2730 C   0  0  0  0  0  2  0  0  0  0  0  0
  181.4330  176.4200  138.6060 C   0  0  0  0  0  2  0  0  0  0  0  0
  186.1050  174.0910  136.3800 C   0  0  0  0  0  2  0  0  0  0  0  0
  184.8500  173.6050  135.6570 C   0  0  2  0  0  3  0  0  0  0  0  0
  187.3170  178.2750  139.2590 C   0  0  0  0  0  3  0  0  0  0  0  0
  189.1920  176.2090  135.4230 C   0  0  2  0  0  3  0  0  0  0  0  0
  185.4130  178.1580  137.7870 C   0  0  0  0  0  0  0  0  0  0  0  0
  183.2920  175.3590  136.6000 C   0  0  2  0  0  3  0  0  0  0  0  0
  182.5100  176.6490  136.2760 C   0  0  2  0  0  3  0  0  0  0  0  0
  188.5320  177.4440  134.8110 C   0  0  0  0  0  2  0  0  0  0  0  0
  188.5790  178.6370  135.7610 C   0  0  0  0  0  2  0  0  0  0  0  0
  188.1350  178.4310  138.1820 N   0  0  0  0  0  0  0  0  0  0  0  0
  180.2080  178.7850  138.1710 O   0  0  0  0  0  0  0  0  0  0  0  0
  181.4420  180.8060  137.6480 C   0  0  2  0  0  3  0  0  0  0  0  0
  181.1350  179.0660  135.8690 C   0  0  0  0  0  2  0  0  0  0  0  0
  180.9210  180.5290  136.2330 C   0  0  0  0  0  2  0  0  0  0  0  0
  181.3090  179.5780  138.5570 C   0  0  0  0  0  2  0  0  0  0  0  0
  180.4960  178.1480  136.9350 C   0  0  1  0  0  3  0  0  0  0  0  0
  180.7470  181.9900  138.2410 C   0  0  0  0  0  0  0  0  0  0  0  0
  180.7740  183.5540  137.3700 S   0  0  0  0  0  1  0  0  0  0  0  0
  180.1630  181.9000  139.3100 O   0  0  0  0  0  0  0  0  0  0  0  0
  189.8250  175.3310  134.3480 C   0  0  0  0  0  2  0  0  0  0  0  0
  194.2200  173.5480  137.7070 C   0  0  0  0  0  2  0  0  0  0  0  0
  192.3110  174.8300  136.8190 C   0  0  2  0  0  3  0  0  0  0  0  0
  189.4370  172.5600  134.6410 O   0  0  0  0  0  0  0  0  0  0  0  0
  192.8010  173.4130  137.1790 C   0  0  1  0  0  3  0  0  0  0  0  0
  192.7830  172.4350  136.0050 C   0  0  0  0  0  2  0  0  0  0  0  0
  190.5420  173.0140  135.0450 C   0  0  0  0  0  0  0  0  0  0  0  0
  190.8150  174.4300  134.9280 N   0  0  0  0  0  0  0  0  0  0  0  0
  194.6600  174.9540  137.3630 C   0  0  1  0  0  3  0  0  0  0  0  0
  191.4470  172.1160  135.6250 O   0  0  0  0  0  0  0  0  0  0  0  0
  192.0830  175.0240  135.3230 C   0  0  0  0  0  2  0  0  0  0  0  0
  193.3840  175.7930  137.2890 C   0  0  2  0  0  3  0  0  0  0  0  0
  192.9770  176.4060  138.6000 C   0  0  0  0  0  0  0  0  0  0  0  0
  193.8420  176.8520  139.4010 O   0  0  0  0  0  1  0  0  0  0  0  0
  191.6310  176.4660  138.9350 O   0  0  0  0  0  0  0  0  0  0  0  0
  195.6190  175.4520  138.3420 N   0  0  0  0  0  2  0  0  0  0  0  0
  196.4950  174.3470  138.6950 C   0  0  1  0  0  3  0  0  0  0  0  0
  197.6600  174.2990  137.7290 C   0  0  0  0  0  1  0  0  0  0  0  0
  196.9970  174.5340  140.0440 N   0  0  0  0  0  1  0  0  0  0  0  0
  1 22  1  0  0  0  0
  2 16  1  0  0  0  0
  2 18  1  0  0  0  0
  4  5  1  0  0  0  0
  5  9  1  0  0  0  0
  6 17  1  6  0  0  0
  6  7  1  0  0  0  0
  8 19  1  0  0  0  0
  9  7  1  0  0  0  0
 10 20  1  0  0  0  0
 11  4  1  6  0  0  0
 11  6  1  0  0  0  0
 12 27  1  0  0  0  0
 13  1  1  0  0  0  0
 14 12  2  0  0  0  0
 14 22  1  0  0  0  0
 15 17  1  1  0  0  0
 19  3  1  6  0  0  0
 19 18  1  0  0  0  0
 21 37  1  6  0  0  0
 21 16  1  0  0  0  0
 22 10  2  0  0  0  0
 23  8  1  6  0  0  0
 23 11  1  0  0  0  0
 24 13  1  1  0  0  0
 24 23  1  0  0  0  0
 24 15  1  0  0  0  0
 25 21  1  0  0  0  0
 25 26  1  0  0  0  0
 26 12  1  0  0  0  0
 27 20  2  0  0  0  0
 28 32  1  0  0  0  0
 29 34  1  1  0  0  0
 29 32  1  0  0  0  0
 30 31  1  0  0  0  0
 31 29  1  0  0  0  0
 33 30  1  6  0  0  0
 33 15  1  0  0  0  0
 33 28  1  0  0  0  0
 34 36  2  0  0  0  0
 35 34  1  0  0  0  0
 37 44  1  0  0  0  0
 39 47  1  6  0  0  0
 39 41  1  0  0  0  0
 39 48  1  0  0  0  0
 40 43  2  0  0  0  0
 41 42  1  6  0  0  0
 41 38  1  0  0  0  0
 43 46  1  0  0  0  0
 44 43  1  0  0  0  0
 44 47  1  0  0  0  0
 45 38  1  0  0  0  0
 45 52  1  1  0  0  0
 46 42  1  0  0  0  0
 48 45  1  0  0  0  0
 48 49  1  1  0  0  0
 49 51  2  0  0  0  0
 49 50  1  0  0  0  0
 52 53  1  0  0  0  0
 53 54  1  6  0  0  0
 53 55  1  0  0  0  0
M  END
>  <MODEL>
1

>  <REMARK>
 VINA RESULT:      -5.3      0.000      0.000
  Name = 
  7 active torsions:
  status: ('A' for Active; 'I' for Inactive)
    1  A    between atoms: C_1  and  C_53
    2  A    between atoms: C_8  and  N_22
    3  A    between atoms: C_8  and  C_43
    4  A    between atoms: C_10  and  C_32
    5  A    between atoms: C_11  and  N_29
    6  A    between atoms: N_29  and  C_38
    7  A    between atoms: C_33  and  C_52
                            x       y       z     vdW  Elec       q    Type
                         _______ _______ _______ _____ _____    ______ ____

>  <TORSDO>
F 7

$$$$
=
 OpenBabel10272401173D

 55 61  0  0  1  0  0  0  0  0999 V2000
  186.0250  176.4260  137.1940 O   0  0  0  0  0  0  0  0  0  0  0  0
  184.3110  178.2320  141.2360 C   0  0  0  0  0  2  0  0  0  0  0  0
  181.5140  177.5650  141.0630 O   0  0  0  0  0  1  0  0  0  0  0  0
  180.9430  176.3720  136.7180 C   0  0  0  0  0  2  0  0  0  0  0  0
  179.9850  176.9590  135.6920 C   0  0  0  0  0  2  0  0  0  0  0  0
  182.8690  177.5420  135.5220 C   0  0  1  0  0  3  0  0  0  0  0  0
  181.8760  178.0400  134.4750 C   0  0  0  0  0  2  0  0  0  0  0  0
  182.6500  176.4700  139.2640 C   0  0  0  0  0  2  0  0  0  0  0  0
  180.6840  177.0990  134.3470 C   0  0  0  0  0  2  0  0  0  0  0  0
  187.4120  178.3840  137.4060 C   0  0  0  0  0  3  0  0  0  0  0  0
  182.1840  177.2630  136.8760 C   0  0  2  0  0  3  0  0  0  0  0  0
  187.9640  177.7640  140.0540 C   0  0  0  0  0  0  0  0  0  0  0  0
  185.3260  175.3120  137.7350 C   0  0  0  0  0  2  0  0  0  0  0  0
  187.1540  176.9110  139.3030 C   0  0  0  0  0  3  0  0  0  0  0  0
  183.6140  175.1120  135.8300 C   0  0  2  0  0  3  0  0  0  0  0  0
  185.4670  179.2050  141.4170 C   0  0  0  0  0  2  0  0  0  0  0  0
  183.7230  176.3840  134.9790 C   0  0  0  0  0  2  0  0  0  0  0  0
  183.3950  178.7380  140.1330 C   0  0  0  0  0  2  0  0  0  0  0  0
  182.2180  177.7980  139.8810 C   0  0  2  0  0  3  0  0  0  0  0  0
  188.2170  179.2120  138.1880 C   0  0  0  0  0  3  0  0  0  0  0  0
  186.4070  178.7970  142.5520 C   0  0  2  0  0  3  0  0  0  0  0  0
  186.8650  177.2290  137.9690 C   0  0  0  0  0  0  0  0  0  0  0  0
  183.2050  176.6540  137.8530 C   0  0  2  0  0  3  0  0  0  0  0  0
  183.8540  175.3530  137.3370 C   0  0  2  0  0  3  0  0  0  0  0  0
  186.9970  177.4030  142.3340 C   0  0  0  0  0  2  0  0  0  0  0  0
  188.2630  177.4540  141.4840 C   0  0  0  0  0  2  0  0  0  0  0  0
  188.4710  178.8910  139.4860 N   0  0  0  0  0  0  0  0  0  0  0  0
  185.4320  174.2760  134.4200 O   0  0  0  0  0  0  0  0  0  0  0  0
  187.1020  173.1090  135.7360 C   0  0  2  0  0  3  0  0  0  0  0  0
  184.6760  172.8050  136.2920 C   0  0  0  0  0  2  0  0  0  0  0  0
  185.9690  172.0930  135.9190 C   0  0  0  0  0  2  0  0  0  0  0  0
  186.5820  174.4560  135.2160 C   0  0  0  0  0  2  0  0  0  0  0  0
  184.3420  173.8940  135.2470 C   0  0  1  0  0  3  0  0  0  0  0  0
  188.1600  172.5590  134.8340 C   0  0  0  0  0  0  0  0  0  0  0  0
  188.1670  170.8110  134.4490 S   0  0  0  0  0  1  0  0  0  0  0  0
  189.0170  173.2890  134.3590 O   0  0  0  0  0  0  0  0  0  0  0  0
  185.6980  178.8900  143.8990 C   0  0  0  0  0  2  0  0  0  0  0  0
  190.5050  177.0420  146.5920 C   0  0  0  0  0  2  0  0  0  0  0  0
  188.9790  178.1580  145.0110 C   0  0  2  0  0  3  0  0  0  0  0  0
  185.2280  179.3690  146.6320 O   0  0  0  0  0  0  0  0  0  0  0  0
  189.2820  177.9410  146.5060 C   0  0  1  0  0  3  0  0  0  0  0  0
  188.1290  177.3120  147.2870 C   0  0  0  0  0  2  0  0  0  0  0  0
  186.2380  178.6650  146.3540 C   0  0  0  0  0  0  0  0  0  0  0  0
  186.5440  178.3760  144.9700 N   0  0  0  0  0  0  0  0  0  0  0  0
  190.7130  176.4890  145.2000 C   0  0  1  0  0  3  0  0  0  0  0  0
  187.0400  178.2230  147.4130 O   0  0  0  0  0  0  0  0  0  0  0  0
  187.6600  177.5320  144.5690 C   0  0  0  0  0  2  0  0  0  0  0  0
  190.1180  177.5190  144.2390 C   0  0  2  0  0  3  0  0  0  0  0  0
  191.0880  178.5780  143.7970 C   0  0  0  0  0  0  0  0  0  0  0  0
  191.2200  179.6480  144.4520 O   0  0  0  0  0  1  0  0  0  0  0  0
  191.8360  178.3800  142.6450 O   0  0  0  0  0  0  0  0  0  0  0  0
  192.1250  176.2230  144.9520 N   0  0  0  0  0  2  0  0  0  0  0  0
  192.2090  174.9850  144.1950 C   0  0  1  0  0  3  0  0  0  0  0  0
  192.3020  173.8150  145.1520 C   0  0  0  0  0  1  0  0  0  0  0  0
  191.0260  174.8360  143.3680 N   0  0  0  0  0  1  0  0  0  0  0  0
  1 13  1  0  0  0  0
  1 22  1  0  0  0  0
  2 16  1  0  0  0  0
  5  4  1  0  0  0  0
  6  7  1  6  0  0  0
  6 11  1  0  0  0  0
  8 19  1  0  0  0  0
  9  7  1  0  0  0  0
  9  5  1  0  0  0  0
 10 22  2  0  0  0  0
 10 20  1  0  0  0  0
 11  4  1  6  0  0  0
 11 23  1  0  0  0  0
 12 26  1  0  0  0  0
 14 12  2  0  0  0  0
 15 17  1  6  0  0  0
 15 24  1  0  0  0  0
 16 21  1  0  0  0  0
 17  6  1  0  0  0  0
 18  2  1  0  0  0  0
 19 18  1  0  0  0  0
 19  3  1  1  0  0  0
 20 27  2  0  0  0  0
 21 37  1  1  0  0  0
 22 14  1  0  0  0  0
 23  8  1  1  0  0  0
 24 13  1  6  0  0  0
 24 23  1  0  0  0  0
 25 21  1  0  0  0  0
 26 25  1  0  0  0  0
 27 12  1  0  0  0  0
 28 32  1  0  0  0  0
 28 33  1  0  0  0  0
 29 34  1  6  0  0  0
 29 31  1  0  0  0  0
 31 30  1  0  0  0  0
 32 29  1  0  0  0  0
 33 15  1  0  0  0  0
 33 30  1  1  0  0  0
 35 34  1  0  0  0  0
 36 34  2  0  0  0  0
 37 44  1  0  0  0  0
 39 47  1  6  0  0  0
 39 41  1  0  0  0  0
 41 38  1  6  0  0  0
 41 42  1  0  0  0  0
 42 46  1  0  0  0  0
 43 40  2  0  0  0  0
 43 46  1  0  0  0  0
 44 43  1  0  0  0  0
 45 52  1  6  0  0  0
 45 38  1  0  0  0  0
 47 44  1  0  0  0  0
 48 49  1  1  0  0  0
 48 39  1  0  0  0  0
 48 45  1  0  0  0  0
 49 50  1  0  0  0  0
 51 49  2  0  0  0  0
 53 52  1  0  0  0  0
 53 54  1  1  0  0  0
 55 53  1  0  0  0  0
M  END
>  <MODEL>
2

>  <REMARK>
 VINA RESULT:      -4.4      4.800      8.011
  Name = 
  7 active torsions:
  status: ('A' for Active; 'I' for Inactive)
    1  A    between atoms: C_1  and  C_53
    2  A    between atoms: C_8  and  N_22
    3  A    between atoms: C_8  and  C_43
    4  A    between atoms: C_10  and  C_32
    5  A    between atoms: C_11  and  N_29
    6  A    between atoms: N_29  and  C_38
    7  A    between atoms: C_33  and  C_52
                            x       y       z     vdW  Elec       q    Type
                         _______ _______ _______ _____ _____    ______ ____

>  <TORSDO>
F 7

$$$$
=
 OpenBabel10272401173D

 55 61  0  0  1  0  0  0  0  0999 V2000
  186.1330  175.7410  137.1170 O   0  0  0  0  0  0  0  0  0  0  0  0
  184.3640  178.1250  140.8220 C   0  0  0  0  0  2  0  0  0  0  0  0
  181.6460  177.1760  140.9150 O   0  0  0  0  0  1  0  0  0  0  0  0
  181.0720  175.1150  136.9080 C   0  0  0  0  0  2  0  0  0  0  0  0
  180.0290  175.3990  135.8370 C   0  0  0  0  0  2  0  0  0  0  0  0
  182.8320  176.2080  135.4200 C   0  0  1  0  0  3  0  0  0  0  0  0
  181.7630  176.3980  134.3470 C   0  0  0  0  0  2  0  0  0  0  0  0
  182.8350  175.8650  139.3030 C   0  0  0  0  0  2  0  0  0  0  0  0
  180.6700  175.3410  134.4570 C   0  0  0  0  0  2  0  0  0  0  0  0
  187.3190  177.8250  136.8860 C   0  0  0  0  0  3  0  0  0  0  0  0
  182.2190  176.1330  136.8340 C   0  0  2  0  0  3  0  0  0  0  0  0
  188.0090  177.7850  139.5740 C   0  0  0  0  0  0  0  0  0  0  0  0
  185.5690  174.6920  137.8940 C   0  0  0  0  0  2  0  0  0  0  0  0
  187.2690  176.7300  139.0380 C   0  0  0  0  0  3  0  0  0  0  0  0
  183.8300  173.9660  136.1460 C   0  0  2  0  0  3  0  0  0  0  0  0
  185.4200  179.2200  140.7580 C   0  0  0  0  0  2  0  0  0  0  0  0
  183.7830  175.0530  135.0650 C   0  0  0  0  0  2  0  0  0  0  0  0
  183.3690  178.3190  139.6890 C   0  0  0  0  0  2  0  0  0  0  0  0
  182.2870  177.2410  139.6780 C   0  0  2  0  0  3  0  0  0  0  0  0
  188.0580  178.8610  137.4560 C   0  0  0  0  0  3  0  0  0  0  0  0
  186.4300  179.1300  141.9030 C   0  0  2  0  0  3  0  0  0  0  0  0
  186.9100  176.7550  137.6840 C   0  0  0  0  0  0  0  0  0  0  0  0
  183.3260  175.8250  137.8580 C   0  0  2  0  0  3  0  0  0  0  0  0
  184.0880  174.5160  137.5670 C   0  0  2  0  0  3  0  0  0  0  0  0
  187.1520  177.7830  141.9250 C   0  0  0  0  0  2  0  0  0  0  0  0
  188.3810  177.7880  141.0200 C   0  0  0  0  0  2  0  0  0  0  0  0
  188.3810  178.8230  138.7780 N   0  0  0  0  0  0  0  0  0  0  0  0
  184.6830  171.7720  136.8160 O   0  0  0  0  0  0  0  0  0  0  0  0
  183.7020  170.0000  135.4820 C   0  0  2  0  0  3  0  0  0  0  0  0
  184.3340  172.1580  134.3730 C   0  0  0  0  0  2  0  0  0  0  0  0
  184.5260  170.6480  134.3640 C   0  0  0  0  0  2  0  0  0  0  0  0
  183.5610  170.9260  136.6970 C   0  0  0  0  0  2  0  0  0  0  0  0
  184.6620  172.7320  135.7700 C   0  0  1  0  0  3  0  0  0  0  0  0
  184.2940  168.6850  135.8760 C   0  0  0  0  0  0  0  0  0  0  0  0
  185.6180  167.9860  134.8940 S   0  0  0  0  0  1  0  0  0  0  0  0
  183.8850  168.0850  136.8590 O   0  0  0  0  0  0  0  0  0  0  0  0
  185.7550  179.4150  143.2410 C   0  0  0  0  0  2  0  0  0  0  0  0
  190.0970  176.9780  146.2380 C   0  0  0  0  0  2  0  0  0  0  0  0
  188.8320  178.3780  144.6530 C   0  0  2  0  0  3  0  0  0  0  0  0
  184.9300  179.5200  145.9290 O   0  0  0  0  0  0  0  0  0  0  0  0
  188.9230  177.9370  146.1260 C   0  0  1  0  0  3  0  0  0  0  0  0
  187.6570  177.2580  146.6480 C   0  0  0  0  0  2  0  0  0  0  0  0
  185.9480  178.8170  145.6850 C   0  0  0  0  0  0  0  0  0  0  0  0
  186.4330  178.7140  144.3260 N   0  0  0  0  0  0  0  0  0  0  0  0
  190.4780  176.6200  144.8180 C   0  0  1  0  0  3  0  0  0  0  0  0
  186.5860  178.1910  146.7630 O   0  0  0  0  0  0  0  0  0  0  0  0
  187.5690  177.8850  143.9550 C   0  0  0  0  0  2  0  0  0  0  0  0
  190.0470  177.8030  143.9510 C   0  0  2  0  0  3  0  0  0  0  0  0
  191.0980  178.8680  143.8010 C   0  0  0  0  0  0  0  0  0  0  0  0
  192.2290  178.5960  143.3140 O   0  0  0  0  0  0  0  0  0  0  0  0
  190.8210  180.1620  144.2190 O   0  0  0  0  0  1  0  0  0  0  0  0
  191.9030  176.3260  144.7220 N   0  0  0  0  0  2  0  0  0  0  0  0
  192.0420  175.0890  143.9700 C   0  0  1  0  0  3  0  0  0  0  0  0
  192.4520  173.9730  144.9070 C   0  0  0  0  0  1  0  0  0  0  0  0
  190.7770  174.7520  143.3450 N   0  0  0  0  0  1  0  0  0  0  0  0
  1 22  1  0  0  0  0
  1 13  1  0  0  0  0
  5  4  1  0  0  0  0
  6  7  1  6  0  0  0
  6 11  1  0  0  0  0
  7  9  1  0  0  0  0
  8 19  1  0  0  0  0
  9  5  1  0  0  0  0
 10 20  2  0  0  0  0
 10 22  1  0  0  0  0
 11  4  1  6  0  0  0
 11 23  1  0  0  0  0
 12 26  1  0  0  0  0
 14 12  1  0  0  0  0
 15 17  1  6  0  0  0
 15 24  1  0  0  0  0
 16  2  1  0  0  0  0
 16 21  1  0  0  0  0
 17  6  1  0  0  0  0
 18  2  1  0  0  0  0
 19 18  1  0  0  0  0
 19  3  1  1  0  0  0
 20 27  1  0  0  0  0
 21 25  1  0  0  0  0
 21 37  1  1  0  0  0
 22 14  2  0  0  0  0
 23  8  1  1  0  0  0
 24 23  1  0  0  0  0
 24 13  1  6  0  0  0
 26 25  1  0  0  0  0
 27 12  2  0  0  0  0
 29 34  1  1  0  0  0
 29 32  1  0  0  0  0
 31 30  1  0  0  0  0
 31 29  1  0  0  0  0
 32 28  1  0  0  0  0
 33 30  1  6  0  0  0
 33 15  1  0  0  0  0
 33 28  1  0  0  0  0
 34 36  2  0  0  0  0
 35 34  1  0  0  0  0
 37 44  1  0  0  0  0
 39 47  1  6  0  0  0
 39 41  1  0  0  0  0
 41 38  1  6  0  0  0
 41 42  1  0  0  0  0
 42 46  1  0  0  0  0
 43 40  2  0  0  0  0
 43 46  1  0  0  0  0
 44 43  1  0  0  0  0
 45 52  1  1  0  0  0
 45 38  1  0  0  0  0
 47 44  1  0  0  0  0
 48 49  1  1  0  0  0
 48 39  1  0  0  0  0
 48 45  1  0  0  0  0
 49 51  1  0  0  0  0
 50 49  2  0  0  0  0
 53 52  1  0  0  0  0
 53 54  1  1  0  0  0
 55 53  1  0  0  0  0
M  END
>  <MODEL>
3

>  <REMARK>
 VINA RESULT:      -4.4      4.871      8.072
  Name = 
  7 active torsions:
  status: ('A' for Active; 'I' for Inactive)
    1  A    between atoms: C_1  and  C_53
    2  A    between atoms: C_8  and  N_22
    3  A    between atoms: C_8  and  C_43
    4  A    between atoms: C_10  and  C_32
    5  A    between atoms: C_11  and  N_29
    6  A    between atoms: N_29  and  C_38
    7  A    between atoms: C_33  and  C_52
                            x       y       z     vdW  Elec       q    Type
                         _______ _______ _______ _____ _____    ______ ____

>  <TORSDO>
F 7

$$$$
=
 OpenBabel10272401173D

 55 61  0  0  1  0  0  0  0  0999 V2000
  183.8110  176.8220  137.0060 O   0  0  0  0  0  0  0  0  0  0  0  0
  187.3840  177.9050  139.9390 C   0  0  0  0  0  2  0  0  0  0  0  0
  185.9900  178.6160  142.3580 O   0  0  0  0  0  1  0  0  0  0  0  0
  181.6820  179.1430  141.0220 C   0  0  0  0  0  2  0  0  0  0  0  0
  180.7870  180.3660  141.1670 C   0  0  0  0  0  2  0  0  0  0  0  0
  181.8890  179.6470  138.5290 C   0  0  1  0  0  3  0  0  0  0  0  0
  180.9250  180.8150  138.7160 C   0  0  0  0  0  2  0  0  0  0  0  0
  184.3920  177.7230  140.8170 C   0  0  0  0  0  2  0  0  0  0  0  0
  179.9830  180.5770  139.8910 C   0  0  0  0  0  2  0  0  0  0  0  0
  185.3560  177.8120  135.4450 C   0  0  0  0  0  3  0  0  0  0  0  0
  182.6410  179.3090  139.8340 C   0  0  2  0  0  3  0  0  0  0  0  0
  187.4290  176.2580  136.4390 C   0  0  0  0  0  0  0  0  0  0  0  0
  183.5060  176.0210  138.1410 C   0  0  0  0  0  2  0  0  0  0  0  0
  186.1460  176.1120  136.9680 C   0  0  0  0  0  3  0  0  0  0  0  0
  181.2720  177.1680  138.6900 C   0  0  2  0  0  3  0  0  0  0  0  0
  188.3700  178.1700  138.8110 C   0  0  0  0  0  2  0  0  0  0  0  0
  181.1970  178.4520  137.8530 C   0  0  0  0  0  2  0  0  0  0  0  0
  186.4020  179.0630  140.0320 C   0  0  0  0  0  2  0  0  0  0  0  0
  185.3650  178.8560  141.1340 C   0  0  2  0  0  3  0  0  0  0  0  0
  186.6510  177.9300  134.9410 C   0  0  0  0  0  3  0  0  0  0  0  0
  189.4300  177.0750  138.6870 C   0  0  2  0  0  3  0  0  0  0  0  0
  185.1010  176.9050  136.4750 C   0  0  0  0  0  0  0  0  0  0  0  0
  183.5060  178.0550  139.6180 C   0  0  2  0  0  3  0  0  0  0  0  0
  182.7010  176.8200  139.1630 C   0  0  2  0  0  3  0  0  0  0  0  0
  188.8070  175.6990  138.4520 C   0  0  0  0  0  2  0  0  0  0  0  0
  188.5610  175.4400  136.9680 C   0  0  0  0  0  2  0  0  0  0  0  0
  187.6530  177.1610  135.4470 N   0  0  0  0  0  0  0  0  0  0  0  0
  180.3540  176.0740  136.7020 O   0  0  0  0  0  0  0  0  0  0  0  0
  181.4540  173.9560  136.2740 C   0  0  2  0  0  3  0  0  0  0  0  0
  180.9360  174.6090  138.6390 C   0  0  0  0  0  2  0  0  0  0  0  0
  180.7430  173.5440  137.5680 C   0  0  0  0  0  2  0  0  0  0  0  0
  181.4800  175.4790  136.0970 C   0  0  0  0  0  2  0  0  0  0  0  0
  180.4780  175.9880  138.1140 C   0  0  1  0  0  3  0  0  0  0  0  0
  180.8230  173.2890  135.0930 C   0  0  0  0  0  0  0  0  0  0  0  0
  181.3100  171.6210  134.6600 S   0  0  0  0  0  1  0  0  0  0  0  0
  179.9820  173.8700  134.4240 O   0  0  0  0  0  0  0  0  0  0  0  0
  190.3400  177.0660  139.9120 C   0  0  0  0  0  2  0  0  0  0  0  0
  194.6670  174.9690  136.6470 C   0  0  0  0  0  2  0  0  0  0  0  0
  192.5730  176.0590  137.3550 C   0  0  2  0  0  3  0  0  0  0  0  0
  192.6950  177.9570  141.1690 O   0  0  0  0  0  0  0  0  0  0  0  0
  194.0920  176.0030  137.6030 C   0  0  1  0  0  3  0  0  0  0  0  0
  194.4730  175.6400  139.0370 C   0  0  0  0  0  2  0  0  0  0  0  0
  192.8390  177.0960  140.2580 C   0  0  0  0  0  0  0  0  0  0  0  0
  191.6750  176.5900  139.5660 N   0  0  0  0  0  0  0  0  0  0  0  0
  193.4800  174.2150  136.0880 C   0  0  1  0  0  3  0  0  0  0  0  0
  194.1420  176.6940  139.9370 O   0  0  0  0  0  0  0  0  0  0  0  0
  191.7520  175.5610  138.5400 C   0  0  0  0  0  2  0  0  0  0  0  0
  192.2960  175.1800  136.1510 C   0  0  2  0  0  3  0  0  0  0  0  0
  192.1350  176.0350  134.9250 C   0  0  0  0  0  0  0  0  0  0  0  0
  193.1250  176.6270  134.4160 O   0  0  0  0  0  1  0  0  0  0  0  0
  190.8770  176.1840  134.3580 O   0  0  0  0  0  0  0  0  0  0  0  0
  193.7590  173.7350  134.7400 N   0  0  0  0  0  2  0  0  0  0  0  0
  193.3780  172.3330  134.6900 C   0  0  1  0  0  3  0  0  0  0  0  0
  193.9820  171.6040  135.8710 C   0  0  0  0  0  1  0  0  0  0  0  0
  191.9330  172.2170  134.7410 N   0  0  0  0  0  1  0  0  0  0  0  0
  1 13  1  0  0  0  0
  2 18  1  0  0  0  0
  4  5  1  0  0  0  0
  6 17  1  1  0  0  0
  6  7  1  0  0  0  0
  6 11  1  0  0  0  0
  7  9  1  0  0  0  0
  8 19  1  0  0  0  0
  9  5  1  0  0  0  0
 10 22  1  0  0  0  0
 11  4  1  1  0  0  0
 12 26  1  0  0  0  0
 12 14  1  0  0  0  0
 15 17  1  6  0  0  0
 15 24  1  0  0  0  0
 16  2  1  0  0  0  0
 18 19  1  0  0  0  0
 19  3  1  1  0  0  0
 20 10  2  0  0  0  0
 20 27  1  0  0  0  0
 21 16  1  0  0  0  0
 21 37  1  1  0  0  0
 22 14  2  0  0  0  0
 22  1  1  0  0  0  0
 23 11  1  0  0  0  0
 23  8  1  1  0  0  0
 24 13  1  6  0  0  0
 24 23  1  0  0  0  0
 25 21  1  0  0  0  0
 26 25  1  0  0  0  0
 27 12  2  0  0  0  0
 28 33  1  0  0  0  0
 29 34  1  6  0  0  0
 29 31  1  0  0  0  0
 31 30  1  0  0  0  0
 32 29  1  0  0  0  0
 32 28  1  0  0  0  0
 33 30  1  6  0  0  0
 33 15  1  0  0  0  0
 35 34  1  0  0  0  0
 36 34  2  0  0  0  0
 39 41  1  0  0  0  0
 39 47  1  1  0  0  0
 41 38  1  6  0  0  0
 41 42  1  0  0  0  0
 42 46  1  0  0  0  0
 43 40  2  0  0  0  0
 44 37  1  0  0  0  0
 44 43  1  0  0  0  0
 45 52  1  6  0  0  0
 45 48  1  0  0  0  0
 45 38  1  0  0  0  0
 46 43  1  0  0  0  0
 47 44  1  0  0  0  0
 48 49  1  6  0  0  0
 48 39  1  0  0  0  0
 50 49  1  0  0  0  0
 51 49  2  0  0  0  0
 53 52  1  0  0  0  0
 53 55  1  0  0  0  0
 53 54  1  1  0  0  0
M  END
>  <MODEL>
4

>  <REMARK>
 VINA RESULT:      -3.7      2.897      5.478
  Name = 
  7 active torsions:
  status: ('A' for Active; 'I' for Inactive)
    1  A    between atoms: C_1  and  C_53
    2  A    between atoms: C_8  and  N_22
    3  A    between atoms: C_8  and  C_43
    4  A    between atoms: C_10  and  C_32
    5  A    between atoms: C_11  and  N_29
    6  A    between atoms: N_29  and  C_38
    7  A    between atoms: C_33  and  C_52
                            x       y       z     vdW  Elec       q    Type
                         _______ _______ _______ _____ _____    ______ ____

>  <TORSDO>
F 7

$$$$
=
 OpenBabel10272401173D

 55 61  0  0  1  0  0  0  0  0999 V2000
  185.5870  174.7900  136.0640 O   0  0  0  0  0  0  0  0  0  0  0  0
  187.1260  178.4570  138.6560 C   0  0  0  0  0  2  0  0  0  0  0  0
  184.6750  179.4900  139.7630 O   0  0  0  0  0  1  0  0  0  0  0  0
  181.4320  177.4860  137.2960 C   0  0  0  0  0  2  0  0  0  0  0  0
  180.3280  178.1360  136.4740 C   0  0  0  0  0  2  0  0  0  0  0  0
  182.6270  176.8760  135.1260 C   0  0  1  0  0  3  0  0  0  0  0  0
  181.4550  177.4710  134.3490 C   0  0  0  0  0  2  0  0  0  0  0  0
  184.1780  177.4260  138.6600 C   0  0  0  0  0  2  0  0  0  0  0  0
  180.1610  177.3990  135.1510 C   0  0  0  0  0  2  0  0  0  0  0  0
  187.4150  175.5430  134.6890 C   0  0  0  0  0  3  0  0  0  0  0  0
  182.7620  177.5020  136.5300 C   0  0  2  0  0  3  0  0  0  0  0  0
  189.0980  175.6350  136.8940 C   0  0  0  0  0  0  0  0  0  0  0  0
  184.9830  174.5260  137.3250 C   0  0  0  0  0  2  0  0  0  0  0  0
  187.7800  175.2070  137.0530 C   0  0  0  0  0  3  0  0  0  0  0  0
  182.5540  174.7240  136.5090 C   0  0  2  0  0  3  0  0  0  0  0  0
  188.4320  178.5910  137.8870 C   0  0  0  0  0  2  0  0  0  0  0  0
  182.5890  175.3390  135.1040 C   0  0  0  0  0  2  0  0  0  0  0  0
  185.9840  178.9960  137.8090 C   0  0  0  0  0  2  0  0  0  0  0  0
  184.6330  178.8760  138.5120 C   0  0  2  0  0  3  0  0  0  0  0  0
  188.7390  175.9670  134.5690 C   0  0  0  0  0  3  0  0  0  0  0  0
  189.6420  178.1220  138.6960 C   0  0  2  0  0  3  0  0  0  0  0  0
  186.9250  175.1710  135.9420 C   0  0  0  0  0  0  0  0  0  0  0  0
  183.8800  176.7840  137.3070 C   0  0  2  0  0  3  0  0  0  0  0  0
  183.6540  175.2650  137.4500 C   0  0  2  0  0  3  0  0  0  0  0  0
  189.5050  176.6650  139.1380 C   0  0  0  0  0  2  0  0  0  0  0  0
  190.0160  175.7030  138.0700 C   0  0  0  0  0  2  0  0  0  0  0  0
  189.5450  176.0080  135.6640 N   0  0  0  0  0  0  0  0  0  0  0  0
  182.4500  172.6420  135.2260 O   0  0  0  0  0  0  0  0  0  0  0  0
  184.3400  171.2050  135.7240 C   0  0  2  0  0  3  0  0  0  0  0  0
  183.2520  172.4830  137.5860 C   0  0  0  0  0  2  0  0  0  0  0  0
  183.6550  171.1010  137.0910 C   0  0  0  0  0  2  0  0  0  0  0  0
  183.7980  172.3810  134.9010 C   0  0  0  0  0  2  0  0  0  0  0  0
  182.3800  173.1990  136.5300 C   0  0  1  0  0  3  0  0  0  0  0  0
  184.2070  169.9190  134.9720 C   0  0  0  0  0  0  0  0  0  0  0  0
  182.6410  169.0520  134.9790 S   0  0  0  0  0  1  0  0  0  0  0  0
  185.1550  169.4560  134.3540 O   0  0  0  0  0  0  0  0  0  0  0  0
  189.8790  179.0400  139.8900 C   0  0  0  0  0  2  0  0  0  0  0  0
  190.7180  176.3270  144.9610 C   0  0  0  0  0  2  0  0  0  0  0  0
  189.6530  177.2680  142.9470 C   0  0  2  0  0  3  0  0  0  0  0  0
  192.0980  177.3640  139.4590 O   0  0  0  0  0  0  0  0  0  0  0  0
  190.8160  176.3880  143.4450 C   0  0  1  0  0  3  0  0  0  0  0  0
  192.1980  176.9040  143.0430 C   0  0  0  0  0  2  0  0  0  0  0  0
  191.7190  177.4910  140.6550 C   0  0  0  0  0  0  0  0  0  0  0  0
  190.5850  178.3370  140.9560 N   0  0  0  0  0  0  0  0  0  0  0  0
  189.7250  177.3970  145.3570 C   0  0  1  0  0  3  0  0  0  0  0  0
  192.4050  176.7690  141.6400 O   0  0  0  0  0  0  0  0  0  0  0  0
  190.1170  178.5750  142.3130 C   0  0  0  0  0  2  0  0  0  0  0  0
  188.7930  177.5780  144.1580 C   0  0  2  0  0  3  0  0  0  0  0  0
  187.5920  176.6740  144.1720 C   0  0  0  0  0  0  0  0  0  0  0  0
  187.4750  175.7420  143.3310 O   0  0  0  0  0  0  0  0  0  0  0  0
  186.5950  176.8810  145.1140 O   0  0  0  0  0  1  0  0  0  0  0  0
  189.0210  177.0250  146.5790 N   0  0  0  0  0  2  0  0  0  0  0  0
  189.4820  177.9130  147.6340 C   0  0  1  0  0  3  0  0  0  0  0  0
  188.4070  178.0380  148.6930 C   0  0  0  0  0  1  0  0  0  0  0  0
  190.6880  177.3730  148.2350 N   0  0  0  0  0  1  0  0  0  0  0  0
  1 13  1  0  0  0  0
  5  4  1  0  0  0  0
  6  7  1  1  0  0  0
  6 11  1  0  0  0  0
  7  9  1  0  0  0  0
  9  5  1  0  0  0  0
 10 22  1  0  0  0  0
 11  4  1  1  0  0  0
 11 23  1  0  0  0  0
 12 14  1  0  0  0  0
 12 26  1  0  0  0  0
 15 17  1  6  0  0  0
 15 33  1  0  0  0  0
 15 24  1  0  0  0  0
 16  2  1  0  0  0  0
 16 21  1  0  0  0  0
 17  6  1  0  0  0  0
 18 19  1  0  0  0  0
 18  2  1  0  0  0  0
 19  8  1  0  0  0  0
 19  3  1  1  0  0  0
 20 10  2  0  0  0  0
 20 27  1  0  0  0  0
 21 25  1  0  0  0  0
 21 37  1  1  0  0  0
 22  1  1  0  0  0  0
 22 14  2  0  0  0  0
 23 24  1  0  0  0  0
 23  8  1  1  0  0  0
 24 13  1  6  0  0  0
 26 25  1  0  0  0  0
 27 12  2  0  0  0  0
 28 33  1  0  0  0  0
 29 34  1  6  0  0  0
 29 31  1  0  0  0  0
 31 30  1  0  0  0  0
 32 28  1  0  0  0  0
 32 29  1  0  0  0  0
 33 30  1  1  0  0  0
 34 35  1  0  0  0  0
 36 34  2  0  0  0  0
 37 44  1  0  0  0  0
 38 45  1  0  0  0  0
 39 47  1  1  0  0  0
 39 41  1  0  0  0  0
 39 48  1  0  0  0  0
 40 43  2  0  0  0  0
 41 42  1  1  0  0  0
 41 38  1  0  0  0  0
 43 44  1  0  0  0  0
 43 46  1  0  0  0  0
 44 47  1  0  0  0  0
 45 52  1  1  0  0  0
 46 42  1  0  0  0  0
 48 49  1  1  0  0  0
 48 45  1  0  0  0  0
 49 51  1  0  0  0  0
 50 49  2  0  0  0  0
 52 53  1  0  0  0  0
 53 55  1  0  0  0  0
 53 54  1  1  0  0  0
M  END
>  <MODEL>
5

>  <REMARK>
 VINA RESULT:      -3.7      4.395      7.443
  Name = 
  7 active torsions:
  status: ('A' for Active; 'I' for Inactive)
    1  A    between atoms: C_1  and  C_53
    2  A    between atoms: C_8  and  N_22
    3  A    between atoms: C_8  and  C_43
    4  A    between atoms: C_10  and  C_32
    5  A    between atoms: C_11  and  N_29
    6  A    between atoms: N_29  and  C_38
    7  A    between atoms: C_33  and  C_52
                            x       y       z     vdW  Elec       q    Type
                         _______ _______ _______ _____ _____    ______ ____

>  <TORSDO>
F 7

$$$$
=
 OpenBabel10272401173D

 55 61  0  0  1  0  0  0  0  0999 V2000
  188.1080  176.8750  138.7330 O   0  0  0  0  0  0  0  0  0  0  0  0
  191.7620  174.7070  136.6150 C   0  0  0  0  0  2  0  0  0  0  0  0
  190.4970  173.4580  134.3480 O   0  0  0  0  0  1  0  0  0  0  0  0
  186.0640  173.6950  135.3030 C   0  0  0  0  0  2  0  0  0  0  0  0
  185.0530  172.5610  135.4030 C   0  0  0  0  0  2  0  0  0  0  0  0
  186.0130  173.9050  137.8450 C   0  0  1  0  0  3  0  0  0  0  0  0
  184.9430  172.8160  137.8830 C   0  0  0  0  0  2  0  0  0  0  0  0
  188.8900  174.8830  135.4020 C   0  0  0  0  0  2  0  0  0  0  0  0
  184.1320  172.7890  136.5930 C   0  0  0  0  0  2  0  0  0  0  0  0
  189.4030  176.2430  140.6630 C   0  0  0  0  0  3  0  0  0  0  0  0
  186.9000  173.7940  136.5870 C   0  0  2  0  0  3  0  0  0  0  0  0
  191.7090  177.2710  139.5110 C   0  0  0  0  0  0  0  0  0  0  0  0
  187.9850  177.3420  137.3950 C   0  0  0  0  0  2  0  0  0  0  0  0
  190.4970  177.3670  138.8270 C   0  0  0  0  0  3  0  0  0  0  0  0
  185.6900  176.2780  136.9450 C   0  0  2  0  0  3  0  0  0  0  0  0
  192.6200  174.6920  137.8720 C   0  0  0  0  0  2  0  0  0  0  0  0
  185.4060  175.2960  138.0880 C   0  0  0  0  0  2  0  0  0  0  0  0
  190.6700  173.6570  136.7370 C   0  0  0  0  0  2  0  0  0  0  0  0
  189.7530  173.6290  135.5150 C   0  0  2  0  0  3  0  0  0  0  0  0
  190.6320  176.1640  141.3170 C   0  0  0  0  0  3  0  0  0  0  0  0
  193.7810  175.6840  137.8040 C   0  0  2  0  0  3  0  0  0  0  0  0
  189.3340  176.8370  139.4020 C   0  0  0  0  0  0  0  0  0  0  0  0
  187.8790  174.9810  136.5430 C   0  0  2  0  0  3  0  0  0  0  0  0
  187.1820  176.3570  136.5510 C   0  0  2  0  0  3  0  0  0  0  0  0
  193.2980  177.1170  137.5840 C   0  0  0  0  0  2  0  0  0  0  0  0
  192.9630  177.8070  138.9030 C   0  0  0  0  0  2  0  0  0  0  0  0
  191.7510  176.6710  140.7310 N   0  0  0  0  0  0  0  0  0  0  0  0
  184.1280  177.9000  135.9860 O   0  0  0  0  0  0  0  0  0  0  0  0
  182.1260  178.1040  137.3410 C   0  0  2  0  0  3  0  0  0  0  0  0
  184.3520  177.8720  138.4730 C   0  0  0  0  0  2  0  0  0  0  0  0
  183.1020  178.7310  138.3440 C   0  0  0  0  0  2  0  0  0  0  0  0
  182.8610  177.3330  136.2370 C   0  0  0  0  0  2  0  0  0  0  0  0
  184.9870  177.6360  137.0840 C   0  0  1  0  0  3  0  0  0  0  0  0
  181.2270  179.1480  136.7600 C   0  0  0  0  0  0  0  0  0  0  0  0
  181.1370  179.3410  134.9830 S   0  0  0  0  0  1  0  0  0  0  0  0
  180.5560  179.8670  137.4850 O   0  0  0  0  0  0  0  0  0  0  0  0
  194.7820  175.2690  136.7290 C   0  0  0  0  0  2  0  0  0  0  0  0
  197.1060  170.0480  137.7850 C   0  0  0  0  0  2  0  0  0  0  0  0
  195.8050  171.8790  136.7720 C   0  0  2  0  0  3  0  0  0  0  0  0
  197.5220  175.7630  137.1340 O   0  0  0  0  0  0  0  0  0  0  0  0
  197.2040  171.4770  137.2770 C   0  0  1  0  0  3  0  0  0  0  0  0
  197.7450  172.3780  138.3870 C   0  0  0  0  0  2  0  0  0  0  0  0
  197.1140  174.6050  137.4270 C   0  0  0  0  0  0  0  0  0  0  0  0
  195.7180  174.2760  137.2450 N   0  0  0  0  0  0  0  0  0  0  0  0
  195.6280  169.7380  137.8730 C   0  0  1  0  0  3  0  0  0  0  0  0
  198.0560  173.6750  137.8860 O   0  0  0  0  0  0  0  0  0  0  0  0
  195.1600  172.9810  137.6050 C   0  0  0  0  0  2  0  0  0  0  0  0
  194.9440  170.6330  136.8390 C   0  0  2  0  0  3  0  0  0  0  0  0
  194.8350  170.0170  135.4720 C   0  0  0  0  0  0  0  0  0  0  0  0
  195.7960  170.0780  134.6580 O   0  0  0  0  0  0  0  0  0  0  0  0
  193.6550  169.3880  135.1000 O   0  0  0  0  0  1  0  0  0  0  0  0
  195.3810  168.3180  137.6560 N   0  0  0  0  0  2  0  0  0  0  0  0
  194.3280  167.9140  138.5730 C   0  0  1  0  0  3  0  0  0  0  0  0
  194.5090  168.6260  139.8960 C   0  0  0  0  0  1  0  0  0  0  0  0
  193.0340  168.2610  138.0140 N   0  0  0  0  0  1  0  0  0  0  0  0
  1 22  1  0  0  0  0
  2 18  1  0  0  0  0
  2 16  1  0  0  0  0
  4  5  1  0  0  0  0
  5  9  1  0  0  0  0
  6  7  1  6  0  0  0
  6 17  1  0  0  0  0
  8 19  1  0  0  0  0
  9  7  1  0  0  0  0
 10 20  1  0  0  0  0
 11  4  1  6  0  0  0
 11  6  1  0  0  0  0
 12 27  1  0  0  0  0
 13  1  1  0  0  0  0
 14 22  1  0  0  0  0
 14 12  2  0  0  0  0
 15 33  1  0  0  0  0
 15 17  1  1  0  0  0
 19  3  1  6  0  0  0
 19 18  1  0  0  0  0
 21 37  1  6  0  0  0
 21 16  1  0  0  0  0
 22 10  2  0  0  0  0
 23  8  1  6  0  0  0
 23 24  1  0  0  0  0
 23 11  1  0  0  0  0
 24 15  1  0  0  0  0
 24 13  1  1  0  0  0
 25 21  1  0  0  0  0
 25 26  1  0  0  0  0
 26 12  1  0  0  0  0
 27 20  2  0  0  0  0
 28 32  1  0  0  0  0
 28 33  1  0  0  0  0
 29 34  1  6  0  0  0
 29 31  1  0  0  0  0
 31 30  1  0  0  0  0
 32 29  1  0  0  0  0
 33 30  1  1  0  0  0
 34 36  2  0  0  0  0
 35 34  1  0  0  0  0
 37 44  1  0  0  0  0
 38 45  1  0  0  0  0
 39 48  1  0  0  0  0
 39 41  1  0  0  0  0
 39 47  1  1  0  0  0
 40 43  2  0  0  0  0
 41 38  1  1  0  0  0
 41 42  1  0  0  0  0
 43 46  1  0  0  0  0
 44 43  1  0  0  0  0
 44 47  1  0  0  0  0
 45 52  1  6  0  0  0
 46 42  1  0  0  0  0
 48 49  1  6  0  0  0
 48 45  1  0  0  0  0
 50 49  2  0  0  0  0
 51 49  1  0  0  0  0
 52 53  1  0  0  0  0
 53 54  1  1  0  0  0
 55 53  1  0  0  0  0
M  END
>  <MODEL>
6

>  <REMARK>
 VINA RESULT:      -2.9      2.938      5.328
  Name = 
  7 active torsions:
  status: ('A' for Active; 'I' for Inactive)
    1  A    between atoms: C_1  and  C_53
    2  A    between atoms: C_8  and  N_22
    3  A    between atoms: C_8  and  C_43
    4  A    between atoms: C_10  and  C_32
    5  A    between atoms: C_11  and  N_29
    6  A    between atoms: N_29  and  C_38
    7  A    between atoms: C_33  and  C_52
                            x       y       z     vdW  Elec       q    Type
                         _______ _______ _______ _____ _____    ______ ____

>  <TORSDO>
F 7

$$$$
