=
 OpenBabel10272413583D

 30 36  0  0  1  0  0  0  0  0999 V2000
  187.4110  177.4770  144.8340 C   0  0  0  0  0  0  0  0  0  0  0  0
  184.2250  179.3910  144.9760 C   0  0  0  0  0  3  0  0  0  0  0  0
  186.5800  178.5700  139.9440 C   0  0  0  0  0  2  0  0  0  0  0  0
  188.0070  176.4870  143.8770 C   0  0  0  0  0  2  0  0  0  0  0  0
  187.8990  177.6450  146.1550 C   0  0  0  0  0  0  0  0  0  0  0  0
  189.5280  177.2920  147.9330 C   0  0  0  0  0  3  0  0  0  0  0  0
  190.4710  176.4750  143.2530 C   0  0  1  0  0  3  0  0  0  0  0  0
  189.2140  177.2740  146.5690 C   0  0  0  0  0  0  0  0  0  0  0  0
  187.0160  178.2070  147.1230 C   0  0  0  0  0  0  0  0  0  0  0  0
  188.7380  178.3060  141.3490 C   0  0  1  0  0  3  0  0  0  0  0  0
  187.4130  179.0480  141.1310 C   0  0  0  0  0  2  0  0  0  0  0  0
  185.7970  178.7790  146.7370 C   0  0  0  0  0  3  0  0  0  0  0  0
  190.4100  177.2980  145.6560 C   0  0  0  0  0  2  0  0  0  0  0  0
  183.8480  179.3490  143.6200 C   0  0  0  0  0  3  0  0  0  0  0  0
  189.1510  178.4720  142.7450 N   0  0  1  0  0  0  0  0  0  0  0  0
  190.8690  179.8680  143.7740 C   0  0  0  0  0  1  0  0  0  0  0  0
  187.3620  178.2070  148.4740 C   0  0  0  0  0  3  0  0  0  0  0  0
  185.4010  178.7510  145.4010 C   0  0  0  0  0  0  0  0  0  0  0  0
  185.3050  177.8250  140.3720 C   0  0  0  0  0  2  0  0  0  0  0  0
  184.3270  178.6700  141.2190 C   0  0  0  0  0  2  0  0  0  0  0  0
  188.6000  177.7190  148.8810 C   0  0  0  0  0  3  0  0  0  0  0  0
  186.1830  178.0500  144.4690 C   0  0  0  0  0  0  0  0  0  0  0  0
  190.6080  176.0890  144.7450 C   0  0  0  0  0  2  0  0  0  0  0  0
  188.6310  176.7910  141.4810 C   0  0  0  0  0  2  0  0  0  0  0  0
  189.0810  177.0150  142.9160 C   0  0  2  0  0  0  0  0  0  0  0  0
  190.5700  178.8380  142.7030 C   0  0  1  0  0  3  0  0  0  0  0  0
  192.1530  177.2650  141.6130 C   0  0  0  0  0  1  0  0  0  0  0  0
  184.6220  178.6280  142.6990 C   0  0  0  0  0  0  0  0  0  0  0  0
  185.7470  177.9580  143.1560 C   0  0  0  0  0  3  0  0  0  0  0  0
  191.4290  177.5950  142.9040 C   0  0  2  0  0  3  0  0  0  0  0  0
  1  5  1  0  0  0  0
  2 18  1  0  0  0  0
  3 19  1  0  0  0  0
  3 11  1  0  0  0  0
  4  1  1  0  0  0  0
  5  8  2  0  0  0  0
  5  9  1  0  0  0  0
  6 21  2  0  0  0  0
  7 23  1  1  0  0  0
  8  6  1  0  0  0  0
  9 17  2  0  0  0  0
 10 11  1  1  0  0  0
 10 24  1  0  0  0  0
 10 15  1  0  0  0  0
 12  9  1  0  0  0  0
 13  8  1  0  0  0  0
 14  2  2  0  0  0  0
 15 25  1  0  0  0  0
 17 21  1  0  0  0  0
 18 12  2  0  0  0  0
 19 20  1  0  0  0  0
 20 28  1  0  0  0  0
 22  1  2  0  0  0  0
 22 18  1  0  0  0  0
 23 13  1  0  0  0  0
 24 25  1  0  0  0  0
 25  7  1  0  0  0  0
 25  4  1  0  0  0  0
 26 15  1  0  0  0  0
 26 30  1  0  0  0  0
 26 16  1  0  0  0  0
 27 30  1  0  0  0  0
 28 29  2  0  0  0  0
 28 14  1  0  0  0  0
 29 22  1  0  0  0  0
 30  7  1  0  0  0  0
M  END
>  <MODEL>
1

>  <REMARK>
 VINA RESULT:     -11.0      0.000      0.000
  Name = 
  0 active torsions:
  status: ('A' for Active; 'I' for Inactive)
                            x       y       z     vdW  Elec       q    Type
                         _______ _______ _______ _____ _____    ______ ____

>  <TORSDO>
F 0

$$$$
=
 OpenBabel10272413583D

 30 36  0  0  1  0  0  0  0  0999 V2000
  185.0400  178.8190  141.0990 C   0  0  0  0  0  0  0  0  0  0  0  0
  188.0970  177.6330  142.8560 C   0  0  0  0  0  3  0  0  0  0  0  0
  188.0060  177.3460  137.2480 C   0  0  0  0  0  2  0  0  0  0  0  0
  184.7750  179.5440  139.8120 C   0  0  0  0  0  2  0  0  0  0  0  0
  184.0670  178.7130  142.1250 C   0  0  0  0  0  0  0  0  0  0  0  0
  181.8070  178.9330  143.0100 C   0  0  0  0  0  3  0  0  0  0  0  0
  182.8320  178.9750  138.2760 C   0  0  1  0  0  3  0  0  0  0  0  0
  182.6630  178.8520  141.9060 C   0  0  0  0  0  0  0  0  0  0  0  0
  184.5250  178.4650  143.4520 C   0  0  0  0  0  0  0  0  0  0  0  0
  185.4420  177.3260  137.6060 C   0  0  1  0  0  3  0  0  0  0  0  0
  186.8230  176.8520  138.0770 C   0  0  0  0  0  2  0  0  0  0  0  0
  185.8590  178.1140  143.6980 C   0  0  0  0  0  3  0  0  0  0  0  0
  181.9830  178.4740  140.6180 C   0  0  0  0  0  2  0  0  0  0  0  0
  189.0020  177.5900  141.7790 C   0  0  0  0  0  3  0  0  0  0  0  0
  184.5040  177.2460  138.7290 N   0  0  1  0  0  0  0  0  0  0  0  0
  182.7230  175.6600  139.2450 C   0  0  0  0  0  1  0  0  0  0  0  0
  183.6430  178.5540  144.5290 C   0  0  0  0  0  3  0  0  0  0  0  0
  186.7750  178.0630  142.6490 C   0  0  0  0  0  0  0  0  0  0  0  0
  188.8630  178.3830  137.9910 C   0  0  0  0  0  2  0  0  0  0  0  0
  189.4960  177.8650  139.3020 C   0  0  0  0  0  2  0  0  0  0  0  0
  182.2950  178.8220  144.3110 C   0  0  0  0  0  3  0  0  0  0  0  0
  186.3730  178.4720  141.3680 C   0  0  0  0  0  0  0  0  0  0  0  0
  182.0240  179.4990  139.4870 C   0  0  0  0  0  2  0  0  0  0  0  0
  185.2740  178.8350  137.4730 C   0  0  0  0  0  2  0  0  0  0  0  0
  184.2940  178.6960  138.6280 C   0  0  2  0  0  0  0  0  0  0  0  0
  183.3020  176.5930  138.2010 C   0  0  1  0  0  3  0  0  0  0  0  0
  182.1290  177.6670  136.2930 C   0  0  0  0  0  1  0  0  0  0  0  0
  188.6000  178.0210  140.5060 C   0  0  0  0  0  0  0  0  0  0  0  0
  187.3070  178.4940  140.3420 C   0  0  0  0  0  3  0  0  0  0  0  0
  182.2770  177.6480  137.8010 C   0  0  2  0  0  3  0  0  0  0  0  0
  1 22  2  0  0  0  0
  1  5  1  0  0  0  0
  3 19  1  0  0  0  0
  3 11  1  0  0  0  0
  4  1  1  0  0  0  0
  5  9  1  0  0  0  0
  6 21  2  0  0  0  0
  7 25  1  0  0  0  0
  7 23  1  1  0  0  0
  8  5  2  0  0  0  0
  8  6  1  0  0  0  0
  9 12  1  0  0  0  0
  9 17  2  0  0  0  0
 10 24  1  1  0  0  0
 10 11  1  0  0  0  0
 10 15  1  0  0  0  0
 13  8  1  0  0  0  0
 14  2  2  0  0  0  0
 18  2  1  0  0  0  0
 18 12  2  0  0  0  0
 19 20  1  0  0  0  0
 20 28  1  0  0  0  0
 21 17  1  0  0  0  0
 22 18  1  0  0  0  0
 23 13  1  0  0  0  0
 24 25  1  0  0  0  0
 25 15  1  0  0  0  0
 25  4  1  0  0  0  0
 26 15  1  0  0  0  0
 26 16  1  0  0  0  0
 27 30  1  0  0  0  0
 28 14  1  0  0  0  0
 29 28  2  0  0  0  0
 29 22  1  0  0  0  0
 30 26  1  0  0  0  0
 30  7  1  0  0  0  0
M  END
>  <MODEL>
2

>  <REMARK>
 VINA RESULT:      -8.5      2.954      6.852
  Name = 
  0 active torsions:
  status: ('A' for Active; 'I' for Inactive)
                            x       y       z     vdW  Elec       q    Type
                         _______ _______ _______ _____ _____    ______ ____

>  <TORSDO>
F 0

$$$$
