=
 OpenBabel10272401433D

 55 58  0  0  1  0  0  0  0  0999 V2000
  190.8290  177.7940  144.5000 C   0  0  0  0  0  2  0  0  0  0  0  0
  190.0070  177.1580  142.6890 C   0  0  2  0  0  0  0  0  0  0  0  0
  191.5480  175.6940  143.9750 O   0  0  0  0  0  1  0  0  0  0  0  0
  190.4570  178.5240  143.2410 C   0  0  0  0  0  2  0  0  0  0  0  0
  190.3530  176.4490  144.0170 C   0  0  1  0  0  3  0  0  0  0  0  0
  190.4900  176.4580  141.3390 C   0  0  0  0  0  2  0  0  0  0  0  0
  191.4130  177.3670  140.4410 C   0  0  0  0  0  2  0  0  0  0  0  0
  191.4150  176.6860  139.0380 C   0  0  0  0  0  2  0  0  0  0  0  0
  193.6430  176.6780  138.7320 O   0  0  0  0  0  0  0  0  0  0  0  0
  193.8170  175.3800  138.2000 C   0  0  1  0  0  3  0  0  0  0  0  0
  192.4610  176.8580  138.0410 N   0  0  0  0  0  0  0  0  0  0  0  0
  192.5770  175.5810  137.3780 C   0  0  0  0  0  2  0  0  0  0  0  0
  194.9860  175.3420  137.3820 O   0  0  0  0  0  0  0  0  0  0  0  0
  195.8750  174.2530  137.5970 C   0  0  0  0  0  0  0  0  0  0  0  0
  195.9530  173.7880  138.7340 O   0  0  0  0  0  0  0  0  0  0  0  0
  196.7570  173.6430  136.4910 C   0  0  2  0  0  3  0  0  0  0  0  0
  198.3050  175.4400  136.2230 O   0  0  0  0  0  1  0  0  0  0  0  0
  197.3800  174.6640  135.5260 C   0  0  0  0  0  2  0  0  0  0  0  0
  194.5690  172.5990  136.1950 O   0  0  0  0  0  1  0  0  0  0  0  0
  195.9060  172.5740  135.7670 C   0  0  2  0  0  3  0  0  0  0  0  0
  196.4290  171.1230  135.7790 C   0  0  1  0  0  3  0  0  0  0  0  0
  195.4140  170.1350  135.8130 O   0  0  0  0  0  0  0  0  0  0  0  0
  195.7240  169.1750  136.7920 C   0  0  0  0  0  2  0  0  0  0  0  0
  194.7500  169.1770  137.8990 C   0  0  0  0  0  0  0  0  0  0  0  0
  194.9230  170.0080  139.0070 O   0  0  0  0  0  1  0  0  0  0  0  0
  193.7180  168.4600  137.8230 O   0  0  0  0  0  0  0  0  0  0  0  0
  197.6760  170.8840  134.8170 C   0  0  0  0  0  2  0  0  0  0  0  0
  199.0750  170.8740  137.2260 C   0  0  0  0  0  1  0  0  0  0  0  0
  199.1290  170.0770  135.5890 S   0  0  0  0  0  0  0  0  0  0  0  0
  188.4850  177.1400  142.7040 C   0  0  0  0  0  2  0  0  0  0  0  0
  187.8990  177.2690  141.2660 C   0  0  0  0  0  2  0  0  0  0  0  0
  187.3240  178.7370  140.7480 C   0  0  2  0  0  3  0  0  0  0  0  0
  185.2310  178.6210  142.6630 C   0  0  0  0  0  0  0  0  0  0  0  0
  184.9060  177.3600  142.5720 O   0  0  0  0  0  0  0  0  0  0  0  0
  186.3250  179.1210  141.8020 N   0  0  0  0  0  2  0  0  0  0  0  0
  184.4610  179.6910  143.5440 C   0  0  0  0  0  2  0  0  0  0  0  0
  184.4130  178.2170  146.6310 O   0  0  0  0  0  0  0  0  0  0  0  0
  185.5920  177.8400  146.1310 O   0  0  0  0  0  0  0  0  0  0  0  0
  186.0150  178.8520  145.2530 C   0  0  0  0  0  2  0  0  0  0  0  0
  184.8450  179.7790  144.9820 C   0  0  0  0  0  3  0  0  0  0  0  0
  183.8050  178.9810  145.6190 C   0  0  0  0  0  2  0  0  0  0  0  0
  186.6740  178.8550  139.2350 C   0  0  1  0  0  3  0  0  0  0  0  0
  186.9750  176.6690  138.0370 N   0  0  0  0  0  2  0  0  0  0  0  0
  188.5710  176.3990  136.2060 C   0  0  0  0  0  2  0  0  0  0  0  0
  188.4320  178.6270  137.2790 C   0  0  0  0  0  0  0  0  0  0  0  0
  189.1890  177.8020  136.2580 C   0  0  0  0  0  2  0  0  0  0  0  0
  188.1620  175.9400  137.5970 C   0  0  0  0  0  2  0  0  0  0  0  0
  187.3250  178.1160  138.1170 N   0  0  0  0  0  0  0  0  0  0  0  0
  189.1140  179.6750  137.6370 O   0  0  0  0  0  0  0  0  0  0  0  0
  184.5810  179.7920  139.2860 O   0  0  0  0  0  0  0  0  0  0  0  0
  184.4760  177.3500  139.1330 N   0  0  0  0  0  2  0  0  0  0  0  0
  185.1810  178.6650  139.2060 C   0  0  0  0  0  0  0  0  0  0  0  0
  183.0430  177.5030  139.1970 C   0  0  1  0  0  3  0  0  0  0  0  0
  182.5130  177.9630  138.0000 O   0  0  0  0  0  1  0  0  0  0  0  0
  182.3420  176.3520  139.8060 C   0  0  0  0  0  1  0  0  0  0  0  0
  2  6  1  6  0  0  0
  2 30  1  0  0  0  0
  2  4  1  0  0  0  0
  2  5  1  0  0  0  0
  4  1  1  0  0  0  0
  5  3  1  6  0  0  0
  5  1  1  0  0  0  0
  7  6  1  0  0  0  0
  8  7  1  0  0  0  0
 10 13  1  6  0  0  0
 10  9  1  0  0  0  0
 11  9  1  0  0  0  0
 11  8  1  0  0  0  0
 12 11  1  0  0  0  0
 12 10  1  0  0  0  0
 13 14  1  0  0  0  0
 14 15  2  0  0  0  0
 16 18  1  6  0  0  0
 16 14  1  0  0  0  0
 18 17  1  0  0  0  0
 20 21  1  0  0  0  0
 20 19  1  1  0  0  0
 20 16  1  0  0  0  0
 21 27  1  6  0  0  0
 21 22  1  0  0  0  0
 22 23  1  0  0  0  0
 23 24  1  0  0  0  0
 24 25  1  0  0  0  0
 26 24  2  0  0  0  0
 27 29  1  0  0  0  0
 29 28  1  0  0  0  0
 31 30  1  0  0  0  0
 32 31  1  1  0  0  0
 32 35  1  0  0  0  0
 33 36  1  0  0  0  0
 34 33  2  0  0  0  0
 35 33  1  0  0  0  0
 36 40  1  0  0  0  0
 38 37  1  0  0  0  0
 39 38  1  0  0  0  0
 40 39  1  0  0  0  0
 40 41  1  0  0  0  0
 41 37  1  0  0  0  0
 42 52  1  1  0  0  0
 42 32  1  0  0  0  0
 43 48  1  0  0  0  0
 44 46  1  0  0  0  0
 44 47  1  0  0  0  0
 45 49  2  0  0  0  0
 45 48  1  0  0  0  0
 46 45  1  0  0  0  0
 47 43  1  0  0  0  0
 48 42  1  0  0  0  0
 51 53  1  0  0  0  0
 51 52  1  0  0  0  0
 52 50  2  0  0  0  0
 53 55  1  6  0  0  0
 54 53  1  0  0  0  0
M  END
>  <MODEL>
1

>  <REMARK>
 VINA RESULT:      -5.4      0.000      0.000
  Name = 
  25 active torsions:
  status: ('A' for Active; 'I' for Inactive)
    1  A    between atoms: C_1  and  C_29
    2  A    between atoms: C_2  and  C_28
    3  A    between atoms: C_2  and  C_31
    4  A    between atoms: C_3  and  S_25
    5  A    between atoms: C_3  and  C_38
    6  A    between atoms: C_4  and  N_40
    7  A    between atoms: C_6  and  C_14
    8  A    between atoms: C_6  and  C_20
    9  A    between atoms: C_6  and  C_53
   10  A    between atoms: O_7  and  C_20
   11  A    between atoms: O_7  and  C_22
   12  A    between atoms: C_13  and  C_48
   13  A    between atoms: C_14  and  C_38
   14  A    between atoms: O_21  and  C_29
   15  A    between atoms: O_21  and  C_38
   16  A    between atoms: N_26  and  C_49
   17  A    between atoms: C_27  and  C_31
   18  A    between atoms: C_27  and  C_54
   19  A    between atoms: C_28  and  C_33
   20  A    between atoms: C_33  and  C_49
   21  A    between atoms: C_33  and  N_52
   22  A    between atoms: N_35  and  C_51
   23  A    between atoms: C_39  and  C_48
   24  A    between atoms: C_45  and  C_49
   25  A    between atoms: C_51  and  C_54
                            x       y       z     vdW  Elec       q    Type
                         _______ _______ _______ _____ _____    ______ ____

>  <TORSDO>
F 25

$$$$
=
 OpenBabel10272401433D

 55 58  0  0  1  0  0  0  0  0999 V2000
  190.7060  177.6170  144.8230 C   0  0  0  0  0  2  0  0  0  0  0  0
  190.0920  177.1150  142.8910 C   0  0  2  0  0  0  0  0  0  0  0  0
  191.7250  175.7020  144.1200 O   0  0  0  0  0  1  0  0  0  0  0  0
  190.3240  178.4460  143.6300 C   0  0  0  0  0  2  0  0  0  0  0  0
  190.4410  176.2940  144.1530 C   0  0  1  0  0  3  0  0  0  0  0  0
  190.7480  176.6510  141.5130 C   0  0  0  0  0  2  0  0  0  0  0  0
  191.8870  177.6080  140.9920 C   0  0  0  0  0  2  0  0  0  0  0  0
  192.0780  177.2340  139.4890 C   0  0  0  0  0  2  0  0  0  0  0  0
  194.2340  176.6180  139.6520 O   0  0  0  0  0  0  0  0  0  0  0  0
  194.2130  175.4300  138.8860 C   0  0  1  0  0  3  0  0  0  0  0  0
  193.3560  177.2490  138.7940 N   0  0  0  0  0  0  0  0  0  0  0  0
  193.3190  176.1200  137.8960 C   0  0  0  0  0  2  0  0  0  0  0  0
  195.5070  175.1820  138.3380 O   0  0  0  0  0  0  0  0  0  0  0  0
  195.8440  173.8200  138.1030 C   0  0  0  0  0  0  0  0  0  0  0  0
  195.0810  172.9550  138.5320 O   0  0  0  0  0  0  0  0  0  0  0  0
  197.1210  173.3750  137.3640 C   0  0  2  0  0  3  0  0  0  0  0  0
  198.6880  174.0340  135.6880 O   0  0  0  0  0  1  0  0  0  0  0  0
  197.9560  174.5210  136.7700 C   0  0  0  0  0  2  0  0  0  0  0  0
  195.4510  172.6500  135.7360 O   0  0  0  0  0  1  0  0  0  0  0  0
  196.6940  172.3320  136.3050 C   0  0  2  0  0  3  0  0  0  0  0  0
  196.7100  170.8480  136.7240 C   0  0  1  0  0  3  0  0  0  0  0  0
  197.6730  170.5300  137.7140 O   0  0  0  0  0  0  0  0  0  0  0  0
  198.8870  170.1810  137.0960 C   0  0  0  0  0  2  0  0  0  0  0  0
  198.9890  168.7300  136.8550 C   0  0  0  0  0  0  0  0  0  0  0  0
  199.3910  168.2350  135.6130 O   0  0  0  0  0  0  0  0  0  0  0  0
  198.7640  167.9240  137.7950 O   0  0  0  0  0  1  0  0  0  0  0  0
  195.2600  170.2020  136.8530 C   0  0  0  0  0  2  0  0  0  0  0  0
  193.3930  168.2510  136.1720 C   0  0  0  0  0  1  0  0  0  0  0  0
  195.1660  168.3970  136.5560 S   0  0  0  0  0  0  0  0  0  0  0  0
  188.5880  176.9100  142.7830 C   0  0  0  0  0  2  0  0  0  0  0  0
  188.0890  177.1100  141.3210 C   0  0  0  0  0  2  0  0  0  0  0  0
  187.6140  178.6200  140.8210 C   0  0  2  0  0  3  0  0  0  0  0  0
  185.5390  178.6270  142.7580 C   0  0  0  0  0  0  0  0  0  0  0  0
  185.1400  177.3870  142.6720 O   0  0  0  0  0  0  0  0  0  0  0  0
  186.6510  179.0610  141.8850 N   0  0  0  0  0  2  0  0  0  0  0  0
  184.8430  179.7410  143.6470 C   0  0  0  0  0  2  0  0  0  0  0  0
  184.4600  178.0910  146.6190 O   0  0  0  0  0  0  0  0  0  0  0  0
  185.6390  177.6480  146.1740 O   0  0  0  0  0  0  0  0  0  0  0  0
  186.2010  178.6740  145.3960 C   0  0  0  0  0  2  0  0  0  0  0  0
  185.1290  179.7090  145.1090 C   0  0  0  0  0  3  0  0  0  0  0  0
  183.9870  178.9620  145.6220 C   0  0  0  0  0  2  0  0  0  0  0  0
  186.9650  178.7970  139.3130 C   0  0  1  0  0  3  0  0  0  0  0  0
  187.6060  176.5970  138.2870 N   0  0  0  0  0  2  0  0  0  0  0  0
  188.9270  176.4550  136.2370 C   0  0  0  0  0  2  0  0  0  0  0  0
  188.4120  178.7150  137.1080 C   0  0  0  0  0  0  0  0  0  0  0  0
  189.1860  177.9550  136.0500 C   0  0  0  0  0  2  0  0  0  0  0  0
  188.8550  176.1020  137.7150 C   0  0  0  0  0  2  0  0  0  0  0  0
  187.6010  178.0830  138.1710 N   0  0  0  0  0  0  0  0  0  0  0  0
  188.8650  179.9280  137.2420 O   0  0  0  0  0  0  0  0  0  0  0  0
  185.1480  177.5110  138.7610 O   0  0  0  0  0  0  0  0  0  0  0  0
  184.4770  179.6480  139.7500 N   0  0  0  0  0  2  0  0  0  0  0  0
  185.4680  178.6350  139.2810 C   0  0  0  0  0  0  0  0  0  0  0  0
  183.1190  179.2210  139.5160 C   0  0  1  0  0  3  0  0  0  0  0  0
  182.4510  178.9300  140.6970 O   0  0  0  0  0  1  0  0  0  0  0  0
  182.3790  180.0690  138.5560 C   0  0  0  0  0  1  0  0  0  0  0  0
  2  6  1  6  0  0  0
  2  4  1  0  0  0  0
  2  5  1  0  0  0  0
  4  1  1  0  0  0  0
  5  3  1  6  0  0  0
  5  1  1  0  0  0  0
  7  6  1  0  0  0  0
  8  7  1  0  0  0  0
 10 13  1  6  0  0  0
 10  9  1  0  0  0  0
 11  8  1  0  0  0  0
 11  9  1  0  0  0  0
 12 11  1  0  0  0  0
 12 10  1  0  0  0  0
 14 13  1  0  0  0  0
 14 15  2  0  0  0  0
 16 18  1  6  0  0  0
 16 14  1  0  0  0  0
 17 18  1  0  0  0  0
 20 19  1  1  0  0  0
 20 21  1  0  0  0  0
 20 16  1  0  0  0  0
 21 27  1  1  0  0  0
 21 22  1  0  0  0  0
 23 22  1  0  0  0  0
 24 23  1  0  0  0  0
 24 26  1  0  0  0  0
 25 24  2  0  0  0  0
 28 29  1  0  0  0  0
 29 27  1  0  0  0  0
 30  2  1  0  0  0  0
 31 30  1  0  0  0  0
 32 31  1  1  0  0  0
 32 35  1  0  0  0  0
 33 36  1  0  0  0  0
 34 33  2  0  0  0  0
 35 33  1  0  0  0  0
 36 40  1  0  0  0  0
 38 37  1  0  0  0  0
 39 38  1  0  0  0  0
 40 39  1  0  0  0  0
 40 41  1  0  0  0  0
 41 37  1  0  0  0  0
 42 52  1  1  0  0  0
 42 32  1  0  0  0  0
 44 47  1  0  0  0  0
 45 49  2  0  0  0  0
 45 48  1  0  0  0  0
 46 44  1  0  0  0  0
 46 45  1  0  0  0  0
 47 43  1  0  0  0  0
 48 43  1  0  0  0  0
 48 42  1  0  0  0  0
 50 52  2  0  0  0  0
 52 51  1  0  0  0  0
 53 55  1  1  0  0  0
 53 51  1  0  0  0  0
 53 54  1  0  0  0  0
M  END
>  <MODEL>
2

>  <REMARK>
 VINA RESULT:      -4.7      1.536      2.039
  Name = 
  25 active torsions:
  status: ('A' for Active; 'I' for Inactive)
    1  A    between atoms: C_1  and  C_29
    2  A    between atoms: C_2  and  C_28
    3  A    between atoms: C_2  and  C_31
    4  A    between atoms: C_3  and  S_25
    5  A    between atoms: C_3  and  C_38
    6  A    between atoms: C_4  and  N_40
    7  A    between atoms: C_6  and  C_14
    8  A    between atoms: C_6  and  C_20
    9  A    between atoms: C_6  and  C_53
   10  A    between atoms: O_7  and  C_20
   11  A    between atoms: O_7  and  C_22
   12  A    between atoms: C_13  and  C_48
   13  A    between atoms: C_14  and  C_38
   14  A    between atoms: O_21  and  C_29
   15  A    between atoms: O_21  and  C_38
   16  A    between atoms: N_26  and  C_49
   17  A    between atoms: C_27  and  C_31
   18  A    between atoms: C_27  and  C_54
   19  A    between atoms: C_28  and  C_33
   20  A    between atoms: C_33  and  C_49
   21  A    between atoms: C_33  and  N_52
   22  A    between atoms: N_35  and  C_51
   23  A    between atoms: C_39  and  C_48
   24  A    between atoms: C_45  and  C_49
   25  A    between atoms: C_51  and  C_54
                            x       y       z     vdW  Elec       q    Type
                         _______ _______ _______ _____ _____    ______ ____

>  <TORSDO>
F 25

$$$$
=
 OpenBabel10272401433D

 55 58  0  0  1  0  0  0  0  0999 V2000
  183.9090  178.9590  139.7400 C   0  0  0  0  0  2  0  0  0  0  0  0
  182.2350  177.9320  139.0300 C   0  0  2  0  0  0  0  0  0  0  0  0
  182.1520  180.3810  139.4390 O   0  0  0  0  0  1  0  0  0  0  0  0
  183.3910  177.5690  139.9810 C   0  0  0  0  0  2  0  0  0  0  0  0
  182.8240  179.3350  138.7650 C   0  0  1  0  0  3  0  0  0  0  0  0
  180.6720  177.8420  139.3350 C   0  0  0  0  0  2  0  0  0  0  0  0
  180.1890  178.7990  140.4910 C   0  0  0  0  0  2  0  0  0  0  0  0
  180.1240  177.9010  141.7650 C   0  0  0  0  0  2  0  0  0  0  0  0
  181.9210  177.6410  143.0920 O   0  0  0  0  0  0  0  0  0  0  0  0
  182.5990  178.8530  142.8330 C   0  0  1  0  0  3  0  0  0  0  0  0
  180.6880  178.2630  143.0560 N   0  0  0  0  0  0  0  0  0  0  0  0
  181.2790  179.5670  142.8670 C   0  0  0  0  0  2  0  0  0  0  0  0
  183.4120  179.2040  143.9530 O   0  0  0  0  0  0  0  0  0  0  0  0
  184.7960  178.8890  143.8550 C   0  0  0  0  0  0  0  0  0  0  0  0
  185.4120  179.2980  142.8710 O   0  0  0  0  0  0  0  0  0  0  0  0
  185.5530  178.0480  144.9000 C   0  0  2  0  0  3  0  0  0  0  0  0
  184.5780  179.0920  146.8130 O   0  0  0  0  0  1  0  0  0  0  0  0
  185.8050  178.7570  146.2410 C   0  0  0  0  0  2  0  0  0  0  0  0
  186.8670  176.1550  144.0920 O   0  0  0  0  0  1  0  0  0  0  0  0
  186.8550  177.5520  144.2290 C   0  0  2  0  0  3  0  0  0  0  0  0
  188.1910  178.0270  144.8360 C   0  0  1  0  0  3  0  0  0  0  0  0
  188.7140  177.1750  145.8390 O   0  0  0  0  0  0  0  0  0  0  0  0
  189.8880  176.5590  145.3700 C   0  0  0  0  0  2  0  0  0  0  0  0
  191.0790  176.9840  146.1280 C   0  0  0  0  0  0  0  0  0  0  0  0
  191.1450  176.8200  147.5130 O   0  0  0  0  0  1  0  0  0  0  0  0
  192.0730  177.4530  145.5160 O   0  0  0  0  0  0  0  0  0  0  0  0
  189.2020  178.6320  143.7640 C   0  0  0  0  0  2  0  0  0  0  0  0
  190.0850  176.7650  141.8950 C   0  0  0  0  0  1  0  0  0  0  0  0
  188.9000  178.1410  142.0250 S   0  0  0  0  0  0  0  0  0  0  0  0
  182.4930  177.2220  137.7090 C   0  0  0  0  0  2  0  0  0  0  0  0
  182.8620  175.7240  137.9290 C   0  0  0  0  0  2  0  0  0  0  0  0
  184.2960  175.1410  137.3280 C   0  0  2  0  0  3  0  0  0  0  0  0
  185.9890  177.3390  136.7240 C   0  0  0  0  0  0  0  0  0  0  0  0
  185.8680  177.3720  135.4250 O   0  0  0  0  0  0  0  0  0  0  0  0
  185.2380  176.3020  137.4660 N   0  0  0  0  0  2  0  0  0  0  0  0
  186.9740  178.2550  137.5640 C   0  0  0  0  0  2  0  0  0  0  0  0
  190.1820  177.9670  138.7170 O   0  0  0  0  0  0  0  0  0  0  0  0
  189.8370  176.7040  138.4540 O   0  0  0  0  0  0  0  0  0  0  0  0
  188.9010  176.7370  137.4070 C   0  0  0  0  0  2  0  0  0  0  0  0
  188.4240  178.1660  137.2290 C   0  0  0  0  0  3  0  0  0  0  0  0
  189.0420  178.7350  138.4190 C   0  0  0  0  0  2  0  0  0  0  0  0
  184.3300  174.5190  135.8000 C   0  0  1  0  0  3  0  0  0  0  0  0
  184.4860  172.2190  134.8050 N   0  0  0  0  0  2  0  0  0  0  0  0
  186.4790  170.8260  135.0560 C   0  0  0  0  0  2  0  0  0  0  0  0
  186.5050  173.0590  136.1270 C   0  0  0  0  0  0  0  0  0  0  0  0
  187.2760  171.7630  135.9720 C   0  0  0  0  0  2  0  0  0  0  0  0
  184.9870  170.9490  135.3270 C   0  0  0  0  0  2  0  0  0  0  0  0
  185.1770  173.3220  135.5320 N   0  0  0  0  0  0  0  0  0  0  0  0
  186.9240  173.7360  137.1570 O   0  0  0  0  0  0  0  0  0  0  0  0
  182.6890  175.3520  134.4300 O   0  0  0  0  0  0  0  0  0  0  0  0
  182.0290  173.2210  135.4400 N   0  0  0  0  0  2  0  0  0  0  0  0
  182.9640  174.3570  135.1860 C   0  0  0  0  0  0  0  0  0  0  0  0
  180.7710  173.3970  134.7590 C   0  0  1  0  0  3  0  0  0  0  0  0
  180.0700  172.2060  134.6370 O   0  0  0  0  0  1  0  0  0  0  0  0
  179.9840  174.5550  135.2390 C   0  0  0  0  0  1  0  0  0  0  0  0
  1  4  1  0  0  0  0
  2 30  1  6  0  0  0
  2  6  1  0  0  0  0
  2  4  1  0  0  0  0
  5  2  1  0  0  0  0
  5  3  1  1  0  0  0
  5  1  1  0  0  0  0
  6  7  1  0  0  0  0
  7  8  1  0  0  0  0
  8 11  1  0  0  0  0
 10 12  1  0  0  0  0
 10  9  1  0  0  0  0
 10 13  1  1  0  0  0
 11  9  1  0  0  0  0
 12 11  1  0  0  0  0
 14 13  1  0  0  0  0
 14 16  1  0  0  0  0
 15 14  2  0  0  0  0
 16 18  1  1  0  0  0
 18 17  1  0  0  0  0
 20 19  1  1  0  0  0
 20 21  1  0  0  0  0
 20 16  1  0  0  0  0
 21 27  1  6  0  0  0
 21 22  1  0  0  0  0
 23 22  1  0  0  0  0
 23 24  1  0  0  0  0
 24 25  1  0  0  0  0
 26 24  2  0  0  0  0
 28 29  1  0  0  0  0
 29 27  1  0  0  0  0
 30 31  1  0  0  0  0
 32 35  1  0  0  0  0
 32 31  1  6  0  0  0
 33 35  1  0  0  0  0
 33 36  1  0  0  0  0
 34 33  2  0  0  0  0
 38 37  1  0  0  0  0
 39 38  1  0  0  0  0
 40 39  1  0  0  0  0
 40 36  1  0  0  0  0
 40 41  1  0  0  0  0
 41 37  1  0  0  0  0
 42 52  1  1  0  0  0
 42 32  1  0  0  0  0
 43 47  1  0  0  0  0
 43 48  1  0  0  0  0
 44 47  1  0  0  0  0
 44 46  1  0  0  0  0
 45 49  2  0  0  0  0
 46 45  1  0  0  0  0
 48 42  1  0  0  0  0
 48 45  1  0  0  0  0
 50 52  2  0  0  0  0
 52 51  1  0  0  0  0
 53 55  1  1  0  0  0
 53 51  1  0  0  0  0
 54 53  1  0  0  0  0
M  END
>  <MODEL>
3

>  <REMARK>
 VINA RESULT:      -3.6      5.453     10.333
  Name = 
  25 active torsions:
  status: ('A' for Active; 'I' for Inactive)
    1  A    between atoms: C_1  and  C_29
    2  A    between atoms: C_2  and  C_28
    3  A    between atoms: C_2  and  C_31
    4  A    between atoms: C_3  and  S_25
    5  A    between atoms: C_3  and  C_38
    6  A    between atoms: C_4  and  N_40
    7  A    between atoms: C_6  and  C_14
    8  A    between atoms: C_6  and  C_20
    9  A    between atoms: C_6  and  C_53
   10  A    between atoms: O_7  and  C_20
   11  A    between atoms: O_7  and  C_22
   12  A    between atoms: C_13  and  C_48
   13  A    between atoms: C_14  and  C_38
   14  A    between atoms: O_21  and  C_29
   15  A    between atoms: O_21  and  C_38
   16  A    between atoms: N_26  and  C_49
   17  A    between atoms: C_27  and  C_31
   18  A    between atoms: C_27  and  C_54
   19  A    between atoms: C_28  and  C_33
   20  A    between atoms: C_33  and  C_49
   21  A    between atoms: C_33  and  N_52
   22  A    between atoms: N_35  and  C_51
   23  A    between atoms: C_39  and  C_48
   24  A    between atoms: C_45  and  C_49
   25  A    between atoms: C_51  and  C_54
                            x       y       z     vdW  Elec       q    Type
                         _______ _______ _______ _____ _____    ______ ____

>  <TORSDO>
F 25

$$$$
=
 OpenBabel10272401433D

 55 58  0  0  1  0  0  0  0  0999 V2000
  190.4850  176.5440  140.9750 C   0  0  0  0  0  2  0  0  0  0  0  0
  190.3050  176.8910  138.9240 C   0  0  2  0  0  0  0  0  0  0  0  0
  192.0260  178.0710  140.2730 O   0  0  0  0  0  1  0  0  0  0  0  0
  189.3040  176.5630  140.0470 C   0  0  0  0  0  2  0  0  0  0  0  0
  191.5020  176.8120  139.8970 C   0  0  1  0  0  3  0  0  0  0  0  0
  190.2580  178.1330  137.9230 C   0  0  0  0  0  2  0  0  0  0  0  0
  189.5180  177.8330  136.5640 C   0  0  0  0  0  2  0  0  0  0  0  0
  188.0100  178.1100  136.8500 C   0  0  0  0  0  2  0  0  0  0  0  0
  186.6280  177.6250  138.5560 O   0  0  0  0  0  0  0  0  0  0  0  0
  185.3920  178.0200  137.9960 C   0  0  1  0  0  3  0  0  0  0  0  0
  187.0710  177.1180  137.3510 N   0  0  0  0  0  0  0  0  0  0  0  0
  185.8180  177.4060  136.6940 C   0  0  0  0  0  2  0  0  0  0  0  0
  184.3280  177.2840  138.5980 O   0  0  0  0  0  0  0  0  0  0  0  0
  183.2660  178.0480  139.1570 C   0  0  0  0  0  0  0  0  0  0  0  0
  182.5330  178.6670  138.3870 O   0  0  0  0  0  0  0  0  0  0  0  0
  183.0020  178.1570  140.6720 C   0  0  2  0  0  3  0  0  0  0  0  0
  180.7610  177.3530  140.5010 O   0  0  0  0  0  1  0  0  0  0  0  0
  181.5300  178.3750  141.0560 C   0  0  0  0  0  2  0  0  0  0  0  0
  184.7550  179.7930  140.2100 O   0  0  0  0  0  1  0  0  0  0  0  0
  183.9360  179.2610  141.2180 C   0  0  2  0  0  3  0  0  0  0  0  0
  184.7900  178.9200  142.4570 C   0  0  1  0  0  3  0  0  0  0  0  0
  186.1590  178.6870  142.1770 O   0  0  0  0  0  0  0  0  0  0  0  0
  186.4990  177.3750  142.5540 C   0  0  0  0  0  2  0  0  0  0  0  0
  187.7520  177.3290  143.3300 C   0  0  0  0  0  0  0  0  0  0  0  0
  188.3450  176.1110  143.6660 O   0  0  0  0  0  1  0  0  0  0  0  0
  188.3280  178.4020  143.6490 O   0  0  0  0  0  0  0  0  0  0  0  0
  184.4230  179.7820  143.7450 C   0  0  0  0  0  2  0  0  0  0  0  0
  185.5780  179.0300  146.1650 C   0  0  0  0  0  1  0  0  0  0  0  0
  184.0170  178.8230  145.2510 S   0  0  0  0  0  0  0  0  0  0  0  0
  190.4860  175.6300  138.0920 C   0  0  0  0  0  2  0  0  0  0  0  0
  191.7000  175.7550  137.1230 C   0  0  0  0  0  2  0  0  0  0  0  0
  191.6220  175.0490  135.6230 C   0  0  2  0  0  3  0  0  0  0  0  0
  188.9020  174.3750  135.1680 C   0  0  0  0  0  0  0  0  0  0  0  0
  188.5320  175.3920  134.4390 O   0  0  0  0  0  0  0  0  0  0  0  0
  190.3050  174.3280  135.6360 N   0  0  0  0  0  2  0  0  0  0  0  0
  187.9300  173.2360  135.6920 C   0  0  0  0  0  2  0  0  0  0  0  0
  184.7390  172.0330  135.9580 O   0  0  0  0  0  0  0  0  0  0  0  0
  185.0140  172.4450  137.1980 O   0  0  0  0  0  0  0  0  0  0  0  0
  185.9270  173.5070  137.0900 C   0  0  0  0  0  2  0  0  0  0  0  0
  186.4710  173.5380  135.6740 C   0  0  0  0  0  3  0  0  0  0  0  0
  185.9080  172.2740  135.2160 C   0  0  0  0  0  2  0  0  0  0  0  0
  192.8470  174.0520  135.1420 C   0  0  1  0  0  3  0  0  0  0  0  0
  195.1280  174.7360  134.3460 N   0  0  0  0  0  2  0  0  0  0  0  0
  197.0300  174.9360  135.8670 C   0  0  0  0  0  2  0  0  0  0  0  0
  194.8640  174.2280  136.8360 C   0  0  0  0  0  0  0  0  0  0  0  0
  196.3330  174.4440  137.1410 C   0  0  0  0  0  2  0  0  0  0  0  0
  196.4680  174.2340  134.6400 C   0  0  0  0  0  2  0  0  0  0  0  0
  194.2470  174.4100  135.5040 N   0  0  0  0  0  0  0  0  0  0  0  0
  194.3010  173.4770  137.7380 O   0  0  0  0  0  0  0  0  0  0  0  0
  191.5810  172.4610  136.2040 O   0  0  0  0  0  0  0  0  0  0  0  0
  193.3780  171.4520  134.8830 N   0  0  0  0  0  2  0  0  0  0  0  0
  192.5790  172.5950  135.4160 C   0  0  0  0  0  0  0  0  0  0  0  0
  192.9100  170.1860  135.3890 C   0  0  1  0  0  3  0  0  0  0  0  0
  191.7550  169.7610  134.7480 O   0  0  0  0  0  1  0  0  0  0  0  0
  193.9720  169.1660  135.5340 C   0  0  0  0  0  1  0  0  0  0  0  0
  2  6  1  6  0  0  0
  2  5  1  0  0  0  0
  2  4  1  0  0  0  0
  4  1  1  0  0  0  0
  5  3  1  1  0  0  0
  5  1  1  0  0  0  0
  7  8  1  0  0  0  0
  7  6  1  0  0  0  0
  8 11  1  0  0  0  0
 10  9  1  0  0  0  0
 10 13  1  1  0  0  0
 11  9  1  0  0  0  0
 12 11  1  0  0  0  0
 12 10  1  0  0  0  0
 13 14  1  0  0  0  0
 14 16  1  0  0  0  0
 15 14  2  0  0  0  0
 16 18  1  6  0  0  0
 16 20  1  0  0  0  0
 17 18  1  0  0  0  0
 20 19  1  6  0  0  0
 20 21  1  0  0  0  0
 21 27  1  1  0  0  0
 22 21  1  0  0  0  0
 22 23  1  0  0  0  0
 23 24  1  0  0  0  0
 24 26  2  0  0  0  0
 24 25  1  0  0  0  0
 27 29  1  0  0  0  0
 29 28  1  0  0  0  0
 30  2  1  0  0  0  0
 31 30  1  0  0  0  0
 32 35  1  0  0  0  0
 32 31  1  1  0  0  0
 33 35  1  0  0  0  0
 33 36  1  0  0  0  0
 34 33  2  0  0  0  0
 37 38  1  0  0  0  0
 39 38  1  0  0  0  0
 40 36  1  0  0  0  0
 40 39  1  0  0  0  0
 41 40  1  0  0  0  0
 41 37  1  0  0  0  0
 42 52  1  1  0  0  0
 42 48  1  0  0  0  0
 42 32  1  0  0  0  0
 43 47  1  0  0  0  0
 43 48  1  0  0  0  0
 44 46  1  0  0  0  0
 45 46  1  0  0  0  0
 45 49  2  0  0  0  0
 47 44  1  0  0  0  0
 48 45  1  0  0  0  0
 51 53  1  0  0  0  0
 51 52  1  0  0  0  0
 52 50  2  0  0  0  0
 53 55  1  6  0  0  0
 54 53  1  0  0  0  0
M  END
>  <MODEL>
4

>  <REMARK>
 VINA RESULT:      -3.5      3.914     11.081
  Name = 
  25 active torsions:
  status: ('A' for Active; 'I' for Inactive)
    1  A    between atoms: C_1  and  C_29
    2  A    between atoms: C_2  and  C_28
    3  A    between atoms: C_2  and  C_31
    4  A    between atoms: C_3  and  S_25
    5  A    between atoms: C_3  and  C_38
    6  A    between atoms: C_4  and  N_40
    7  A    between atoms: C_6  and  C_14
    8  A    between atoms: C_6  and  C_20
    9  A    between atoms: C_6  and  C_53
   10  A    between atoms: O_7  and  C_20
   11  A    between atoms: O_7  and  C_22
   12  A    between atoms: C_13  and  C_48
   13  A    between atoms: C_14  and  C_38
   14  A    between atoms: O_21  and  C_29
   15  A    between atoms: O_21  and  C_38
   16  A    between atoms: N_26  and  C_49
   17  A    between atoms: C_27  and  C_31
   18  A    between atoms: C_27  and  C_54
   19  A    between atoms: C_28  and  C_33
   20  A    between atoms: C_33  and  C_49
   21  A    between atoms: C_33  and  N_52
   22  A    between atoms: N_35  and  C_51
   23  A    between atoms: C_39  and  C_48
   24  A    between atoms: C_45  and  C_49
   25  A    between atoms: C_51  and  C_54
                            x       y       z     vdW  Elec       q    Type
                         _______ _______ _______ _____ _____    ______ ____

>  <TORSDO>
F 25

$$$$
=
 OpenBabel10272401433D

 55 58  0  0  1  0  0  0  0  0999 V2000
  185.2790  178.2620  146.7390 C   0  0  0  0  0  2  0  0  0  0  0  0
  185.7420  178.2650  144.7020 C   0  0  2  0  0  0  0  0  0  0  0  0
  185.5040  180.3940  145.9610 O   0  0  0  0  0  1  0  0  0  0  0  0
  184.8880  177.3560  145.6060 C   0  0  0  0  0  2  0  0  0  0  0  0
  186.1650  179.1450  145.8990 C   0  0  1  0  0  3  0  0  0  0  0  0
  185.2750  179.0150  143.3740 C   0  0  0  0  0  2  0  0  0  0  0  0
  184.2600  178.1880  142.4950 C   0  0  0  0  0  2  0  0  0  0  0  0
  183.7720  179.1790  141.3940 C   0  0  0  0  0  2  0  0  0  0  0  0
  185.1660  178.3800  139.8220 O   0  0  0  0  0  0  0  0  0  0  0  0
  184.2590  178.1960  138.7530 C   0  0  1  0  0  3  0  0  0  0  0  0
  184.5450  179.5470  140.2170 N   0  0  0  0  0  0  0  0  0  0  0  0
  183.6140  179.5030  139.1150 C   0  0  0  0  0  2  0  0  0  0  0  0
  184.9510  178.2820  137.5080 O   0  0  0  0  0  0  0  0  0  0  0  0
  184.8160  177.1700  136.6310 C   0  0  0  0  0  0  0  0  0  0  0  0
  185.5120  177.1480  135.6160 O   0  0  0  0  0  0  0  0  0  0  0  0
  183.8320  176.0090  136.8730 C   0  0  2  0  0  3  0  0  0  0  0  0
  185.3930  174.2210  137.1270 O   0  0  0  0  0  1  0  0  0  0  0  0
  184.3080  174.6410  136.3580 C   0  0  0  0  0  2  0  0  0  0  0  0
  182.4960  177.7600  135.8190 O   0  0  0  0  0  1  0  0  0  0  0  0
  182.4690  176.4340  136.2780 C   0  0  2  0  0  3  0  0  0  0  0  0
  181.2140  176.2080  137.1450 C   0  0  1  0  0  3  0  0  0  0  0  0
  180.4580  175.0640  136.7930 O   0  0  0  0  0  0  0  0  0  0  0  0
  181.3150  173.9580  136.6500 C   0  0  0  0  0  2  0  0  0  0  0  0
  180.7310  172.7270  137.2150 C   0  0  0  0  0  0  0  0  0  0  0  0
  179.9850  172.7620  138.3940 O   0  0  0  0  0  1  0  0  0  0  0  0
  180.8600  171.6370  136.5990 O   0  0  0  0  0  0  0  0  0  0  0  0
  181.4420  176.5100  138.6920 C   0  0  0  0  0  2  0  0  0  0  0  0
  179.9860  177.7890  140.6920 C   0  0  0  0  0  1  0  0  0  0  0  0
  179.9960  176.2150  139.7780 S   0  0  0  0  0  0  0  0  0  0  0  0
  187.0270  177.5150  144.3870 C   0  0  0  0  0  2  0  0  0  0  0  0
  187.1770  177.2590  142.8570 C   0  0  0  0  0  2  0  0  0  0  0  0
  188.3660  178.0510  142.0110 C   0  0  2  0  0  3  0  0  0  0  0  0
  188.4950  177.7970  139.1860 C   0  0  0  0  0  0  0  0  0  0  0  0
  189.1030  178.9120  138.8830 O   0  0  0  0  0  0  0  0  0  0  0  0
  188.2220  177.5200  140.6140 N   0  0  0  0  0  2  0  0  0  0  0  0
  187.9200  176.7640  138.1290 C   0  0  0  0  0  2  0  0  0  0  0  0
  190.3760  174.4720  137.4840 O   0  0  0  0  0  0  0  0  0  0  0  0
  189.2690  173.8650  137.0480 O   0  0  0  0  0  0  0  0  0  0  0  0
  188.3790  174.8700  136.6330 C   0  0  0  0  0  2  0  0  0  0  0  0
  188.8860  176.2060  137.1410 C   0  0  0  0  0  3  0  0  0  0  0  0
  189.9450  175.7030  138.0060 C   0  0  0  0  0  2  0  0  0  0  0  0
  189.9270  177.9470  142.5360 C   0  0  1  0  0  3  0  0  0  0  0  0
  189.6670  178.3290  145.0030 N   0  0  0  0  0  2  0  0  0  0  0  0
  190.7120  176.8700  146.6620 C   0  0  0  0  0  2  0  0  0  0  0  0
  191.1010  176.3440  144.2740 C   0  0  0  0  0  0  0  0  0  0  0  0
  191.4790  175.9640  145.6910 C   0  0  0  0  0  2  0  0  0  0  0  0
  190.6150  178.2850  146.1140 C   0  0  0  0  0  2  0  0  0  0  0  0
  190.1880  177.4520  143.9160 N   0  0  0  0  0  0  0  0  0  0  0  0
  191.9660  175.8860  143.4160 O   0  0  0  0  0  0  0  0  0  0  0  0
  190.4540  176.1010  141.2800 O   0  0  0  0  0  0  0  0  0  0  0  0
  192.0850  177.9000  140.9710 N   0  0  0  0  0  2  0  0  0  0  0  0
  190.8510  177.2870  141.5460 C   0  0  0  0  0  0  0  0  0  0  0  0
  192.7900  176.9840  140.1090 C   0  0  1  0  0  3  0  0  0  0  0  0
  192.3140  177.0190  138.8070 O   0  0  0  0  0  1  0  0  0  0  0  0
  194.2620  177.0340  140.2530 C   0  0  0  0  0  1  0  0  0  0  0  0
  2  6  1  6  0  0  0
  2  4  1  0  0  0  0
  2  5  1  0  0  0  0
  4  1  1  0  0  0  0
  5  3  1  6  0  0  0
  5  1  1  0  0  0  0
  7  6  1  0  0  0  0
  8  7  1  0  0  0  0
  9 11  1  0  0  0  0
 10 13  1  6  0  0  0
 10 12  1  0  0  0  0
 10  9  1  0  0  0  0
 11  8  1  0  0  0  0
 12 11  1  0  0  0  0
 14 16  1  0  0  0  0
 14 13  1  0  0  0  0
 15 14  2  0  0  0  0
 16 18  1  6  0  0  0
 18 17  1  0  0  0  0
 20 19  1  1  0  0  0
 20 16  1  0  0  0  0
 20 21  1  0  0  0  0
 21 27  1  1  0  0  0
 22 21  1  0  0  0  0
 23 22  1  0  0  0  0
 23 24  1  0  0  0  0
 24 25  1  0  0  0  0
 26 24  2  0  0  0  0
 27 29  1  0  0  0  0
 29 28  1  0  0  0  0
 30  2  1  0  0  0  0
 31 30  1  0  0  0  0
 32 42  1  0  0  0  0
 32 31  1  1  0  0  0
 33 35  1  0  0  0  0
 34 33  2  0  0  0  0
 35 32  1  0  0  0  0
 36 33  1  0  0  0  0
 37 41  1  0  0  0  0
 38 37  1  0  0  0  0
 39 38  1  0  0  0  0
 39 40  1  0  0  0  0
 40 41  1  0  0  0  0
 40 36  1  0  0  0  0
 42 52  1  6  0  0  0
 42 48  1  0  0  0  0
 43 47  1  0  0  0  0
 45 46  1  0  0  0  0
 46 44  1  0  0  0  0
 47 44  1  0  0  0  0
 48 45  1  0  0  0  0
 48 43  1  0  0  0  0
 49 45  2  0  0  0  0
 50 52  2  0  0  0  0
 51 52  1  0  0  0  0
 53 55  1  6  0  0  0
 53 51  1  0  0  0  0
 54 53  1  0  0  0  0
M  END
>  <MODEL>
5

>  <REMARK>
 VINA RESULT:      -3.5      4.811     10.579
  Name = 
  25 active torsions:
  status: ('A' for Active; 'I' for Inactive)
    1  A    between atoms: C_1  and  C_29
    2  A    between atoms: C_2  and  C_28
    3  A    between atoms: C_2  and  C_31
    4  A    between atoms: C_3  and  S_25
    5  A    between atoms: C_3  and  C_38
    6  A    between atoms: C_4  and  N_40
    7  A    between atoms: C_6  and  C_14
    8  A    between atoms: C_6  and  C_20
    9  A    between atoms: C_6  and  C_53
   10  A    between atoms: O_7  and  C_20
   11  A    between atoms: O_7  and  C_22
   12  A    between atoms: C_13  and  C_48
   13  A    between atoms: C_14  and  C_38
   14  A    between atoms: O_21  and  C_29
   15  A    between atoms: O_21  and  C_38
   16  A    between atoms: N_26  and  C_49
   17  A    between atoms: C_27  and  C_31
   18  A    between atoms: C_27  and  C_54
   19  A    between atoms: C_28  and  C_33
   20  A    between atoms: C_33  and  C_49
   21  A    between atoms: C_33  and  N_52
   22  A    between atoms: N_35  and  C_51
   23  A    between atoms: C_39  and  C_48
   24  A    between atoms: C_45  and  C_49
   25  A    between atoms: C_51  and  C_54
                            x       y       z     vdW  Elec       q    Type
                         _______ _______ _______ _____ _____    ______ ____

>  <TORSDO>
F 25

$$$$
=
 OpenBabel10272401433D

 55 58  0  0  1  0  0  0  0  0999 V2000
  192.2310  177.5120  141.4860 C   0  0  0  0  0  2  0  0  0  0  0  0
  190.4020  177.5510  140.4790 C   0  0  2  0  0  0  0  0  0  0  0  0
  192.4840  176.8520  139.3190 O   0  0  0  0  0  1  0  0  0  0  0  0
  191.0260  178.4040  141.5990 C   0  0  0  0  0  2  0  0  0  0  0  0
  191.6360  176.6230  140.4270 C   0  0  1  0  0  3  0  0  0  0  0  0
  189.8160  178.0670  139.0880 C   0  0  0  0  0  2  0  0  0  0  0  0
  189.0340  176.9660  138.2750 C   0  0  0  0  0  2  0  0  0  0  0  0
  189.9150  176.6840  137.0180 C   0  0  0  0  0  2  0  0  0  0  0  0
  189.0260  174.6460  136.6840 O   0  0  0  0  0  0  0  0  0  0  0  0
  187.7270  175.0070  136.2600 C   0  0  1  0  0  3  0  0  0  0  0  0
  189.5980  175.6980  135.9970 N   0  0  0  0  0  0  0  0  0  0  0  0
  188.3310  176.1100  135.4410 C   0  0  0  0  0  2  0  0  0  0  0  0
  187.1830  173.9800  135.4320 O   0  0  0  0  0  0  0  0  0  0  0  0
  185.7680  173.8330  135.4520 C   0  0  0  0  0  0  0  0  0  0  0  0
  185.2560  173.0640  134.6390 O   0  0  0  0  0  0  0  0  0  0  0  0
  184.8460  174.6010  136.4190 C   0  0  2  0  0  3  0  0  0  0  0  0
  184.8950  172.5140  137.5750 O   0  0  0  0  0  1  0  0  0  0  0  0
  184.4690  173.8360  137.6970 C   0  0  0  0  0  2  0  0  0  0  0  0
  183.5670  176.4540  135.4730 O   0  0  0  0  0  1  0  0  0  0  0  0
  183.6120  175.0570  135.6060 C   0  0  2  0  0  3  0  0  0  0  0  0
  182.2330  174.5320  136.0550 C   0  0  1  0  0  3  0  0  0  0  0  0
  181.2550  175.5410  136.2420 O   0  0  0  0  0  0  0  0  0  0  0  0
  181.6720  176.4180  137.2580 C   0  0  0  0  0  2  0  0  0  0  0  0
  181.1880  175.9980  138.5860 C   0  0  0  0  0  0  0  0  0  0  0  0
  182.0610  175.4530  139.5290 O   0  0  0  0  0  1  0  0  0  0  0  0
  179.9820  176.1830  138.8970 O   0  0  0  0  0  0  0  0  0  0  0  0
  181.7920  173.1860  135.3280 C   0  0  0  0  0  2  0  0  0  0  0  0
  180.4210  172.6100  137.6830 C   0  0  0  0  0  1  0  0  0  0  0  0
  181.4410  171.7670  136.4320 S   0  0  0  0  0  0  0  0  0  0  0  0
  189.3540  176.6530  141.1210 C   0  0  0  0  0  2  0  0  0  0  0  0
  188.1110  177.4700  141.5860 C   0  0  0  0  0  2  0  0  0  0  0  0
  187.4900  177.2160  143.1050 C   0  0  2  0  0  3  0  0  0  0  0  0
  185.0760  178.5470  142.4270 C   0  0  0  0  0  0  0  0  0  0  0  0
  185.5550  179.6010  141.8240 O   0  0  0  0  0  0  0  0  0  0  0  0
  186.0350  177.5510  142.9550 N   0  0  0  0  0  2  0  0  0  0  0  0
  183.5400  178.3060  142.7430 C   0  0  0  0  0  2  0  0  0  0  0  0
  180.7730  178.8420  140.8040 O   0  0  0  0  0  0  0  0  0  0  0  0
  180.2690  178.7490  142.0370 O   0  0  0  0  0  0  0  0  0  0  0  0
  181.2590  179.2010  142.9260 C   0  0  0  0  0  2  0  0  0  0  0  0
  182.5760  179.2930  142.1800 C   0  0  0  0  0  3  0  0  0  0  0  0
  182.1560  178.6340  140.9500 C   0  0  0  0  0  2  0  0  0  0  0  0
  188.1600  178.0120  144.3870 C   0  0  1  0  0  3  0  0  0  0  0  0
  186.0050  178.5540  145.5550 N   0  0  0  0  0  2  0  0  0  0  0  0
  185.7850  178.4630  147.9860 C   0  0  0  0  0  2  0  0  0  0  0  0
  187.9970  177.9130  147.0190 C   0  0  0  0  0  0  0  0  0  0  0  0
  187.2450  178.1320  148.3170 C   0  0  0  0  0  2  0  0  0  0  0  0
  185.6990  179.3400  146.7470 C   0  0  0  0  0  2  0  0  0  0  0  0
  187.4070  178.0630  145.6720 N   0  0  0  0  0  0  0  0  0  0  0  0
  189.2840  177.9960  147.2010 O   0  0  0  0  0  0  0  0  0  0  0  0
  190.3230  178.7150  144.6890 O   0  0  0  0  0  0  0  0  0  0  0  0
  190.1500  176.2730  144.7380 N   0  0  0  0  0  2  0  0  0  0  0  0
  189.6040  177.6580  144.6260 C   0  0  0  0  0  0  0  0  0  0  0  0
  191.5830  176.2700  144.8920 C   0  0  1  0  0  3  0  0  0  0  0  0
  191.9750  176.6970  146.1530 O   0  0  0  0  0  1  0  0  0  0  0  0
  192.2390  175.0360  144.4040 C   0  0  0  0  0  1  0  0  0  0  0  0
  1  4  1  0  0  0  0
  2  6  1  6  0  0  0
  2 30  1  0  0  0  0
  2  4  1  0  0  0  0
  5  3  1  6  0  0  0
  5  2  1  0  0  0  0
  5  1  1  0  0  0  0
  7  6  1  0  0  0  0
  8  7  1  0  0  0  0
 10 13  1  6  0  0  0
 10  9  1  0  0  0  0
 11  9  1  0  0  0  0
 11  8  1  0  0  0  0
 12 11  1  0  0  0  0
 12 10  1  0  0  0  0
 13 14  1  0  0  0  0
 14 16  1  0  0  0  0
 15 14  2  0  0  0  0
 16 18  1  1  0  0  0
 17 18  1  0  0  0  0
 20 19  1  1  0  0  0
 20 21  1  0  0  0  0
 20 16  1  0  0  0  0
 21 27  1  6  0  0  0
 21 22  1  0  0  0  0
 22 23  1  0  0  0  0
 23 24  1  0  0  0  0
 24 26  2  0  0  0  0
 24 25  1  0  0  0  0
 27 29  1  0  0  0  0
 29 28  1  0  0  0  0
 30 31  1  0  0  0  0
 32 31  1  6  0  0  0
 32 42  1  0  0  0  0
 33 36  1  0  0  0  0
 33 35  1  0  0  0  0
 34 33  2  0  0  0  0
 35 32  1  0  0  0  0
 37 41  1  0  0  0  0
 37 38  1  0  0  0  0
 38 39  1  0  0  0  0
 40 36  1  0  0  0  0
 40 39  1  0  0  0  0
 41 40  1  0  0  0  0
 42 52  1  1  0  0  0
 42 48  1  0  0  0  0
 43 48  1  0  0  0  0
 43 47  1  0  0  0  0
 44 46  1  0  0  0  0
 45 49  2  0  0  0  0
 45 46  1  0  0  0  0
 47 44  1  0  0  0  0
 48 45  1  0  0  0  0
 51 53  1  0  0  0  0
 52 50  2  0  0  0  0
 52 51  1  0  0  0  0
 53 55  1  1  0  0  0
 53 54  1  0  0  0  0
M  END
>  <MODEL>
6

>  <REMARK>
 VINA RESULT:      -3.5      5.177      9.605
  Name = 
  25 active torsions:
  status: ('A' for Active; 'I' for Inactive)
    1  A    between atoms: C_1  and  C_29
    2  A    between atoms: C_2  and  C_28
    3  A    between atoms: C_2  and  C_31
    4  A    between atoms: C_3  and  S_25
    5  A    between atoms: C_3  and  C_38
    6  A    between atoms: C_4  and  N_40
    7  A    between atoms: C_6  and  C_14
    8  A    between atoms: C_6  and  C_20
    9  A    between atoms: C_6  and  C_53
   10  A    between atoms: O_7  and  C_20
   11  A    between atoms: O_7  and  C_22
   12  A    between atoms: C_13  and  C_48
   13  A    between atoms: C_14  and  C_38
   14  A    between atoms: O_21  and  C_29
   15  A    between atoms: O_21  and  C_38
   16  A    between atoms: N_26  and  C_49
   17  A    between atoms: C_27  and  C_31
   18  A    between atoms: C_27  and  C_54
   19  A    between atoms: C_28  and  C_33
   20  A    between atoms: C_33  and  C_49
   21  A    between atoms: C_33  and  N_52
   22  A    between atoms: N_35  and  C_51
   23  A    between atoms: C_39  and  C_48
   24  A    between atoms: C_45  and  C_49
   25  A    between atoms: C_51  and  C_54
                            x       y       z     vdW  Elec       q    Type
                         _______ _______ _______ _____ _____    ______ ____

>  <TORSDO>
F 25

$$$$
=
 OpenBabel10272401433D

 55 58  0  0  1  0  0  0  0  0999 V2000
  188.6310  178.3170  140.3010 C   0  0  0  0  0  2  0  0  0  0  0  0
  190.4120  177.2690  140.0000 C   0  0  2  0  0  0  0  0  0  0  0  0
  188.7690  176.5310  141.7120 O   0  0  0  0  0  1  0  0  0  0  0  0
  190.0140  178.7550  139.9110 C   0  0  0  0  0  2  0  0  0  0  0  0
  188.9660  176.8500  140.3480 C   0  0  1  0  0  3  0  0  0  0  0  0
  191.5860  176.6370  140.8740 C   0  0  0  0  0  2  0  0  0  0  0  0
  191.2790  176.5870  142.4200 C   0  0  0  0  0  2  0  0  0  0  0  0
  191.8170  177.9370  142.9870 C   0  0  0  0  0  2  0  0  0  0  0  0
  189.7670  178.5120  143.7090 O   0  0  0  0  0  0  0  0  0  0  0  0
  189.6700  177.6980  144.8610 C   0  0  1  0  0  3  0  0  0  0  0  0
  191.1030  178.7710  143.9420 N   0  0  0  0  0  0  0  0  0  0  0  0
  191.1000  178.0270  145.1780 C   0  0  0  0  0  2  0  0  0  0  0  0
  188.7760  178.2900  145.8020 O   0  0  0  0  0  0  0  0  0  0  0  0
  187.4260  177.8430  145.7610 C   0  0  0  0  0  0  0  0  0  0  0  0
  187.2140  176.6360  145.8770 O   0  0  0  0  0  0  0  0  0  0  0  0
  186.2230  178.7850  145.5570 C   0  0  2  0  0  3  0  0  0  0  0  0
  185.8370  178.4200  147.8850 O   0  0  0  0  0  1  0  0  0  0  0  0
  185.1950  178.7750  146.6990 C   0  0  0  0  0  2  0  0  0  0  0  0
  186.5300  177.8180  143.3360 O   0  0  0  0  0  1  0  0  0  0  0  0
  185.6010  178.4390  144.1850 C   0  0  2  0  0  3  0  0  0  0  0  0
  184.8790  179.5710  143.4270 C   0  0  1  0  0  3  0  0  0  0  0  0
  185.0890  179.5640  142.0260 O   0  0  0  0  0  0  0  0  0  0  0  0
  184.0860  178.8010  141.4030 C   0  0  0  0  0  2  0  0  0  0  0  0
  183.9280  179.1490  139.9790 C   0  0  0  0  0  0  0  0  0  0  0  0
  182.6760  179.1080  139.3630 O   0  0  0  0  0  1  0  0  0  0  0  0
  184.9260  179.5400  139.3190 O   0  0  0  0  0  0  0  0  0  0  0  0
  183.4090  179.8660  143.9630 C   0  0  0  0  0  2  0  0  0  0  0  0
  180.9440  179.0880  142.9270 C   0  0  0  0  0  1  0  0  0  0  0  0
  182.2710  178.4310  143.9860 S   0  0  0  0  0  0  0  0  0  0  0  0
  190.5610  176.7530  138.5770 C   0  0  0  0  0  2  0  0  0  0  0  0
  192.0600  176.5940  138.1820 C   0  0  0  0  0  2  0  0  0  0  0  0
  192.6280  175.1040  137.7200 C   0  0  2  0  0  3  0  0  0  0  0  0
  194.5000  175.8820  135.7320 C   0  0  0  0  0  0  0  0  0  0  0  0
  193.6870  176.1740  134.7530 O   0  0  0  0  0  0  0  0  0  0  0  0
  193.9120  175.4180  137.0090 N   0  0  0  0  0  2  0  0  0  0  0  0
  196.0820  175.8740  135.6230 C   0  0  0  0  0  2  0  0  0  0  0  0
  198.9730  174.6390  136.9720 O   0  0  0  0  0  0  0  0  0  0  0  0
  198.2690  175.0080  138.0450 O   0  0  0  0  0  0  0  0  0  0  0  0
  196.9090  174.8820  137.7140 C   0  0  0  0  0  2  0  0  0  0  0  0
  196.7900  174.7020  136.2120 C   0  0  0  0  0  3  0  0  0  0  0  0
  198.1770  174.9840  135.8660 C   0  0  0  0  0  2  0  0  0  0  0  0
  191.6600  174.1250  136.8100 C   0  0  1  0  0  3  0  0  0  0  0  0
  191.0230  175.9780  135.2410 N   0  0  0  0  0  2  0  0  0  0  0  0
  188.7350  176.2720  134.4360 C   0  0  0  0  0  2  0  0  0  0  0  0
  189.1640  174.3970  135.9960 C   0  0  0  0  0  0  0  0  0  0  0  0
  188.0800  175.1520  135.2530 C   0  0  0  0  0  2  0  0  0  0  0  0
  189.8880  176.8970  135.2070 C   0  0  0  0  0  2  0  0  0  0  0  0
  190.6010  174.7470  135.9670 N   0  0  0  0  0  0  0  0  0  0  0  0
  188.6660  173.6940  136.9710 O   0  0  0  0  0  0  0  0  0  0  0  0
  191.9190  172.9350  134.8650 O   0  0  0  0  0  0  0  0  0  0  0  0
  193.5800  172.2930  136.5470 N   0  0  0  0  0  2  0  0  0  0  0  0
  192.4210  173.0830  136.0320 C   0  0  0  0  0  0  0  0  0  0  0  0
  194.0410  171.3240  135.5830 C   0  0  1  0  0  3  0  0  0  0  0  0
  193.0040  170.5490  135.0840 O   0  0  0  0  0  1  0  0  0  0  0  0
  194.9700  171.8760  134.5720 C   0  0  0  0  0  1  0  0  0  0  0  0
  1  5  1  0  0  0  0
  2 30  1  6  0  0  0
  2  5  1  0  0  0  0
  2  6  1  0  0  0  0
  4  2  1  0  0  0  0
  4  1  1  0  0  0  0
  5  3  1  1  0  0  0
  6  7  1  0  0  0  0
  7  8  1  0  0  0  0
  8 11  1  0  0  0  0
  9 11  1  0  0  0  0
  9 10  1  0  0  0  0
 10 12  1  0  0  0  0
 10 13  1  1  0  0  0
 11 12  1  0  0  0  0
 14 13  1  0  0  0  0
 14 15  2  0  0  0  0
 16 14  1  0  0  0  0
 16 18  1  1  0  0  0
 18 17  1  0  0  0  0
 20 19  1  6  0  0  0
 20 16  1  0  0  0  0
 21 27  1  6  0  0  0
 21 20  1  0  0  0  0
 22 21  1  0  0  0  0
 23 22  1  0  0  0  0
 24 23  1  0  0  0  0
 25 24  1  0  0  0  0
 26 24  2  0  0  0  0
 27 29  1  0  0  0  0
 28 29  1  0  0  0  0
 31 30  1  0  0  0  0
 32 31  1  6  0  0  0
 33 35  1  0  0  0  0
 34 33  2  0  0  0  0
 35 32  1  0  0  0  0
 36 33  1  0  0  0  0
 36 40  1  0  0  0  0
 37 38  1  0  0  0  0
 39 38  1  0  0  0  0
 40 39  1  0  0  0  0
 41 40  1  0  0  0  0
 41 37  1  0  0  0  0
 42 52  1  6  0  0  0
 42 32  1  0  0  0  0
 43 48  1  0  0  0  0
 44 47  1  0  0  0  0
 44 46  1  0  0  0  0
 45 49  2  0  0  0  0
 46 45  1  0  0  0  0
 47 43  1  0  0  0  0
 48 45  1  0  0  0  0
 48 42  1  0  0  0  0
 50 52  2  0  0  0  0
 52 51  1  0  0  0  0
 53 55  1  6  0  0  0
 53 51  1  0  0  0  0
 54 53  1  0  0  0  0
M  END
>  <MODEL>
7

>  <REMARK>
 VINA RESULT:      -3.1      3.852     11.728
  Name = 
  25 active torsions:
  status: ('A' for Active; 'I' for Inactive)
    1  A    between atoms: C_1  and  C_29
    2  A    between atoms: C_2  and  C_28
    3  A    between atoms: C_2  and  C_31
    4  A    between atoms: C_3  and  S_25
    5  A    between atoms: C_3  and  C_38
    6  A    between atoms: C_4  and  N_40
    7  A    between atoms: C_6  and  C_14
    8  A    between atoms: C_6  and  C_20
    9  A    between atoms: C_6  and  C_53
   10  A    between atoms: O_7  and  C_20
   11  A    between atoms: O_7  and  C_22
   12  A    between atoms: C_13  and  C_48
   13  A    between atoms: C_14  and  C_38
   14  A    between atoms: O_21  and  C_29
   15  A    between atoms: O_21  and  C_38
   16  A    between atoms: N_26  and  C_49
   17  A    between atoms: C_27  and  C_31
   18  A    between atoms: C_27  and  C_54
   19  A    between atoms: C_28  and  C_33
   20  A    between atoms: C_33  and  C_49
   21  A    between atoms: C_33  and  N_52
   22  A    between atoms: N_35  and  C_51
   23  A    between atoms: C_39  and  C_48
   24  A    between atoms: C_45  and  C_49
   25  A    between atoms: C_51  and  C_54
                            x       y       z     vdW  Elec       q    Type
                         _______ _______ _______ _____ _____    ______ ____

>  <TORSDO>
F 25

$$$$
=
 OpenBabel10272401433D

 55 58  0  0  1  0  0  0  0  0999 V2000
  183.5300  178.9750  145.1030 C   0  0  0  0  0  2  0  0  0  0  0  0
  183.1490  178.8060  143.0570 C   0  0  2  0  0  0  0  0  0  0  0  0
  183.5060  181.0280  144.1110 O   0  0  0  0  0  1  0  0  0  0  0  0
  182.6900  178.0220  144.3010 C   0  0  0  0  0  2  0  0  0  0  0  0
  184.0430  179.7350  143.9080 C   0  0  1  0  0  3  0  0  0  0  0  0
  182.2220  179.4940  141.9550 C   0  0  0  0  0  2  0  0  0  0  0  0
  181.9080  178.5710  140.7160 C   0  0  0  0  0  2  0  0  0  0  0  0
  180.8600  179.3620  139.8730 C   0  0  0  0  0  2  0  0  0  0  0  0
  182.2990  179.2780  138.1480 O   0  0  0  0  0  0  0  0  0  0  0  0
  181.7300  178.2220  137.4000 C   0  0  1  0  0  3  0  0  0  0  0  0
  181.0570  179.7720  138.4920 N   0  0  0  0  0  0  0  0  0  0  0  0
  180.3700  178.7850  137.6940 C   0  0  0  0  0  2  0  0  0  0  0  0
  182.0680  178.3660  136.0210 O   0  0  0  0  0  0  0  0  0  0  0  0
  183.0040  177.4310  135.4970 C   0  0  0  0  0  0  0  0  0  0  0  0
  183.4160  177.6090  134.3510 O   0  0  0  0  0  0  0  0  0  0  0  0
  183.5080  176.2020  136.2780 C   0  0  2  0  0  3  0  0  0  0  0  0
  185.8080  176.1900  135.6390 O   0  0  0  0  0  1  0  0  0  0  0  0
  184.9690  176.2900  136.7480 C   0  0  0  0  0  2  0  0  0  0  0  0
  182.1340  175.1590  134.5500 O   0  0  0  0  0  1  0  0  0  0  0  0
  183.2330  174.9600  135.4000 C   0  0  2  0  0  3  0  0  0  0  0  0
  183.0980  173.6000  136.1160 C   0  0  1  0  0  3  0  0  0  0  0  0
  181.8870  172.9150  135.8470 O   0  0  0  0  0  0  0  0  0  0  0  0
  181.9230  171.6430  136.4450 C   0  0  0  0  0  2  0  0  0  0  0  0
  181.6550  170.5670  135.4730 C   0  0  0  0  0  0  0  0  0  0  0  0
  182.4730  170.3870  134.3560 O   0  0  0  0  0  0  0  0  0  0  0  0
  180.7090  169.7630  135.6790 O   0  0  0  0  0  1  0  0  0  0  0  0
  184.4470  172.7550  136.1460 C   0  0  0  0  0  2  0  0  0  0  0  0
  187.0970  172.7120  137.0020 C   0  0  0  0  0  1  0  0  0  0  0  0
  185.4200  172.8700  137.6930 S   0  0  0  0  0  0  0  0  0  0  0  0
  184.1760  177.9500  142.3320 C   0  0  0  0  0  2  0  0  0  0  0  0
  185.5980  178.5820  142.4030 C   0  0  0  0  0  2  0  0  0  0  0  0
  186.9250  177.5930  142.5350 C   0  0  2  0  0  3  0  0  0  0  0  0
  186.8680  177.7220  145.3710 C   0  0  0  0  0  0  0  0  0  0  0  0
  186.7410  179.0100  145.5400 O   0  0  0  0  0  0  0  0  0  0  0  0
  186.9370  177.2060  143.9860 N   0  0  0  0  0  2  0  0  0  0  0  0
  187.0740  176.6720  146.5420 C   0  0  0  0  0  2  0  0  0  0  0  0
  189.8330  178.5040  147.3970 O   0  0  0  0  0  0  0  0  0  0  0  0
  189.0240  178.6620  148.4480 O   0  0  0  0  0  0  0  0  0  0  0  0
  188.2340  177.5040  148.5420 C   0  0  0  0  0  2  0  0  0  0  0  0
  188.3810  176.7110  147.2570 C   0  0  0  0  0  3  0  0  0  0  0  0
  189.1140  177.7080  146.4880 C   0  0  0  0  0  2  0  0  0  0  0  0
  188.3980  178.1610  142.0530 C   0  0  1  0  0  3  0  0  0  0  0  0
  189.5980  176.0170  142.5720 N   0  0  0  0  0  2  0  0  0  0  0  0
  191.7510  175.9790  143.7270 C   0  0  0  0  0  2  0  0  0  0  0  0
  190.7120  178.1900  143.3230 C   0  0  0  0  0  0  0  0  0  0  0  0
  191.8710  177.4840  143.9980 C   0  0  0  0  0  2  0  0  0  0  0  0
  190.2950  175.5400  143.7640 C   0  0  0  0  0  2  0  0  0  0  0  0
  189.6270  177.5080  142.5850 N   0  0  0  0  0  0  0  0  0  0  0  0
  190.5440  179.3870  143.8060 O   0  0  0  0  0  0  0  0  0  0  0  0
  188.5890  179.6180  140.2910 O   0  0  0  0  0  0  0  0  0  0  0  0
  188.4760  177.2920  139.5340 N   0  0  0  0  0  2  0  0  0  0  0  0
  188.5040  178.3710  140.5660 C   0  0  0  0  0  0  0  0  0  0  0  0
  188.5240  177.8250  138.1960 C   0  0  1  0  0  3  0  0  0  0  0  0
  187.3420  178.4600  137.8430 O   0  0  0  0  0  1  0  0  0  0  0  0
  189.7660  178.5700  137.8890 C   0  0  0  0  0  1  0  0  0  0  0  0
  2  6  1  6  0  0  0
  2  5  1  0  0  0  0
  2  4  1  0  0  0  0
  4  1  1  0  0  0  0
  5  3  1  1  0  0  0
  5  1  1  0  0  0  0
  7  6  1  0  0  0  0
  8  7  1  0  0  0  0
  9 11  1  0  0  0  0
 10 13  1  6  0  0  0
 10 12  1  0  0  0  0
 10  9  1  0  0  0  0
 11  8  1  0  0  0  0
 12 11  1  0  0  0  0
 14 13  1  0  0  0  0
 14 16  1  0  0  0  0
 15 14  2  0  0  0  0
 16 18  1  6  0  0  0
 17 18  1  0  0  0  0
 20 19  1  1  0  0  0
 20 21  1  0  0  0  0
 20 16  1  0  0  0  0
 21 27  1  6  0  0  0
 22 21  1  0  0  0  0
 22 23  1  0  0  0  0
 24 26  1  0  0  0  0
 24 23  1  0  0  0  0
 25 24  2  0  0  0  0
 27 29  1  0  0  0  0
 28 29  1  0  0  0  0
 30 31  1  0  0  0  0
 30  2  1  0  0  0  0
 32 31  1  1  0  0  0
 32 35  1  0  0  0  0
 33 34  2  0  0  0  0
 33 36  1  0  0  0  0
 35 33  1  0  0  0  0
 36 40  1  0  0  0  0
 37 38  1  0  0  0  0
 38 39  1  0  0  0  0
 40 39  1  0  0  0  0
 41 40  1  0  0  0  0
 41 37  1  0  0  0  0
 42 52  1  6  0  0  0
 42 32  1  0  0  0  0
 42 48  1  0  0  0  0
 43 48  1  0  0  0  0
 43 47  1  0  0  0  0
 44 47  1  0  0  0  0
 44 46  1  0  0  0  0
 45 49  2  0  0  0  0
 45 46  1  0  0  0  0
 48 45  1  0  0  0  0
 50 52  2  0  0  0  0
 51 52  1  0  0  0  0
 53 55  1  1  0  0  0
 53 51  1  0  0  0  0
 54 53  1  0  0  0  0
M  END
>  <MODEL>
8

>  <REMARK>
 VINA RESULT:      -2.9      6.035      9.437
  Name = 
  25 active torsions:
  status: ('A' for Active; 'I' for Inactive)
    1  A    between atoms: C_1  and  C_29
    2  A    between atoms: C_2  and  C_28
    3  A    between atoms: C_2  and  C_31
    4  A    between atoms: C_3  and  S_25
    5  A    between atoms: C_3  and  C_38
    6  A    between atoms: C_4  and  N_40
    7  A    between atoms: C_6  and  C_14
    8  A    between atoms: C_6  and  C_20
    9  A    between atoms: C_6  and  C_53
   10  A    between atoms: O_7  and  C_20
   11  A    between atoms: O_7  and  C_22
   12  A    between atoms: C_13  and  C_48
   13  A    between atoms: C_14  and  C_38
   14  A    between atoms: O_21  and  C_29
   15  A    between atoms: O_21  and  C_38
   16  A    between atoms: N_26  and  C_49
   17  A    between atoms: C_27  and  C_31
   18  A    between atoms: C_27  and  C_54
   19  A    between atoms: C_28  and  C_33
   20  A    between atoms: C_33  and  C_49
   21  A    between atoms: C_33  and  N_52
   22  A    between atoms: N_35  and  C_51
   23  A    between atoms: C_39  and  C_48
   24  A    between atoms: C_45  and  C_49
   25  A    between atoms: C_51  and  C_54
                            x       y       z     vdW  Elec       q    Type
                         _______ _______ _______ _____ _____    ______ ____

>  <TORSDO>
F 25

$$$$
=
 OpenBabel10272401433D

 55 58  0  0  1  0  0  0  0  0999 V2000
  183.1290  180.2030  144.1560 C   0  0  0  0  0  2  0  0  0  0  0  0
  183.6910  178.8600  142.6590 C   0  0  2  0  0  0  0  0  0  0  0  0
  182.9310  178.0510  144.8820 O   0  0  0  0  0  1  0  0  0  0  0  0
  184.1600  180.2700  143.0650 C   0  0  0  0  0  2  0  0  0  0  0  0
  182.6070  178.8480  143.7590 C   0  0  1  0  0  3  0  0  0  0  0  0
  184.5920  177.5520  142.5060 C   0  0  0  0  0  2  0  0  0  0  0  0
  186.0140  177.6720  143.1760 C   0  0  0  0  0  2  0  0  0  0  0  0
  186.7990  178.6860  142.2880 C   0  0  0  0  0  2  0  0  0  0  0  0
  188.8580  179.0300  141.4530 O   0  0  0  0  0  0  0  0  0  0  0  0
  189.5260  177.8920  141.9590 C   0  0  1  0  0  3  0  0  0  0  0  0
  187.7050  178.3100  141.2130 N   0  0  0  0  0  0  0  0  0  0  0  0
  188.3120  177.0710  141.6360 C   0  0  0  0  0  2  0  0  0  0  0  0
  190.6250  177.5560  141.1130 O   0  0  0  0  0  0  0  0  0  0  0  0
  191.8660  177.3000  141.7580 C   0  0  0  0  0  0  0  0  0  0  0  0
  192.8960  177.4110  141.0930 O   0  0  0  0  0  0  0  0  0  0  0  0
  191.9860  176.8720  143.2340 C   0  0  2  0  0  3  0  0  0  0  0  0
  190.5060  175.0670  142.7330 O   0  0  0  0  0  1  0  0  0  0  0  0
  191.6100  175.4080  143.5140 C   0  0  0  0  0  2  0  0  0  0  0  0
  191.7500  179.1470  144.0870 O   0  0  0  0  0  1  0  0  0  0  0  0
  191.1570  177.8750  144.0690 C   0  0  2  0  0  3  0  0  0  0  0  0
  190.7740  177.4580  145.5040 C   0  0  1  0  0  3  0  0  0  0  0  0
  191.8780  177.2590  146.3690 O   0  0  0  0  0  0  0  0  0  0  0  0
  191.9500  175.9030  146.7350 C   0  0  0  0  0  2  0  0  0  0  0  0
  192.4490  175.7270  148.1120 C   0  0  0  0  0  0  0  0  0  0  0  0
  192.1340  174.5840  148.8490 O   0  0  0  0  0  1  0  0  0  0  0  0
  193.2150  176.5910  148.6130 O   0  0  0  0  0  0  0  0  0  0  0  0
  189.5010  178.2260  146.0750 C   0  0  0  0  0  2  0  0  0  0  0  0
  186.9040  177.7220  146.9430 C   0  0  0  0  0  1  0  0  0  0  0  0
  188.6210  177.3900  147.4470 S   0  0  0  0  0  0  0  0  0  0  0  0
  182.8610  179.0040  141.3930 C   0  0  0  0  0  2  0  0  0  0  0  0
  183.4960  178.2260  140.2020 C   0  0  0  0  0  2  0  0  0  0  0  0
  183.9030  179.0450  138.8170 C   0  0  2  0  0  3  0  0  0  0  0  0
  181.6670  180.3850  137.6910 C   0  0  0  0  0  0  0  0  0  0  0  0
  181.5380  179.7200  136.5760 O   0  0  0  0  0  0  0  0  0  0  0  0
  182.7560  179.9920  138.6130 N   0  0  0  0  0  2  0  0  0  0  0  0
  180.8160  181.6630  138.0850 C   0  0  0  0  0  2  0  0  0  0  0  0
  180.5850  185.0490  137.6500 O   0  0  0  0  0  0  0  0  0  0  0  0
  181.8990  184.8440  137.7610 O   0  0  0  0  0  0  0  0  0  0  0  0
  182.1620  183.5530  137.2750 C   0  0  0  0  0  2  0  0  0  0  0  0
  180.8470  182.8100  137.1340 C   0  0  0  0  0  3  0  0  0  0  0  0
  179.9950  183.7820  137.8070 C   0  0  0  0  0  2  0  0  0  0  0  0
  184.2240  178.1870  137.4430 C   0  0  1  0  0  3  0  0  0  0  0  0
  186.6400  178.7300  137.8570 N   0  0  0  0  0  2  0  0  0  0  0  0
  188.4230  177.9190  136.3970 C   0  0  0  0  0  2  0  0  0  0  0  0
  186.0990  177.2950  135.8140 C   0  0  0  0  0  0  0  0  0  0  0  0
  187.5400  177.2310  135.3490 C   0  0  0  0  0  2  0  0  0  0  0  0
  187.7250  179.1430  136.9690 C   0  0  0  0  0  2  0  0  0  0  0  0
  185.6440  177.9710  137.0480 N   0  0  0  0  0  0  0  0  0  0  0  0
  185.2760  177.0710  134.8300 O   0  0  0  0  0  0  0  0  0  0  0  0
  184.1250  175.9180  137.7670 O   0  0  0  0  0  0  0  0  0  0  0  0
  182.0590  176.7810  136.7760 N   0  0  0  0  0  2  0  0  0  0  0  0
  183.4380  176.9070  137.3370 C   0  0  0  0  0  0  0  0  0  0  0  0
  181.6130  175.4100  136.7480 C   0  0  1  0  0  3  0  0  0  0  0  0
  182.4840  174.5910  136.0440 O   0  0  0  0  0  1  0  0  0  0  0  0
  181.1710  174.8930  138.0620 C   0  0  0  0  0  1  0  0  0  0  0  0
  2 30  1  6  0  0  0
  2  4  1  0  0  0  0
  2  5  1  0  0  0  0
  4  1  1  0  0  0  0
  5  1  1  0  0  0  0
  5  3  1  1  0  0  0
  6  2  1  0  0  0  0
  6  7  1  0  0  0  0
  8  7  1  0  0  0  0
  9 10  1  0  0  0  0
 10 13  1  6  0  0  0
 11  9  1  0  0  0  0
 11 12  1  0  0  0  0
 11  8  1  0  0  0  0
 12 10  1  0  0  0  0
 13 14  1  0  0  0  0
 14 16  1  0  0  0  0
 15 14  2  0  0  0  0
 16 18  1  6  0  0  0
 16 20  1  0  0  0  0
 17 18  1  0  0  0  0
 20 19  1  1  0  0  0
 20 21  1  0  0  0  0
 21 27  1  1  0  0  0
 21 22  1  0  0  0  0
 22 23  1  0  0  0  0
 23 24  1  0  0  0  0
 24 26  2  0  0  0  0
 24 25  1  0  0  0  0
 27 29  1  0  0  0  0
 28 29  1  0  0  0  0
 31 30  1  0  0  0  0
 32 31  1  1  0  0  0
 33 36  1  0  0  0  0
 33 35  1  0  0  0  0
 34 33  2  0  0  0  0
 35 32  1  0  0  0  0
 37 38  1  0  0  0  0
 37 41  1  0  0  0  0
 39 38  1  0  0  0  0
 40 39  1  0  0  0  0
 40 41  1  0  0  0  0
 40 36  1  0  0  0  0
 42 52  1  1  0  0  0
 42 32  1  0  0  0  0
 44 47  1  0  0  0  0
 45 48  1  0  0  0  0
 46 45  1  0  0  0  0
 46 44  1  0  0  0  0
 47 43  1  0  0  0  0
 48 42  1  0  0  0  0
 48 43  1  0  0  0  0
 49 45  2  0  0  0  0
 51 52  1  0  0  0  0
 52 50  2  0  0  0  0
 53 51  1  0  0  0  0
 53 55  1  1  0  0  0
 54 53  1  0  0  0  0
M  END
>  <MODEL>
9

>  <REMARK>
 VINA RESULT:      -2.8      5.531      8.446
  Name = 
  25 active torsions:
  status: ('A' for Active; 'I' for Inactive)
    1  A    between atoms: C_1  and  C_29
    2  A    between atoms: C_2  and  C_28
    3  A    between atoms: C_2  and  C_31
    4  A    between atoms: C_3  and  S_25
    5  A    between atoms: C_3  and  C_38
    6  A    between atoms: C_4  and  N_40
    7  A    between atoms: C_6  and  C_14
    8  A    between atoms: C_6  and  C_20
    9  A    between atoms: C_6  and  C_53
   10  A    between atoms: O_7  and  C_20
   11  A    between atoms: O_7  and  C_22
   12  A    between atoms: C_13  and  C_48
   13  A    between atoms: C_14  and  C_38
   14  A    between atoms: O_21  and  C_29
   15  A    between atoms: O_21  and  C_38
   16  A    between atoms: N_26  and  C_49
   17  A    between atoms: C_27  and  C_31
   18  A    between atoms: C_27  and  C_54
   19  A    between atoms: C_28  and  C_33
   20  A    between atoms: C_33  and  C_49
   21  A    between atoms: C_33  and  N_52
   22  A    between atoms: N_35  and  C_51
   23  A    between atoms: C_39  and  C_48
   24  A    between atoms: C_45  and  C_49
   25  A    between atoms: C_51  and  C_54
                            x       y       z     vdW  Elec       q    Type
                         _______ _______ _______ _____ _____    ______ ____

>  <TORSDO>
F 25

$$$$
