=
 OpenBabel10272400453D

 25 28  0  0  1  0  0  0  0  0999 V2000
  187.1740  177.1060  144.1870 C   0  0  1  0  0  3  0  0  0  0  0  0
  188.1890  177.8670  143.3310 C   0  0  2  0  0  3  0  0  0  0  0  0
  190.0630  177.3790  146.5630 C   0  0  0  0  0  1  0  0  0  0  0  0
  189.1280  177.4520  145.4060 C   0  0  0  0  0  0  0  0  0  0  0  0
  190.7020  178.4290  143.6060 C   0  0  1  0  0  3  0  0  0  0  0  0
  191.9230  178.2510  144.4920 C   0  0  0  0  0  1  0  0  0  0  0  0
  188.5150  177.1150  142.0460 C   0  0  0  0  0  2  0  0  0  0  0  0
  187.7970  176.9770  145.4980 N   0  0  0  0  0  2  0  0  0  0  0  0
  190.9560  177.7320  142.2670 C   0  0  0  0  0  2  0  0  0  0  0  0
  189.7160  177.7730  141.3530 C   0  0  1  0  0  3  0  0  0  0  0  0
  189.4040  177.9210  144.1930 C   0  0  0  0  0  0  0  0  0  0  0  0
  185.8770  177.8520  144.2810 C   0  0  0  0  0  0  0  0  0  0  0  0
  183.4660  179.2750  144.4360 C   0  0  0  0  0  3  0  0  0  0  0  0
  185.1510  178.1400  143.1150 C   0  0  0  0  0  0  0  0  0  0  0  0
  183.9480  178.8490  143.1960 C   0  0  0  0  0  3  0  0  0  0  0  0
  184.1870  178.9960  145.6010 C   0  0  0  0  0  3  0  0  0  0  0  0
  185.6050  177.7390  141.9020 F   0  0  0  0  0  0  0  0  0  0  0  0
  185.3890  178.2880  145.5230 C   0  0  0  0  0  3  0  0  0  0  0  0
  189.9450  177.1470  139.9670 C   0  0  1  0  0  0  0  0  0  0  0  0
  191.3090  177.0650  139.3990 C   0  0  0  0  0  2  0  0  0  0  0  0
  190.6940  175.9590  140.0280 O   0  0  0  0  0  0  0  0  0  0  0  0
  188.7880  177.0300  138.9860 C   0  0  0  0  0  2  0  0  0  0  0  0
  186.9990  178.5980  139.1060 O   0  0  0  0  0  1  0  0  0  0  0  0
  188.9170  179.3600  138.1090 O   0  0  0  0  0  0  0  0  0  0  0  0
  188.1770  178.3630  138.7300 C   0  0  0  0  0  0  0  0  0  0  0  0
  1 12  1  1  0  0  0
  1  8  1  0  0  0  0
  2  7  1  6  0  0  0
  2  1  1  0  0  0  0
  2 11  1  0  0  0  0
  4  8  1  0  0  0  0
  4  3  1  0  0  0  0
  5 11  1  0  0  0  0
  5  6  1  1  0  0  0
  9  5  1  0  0  0  0
 10  7  1  1  0  0  0
 10  9  1  0  0  0  0
 11  4  2  0  0  0  0
 12 18  1  0  0  0  0
 13 16  1  0  0  0  0
 14 15  1  0  0  0  0
 14 12  2  0  0  0  0
 15 13  2  0  0  0  0
 17 14  1  0  0  0  0
 18 16  2  0  0  0  0
 19 22  1  6  0  0  0
 19 21  1  0  0  0  0
 19 10  1  0  0  0  0
 20 19  1  0  0  0  0
 20 21  1  0  0  0  0
 24 25  2  0  0  0  0
 25 22  1  0  0  0  0
 25 23  1  0  0  0  0
M  END
>  <MODEL>
1

>  <REMARK>
 VINA RESULT:      -9.0      0.000      0.000
  Name = 
  4 active torsions:
  status: ('A' for Active; 'I' for Inactive)
    1  A    between atoms: C_1  and  C_5
    2  A    between atoms: C_2  and  C_6
    3  A    between atoms: C_2  and  C_21
    4  A    between atoms: C_6  and  C_23
                            x       y       z     vdW  Elec       q    Type
                         _______ _______ _______ _____ _____    ______ ____

>  <TORSDO>
F 4

$$$$
=
 OpenBabel10272400453D

 25 28  0  0  1  0  0  0  0  0999 V2000
  188.0770  176.7190  144.4220 C   0  0  1  0  0  3  0  0  0  0  0  0
  187.5000  177.8710  143.5960 C   0  0  2  0  0  3  0  0  0  0  0  0
  190.3490  176.6790  141.4380 C   0  0  0  0  0  1  0  0  0  0  0  0
  189.3010  176.9680  142.4560 C   0  0  0  0  0  0  0  0  0  0  0  0
  187.8940  178.7180  141.1800 C   0  0  1  0  0  3  0  0  0  0  0  0
  188.6460  178.4670  139.8850 C   0  0  0  0  0  1  0  0  0  0  0  0
  186.0320  177.6390  143.2570 C   0  0  0  0  0  2  0  0  0  0  0  0
  189.2580  176.2770  143.6920 N   0  0  0  0  0  2  0  0  0  0  0  0
  186.3940  178.5430  140.9250 C   0  0  0  0  0  2  0  0  0  0  0  0
  185.5710  178.6730  142.2220 C   0  0  1  0  0  3  0  0  0  0  0  0
  188.3060  177.8420  142.3420 C   0  0  0  0  0  0  0  0  0  0  0  0
  188.4380  177.1720  145.8040 C   0  0  0  0  0  0  0  0  0  0  0  0
  189.1000  178.0510  148.3830 C   0  0  0  0  0  3  0  0  0  0  0  0
  187.4270  177.5260  146.7110 C   0  0  0  0  0  0  0  0  0  0  0  0
  187.7600  177.9640  147.9970 C   0  0  0  0  0  3  0  0  0  0  0  0
  190.1120  177.7040  147.4850 C   0  0  0  0  0  3  0  0  0  0  0  0
  186.1220  177.4520  146.3510 F   0  0  0  0  0  0  0  0  0  0  0  0
  189.7830  177.2670  146.1980 C   0  0  0  0  0  3  0  0  0  0  0  0
  184.0520  178.5750  142.0040 C   0  0  1  0  0  0  0  0  0  0  0  0
  183.4450  179.0330  140.7350 C   0  0  0  0  0  2  0  0  0  0  0  0
  183.7080  177.6680  140.9870 O   0  0  0  0  0  0  0  0  0  0  0  0
  183.1200  178.4510  143.2010 C   0  0  0  0  0  2  0  0  0  0  0  0
  183.7000  180.6250  143.9840 O   0  0  0  0  0  0  0  0  0  0  0  0
  183.6060  178.9890  145.5860 O   0  0  0  0  0  1  0  0  0  0  0  0
  183.5030  179.4160  144.2690 C   0  0  0  0  0  0  0  0  0  0  0  0
  1 12  1  1  0  0  0
  2  7  1  6  0  0  0
  2  1  1  0  0  0  0
  3  4  1  0  0  0  0
  4  8  1  0  0  0  0
  5  6  1  6  0  0  0
  5 11  1  0  0  0  0
  8  1  1  0  0  0  0
  9  5  1  0  0  0  0
 10  9  1  6  0  0  0
 10  7  1  0  0  0  0
 11  4  2  0  0  0  0
 11  2  1  0  0  0  0
 12 18  2  0  0  0  0
 12 14  1  0  0  0  0
 14 15  2  0  0  0  0
 15 13  1  0  0  0  0
 16 13  2  0  0  0  0
 17 14  1  0  0  0  0
 18 16  1  0  0  0  0
 19 10  1  0  0  0  0
 19 22  1  1  0  0  0
 20 21  1  0  0  0  0
 20 19  1  0  0  0  0
 21 19  1  0  0  0  0
 22 25  1  0  0  0  0
 23 25  2  0  0  0  0
 25 24  1  0  0  0  0
M  END
>  <MODEL>
2

>  <REMARK>
 VINA RESULT:      -8.4      2.684      5.402
  Name = 
  4 active torsions:
  status: ('A' for Active; 'I' for Inactive)
    1  A    between atoms: C_1  and  C_5
    2  A    between atoms: C_2  and  C_6
    3  A    between atoms: C_2  and  C_21
    4  A    between atoms: C_6  and  C_23
                            x       y       z     vdW  Elec       q    Type
                         _______ _______ _______ _____ _____    ______ ____

>  <TORSDO>
F 4

$$$$
=
 OpenBabel10272400453D

 25 28  0  0  1  0  0  0  0  0999 V2000
  187.0820  177.0760  144.1350 C   0  0  1  0  0  3  0  0  0  0  0  0
  188.0410  177.8870  143.2620 C   0  0  2  0  0  3  0  0  0  0  0  0
  190.1270  177.1900  146.3220 C   0  0  0  0  0  1  0  0  0  0  0  0
  189.1160  177.3390  145.2370 C   0  0  0  0  0  0  0  0  0  0  0  0
  190.5720  178.4240  143.4000 C   0  0  1  0  0  3  0  0  0  0  0  0
  191.8480  178.1880  144.1880 C   0  0  0  0  0  1  0  0  0  0  0  0
  188.2750  177.2170  141.9130 C   0  0  0  0  0  2  0  0  0  0  0  0
  187.7910  176.8620  145.3900 N   0  0  0  0  0  2  0  0  0  0  0  0
  190.7290  177.8130  142.0050 C   0  0  0  0  0  2  0  0  0  0  0  0
  189.4300  177.9140  141.1820 C   0  0  1  0  0  3  0  0  0  0  0  0
  189.3130  177.8830  144.0400 C   0  0  0  0  0  0  0  0  0  0  0  0
  185.7990  177.8170  144.3640 C   0  0  0  0  0  0  0  0  0  0  0  0
  183.4130  179.2320  144.7710 C   0  0  0  0  0  3  0  0  0  0  0  0
  184.9610  178.1150  143.2780 C   0  0  0  0  0  0  0  0  0  0  0  0
  183.7710  178.8200  143.4840 C   0  0  0  0  0  3  0  0  0  0  0  0
  184.2450  178.9430  145.8560 C   0  0  0  0  0  3  0  0  0  0  0  0
  185.2950  177.7270  142.0220 F   0  0  0  0  0  0  0  0  0  0  0  0
  185.4350  178.2390  145.6530 C   0  0  0  0  0  3  0  0  0  0  0  0
  189.5610  177.3770  139.7470 C   0  0  1  0  0  0  0  0  0  0  0  0
  188.5130  177.6600  138.7420 C   0  0  0  0  0  2  0  0  0  0  0  0
  189.7150  178.4020  138.7980 O   0  0  0  0  0  0  0  0  0  0  0  0
  190.4850  176.2030  139.4580 C   0  0  0  0  0  2  0  0  0  0  0  0
  192.6910  177.0780  139.2540 O   0  0  0  0  0  1  0  0  0  0  0  0
  191.6530  176.5420  137.2820 O   0  0  0  0  0  0  0  0  0  0  0  0
  191.6670  176.6440  138.6660 C   0  0  0  0  0  0  0  0  0  0  0  0
  1 12  1  1  0  0  0
  1  8  1  0  0  0  0
  2  7  1  6  0  0  0
  2 11  1  0  0  0  0
  2  1  1  0  0  0  0
  4  8  1  0  0  0  0
  4  3  1  0  0  0  0
  5 11  1  0  0  0  0
  5  6  1  1  0  0  0
  9  5  1  0  0  0  0
 10  7  1  1  0  0  0
 10  9  1  0  0  0  0
 11  4  2  0  0  0  0
 12 18  1  0  0  0  0
 13 16  1  0  0  0  0
 14 15  1  0  0  0  0
 14 12  2  0  0  0  0
 15 13  2  0  0  0  0
 17 14  1  0  0  0  0
 18 16  2  0  0  0  0
 19 22  1  6  0  0  0
 19 10  1  0  0  0  0
 20 21  1  0  0  0  0
 20 19  1  0  0  0  0
 21 19  1  0  0  0  0
 24 25  2  0  0  0  0
 25 23  1  0  0  0  0
 25 22  1  0  0  0  0
M  END
>  <MODEL>
3

>  <REMARK>
 VINA RESULT:      -8.3      0.916      1.880
  Name = 
  4 active torsions:
  status: ('A' for Active; 'I' for Inactive)
    1  A    between atoms: C_1  and  C_5
    2  A    between atoms: C_2  and  C_6
    3  A    between atoms: C_2  and  C_21
    4  A    between atoms: C_6  and  C_23
                            x       y       z     vdW  Elec       q    Type
                         _______ _______ _______ _____ _____    ______ ____

>  <TORSDO>
F 4

$$$$
=
 OpenBabel10272400453D

 25 28  0  0  1  0  0  0  0  0999 V2000
  189.4140  178.3640  142.3370 C   0  0  1  0  0  3  0  0  0  0  0  0
  188.4350  177.6580  143.2770 C   0  0  2  0  0  3  0  0  0  0  0  0
  191.6680  177.4950  145.2060 C   0  0  0  0  0  1  0  0  0  0  0  0
  190.5300  177.6760  144.2610 C   0  0  0  0  0  0  0  0  0  0  0  0
  188.5760  176.8520  145.7350 C   0  0  1  0  0  3  0  0  0  0  0  0
  189.4550  176.7910  146.9720 C   0  0  0  0  0  1  0  0  0  0  0  0
  187.2710  178.5640  143.6590 C   0  0  0  0  0  2  0  0  0  0  0  0
  190.7170  178.2420  142.9760 N   0  0  0  0  0  0  0  0  0  0  0  0
  187.3510  177.7180  146.0400 C   0  0  0  0  0  2  0  0  0  0  0  0
  186.4650  177.9200  144.7950 C   0  0  1  0  0  3  0  0  0  0  0  0
  189.2560  177.3730  144.4890 C   0  0  1  0  0  3  0  0  0  0  0  0
  189.4200  177.7240  140.9810 C   0  0  0  0  0  0  0  0  0  0  0  0
  189.4000  176.5080  138.4550 C   0  0  0  0  0  3  0  0  0  0  0  0
  188.3340  177.9180  140.1120 C   0  0  0  0  0  0  0  0  0  0  0  0
  188.3290  177.3110  138.8520 C   0  0  0  0  0  3  0  0  0  0  0  0
  190.4820  176.3060  139.3170 C   0  0  0  0  0  3  0  0  0  0  0  0
  187.2840  178.6910  140.4830 F   0  0  0  0  0  0  0  0  0  0  0  0
  190.4910  176.9110  140.5770 C   0  0  0  0  0  3  0  0  0  0  0  0
  185.1840  178.7250  145.0690 C   0  0  1  0  0  0  0  0  0  0  0  0
  184.2900  178.3530  146.1870 C   0  0  0  0  0  2  0  0  0  0  0  0
  185.2260  179.4060  146.2980 O   0  0  0  0  0  0  0  0  0  0  0  0
  184.5810  179.5900  143.9710 C   0  0  0  0  0  2  0  0  0  0  0  0
  182.4430  178.8210  143.2540 O   0  0  0  0  0  1  0  0  0  0  0  0
  184.2330  178.0150  142.0700 O   0  0  0  0  0  0  0  0  0  0  0  0
  183.6910  178.7820  143.0920 C   0  0  0  0  0  0  0  0  0  0  0  0
  1 12  1  6  0  0  0
  1  8  1  0  0  0  0
  1  2  1  0  0  0  0
  2  7  1  1  0  0  0
  2 11  1  0  0  0  0
  4  3  1  0  0  0  0
  5  9  1  0  0  0  0
  5  6  1  1  0  0  0
  8  4  2  0  0  0  0
 10  7  1  6  0  0  0
 10 19  1  0  0  0  0
 10  9  1  0  0  0  0
 11  4  1  1  0  0  0
 11  5  1  0  0  0  0
 13 15  2  0  0  0  0
 13 16  1  0  0  0  0
 14 17  1  0  0  0  0
 14 12  2  0  0  0  0
 15 14  1  0  0  0  0
 16 18  2  0  0  0  0
 18 12  1  0  0  0  0
 19 22  1  6  0  0  0
 19 20  1  0  0  0  0
 19 21  1  0  0  0  0
 20 21  1  0  0  0  0
 24 25  2  0  0  0  0
 25 23  1  0  0  0  0
 25 22  1  0  0  0  0
M  END
>  <MODEL>
4

>  <REMARK>
 VINA RESULT:      -8.2      2.469      5.720
  Name = 
  4 active torsions:
  status: ('A' for Active; 'I' for Inactive)
    1  A    between atoms: C_1  and  C_5
    2  A    between atoms: C_2  and  C_6
    3  A    between atoms: C_2  and  C_21
    4  A    between atoms: C_6  and  C_23
                            x       y       z     vdW  Elec       q    Type
                         _______ _______ _______ _____ _____    ______ ____

>  <TORSDO>
F 4

$$$$
=
 OpenBabel10272400453D

 25 28  0  0  1  0  0  0  0  0999 V2000
  188.0340  176.7520  144.4370 C   0  0  1  0  0  3  0  0  0  0  0  0
  187.5270  177.8870  143.5440 C   0  0  2  0  0  3  0  0  0  0  0  0
  190.5240  176.6350  141.6340 C   0  0  0  0  0  1  0  0  0  0  0  0
  189.4030  176.9520  142.5630 C   0  0  0  0  0  0  0  0  0  0  0  0
  188.1050  178.6760  141.1460 C   0  0  1  0  0  3  0  0  0  0  0  0
  188.9500  178.3920  139.9170 C   0  0  0  0  0  1  0  0  0  0  0  0
  186.0880  177.6520  143.1010 C   0  0  0  0  0  2  0  0  0  0  0  0
  189.2640  176.2890  143.8080 N   0  0  0  0  0  2  0  0  0  0  0  0
  186.6280  178.5000  140.7830 C   0  0  0  0  0  2  0  0  0  0  0  0
  185.7100  178.6630  142.0110 C   0  0  1  0  0  3  0  0  0  0  0  0
  188.4240  177.8260  142.3550 C   0  0  0  0  0  0  0  0  0  0  0  0
  188.2940  177.2350  145.8320 C   0  0  0  0  0  0  0  0  0  0  0  0
  188.7660  178.1720  148.4320 C   0  0  0  0  0  3  0  0  0  0  0  0
  187.2210  177.6370  146.6430 C   0  0  0  0  0  0  0  0  0  0  0  0
  187.4600  178.1030  147.9400 C   0  0  0  0  0  3  0  0  0  0  0  0
  189.8390  177.7780  147.6280 C   0  0  0  0  0  3  0  0  0  0  0  0
  185.9480  177.5810  146.1810 F   0  0  0  0  0  0  0  0  0  0  0  0
  189.6040  177.3120  146.3310 C   0  0  0  0  0  3  0  0  0  0  0  0
  184.2110  178.5650  141.6820 C   0  0  1  0  0  0  0  0  0  0  0  0
  183.2180  178.3750  142.7620 C   0  0  0  0  0  2  0  0  0  0  0  0
  183.4730  179.6450  142.1970 O   0  0  0  0  0  0  0  0  0  0  0  0
  183.7650  178.2040  140.2730 C   0  0  0  0  0  2  0  0  0  0  0  0
  184.2610  180.2210  139.1060 O   0  0  0  0  0  0  0  0  0  0  0  0
  182.0400  179.6660  139.2220 O   0  0  0  0  0  1  0  0  0  0  0  0
  183.3760  179.4250  139.5140 C   0  0  0  0  0  0  0  0  0  0  0  0
  1 12  1  1  0  0  0
  2  7  1  6  0  0  0
  2  1  1  0  0  0  0
  3  4  1  0  0  0  0
  4  8  1  0  0  0  0
  5  6  1  6  0  0  0
  5 11  1  0  0  0  0
  8  1  1  0  0  0  0
  9  5  1  0  0  0  0
 10  9  1  6  0  0  0
 10  7  1  0  0  0  0
 11  4  2  0  0  0  0
 11  2  1  0  0  0  0
 12 18  2  0  0  0  0
 12 14  1  0  0  0  0
 14 15  2  0  0  0  0
 15 13  1  0  0  0  0
 16 13  2  0  0  0  0
 17 14  1  0  0  0  0
 18 16  1  0  0  0  0
 19 22  1  6  0  0  0
 19 10  1  0  0  0  0
 19 21  1  0  0  0  0
 19 20  1  0  0  0  0
 21 20  1  0  0  0  0
 23 25  2  0  0  0  0
 24 25  1  0  0  0  0
 25 22  1  0  0  0  0
M  END
>  <MODEL>
5

>  <REMARK>
 VINA RESULT:      -8.2      2.665      4.954
  Name = 
  4 active torsions:
  status: ('A' for Active; 'I' for Inactive)
    1  A    between atoms: C_1  and  C_5
    2  A    between atoms: C_2  and  C_6
    3  A    between atoms: C_2  and  C_21
    4  A    between atoms: C_6  and  C_23
                            x       y       z     vdW  Elec       q    Type
                         _______ _______ _______ _____ _____    ______ ____

>  <TORSDO>
F 4

$$$$
=
 OpenBabel10272400453D

 25 28  0  0  1  0  0  0  0  0999 V2000
  186.4240  179.0950  143.1540 C   0  0  1  0  0  3  0  0  0  0  0  0
  187.1810  177.8490  143.6190 C   0  0  2  0  0  3  0  0  0  0  0  0
  188.3260  178.2040  140.0470 C   0  0  0  0  0  1  0  0  0  0  0  0
  187.7270  178.2700  141.4100 C   0  0  0  0  0  0  0  0  0  0  0  0
  189.0900  176.4270  142.5990 C   0  0  1  0  0  3  0  0  0  0  0  0
  190.0440  176.2900  141.4250 C   0  0  0  0  0  1  0  0  0  0  0  0
  188.0680  178.1470  144.8220 C   0  0  0  0  0  2  0  0  0  0  0  0
  186.7390  179.2300  141.7380 N   0  0  0  0  0  0  0  0  0  0  0  0
  189.9020  176.6930  143.8690 C   0  0  0  0  0  2  0  0  0  0  0  0
  188.9950  176.9540  145.0880 C   0  0  1  0  0  3  0  0  0  0  0  0
  188.0370  177.5010  142.4490 C   0  0  1  0  0  3  0  0  0  0  0  0
  184.9480  178.9420  143.3630 C   0  0  0  0  0  0  0  0  0  0  0  0
  182.1920  178.6270  143.7760 C   0  0  0  0  0  3  0  0  0  0  0  0
  184.4050  179.0890  144.6500 C   0  0  0  0  0  0  0  0  0  0  0  0
  183.0300  178.9320  144.8520 C   0  0  0  0  0  3  0  0  0  0  0  0
  182.7260  178.4750  142.4940 C   0  0  0  0  0  3  0  0  0  0  0  0
  185.2030  179.3810  145.7060 F   0  0  0  0  0  0  0  0  0  0  0  0
  184.1000  178.6300  142.2880 C   0  0  0  0  0  3  0  0  0  0  0  0
  189.7670  177.1560  146.4030 C   0  0  1  0  0  0  0  0  0  0  0  0
  189.0570  177.5770  147.6310 C   0  0  0  0  0  2  0  0  0  0  0  0
  189.4010  176.2270  147.3930 O   0  0  0  0  0  0  0  0  0  0  0  0
  191.2710  177.3780  146.3740 C   0  0  0  0  0  2  0  0  0  0  0  0
  192.1320  175.1740  146.0990 O   0  0  0  0  0  0  0  0  0  0  0  0
  192.5470  176.1510  148.1300 O   0  0  0  0  0  1  0  0  0  0  0  0
  191.9930  176.1680  146.8570 C   0  0  0  0  0  0  0  0  0  0  0  0
  1 12  1  6  0  0  0
  1  2  1  0  0  0  0
  2  7  1  1  0  0  0
  3  4  1  0  0  0  0
  4  8  2  0  0  0  0
  5  6  1  6  0  0  0
  5  9  1  0  0  0  0
  7 10  1  0  0  0  0
  8  1  1  0  0  0  0
 10  9  1  6  0  0  0
 10 19  1  0  0  0  0
 11  4  1  1  0  0  0
 11  5  1  0  0  0  0
 11  2  1  0  0  0  0
 12 14  1  0  0  0  0
 13 15  1  0  0  0  0
 14 15  2  0  0  0  0
 14 17  1  0  0  0  0
 16 13  2  0  0  0  0
 18 16  1  0  0  0  0
 18 12  2  0  0  0  0
 19 22  1  6  0  0  0
 19 21  1  0  0  0  0
 19 20  1  0  0  0  0
 21 20  1  0  0  0  0
 22 25  1  0  0  0  0
 23 25  2  0  0  0  0
 25 24  1  0  0  0  0
M  END
>  <MODEL>
6

>  <REMARK>
 VINA RESULT:      -8.1      3.402      5.412
  Name = 
  4 active torsions:
  status: ('A' for Active; 'I' for Inactive)
    1  A    between atoms: C_1  and  C_5
    2  A    between atoms: C_2  and  C_6
    3  A    between atoms: C_2  and  C_21
    4  A    between atoms: C_6  and  C_23
                            x       y       z     vdW  Elec       q    Type
                         _______ _______ _______ _____ _____    ______ ____

>  <TORSDO>
F 4

$$$$
=
 OpenBabel10272400453D

 25 28  0  0  1  0  0  0  0  0999 V2000
  189.1800  176.2880  143.5290 C   0  0  1  0  0  3  0  0  0  0  0  0
  188.4920  177.5350  142.9710 C   0  0  2  0  0  3  0  0  0  0  0  0
  190.8320  176.5810  140.1750 C   0  0  0  0  0  1  0  0  0  0  0  0
  190.0090  176.7570  141.4040 C   0  0  0  0  0  0  0  0  0  0  0  0
  188.4400  178.6600  140.6380 C   0  0  1  0  0  3  0  0  0  0  0  0
  188.9190  178.5580  139.2000 C   0  0  0  0  0  1  0  0  0  0  0  0
  186.9810  177.3590  142.9010 C   0  0  0  0  0  2  0  0  0  0  0  0
  190.1830  175.9240  142.5370 N   0  0  0  0  0  2  0  0  0  0  0  0
  186.9150  178.5310  140.6620 C   0  0  0  0  0  2  0  0  0  0  0  0
  186.3620  178.5130  142.1010 C   0  0  1  0  0  3  0  0  0  0  0  0
  189.0400  177.6480  141.5890 C   0  0  0  0  0  0  0  0  0  0  0  0
  189.8160  176.5680  144.8570 C   0  0  0  0  0  0  0  0  0  0  0  0
  190.9950  177.1290  147.3390 C   0  0  0  0  0  3  0  0  0  0  0  0
  189.0200  176.9580  145.9460 C   0  0  0  0  0  0  0  0  0  0  0  0
  189.6110  177.2350  147.1820 C   0  0  0  0  0  3  0  0  0  0  0  0
  191.7950  176.7460  146.2580 C   0  0  0  0  0  3  0  0  0  0  0  0
  187.6760  177.0710  145.8110 F   0  0  0  0  0  0  0  0  0  0  0  0
  191.2070  176.4680  145.0210 C   0  0  0  0  0  3  0  0  0  0  0  0
  184.8270  178.4570  142.1750 C   0  0  1  0  0  0  0  0  0  0  0  0
  184.1390  178.4550  143.4850 C   0  0  0  0  0  2  0  0  0  0  0  0
  184.2670  179.6300  142.7100 O   0  0  0  0  0  0  0  0  0  0  0  0
  184.0280  177.9490  140.9840 C   0  0  0  0  0  2  0  0  0  0  0  0
  182.2220  179.2940  140.2060 O   0  0  0  0  0  1  0  0  0  0  0  0
  184.3070  179.9380  139.5060 O   0  0  0  0  0  0  0  0  0  0  0  0
  183.4630  179.0850  140.2040 C   0  0  0  0  0  0  0  0  0  0  0  0
  1 12  1  1  0  0  0
  2  7  1  6  0  0  0
  2  1  1  0  0  0  0
  3  4  1  0  0  0  0
  4 11  2  0  0  0  0
  4  8  1  0  0  0  0
  5  6  1  6  0  0  0
  5  9  1  0  0  0  0
  5 11  1  0  0  0  0
  8  1  1  0  0  0  0
 10  9  1  6  0  0  0
 10 19  1  0  0  0  0
 10  7  1  0  0  0  0
 11  2  1  0  0  0  0
 12 18  2  0  0  0  0
 12 14  1  0  0  0  0
 14 15  2  0  0  0  0
 15 13  1  0  0  0  0
 16 13  2  0  0  0  0
 17 14  1  0  0  0  0
 18 16  1  0  0  0  0
 19 22  1  6  0  0  0
 19 21  1  0  0  0  0
 19 20  1  0  0  0  0
 21 20  1  0  0  0  0
 24 25  2  0  0  0  0
 25 23  1  0  0  0  0
 25 22  1  0  0  0  0
M  END
>  <MODEL>
7

>  <REMARK>
 VINA RESULT:      -8.0      2.587      5.373
  Name = 
  4 active torsions:
  status: ('A' for Active; 'I' for Inactive)
    1  A    between atoms: C_1  and  C_5
    2  A    between atoms: C_2  and  C_6
    3  A    between atoms: C_2  and  C_21
    4  A    between atoms: C_6  and  C_23
                            x       y       z     vdW  Elec       q    Type
                         _______ _______ _______ _____ _____    ______ ____

>  <TORSDO>
F 4

$$$$
=
 OpenBabel10272400453D

 25 28  0  0  1  0  0  0  0  0999 V2000
  186.1960  179.1110  142.6620 C   0  0  1  0  0  3  0  0  0  0  0  0
  186.9000  177.8470  143.1590 C   0  0  2  0  0  3  0  0  0  0  0  0
  188.5360  178.4200  139.8140 C   0  0  0  0  0  1  0  0  0  0  0  0
  187.7480  178.4010  141.0780 C   0  0  0  0  0  0  0  0  0  0  0  0
  188.9600  176.5050  142.3440 C   0  0  1  0  0  3  0  0  0  0  0  0
  190.0740  176.4460  141.3130 C   0  0  0  0  0  1  0  0  0  0  0  0
  187.6020  178.0820  144.4910 C   0  0  0  0  0  2  0  0  0  0  0  0
  186.7060  179.3320  141.3160 N   0  0  0  0  0  0  0  0  0  0  0  0
  189.5790  176.7030  143.7310 C   0  0  0  0  0  2  0  0  0  0  0  0
  188.5030  176.8850  144.8200 C   0  0  1  0  0  3  0  0  0  0  0  0
  187.9200  177.5760  142.1060 C   0  0  1  0  0  3  0  0  0  0  0  0
  184.7080  178.9320  142.6490 C   0  0  0  0  0  0  0  0  0  0  0  0
  181.9270  178.5690  142.6470 C   0  0  0  0  0  3  0  0  0  0  0  0
  183.9720  179.1070  143.8310 C   0  0  0  0  0  0  0  0  0  0  0  0
  182.5850  178.9260  143.8270 C   0  0  0  0  0  3  0  0  0  0  0  0
  182.6540  178.3900  141.4670 C   0  0  0  0  0  3  0  0  0  0  0  0
  184.5940  179.4480  144.9870 F   0  0  0  0  0  0  0  0  0  0  0  0
  184.0400  178.5690  141.4680 C   0  0  0  0  0  3  0  0  0  0  0  0
  189.0750  177.0170  146.2410 C   0  0  1  0  0  0  0  0  0  0  0  0
  190.5380  177.0280  146.4620 C   0  0  0  0  0  2  0  0  0  0  0  0
  189.7780  178.2190  146.4320 O   0  0  0  0  0  0  0  0  0  0  0  0
  188.2060  176.6800  147.4440 C   0  0  0  0  0  2  0  0  0  0  0  0
  188.3540  178.2970  149.1870 O   0  0  0  0  0  1  0  0  0  0  0  0
  186.7300  178.6810  147.6160 O   0  0  0  0  0  0  0  0  0  0  0  0
  187.7650  177.9200  148.1410 C   0  0  0  0  0  0  0  0  0  0  0  0
  1 12  1  6  0  0  0
  1  2  1  0  0  0  0
  2  7  1  1  0  0  0
  3  4  1  0  0  0  0
  4  8  2  0  0  0  0
  5  6  1  6  0  0  0
  5  9  1  0  0  0  0
  7 10  1  0  0  0  0
  8  1  1  0  0  0  0
 10  9  1  6  0  0  0
 10 19  1  0  0  0  0
 11  4  1  1  0  0  0
 11  5  1  0  0  0  0
 11  2  1  0  0  0  0
 12 14  1  0  0  0  0
 13 15  1  0  0  0  0
 14 17  1  0  0  0  0
 15 14  2  0  0  0  0
 16 18  1  0  0  0  0
 16 13  2  0  0  0  0
 18 12  2  0  0  0  0
 19 21  1  0  0  0  0
 19 20  1  0  0  0  0
 19 22  1  1  0  0  0
 21 20  1  0  0  0  0
 22 25  1  0  0  0  0
 24 25  2  0  0  0  0
 25 23  1  0  0  0  0
M  END
>  <MODEL>
8

>  <REMARK>
 VINA RESULT:      -7.9      3.444      5.397
  Name = 
  4 active torsions:
  status: ('A' for Active; 'I' for Inactive)
    1  A    between atoms: C_1  and  C_5
    2  A    between atoms: C_2  and  C_6
    3  A    between atoms: C_2  and  C_21
    4  A    between atoms: C_6  and  C_23
                            x       y       z     vdW  Elec       q    Type
                         _______ _______ _______ _____ _____    ______ ____

>  <TORSDO>
F 4

$$$$
=
 OpenBabel10272400453D

 25 28  0  0  1  0  0  0  0  0999 V2000
  187.0890  176.9560  143.9370 C   0  0  1  0  0  3  0  0  0  0  0  0
  186.9370  178.0500  142.8790 C   0  0  2  0  0  3  0  0  0  0  0  0
  190.1250  176.3410  141.8220 C   0  0  0  0  0  1  0  0  0  0  0  0
  188.8660  176.8490  142.4360 C   0  0  0  0  0  0  0  0  0  0  0  0
  188.1410  178.5600  140.6420 C   0  0  1  0  0  3  0  0  0  0  0  0
  189.2070  178.0850  139.6710 C   0  0  0  0  0  1  0  0  0  0  0  0
  185.6220  177.9210  142.1210 C   0  0  0  0  0  2  0  0  0  0  0  0
  188.3670  176.3180  143.6510 N   0  0  0  0  0  2  0  0  0  0  0  0
  186.7770  178.5000  139.9490 C   0  0  0  0  0  2  0  0  0  0  0  0
  185.6270  178.8630  140.9100 C   0  0  1  0  0  3  0  0  0  0  0  0
  188.0710  177.7950  141.9450 C   0  0  0  0  0  0  0  0  0  0  0  0
  187.0750  177.5330  145.3200 C   0  0  0  0  0  0  0  0  0  0  0  0
  187.0440  178.6480  147.8930 C   0  0  0  0  0  3  0  0  0  0  0  0
  185.9100  178.1420  145.8120 C   0  0  0  0  0  0  0  0  0  0  0  0
  185.8970  178.6960  147.0960 C   0  0  0  0  0  3  0  0  0  0  0  0
  188.2090  178.0470  147.4080 C   0  0  0  0  0  3  0  0  0  0  0  0
  184.7900  178.2030  145.0500 F   0  0  0  0  0  0  0  0  0  0  0  0
  188.2250  177.4930  146.1250 C   0  0  0  0  0  3  0  0  0  0  0  0
  184.2430  178.8850  140.2400 C   0  0  1  0  0  0  0  0  0  0  0  0
  183.9300  179.8910  139.2020 C   0  0  0  0  0  2  0  0  0  0  0  0
  184.2990  178.5680  138.8720 O   0  0  0  0  0  0  0  0  0  0  0  0
  183.0590  178.2150  140.9220 C   0  0  0  0  0  2  0  0  0  0  0  0
  182.8180  176.1210  139.8120 O   0  0  0  0  0  1  0  0  0  0  0  0
  181.2100  177.6840  139.3350 O   0  0  0  0  0  0  0  0  0  0  0  0
  182.3690  177.2840  139.9860 C   0  0  0  0  0  0  0  0  0  0  0  0
  1 12  1  1  0  0  0
  2  7  1  6  0  0  0
  2  1  1  0  0  0  0
  3  4  1  0  0  0  0
  4  8  1  0  0  0  0
  5  6  1  6  0  0  0
  5 11  1  0  0  0  0
  8  1  1  0  0  0  0
  9  5  1  0  0  0  0
 10  9  1  6  0  0  0
 10  7  1  0  0  0  0
 11  4  2  0  0  0  0
 11  2  1  0  0  0  0
 12 14  2  0  0  0  0
 12 18  1  0  0  0  0
 14 15  1  0  0  0  0
 15 13  2  0  0  0  0
 16 13  1  0  0  0  0
 17 14  1  0  0  0  0
 18 16  2  0  0  0  0
 19 10  1  0  0  0  0
 19 22  1  1  0  0  0
 20 19  1  0  0  0  0
 21 20  1  0  0  0  0
 21 19  1  0  0  0  0
 23 25  1  0  0  0  0
 24 25  2  0  0  0  0
 25 22  1  0  0  0  0
M  END
>  <MODEL>
9

>  <REMARK>
 VINA RESULT:      -7.9      2.594      4.675
  Name = 
  4 active torsions:
  status: ('A' for Active; 'I' for Inactive)
    1  A    between atoms: C_1  and  C_5
    2  A    between atoms: C_2  and  C_6
    3  A    between atoms: C_2  and  C_21
    4  A    between atoms: C_6  and  C_23
                            x       y       z     vdW  Elec       q    Type
                         _______ _______ _______ _____ _____    ______ ____

>  <TORSDO>
F 4

$$$$
