=
 OpenBabel10272401213D

 55 59  0  0  1  0  0  0  0  0999 V2000
  184.0550  177.4820  139.4240 C   0  0  2  0  0  3  0  0  0  0  0  0
  184.2310  178.8070  138.6960 C   0  0  0  0  0  2  0  0  0  0  0  0
  183.5450  177.6470  137.9910 C   0  0  1  0  0  0  0  0  0  0  0  0
  183.3370  174.6210  136.0400 C   0  0  0  0  0  0  0  0  0  0  0  0
  187.0300  174.1980  136.8880 C   0  0  1  0  0  3  0  0  0  0  0  0
  186.6770  175.2490  136.0280 O   0  0  0  0  0  0  0  0  0  0  0  0
  184.3160  176.8390  136.9920 C   0  0  0  0  0  0  0  0  0  0  0  0
  183.8820  171.8860  137.1230 C   0  0  0  0  0  1  0  0  0  0  0  0
  183.8010  175.7420  136.5030 C   0  0  0  0  0  0  0  0  0  0  0  0
  185.6140  177.3520  136.4550 C   0  0  0  0  0  2  0  0  0  0  0  0
  183.6170  172.9710  134.3500 O   0  0  0  0  0  1  0  0  0  0  0  0
  184.9410  172.6700  136.3620 C   0  0  1  0  0  0  0  0  0  0  0  0
  181.9960  174.3030  136.2150 O   0  0  0  0  0  1  0  0  0  0  0  0
  185.8180  173.3970  137.3990 C   0  0  0  0  0  2  0  0  0  0  0  0
  186.7850  176.4250  136.7890 C   0  0  2  0  0  3  0  0  0  0  0  0
  185.7150  171.7510  135.6520 O   0  0  0  0  0  1  0  0  0  0  0  0
  184.2760  173.6540  135.3770 C   0  0  2  0  0  3  0  0  0  0  0  0
  188.4810  176.8780  135.1460 O   0  0  0  0  0  1  0  0  0  0  0  0
  188.0980  177.1440  136.4630 C   0  0  1  0  0  3  0  0  0  0  0  0
  187.9490  178.5120  136.6180 F   0  0  0  0  0  0  0  0  0  0  0  0
  189.2770  173.3520  137.1190 O   0  0  0  0  0  1  0  0  0  0  0  0
  188.1440  173.3340  136.2990 C   0  0  0  0  0  2  0  0  0  0  0  0
  182.9450  177.6010  140.4620 C   0  0  0  0  0  2  0  0  0  0  0  0
  182.5230  179.0220  142.4160 C   0  0  0  0  0  2  0  0  0  0  0  0
  183.4070  178.4270  141.6180 C   0  0  0  0  0  0  0  0  0  0  0  0
  184.8570  178.4570  141.9590 C   0  0  0  0  0  2  0  0  0  0  0  0
  185.1290  177.5280  142.9640 O   0  0  0  0  0  0  0  0  0  0  0  0
  185.8980  178.2270  143.8990 C   0  0  2  0  0  3  0  0  0  0  0  0
  186.7000  177.2470  144.7600 C   0  0  0  0  0  2  0  0  0  0  0  0
  188.1730  177.1470  144.3480 C   0  0  2  0  0  3  0  0  0  0  0  0
  189.5570  178.8280  142.8040 O   0  0  0  0  0  1  0  0  0  0  0  0
  189.9830  177.3750  141.0630 C   0  0  2  0  0  3  0  0  0  0  0  0
  189.8040  175.9800  142.8730 C   0  0  0  0  0  2  0  0  0  0  0  0
  188.8870  176.6250  141.8150 C   0  0  1  0  0  0  0  0  0  0  0  0
  188.9310  178.1830  141.7350 C   0  0  1  0  0  3  0  0  0  0  0  0
  188.3770  176.1390  143.2130 C   0  0  2  0  0  3  0  0  0  0  0  0
  189.7040  177.3040  139.5740 C   0  0  2  0  0  3  0  0  0  0  0  0
  190.6760  176.3450  138.9170 C   0  0  0  0  0  1  0  0  0  0  0  0
  189.8500  178.5560  139.0100 F   0  0  0  0  0  0  0  0  0  0  0  0
  189.3210  177.9910  146.3640 C   0  0  1  0  0  3  0  0  0  0  0  0
  190.2670  177.4990  145.4440 O   0  0  0  0  0  0  0  0  0  0  0  0
  189.0540  176.7920  145.5380 C   0  0  2  0  0  3  0  0  0  0  0  0
  189.7160  177.5570  147.7590 C   0  0  0  0  0  2  0  0  0  0  0  0
  187.8190  177.7910  148.8600 C   0  0  0  0  0  1  0  0  0  0  0  0
  189.0760  178.3670  148.6990 O   0  0  0  0  0  0  0  0  0  0  0  0
  185.0180  179.1550  144.7420 C   0  0  0  0  0  2  0  0  0  0  0  0
  185.2830  179.0390  146.2090 C   0  0  0  0  0  0  0  0  0  0  0  0
  184.4880  178.2240  147.0050 O   0  0  0  0  0  1  0  0  0  0  0  0
  186.2110  179.7120  146.7310 O   0  0  0  0  0  0  0  0  0  0  0  0
  182.1460  177.7060  137.8610 O   0  0  0  0  0  0  0  0  0  0  0  0
  181.8690  178.6820  136.8910 C   0  0  0  0  0  2  0  0  0  0  0  0
  180.8840  179.7070  137.4300 C   0  0  1  0  0  0  0  0  0  0  0  0
  180.1090  179.1340  138.4210 F   0  0  0  0  0  0  0  0  0  0  0  0
  181.5740  180.8020  137.9510 O   0  0  0  0  0  1  0  0  0  0  0  0
  179.9820  180.1720  136.3040 C   0  0  0  0  0  1  0  0  0  0  0  0
  1 23  1  1  0  0  0
  2  1  1  0  0  0  0
  3 50  1  6  0  0  0
  3  2  1  0  0  0  0
  3  1  1  0  0  0  0
  4 13  1  0  0  0  0
  4  9  2  0  0  0  0
  5 22  1  6  0  0  0
  5 14  1  0  0  0  0
  6 15  1  0  0  0  0
  6  5  1  0  0  0  0
  7  3  1  0  0  0  0
  9  7  2  0  0  0  0
 10 15  1  0  0  0  0
 10  7  1  0  0  0  0
 12  8  1  1  0  0  0
 12 14  1  0  0  0  0
 15 19  1  6  0  0  0
 16 12  1  0  0  0  0
 17 11  1  6  0  0  0
 17  4  1  0  0  0  0
 17 12  1  0  0  0  0
 19 18  1  6  0  0  0
 19 20  1  0  0  0  0
 22 21  1  0  0  0  0
 23 25  1  0  0  0  0
 25 26  1  0  0  0  0
 25 24  2  0  0  0  0
 26 27  1  0  0  0  0
 27 28  1  0  0  0  0
 28 46  1  1  0  0  0
 28 29  1  0  0  0  0
 30 29  1  1  0  0  0
 32 37  1  6  0  0  0
 32 35  1  0  0  0  0
 32 34  1  0  0  0  0
 33 36  1  0  0  0  0
 34 33  1  1  0  0  0
 34 36  1  0  0  0  0
 35 34  1  0  0  0  0
 35 31  1  1  0  0  0
 36 30  1  1  0  0  0
 37 38  1  6  0  0  0
 39 37  1  0  0  0  0
 40 43  1  1  0  0  0
 41 42  1  0  0  0  0
 41 40  1  0  0  0  0
 42 30  1  6  0  0  0
 42 40  1  0  0  0  0
 43 45  1  0  0  0  0
 45 44  1  0  0  0  0
 46 47  1  0  0  0  0
 47 49  2  0  0  0  0
 47 48  1  0  0  0  0
 51 52  1  0  0  0  0
 51 50  1  0  0  0  0
 52 55  1  6  0  0  0
 52 54  1  0  0  0  0
 52 53  1  0  0  0  0
M  END
>  <MODEL>
1

>  <REMARK>
 VINA RESULT:      -7.2      0.000      0.000
  Name = 
  20 active torsions:
  status: ('A' for Active; 'I' for Inactive)
    1  A    between atoms: C_2  and  C_24
    2  A    between atoms: C_3  and  C_14
    3  A    between atoms: C_4  and  C_37
    4  A    between atoms: C_8  and  C_43
    5  A    between atoms: C_9  and  C_33
    6  A    between atoms: C_9  and  C_49
    7  A    between atoms: C_10  and  C_32
    8  A    between atoms: C_16  and  C_17
    9  A    between atoms: C_17  and  O_23
   10  A    between atoms: C_19  and  C_40
   11  A    between atoms: C_19  and  O_45
   12  A    between atoms: C_20  and  C_46
   13  A    between atoms: C_24  and  C_49
   14  A    between atoms: C_27  and  C_54
   15  A    between atoms: C_33  and  C_36
   16  A    between atoms: C_33  and  C_52
   17  A    between atoms: C_37  and  C_40
   18  A    between atoms: C_43  and  O_51
   19  A    between atoms: O_45  and  C_49
   20  A    between atoms: O_51  and  C_54
                            x       y       z     vdW  Elec       q    Type
                         _______ _______ _______ _____ _____    ______ ____

>  <TORSDO>
F 20

$$$$
=
 OpenBabel10272401213D

 55 59  0  0  1  0  0  0  0  0999 V2000
  183.9110  178.1010  140.7330 C   0  0  2  0  0  3  0  0  0  0  0  0
  184.6920  179.3430  140.3300 C   0  0  0  0  0  2  0  0  0  0  0  0
  183.5630  178.8460  139.4420 C   0  0  1  0  0  0  0  0  0  0  0  0
  182.0490  176.7340  136.9400 C   0  0  0  0  0  0  0  0  0  0  0  0
  185.2520  174.6810  137.1910 C   0  0  1  0  0  3  0  0  0  0  0  0
  185.3440  175.9630  136.6260 O   0  0  0  0  0  0  0  0  0  0  0  0
  183.8940  178.0710  138.2030 C   0  0  0  0  0  0  0  0  0  0  0  0
  181.4350  173.8340  137.3420 C   0  0  0  0  0  1  0  0  0  0  0  0
  182.9540  177.4270  137.5650 C   0  0  0  0  0  0  0  0  0  0  0  0
  185.2710  178.1390  137.6220 C   0  0  0  0  0  2  0  0  0  0  0  0
  181.5610  175.5800  134.9190 O   0  0  0  0  0  1  0  0  0  0  0  0
  182.7010  174.2930  136.6320 C   0  0  1  0  0  0  0  0  0  0  0  0
  180.7040  176.9440  137.2180 O   0  0  0  0  0  1  0  0  0  0  0  0
  183.8330  174.3310  137.6750 C   0  0  0  0  0  2  0  0  0  0  0  0
  185.9570  176.7720  137.5970 C   0  0  2  0  0  3  0  0  0  0  0  0
  182.9970  173.3470  135.6490 O   0  0  0  0  0  1  0  0  0  0  0  0
  182.4770  175.6690  135.9720 C   0  0  2  0  0  3  0  0  0  0  0  0
  187.8310  178.2770  137.5390 O   0  0  0  0  0  1  0  0  0  0  0  0
  187.4400  176.9650  137.2620 C   0  0  1  0  0  3  0  0  0  0  0  0
  188.2190  176.0980  138.0080 F   0  0  0  0  0  0  0  0  0  0  0  0
  187.0150  173.0610  136.8990 O   0  0  0  0  0  1  0  0  0  0  0  0
  185.8840  173.6200  136.2930 C   0  0  0  0  0  2  0  0  0  0  0  0
  182.9600  178.4290  141.8780 C   0  0  0  0  0  2  0  0  0  0  0  0
  183.1060  178.9320  144.2740 C   0  0  0  0  0  2  0  0  0  0  0  0
  183.7350  178.7410  143.1160 C   0  0  0  0  0  0  0  0  0  0  0  0
  185.2230  178.6860  143.0780 C   0  0  0  0  0  2  0  0  0  0  0  0
  185.6650  177.4270  143.4890 O   0  0  0  0  0  0  0  0  0  0  0  0
  186.6520  177.6890  144.4430 C   0  0  2  0  0  3  0  0  0  0  0  0
  187.9500  176.9670  144.0700 C   0  0  0  0  0  2  0  0  0  0  0  0
  189.1970  177.8420  144.2330 C   0  0  2  0  0  3  0  0  0  0  0  0
  189.5460  175.6630  142.7310 O   0  0  0  0  0  1  0  0  0  0  0  0
  189.9720  176.7290  140.7290 C   0  0  2  0  0  3  0  0  0  0  0  0
  188.6330  178.2220  141.8380 C   0  0  0  0  0  2  0  0  0  0  0  0
  190.1320  177.8800  141.7180 C   0  0  1  0  0  0  0  0  0  0  0  0
  190.5250  176.4110  142.0730 C   0  0  1  0  0  3  0  0  0  0  0  0
  189.5150  178.6200  142.9530 C   0  0  2  0  0  3  0  0  0  0  0  0
  191.0960  176.7860  139.7120 C   0  0  2  0  0  3  0  0  0  0  0  0
  192.3090  177.4520  140.3280 C   0  0  0  0  0  1  0  0  0  0  0  0
  190.6920  177.5090  138.6080 F   0  0  0  0  0  0  0  0  0  0  0  0
  190.7300  177.2700  146.0830 C   0  0  1  0  0  3  0  0  0  0  0  0
  191.4490  177.8730  145.0330 O   0  0  0  0  0  0  0  0  0  0  0  0
  190.4000  177.0130  144.6630 C   0  0  2  0  0  3  0  0  0  0  0  0
  191.5320  176.1070  146.6260 C   0  0  0  0  0  2  0  0  0  0  0  0
  192.9740  175.7320  148.2530 C   0  0  0  0  0  1  0  0  0  0  0  0
  191.7150  176.2690  148.0010 O   0  0  0  0  0  0  0  0  0  0  0  0
  186.1640  177.3180  145.8470 C   0  0  0  0  0  2  0  0  0  0  0  0
  186.4720  178.3650  146.8700 C   0  0  0  0  0  0  0  0  0  0  0  0
  185.5780  179.4030  147.1040 O   0  0  0  0  0  0  0  0  0  0  0  0
  187.5630  178.3240  147.4970 O   0  0  0  0  0  1  0  0  0  0  0  0
  182.3510  179.5590  139.4760 O   0  0  0  0  0  0  0  0  0  0  0  0
  182.5070  180.6640  138.6240 C   0  0  0  0  0  2  0  0  0  0  0  0
  181.1560  181.1360  138.1100 C   0  0  1  0  0  0  0  0  0  0  0  0
  180.1630  180.7670  138.9980 F   0  0  0  0  0  0  0  0  0  0  0  0
  181.1610  182.5240  137.9670 O   0  0  0  0  0  1  0  0  0  0  0  0
  180.8820  180.4940  136.7650 C   0  0  0  0  0  1  0  0  0  0  0  0
  1 23  1  1  0  0  0
  2  1  1  0  0  0  0
  3 50  1  6  0  0  0
  3  2  1  0  0  0  0
  3  1  1  0  0  0  0
  4 13  1  0  0  0  0
  4  9  2  0  0  0  0
  5 22  1  6  0  0  0
  5 14  1  0  0  0  0
  6  5  1  0  0  0  0
  6 15  1  0  0  0  0
  7  3  1  0  0  0  0
  9  7  2  0  0  0  0
 10  7  1  0  0  0  0
 12  8  1  1  0  0  0
 12 14  1  0  0  0  0
 15 19  1  6  0  0  0
 15 10  1  0  0  0  0
 16 12  1  0  0  0  0
 17 11  1  6  0  0  0
 17 12  1  0  0  0  0
 17  4  1  0  0  0  0
 19 18  1  1  0  0  0
 19 20  1  0  0  0  0
 22 21  1  0  0  0  0
 23 25  1  0  0  0  0
 25 24  2  0  0  0  0
 26 25  1  0  0  0  0
 26 27  1  0  0  0  0
 27 28  1  0  0  0  0
 28 29  1  6  0  0  0
 28 46  1  0  0  0  0
 30 29  1  6  0  0  0
 32 37  1  6  0  0  0
 32 34  1  0  0  0  0
 32 35  1  0  0  0  0
 33 36  1  0  0  0  0
 34 33  1  1  0  0  0
 34 35  1  0  0  0  0
 34 36  1  0  0  0  0
 35 31  1  1  0  0  0
 36 30  1  1  0  0  0
 37 38  1  1  0  0  0
 39 37  1  0  0  0  0
 40 43  1  6  0  0  0
 41 40  1  0  0  0  0
 42 30  1  1  0  0  0
 42 41  1  0  0  0  0
 42 40  1  0  0  0  0
 43 45  1  0  0  0  0
 45 44  1  0  0  0  0
 46 47  1  0  0  0  0
 47 48  2  0  0  0  0
 47 49  1  0  0  0  0
 51 50  1  0  0  0  0
 52 55  1  6  0  0  0
 52 51  1  0  0  0  0
 52 53  1  0  0  0  0
 54 52  1  0  0  0  0
M  END
>  <MODEL>
2

>  <REMARK>
 VINA RESULT:      -5.8      1.710      2.245
  Name = 
  20 active torsions:
  status: ('A' for Active; 'I' for Inactive)
    1  A    between atoms: C_2  and  C_24
    2  A    between atoms: C_3  and  C_14
    3  A    between atoms: C_4  and  C_37
    4  A    between atoms: C_8  and  C_43
    5  A    between atoms: C_9  and  C_33
    6  A    between atoms: C_9  and  C_49
    7  A    between atoms: C_10  and  C_32
    8  A    between atoms: C_16  and  C_17
    9  A    between atoms: C_17  and  O_23
   10  A    between atoms: C_19  and  C_40
   11  A    between atoms: C_19  and  O_45
   12  A    between atoms: C_20  and  C_46
   13  A    between atoms: C_24  and  C_49
   14  A    between atoms: C_27  and  C_54
   15  A    between atoms: C_33  and  C_36
   16  A    between atoms: C_33  and  C_52
   17  A    between atoms: C_37  and  C_40
   18  A    between atoms: C_43  and  O_51
   19  A    between atoms: O_45  and  C_49
   20  A    between atoms: O_51  and  C_54
                            x       y       z     vdW  Elec       q    Type
                         _______ _______ _______ _____ _____    ______ ____

>  <TORSDO>
F 20

$$$$
=
 OpenBabel10272401213D

 55 59  0  0  1  0  0  0  0  0999 V2000
  184.0990  177.4730  139.1280 C   0  0  2  0  0  3  0  0  0  0  0  0
  184.3490  178.7470  138.3350 C   0  0  0  0  0  2  0  0  0  0  0  0
  183.2300  177.8090  137.9140 C   0  0  1  0  0  0  0  0  0  0  0  0
  181.9850  174.7460  136.4710 C   0  0  0  0  0  0  0  0  0  0  0  0
  185.6490  173.9630  135.7640 C   0  0  1  0  0  3  0  0  0  0  0  0
  185.0570  175.0120  135.0420 O   0  0  0  0  0  0  0  0  0  0  0  0
  183.4470  176.8830  136.7560 C   0  0  0  0  0  0  0  0  0  0  0  0
  182.7070  172.0140  137.4540 C   0  0  0  0  0  1  0  0  0  0  0  0
  182.6890  175.8290  136.6110 C   0  0  0  0  0  0  0  0  0  0  0  0
  184.4420  177.2310  135.6950 C   0  0  0  0  0  2  0  0  0  0  0  0
  181.4030  173.0090  134.9550 O   0  0  0  0  0  1  0  0  0  0  0  0
  183.4140  172.6490  136.2660 C   0  0  1  0  0  0  0  0  0  0  0  0
  180.8180  174.5810  137.2050 O   0  0  0  0  0  1  0  0  0  0  0  0
  184.6980  173.3180  136.7900 C   0  0  0  0  0  2  0  0  0  0  0  0
  185.5670  176.1980  135.5940 C   0  0  2  0  0  3  0  0  0  0  0  0
  183.7460  171.6240  135.3780 O   0  0  0  0  0  1  0  0  0  0  0  0
  182.4820  173.6580  135.5630 C   0  0  2  0  0  3  0  0  0  0  0  0
  186.8060  178.1370  134.8950 O   0  0  0  0  0  1  0  0  0  0  0  0
  186.6790  176.7590  134.7020 C   0  0  1  0  0  3  0  0  0  0  0  0
  187.8870  176.1520  135.0000 F   0  0  0  0  0  0  0  0  0  0  0  0
  187.7290  173.1510  134.8540 O   0  0  0  0  0  1  0  0  0  0  0  0
  186.3430  172.9620  134.8430 C   0  0  0  0  0  2  0  0  0  0  0  0
  183.4180  177.8070  140.4510 C   0  0  0  0  0  2  0  0  0  0  0  0
  184.0470  178.9920  142.5030 C   0  0  0  0  0  2  0  0  0  0  0  0
  184.4270  178.2820  141.4430 C   0  0  0  0  0  0  0  0  0  0  0  0
  185.8410  177.8290  141.3190 C   0  0  0  0  0  2  0  0  0  0  0  0
  186.6580  178.9060  140.9690 O   0  0  0  0  0  0  0  0  0  0  0  0
  187.7570  178.3270  140.3290 C   0  0  2  0  0  3  0  0  0  0  0  0
  189.0580  178.8050  140.9820 C   0  0  0  0  0  2  0  0  0  0  0  0
  189.6200  177.8130  142.0060 C   0  0  2  0  0  3  0  0  0  0  0  0
  188.0680  176.1080  143.3520 O   0  0  0  0  0  1  0  0  0  0  0  0
  188.4000  176.9810  145.4620 C   0  0  2  0  0  3  0  0  0  0  0  0
  190.3440  177.5090  144.3690 C   0  0  0  0  0  2  0  0  0  0  0  0
  188.9400  178.1080  144.5850 C   0  0  1  0  0  0  0  0  0  0  0  0
  187.7410  177.2080  144.1470 C   0  0  1  0  0  3  0  0  0  0  0  0
  189.8530  178.4760  143.3670 C   0  0  2  0  0  3  0  0  0  0  0  0
  187.5520  177.5750  146.5700 C   0  0  2  0  0  3  0  0  0  0  0  0
  186.4390  178.4100  145.9700 C   0  0  0  0  0  1  0  0  0  0  0  0
  188.3330  178.3730  147.3810 F   0  0  0  0  0  0  0  0  0  0  0  0
  190.9300  177.1470  140.0220 C   0  0  1  0  0  3  0  0  0  0  0  0
  190.5880  176.0070  140.7760 O   0  0  0  0  0  0  0  0  0  0  0  0
  190.9050  177.1700  141.5020 C   0  0  2  0  0  3  0  0  0  0  0  0
  192.3620  177.0150  139.5510 C   0  0  0  0  0  2  0  0  0  0  0  0
  193.6460  176.1240  137.9930 C   0  0  0  0  0  1  0  0  0  0  0  0
  192.3780  176.6580  138.2010 O   0  0  0  0  0  0  0  0  0  0  0  0
  187.7240  178.6110  138.8250 C   0  0  0  0  0  2  0  0  0  0  0  0
  188.3650  177.5320  138.0100 C   0  0  0  0  0  0  0  0  0  0  0  0
  189.3610  177.8410  137.0930 O   0  0  0  0  0  0  0  0  0  0  0  0
  187.9740  176.3420  138.1340 O   0  0  0  0  0  1  0  0  0  0  0  0
  181.9120  178.1980  138.2160 O   0  0  0  0  0  0  0  0  0  0  0  0
  181.5380  179.1450  137.2500 C   0  0  0  0  0  2  0  0  0  0  0  0
  180.9880  180.3970  137.9140 C   0  0  1  0  0  0  0  0  0  0  0  0
  180.0000  180.0520  138.8170 F   0  0  0  0  0  0  0  0  0  0  0  0
  182.0120  181.0710  138.5790 O   0  0  0  0  0  1  0  0  0  0  0  0
  180.3950  181.3040  136.8550 C   0  0  0  0  0  1  0  0  0  0  0  0
  1 23  1  1  0  0  0
  2  1  1  0  0  0  0
  3 50  1  1  0  0  0
  3  2  1  0  0  0  0
  3  1  1  0  0  0  0
  4  9  2  0  0  0  0
  4 13  1  0  0  0  0
  5 22  1  6  0  0  0
  5 14  1  0  0  0  0
  6 15  1  0  0  0  0
  6  5  1  0  0  0  0
  7  3  1  0  0  0  0
  9  7  2  0  0  0  0
 10  7  1  0  0  0  0
 12 14  1  0  0  0  0
 12  8  1  1  0  0  0
 15 19  1  6  0  0  0
 15 10  1  0  0  0  0
 16 12  1  0  0  0  0
 17 11  1  1  0  0  0
 17 12  1  0  0  0  0
 17  4  1  0  0  0  0
 19 18  1  1  0  0  0
 19 20  1  0  0  0  0
 22 21  1  0  0  0  0
 23 25  1  0  0  0  0
 25 24  2  0  0  0  0
 26 25  1  0  0  0  0
 27 26  1  0  0  0  0
 28 46  1  6  0  0  0
 28 27  1  0  0  0  0
 28 29  1  0  0  0  0
 30 29  1  6  0  0  0
 32 37  1  1  0  0  0
 34 33  1  6  0  0  0
 34 32  1  0  0  0  0
 35 31  1  6  0  0  0
 35 34  1  0  0  0  0
 35 32  1  0  0  0  0
 36 30  1  6  0  0  0
 36 33  1  0  0  0  0
 36 34  1  0  0  0  0
 37 38  1  6  0  0  0
 37 39  1  0  0  0  0
 40 43  1  1  0  0  0
 40 41  1  0  0  0  0
 40 42  1  0  0  0  0
 41 42  1  0  0  0  0
 42 30  1  6  0  0  0
 44 45  1  0  0  0  0
 45 43  1  0  0  0  0
 47 49  1  0  0  0  0
 47 46  1  0  0  0  0
 48 47  2  0  0  0  0
 51 52  1  0  0  0  0
 51 50  1  0  0  0  0
 52 55  1  6  0  0  0
 52 54  1  0  0  0  0
 52 53  1  0  0  0  0
M  END
>  <MODEL>
3

>  <REMARK>
 VINA RESULT:      -5.7      2.165      4.605
  Name = 
  20 active torsions:
  status: ('A' for Active; 'I' for Inactive)
    1  A    between atoms: C_2  and  C_24
    2  A    between atoms: C_3  and  C_14
    3  A    between atoms: C_4  and  C_37
    4  A    between atoms: C_8  and  C_43
    5  A    between atoms: C_9  and  C_33
    6  A    between atoms: C_9  and  C_49
    7  A    between atoms: C_10  and  C_32
    8  A    between atoms: C_16  and  C_17
    9  A    between atoms: C_17  and  O_23
   10  A    between atoms: C_19  and  C_40
   11  A    between atoms: C_19  and  O_45
   12  A    between atoms: C_20  and  C_46
   13  A    between atoms: C_24  and  C_49
   14  A    between atoms: C_27  and  C_54
   15  A    between atoms: C_33  and  C_36
   16  A    between atoms: C_33  and  C_52
   17  A    between atoms: C_37  and  C_40
   18  A    between atoms: C_43  and  O_51
   19  A    between atoms: O_45  and  C_49
   20  A    between atoms: O_51  and  C_54
                            x       y       z     vdW  Elec       q    Type
                         _______ _______ _______ _____ _____    ______ ____

>  <TORSDO>
F 20

$$$$
=
 OpenBabel10272401213D

 55 59  0  0  1  0  0  0  0  0999 V2000
  187.5480  177.2760  138.5270 C   0  0  2  0  0  3  0  0  0  0  0  0
  188.6310  178.2210  138.0270 C   0  0  0  0  0  2  0  0  0  0  0  0
  188.9060  177.3350  139.2320 C   0  0  1  0  0  0  0  0  0  0  0  0
  190.9260  177.9400  142.1580 C   0  0  0  0  0  0  0  0  0  0  0  0
  187.8110  176.9550  144.1230 C   0  0  1  0  0  3  0  0  0  0  0  0
  187.7740  178.1630  143.4090 O   0  0  0  0  0  0  0  0  0  0  0  0
  188.8340  177.9270  140.6060 C   0  0  0  0  0  0  0  0  0  0  0  0
  191.5670  175.8620  144.2120 C   0  0  0  0  0  1  0  0  0  0  0  0
  189.8980  177.9510  141.3630 C   0  0  0  0  0  0  0  0  0  0  0  0
  187.5830  178.6090  141.0640 C   0  0  0  0  0  2  0  0  0  0  0  0
  191.8150  178.8410  144.1710 O   0  0  0  0  0  1  0  0  0  0  0  0
  190.4340  176.8590  144.4090 C   0  0  1  0  0  0  0  0  0  0  0  0
  192.1900  177.6680  141.6490 O   0  0  0  0  0  1  0  0  0  0  0  0
  189.1320  176.1830  143.9440 C   0  0  0  0  0  2  0  0  0  0  0  0
  186.9650  177.9250  142.2850 C   0  0  2  0  0  3  0  0  0  0  0  0
  190.3570  177.1420  145.7740 O   0  0  0  0  0  1  0  0  0  0  0  0
  190.7210  178.1580  143.6290 C   0  0  2  0  0  3  0  0  0  0  0  0
  185.4990  179.8190  142.0800 O   0  0  0  0  0  1  0  0  0  0  0  0
  185.5620  178.4940  142.5170 C   0  0  1  0  0  3  0  0  0  0  0  0
  184.6200  177.7500  141.8270 F   0  0  0  0  0  0  0  0  0  0  0  0
  186.7770  178.3860  145.7650 O   0  0  0  0  0  1  0  0  0  0  0  0
  187.3920  177.1440  145.5790 C   0  0  0  0  0  2  0  0  0  0  0  0
  187.4240  176.0810  137.5890 C   0  0  0  0  0  2  0  0  0  0  0  0
  187.3990  176.5280  135.1780 C   0  0  0  0  0  2  0  0  0  0  0  0
  186.7320  176.4870  136.3290 C   0  0  0  0  0  0  0  0  0  0  0  0
  185.2570  176.6990  136.3420 C   0  0  0  0  0  2  0  0  0  0  0  0
  184.7630  176.6940  135.0370 O   0  0  0  0  0  0  0  0  0  0  0  0
  183.4520  176.2230  135.1530 C   0  0  2  0  0  3  0  0  0  0  0  0
  183.0850  176.0480  136.6290 C   0  0  0  0  0  2  0  0  0  0  0  0
  181.9610  176.9840  137.0870 C   0  0  2  0  0  3  0  0  0  0  0  0
  180.2000  178.9150  136.5390 O   0  0  0  0  0  1  0  0  0  0  0  0
  180.7530  180.3420  138.2650 C   0  0  2  0  0  3  0  0  0  0  0  0
  181.2890  178.2780  139.1050 C   0  0  0  0  0  2  0  0  0  0  0  0
  181.9480  179.3930  138.2700 C   0  0  1  0  0  0  0  0  0  0  0  0
  181.2020  179.7930  136.9580 C   0  0  1  0  0  3  0  0  0  0  0  0
  182.4140  177.8980  138.2290 C   0  0  2  0  0  3  0  0  0  0  0  0
  181.2480  181.7670  138.4200 C   0  0  2  0  0  3  0  0  0  0  0  0
  180.9630  182.5470  137.1530 C   0  0  0  0  0  1  0  0  0  0  0  0
  182.6070  181.7680  138.6580 F   0  0  0  0  0  0  0  0  0  0  0  0
  180.9710  174.7430  137.3930 C   0  0  1  0  0  3  0  0  0  0  0  0
  180.2650  175.4470  136.3980 O   0  0  0  0  0  0  0  0  0  0  0  0
  180.7220  176.1990  137.4960 C   0  0  2  0  0  3  0  0  0  0  0  0
  179.9820  174.0060  138.2710 C   0  0  0  0  0  2  0  0  0  0  0  0
  180.6500  172.1550  137.2730 C   0  0  0  0  0  1  0  0  0  0  0  0
  180.4580  172.7200  138.5310 O   0  0  0  0  0  0  0  0  0  0  0  0
  183.2650  174.9310  134.3520 C   0  0  0  0  0  2  0  0  0  0  0  0
  184.0890  173.7950  134.8700 C   0  0  0  0  0  0  0  0  0  0  0  0
  183.5170  172.8250  135.6820 O   0  0  0  0  0  1  0  0  0  0  0  0
  185.3170  173.7390  134.5950 O   0  0  0  0  0  0  0  0  0  0  0  0
  189.7280  176.2110  139.0340 O   0  0  0  0  0  0  0  0  0  0  0  0
  190.9180  176.6770  138.4540 C   0  0  0  0  0  2  0  0  0  0  0  0
  191.3650  175.7490  137.3350 C   0  0  1  0  0  0  0  0  0  0  0  0
  191.2530  176.3950  136.1180 F   0  0  0  0  0  0  0  0  0  0  0  0
  192.6900  175.3620  137.5380 O   0  0  0  0  0  1  0  0  0  0  0  0
  190.4800  174.5190  137.3240 C   0  0  0  0  0  1  0  0  0  0  0  0
  1 23  1  6  0  0  0
  1  3  1  0  0  0  0
  2  1  1  0  0  0  0
  2  3  1  0  0  0  0
  3 50  1  6  0  0  0
  3  7  1  0  0  0  0
  4 17  1  0  0  0  0
  5 22  1  1  0  0  0
  6  5  1  0  0  0  0
  7 10  1  0  0  0  0
  7  9  2  0  0  0  0
  9  4  2  0  0  0  0
 10 15  1  0  0  0  0
 12  8  1  6  0  0  0
 12 16  1  0  0  0  0
 13  4  1  0  0  0  0
 14  5  1  0  0  0  0
 14 12  1  0  0  0  0
 15 19  1  1  0  0  0
 15  6  1  0  0  0  0
 17 11  1  1  0  0  0
 17 12  1  0  0  0  0
 18 19  1  0  0  0  0
 19 20  1  6  0  0  0
 22 21  1  0  0  0  0
 24 25  2  0  0  0  0
 25 26  1  0  0  0  0
 25 23  1  0  0  0  0
 27 28  1  0  0  0  0
 27 26  1  0  0  0  0
 28 46  1  6  0  0  0
 28 29  1  0  0  0  0
 30 29  1  1  0  0  0
 32 34  1  0  0  0  0
 32 37  1  6  0  0  0
 34 33  1  6  0  0  0
 35 31  1  1  0  0  0
 35 32  1  0  0  0  0
 35 34  1  0  0  0  0
 36 30  1  6  0  0  0
 36 34  1  0  0  0  0
 36 33  1  0  0  0  0
 37 38  1  6  0  0  0
 37 39  1  0  0  0  0
 40 42  1  0  0  0  0
 40 43  1  1  0  0  0
 41 40  1  0  0  0  0
 41 42  1  0  0  0  0
 42 30  1  6  0  0  0
 43 45  1  0  0  0  0
 44 45  1  0  0  0  0
 46 47  1  0  0  0  0
 47 48  1  0  0  0  0
 49 47  2  0  0  0  0
 51 50  1  0  0  0  0
 52 55  1  6  0  0  0
 52 54  1  0  0  0  0
 52 51  1  0  0  0  0
 53 52  1  0  0  0  0
M  END
>  <MODEL>
4

>  <REMARK>
 VINA RESULT:      -5.3      2.246     10.019
  Name = 
  20 active torsions:
  status: ('A' for Active; 'I' for Inactive)
    1  A    between atoms: C_2  and  C_24
    2  A    between atoms: C_3  and  C_14
    3  A    between atoms: C_4  and  C_37
    4  A    between atoms: C_8  and  C_43
    5  A    between atoms: C_9  and  C_33
    6  A    between atoms: C_9  and  C_49
    7  A    between atoms: C_10  and  C_32
    8  A    between atoms: C_16  and  C_17
    9  A    between atoms: C_17  and  O_23
   10  A    between atoms: C_19  and  C_40
   11  A    between atoms: C_19  and  O_45
   12  A    between atoms: C_20  and  C_46
   13  A    between atoms: C_24  and  C_49
   14  A    between atoms: C_27  and  C_54
   15  A    between atoms: C_33  and  C_36
   16  A    between atoms: C_33  and  C_52
   17  A    between atoms: C_37  and  C_40
   18  A    between atoms: C_43  and  O_51
   19  A    between atoms: O_45  and  C_49
   20  A    between atoms: O_51  and  C_54
                            x       y       z     vdW  Elec       q    Type
                         _______ _______ _______ _____ _____    ______ ____

>  <TORSDO>
F 20

$$$$
=
 OpenBabel10272401213D

 55 59  0  0  1  0  0  0  0  0999 V2000
  187.2780  177.6770  139.3090 C   0  0  2  0  0  3  0  0  0  0  0  0
  187.7070  176.4970  138.4500 C   0  0  0  0  0  2  0  0  0  0  0  0
  187.0150  177.6850  137.8020 C   0  0  1  0  0  0  0  0  0  0  0  0
  183.7990  179.0680  138.6710 C   0  0  0  0  0  0  0  0  0  0  0  0
  182.5210  175.4930  138.3140 C   0  0  1  0  0  3  0  0  0  0  0  0
  182.9350  176.1550  137.1480 O   0  0  0  0  0  0  0  0  0  0  0  0
  185.5610  177.5850  137.4540 C   0  0  0  0  0  0  0  0  0  0  0  0
  182.2160  178.2510  141.0740 C   0  0  0  0  0  1  0  0  0  0  0  0
  184.6920  178.3540  138.0530 C   0  0  0  0  0  0  0  0  0  0  0  0
  185.1180  176.7010  136.3310 C   0  0  0  0  0  2  0  0  0  0  0  0
  181.5360  179.7990  138.6090 O   0  0  0  0  0  1  0  0  0  0  0  0
  181.9370  177.6670  139.6970 C   0  0  1  0  0  0  0  0  0  0  0  0
  184.1950  180.1560  139.4380 O   0  0  0  0  0  1  0  0  0  0  0  0
  182.7060  176.3370  139.5900 C   0  0  0  0  0  2  0  0  0  0  0  0
  184.1760  175.5930  136.8040 C   0  0  2  0  0  3  0  0  0  0  0  0
  180.5650  177.4260  139.6120 O   0  0  0  0  0  1  0  0  0  0  0  0
  182.3540  178.6650  138.5970 C   0  0  2  0  0  3  0  0  0  0  0  0
  182.7980  174.8120  134.9930 O   0  0  0  0  0  1  0  0  0  0  0  0
  183.9960  174.5750  135.6720 C   0  0  1  0  0  3  0  0  0  0  0  0
  185.0450  174.6660  134.7720 F   0  0  0  0  0  0  0  0  0  0  0  0
  180.7600  174.8150  136.8130 O   0  0  0  0  0  1  0  0  0  0  0  0
  181.1240  174.8950  138.1610 C   0  0  0  0  0  2  0  0  0  0  0  0
  188.4950  178.5090  139.6990 C   0  0  0  0  0  2  0  0  0  0  0  0
  190.1300  176.6900  139.8820 C   0  0  0  0  0  2  0  0  0  0  0  0
  189.4590  177.6740  140.4770 C   0  0  0  0  0  0  0  0  0  0  0  0
  189.7770  178.0480  141.8840 C   0  0  0  0  0  2  0  0  0  0  0  0
  188.7370  177.6550  142.7280 O   0  0  0  0  0  0  0  0  0  0  0  0
  189.3590  177.3470  143.9410 C   0  0  2  0  0  3  0  0  0  0  0  0
  189.0750  178.4430  144.9720 C   0  0  0  0  0  2  0  0  0  0  0  0
  188.2000  177.9660  146.1370 C   0  0  2  0  0  3  0  0  0  0  0  0
  186.3610  176.6070  144.7590 O   0  0  0  0  0  1  0  0  0  0  0  0
  184.5620  177.9830  145.1970 C   0  0  2  0  0  3  0  0  0  0  0  0
  185.8990  178.2750  147.0360 C   0  0  0  0  0  2  0  0  0  0  0  0
  185.7270  178.8720  145.6250 C   0  0  1  0  0  0  0  0  0  0  0  0
  185.8370  177.8610  144.4400 C   0  0  1  0  0  3  0  0  0  0  0  0
  187.0660  178.9500  146.4340 C   0  0  2  0  0  3  0  0  0  0  0  0
  183.5700  178.8110  144.4030 C   0  0  2  0  0  3  0  0  0  0  0  0
  184.2910  179.9560  143.7210 C   0  0  0  0  0  1  0  0  0  0  0  0
  182.6030  179.3200  145.2460 F   0  0  0  0  0  0  0  0  0  0  0  0
  190.1510  176.7950  147.0970 C   0  0  1  0  0  3  0  0  0  0  0  0
  188.9700  176.3600  147.7310 O   0  0  0  0  0  0  0  0  0  0  0  0
  189.0340  177.7230  147.3870 C   0  0  2  0  0  3  0  0  0  0  0  0
  191.2330  176.9760  148.1400 C   0  0  0  0  0  2  0  0  0  0  0  0
  192.7320  175.3610  148.0220 C   0  0  0  0  0  1  0  0  0  0  0  0
  192.4740  176.6580  147.5840 O   0  0  0  0  0  0  0  0  0  0  0  0
  190.8590  177.1140  143.7400 C   0  0  0  0  0  2  0  0  0  0  0  0
  191.2160  175.6660  143.6200 C   0  0  0  0  0  0  0  0  0  0  0  0
  190.3490  174.7770  142.9970 O   0  0  0  0  0  0  0  0  0  0  0  0
  192.2940  175.2450  144.1170 O   0  0  0  0  0  1  0  0  0  0  0  0
  187.8150  178.5760  137.0630 O   0  0  0  0  0  0  0  0  0  0  0  0
  188.8870  177.8280  136.5500 C   0  0  0  0  0  2  0  0  0  0  0  0
  188.6860  177.5550  135.0680 C   0  0  1  0  0  0  0  0  0  0  0  0
  187.5500  178.2040  134.6220 F   0  0  0  0  0  0  0  0  0  0  0  0
  189.7930  178.0050  134.3480 O   0  0  0  0  0  1  0  0  0  0  0  0
  188.5210  176.0640  134.8540 C   0  0  0  0  0  1  0  0  0  0  0  0
  1 23  1  6  0  0  0
  2  1  1  0  0  0  0
  3 50  1  6  0  0  0
  3  2  1  0  0  0  0
  3  1  1  0  0  0  0
  4 13  1  0  0  0  0
  5 22  1  6  0  0  0
  5 14  1  0  0  0  0
  6  5  1  0  0  0  0
  7  3  1  0  0  0  0
  7  9  2  0  0  0  0
  9  4  2  0  0  0  0
 10 15  1  0  0  0  0
 10  7  1  0  0  0  0
 12  8  1  1  0  0  0
 14 12  1  0  0  0  0
 15 19  1  6  0  0  0
 15  6  1  0  0  0  0
 16 12  1  0  0  0  0
 17 11  1  1  0  0  0
 17  4  1  0  0  0  0
 17 12  1  0  0  0  0
 18 19  1  0  0  0  0
 19 20  1  6  0  0  0
 21 22  1  0  0  0  0
 23 25  1  0  0  0  0
 24 25  2  0  0  0  0
 25 26  1  0  0  0  0
 26 27  1  0  0  0  0
 27 28  1  0  0  0  0
 28 46  1  6  0  0  0
 28 29  1  0  0  0  0
 30 29  1  6  0  0  0
 32 37  1  6  0  0  0
 32 34  1  0  0  0  0
 34 36  1  0  0  0  0
 34 33  1  1  0  0  0
 35 31  1  1  0  0  0
 35 32  1  0  0  0  0
 35 34  1  0  0  0  0
 36 30  1  6  0  0  0
 36 33  1  0  0  0  0
 37 38  1  1  0  0  0
 37 39  1  0  0  0  0
 40 42  1  0  0  0  0
 40 41  1  0  0  0  0
 40 43  1  1  0  0  0
 42 30  1  6  0  0  0
 42 41  1  0  0  0  0
 45 44  1  0  0  0  0
 45 43  1  0  0  0  0
 47 46  1  0  0  0  0
 47 49  1  0  0  0  0
 48 47  2  0  0  0  0
 51 50  1  0  0  0  0
 52 55  1  6  0  0  0
 52 51  1  0  0  0  0
 53 52  1  0  0  0  0
 54 52  1  0  0  0  0
M  END
>  <MODEL>
5

>  <REMARK>
 VINA RESULT:      -5.2      2.387      6.025
  Name = 
  20 active torsions:
  status: ('A' for Active; 'I' for Inactive)
    1  A    between atoms: C_2  and  C_24
    2  A    between atoms: C_3  and  C_14
    3  A    between atoms: C_4  and  C_37
    4  A    between atoms: C_8  and  C_43
    5  A    between atoms: C_9  and  C_33
    6  A    between atoms: C_9  and  C_49
    7  A    between atoms: C_10  and  C_32
    8  A    between atoms: C_16  and  C_17
    9  A    between atoms: C_17  and  O_23
   10  A    between atoms: C_19  and  C_40
   11  A    between atoms: C_19  and  O_45
   12  A    between atoms: C_20  and  C_46
   13  A    between atoms: C_24  and  C_49
   14  A    between atoms: C_27  and  C_54
   15  A    between atoms: C_33  and  C_36
   16  A    between atoms: C_33  and  C_52
   17  A    between atoms: C_37  and  C_40
   18  A    between atoms: C_43  and  O_51
   19  A    between atoms: O_45  and  C_49
   20  A    between atoms: O_51  and  C_54
                            x       y       z     vdW  Elec       q    Type
                         _______ _______ _______ _____ _____    ______ ____

>  <TORSDO>
F 20

$$$$
=
 OpenBabel10272401213D

 55 59  0  0  1  0  0  0  0  0999 V2000
  188.6550  175.8970  137.0190 C   0  0  2  0  0  3  0  0  0  0  0  0
  189.3020  174.5530  137.3170 C   0  0  0  0  0  2  0  0  0  0  0  0
  188.8600  174.8750  135.8980 C   0  0  1  0  0  0  0  0  0  0  0  0
  185.3310  175.5870  135.6650 C   0  0  0  0  0  0  0  0  0  0  0  0
  184.8570  171.8870  136.4560 C   0  0  1  0  0  3  0  0  0  0  0  0
  185.4120  172.2200  135.2100 O   0  0  0  0  0  0  0  0  0  0  0  0
  187.5770  174.2970  135.3840 C   0  0  0  0  0  0  0  0  0  0  0  0
  183.3930  175.2110  137.9130 C   0  0  0  0  0  1  0  0  0  0  0  0
  186.4620  174.9670  135.5080 C   0  0  0  0  0  0  0  0  0  0  0  0
  187.5890  173.0160  134.6110 C   0  0  0  0  0  2  0  0  0  0  0  0
  183.0560  175.6500  134.9750 O   0  0  0  0  0  1  0  0  0  0  0  0
  183.5670  174.1620  136.8240 C   0  0  1  0  0  0  0  0  0  0  0  0
  185.3230  176.9270  136.0290 O   0  0  0  0  0  1  0  0  0  0  0  0
  184.5700  173.1150  137.3410 C   0  0  0  0  0  2  0  0  0  0  0  0
  186.7800  171.9160  135.3030 C   0  0  2  0  0  3  0  0  0  0  0  0
  182.3250  173.5620  136.6150 O   0  0  0  0  0  1  0  0  0  0  0  0
  184.0470  174.8230  135.5150 C   0  0  2  0  0  3  0  0  0  0  0  0
  188.4480  170.3940  134.4740 O   0  0  0  0  0  1  0  0  0  0  0  0
  187.0700  170.5780  134.6140 C   0  0  1  0  0  3  0  0  0  0  0  0
  186.5520  169.5310  135.3580 F   0  0  0  0  0  0  0  0  0  0  0  0
  183.3150  170.7790  134.9690 O   0  0  0  0  0  1  0  0  0  0  0  0
  183.6730  170.9330  136.3130 C   0  0  0  0  0  2  0  0  0  0  0  0
  189.7120  176.9960  137.0140 C   0  0  0  0  0  2  0  0  0  0  0  0
  190.9440  177.2970  139.1130 C   0  0  0  0  0  2  0  0  0  0  0  0
  189.8640  177.5700  138.3840 C   0  0  0  0  0  0  0  0  0  0  0  0
  188.8710  178.5690  138.8700 C   0  0  0  0  0  2  0  0  0  0  0  0
  188.7550  178.4900  140.2590 O   0  0  0  0  0  0  0  0  0  0  0  0
  187.3790  178.4860  140.5030 C   0  0  2  0  0  3  0  0  0  0  0  0
  187.0530  177.5430  141.6650 C   0  0  0  0  0  2  0  0  0  0  0  0
  186.9700  178.2580  143.0190 C   0  0  2  0  0  3  0  0  0  0  0  0
  189.4640  179.0390  143.5620 O   0  0  0  0  0  1  0  0  0  0  0  0
  189.8340  177.6640  145.3780 C   0  0  2  0  0  3  0  0  0  0  0  0
  187.5640  177.9830  145.4210 C   0  0  0  0  0  2  0  0  0  0  0  0
  188.5850  177.0280  144.7720 C   0  0  1  0  0  0  0  0  0  0  0  0
  189.6890  177.7020  143.8980 C   0  0  1  0  0  3  0  0  0  0  0  0
  187.1560  177.2850  144.1860 C   0  0  2  0  0  3  0  0  0  0  0  0
  190.8100  176.5720  145.7710 C   0  0  2  0  0  3  0  0  0  0  0  0
  191.1290  176.6800  147.2480 C   0  0  0  0  0  1  0  0  0  0  0  0
  191.9760  176.7020  145.0430 F   0  0  0  0  0  0  0  0  0  0  0  0
  184.6700  178.2060  143.9150 C   0  0  1  0  0  3  0  0  0  0  0  0
  184.6350  178.2990  142.5110 O   0  0  0  0  0  0  0  0  0  0  0  0
  185.6560  179.0140  143.1620 C   0  0  2  0  0  3  0  0  0  0  0  0
  183.6150  179.1230  144.4970 C   0  0  0  0  0  2  0  0  0  0  0  0
  181.5360  178.5000  144.1020 C   0  0  0  0  0  1  0  0  0  0  0  0
  182.5710  179.2720  143.5820 O   0  0  0  0  0  0  0  0  0  0  0  0
  186.6020  178.1320  139.2330 C   0  0  0  0  0  2  0  0  0  0  0  0
  185.1810  178.5980  139.2660 C   0  0  0  0  0  0  0  0  0  0  0  0
  184.8690  179.9230  138.9910 O   0  0  0  0  0  0  0  0  0  0  0  0
  184.2660  177.7910  139.5790 O   0  0  0  0  0  1  0  0  0  0  0  0
  189.8610  175.2050  134.9680 O   0  0  0  0  0  0  0  0  0  0  0  0
  190.8420  174.2060  135.0560 C   0  0  0  0  0  2  0  0  0  0  0  0
  192.2250  174.8250  135.1820 C   0  0  1  0  0  0  0  0  0  0  0  0
  192.4760  175.1460  136.5030 F   0  0  0  0  0  0  0  0  0  0  0  0
  193.1920  173.9270  134.7280 O   0  0  0  0  0  1  0  0  0  0  0  0
  192.2840  176.0890  134.3460 C   0  0  0  0  0  1  0  0  0  0  0  0
  1 23  1  6  0  0  0
  1  2  1  0  0  0  0
  3 50  1  6  0  0  0
  3  1  1  0  0  0  0
  3  2  1  0  0  0  0
  4 13  1  0  0  0  0
  5 22  1  6  0  0  0
  5 14  1  0  0  0  0
  6 15  1  0  0  0  0
  6  5  1  0  0  0  0
  7  9  2  0  0  0  0
  7  3  1  0  0  0  0
  9  4  2  0  0  0  0
 10 15  1  0  0  0  0
 10  7  1  0  0  0  0
 12 14  1  0  0  0  0
 12  8  1  1  0  0  0
 15 19  1  6  0  0  0
 16 12  1  0  0  0  0
 17 11  1  1  0  0  0
 17  4  1  0  0  0  0
 17 12  1  0  0  0  0
 19 18  1  1  0  0  0
 19 20  1  0  0  0  0
 21 22  1  0  0  0  0
 23 25  1  0  0  0  0
 25 26  1  0  0  0  0
 25 24  2  0  0  0  0
 26 27  1  0  0  0  0
 27 28  1  0  0  0  0
 28 46  1  6  0  0  0
 28 29  1  0  0  0  0
 30 29  1  6  0  0  0
 32 37  1  6  0  0  0
 34 32  1  0  0  0  0
 34 33  1  1  0  0  0
 35 31  1  1  0  0  0
 35 34  1  0  0  0  0
 35 32  1  0  0  0  0
 36 30  1  6  0  0  0
 36 34  1  0  0  0  0
 36 33  1  0  0  0  0
 37 38  1  1  0  0  0
 39 37  1  0  0  0  0
 40 43  1  1  0  0  0
 41 42  1  0  0  0  0
 41 40  1  0  0  0  0
 42 30  1  6  0  0  0
 42 40  1  0  0  0  0
 45 44  1  0  0  0  0
 45 43  1  0  0  0  0
 46 47  1  0  0  0  0
 47 49  1  0  0  0  0
 48 47  2  0  0  0  0
 50 51  1  0  0  0  0
 51 52  1  0  0  0  0
 52 55  1  6  0  0  0
 52 53  1  0  0  0  0
 54 52  1  0  0  0  0
M  END
>  <MODEL>
6

>  <REMARK>
 VINA RESULT:      -5.1      3.012      6.549
  Name = 
  20 active torsions:
  status: ('A' for Active; 'I' for Inactive)
    1  A    between atoms: C_2  and  C_24
    2  A    between atoms: C_3  and  C_14
    3  A    between atoms: C_4  and  C_37
    4  A    between atoms: C_8  and  C_43
    5  A    between atoms: C_9  and  C_33
    6  A    between atoms: C_9  and  C_49
    7  A    between atoms: C_10  and  C_32
    8  A    between atoms: C_16  and  C_17
    9  A    between atoms: C_17  and  O_23
   10  A    between atoms: C_19  and  C_40
   11  A    between atoms: C_19  and  O_45
   12  A    between atoms: C_20  and  C_46
   13  A    between atoms: C_24  and  C_49
   14  A    between atoms: C_27  and  C_54
   15  A    between atoms: C_33  and  C_36
   16  A    between atoms: C_33  and  C_52
   17  A    between atoms: C_37  and  C_40
   18  A    between atoms: C_43  and  O_51
   19  A    between atoms: O_45  and  C_49
   20  A    between atoms: O_51  and  C_54
                            x       y       z     vdW  Elec       q    Type
                         _______ _______ _______ _____ _____    ______ ____

>  <TORSDO>
F 20

$$$$
=
 OpenBabel10272401213D

 55 59  0  0  1  0  0  0  0  0999 V2000
  184.4700  177.6290  138.8780 C   0  0  2  0  0  3  0  0  0  0  0  0
  184.3490  178.9190  138.0800 C   0  0  0  0  0  2  0  0  0  0  0  0
  183.3720  177.7830  137.8240 C   0  0  1  0  0  0  0  0  0  0  0  0
  182.2490  174.6700  136.3880 C   0  0  0  0  0  0  0  0  0  0  0  0
  185.9000  174.1760  135.4030 C   0  0  1  0  0  3  0  0  0  0  0  0
  185.1830  175.1940  134.7540 O   0  0  0  0  0  0  0  0  0  0  0  0
  183.5710  176.9020  136.6280 C   0  0  0  0  0  0  0  0  0  0  0  0
  183.2350  171.9780  137.2410 C   0  0  0  0  0  1  0  0  0  0  0  0
  182.8820  175.7990  136.5080 C   0  0  0  0  0  0  0  0  0  0  0  0
  184.4590  177.3470  135.5090 C   0  0  0  0  0  2  0  0  0  0  0  0
  181.6860  172.9300  134.8680 O   0  0  0  0  0  1  0  0  0  0  0  0
  183.8070  172.6890  136.0240 C   0  0  1  0  0  0  0  0  0  0  0  0
  181.1530  174.4040  137.1970 O   0  0  0  0  0  1  0  0  0  0  0  0
  185.0740  173.4390  136.4750 C   0  0  0  0  0  2  0  0  0  0  0  0
  185.6450  176.4020  135.3010 C   0  0  2  0  0  3  0  0  0  0  0  0
  184.1460  171.7120  135.0870 O   0  0  0  0  0  1  0  0  0  0  0  0
  182.7560  173.6430  135.4170 C   0  0  2  0  0  3  0  0  0  0  0  0
  186.6210  178.4510  134.5060 O   0  0  0  0  0  1  0  0  0  0  0  0
  186.6470  177.0630  134.3490 C   0  0  1  0  0  3  0  0  0  0  0  0
  187.9290  176.6070  134.6060 F   0  0  0  0  0  0  0  0  0  0  0  0
  187.9600  173.1420  134.6960 O   0  0  0  0  0  1  0  0  0  0  0  0
  186.5960  173.2490  134.4080 C   0  0  0  0  0  2  0  0  0  0  0  0
  183.9580  177.8430  140.2980 C   0  0  0  0  0  2  0  0  0  0  0  0
  184.7390  179.0350  142.2940 C   0  0  0  0  0  2  0  0  0  0  0  0
  185.0390  178.4170  141.1530 C   0  0  0  0  0  0  0  0  0  0  0  0
  186.4630  178.1600  140.7980 C   0  0  0  0  0  2  0  0  0  0  0  0
  187.2900  178.4850  141.8760 O   0  0  0  0  0  0  0  0  0  0  0  0
  188.5650  178.0680  141.4860 C   0  0  2  0  0  3  0  0  0  0  0  0
  189.5590  178.2710  142.6330 C   0  0  0  0  0  2  0  0  0  0  0  0
  189.2850  177.3630  143.8380 C   0  0  2  0  0  3  0  0  0  0  0  0
  186.8800  176.2980  144.2960 O   0  0  0  0  0  1  0  0  0  0  0  0
  186.4120  177.4140  146.2600 C   0  0  2  0  0  3  0  0  0  0  0  0
  188.7020  177.3030  146.2580 C   0  0  0  0  0  2  0  0  0  0  0  0
  187.5880  178.2290  145.7280 C   0  0  1  0  0  0  0  0  0  0  0  0
  186.5380  177.5600  144.7850 C   0  0  1  0  0  3  0  0  0  0  0  0
  189.0270  178.1740  145.1110 C   0  0  2  0  0  3  0  0  0  0  0  0
  185.3460  178.3590  146.7810 C   0  0  2  0  0  3  0  0  0  0  0  0
  184.4440  178.7870  145.6420 C   0  0  0  0  0  1  0  0  0  0  0  0
  185.9400  179.4750  147.3360 F   0  0  0  0  0  0  0  0  0  0  0  0
  191.2230  176.7630  145.2450 C   0  0  1  0  0  3  0  0  0  0  0  0
  191.6530  177.0570  143.9360 O   0  0  0  0  0  0  0  0  0  0  0  0
  190.4260  176.3790  144.0570 C   0  0  2  0  0  3  0  0  0  0  0  0
  191.9760  175.5510  145.7510 C   0  0  0  0  0  2  0  0  0  0  0  0
  191.7970  176.2400  147.8400 C   0  0  0  0  0  1  0  0  0  0  0  0
  192.7360  175.9080  146.8670 O   0  0  0  0  0  0  0  0  0  0  0  0
  189.0040  178.7830  140.2050 C   0  0  0  0  0  2  0  0  0  0  0  0
  189.4970  177.8450  139.1490 C   0  0  0  0  0  0  0  0  0  0  0  0
  189.0020  177.9210  137.8540 O   0  0  0  0  0  0  0  0  0  0  0  0
  190.3410  176.9590  139.4470 O   0  0  0  0  0  1  0  0  0  0  0  0
  182.0690  177.9220  138.3370 O   0  0  0  0  0  0  0  0  0  0  0  0
  181.4590  178.9620  137.6190 C   0  0  0  0  0  2  0  0  0  0  0  0
  181.0690  180.0980  138.5520 C   0  0  1  0  0  0  0  0  0  0  0  0
  180.1050  180.8860  137.9520 F   0  0  0  0  0  0  0  0  0  0  0  0
  180.5710  179.5810  139.7480 O   0  0  0  0  0  1  0  0  0  0  0  0
  182.2910  180.9460  138.8420 C   0  0  0  0  0  1  0  0  0  0  0  0
  1 23  1  1  0  0  0
  2  1  1  0  0  0  0
  3  2  1  0  0  0  0
  3 50  1  1  0  0  0
  3  1  1  0  0  0  0
  4  9  2  0  0  0  0
  4 13  1  0  0  0  0
  5 22  1  6  0  0  0
  5 14  1  0  0  0  0
  6 15  1  0  0  0  0
  6  5  1  0  0  0  0
  7  3  1  0  0  0  0
  9  7  2  0  0  0  0
 10  7  1  0  0  0  0
 12 14  1  0  0  0  0
 12  8  1  1  0  0  0
 15 19  1  6  0  0  0
 15 10  1  0  0  0  0
 16 12  1  0  0  0  0
 17 11  1  1  0  0  0
 17 12  1  0  0  0  0
 17  4  1  0  0  0  0
 19 18  1  1  0  0  0
 19 20  1  0  0  0  0
 22 21  1  0  0  0  0
 23 25  1  0  0  0  0
 25 24  2  0  0  0  0
 26 25  1  0  0  0  0
 26 27  1  0  0  0  0
 28 46  1  6  0  0  0
 28 27  1  0  0  0  0
 28 29  1  0  0  0  0
 30 29  1  6  0  0  0
 32 37  1  1  0  0  0
 34 33  1  6  0  0  0
 34 32  1  0  0  0  0
 35 31  1  6  0  0  0
 35 34  1  0  0  0  0
 35 32  1  0  0  0  0
 36 30  1  6  0  0  0
 36 34  1  0  0  0  0
 36 33  1  0  0  0  0
 37 38  1  6  0  0  0
 37 39  1  0  0  0  0
 40 43  1  6  0  0  0
 41 42  1  0  0  0  0
 41 40  1  0  0  0  0
 42 30  1  1  0  0  0
 42 40  1  0  0  0  0
 43 45  1  0  0  0  0
 45 44  1  0  0  0  0
 47 49  1  0  0  0  0
 47 46  1  0  0  0  0
 48 47  2  0  0  0  0
 51 50  1  0  0  0  0
 51 52  1  0  0  0  0
 52 55  1  1  0  0  0
 52 54  1  0  0  0  0
 53 52  1  0  0  0  0
M  END
>  <MODEL>
7

>  <REMARK>
 VINA RESULT:      -5.1      2.171      3.944
  Name = 
  20 active torsions:
  status: ('A' for Active; 'I' for Inactive)
    1  A    between atoms: C_2  and  C_24
    2  A    between atoms: C_3  and  C_14
    3  A    between atoms: C_4  and  C_37
    4  A    between atoms: C_8  and  C_43
    5  A    between atoms: C_9  and  C_33
    6  A    between atoms: C_9  and  C_49
    7  A    between atoms: C_10  and  C_32
    8  A    between atoms: C_16  and  C_17
    9  A    between atoms: C_17  and  O_23
   10  A    between atoms: C_19  and  C_40
   11  A    between atoms: C_19  and  O_45
   12  A    between atoms: C_20  and  C_46
   13  A    between atoms: C_24  and  C_49
   14  A    between atoms: C_27  and  C_54
   15  A    between atoms: C_33  and  C_36
   16  A    between atoms: C_33  and  C_52
   17  A    between atoms: C_37  and  C_40
   18  A    between atoms: C_43  and  O_51
   19  A    between atoms: O_45  and  C_49
   20  A    between atoms: O_51  and  C_54
                            x       y       z     vdW  Elec       q    Type
                         _______ _______ _______ _____ _____    ______ ____

>  <TORSDO>
F 20

$$$$
=
 OpenBabel10272401213D

 55 59  0  0  1  0  0  0  0  0999 V2000
  189.3120  175.6580  137.6410 C   0  0  2  0  0  3  0  0  0  0  0  0
  190.0720  174.3670  137.3750 C   0  0  0  0  0  2  0  0  0  0  0  0
  189.5200  175.1680  136.2060 C   0  0  1  0  0  0  0  0  0  0  0  0
  186.1350  176.2360  135.5630 C   0  0  0  0  0  0  0  0  0  0  0  0
  185.1910  172.6140  136.2950 C   0  0  1  0  0  3  0  0  0  0  0  0
  185.9180  172.8730  135.1220 O   0  0  0  0  0  0  0  0  0  0  0  0
  188.2520  174.7180  135.5450 C   0  0  0  0  0  0  0  0  0  0  0  0
  183.9200  176.0900  137.5690 C   0  0  0  0  0  1  0  0  0  0  0  0
  187.2060  175.5000  135.5390 C   0  0  0  0  0  0  0  0  0  0  0  0
  188.2210  173.4330  134.7810 C   0  0  0  0  0  2  0  0  0  0  0  0
  183.9740  176.5240  134.6120 O   0  0  0  0  0  1  0  0  0  0  0  0
  184.1100  175.0150  136.5080 C   0  0  1  0  0  0  0  0  0  0  0  0
  186.2240  177.5740  135.9220 O   0  0  0  0  0  1  0  0  0  0  0  0
  184.9320  173.8760  137.1400 C   0  0  0  0  0  2  0  0  0  0  0  0
  187.2280  172.4310  135.3730 C   0  0  2  0  0  3  0  0  0  0  0  0
  182.8450  174.5430  136.1560 O   0  0  0  0  0  1  0  0  0  0  0  0
  184.8050  175.6070  135.2640 C   0  0  2  0  0  3  0  0  0  0  0  0
  188.7930  170.9220  134.3460 O   0  0  0  0  0  1  0  0  0  0  0  0
  187.4550  171.0620  134.7240 C   0  0  1  0  0  3  0  0  0  0  0  0
  187.1320  170.0480  135.6110 F   0  0  0  0  0  0  0  0  0  0  0  0
  184.2710  170.4530  135.7480 O   0  0  0  0  0  1  0  0  0  0  0  0
  183.9390  171.7850  136.0140 C   0  0  0  0  0  2  0  0  0  0  0  0
  190.2850  176.7650  138.0310 C   0  0  0  0  0  2  0  0  0  0  0  0
  188.9220  178.6950  137.3730 C   0  0  0  0  0  2  0  0  0  0  0  0
  189.5370  178.0210  138.3420 C   0  0  0  0  0  0  0  0  0  0  0  0
  189.3580  178.4300  139.7630 C   0  0  0  0  0  2  0  0  0  0  0  0
  188.4600  177.5690  140.3970 O   0  0  0  0  0  0  0  0  0  0  0  0
  188.5890  177.8580  141.7580 C   0  0  2  0  0  3  0  0  0  0  0  0
  187.4850  178.8240  142.1980 C   0  0  0  0  0  2  0  0  0  0  0  0
  186.5670  178.2410  143.2790 C   0  0  2  0  0  3  0  0  0  0  0  0
  185.8810  179.2700  145.6440 O   0  0  0  0  0  1  0  0  0  0  0  0
  186.8500  177.6570  146.9800 C   0  0  2  0  0  3  0  0  0  0  0  0
  186.3560  176.5120  145.0570 C   0  0  0  0  0  2  0  0  0  0  0  0
  187.5050  177.3620  145.6330 C   0  0  1  0  0  0  0  0  0  0  0  0
  187.1250  178.8090  146.0790 C   0  0  1  0  0  3  0  0  0  0  0  0
  187.2730  177.1570  144.0980 C   0  0  2  0  0  3  0  0  0  0  0  0
  187.9020  177.5960  148.0710 C   0  0  2  0  0  3  0  0  0  0  0  0
  189.2590  177.9410  147.4910 C   0  0  0  0  0  1  0  0  0  0  0  0
  187.9470  176.3250  148.6070 F   0  0  0  0  0  0  0  0  0  0  0  0
  184.5870  178.7430  141.8910 C   0  0  1  0  0  3  0  0  0  0  0  0
  184.1840  178.4010  143.1970 O   0  0  0  0  0  0  0  0  0  0  0  0
  185.2810  177.6940  142.6730 C   0  0  2  0  0  3  0  0  0  0  0  0
  183.6520  178.0860  140.8980 C   0  0  0  0  0  2  0  0  0  0  0  0
  183.5560  179.4490  139.1660 C   0  0  0  0  0  1  0  0  0  0  0  0
  182.8490  179.0600  140.3000 O   0  0  0  0  0  0  0  0  0  0  0  0
  189.9880  178.3960  142.0710 C   0  0  0  0  0  2  0  0  0  0  0  0
  190.5200  177.9170  143.3840 C   0  0  0  0  0  0  0  0  0  0  0  0
  190.9690  176.6100  143.5260 O   0  0  0  0  0  0  0  0  0  0  0  0
  190.5290  178.6940  144.3750 O   0  0  0  0  0  1  0  0  0  0  0  0
  190.4350  175.9190  135.4470 O   0  0  0  0  0  0  0  0  0  0  0  0
  191.2620  175.0000  134.7830 C   0  0  0  0  0  2  0  0  0  0  0  0
  192.7240  175.2640  135.1110 C   0  0  1  0  0  0  0  0  0  0  0  0
  193.4740  174.1350  134.8440 F   0  0  0  0  0  0  0  0  0  0  0  0
  193.1970  176.3300  134.3460 O   0  0  0  0  0  1  0  0  0  0  0  0
  192.8510  175.6070  136.5820 C   0  0  0  0  0  1  0  0  0  0  0  0
  1 23  1  6  0  0  0
  2  1  1  0  0  0  0
  3 50  1  6  0  0  0
  3  2  1  0  0  0  0
  3  1  1  0  0  0  0
  4 13  1  0  0  0  0
  5 22  1  6  0  0  0
  5 14  1  0  0  0  0
  6 15  1  0  0  0  0
  6  5  1  0  0  0  0
  7  3  1  0  0  0  0
  9  7  2  0  0  0  0
  9  4  2  0  0  0  0
 10 15  1  0  0  0  0
 10  7  1  0  0  0  0
 12 14  1  0  0  0  0
 12  8  1  1  0  0  0
 15 19  1  6  0  0  0
 16 12  1  0  0  0  0
 17 11  1  1  0  0  0
 17  4  1  0  0  0  0
 17 12  1  0  0  0  0
 19 18  1  1  0  0  0
 19 20  1  0  0  0  0
 21 22  1  0  0  0  0
 23 25  1  0  0  0  0
 24 25  2  0  0  0  0
 25 26  1  0  0  0  0
 26 27  1  0  0  0  0
 27 28  1  0  0  0  0
 28 46  1  6  0  0  0
 28 29  1  0  0  0  0
 30 29  1  6  0  0  0
 32 37  1  1  0  0  0
 34 33  1  6  0  0  0
 34 35  1  0  0  0  0
 34 32  1  0  0  0  0
 35 31  1  6  0  0  0
 35 32  1  0  0  0  0
 36 30  1  6  0  0  0
 36 33  1  0  0  0  0
 36 34  1  0  0  0  0
 37 38  1  6  0  0  0
 37 39  1  0  0  0  0
 40 43  1  6  0  0  0
 40 42  1  0  0  0  0
 40 41  1  0  0  0  0
 42 41  1  0  0  0  0
 42 30  1  1  0  0  0
 44 45  1  0  0  0  0
 45 43  1  0  0  0  0
 46 47  1  0  0  0  0
 47 48  2  0  0  0  0
 47 49  1  0  0  0  0
 51 52  1  0  0  0  0
 51 50  1  0  0  0  0
 52 55  1  1  0  0  0
 53 52  1  0  0  0  0
 54 52  1  0  0  0  0
M  END
>  <MODEL>
8

>  <REMARK>
 VINA RESULT:      -5.0      2.811      6.933
  Name = 
  20 active torsions:
  status: ('A' for Active; 'I' for Inactive)
    1  A    between atoms: C_2  and  C_24
    2  A    between atoms: C_3  and  C_14
    3  A    between atoms: C_4  and  C_37
    4  A    between atoms: C_8  and  C_43
    5  A    between atoms: C_9  and  C_33
    6  A    between atoms: C_9  and  C_49
    7  A    between atoms: C_10  and  C_32
    8  A    between atoms: C_16  and  C_17
    9  A    between atoms: C_17  and  O_23
   10  A    between atoms: C_19  and  C_40
   11  A    between atoms: C_19  and  O_45
   12  A    between atoms: C_20  and  C_46
   13  A    between atoms: C_24  and  C_49
   14  A    between atoms: C_27  and  C_54
   15  A    between atoms: C_33  and  C_36
   16  A    between atoms: C_33  and  C_52
   17  A    between atoms: C_37  and  C_40
   18  A    between atoms: C_43  and  O_51
   19  A    between atoms: O_45  and  C_49
   20  A    between atoms: O_51  and  C_54
                            x       y       z     vdW  Elec       q    Type
                         _______ _______ _______ _____ _____    ______ ____

>  <TORSDO>
F 20

$$$$
=
 OpenBabel10272401213D

 55 59  0  0  1  0  0  0  0  0999 V2000
  190.4320  177.4760  139.3810 C   0  0  2  0  0  3  0  0  0  0  0  0
  190.4640  176.1480  140.1230 C   0  0  0  0  0  2  0  0  0  0  0  0
  191.6690  177.0730  140.1870 C   0  0  1  0  0  0  0  0  0  0  0  0
  192.5740  176.1560  136.8180 C   0  0  0  0  0  0  0  0  0  0  0  0
  195.1590  173.8900  138.4680 C   0  0  1  0  0  3  0  0  0  0  0  0
  195.3520  175.2770  138.5680 O   0  0  0  0  0  0  0  0  0  0  0  0
  192.8630  176.7780  139.3310 C   0  0  0  0  0  0  0  0  0  0  0  0
  192.4070  173.3730  135.7340 C   0  0  0  0  0  1  0  0  0  0  0  0
  192.7050  176.4940  138.0660 C   0  0  0  0  0  0  0  0  0  0  0  0
  194.2420  176.9370  139.8880 C   0  0  0  0  0  2  0  0  0  0  0  0
  193.7450  175.8650  134.7680 O   0  0  0  0  0  1  0  0  0  0  0  0
  193.7140  173.9500  136.2580 C   0  0  1  0  0  0  0  0  0  0  0  0
  191.3640  176.3630  136.1690 O   0  0  0  0  0  1  0  0  0  0  0  0
  193.8640  173.5080  137.7260 C   0  0  0  0  0  2  0  0  0  0  0  0
  195.0210  175.6200  139.8890 C   0  0  2  0  0  3  0  0  0  0  0  0
  194.7490  173.4070  135.4950 O   0  0  0  0  0  1  0  0  0  0  0  0
  193.7190  175.4860  136.1140 C   0  0  2  0  0  3  0  0  0  0  0  0
  197.4160  175.4240  139.9760 O   0  0  0  0  0  1  0  0  0  0  0  0
  196.2950  175.7960  140.7220 C   0  0  1  0  0  3  0  0  0  0  0  0
  196.4360  177.1170  141.1130 F   0  0  0  0  0  0  0  0  0  0  0  0
  196.2410  171.7910  137.9780 O   0  0  0  0  0  1  0  0  0  0  0  0
  196.4070  173.1800  137.9490 C   0  0  0  0  0  2  0  0  0  0  0  0
  189.5430  178.4670  140.1230 C   0  0  0  0  0  2  0  0  0  0  0  0
  187.6010  178.0950  138.6710 C   0  0  0  0  0  2  0  0  0  0  0  0
  188.1040  178.1320  139.9030 C   0  0  0  0  0  0  0  0  0  0  0  0
  187.2740  177.6910  141.0590 C   0  0  0  0  0  2  0  0  0  0  0  0
  187.1540  178.7300  141.9840 O   0  0  0  0  0  0  0  0  0  0  0  0
  185.8600  179.2250  141.8000 C   0  0  2  0  0  3  0  0  0  0  0  0
  185.4080  179.9930  143.0450 C   0  0  0  0  0  2  0  0  0  0  0  0
  185.2310  179.0980  144.2770 C   0  0  2  0  0  3  0  0  0  0  0  0
  185.6060  179.4650  146.8940 O   0  0  0  0  0  1  0  0  0  0  0  0
  187.2580  177.8830  147.1980 C   0  0  2  0  0  3  0  0  0  0  0  0
  186.0630  177.0530  145.4270 C   0  0  0  0  0  2  0  0  0  0  0  0
  187.2450  178.0110  145.6770 C   0  0  1  0  0  0  0  0  0  0  0  0
  186.9540  179.2200  146.6210 C   0  0  1  0  0  3  0  0  0  0  0  0
  186.3540  178.0630  144.3910 C   0  0  2  0  0  3  0  0  0  0  0  0
  188.6950  177.8480  147.6830 C   0  0  2  0  0  3  0  0  0  0  0  0
  189.2580  176.4520  147.5130 C   0  0  0  0  0  1  0  0  0  0  0  0
  188.7470  178.2000  149.0170 F   0  0  0  0  0  0  0  0  0  0  0  0
  182.7830  179.4100  144.2210 C   0  0  1  0  0  3  0  0  0  0  0  0
  183.1580  178.7770  145.4220 O   0  0  0  0  0  0  0  0  0  0  0  0
  183.8730  178.4100  144.2670 C   0  0  2  0  0  3  0  0  0  0  0  0
  181.5270  178.7530  143.6890 C   0  0  0  0  0  2  0  0  0  0  0  0
  181.0700  179.4190  141.6350 C   0  0  0  0  0  1  0  0  0  0  0  0
  180.7800  179.6890  142.9700 O   0  0  0  0  0  0  0  0  0  0  0  0
  184.8930  178.0950  141.4320 C   0  0  0  0  0  2  0  0  0  0  0  0
  184.1640  178.3420  140.1490 C   0  0  0  0  0  0  0  0  0  0  0  0
  184.3470  179.5310  139.4550 O   0  0  0  0  0  0  0  0  0  0  0  0
  183.3550  177.4810  139.7150 O   0  0  0  0  0  1  0  0  0  0  0  0
  191.8660  177.7980  141.3760 O   0  0  0  0  0  0  0  0  0  0  0  0
  191.7820  176.8760  142.4310 C   0  0  0  0  0  2  0  0  0  0  0  0
  190.8410  177.3850  143.5120 C   0  0  1  0  0  0  0  0  0  0  0  0
  190.5880  178.7290  143.3160 F   0  0  0  0  0  0  0  0  0  0  0  0
  189.6420  176.6740  143.4710 O   0  0  0  0  0  1  0  0  0  0  0  0
  191.4910  177.1960  144.8680 C   0  0  0  0  0  1  0  0  0  0  0  0
  1  2  1  0  0  0  0
  1 23  1  1  0  0  0
  1  3  1  0  0  0  0
  2  3  1  0  0  0  0
  3 50  1  1  0  0  0
  4  9  2  0  0  0  0
  5 22  1  6  0  0  0
  5  6  1  0  0  0  0
  6 15  1  0  0  0  0
  7 10  1  0  0  0  0
  7  3  1  0  0  0  0
  9  7  2  0  0  0  0
 10 15  1  0  0  0  0
 12  8  1  6  0  0  0
 12 14  1  0  0  0  0
 13  4  1  0  0  0  0
 14  5  1  0  0  0  0
 15 19  1  1  0  0  0
 16 12  1  0  0  0  0
 17 11  1  6  0  0  0
 17 12  1  0  0  0  0
 17  4  1  0  0  0  0
 19 18  1  6  0  0  0
 19 20  1  0  0  0  0
 22 21  1  0  0  0  0
 24 25  2  0  0  0  0
 25 23  1  0  0  0  0
 25 26  1  0  0  0  0
 26 27  1  0  0  0  0
 28 46  1  1  0  0  0
 28 27  1  0  0  0  0
 28 29  1  0  0  0  0
 30 29  1  6  0  0  0
 32 37  1  1  0  0  0
 34 33  1  1  0  0  0
 34 35  1  0  0  0  0
 34 32  1  0  0  0  0
 35 31  1  6  0  0  0
 35 32  1  0  0  0  0
 36 30  1  1  0  0  0
 36 33  1  0  0  0  0
 36 34  1  0  0  0  0
 37 38  1  1  0  0  0
 37 39  1  0  0  0  0
 40 43  1  6  0  0  0
 40 42  1  0  0  0  0
 40 41  1  0  0  0  0
 42 30  1  1  0  0  0
 42 41  1  0  0  0  0
 44 45  1  0  0  0  0
 45 43  1  0  0  0  0
 47 46  1  0  0  0  0
 48 47  2  0  0  0  0
 49 47  1  0  0  0  0
 50 51  1  0  0  0  0
 51 52  1  0  0  0  0
 52 55  1  1  0  0  0
 53 52  1  0  0  0  0
 54 52  1  0  0  0  0
M  END
>  <MODEL>
9

>  <REMARK>
 VINA RESULT:      -5.0      3.903      8.229
  Name = 
  20 active torsions:
  status: ('A' for Active; 'I' for Inactive)
    1  A    between atoms: C_2  and  C_24
    2  A    between atoms: C_3  and  C_14
    3  A    between atoms: C_4  and  C_37
    4  A    between atoms: C_8  and  C_43
    5  A    between atoms: C_9  and  C_33
    6  A    between atoms: C_9  and  C_49
    7  A    between atoms: C_10  and  C_32
    8  A    between atoms: C_16  and  C_17
    9  A    between atoms: C_17  and  O_23
   10  A    between atoms: C_19  and  C_40
   11  A    between atoms: C_19  and  O_45
   12  A    between atoms: C_20  and  C_46
   13  A    between atoms: C_24  and  C_49
   14  A    between atoms: C_27  and  C_54
   15  A    between atoms: C_33  and  C_36
   16  A    between atoms: C_33  and  C_52
   17  A    between atoms: C_37  and  C_40
   18  A    between atoms: C_43  and  O_51
   19  A    between atoms: O_45  and  C_49
   20  A    between atoms: O_51  and  C_54
                            x       y       z     vdW  Elec       q    Type
                         _______ _______ _______ _____ _____    ______ ____

>  <TORSDO>
F 20

$$$$
