=
 OpenBabel10272413523D

 30 34  0  0  1  0  0  0  0  0999 V2000
  186.8620  178.0390  143.1290 N   0  0  0  0  0  0  0  0  0  0  0  0
  184.4190  178.3070  142.6970 C   0  0  1  0  0  3  0  0  0  0  0  0
  186.3390  178.2730  147.2850 N   0  0  0  0  0  0  0  0  0  0  0  0
  187.9550  177.9130  143.9290 C   0  0  0  0  0  0  0  0  0  0  0  0
  187.4330  178.0730  148.1820 C   0  0  0  0  0  3  0  0  0  0  0  0
  183.2980  179.1770  143.2770 C   0  0  0  0  0  2  0  0  0  0  0  0
  184.7870  178.8320  141.3200 C   0  0  0  0  0  1  0  0  0  0  0  0
  186.5200  178.2160  145.8660 C   0  0  0  0  0  0  0  0  0  0  0  0
  183.0520  178.8790  144.7290 C   0  0  0  0  0  3  0  0  0  0  0  0
  185.6160  178.2720  143.6200 C   0  0  0  0  0  0  0  0  0  0  0  0
  187.8060  178.0050  145.3330 C   0  0  0  0  0  0  0  0  0  0  0  0
  188.6670  177.8850  147.7220 C   0  0  0  0  0  3  0  0  0  0  0  0
  189.0000  177.9010  146.2550 C   0  0  0  0  0  3  0  0  0  0  0  0
  184.0560  178.5400  145.5400 C   0  0  0  0  0  3  0  0  0  0  0  0
  185.4200  178.3510  145.0100 C   0  0  0  0  0  0  0  0  0  0  0  0
  189.2860  177.6890  143.2490 C   0  0  1  0  0  3  0  0  0  0  0  0
  188.8660  176.5130  141.1280 O   0  0  0  0  0  0  0  0  0  0  0  0
  188.7920  178.8140  141.0270 O   0  0  0  0  0  1  0  0  0  0  0  0
  189.2370  177.6770  141.7130 C   0  0  1  0  0  0  0  0  0  0  0  0
  190.2160  176.8490  141.0350 N   0  0  2  0  0  0  0  0  0  0  0  0
  190.4390  177.2770  139.6590 C   0  0  0  0  0  3  0  0  0  0  0  0
  190.7090  176.0610  138.7970 C   0  0  0  0  0  2  0  0  0  0  0  0
  191.8570  176.9320  139.2550 C   0  0  0  0  0  2  0  0  0  0  0  0
  190.4110  178.5770  143.7780 C   0  0  0  0  0  2  0  0  0  0  0  0
  191.7460  177.8410  143.7960 C   0  0  0  0  0  2  0  0  0  0  0  0
  191.6250  176.4590  144.4230 C   0  0  0  0  0  2  0  0  0  0  0  0
  191.7420  176.5450  145.9340 C   0  0  0  0  0  2  0  0  0  0  0  0
  192.6590  174.3020  145.6060 O   0  0  0  0  0  0  0  0  0  0  0  0
  192.4130  175.3630  146.4430 N   0  0  0  0  0  0  0  0  0  0  0  0
  192.9120  175.3770  147.5870 O   0  0  0  0  0  0  0  0  0  0  0  0
  1 10  2  0  0  0  0
  1  4  1  0  0  0  0
  2  7  1  6  0  0  0
  2  6  1  0  0  0  0
  2 10  1  0  0  0  0
  3  5  2  0  0  0  0
  4 11  2  0  0  0  0
  6  9  1  0  0  0  0
  8  3  1  0  0  0  0
  9 14  2  0  0  0  0
 10 15  1  0  0  0  0
 11  8  1  0  0  0  0
 11 13  1  0  0  0  0
 12  5  1  0  0  0  0
 13 12  2  0  0  0  0
 15 14  1  0  0  0  0
 15  8  2  0  0  0  0
 16 24  1  6  0  0  0
 16  4  1  0  0  0  0
 17 19  1  0  0  0  0
 19 18  1  6  0  0  0
 19 16  1  0  0  0  0
 20 21  1  6  0  0  0
 20 17  1  0  0  0  0
 20 19  1  0  0  0  0
 22 23  1  0  0  0  0
 22 21  1  0  0  0  0
 23 21  1  0  0  0  0
 24 25  1  0  0  0  0
 25 26  1  0  0  0  0
 26 27  1  0  0  0  0
 27 29  1  0  0  0  0
 28 29  2  0  0  0  0
 29 30  2  0  0  0  0
M  END
>  <MODEL>
1

>  <REMARK>
 VINA RESULT:      -8.8      0.000      0.000
  Name = 
  8 active torsions:
  status: ('A' for Active; 'I' for Inactive)
    1  A    between atoms: C_4  and  C_13
    2  A    between atoms: C_7  and  N_15
    3  A    between atoms: C_7  and  C_16
    4  A    between atoms: C_8  and  C_13
    5  A    between atoms: C_9  and  N_12
    6  A    between atoms: C_13  and  C_27
    7  A    between atoms: C_16  and  C_30
    8  A    between atoms: C_27  and  C_30
                            x       y       z     vdW  Elec       q    Type
                         _______ _______ _______ _____ _____    ______ ____

>  <TORSDO>
F 8

$$$$
=
 OpenBabel10272413523D

 30 34  0  0  1  0  0  0  0  0999 V2000
  185.6700  177.6700  142.4160 N   0  0  0  0  0  0  0  0  0  0  0  0
  183.3050  178.1140  141.7580 C   0  0  1  0  0  3  0  0  0  0  0  0
  184.9700  178.8040  146.3940 N   0  0  0  0  0  0  0  0  0  0  0  0
  186.6970  177.5890  143.3040 C   0  0  0  0  0  0  0  0  0  0  0  0
  185.9830  178.6710  147.3920 C   0  0  0  0  0  3  0  0  0  0  0  0
  182.2730  179.2040  142.0700 C   0  0  0  0  0  2  0  0  0  0  0  0
  183.8040  178.3020  140.3360 C   0  0  0  0  0  1  0  0  0  0  0  0
  185.2140  178.4390  145.0310 C   0  0  0  0  0  0  0  0  0  0  0  0
  181.9170  179.2390  143.5290 C   0  0  0  0  0  3  0  0  0  0  0  0
  184.4400  178.1360  142.7570 C   0  0  0  0  0  0  0  0  0  0  0  0
  186.4890  177.9820  144.6480 C   0  0  0  0  0  0  0  0  0  0  0  0
  187.2060  178.2570  147.0710 C   0  0  0  0  0  3  0  0  0  0  0  0
  187.6130  177.9360  145.6590 C   0  0  0  0  0  3  0  0  0  0  0  0
  182.8290  178.9630  144.4650 C   0  0  0  0  0  3  0  0  0  0  0  0
  184.1840  178.5180  144.0850 C   0  0  0  0  0  0  0  0  0  0  0  0
  188.0220  177.0840  142.7830 C   0  0  1  0  0  3  0  0  0  0  0  0
  187.8840  178.5320  140.7990 O   0  0  0  0  0  0  0  0  0  0  0  0
  189.7530  178.8190  142.1170 O   0  0  0  0  0  1  0  0  0  0  0  0
  188.6950  177.9830  141.7350 C   0  0  1  0  0  0  0  0  0  0  0  0
  188.7110  177.4960  140.3690 N   0  0  2  0  0  0  0  0  0  0  0  0
  189.7670  178.1140  139.5770 C   0  0  0  0  0  3  0  0  0  0  0  0
  189.2260  178.4520  138.2040 C   0  0  0  0  0  2  0  0  0  0  0  0
  190.0880  177.2240  138.3950 C   0  0  0  0  0  2  0  0  0  0  0  0
  188.9970  176.6560  143.8790 C   0  0  0  0  0  2  0  0  0  0  0  0
  190.1540  175.8380  143.3130 C   0  0  0  0  0  2  0  0  0  0  0  0
  191.4680  176.1540  144.0110 C   0  0  0  0  0  2  0  0  0  0  0  0
  191.2220  176.9450  145.2830 C   0  0  0  0  0  2  0  0  0  0  0  0
  191.9130  176.9210  147.6290 O   0  0  0  0  0  0  0  0  0  0  0  0
  191.9100  176.3160  146.3950 N   0  0  0  0  0  0  0  0  0  0  0  0
  192.3530  175.1560  146.2740 O   0  0  0  0  0  0  0  0  0  0  0  0
  1 10  2  0  0  0  0
  1  4  1  0  0  0  0
  2  7  1  6  0  0  0
  2  6  1  0  0  0  0
  2 10  1  0  0  0  0
  3  5  2  0  0  0  0
  4 11  2  0  0  0  0
  6  9  1  0  0  0  0
  8  3  1  0  0  0  0
  9 14  2  0  0  0  0
 10 15  1  0  0  0  0
 11  8  1  0  0  0  0
 11 13  1  0  0  0  0
 12  5  1  0  0  0  0
 13 12  2  0  0  0  0
 15 14  1  0  0  0  0
 15  8  2  0  0  0  0
 16  4  1  0  0  0  0
 16 24  1  1  0  0  0
 17 19  1  0  0  0  0
 19 18  1  1  0  0  0
 19 16  1  0  0  0  0
 20 21  1  6  0  0  0
 20 17  1  0  0  0  0
 20 19  1  0  0  0  0
 22 23  1  0  0  0  0
 22 21  1  0  0  0  0
 23 21  1  0  0  0  0
 25 24  1  0  0  0  0
 25 26  1  0  0  0  0
 26 27  1  0  0  0  0
 27 29  1  0  0  0  0
 29 28  2  0  0  0  0
 30 29  2  0  0  0  0
M  END
>  <MODEL>
2

>  <REMARK>
 VINA RESULT:      -8.6      1.349      1.748
  Name = 
  8 active torsions:
  status: ('A' for Active; 'I' for Inactive)
    1  A    between atoms: C_4  and  C_13
    2  A    between atoms: C_7  and  N_15
    3  A    between atoms: C_7  and  C_16
    4  A    between atoms: C_8  and  C_13
    5  A    between atoms: C_9  and  N_12
    6  A    between atoms: C_13  and  C_27
    7  A    between atoms: C_16  and  C_30
    8  A    between atoms: C_27  and  C_30
                            x       y       z     vdW  Elec       q    Type
                         _______ _______ _______ _____ _____    ______ ____

>  <TORSDO>
F 8

$$$$
=
 OpenBabel10272413523D

 30 34  0  0  1  0  0  0  0  0999 V2000
  187.0120  178.0220  144.5740 N   0  0  0  0  0  0  0  0  0  0  0  0
  186.5620  178.1350  147.0260 C   0  0  1  0  0  3  0  0  0  0  0  0
  190.8730  176.4930  145.1680 N   0  0  0  0  0  0  0  0  0  0  0  0
  187.7660  177.7210  143.4830 C   0  0  0  0  0  0  0  0  0  0  0  0
  191.6870  176.0860  144.0670 C   0  0  0  0  0  3  0  0  0  0  0  0
  187.3640  178.5510  148.2640 C   0  0  0  0  0  2  0  0  0  0  0  0
  185.5350  179.2120  146.7220 C   0  0  0  0  0  1  0  0  0  0  0  0
  189.5640  177.0360  144.9670 C   0  0  0  0  0  0  0  0  0  0  0  0
  188.5580  177.6650  148.4820 C   0  0  0  0  0  3  0  0  0  0  0  0
  187.4720  177.8800  145.8460 C   0  0  0  0  0  0  0  0  0  0  0  0
  189.0780  177.2200  143.6590 C   0  0  0  0  0  0  0  0  0  0  0  0
  191.2730  176.2550  142.8140 C   0  0  0  0  0  3  0  0  0  0  0  0
  189.9590  176.9030  142.4710 C   0  0  0  0  0  3  0  0  0  0  0  0
  189.2330  177.1550  147.4480 C   0  0  0  0  0  3  0  0  0  0  0  0
  188.7620  177.3670  146.0660 C   0  0  0  0  0  0  0  0  0  0  0  0
  187.1420  177.9580  142.1270 C   0  0  1  0  0  3  0  0  0  0  0  0
  184.7910  177.8630  142.8430 O   0  0  0  0  0  0  0  0  0  0  0  0
  185.5690  179.9480  142.2450 O   0  0  0  0  0  1  0  0  0  0  0  0
  185.7290  178.5580  142.1570 C   0  0  1  0  0  0  0  0  0  0  0  0
  184.6930  177.8270  141.4530 N   0  0  2  0  0  0  0  0  0  0  0  0
  183.5640  178.6780  141.0980 C   0  0  0  0  0  3  0  0  0  0  0  0
  182.4900  177.8330  140.4460 C   0  0  0  0  0  2  0  0  0  0  0  0
  183.4020  178.6860  139.5920 C   0  0  0  0  0  2  0  0  0  0  0  0
  188.0540  178.6920  141.1450 C   0  0  0  0  0  2  0  0  0  0  0  0
  187.8620  178.1890  139.7180 C   0  0  0  0  0  2  0  0  0  0  0  0
  189.1620  178.2100  138.9280 C   0  0  0  0  0  2  0  0  0  0  0  0
  189.3820  176.8830  138.2230 C   0  0  0  0  0  2  0  0  0  0  0  0
  191.5350  177.0630  139.3680 O   0  0  0  0  0  0  0  0  0  0  0  0
  190.6480  176.3090  138.6390 N   0  0  0  0  0  0  0  0  0  0  0  0
  190.8580  175.0890  138.4800 O   0  0  0  0  0  0  0  0  0  0  0  0
  1 10  1  0  0  0  0
  2  7  1  6  0  0  0
  2  6  1  0  0  0  0
  4 11  1  0  0  0  0
  4  1  2  0  0  0  0
  5  3  2  0  0  0  0
  6  9  1  0  0  0  0
  8  3  1  0  0  0  0
  8 15  1  0  0  0  0
 10 15  2  0  0  0  0
 10  2  1  0  0  0  0
 11  8  2  0  0  0  0
 12  5  1  0  0  0  0
 13 12  2  0  0  0  0
 13 11  1  0  0  0  0
 14  9  2  0  0  0  0
 15 14  1  0  0  0  0
 16 24  1  6  0  0  0
 16 19  1  0  0  0  0
 16  4  1  0  0  0  0
 19 18  1  1  0  0  0
 19 17  1  0  0  0  0
 20 21  1  1  0  0  0
 20 19  1  0  0  0  0
 20 17  1  0  0  0  0
 22 21  1  0  0  0  0
 23 22  1  0  0  0  0
 23 21  1  0  0  0  0
 25 24  1  0  0  0  0
 26 25  1  0  0  0  0
 27 29  1  0  0  0  0
 27 26  1  0  0  0  0
 29 28  2  0  0  0  0
 30 29  2  0  0  0  0
M  END
>  <MODEL>
3

>  <REMARK>
 VINA RESULT:      -8.6      2.726      5.670
  Name = 
  8 active torsions:
  status: ('A' for Active; 'I' for Inactive)
    1  A    between atoms: C_4  and  C_13
    2  A    between atoms: C_7  and  N_15
    3  A    between atoms: C_7  and  C_16
    4  A    between atoms: C_8  and  C_13
    5  A    between atoms: C_9  and  N_12
    6  A    between atoms: C_13  and  C_27
    7  A    between atoms: C_16  and  C_30
    8  A    between atoms: C_27  and  C_30
                            x       y       z     vdW  Elec       q    Type
                         _______ _______ _______ _____ _____    ______ ____

>  <TORSDO>
F 8

$$$$
=
 OpenBabel10272413523D

 30 34  0  0  1  0  0  0  0  0999 V2000
  188.2540  177.4050  144.8530 N   0  0  0  0  0  0  0  0  0  0  0  0
  188.9750  177.8090  147.2070 C   0  0  1  0  0  3  0  0  0  0  0  0
  184.4630  179.0660  145.5350 N   0  0  0  0  0  0  0  0  0  0  0  0
  187.3800  177.4750  143.8140 C   0  0  0  0  0  0  0  0  0  0  0  0
  183.5270  179.2400  144.4700 C   0  0  0  0  0  3  0  0  0  0  0  0
  188.3210  177.6740  148.5870 C   0  0  0  0  0  2  0  0  0  0  0  0
  189.9760  176.6810  147.0260 C   0  0  0  0  0  1  0  0  0  0  0  0
  185.7490  178.4790  145.3090 C   0  0  0  0  0  0  0  0  0  0  0  0
  187.1470  178.5990  148.7430 C   0  0  0  0  0  3  0  0  0  0  0  0
  187.9370  177.8180  146.1090 C   0  0  0  0  0  0  0  0  0  0  0  0
  186.0890  178.0160  144.0240 C   0  0  0  0  0  0  0  0  0  0  0  0
  183.8020  178.8040  143.2430 C   0  0  0  0  0  3  0  0  0  0  0  0
  185.0780  178.0840  142.9010 C   0  0  0  0  0  3  0  0  0  0  0  0
  186.3550  178.8850  147.7060 C   0  0  0  0  0  3  0  0  0  0  0  0
  186.6720  178.3800  146.3570 C   0  0  0  0  0  0  0  0  0  0  0  0
  187.8520  176.9490  142.4780 C   0  0  1  0  0  3  0  0  0  0  0  0
  187.2030  178.3390  140.5550 O   0  0  0  0  0  0  0  0  0  0  0  0
  188.9740  179.1240  141.8010 O   0  0  0  0  0  1  0  0  0  0  0  0
  188.1830  178.0270  141.4350 C   0  0  1  0  0  0  0  0  0  0  0  0
  188.2690  177.5950  140.0530 N   0  0  2  0  0  0  0  0  0  0  0  0
  189.0620  178.5100  139.2390 C   0  0  0  0  0  3  0  0  0  0  0  0
  188.5620  178.4660  137.8110 C   0  0  0  0  0  2  0  0  0  0  0  0
  189.8180  177.7160  138.1940 C   0  0  0  0  0  2  0  0  0  0  0  0
  188.9550  175.8960  142.5810 C   0  0  0  0  0  2  0  0  0  0  0  0
  190.2490  176.3730  141.9310 C   0  0  0  0  0  2  0  0  0  0  0  0
  191.3600  176.5660  142.9520 C   0  0  0  0  0  2  0  0  0  0  0  0
  191.9020  177.9830  142.8930 C   0  0  0  0  0  2  0  0  0  0  0  0
  191.9750  178.1270  145.3330 O   0  0  0  0  0  0  0  0  0  0  0  0
  191.6010  178.6770  144.1320 N   0  0  0  0  0  0  0  0  0  0  0  0
  191.1550  179.8420  144.0970 O   0  0  0  0  0  0  0  0  0  0  0  0
  1 10  1  0  0  0  0
  2  7  1  6  0  0  0
  2  6  1  0  0  0  0
  4 11  1  0  0  0  0
  4  1  2  0  0  0  0
  5  3  2  0  0  0  0
  6  9  1  0  0  0  0
  8  3  1  0  0  0  0
  8 15  1  0  0  0  0
 10 15  2  0  0  0  0
 10  2  1  0  0  0  0
 11  8  2  0  0  0  0
 12  5  1  0  0  0  0
 13 12  2  0  0  0  0
 13 11  1  0  0  0  0
 14  9  2  0  0  0  0
 15 14  1  0  0  0  0
 16 24  1  1  0  0  0
 16  4  1  0  0  0  0
 17 19  1  0  0  0  0
 19 18  1  1  0  0  0
 19 16  1  0  0  0  0
 20 21  1  6  0  0  0
 20 17  1  0  0  0  0
 20 19  1  0  0  0  0
 22 23  1  0  0  0  0
 22 21  1  0  0  0  0
 23 21  1  0  0  0  0
 25 24  1  0  0  0  0
 25 26  1  0  0  0  0
 27 26  1  0  0  0  0
 27 29  1  0  0  0  0
 29 28  2  0  0  0  0
 30 29  2  0  0  0  0
M  END
>  <MODEL>
4

>  <REMARK>
 VINA RESULT:      -8.5      1.906      3.988
  Name = 
  8 active torsions:
  status: ('A' for Active; 'I' for Inactive)
    1  A    between atoms: C_4  and  C_13
    2  A    between atoms: C_7  and  N_15
    3  A    between atoms: C_7  and  C_16
    4  A    between atoms: C_8  and  C_13
    5  A    between atoms: C_9  and  N_12
    6  A    between atoms: C_13  and  C_27
    7  A    between atoms: C_16  and  C_30
    8  A    between atoms: C_27  and  C_30
                            x       y       z     vdW  Elec       q    Type
                         _______ _______ _______ _____ _____    ______ ____

>  <TORSDO>
F 8

$$$$
=
 OpenBabel10272413523D

 30 34  0  0  1  0  0  0  0  0999 V2000
  187.7350  178.1540  144.2950 N   0  0  0  0  0  0  0  0  0  0  0  0
  186.3140  178.4980  146.3170 C   0  0  1  0  0  3  0  0  0  0  0  0
  184.5510  178.9820  141.6910 N   0  0  0  0  0  0  0  0  0  0  0  0
  187.9700  178.1370  142.9550 C   0  0  0  0  0  0  0  0  0  0  0  0
  184.7480  179.0550  140.2780 C   0  0  0  0  0  3  0  0  0  0  0  0
  184.8830  178.1260  146.7200 C   0  0  0  0  0  2  0  0  0  0  0  0
  187.2850  177.6060  147.0710 C   0  0  0  0  0  1  0  0  0  0  0  0
  185.6310  178.6770  142.5800 C   0  0  0  0  0  0  0  0  0  0  0  0
  183.8620  178.7880  145.8380 C   0  0  0  0  0  3  0  0  0  0  0  0
  186.5040  178.3930  144.8200 C   0  0  0  0  0  0  0  0  0  0  0  0
  186.9080  178.3960  142.0570 C   0  0  0  0  0  0  0  0  0  0  0  0
  185.9350  178.7830  139.7400 C   0  0  0  0  0  3  0  0  0  0  0  0
  187.1220  178.3570  140.5610 C   0  0  0  0  0  3  0  0  0  0  0  0
  184.1060  178.9970  144.5430 C   0  0  0  0  0  3  0  0  0  0  0  0
  185.4250  178.6750  143.9650 C   0  0  0  0  0  0  0  0  0  0  0  0
  189.3790  177.8240  142.5060 C   0  0  1  0  0  3  0  0  0  0  0  0
  191.5110  177.1340  143.5240 O   0  0  0  0  0  0  0  0  0  0  0  0
  190.7990  179.2640  144.0430 O   0  0  0  0  0  1  0  0  0  0  0  0
  190.4570  177.9830  143.5900 C   0  0  1  0  0  0  0  0  0  0  0  0
  190.5900  176.8980  144.5430 N   0  0  2  0  0  0  0  0  0  0  0  0
  191.2270  177.3300  145.7810 C   0  0  0  0  0  3  0  0  0  0  0  0
  191.9790  176.1630  146.3870 C   0  0  0  0  0  2  0  0  0  0  0  0
  190.6290  176.5620  146.9420 C   0  0  0  0  0  2  0  0  0  0  0  0
  189.5120  176.4990  141.7580 C   0  0  0  0  0  2  0  0  0  0  0  0
  190.4800  176.6120  140.5850 C   0  0  0  0  0  2  0  0  0  0  0  0
  190.0940  177.7370  139.6350 C   0  0  0  0  0  2  0  0  0  0  0  0
  189.7660  177.1870  138.2590 C   0  0  0  0  0  2  0  0  0  0  0  0
  189.2170  178.0400  136.0340 O   0  0  0  0  0  0  0  0  0  0  0  0
  189.3580  178.2680  137.3810 N   0  0  0  0  0  0  0  0  0  0  0  0
  188.9770  179.3520  137.8680 O   0  0  0  0  0  0  0  0  0  0  0  0
  1 10  1  0  0  0  0
  2  6  1  0  0  0  0
  2  7  1  1  0  0  0
  3  8  1  0  0  0  0
  4  1  2  0  0  0  0
  5  3  2  0  0  0  0
  8 15  1  0  0  0  0
  9  6  1  0  0  0  0
 10  2  1  0  0  0  0
 11  8  2  0  0  0  0
 11  4  1  0  0  0  0
 12  5  1  0  0  0  0
 12 13  2  0  0  0  0
 13 11  1  0  0  0  0
 14  9  2  0  0  0  0
 15 14  1  0  0  0  0
 15 10  2  0  0  0  0
 16 24  1  1  0  0  0
 16  4  1  0  0  0  0
 16 19  1  0  0  0  0
 17 19  1  0  0  0  0
 17 20  1  0  0  0  0
 19 18  1  1  0  0  0
 19 20  1  0  0  0  0
 20 21  1  1  0  0  0
 21 22  1  0  0  0  0
 21 23  1  0  0  0  0
 22 23  1  0  0  0  0
 25 24  1  0  0  0  0
 26 25  1  0  0  0  0
 27 26  1  0  0  0  0
 28 29  2  0  0  0  0
 29 30  2  0  0  0  0
 29 27  1  0  0  0  0
M  END
>  <MODEL>
5

>  <REMARK>
 VINA RESULT:      -8.3      2.104      5.711
  Name = 
  8 active torsions:
  status: ('A' for Active; 'I' for Inactive)
    1  A    between atoms: C_4  and  C_13
    2  A    between atoms: C_7  and  N_15
    3  A    between atoms: C_7  and  C_16
    4  A    between atoms: C_8  and  C_13
    5  A    between atoms: C_9  and  N_12
    6  A    between atoms: C_13  and  C_27
    7  A    between atoms: C_16  and  C_30
    8  A    between atoms: C_27  and  C_30
                            x       y       z     vdW  Elec       q    Type
                         _______ _______ _______ _____ _____    ______ ____

>  <TORSDO>
F 8

$$$$
=
 OpenBabel10272413523D

 30 34  0  0  1  0  0  0  0  0999 V2000
  189.3890  177.4480  143.9100 N   0  0  0  0  0  0  0  0  0  0  0  0
  191.5610  176.7230  144.9010 C   0  0  1  0  0  3  0  0  0  0  0  0
  187.6080  177.8990  147.6810 N   0  0  0  0  0  0  0  0  0  0  0  0
  188.1040  177.8890  143.9720 C   0  0  0  0  0  0  0  0  0  0  0  0
  186.2900  178.4300  147.8200 C   0  0  0  0  0  3  0  0  0  0  0  0
  191.9810  175.8070  146.0570 C   0  0  0  0  0  2  0  0  0  0  0  0
  191.8520  176.0200  143.5870 C   0  0  0  0  0  1  0  0  0  0  0  0
  188.2100  177.7230  146.3940 C   0  0  0  0  0  0  0  0  0  0  0  0
  191.4990  176.3230  147.3840 C   0  0  0  0  0  3  0  0  0  0  0  0
  190.1060  177.1150  145.0160 C   0  0  0  0  0  0  0  0  0  0  0  0
  187.4770  178.0330  145.2330 C   0  0  0  0  0  0  0  0  0  0  0  0
  185.5560  178.7230  146.7490 C   0  0  0  0  0  3  0  0  0  0  0  0
  186.0400  178.4910  145.3430 C   0  0  0  0  0  3  0  0  0  0  0  0
  190.3300  176.9590  147.4900 C   0  0  0  0  0  3  0  0  0  0  0  0
  189.5270  177.2610  146.2890 C   0  0  0  0  0  0  0  0  0  0  0  0
  187.4150  178.1930  142.6620 C   0  0  1  0  0  3  0  0  0  0  0  0
  188.9530  178.8030  140.8410 O   0  0  0  0  0  0  0  0  0  0  0  0
  188.8080  176.5520  141.3150 O   0  0  0  0  0  1  0  0  0  0  0  0
  188.2130  177.8180  141.4050 C   0  0  1  0  0  0  0  0  0  0  0  0
  187.7960  178.4310  140.1580 N   0  0  2  0  0  0  0  0  0  0  0  0
  188.2320  177.6660  138.9960 C   0  0  0  0  0  3  0  0  0  0  0  0
  188.6230  178.6220  137.8890 C   0  0  0  0  0  2  0  0  0  0  0  0
  187.2820  177.9240  137.8460 C   0  0  0  0  0  2  0  0  0  0  0  0
  185.9710  177.6960  142.5920 C   0  0  0  0  0  2  0  0  0  0  0  0
  185.0190  178.8020  142.1480 C   0  0  0  0  0  2  0  0  0  0  0  0
  183.8100  178.2480  141.4100 C   0  0  0  0  0  2  0  0  0  0  0  0
  184.1080  178.1020  139.9280 C   0  0  0  0  0  2  0  0  0  0  0  0
  182.4160  179.4340  138.7680 O   0  0  0  0  0  0  0  0  0  0  0  0
  183.7050  179.3070  139.2250 N   0  0  0  0  0  0  0  0  0  0  0  0
  184.4770  180.2870  139.1820 O   0  0  0  0  0  0  0  0  0  0  0  0
  1  4  2  0  0  0  0
  1 10  1  0  0  0  0
  2  7  1  6  0  0  0
  2 10  1  0  0  0  0
  2  6  1  0  0  0  0
  3  5  1  0  0  0  0
  4 11  1  0  0  0  0
  6  9  1  0  0  0  0
  8  3  2  0  0  0  0
  9 14  2  0  0  0  0
 10 15  2  0  0  0  0
 11 13  2  0  0  0  0
 11  8  1  0  0  0  0
 12  5  2  0  0  0  0
 13 12  1  0  0  0  0
 15  8  1  0  0  0  0
 15 14  1  0  0  0  0
 16 24  1  1  0  0  0
 16  4  1  0  0  0  0
 17 19  1  0  0  0  0
 19 18  1  6  0  0  0
 19 16  1  0  0  0  0
 20 21  1  6  0  0  0
 20 17  1  0  0  0  0
 20 19  1  0  0  0  0
 22 21  1  0  0  0  0
 23 22  1  0  0  0  0
 23 21  1  0  0  0  0
 25 24  1  0  0  0  0
 26 25  1  0  0  0  0
 27 26  1  0  0  0  0
 28 29  2  0  0  0  0
 29 27  1  0  0  0  0
 30 29  2  0  0  0  0
M  END
>  <MODEL>
6

>  <REMARK>
 VINA RESULT:      -8.2      2.574      6.376
  Name = 
  8 active torsions:
  status: ('A' for Active; 'I' for Inactive)
    1  A    between atoms: C_4  and  C_13
    2  A    between atoms: C_7  and  N_15
    3  A    between atoms: C_7  and  C_16
    4  A    between atoms: C_8  and  C_13
    5  A    between atoms: C_9  and  N_12
    6  A    between atoms: C_13  and  C_27
    7  A    between atoms: C_16  and  C_30
    8  A    between atoms: C_27  and  C_30
                            x       y       z     vdW  Elec       q    Type
                         _______ _______ _______ _____ _____    ______ ____

>  <TORSDO>
F 8

$$$$
=
 OpenBabel10272413523D

 30 34  0  0  1  0  0  0  0  0999 V2000
  186.7790  177.9610  144.9190 N   0  0  0  0  0  0  0  0  0  0  0  0
  187.4950  177.7000  147.2940 C   0  0  1  0  0  3  0  0  0  0  0  0
  190.5430  176.8150  143.4650 N   0  0  0  0  0  0  0  0  0  0  0  0
  186.9620  177.8940  143.5730 C   0  0  0  0  0  0  0  0  0  0  0  0
  190.7790  176.6500  142.0660 C   0  0  0  0  0  3  0  0  0  0  0  0
  188.7570  178.0370  148.0960 C   0  0  0  0  0  2  0  0  0  0  0  0
  186.4000  178.6840  147.6650 C   0  0  0  0  0  1  0  0  0  0  0  0
  189.2660  177.2280  143.9620 C   0  0  0  0  0  0  0  0  0  0  0  0
  189.9540  177.2710  147.6070 C   0  0  0  0  0  3  0  0  0  0  0  0
  187.7750  177.7070  145.8080 C   0  0  0  0  0  0  0  0  0  0  0  0
  188.2280  177.5260  143.0590 C   0  0  0  0  0  0  0  0  0  0  0  0
  189.8310  176.9350  141.1760 C   0  0  0  0  0  3  0  0  0  0  0  0
  188.4800  177.4690  141.5690 C   0  0  0  0  0  3  0  0  0  0  0  0
  190.1010  176.9810  146.3120 C   0  0  0  0  0  3  0  0  0  0  0  0
  189.0420  177.3180  145.3410 C   0  0  0  0  0  0  0  0  0  0  0  0
  185.7780  178.2350  142.6970 C   0  0  1  0  0  3  0  0  0  0  0  0
  183.9620  178.1420  144.3550 O   0  0  0  0  0  0  0  0  0  0  0  0
  184.6670  180.2550  143.7620 O   0  0  0  0  0  1  0  0  0  0  0  0
  184.5990  178.8960  143.4270 C   0  0  1  0  0  0  0  0  0  0  0  0
  183.2790  178.3560  143.1590 N   0  0  2  0  0  0  0  0  0  0  0  0
  182.2220  179.3160  143.4550 C   0  0  0  0  0  3  0  0  0  0  0  0
  180.9690  178.5680  143.8570 C   0  0  0  0  0  2  0  0  0  0  0  0
  181.0940  179.1360  142.4610 C   0  0  0  0  0  2  0  0  0  0  0  0
  186.1480  178.9810  141.4170 C   0  0  0  0  0  2  0  0  0  0  0  0
  184.9570  179.0960  140.4700 C   0  0  0  0  0  2  0  0  0  0  0  0
  185.1360  178.2380  139.2260 C   0  0  0  0  0  2  0  0  0  0  0  0
  186.5730  178.2930  138.7400 C   0  0  0  0  0  2  0  0  0  0  0  0
  185.6710  177.6680  136.5550 O   0  0  0  0  0  0  0  0  0  0  0  0
  186.6000  178.3630  137.2900 N   0  0  0  0  0  0  0  0  0  0  0  0
  187.3540  179.1790  136.7230 O   0  0  0  0  0  0  0  0  0  0  0  0
  1 10  1  0  0  0  0
  2  7  1  6  0  0  0
  2  6  1  0  0  0  0
  3  8  1  0  0  0  0
  4  1  2  0  0  0  0
  5  3  2  0  0  0  0
  8 15  1  0  0  0  0
  9  6  1  0  0  0  0
 10  2  1  0  0  0  0
 11  4  1  0  0  0  0
 11  8  2  0  0  0  0
 12 13  2  0  0  0  0
 12  5  1  0  0  0  0
 13 11  1  0  0  0  0
 14  9  2  0  0  0  0
 15 10  2  0  0  0  0
 15 14  1  0  0  0  0
 16 24  1  6  0  0  0
 16 19  1  0  0  0  0
 16  4  1  0  0  0  0
 19 18  1  1  0  0  0
 19 17  1  0  0  0  0
 20 19  1  0  0  0  0
 20 21  1  1  0  0  0
 20 17  1  0  0  0  0
 21 22  1  0  0  0  0
 23 21  1  0  0  0  0
 23 22  1  0  0  0  0
 25 24  1  0  0  0  0
 26 25  1  0  0  0  0
 27 26  1  0  0  0  0
 28 29  2  0  0  0  0
 29 27  1  0  0  0  0
 30 29  2  0  0  0  0
M  END
>  <MODEL>
7

>  <REMARK>
 VINA RESULT:      -8.1      3.297      7.291
  Name = 
  8 active torsions:
  status: ('A' for Active; 'I' for Inactive)
    1  A    between atoms: C_4  and  C_13
    2  A    between atoms: C_7  and  N_15
    3  A    between atoms: C_7  and  C_16
    4  A    between atoms: C_8  and  C_13
    5  A    between atoms: C_9  and  N_12
    6  A    between atoms: C_13  and  C_27
    7  A    between atoms: C_16  and  C_30
    8  A    between atoms: C_27  and  C_30
                            x       y       z     vdW  Elec       q    Type
                         _______ _______ _______ _____ _____    ______ ____

>  <TORSDO>
F 8

$$$$
=
 OpenBabel10272413523D

 30 34  0  0  1  0  0  0  0  0999 V2000
  189.1180  177.6650  143.8290 N   0  0  0  0  0  0  0  0  0  0  0  0
  191.2360  177.0510  144.9940 C   0  0  1  0  0  3  0  0  0  0  0  0
  187.0020  177.9600  147.4390 N   0  0  0  0  0  0  0  0  0  0  0  0
  187.8090  178.0310  143.7860 C   0  0  0  0  0  0  0  0  0  0  0  0
  185.6470  178.4130  147.4700 C   0  0  0  0  0  3  0  0  0  0  0  0
  191.6090  176.1440  146.1730 C   0  0  0  0  0  2  0  0  0  0  0  0
  191.6780  176.3840  143.7030 C   0  0  0  0  0  1  0  0  0  0  0  0
  187.7190  177.8370  146.2060 C   0  0  0  0  0  0  0  0  0  0  0  0
  190.9880  176.6120  147.4580 C   0  0  0  0  0  3  0  0  0  0  0  0
  189.7560  177.3570  144.9890 C   0  0  0  0  0  0  0  0  0  0  0  0
  187.0700  178.1210  144.9890 C   0  0  0  0  0  0  0  0  0  0  0  0
  184.9910  178.6790  146.3430 C   0  0  0  0  0  3  0  0  0  0  0  0
  185.6050  178.4950  144.9810 C   0  0  0  0  0  3  0  0  0  0  0  0
  189.7800  177.1790  147.4710 C   0  0  0  0  0  3  0  0  0  0  0  0
  189.0650  177.4530  146.2090 C   0  0  0  0  0  0  0  0  0  0  0  0
  187.2160  178.3140  142.4240 C   0  0  1  0  0  3  0  0  0  0  0  0
  188.7970  178.9260  140.6420 O   0  0  0  0  0  0  0  0  0  0  0  0
  188.7960  176.7050  141.2570 O   0  0  0  0  0  1  0  0  0  0  0  0
  188.1050  177.9240  141.2340 C   0  0  1  0  0  0  0  0  0  0  0  0
  187.7080  178.4230  139.9310 N   0  0  2  0  0  0  0  0  0  0  0  0
  188.2610  177.6220  138.8450 C   0  0  0  0  0  3  0  0  0  0  0  0
  188.6060  178.5310  137.6830 C   0  0  0  0  0  2  0  0  0  0  0  0
  187.3380  177.7070  137.6470 C   0  0  0  0  0  2  0  0  0  0  0  0
  185.7820  177.8110  142.2560 C   0  0  0  0  0  2  0  0  0  0  0  0
  184.8630  178.9060  141.7260 C   0  0  0  0  0  2  0  0  0  0  0  0
  183.4390  178.4070  141.5290 C   0  0  0  0  0  2  0  0  0  0  0  0
  182.5700  178.7870  142.7140 C   0  0  0  0  0  2  0  0  0  0  0  0
  180.7460  178.8170  141.0860 O   0  0  0  0  0  0  0  0  0  0  0  0
  181.2980  179.3060  142.2450 N   0  0  0  0  0  0  0  0  0  0  0  0
  180.6320  180.0690  142.9740 O   0  0  0  0  0  0  0  0  0  0  0  0
  1 10  1  0  0  0  0
  2  7  1  6  0  0  0
  2  6  1  0  0  0  0
  3  5  1  0  0  0  0
  4  1  2  0  0  0  0
  4 11  1  0  0  0  0
  6  9  1  0  0  0  0
  8 15  1  0  0  0  0
  8  3  2  0  0  0  0
  9 14  2  0  0  0  0
 10  2  1  0  0  0  0
 10 15  2  0  0  0  0
 11  8  1  0  0  0  0
 12  5  2  0  0  0  0
 13 11  2  0  0  0  0
 13 12  1  0  0  0  0
 15 14  1  0  0  0  0
 16 24  1  6  0  0  0
 16  4  1  0  0  0  0
 17 19  1  0  0  0  0
 19 18  1  1  0  0  0
 19 16  1  0  0  0  0
 20 21  1  6  0  0  0
 20 17  1  0  0  0  0
 20 19  1  0  0  0  0
 22 21  1  0  0  0  0
 23 22  1  0  0  0  0
 23 21  1  0  0  0  0
 25 24  1  0  0  0  0
 26 25  1  0  0  0  0
 26 27  1  0  0  0  0
 28 29  2  0  0  0  0
 29 27  1  0  0  0  0
 29 30  2  0  0  0  0
M  END
>  <MODEL>
8

>  <REMARK>
 VINA RESULT:      -8.0      2.829      6.450
  Name = 
  8 active torsions:
  status: ('A' for Active; 'I' for Inactive)
    1  A    between atoms: C_4  and  C_13
    2  A    between atoms: C_7  and  N_15
    3  A    between atoms: C_7  and  C_16
    4  A    between atoms: C_8  and  C_13
    5  A    between atoms: C_9  and  N_12
    6  A    between atoms: C_13  and  C_27
    7  A    between atoms: C_16  and  C_30
    8  A    between atoms: C_27  and  C_30
                            x       y       z     vdW  Elec       q    Type
                         _______ _______ _______ _____ _____    ______ ____

>  <TORSDO>
F 8

$$$$
=
 OpenBabel10272413523D

 30 34  0  0  1  0  0  0  0  0999 V2000
  187.4200  178.4270  139.5550 N   0  0  0  0  0  0  0  0  0  0  0  0
  189.1700  178.2300  137.7880 C   0  0  1  0  0  3  0  0  0  0  0  0
  189.9880  176.9390  142.5210 N   0  0  0  0  0  0  0  0  0  0  0  0
  186.9560  178.3380  140.8310 C   0  0  0  0  0  0  0  0  0  0  0  0
  189.5890  176.8920  143.8920 C   0  0  0  0  0  3  0  0  0  0  0  0
  190.2380  177.1930  137.4210 C   0  0  0  0  0  2  0  0  0  0  0  0
  188.0430  178.1540  136.7720 C   0  0  0  0  0  1  0  0  0  0  0  0
  189.1050  177.4250  141.5030 C   0  0  0  0  0  0  0  0  0  0  0  0
  191.2600  177.0330  138.5100 C   0  0  0  0  0  3  0  0  0  0  0  0
  188.6670  178.0200  139.1980 C   0  0  0  0  0  0  0  0  0  0  0  0
  187.7980  177.8240  141.8450 C   0  0  0  0  0  0  0  0  0  0  0  0
  188.3580  177.2460  144.2560 C   0  0  0  0  0  3  0  0  0  0  0  0
  187.3100  177.6810  143.2690 C   0  0  0  0  0  3  0  0  0  0  0  0
  190.9170  177.1420  139.7960 C   0  0  0  0  0  3  0  0  0  0  0  0
  189.5430  177.5220  140.1780 C   0  0  0  0  0  0  0  0  0  0  0  0
  185.5380  178.7950  141.0820 C   0  0  1  0  0  3  0  0  0  0  0  0
  184.8330  179.9020  139.0010 O   0  0  0  0  0  0  0  0  0  0  0  0
  184.3040  177.6660  139.1720 O   0  0  0  0  0  1  0  0  0  0  0  0
  184.6420  178.8530  139.8360 C   0  0  1  0  0  0  0  0  0  0  0  0
  183.6740  179.9320  139.7750 N   0  0  2  0  0  0  0  0  0  0  0  0
  182.5690  179.6290  138.8730 C   0  0  0  0  0  3  0  0  0  0  0  0
  181.8510  180.9140  138.5180 C   0  0  0  0  0  2  0  0  0  0  0  0
  181.2630  179.9810  139.5530 C   0  0  0  0  0  2  0  0  0  0  0  0
  184.8530  178.0800  142.2450 C   0  0  0  0  0  2  0  0  0  0  0  0
  183.8670  178.9950  142.9650 C   0  0  0  0  0  2  0  0  0  0  0  0
  183.8850  178.7780  144.4700 C   0  0  0  0  0  2  0  0  0  0  0  0
  185.0050  179.5770  145.1120 C   0  0  0  0  0  2  0  0  0  0  0  0
  185.6990  177.5750  146.3330 O   0  0  0  0  0  0  0  0  0  0  0  0
  185.4380  178.9230  146.3340 N   0  0  0  0  0  0  0  0  0  0  0  0
  185.7310  179.6100  147.3350 O   0  0  0  0  0  0  0  0  0  0  0  0
  1  4  1  0  0  0  0
  2  7  1  6  0  0  0
  2 10  1  0  0  0  0
  3  5  2  0  0  0  0
  4 16  1  0  0  0  0
  4 11  2  0  0  0  0
  5 12  1  0  0  0  0
  6  2  1  0  0  0  0
  6  9  1  0  0  0  0
  8 11  1  0  0  0  0
  8  3  1  0  0  0  0
  9 14  2  0  0  0  0
 10  1  2  0  0  0  0
 10 15  1  0  0  0  0
 11 13  1  0  0  0  0
 13 12  2  0  0  0  0
 14 15  1  0  0  0  0
 15  8  2  0  0  0  0
 16 24  1  1  0  0  0
 17 20  1  0  0  0  0
 17 19  1  0  0  0  0
 19 18  1  6  0  0  0
 19 16  1  0  0  0  0
 20 21  1  6  0  0  0
 20 19  1  0  0  0  0
 21 23  1  0  0  0  0
 22 21  1  0  0  0  0
 22 23  1  0  0  0  0
 24 25  1  0  0  0  0
 25 26  1  0  0  0  0
 26 27  1  0  0  0  0
 27 29  1  0  0  0  0
 28 29  2  0  0  0  0
 29 30  2  0  0  0  0
M  END
>  <MODEL>
9

>  <REMARK>
 VINA RESULT:      -7.9      3.057      6.911
  Name = 
  8 active torsions:
  status: ('A' for Active; 'I' for Inactive)
    1  A    between atoms: C_4  and  C_13
    2  A    between atoms: C_7  and  N_15
    3  A    between atoms: C_7  and  C_16
    4  A    between atoms: C_8  and  C_13
    5  A    between atoms: C_9  and  N_12
    6  A    between atoms: C_13  and  C_27
    7  A    between atoms: C_16  and  C_30
    8  A    between atoms: C_27  and  C_30
                            x       y       z     vdW  Elec       q    Type
                         _______ _______ _______ _____ _____    ______ ____

>  <TORSDO>
F 8

$$$$
