=
 OpenBabel10272413443D

 30 32  0  0  1  0  0  0  0  0999 V2000
  183.3510  180.2610  139.1510 C   0  0  0  0  0  2  0  0  0  0  0  0
  183.4230  178.7570  139.4150 C   0  0  2  0  0  0  0  0  0  0  0  0
  182.1020  179.4090  139.0000 C   0  0  2  0  0  0  0  0  0  0  0  0
  183.4630  178.3710  140.8120 N   0  0  0  0  0  0  0  0  0  0  0  0
  184.4000  178.0390  143.0140 C   0  0  1  0  0  3  0  0  0  0  0  0
  185.6720  178.3520  143.8100 C   0  0  0  0  0  2  0  0  0  0  0  0
  183.3080  178.6390  143.6400 O   0  0  0  0  0  1  0  0  0  0  0  0
  185.7950  179.0810  141.0610 C   0  0  0  0  0  2  0  0  0  0  0  0
  188.2050  178.1480  140.9330 C   0  0  0  0  0  1  0  0  0  0  0  0
  184.4950  178.5010  141.5760 C   0  0  0  0  0  0  0  0  0  0  0  0
  186.9080  178.0550  143.0070 C   0  0  0  0  0  3  0  0  0  0  0  0
  186.9670  178.4080  141.7180 C   0  0  0  0  0  0  0  0  0  0  0  0
  184.0480  175.7480  137.0970 C   0  0  0  0  0  3  0  0  0  0  0  0
  183.4090  176.5750  138.0330 C   0  0  0  0  0  0  0  0  0  0  0  0
  185.2370  178.1630  137.8140 C   0  0  0  0  0  3  0  0  0  0  0  0
  184.0210  177.7970  138.4080 C   0  0  0  0  0  0  0  0  0  0  0  0
  185.2620  176.1250  136.5210 C   0  0  0  0  0  3  0  0  0  0  0  0
  185.8550  177.3350  136.8770 C   0  0  0  0  0  3  0  0  0  0  0  0
  182.3250  175.4690  139.8620 O   0  0  0  0  0  1  0  0  0  0  0  0
  182.1100  176.1230  138.6410 C   0  0  2  0  0  3  0  0  0  0  0  0
  180.3830  176.2210  137.0380 C   0  0  0  0  0  1  0  0  0  0  0  0
  180.5060  174.3300  138.4130 C   0  0  0  0  0  1  0  0  0  0  0  0
  181.3080  175.3210  137.7060 N   0  0  0  0  0  0  0  0  0  0  0  0
  181.2110  181.5710  137.2010 O   0  0  0  0  0  1  0  0  0  0  0  0
  181.2340  180.2540  136.7580 C   0  0  0  0  0  0  0  0  0  0  0  0
  180.8510  179.9840  135.5900 O   0  0  0  0  0  0  0  0  0  0  0  0
  181.6910  179.2040  137.6110 N   0  0  0  0  0  2  0  0  0  0  0  0
  180.3960  180.8640  139.8700 O   0  0  0  0  0  1  0  0  0  0  0  0
  179.9820  178.5220  139.9920 C   0  0  0  0  0  1  0  0  0  0  0  0
  181.0170  179.6290  140.0560 C   0  0  1  0  0  3  0  0  0  0  0  0
  1  2  1  0  0  0  0
  2  4  1  1  0  0  0
  3 27  1  6  0  0  0
  3  1  1  0  0  0  0
  3  2  1  0  0  0  0
  3 30  1  0  0  0  0
  4 10  2  0  0  0  0
  5  7  1  1  0  0  0
  5  6  1  0  0  0  0
  8 10  1  0  0  0  0
  8 12  1  0  0  0  0
  9 12  1  0  0  0  0
 10  5  1  0  0  0  0
 11  6  1  0  0  0  0
 12 11  2  0  0  0  0
 13 14  1  0  0  0  0
 14 16  2  0  0  0  0
 14 20  1  0  0  0  0
 15 16  1  0  0  0  0
 16  2  1  0  0  0  0
 17 18  1  0  0  0  0
 17 13  2  0  0  0  0
 18 15  2  0  0  0  0
 20 19  1  1  0  0  0
 21 23  1  0  0  0  0
 23 22  1  0  0  0  0
 23 20  1  0  0  0  0
 25 24  1  0  0  0  0
 25 27  1  0  0  0  0
 26 25  2  0  0  0  0
 28 30  1  0  0  0  0
 30 29  1  6  0  0  0
M  END
>  <MODEL>
1

>  <REMARK>
 VINA RESULT:      -5.3      0.000      0.000
  Name = 
  6 active torsions:
  status: ('A' for Active; 'I' for Inactive)
    1  A    between atoms: N_1  and  C_5
    2  A    between atoms: C_5  and  C_12
    3  A    between atoms: C_8  and  C_13
    4  A    between atoms: C_13  and  N_30
    5  A    between atoms: C_23  and  N_25
    6  A    between atoms: C_23  and  C_26
                            x       y       z     vdW  Elec       q    Type
                         _______ _______ _______ _____ _____    ______ ____

>  <TORSDO>
F 6

$$$$
=
 OpenBabel10272413443D

 30 32  0  0  1  0  0  0  0  0999 V2000
  183.9080  176.5800  138.5610 C   0  0  0  0  0  2  0  0  0  0  0  0
  183.9280  178.0860  138.8210 C   0  0  2  0  0  0  0  0  0  0  0  0
  184.5040  177.5160  137.5220 C   0  0  2  0  0  0  0  0  0  0  0  0
  184.9420  178.5440  139.7500 N   0  0  0  0  0  0  0  0  0  0  0  0
  185.9540  179.0480  141.8860 C   0  0  1  0  0  3  0  0  0  0  0  0
  185.6930  178.8600  143.3840 C   0  0  0  0  0  2  0  0  0  0  0  0
  187.1470  178.4110  141.5430 O   0  0  0  0  0  1  0  0  0  0  0  0
  183.5640  178.0010  141.7010 C   0  0  0  0  0  2  0  0  0  0  0  0
  181.8610  179.0810  143.3240 C   0  0  0  0  0  1  0  0  0  0  0  0
  184.8190  178.5210  141.0340 C   0  0  0  0  0  0  0  0  0  0  0  0
  184.2710  179.1950  143.7400 C   0  0  0  0  0  3  0  0  0  0  0  0
  183.2720  178.7810  142.9520 C   0  0  0  0  0  0  0  0  0  0  0  0
  180.2920  179.2860  138.4270 C   0  0  0  0  0  3  0  0  0  0  0  0
  181.3770  178.4110  138.5820 C   0  0  0  0  0  0  0  0  0  0  0  0
  182.8680  180.3310  138.6120 C   0  0  0  0  0  3  0  0  0  0  0  0
  182.6880  178.9400  138.6630 C   0  0  0  0  0  0  0  0  0  0  0  0
  180.4900  180.6670  138.3720 C   0  0  0  0  0  3  0  0  0  0  0  0
  181.7790  181.1890  138.4680 C   0  0  0  0  0  3  0  0  0  0  0  0
  180.0640  176.5780  137.7690 O   0  0  0  0  0  1  0  0  0  0  0  0
  181.1200  176.9290  138.6210 C   0  0  2  0  0  3  0  0  0  0  0  0
  180.3430  175.1070  139.9010 C   0  0  0  0  0  1  0  0  0  0  0  0
  179.9820  177.2680  140.7260 C   0  0  0  0  0  1  0  0  0  0  0  0
  180.9260  176.4340  139.9910 N   0  0  0  0  0  0  0  0  0  0  0  0
  183.7340  175.2970  135.7360 O   0  0  0  0  0  1  0  0  0  0  0  0
  183.3350  176.5970  135.4530 C   0  0  0  0  0  0  0  0  0  0  0  0
  182.6590  176.8290  134.4160 O   0  0  0  0  0  0  0  0  0  0  0  0
  183.6770  177.6740  136.3270 N   0  0  0  0  0  2  0  0  0  0  0  0
  186.4460  176.1080  137.3370 O   0  0  0  0  0  1  0  0  0  0  0  0
  186.4500  178.1250  136.0710 C   0  0  0  0  0  1  0  0  0  0  0  0
  186.0230  177.4370  137.3540 C   0  0  1  0  0  3  0  0  0  0  0  0
  1  2  1  0  0  0  0
  2  4  1  1  0  0  0
  3 27  1  6  0  0  0
  3  1  1  0  0  0  0
  3  2  1  0  0  0  0
  4 10  2  0  0  0  0
  5  7  1  6  0  0  0
  5  6  1  0  0  0  0
  6 11  1  0  0  0  0
  8 12  1  0  0  0  0
 10  8  1  0  0  0  0
 10  5  1  0  0  0  0
 12  9  1  0  0  0  0
 12 11  2  0  0  0  0
 13 14  1  0  0  0  0
 14 20  1  0  0  0  0
 14 16  2  0  0  0  0
 15 16  1  0  0  0  0
 16  2  1  0  0  0  0
 17 13  2  0  0  0  0
 17 18  1  0  0  0  0
 18 15  2  0  0  0  0
 20 19  1  6  0  0  0
 20 23  1  0  0  0  0
 21 23  1  0  0  0  0
 23 22  1  0  0  0  0
 25 24  1  0  0  0  0
 25 27  1  0  0  0  0
 26 25  2  0  0  0  0
 28 30  1  0  0  0  0
 30 29  1  6  0  0  0
 30  3  1  0  0  0  0
M  END
>  <MODEL>
2

>  <REMARK>
 VINA RESULT:      -4.9      2.256      4.306
  Name = 
  6 active torsions:
  status: ('A' for Active; 'I' for Inactive)
    1  A    between atoms: N_1  and  C_5
    2  A    between atoms: C_5  and  C_12
    3  A    between atoms: C_8  and  C_13
    4  A    between atoms: C_13  and  N_30
    5  A    between atoms: C_23  and  N_25
    6  A    between atoms: C_23  and  C_26
                            x       y       z     vdW  Elec       q    Type
                         _______ _______ _______ _____ _____    ______ ____

>  <TORSDO>
F 6

$$$$
=
 OpenBabel10272413443D

 30 32  0  0  1  0  0  0  0  0999 V2000
  183.7350  179.2690  138.5240 C   0  0  0  0  0  2  0  0  0  0  0  0
  183.4230  177.9130  139.1540 C   0  0  2  0  0  0  0  0  0  0  0  0
  182.2970  178.7810  138.5870 C   0  0  2  0  0  0  0  0  0  0  0  0
  183.4500  177.8780  140.6040 N   0  0  0  0  0  0  0  0  0  0  0  0
  184.3410  178.1740  142.8300 C   0  0  1  0  0  3  0  0  0  0  0  0
  185.5530  178.7870  143.5410 C   0  0  0  0  0  2  0  0  0  0  0  0
  183.1790  178.8000  143.2820 O   0  0  0  0  0  1  0  0  0  0  0  0
  185.7000  178.8440  140.6980 C   0  0  0  0  0  2  0  0  0  0  0  0
  188.1870  178.1390  140.8250 C   0  0  0  0  0  1  0  0  0  0  0  0
  184.4410  178.2840  141.3240 C   0  0  0  0  0  0  0  0  0  0  0  0
  186.8360  178.4240  142.8470 C   0  0  0  0  0  3  0  0  0  0  0  0
  186.9050  178.4620  141.5110 C   0  0  0  0  0  0  0  0  0  0  0  0
  184.8250  175.2120  136.7970 C   0  0  0  0  0  3  0  0  0  0  0  0
  184.6740  176.4560  137.4270 C   0  0  0  0  0  0  0  0  0  0  0  0
  182.8800  175.5120  138.7690 C   0  0  0  0  0  3  0  0  0  0  0  0
  183.6760  176.6130  138.4200 C   0  0  0  0  0  0  0  0  0  0  0  0
  184.0190  174.1290  137.1520 C   0  0  0  0  0  3  0  0  0  0  0  0
  183.0490  174.2790  138.1400 C   0  0  0  0  0  3  0  0  0  0  0  0
  185.6950  177.6390  135.6090 O   0  0  0  0  0  1  0  0  0  0  0  0
  185.5530  177.6010  137.0030 C   0  0  2  0  0  3  0  0  0  0  0  0
  187.6100  178.7340  137.2170 C   0  0  0  0  0  1  0  0  0  0  0  0
  187.6140  176.3990  137.3850 C   0  0  0  0  0  1  0  0  0  0  0  0
  186.8460  177.5970  137.7010 N   0  0  0  0  0  0  0  0  0  0  0  0
  181.2630  180.6510  136.5530 O   0  0  0  0  0  1  0  0  0  0  0  0
  181.2310  179.2810  136.3270 C   0  0  0  0  0  0  0  0  0  0  0  0
  180.7390  178.8380  135.2570 O   0  0  0  0  0  0  0  0  0  0  0  0
  181.7570  178.3680  137.2920 N   0  0  0  0  0  2  0  0  0  0  0  0
  181.3330  180.8900  139.2220 O   0  0  0  0  0  1  0  0  0  0  0  0
  179.9830  178.9520  139.5220 C   0  0  0  0  0  1  0  0  0  0  0  0
  181.3820  179.5370  139.5520 C   0  0  1  0  0  3  0  0  0  0  0  0
  1  3  1  0  0  0  0
  1  2  1  0  0  0  0
  2  4  1  1  0  0  0
  3 27  1  6  0  0  0
  3  2  1  0  0  0  0
  3 30  1  0  0  0  0
  4 10  2  0  0  0  0
  5  7  1  1  0  0  0
  5  6  1  0  0  0  0
  8 10  1  0  0  0  0
  8 12  1  0  0  0  0
  9 12  1  0  0  0  0
 10  5  1  0  0  0  0
 11  6  1  0  0  0  0
 12 11  2  0  0  0  0
 13 17  2  0  0  0  0
 13 14  1  0  0  0  0
 14 16  2  0  0  0  0
 16 15  1  0  0  0  0
 16  2  1  0  0  0  0
 17 18  1  0  0  0  0
 18 15  2  0  0  0  0
 20 19  1  6  0  0  0
 20 14  1  0  0  0  0
 20 23  1  0  0  0  0
 21 23  1  0  0  0  0
 22 23  1  0  0  0  0
 25 24  1  0  0  0  0
 25 27  1  0  0  0  0
 26 25  2  0  0  0  0
 28 30  1  0  0  0  0
 30 29  1  6  0  0  0
M  END
>  <MODEL>
3

>  <REMARK>
 VINA RESULT:      -4.0      1.642      2.915
  Name = 
  6 active torsions:
  status: ('A' for Active; 'I' for Inactive)
    1  A    between atoms: N_1  and  C_5
    2  A    between atoms: C_5  and  C_12
    3  A    between atoms: C_8  and  C_13
    4  A    between atoms: C_13  and  N_30
    5  A    between atoms: C_23  and  N_25
    6  A    between atoms: C_23  and  C_26
                            x       y       z     vdW  Elec       q    Type
                         _______ _______ _______ _____ _____    ______ ____

>  <TORSDO>
F 6

$$$$
=
 OpenBabel10272413443D

 30 32  0  0  1  0  0  0  0  0999 V2000
  186.0300  176.9310  138.4560 C   0  0  0  0  0  2  0  0  0  0  0  0
  185.5280  178.2460  139.0520 C   0  0  2  0  0  0  0  0  0  0  0  0
  186.6460  178.2460  138.0060 C   0  0  2  0  0  0  0  0  0  0  0  0
  185.9930  178.5400  140.3930 N   0  0  0  0  0  0  0  0  0  0  0  0
  185.8910  178.7550  142.7980 C   0  0  1  0  0  3  0  0  0  0  0  0
  184.9570  178.4300  143.9690 C   0  0  0  0  0  2  0  0  0  0  0  0
  187.1000  178.0820  142.9740 O   0  0  0  0  0  1  0  0  0  0  0  0
  183.8570  177.8880  141.4000 C   0  0  0  0  0  2  0  0  0  0  0  0
  181.6020  178.9010  142.1650 C   0  0  0  0  0  1  0  0  0  0  0  0
  185.2830  178.3920  141.4600 C   0  0  0  0  0  0  0  0  0  0  0  0
  183.5370  178.8170  143.6620 C   0  0  0  0  0  3  0  0  0  0  0  0
  183.0200  178.5510  142.4570 C   0  0  0  0  0  0  0  0  0  0  0  0
  182.0230  178.8400  137.5760 C   0  0  0  0  0  3  0  0  0  0  0  0
  183.1920  178.1630  137.9530 C   0  0  0  0  0  0  0  0  0  0  0  0
  184.0410  180.2380  138.8930 C   0  0  0  0  0  3  0  0  0  0  0  0
  184.2240  178.8760  138.6110 C   0  0  0  0  0  0  0  0  0  0  0  0
  181.8600  180.1970  137.8590 C   0  0  0  0  0  3  0  0  0  0  0  0
  182.8680  180.8950  138.5210 C   0  0  0  0  0  3  0  0  0  0  0  0
  183.7410  176.5320  136.2850 O   0  0  0  0  0  1  0  0  0  0  0  0
  183.3330  176.7040  137.6140 C   0  0  2  0  0  3  0  0  0  0  0  0
  182.3270  175.3060  139.2260 C   0  0  0  0  0  1  0  0  0  0  0  0
  181.8950  174.8730  136.9660 C   0  0  0  0  0  1  0  0  0  0  0  0
  182.1190  175.9390  137.9350 N   0  0  0  0  0  0  0  0  0  0  0  0
  187.3620  176.7420  135.5710 O   0  0  0  0  0  1  0  0  0  0  0  0
  186.6390  177.9250  135.4780 C   0  0  0  0  0  0  0  0  0  0  0  0
  186.3080  178.3640  134.3460 O   0  0  0  0  0  0  0  0  0  0  0  0
  186.2610  178.6450  136.6520 N   0  0  0  0  0  2  0  0  0  0  0  0
  188.7180  177.2860  138.7620 O   0  0  0  0  0  1  0  0  0  0  0  0
  188.8650  179.2160  137.3750 C   0  0  0  0  0  1  0  0  0  0  0  0
  188.0870  178.4920  138.4570 C   0  0  1  0  0  3  0  0  0  0  0  0
  1  2  1  0  0  0  0
  2  4  1  1  0  0  0
  3 27  1  6  0  0  0
  3  1  1  0  0  0  0
  3 30  1  0  0  0  0
  3  2  1  0  0  0  0
  4 10  2  0  0  0  0
  5  7  1  1  0  0  0
  5  6  1  0  0  0  0
  8 10  1  0  0  0  0
  8 12  1  0  0  0  0
  9 12  1  0  0  0  0
 10  5  1  0  0  0  0
 11  6  1  0  0  0  0
 12 11  2  0  0  0  0
 13 17  2  0  0  0  0
 13 14  1  0  0  0  0
 14 16  2  0  0  0  0
 16 15  1  0  0  0  0
 16  2  1  0  0  0  0
 17 18  1  0  0  0  0
 18 15  2  0  0  0  0
 20 19  1  6  0  0  0
 20 23  1  0  0  0  0
 20 14  1  0  0  0  0
 22 23  1  0  0  0  0
 23 21  1  0  0  0  0
 25 24  1  0  0  0  0
 25 27  1  0  0  0  0
 26 25  2  0  0  0  0
 30 29  1  6  0  0  0
 30 28  1  0  0  0  0
M  END
>  <MODEL>
4

>  <REMARK>
 VINA RESULT:      -3.9      2.827      4.632
  Name = 
  6 active torsions:
  status: ('A' for Active; 'I' for Inactive)
    1  A    between atoms: N_1  and  C_5
    2  A    between atoms: C_5  and  C_12
    3  A    between atoms: C_8  and  C_13
    4  A    between atoms: C_13  and  N_30
    5  A    between atoms: C_23  and  N_25
    6  A    between atoms: C_23  and  C_26
                            x       y       z     vdW  Elec       q    Type
                         _______ _______ _______ _____ _____    ______ ____

>  <TORSDO>
F 6

$$$$
=
 OpenBabel10272413443D

 30 32  0  0  1  0  0  0  0  0999 V2000
  183.9780  176.5330  138.8430 C   0  0  0  0  0  2  0  0  0  0  0  0
  184.3150  176.2050  137.3890 C   0  0  2  0  0  0  0  0  0  0  0  0
  182.9690  176.8380  137.7480 C   0  0  2  0  0  0  0  0  0  0  0  0
  184.2160  174.8040  137.0270 N   0  0  0  0  0  0  0  0  0  0  0  0
  184.9760  172.5700  136.5070 C   0  0  1  0  0  3  0  0  0  0  0  0
  186.2610  171.7350  136.5070 C   0  0  0  0  0  2  0  0  0  0  0  0
  184.0480  171.9850  137.3690 O   0  0  0  0  0  1  0  0  0  0  0  0
  186.6430  174.4840  137.1410 C   0  0  0  0  0  2  0  0  0  0  0  0
  188.7490  174.5260  135.6380 C   0  0  0  0  0  1  0  0  0  0  0  0
  185.2250  174.0080  136.9090 C   0  0  0  0  0  0  0  0  0  0  0  0
  187.4080  172.4950  135.9010 C   0  0  0  0  0  3  0  0  0  0  0  0
  187.5910  173.7840  136.2090 C   0  0  0  0  0  0  0  0  0  0  0  0
  187.0370  178.6970  136.2920 C   0  0  0  0  0  3  0  0  0  0  0  0
  186.2280  177.9230  137.1370 C   0  0  0  0  0  0  0  0  0  0  0  0
  185.1240  177.0070  135.1730 C   0  0  0  0  0  3  0  0  0  0  0  0
  185.2460  177.0740  136.5690 C   0  0  0  0  0  0  0  0  0  0  0  0
  186.8970  178.6230  134.9050 C   0  0  0  0  0  3  0  0  0  0  0  0
  185.9430  177.7750  134.3460 C   0  0  0  0  0  3  0  0  0  0  0  0
  185.5840  179.0570  139.1480 O   0  0  0  0  0  1  0  0  0  0  0  0
  186.4010  178.0450  138.6260 C   0  0  2  0  0  3  0  0  0  0  0  0
  188.4880  176.9520  138.7220 C   0  0  0  0  0  1  0  0  0  0  0  0
  187.9440  178.4430  140.4430 C   0  0  0  0  0  1  0  0  0  0  0  0
  187.8100  178.2040  139.0110 N   0  0  0  0  0  0  0  0  0  0  0  0
  181.9640  178.8340  139.6750 O   0  0  0  0  0  1  0  0  0  0  0  0
  182.3140  179.2170  138.3860 C   0  0  0  0  0  0  0  0  0  0  0  0
  182.1810  180.4190  138.0360 O   0  0  0  0  0  0  0  0  0  0  0  0
  182.8300  178.2640  137.4550 N   0  0  0  0  0  2  0  0  0  0  0  0
  181.2050  175.8310  139.0350 O   0  0  0  0  0  1  0  0  0  0  0  0
  180.6530  176.5690  136.8390 C   0  0  0  0  0  1  0  0  0  0  0  0
  181.7120  175.9670  137.7430 C   0  0  1  0  0  3  0  0  0  0  0  0
  2  4  1  6  0  0  0
  2  3  1  0  0  0  0
  2  1  1  0  0  0  0
  3 27  1  6  0  0  0
  3  1  1  0  0  0  0
  5  6  1  0  0  0  0
  5 10  1  0  0  0  0
  5  7  1  1  0  0  0
  9 12  1  0  0  0  0
 10  4  2  0  0  0  0
 10  8  1  0  0  0  0
 11 12  2  0  0  0  0
 11  6  1  0  0  0  0
 12  8  1  0  0  0  0
 13 14  1  0  0  0  0
 14 20  1  0  0  0  0
 15 16  1  0  0  0  0
 16 14  2  0  0  0  0
 16  2  1  0  0  0  0
 17 13  2  0  0  0  0
 18 17  1  0  0  0  0
 18 15  2  0  0  0  0
 20 23  1  0  0  0  0
 20 19  1  6  0  0  0
 21 23  1  0  0  0  0
 23 22  1  0  0  0  0
 25 24  1  0  0  0  0
 26 25  2  0  0  0  0
 27 25  1  0  0  0  0
 30 29  1  6  0  0  0
 30  3  1  0  0  0  0
 30 28  1  0  0  0  0
M  END
>  <MODEL>
5

>  <REMARK>
 VINA RESULT:      -3.7      2.639      5.673
  Name = 
  6 active torsions:
  status: ('A' for Active; 'I' for Inactive)
    1  A    between atoms: N_1  and  C_5
    2  A    between atoms: C_5  and  C_12
    3  A    between atoms: C_8  and  C_13
    4  A    between atoms: C_13  and  N_30
    5  A    between atoms: C_23  and  N_25
    6  A    between atoms: C_23  and  C_26
                            x       y       z     vdW  Elec       q    Type
                         _______ _______ _______ _____ _____    ______ ____

>  <TORSDO>
F 6

$$$$
=
 OpenBabel10272413443D

 30 32  0  0  1  0  0  0  0  0999 V2000
  185.5690  176.1130  135.2200 C   0  0  0  0  0  2  0  0  0  0  0  0
  184.5560  176.0970  136.3640 C   0  0  2  0  0  0  0  0  0  0  0  0
  185.9850  176.5930  136.6010 C   0  0  2  0  0  0  0  0  0  0  0  0
  184.2940  174.7940  136.9450 N   0  0  0  0  0  0  0  0  0  0  0  0
  183.2580  172.6260  137.1950 C   0  0  1  0  0  3  0  0  0  0  0  0
  182.2880  171.6930  136.4590 C   0  0  0  0  0  2  0  0  0  0  0  0
  184.4870  171.9840  137.3450 O   0  0  0  0  0  1  0  0  0  0  0  0
  182.6160  174.2470  135.2450 C   0  0  0  0  0  2  0  0  0  0  0  0
  180.0650  174.3630  134.8270 C   0  0  0  0  0  1  0  0  0  0  0  0
  183.4430  173.9450  136.4760 C   0  0  0  0  0  0  0  0  0  0  0  0
  181.0890  172.4420  135.9480 C   0  0  0  0  0  3  0  0  0  0  0  0
  181.2480  173.6380  135.3670 C   0  0  0  0  0  0  0  0  0  0  0  0
  182.0520  178.6800  137.7320 C   0  0  0  0  0  3  0  0  0  0  0  0
  183.0730  177.7190  137.7210 C   0  0  0  0  0  0  0  0  0  0  0  0
  182.8550  177.5760  135.3030 C   0  0  0  0  0  3  0  0  0  0  0  0
  183.4730  177.1470  136.4880 C   0  0  0  0  0  0  0  0  0  0  0  0
  181.4430  179.0900  136.5440 C   0  0  0  0  0  3  0  0  0  0  0  0
  181.8480  178.5400  135.3300 C   0  0  0  0  0  3  0  0  0  0  0  0
  182.9810  176.2300  139.5960 O   0  0  0  0  0  1  0  0  0  0  0  0
  183.6900  177.2940  139.0250 C   0  0  2  0  0  3  0  0  0  0  0  0
  185.2660  178.7870  139.9480 C   0  0  0  0  0  1  0  0  0  0  0  0
  183.5220  178.0370  141.3180 C   0  0  0  0  0  1  0  0  0  0  0  0
  183.8600  178.4210  139.9530 N   0  0  0  0  0  0  0  0  0  0  0  0
  188.2120  178.0820  135.3660 O   0  0  0  0  0  0  0  0  0  0  0  0
  187.2540  178.7490  136.1190 C   0  0  0  0  0  0  0  0  0  0  0  0
  187.3520  179.9920  136.2900 O   0  0  0  0  0  1  0  0  0  0  0  0
  186.1550  178.0420  136.6960 N   0  0  0  0  0  2  0  0  0  0  0  0
  187.7520  174.9690  136.4450 O   0  0  0  0  0  1  0  0  0  0  0  0
  187.8660  176.5190  138.2500 C   0  0  0  0  0  1  0  0  0  0  0  0
  186.9710  175.6920  137.3470 C   0  0  1  0  0  3  0  0  0  0  0  0
  1  2  1  0  0  0  0
  1  3  1  0  0  0  0
  2 16  1  0  0  0  0
  2  3  1  0  0  0  0
  2  4  1  1  0  0  0
  3 27  1  1  0  0  0
  3 30  1  0  0  0  0
  5  7  1  6  0  0  0
  6  5  1  0  0  0  0
  8 12  1  0  0  0  0
  8 10  1  0  0  0  0
  9 12  1  0  0  0  0
 10  4  2  0  0  0  0
 10  5  1  0  0  0  0
 11  6  1  0  0  0  0
 12 11  2  0  0  0  0
 14 13  1  0  0  0  0
 14 20  1  0  0  0  0
 15 18  2  0  0  0  0
 15 16  1  0  0  0  0
 16 14  2  0  0  0  0
 17 13  2  0  0  0  0
 18 17  1  0  0  0  0
 20 19  1  1  0  0  0
 20 23  1  0  0  0  0
 21 23  1  0  0  0  0
 23 22  1  0  0  0  0
 24 25  2  0  0  0  0
 25 26  1  0  0  0  0
 25 27  1  0  0  0  0
 28 30  1  0  0  0  0
 30 29  1  6  0  0  0
M  END
>  <MODEL>
6

>  <REMARK>
 VINA RESULT:      -3.6      3.185      6.791
  Name = 
  6 active torsions:
  status: ('A' for Active; 'I' for Inactive)
    1  A    between atoms: N_1  and  C_5
    2  A    between atoms: C_5  and  C_12
    3  A    between atoms: C_8  and  C_13
    4  A    between atoms: C_13  and  N_30
    5  A    between atoms: C_23  and  N_25
    6  A    between atoms: C_23  and  C_26
                            x       y       z     vdW  Elec       q    Type
                         _______ _______ _______ _____ _____    ______ ____

>  <TORSDO>
F 6

$$$$
=
 OpenBabel10272413443D

 30 32  0  0  1  0  0  0  0  0999 V2000
  183.6440  176.7330  138.8510 C   0  0  0  0  0  2  0  0  0  0  0  0
  184.1670  177.2330  137.5050 C   0  0  2  0  0  0  0  0  0  0  0  0
  183.7650  178.2260  138.5980 C   0  0  2  0  0  0  0  0  0  0  0  0
  183.2220  177.1690  136.4070 N   0  0  0  0  0  0  0  0  0  0  0  0
  181.4490  176.2720  135.0330 C   0  0  1  0  0  3  0  0  0  0  0  0
  180.4290  175.1280  135.0280 C   0  0  0  0  0  2  0  0  0  0  0  0
  180.7710  177.4910  134.9980 O   0  0  0  0  0  1  0  0  0  0  0  0
  182.2740  175.0520  137.1940 C   0  0  0  0  0  2  0  0  0  0  0  0
  182.5240  172.4960  136.8760 C   0  0  0  0  0  1  0  0  0  0  0  0
  182.3660  176.2200  136.2360 C   0  0  0  0  0  0  0  0  0  0  0  0
  181.0640  173.8260  135.4290 C   0  0  0  0  0  3  0  0  0  0  0  0
  181.9230  173.7910  136.4550 C   0  0  0  0  0  0  0  0  0  0  0  0
  187.6920  176.1190  136.4340 C   0  0  0  0  0  3  0  0  0  0  0  0
  186.3210  176.0440  136.7200 C   0  0  0  0  0  0  0  0  0  0  0  0
  186.3500  178.4110  137.2730 C   0  0  0  0  0  3  0  0  0  0  0  0
  185.6410  177.2060  137.1600 C   0  0  0  0  0  0  0  0  0  0  0  0
  188.3830  177.3250  136.5580 C   0  0  0  0  0  3  0  0  0  0  0  0
  187.7100  178.4720  136.9750 C   0  0  0  0  0  3  0  0  0  0  0  0
  185.8230  173.9250  137.7240 O   0  0  0  0  0  1  0  0  0  0  0  0
  185.6190  174.7200  136.5880 C   0  0  2  0  0  3  0  0  0  0  0  0
  184.9280  174.3040  134.3720 C   0  0  0  0  0  1  0  0  0  0  0  0
  186.0050  172.5800  135.5350 C   0  0  0  0  0  1  0  0  0  0  0  0
  185.9730  174.0250  135.3420 N   0  0  0  0  0  0  0  0  0  0  0  0
  183.9620  178.3240  141.5400 O   0  0  0  0  0  1  0  0  0  0  0  0
  184.9320  178.9290  140.7510 C   0  0  0  0  0  0  0  0  0  0  0  0
  185.8870  179.5380  141.2990 O   0  0  0  0  0  0  0  0  0  0  0  0
  184.8620  178.8620  139.3260 N   0  0  0  0  0  2  0  0  0  0  0  0
  181.4820  178.4490  139.3210 O   0  0  0  0  0  1  0  0  0  0  0  0
  182.6410  180.4560  138.7760 C   0  0  0  0  0  1  0  0  0  0  0  0
  182.4430  178.9850  138.4640 C   0  0  1  0  0  3  0  0  0  0  0  0
  2  4  1  6  0  0  0
  2  3  1  0  0  0  0
  2  1  1  0  0  0  0
  3  1  1  0  0  0  0
  3 27  1  1  0  0  0
  5  7  1  1  0  0  0
  5 10  1  0  0  0  0
  6  5  1  0  0  0  0
  6 11  1  0  0  0  0
 10  4  2  0  0  0  0
 10  8  1  0  0  0  0
 11 12  2  0  0  0  0
 12  9  1  0  0  0  0
 12  8  1  0  0  0  0
 13 17  2  0  0  0  0
 13 14  1  0  0  0  0
 14 16  2  0  0  0  0
 16 15  1  0  0  0  0
 16  2  1  0  0  0  0
 17 18  1  0  0  0  0
 18 15  2  0  0  0  0
 20 14  1  0  0  0  0
 20 19  1  1  0  0  0
 21 23  1  0  0  0  0
 23 22  1  0  0  0  0
 23 20  1  0  0  0  0
 25 26  2  0  0  0  0
 25 24  1  0  0  0  0
 27 25  1  0  0  0  0
 30  3  1  0  0  0  0
 30 29  1  1  0  0  0
 30 28  1  0  0  0  0
M  END
>  <MODEL>
7

>  <REMARK>
 VINA RESULT:      -3.5      2.465      5.814
  Name = 
  6 active torsions:
  status: ('A' for Active; 'I' for Inactive)
    1  A    between atoms: N_1  and  C_5
    2  A    between atoms: C_5  and  C_12
    3  A    between atoms: C_8  and  C_13
    4  A    between atoms: C_13  and  N_30
    5  A    between atoms: C_23  and  N_25
    6  A    between atoms: C_23  and  C_26
                            x       y       z     vdW  Elec       q    Type
                         _______ _______ _______ _____ _____    ______ ____

>  <TORSDO>
F 6

$$$$
=
 OpenBabel10272413443D

 30 32  0  0  1  0  0  0  0  0999 V2000
  184.8550  179.2610  138.2020 C   0  0  0  0  0  2  0  0  0  0  0  0
  185.7710  178.0400  138.1340 C   0  0  2  0  0  0  0  0  0  0  0  0
  184.2590  177.8660  138.2920 C   0  0  2  0  0  0  0  0  0  0  0  0
  186.5150  177.7520  139.3450 N   0  0  0  0  0  0  0  0  0  0  0  0
  188.4480  177.4550  140.7650 C   0  0  1  0  0  3  0  0  0  0  0  0
  189.9670  177.6520  140.7390 C   0  0  0  0  0  2  0  0  0  0  0  0
  187.9000  178.2360  141.7830 O   0  0  0  0  0  1  0  0  0  0  0  0
  188.6710  178.1630  138.2560 C   0  0  0  0  0  2  0  0  0  0  0  0
  190.5700  176.9130  137.0210 C   0  0  0  0  0  1  0  0  0  0  0  0
  187.8010  177.7970  139.4400 C   0  0  0  0  0  0  0  0  0  0  0  0
  190.5650  177.1380  139.4580 C   0  0  0  0  0  3  0  0  0  0  0  0
  189.9580  177.3900  138.2920 C   0  0  0  0  0  0  0  0  0  0  0  0
  187.0790  175.8200  135.2740 C   0  0  0  0  0  3  0  0  0  0  0  0
  186.5250  176.1760  136.5130 C   0  0  0  0  0  0  0  0  0  0  0  0
  186.7130  178.5160  135.8780 C   0  0  0  0  0  3  0  0  0  0  0  0
  186.3500  177.5470  136.8250 C   0  0  0  0  0  0  0  0  0  0  0  0
  187.4410  176.7980  134.3460 C   0  0  0  0  0  3  0  0  0  0  0  0
  187.2540  178.1460  134.6470 C   0  0  0  0  0  3  0  0  0  0  0  0
  187.1850  174.1360  137.5820 O   0  0  0  0  0  1  0  0  0  0  0  0
  186.1640  175.0920  137.4900 C   0  0  2  0  0  3  0  0  0  0  0  0
  184.8650  173.1370  137.7210 C   0  0  0  0  0  1  0  0  0  0  0  0
  184.6270  174.3950  135.7600 C   0  0  0  0  0  1  0  0  0  0  0  0
  184.8550  174.4920  137.1970 N   0  0  0  0  0  0  0  0  0  0  0  0
  181.7410  179.1070  137.3830 O   0  0  0  0  0  1  0  0  0  0  0  0
  182.2950  178.0460  136.6780 C   0  0  0  0  0  0  0  0  0  0  0  0
  181.7060  177.6010  135.6590 O   0  0  0  0  0  0  0  0  0  0  0  0
  183.5290  177.4580  137.0930 N   0  0  0  0  0  2  0  0  0  0  0  0
  183.0210  178.5500  140.2380 O   0  0  0  0  0  1  0  0  0  0  0  0
  182.7500  176.2940  139.5230 C   0  0  0  0  0  1  0  0  0  0  0  0
  183.6930  177.4740  139.6590 C   0  0  1  0  0  3  0  0  0  0  0  0
  1  3  1  0  0  0  0
  2  1  1  0  0  0  0
  2  3  1  0  0  0  0
  2  4  1  1  0  0  0
  3 27  1  6  0  0  0
  3 30  1  0  0  0  0
  4 10  2  0  0  0  0
  5  7  1  1  0  0  0
  6  5  1  0  0  0  0
  8 12  1  0  0  0  0
  8 10  1  0  0  0  0
  9 12  1  0  0  0  0
 10  5  1  0  0  0  0
 11  6  1  0  0  0  0
 12 11  2  0  0  0  0
 13 14  1  0  0  0  0
 14 16  2  0  0  0  0
 14 20  1  0  0  0  0
 15 16  1  0  0  0  0
 16  2  1  0  0  0  0
 17 18  1  0  0  0  0
 17 13  2  0  0  0  0
 18 15  2  0  0  0  0
 20 19  1  6  0  0  0
 22 23  1  0  0  0  0
 23 20  1  0  0  0  0
 23 21  1  0  0  0  0
 25 27  1  0  0  0  0
 25 24  1  0  0  0  0
 26 25  2  0  0  0  0
 30 29  1  6  0  0  0
 30 28  1  0  0  0  0
M  END
>  <MODEL>
8

>  <REMARK>
 VINA RESULT:      -3.4      2.683      3.856
  Name = 
  6 active torsions:
  status: ('A' for Active; 'I' for Inactive)
    1  A    between atoms: N_1  and  C_5
    2  A    between atoms: C_5  and  C_12
    3  A    between atoms: C_8  and  C_13
    4  A    between atoms: C_13  and  N_30
    5  A    between atoms: C_23  and  N_25
    6  A    between atoms: C_23  and  C_26
                            x       y       z     vdW  Elec       q    Type
                         _______ _______ _______ _____ _____    ______ ____

>  <TORSDO>
F 6

$$$$
=
 OpenBabel10272413443D

 30 32  0  0  1  0  0  0  0  0999 V2000
  188.0080  175.7860  137.9460 C   0  0  0  0  0  2  0  0  0  0  0  0
  188.4320  175.8620  136.4800 C   0  0  2  0  0  0  0  0  0  0  0  0
  188.7920  176.9900  137.4510 C   0  0  2  0  0  0  0  0  0  0  0  0
  187.3820  176.2190  135.5460 N   0  0  0  0  0  0  0  0  0  0  0  0
  185.1530  176.3180  134.6190 C   0  0  1  0  0  3  0  0  0  0  0  0
  183.7110  175.9400  134.9790 C   0  0  0  0  0  2  0  0  0  0  0  0
  185.2280  177.6970  134.4180 O   0  0  0  0  0  1  0  0  0  0  0  0
  185.6610  175.0800  136.8670 C   0  0  0  0  0  2  0  0  0  0  0  0
  184.4540  172.7990  137.0570 C   0  0  0  0  0  1  0  0  0  0  0  0
  186.1410  175.8920  135.6830 C   0  0  0  0  0  0  0  0  0  0  0  0
  183.6370  174.5550  135.5590 C   0  0  0  0  0  3  0  0  0  0  0  0
  184.5490  174.1570  136.4540 C   0  0  0  0  0  0  0  0  0  0  0  0
  190.7020  173.0160  135.2290 C   0  0  0  0  0  3  0  0  0  0  0  0
  189.5600  173.6660  135.7210 C   0  0  0  0  0  0  0  0  0  0  0  0
  190.7770  175.7700  135.6440 C   0  0  0  0  0  3  0  0  0  0  0  0
  189.6020  175.0650  135.9440 C   0  0  0  0  0  0  0  0  0  0  0  0
  191.8650  173.7330  134.9430 C   0  0  0  0  0  3  0  0  0  0  0  0
  191.9000  175.1110  135.1470 C   0  0  0  0  0  3  0  0  0  0  0  0
  188.4060  172.3030  137.3190 O   0  0  0  0  0  1  0  0  0  0  0  0
  188.3340  172.8530  136.0320 C   0  0  2  0  0  3  0  0  0  0  0  0
  186.8130  172.2020  134.3510 C   0  0  0  0  0  1  0  0  0  0  0  0
  187.8710  170.5220  135.5930 C   0  0  0  0  0  1  0  0  0  0  0  0
  188.0610  171.8420  135.0010 N   0  0  0  0  0  0  0  0  0  0  0  0
  189.5870  177.1940  140.2840 O   0  0  0  0  0  1  0  0  0  0  0  0
  190.5530  177.1500  139.2860 C   0  0  0  0  0  0  0  0  0  0  0  0
  191.7700  177.2200  139.5950 O   0  0  0  0  0  0  0  0  0  0  0  0
  190.1790  177.0210  137.9140 N   0  0  0  0  0  2  0  0  0  0  0  0
  187.1600  178.4260  138.4780 O   0  0  0  0  0  1  0  0  0  0  0  0
  188.9700  179.4840  137.3500 C   0  0  0  0  0  1  0  0  0  0  0  0
  188.0150  178.3060  137.3840 C   0  0  1  0  0  3  0  0  0  0  0  0
  2  4  1  6  0  0  0
  2  3  1  0  0  0  0
  2  1  1  0  0  0  0
  3 27  1  1  0  0  0
  3  1  1  0  0  0  0
  4 10  2  0  0  0  0
  5  7  1  1  0  0  0
  5  6  1  0  0  0  0
  5 10  1  0  0  0  0
  6 11  1  0  0  0  0
 10  8  1  0  0  0  0
 11 12  2  0  0  0  0
 12  8  1  0  0  0  0
 12  9  1  0  0  0  0
 13 14  1  0  0  0  0
 14 16  2  0  0  0  0
 14 20  1  0  0  0  0
 15 16  1  0  0  0  0
 16  2  1  0  0  0  0
 17 18  1  0  0  0  0
 17 13  2  0  0  0  0
 18 15  2  0  0  0  0
 20 19  1  1  0  0  0
 21 23  1  0  0  0  0
 23 22  1  0  0  0  0
 23 20  1  0  0  0  0
 25 26  2  0  0  0  0
 25 24  1  0  0  0  0
 27 25  1  0  0  0  0
 30 29  1  1  0  0  0
 30  3  1  0  0  0  0
 30 28  1  0  0  0  0
M  END
>  <MODEL>
9

>  <REMARK>
 VINA RESULT:      -3.2      5.211      8.020
  Name = 
  6 active torsions:
  status: ('A' for Active; 'I' for Inactive)
    1  A    between atoms: N_1  and  C_5
    2  A    between atoms: C_5  and  C_12
    3  A    between atoms: C_8  and  C_13
    4  A    between atoms: C_13  and  N_30
    5  A    between atoms: C_23  and  N_25
    6  A    between atoms: C_23  and  C_26
                            x       y       z     vdW  Elec       q    Type
                         _______ _______ _______ _____ _____    ______ ____

>  <TORSDO>
F 6

$$$$
