=
 OpenBabel10272400423D

 25 27  0  0  1  0  0  0  0  0999 V2000
  186.1040  177.4030  145.0430 C   0  0  1  0  0  3  0  0  0  0  0  0
  187.5690  177.3480  145.4140 C   0  0  0  0  0  0  0  0  0  0  0  0
  185.8050  178.9500  147.0190 C   0  0  0  0  0  2  0  0  0  0  0  0
  187.0750  178.4120  147.6640 C   0  0  0  0  0  2  0  0  0  0  0  0
  189.4080  177.8210  146.9390 C   0  0  0  0  0  0  0  0  0  0  0  0
  189.8900  178.3210  148.1420 O   0  0  0  0  0  1  0  0  0  0  0  0
  188.4780  176.7800  144.5120 C   0  0  0  0  0  3  0  0  0  0  0  0
  185.1660  177.8650  146.1640 C   0  0  0  0  0  2  0  0  0  0  0  0
  190.3040  177.2600  146.0240 C   0  0  0  0  0  3  0  0  0  0  0  0
  189.8400  176.7340  144.8160 C   0  0  0  0  0  0  0  0  0  0  0  0
  188.0360  177.8740  146.6400 C   0  0  0  0  0  0  0  0  0  0  0  0
  185.8080  178.0650  143.7210 C   0  0  0  0  0  0  0  0  0  0  0  0
  185.4310  179.2370  141.1960 C   0  0  0  0  0  3  0  0  0  0  0  0
  184.5490  178.6070  143.3670 C   0  0  0  0  0  0  0  0  0  0  0  0
  184.3750  179.1890  142.1070 C   0  0  0  0  0  3  0  0  0  0  0  0
  186.6730  178.7000  141.5390 C   0  0  0  0  0  3  0  0  0  0  0  0
  183.1640  178.6060  144.4490 Cl  0  0  0  0  0  0  0  0  0  0  0  0
  186.8570  178.1170  142.7940 C   0  0  0  0  0  3  0  0  0  0  0  0
  190.8020  176.1560  143.8380 C   0  0  0  0  0  2  0  0  0  0  0  0
  190.1700  176.1030  142.4560 C   0  0  0  0  0  2  0  0  0  0  0  0
  190.6340  177.2810  141.6140 C   0  0  1  0  0  3  0  0  0  0  0  0
  192.0160  177.4260  141.7380 O   0  0  0  0  0  1  0  0  0  0  0  0
  190.2720  177.0860  140.1770 C   0  0  0  0  0  0  0  0  0  0  0  0
  190.6140  176.0380  139.5670 O   0  0  0  0  0  1  0  0  0  0  0  0
  189.5380  178.0600  139.5160 O   0  0  0  0  0  0  0  0  0  0  0  0
  1 12  1  6  0  0  0
  1  2  1  0  0  0  0
  1  8  1  0  0  0  0
  2 11  1  0  0  0  0
  3  4  1  0  0  0  0
  5  6  1  0  0  0  0
  7 10  1  0  0  0  0
  7  2  2  0  0  0  0
  8  3  1  0  0  0  0
  9  5  1  0  0  0  0
 10  9  2  0  0  0  0
 11  5  2  0  0  0  0
 11  4  1  0  0  0  0
 13 16  2  0  0  0  0
 13 15  1  0  0  0  0
 14 12  1  0  0  0  0
 14 17  1  0  0  0  0
 15 14  2  0  0  0  0
 16 18  1  0  0  0  0
 18 12  2  0  0  0  0
 19 10  1  0  0  0  0
 20 19  1  0  0  0  0
 21 22  1  6  0  0  0
 21 20  1  0  0  0  0
 23 21  1  0  0  0  0
 24 23  1  0  0  0  0
 25 23  2  0  0  0  0
M  END
>  <MODEL>
1

>  <REMARK>
 VINA RESULT:      -9.2      0.000      0.000
  Name = 
  5 active torsions:
  status: ('A' for Active; 'I' for Inactive)
    1  A    between atoms: C_1  and  C_5
    2  A    between atoms: C_2  and  C_21
    3  A    between atoms: C_6  and  C_15
    4  A    between atoms: C_6  and  C_23
    5  A    between atoms: C_15  and  C_21
                            x       y       z     vdW  Elec       q    Type
                         _______ _______ _______ _____ _____    ______ ____

>  <TORSDO>
F 5

$$$$
=
 OpenBabel10272400423D

 25 27  0  0  1  0  0  0  0  0999 V2000
  188.7840  177.0600  141.8860 C   0  0  1  0  0  3  0  0  0  0  0  0
  187.4510  177.7550  142.0480 C   0  0  0  0  0  0  0  0  0  0  0  0
  188.9570  178.2170  139.6460 C   0  0  0  0  0  2  0  0  0  0  0  0
  187.4450  178.3940  139.5920 C   0  0  0  0  0  2  0  0  0  0  0  0
  185.6090  179.0820  141.1650 C   0  0  0  0  0  0  0  0  0  0  0  0
  184.9830  179.7450  140.1160 O   0  0  0  0  0  1  0  0  0  0  0  0
  186.8230  177.7400  143.3000 C   0  0  0  0  0  3  0  0  0  0  0  0
  189.2980  176.9670  140.4450 C   0  0  0  0  0  2  0  0  0  0  0  0
  185.0000  179.0660  142.4230 C   0  0  0  0  0  3  0  0  0  0  0  0
  185.6020  178.3910  143.4870 C   0  0  0  0  0  0  0  0  0  0  0  0
  186.8390  178.4330  140.9680 C   0  0  0  0  0  0  0  0  0  0  0  0
  189.8480  177.4930  142.8610 C   0  0  0  0  0  0  0  0  0  0  0  0
  191.7610  178.4820  144.6650 C   0  0  0  0  0  3  0  0  0  0  0  0
  190.6930  176.6010  143.5650 C   0  0  0  0  0  0  0  0  0  0  0  0
  191.6420  177.1070  144.4590 C   0  0  0  0  0  3  0  0  0  0  0  0
  190.9270  179.3650  143.9770 C   0  0  0  0  0  3  0  0  0  0  0  0
  190.6280  174.8570  143.3640 Cl  0  0  0  0  0  0  0  0  0  0  0  0
  189.9770  178.8710  143.0820 C   0  0  0  0  0  3  0  0  0  0  0  0
  184.9590  178.3940  144.8300 C   0  0  0  0  0  2  0  0  0  0  0  0
  185.8300  177.6460  145.8260 C   0  0  0  0  0  2  0  0  0  0  0  0
  186.6770  178.6200  146.6280 C   0  0  1  0  0  3  0  0  0  0  0  0
  185.8740  179.2780  147.5600 O   0  0  0  0  0  1  0  0  0  0  0  0
  187.7890  177.9100  147.3300 C   0  0  0  0  0  0  0  0  0  0  0  0
  188.7330  177.3930  146.6740 O   0  0  0  0  0  0  0  0  0  0  0  0
  187.7890  177.8340  148.7150 O   0  0  0  0  0  1  0  0  0  0  0  0
  1  2  1  0  0  0  0
  1 12  1  1  0  0  0
  2  7  1  0  0  0  0
  3  8  1  0  0  0  0
  4  3  1  0  0  0  0
  4 11  1  0  0  0  0
  5  9  2  0  0  0  0
  6  5  1  0  0  0  0
  7 10  2  0  0  0  0
  8  1  1  0  0  0  0
  9 10  1  0  0  0  0
 10 19  1  0  0  0  0
 11  5  1  0  0  0  0
 11  2  2  0  0  0  0
 12 18  2  0  0  0  0
 12 14  1  0  0  0  0
 14 15  2  0  0  0  0
 15 13  1  0  0  0  0
 16 13  2  0  0  0  0
 17 14  1  0  0  0  0
 18 16  1  0  0  0  0
 19 20  1  0  0  0  0
 20 21  1  0  0  0  0
 21 23  1  0  0  0  0
 21 22  1  1  0  0  0
 23 25  1  0  0  0  0
 24 23  2  0  0  0  0
M  END
>  <MODEL>
2

>  <REMARK>
 VINA RESULT:      -9.0      2.896      6.716
  Name = 
  5 active torsions:
  status: ('A' for Active; 'I' for Inactive)
    1  A    between atoms: C_1  and  C_5
    2  A    between atoms: C_2  and  C_21
    3  A    between atoms: C_6  and  C_15
    4  A    between atoms: C_6  and  C_23
    5  A    between atoms: C_15  and  C_21
                            x       y       z     vdW  Elec       q    Type
                         _______ _______ _______ _____ _____    ______ ____

>  <TORSDO>
F 5

$$$$
=
 OpenBabel10272400423D

 25 27  0  0  1  0  0  0  0  0999 V2000
  188.8790  176.7440  144.4180 C   0  0  1  0  0  3  0  0  0  0  0  0
  188.1440  177.3850  143.2620 C   0  0  0  0  0  0  0  0  0  0  0  0
  190.9970  177.6910  143.4140 C   0  0  0  0  0  2  0  0  0  0  0  0
  190.3340  177.7870  142.0450 C   0  0  0  0  0  2  0  0  0  0  0  0
  188.1210  178.5300  141.1120 C   0  0  0  0  0  0  0  0  0  0  0  0
  188.7830  179.0580  140.0110 O   0  0  0  0  0  1  0  0  0  0  0  0
  186.7450  177.4580  143.3020 C   0  0  0  0  0  3  0  0  0  0  0  0
  190.3830  176.5400  144.1990 C   0  0  0  0  0  2  0  0  0  0  0  0
  186.7270  178.6030  141.1710 C   0  0  0  0  0  3  0  0  0  0  0  0
  186.0390  178.0620  142.2600 C   0  0  0  0  0  0  0  0  0  0  0  0
  188.8400  177.9260  142.1570 C   0  0  0  0  0  0  0  0  0  0  0  0
  188.5570  177.3200  145.7730 C   0  0  0  0  0  0  0  0  0  0  0  0
  187.7720  178.4190  148.2360 C   0  0  0  0  0  3  0  0  0  0  0  0
  189.4390  177.2910  146.8800 C   0  0  0  0  0  0  0  0  0  0  0  0
  189.0360  177.8430  148.1000 C   0  0  0  0  0  3  0  0  0  0  0  0
  186.8980  178.4450  147.1490 C   0  0  0  0  0  3  0  0  0  0  0  0
  191.0520  176.6010  146.8040 Cl  0  0  0  0  0  0  0  0  0  0  0  0
  187.2900  177.8980  145.9260 C   0  0  0  0  0  3  0  0  0  0  0  0
  184.5550  178.1610  142.3270 C   0  0  0  0  0  2  0  0  0  0  0  0
  184.1490  179.2130  143.3450 C   0  0  0  0  0  2  0  0  0  0  0  0
  183.1050  178.6550  144.2990 C   0  0  1  0  0  3  0  0  0  0  0  0
  183.3110  179.1810  145.5750 O   0  0  0  0  0  1  0  0  0  0  0  0
  181.7240  178.9850  143.8330 C   0  0  0  0  0  0  0  0  0  0  0  0
  181.5390  179.8600  142.9460 O   0  0  0  0  0  0  0  0  0  0  0  0
  180.6380  178.3090  144.3710 O   0  0  0  0  0  1  0  0  0  0  0  0
  1 12  1  1  0  0  0
  2  7  1  0  0  0  0
  2  1  1  0  0  0  0
  3  8  1  0  0  0  0
  4 11  1  0  0  0  0
  4  3  1  0  0  0  0
  5  9  2  0  0  0  0
  5 11  1  0  0  0  0
  6  5  1  0  0  0  0
  8  1  1  0  0  0  0
  9 10  1  0  0  0  0
 10 19  1  0  0  0  0
 10  7  2  0  0  0  0
 11  2  2  0  0  0  0
 12 18  2  0  0  0  0
 12 14  1  0  0  0  0
 14 15  2  0  0  0  0
 15 13  1  0  0  0  0
 16 13  2  0  0  0  0
 17 14  1  0  0  0  0
 18 16  1  0  0  0  0
 19 20  1  0  0  0  0
 20 21  1  0  0  0  0
 21 22  1  1  0  0  0
 23 21  1  0  0  0  0
 23 25  1  0  0  0  0
 24 23  2  0  0  0  0
M  END
>  <MODEL>
3

>  <REMARK>
 VINA RESULT:      -9.0      3.658      6.790
  Name = 
  5 active torsions:
  status: ('A' for Active; 'I' for Inactive)
    1  A    between atoms: C_1  and  C_5
    2  A    between atoms: C_2  and  C_21
    3  A    between atoms: C_6  and  C_15
    4  A    between atoms: C_6  and  C_23
    5  A    between atoms: C_15  and  C_21
                            x       y       z     vdW  Elec       q    Type
                         _______ _______ _______ _____ _____    ______ ____

>  <TORSDO>
F 5

$$$$
=
 OpenBabel10272400423D

 25 27  0  0  1  0  0  0  0  0999 V2000
  187.0100  177.1140  144.9480 C   0  0  1  0  0  3  0  0  0  0  0  0
  188.2690  177.3310  144.1390 C   0  0  0  0  0  0  0  0  0  0  0  0
  188.2560  178.1270  146.9000 C   0  0  0  0  0  2  0  0  0  0  0  0
  189.5930  177.7840  146.2560 C   0  0  0  0  0  2  0  0  0  0  0  0
  190.6290  177.9110  143.9690 C   0  0  0  0  0  0  0  0  0  0  0  0
  191.8390  178.2630  144.5550 O   0  0  0  0  0  1  0  0  0  0  0  0
  188.2180  177.1820  142.7470 C   0  0  0  0  0  3  0  0  0  0  0  0
  187.2060  177.1130  146.4680 C   0  0  0  0  0  2  0  0  0  0  0  0
  190.5590  177.7670  142.5800 C   0  0  0  0  0  3  0  0  0  0  0  0
  189.3590  177.3960  141.9700 C   0  0  0  0  0  0  0  0  0  0  0  0
  189.4860  177.7000  144.7580 C   0  0  0  0  0  0  0  0  0  0  0  0
  185.8250  177.9350  144.5110 C   0  0  0  0  0  0  0  0  0  0  0  0
  183.6640  179.4270  143.5100 C   0  0  0  0  0  3  0  0  0  0  0  0
  184.8360  178.4370  145.3910 C   0  0  0  0  0  0  0  0  0  0  0  0
  183.7660  179.1790  144.8790 C   0  0  0  0  0  3  0  0  0  0  0  0
  184.6350  178.9300  142.6380 C   0  0  0  0  0  3  0  0  0  0  0  0
  184.8830  178.1890  147.1290 Cl  0  0  0  0  0  0  0  0  0  0  0  0
  185.7070  178.1890  143.1380 C   0  0  0  0  0  3  0  0  0  0  0  0
  189.2850  177.2640  140.4890 C   0  0  0  0  0  2  0  0  0  0  0  0
  188.3940  178.3510  139.9130 C   0  0  0  0  0  2  0  0  0  0  0  0
  187.9360  177.9770  138.5120 C   0  0  1  0  0  3  0  0  0  0  0  0
  186.6540  178.4790  138.2910 O   0  0  0  0  0  1  0  0  0  0  0  0
  188.8750  178.5150  137.4810 C   0  0  0  0  0  0  0  0  0  0  0  0
  189.0030  179.7580  137.3190 O   0  0  0  0  0  1  0  0  0  0  0  0
  189.6240  177.6390  136.7090 O   0  0  0  0  0  0  0  0  0  0  0  0
  1 12  1  1  0  0  0
  1  8  1  0  0  0  0
  2 11  1  0  0  0  0
  2  1  1  0  0  0  0
  4  3  1  0  0  0  0
  5  6  1  0  0  0  0
  5 11  2  0  0  0  0
  7  2  2  0  0  0  0
  8  3  1  0  0  0  0
  9  5  1  0  0  0  0
 10  9  2  0  0  0  0
 10  7  1  0  0  0  0
 11  4  1  0  0  0  0
 12 14  1  0  0  0  0
 13 15  1  0  0  0  0
 14 17  1  0  0  0  0
 15 14  2  0  0  0  0
 16 18  1  0  0  0  0
 16 13  2  0  0  0  0
 18 12  2  0  0  0  0
 19 10  1  0  0  0  0
 20 19  1  0  0  0  0
 21 22  1  6  0  0  0
 21 20  1  0  0  0  0
 23 21  1  0  0  0  0
 24 23  1  0  0  0  0
 25 23  2  0  0  0  0
M  END
>  <MODEL>
4

>  <REMARK>
 VINA RESULT:      -8.9      1.911      3.151
  Name = 
  5 active torsions:
  status: ('A' for Active; 'I' for Inactive)
    1  A    between atoms: C_1  and  C_5
    2  A    between atoms: C_2  and  C_21
    3  A    between atoms: C_6  and  C_15
    4  A    between atoms: C_6  and  C_23
    5  A    between atoms: C_15  and  C_21
                            x       y       z     vdW  Elec       q    Type
                         _______ _______ _______ _____ _____    ______ ____

>  <TORSDO>
F 5

$$$$
=
 OpenBabel10272400423D

 25 27  0  0  1  0  0  0  0  0999 V2000
  189.0250  176.7360  144.5520 C   0  0  1  0  0  3  0  0  0  0  0  0
  188.2260  177.3720  143.4370 C   0  0  0  0  0  0  0  0  0  0  0  0
  191.0780  177.7180  143.4520 C   0  0  0  0  0  2  0  0  0  0  0  0
  190.3490  177.8120  142.1180 C   0  0  0  0  0  2  0  0  0  0  0  0
  188.0840  178.5290  141.2980 C   0  0  0  0  0  0  0  0  0  0  0  0
  188.6840  179.0730  140.1690 O   0  0  0  0  0  1  0  0  0  0  0  0
  186.8300  177.4250  143.5440 C   0  0  0  0  0  3  0  0  0  0  0  0
  190.5190  176.5540  144.2590 C   0  0  0  0  0  2  0  0  0  0  0  0
  186.6930  178.5810  141.4240 C   0  0  0  0  0  3  0  0  0  0  0  0
  186.0660  178.0250  142.5410 C   0  0  0  0  0  0  0  0  0  0  0  0
  188.8610  177.9290  142.3030 C   0  0  0  0  0  0  0  0  0  0  0  0
  188.7600  177.2990  145.9240 C   0  0  0  0  0  0  0  0  0  0  0  0
  188.0790  178.3680  148.4310 C   0  0  0  0  0  3  0  0  0  0  0  0
  189.7040  177.2990  146.9800 C   0  0  0  0  0  0  0  0  0  0  0  0
  189.3520  177.8360  148.2220 C   0  0  0  0  0  3  0  0  0  0  0  0
  187.1450  178.3660  147.3940 C   0  0  0  0  0  3  0  0  0  0  0  0
  191.3330  176.6640  146.8110 Cl  0  0  0  0  0  0  0  0  0  0  0  0
  187.4850  177.8330  146.1500 C   0  0  0  0  0  3  0  0  0  0  0  0
  184.5850  178.1020  142.6800 C   0  0  0  0  0  2  0  0  0  0  0  0
  184.0210  179.1100  141.6930 C   0  0  0  0  0  2  0  0  0  0  0  0
  183.3380  178.3970  140.5370 C   0  0  1  0  0  3  0  0  0  0  0  0
  182.0020  178.1590  140.8610 O   0  0  0  0  0  1  0  0  0  0  0  0
  183.4190  179.2090  139.2850 C   0  0  0  0  0  0  0  0  0  0  0  0
  182.5760  179.0480  138.3620 O   0  0  0  0  0  0  0  0  0  0  0  0
  184.4210  180.1580  139.1450 O   0  0  0  0  0  1  0  0  0  0  0  0
  1 12  1  1  0  0  0
  2  7  1  0  0  0  0
  2  1  1  0  0  0  0
  3  8  1  0  0  0  0
  4 11  1  0  0  0  0
  4  3  1  0  0  0  0
  5  9  2  0  0  0  0
  5 11  1  0  0  0  0
  6  5  1  0  0  0  0
  8  1  1  0  0  0  0
  9 10  1  0  0  0  0
 10 19  1  0  0  0  0
 10  7  2  0  0  0  0
 11  2  2  0  0  0  0
 12 18  2  0  0  0  0
 12 14  1  0  0  0  0
 14 15  2  0  0  0  0
 15 13  1  0  0  0  0
 16 13  2  0  0  0  0
 17 14  1  0  0  0  0
 18 16  1  0  0  0  0
 20 19  1  0  0  0  0
 21 22  1  1  0  0  0
 21 20  1  0  0  0  0
 23 21  1  0  0  0  0
 24 23  2  0  0  0  0
 25 23  1  0  0  0  0
M  END
>  <MODEL>
5

>  <REMARK>
 VINA RESULT:      -8.6      3.164      6.388
  Name = 
  5 active torsions:
  status: ('A' for Active; 'I' for Inactive)
    1  A    between atoms: C_1  and  C_5
    2  A    between atoms: C_2  and  C_21
    3  A    between atoms: C_6  and  C_15
    4  A    between atoms: C_6  and  C_23
    5  A    between atoms: C_15  and  C_21
                            x       y       z     vdW  Elec       q    Type
                         _______ _______ _______ _____ _____    ______ ____

>  <TORSDO>
F 5

$$$$
=
 OpenBabel10272400423D

 25 27  0  0  1  0  0  0  0  0999 V2000
  186.2440  177.4750  143.5330 C   0  0  1  0  0  3  0  0  0  0  0  0
  186.6100  177.7460  144.9750 C   0  0  0  0  0  0  0  0  0  0  0  0
  184.7960  179.5420  143.6580 C   0  0  0  0  0  2  0  0  0  0  0  0
  184.7220  179.4290  145.1750 C   0  0  0  0  0  2  0  0  0  0  0  0
  186.3000  178.9470  147.0710 C   0  0  0  0  0  0  0  0  0  0  0  0
  185.6270  179.8840  147.8460 O   0  0  0  0  0  1  0  0  0  0  0  0
  187.6700  177.0350  145.5540 C   0  0  0  0  0  3  0  0  0  0  0  0
  184.9600  178.1560  143.0490 C   0  0  0  0  0  2  0  0  0  0  0  0
  187.3660  178.2370  147.6300 C   0  0  0  0  0  3  0  0  0  0  0  0
  188.0460  177.2780  146.8760 C   0  0  0  0  0  0  0  0  0  0  0  0
  185.9170  178.7120  145.7400 C   0  0  0  0  0  0  0  0  0  0  0  0
  187.3830  177.6060  142.5540 C   0  0  0  0  0  0  0  0  0  0  0  0
  189.6050  177.7250  140.8390 C   0  0  0  0  0  3  0  0  0  0  0  0
  187.2930  178.2880  141.3160 C   0  0  0  0  0  0  0  0  0  0  0  0
  188.4070  178.3410  140.4720 C   0  0  0  0  0  3  0  0  0  0  0  0
  189.6960  177.0480  142.0560 C   0  0  0  0  0  3  0  0  0  0  0  0
  185.8340  179.1030  140.7730 Cl  0  0  0  0  0  0  0  0  0  0  0  0
  188.5910  176.9900  142.9060 C   0  0  0  0  0  3  0  0  0  0  0  0
  189.1930  176.5380  147.4710 C   0  0  0  0  0  2  0  0  0  0  0  0
  190.4120  177.4430  147.5470 C   0  0  0  0  0  2  0  0  0  0  0  0
  191.6260  176.7500  146.9480 C   0  0  1  0  0  3  0  0  0  0  0  0
  191.6430  175.4130  147.3480 O   0  0  0  0  0  1  0  0  0  0  0  0
  191.6070  176.8320  145.4560 C   0  0  0  0  0  0  0  0  0  0  0  0
  191.7000  175.7880  144.7560 O   0  0  0  0  0  0  0  0  0  0  0  0
  191.4680  178.0670  144.8380 O   0  0  0  0  0  1  0  0  0  0  0  0
  1 12  1  6  0  0  0
  1  2  1  0  0  0  0
  2  7  2  0  0  0  0
  2 11  1  0  0  0  0
  3  4  1  0  0  0  0
  4 11  1  0  0  0  0
  5  9  1  0  0  0  0
  5  6  1  0  0  0  0
  7 10  1  0  0  0  0
  8  1  1  0  0  0  0
  8  3  1  0  0  0  0
 10 19  1  0  0  0  0
 10  9  2  0  0  0  0
 11  5  2  0  0  0  0
 12 18  1  0  0  0  0
 13 16  1  0  0  0  0
 14 12  2  0  0  0  0
 15 13  2  0  0  0  0
 15 14  1  0  0  0  0
 16 18  2  0  0  0  0
 17 14  1  0  0  0  0
 19 20  1  0  0  0  0
 21 22  1  6  0  0  0
 21 20  1  0  0  0  0
 23 21  1  0  0  0  0
 24 23  2  0  0  0  0
 25 23  1  0  0  0  0
M  END
>  <MODEL>
6

>  <REMARK>
 VINA RESULT:      -8.6      2.296      3.949
  Name = 
  5 active torsions:
  status: ('A' for Active; 'I' for Inactive)
    1  A    between atoms: C_1  and  C_5
    2  A    between atoms: C_2  and  C_21
    3  A    between atoms: C_6  and  C_15
    4  A    between atoms: C_6  and  C_23
    5  A    between atoms: C_15  and  C_21
                            x       y       z     vdW  Elec       q    Type
                         _______ _______ _______ _____ _____    ______ ____

>  <TORSDO>
F 5

$$$$
=
 OpenBabel10272400423D

 25 27  0  0  1  0  0  0  0  0999 V2000
  187.0460  177.1750  144.9040 C   0  0  1  0  0  3  0  0  0  0  0  0
  188.2770  177.3800  144.0490 C   0  0  0  0  0  0  0  0  0  0  0  0
  188.3690  178.1850  146.8050 C   0  0  0  0  0  2  0  0  0  0  0  0
  189.6800  177.8310  146.1150 C   0  0  0  0  0  2  0  0  0  0  0  0
  190.6330  177.9420  143.7920 C   0  0  0  0  0  0  0  0  0  0  0  0
  191.8650  178.2870  144.3330 O   0  0  0  0  0  1  0  0  0  0  0  0
  188.1750  177.2260  142.6600 C   0  0  0  0  0  3  0  0  0  0  0  0
  187.2970  177.1770  146.4160 C   0  0  0  0  0  2  0  0  0  0  0  0
  190.5120  177.7930  142.4070 C   0  0  0  0  0  3  0  0  0  0  0  0
  189.2880  177.4300  141.8420 C   0  0  0  0  0  0  0  0  0  0  0  0
  189.5180  177.7420  144.6220 C   0  0  0  0  0  0  0  0  0  0  0  0
  185.8520  178.0030  144.5060 C   0  0  0  0  0  0  0  0  0  0  0  0
  183.6780  179.5220  143.5780 C   0  0  0  0  0  3  0  0  0  0  0  0
  184.8370  178.4180  145.4020 C   0  0  0  0  0  0  0  0  0  0  0  0
  183.7610  179.1750  144.9270 C   0  0  0  0  0  3  0  0  0  0  0  0
  184.6740  179.1110  142.6910 C   0  0  0  0  0  3  0  0  0  0  0  0
  184.8600  178.0420  147.1180 Cl  0  0  0  0  0  0  0  0  0  0  0  0
  185.7530  178.3560  143.1540 C   0  0  0  0  0  3  0  0  0  0  0  0
  189.1600  177.2930  140.3650 C   0  0  0  0  0  2  0  0  0  0  0  0
  190.5280  177.0590  139.7440 C   0  0  0  0  0  2  0  0  0  0  0  0
  190.3840  176.5020  138.3370 C   0  0  1  0  0  3  0  0  0  0  0  0
  190.1140  177.5430  137.4490 O   0  0  0  0  0  1  0  0  0  0  0  0
  191.6260  175.7860  137.9150 C   0  0  0  0  0  0  0  0  0  0  0  0
  191.6710  174.5260  137.9170 O   0  0  0  0  0  1  0  0  0  0  0  0
  192.7330  176.5150  137.5040 O   0  0  0  0  0  0  0  0  0  0  0  0
  1 12  1  1  0  0  0
  1  8  1  0  0  0  0
  2 11  1  0  0  0  0
  2  1  1  0  0  0  0
  4  3  1  0  0  0  0
  5  6  1  0  0  0  0
  5 11  2  0  0  0  0
  7  2  2  0  0  0  0
  8  3  1  0  0  0  0
  9  5  1  0  0  0  0
 10  9  2  0  0  0  0
 10  7  1  0  0  0  0
 11  4  1  0  0  0  0
 12 14  1  0  0  0  0
 13 15  1  0  0  0  0
 14 17  1  0  0  0  0
 15 14  2  0  0  0  0
 16 18  1  0  0  0  0
 16 13  2  0  0  0  0
 18 12  2  0  0  0  0
 19 10  1  0  0  0  0
 20 19  1  0  0  0  0
 21 22  1  6  0  0  0
 21 20  1  0  0  0  0
 23 24  1  0  0  0  0
 23 21  1  0  0  0  0
 25 23  2  0  0  0  0
M  END
>  <MODEL>
7

>  <REMARK>
 VINA RESULT:      -8.3      1.743      2.943
  Name = 
  5 active torsions:
  status: ('A' for Active; 'I' for Inactive)
    1  A    between atoms: C_1  and  C_5
    2  A    between atoms: C_2  and  C_21
    3  A    between atoms: C_6  and  C_15
    4  A    between atoms: C_6  and  C_23
    5  A    between atoms: C_15  and  C_21
                            x       y       z     vdW  Elec       q    Type
                         _______ _______ _______ _____ _____    ______ ____

>  <TORSDO>
F 5

$$$$
=
 OpenBabel10272400423D

 25 27  0  0  1  0  0  0  0  0999 V2000
  189.5020  178.2820  146.7450 C   0  0  1  0  0  3  0  0  0  0  0  0
  188.1770  178.1570  146.0260 C   0  0  0  0  0  0  0  0  0  0  0  0
  188.2080  177.9670  148.8930 C   0  0  0  0  0  2  0  0  0  0  0  0
  186.9240  178.4280  148.2160 C   0  0  0  0  0  2  0  0  0  0  0  0
  185.7440  178.0360  146.0310 C   0  0  0  0  0  0  0  0  0  0  0  0
  184.5280  178.0630  146.7030 O   0  0  0  0  0  1  0  0  0  0  0  0
  188.1690  178.0000  144.6340 C   0  0  0  0  0  3  0  0  0  0  0  0
  189.4030  178.6400  148.2320 C   0  0  0  0  0  2  0  0  0  0  0  0
  185.7540  177.8710  144.6440 C   0  0  0  0  0  3  0  0  0  0  0  0
  186.9630  177.8600  143.9450 C   0  0  0  0  0  0  0  0  0  0  0  0
  186.9530  178.1750  146.7340 C   0  0  0  0  0  0  0  0  0  0  0  0
  190.4790  177.1690  146.4730 C   0  0  0  0  0  0  0  0  0  0  0  0
  192.2360  175.0040  146.1260 C   0  0  0  0  0  3  0  0  0  0  0  0
  191.2400  177.0500  145.2840 C   0  0  0  0  0  0  0  0  0  0  0  0
  192.1120  175.9680  145.1250 C   0  0  0  0  0  3  0  0  0  0  0  0
  191.4850  175.1140  147.2970 C   0  0  0  0  0  3  0  0  0  0  0  0
  191.1610  178.2180  143.9740 Cl  0  0  0  0  0  0  0  0  0  0  0  0
  190.6130  176.1900  147.4670 C   0  0  0  0  0  3  0  0  0  0  0  0
  186.9690  177.6640  142.4690 C   0  0  0  0  0  2  0  0  0  0  0  0
  188.1030  178.4580  141.8430 C   0  0  0  0  0  2  0  0  0  0  0  0
  188.5400  177.8200  140.5340 C   0  0  1  0  0  3  0  0  0  0  0  0
  188.5470  178.7830  139.5250 O   0  0  0  0  0  1  0  0  0  0  0  0
  189.9000  177.2130  140.6640 C   0  0  0  0  0  0  0  0  0  0  0  0
  190.8640  177.6500  139.9810 O   0  0  0  0  0  0  0  0  0  0  0  0
  190.1040  176.1700  141.5560 O   0  0  0  0  0  1  0  0  0  0  0  0
  1 12  1  1  0  0  0
  1  8  1  0  0  0  0
  2 11  1  0  0  0  0
  2  1  1  0  0  0  0
  4  3  1  0  0  0  0
  5  6  1  0  0  0  0
  5 11  2  0  0  0  0
  7  2  2  0  0  0  0
  8  3  1  0  0  0  0
  9  5  1  0  0  0  0
 10  7  1  0  0  0  0
 10  9  2  0  0  0  0
 11  4  1  0  0  0  0
 12 18  1  0  0  0  0
 13 16  1  0  0  0  0
 14 12  2  0  0  0  0
 15 14  1  0  0  0  0
 15 13  2  0  0  0  0
 16 18  2  0  0  0  0
 17 14  1  0  0  0  0
 19 10  1  0  0  0  0
 20 19  1  0  0  0  0
 21 22  1  6  0  0  0
 21 23  1  0  0  0  0
 21 20  1  0  0  0  0
 23 25  1  0  0  0  0
 24 23  2  0  0  0  0
M  END
>  <MODEL>
8

>  <REMARK>
 VINA RESULT:      -8.3      2.411      4.973
  Name = 
  5 active torsions:
  status: ('A' for Active; 'I' for Inactive)
    1  A    between atoms: C_1  and  C_5
    2  A    between atoms: C_2  and  C_21
    3  A    between atoms: C_6  and  C_15
    4  A    between atoms: C_6  and  C_23
    5  A    between atoms: C_15  and  C_21
                            x       y       z     vdW  Elec       q    Type
                         _______ _______ _______ _____ _____    ______ ____

>  <TORSDO>
F 5

$$$$
=
 OpenBabel10272400423D

 25 27  0  0  1  0  0  0  0  0999 V2000
  188.8240  178.4070  145.5920 C   0  0  1  0  0  3  0  0  0  0  0  0
  187.3130  178.4510  145.6440 C   0  0  0  0  0  0  0  0  0  0  0  0
  188.7170  177.0080  147.6940 C   0  0  0  0  0  2  0  0  0  0  0  0
  187.3340  177.5570  148.0190 C   0  0  0  0  0  2  0  0  0  0  0  0
  185.1990  178.0380  146.7820 C   0  0  0  0  0  0  0  0  0  0  0  0
  184.4800  177.6100  147.8910 O   0  0  0  0  0  1  0  0  0  0  0  0
  186.6070  178.9320  144.5340 C   0  0  0  0  0  3  0  0  0  0  0  0
  189.5100  178.0480  146.9150 C   0  0  0  0  0  2  0  0  0  0  0  0
  184.5100  178.5130  145.6620 C   0  0  0  0  0  3  0  0  0  0  0  0
  185.2110  178.9650  144.5430 C   0  0  0  0  0  0  0  0  0  0  0  0
  186.6040  177.9990  146.7800 C   0  0  0  0  0  0  0  0  0  0  0  0
  189.3970  177.6640  144.4130 C   0  0  0  0  0  0  0  0  0  0  0  0
  190.3070  176.1630  142.2190 C   0  0  0  0  0  3  0  0  0  0  0  0
  190.5400  178.0810  143.6880 C   0  0  0  0  0  0  0  0  0  0  0  0
  190.9830  177.3240  142.5990 C   0  0  0  0  0  3  0  0  0  0  0  0
  189.1780  175.7510  142.9280 C   0  0  0  0  0  3  0  0  0  0  0  0
  191.4630  179.5190  144.0960 Cl  0  0  0  0  0  0  0  0  0  0  0  0
  188.7280  176.4980  144.0170 C   0  0  0  0  0  3  0  0  0  0  0  0
  184.4710  179.4510  143.3450 C   0  0  0  0  0  2  0  0  0  0  0  0
  184.6740  178.4910  142.1840 C   0  0  0  0  0  2  0  0  0  0  0  0
  185.4600  179.1630  141.0700 C   0  0  1  0  0  3  0  0  0  0  0  0
  186.6960  178.5320  140.9260 O   0  0  0  0  0  1  0  0  0  0  0  0
  184.7110  179.1090  139.7780 C   0  0  0  0  0  0  0  0  0  0  0  0
  184.3550  178.0040  139.2900 O   0  0  0  0  0  1  0  0  0  0  0  0
  184.3900  180.2890  139.1210 O   0  0  0  0  0  0  0  0  0  0  0  0
  1 12  1  6  0  0  0
  1  2  1  0  0  0  0
  1  8  1  0  0  0  0
  2 11  1  0  0  0  0
  3  4  1  0  0  0  0
  5  6  1  0  0  0  0
  7 10  1  0  0  0  0
  7  2  2  0  0  0  0
  8  3  1  0  0  0  0
  9  5  1  0  0  0  0
 10  9  2  0  0  0  0
 11  5  2  0  0  0  0
 11  4  1  0  0  0  0
 13 15  2  0  0  0  0
 13 16  1  0  0  0  0
 14 17  1  0  0  0  0
 14 12  2  0  0  0  0
 15 14  1  0  0  0  0
 16 18  2  0  0  0  0
 18 12  1  0  0  0  0
 19 10  1  0  0  0  0
 20 19  1  0  0  0  0
 21 22  1  6  0  0  0
 21 20  1  0  0  0  0
 23 21  1  0  0  0  0
 24 23  1  0  0  0  0
 25 23  2  0  0  0  0
M  END
>  <MODEL>
9

>  <REMARK>
 VINA RESULT:      -8.1      2.784      5.085
  Name = 
  5 active torsions:
  status: ('A' for Active; 'I' for Inactive)
    1  A    between atoms: C_1  and  C_5
    2  A    between atoms: C_2  and  C_21
    3  A    between atoms: C_6  and  C_15
    4  A    between atoms: C_6  and  C_23
    5  A    between atoms: C_15  and  C_21
                            x       y       z     vdW  Elec       q    Type
                         _______ _______ _______ _____ _____    ______ ____

>  <TORSDO>
F 5

$$$$
