=
 OpenBabel10272401133D

 27 31  0  0  1  0  0  0  0  0999 V2000
  187.2410  177.7230  142.5160 C   0  0  2  0  0  3  0  0  0  0  0  0
  187.2780  177.4930  143.9110 O   0  0  0  0  0  0  0  0  0  0  0  0
  189.4540  177.9200  143.1770 C   0  0  2  0  0  0  0  0  0  0  0  0
  190.3470  177.0780  140.6230 N   0  0  0  0  0  0  0  0  0  0  0  0
  190.5840  178.8720  143.4930 C   0  0  0  0  0  2  0  0  0  0  0  0
  190.7060  176.1960  139.5970 N   0  0  0  0  0  1  0  0  0  0  0  0
  188.5730  178.2530  142.0090 C   0  0  1  0  0  3  0  0  0  0  0  0
  188.6230  177.2810  144.2770 C   0  0  1  0  0  3  0  0  0  0  0  0
  191.3670  177.5700  141.5380 C   0  0  0  0  0  2  0  0  0  0  0  0
  188.1610  177.3060  139.8420 O   0  0  0  0  0  0  0  0  0  0  0  0
  188.9910  177.5120  140.7680 C   0  0  0  0  0  0  0  0  0  0  0  0
  190.8970  177.4610  142.9860 C   0  0  2  0  0  3  0  0  0  0  0  0
  187.8830  177.8840  147.9550 C   0  0  0  0  0  3  0  0  0  0  0  0
  189.2770  177.9740  148.5140 C   0  0  0  0  0  2  0  0  0  0  0  0
  190.0380  177.0810  146.3520 C   0  0  0  0  0  3  0  0  0  0  0  0
  188.8920  177.8270  145.6980 C   0  0  2  0  0  3  0  0  0  0  0  0
  190.2200  177.1510  147.6780 C   0  0  0  0  0  3  0  0  0  0  0  0
  187.6810  177.8160  146.6270 C   0  0  0  0  0  0  0  0  0  0  0  0
  185.2740  178.4230  146.7000 C   0  0  0  0  0  1  0  0  0  0  0  0
  186.3820  177.7590  146.1060 O   0  0  0  0  0  0  0  0  0  0  0  0
  186.0630  178.6190  142.1140 C   0  0  0  0  0  2  0  0  0  0  0  0
  181.8460  178.8500  142.1190 C   0  0  0  0  0  2  0  0  0  0  0  0
  184.6610  178.0330  142.3270 C   0  0  1  0  0  3  0  0  0  0  0  0
  183.9210  178.6900  143.4710 C   0  0  0  0  0  3  0  0  0  0  0  0
  182.6430  179.0820  143.3700 C   0  0  0  0  0  3  0  0  0  0  0  0
  182.7480  178.9060  140.8940 C   0  0  0  0  0  2  0  0  0  0  0  0
  183.8490  177.8570  141.0320 C   0  0  0  0  0  2  0  0  0  0  0  0
  1 21  1  1  0  0  0
  1  2  1  0  0  0  0
  3  5  1  1  0  0  0
  3  8  1  0  0  0  0
  4 11  1  0  0  0  0
  4  9  1  0  0  0  0
  6  4  1  0  0  0  0
  7 11  1  6  0  0  0
  7  1  1  0  0  0  0
  7  3  1  0  0  0  0
  8  2  1  6  0  0  0
  8 16  1  0  0  0  0
 10 11  2  0  0  0  0
 12  9  1  6  0  0  0
 12  3  1  0  0  0  0
 12  5  1  0  0  0  0
 13 14  1  0  0  0  0
 15 17  2  0  0  0  0
 16 15  1  1  0  0  0
 16 18  1  0  0  0  0
 17 14  1  0  0  0  0
 18 13  2  0  0  0  0
 20 18  1  0  0  0  0
 20 19  1  0  0  0  0
 22 25  1  0  0  0  0
 23 21  1  6  0  0  0
 23 24  1  0  0  0  0
 25 24  2  0  0  0  0
 26 27  1  0  0  0  0
 26 22  1  0  0  0  0
 27 23  1  0  0  0  0
M  END
>  <MODEL>
1

>  <REMARK>
 VINA RESULT:      -9.8      0.000      0.000
  Name = 
  4 active torsions:
  status: ('A' for Active; 'I' for Inactive)
    1  A    between atoms: C_1  and  C_15
    2  A    between atoms: C_9  and  C_15
    3  A    between atoms: C_14  and  C_19
    4  A    between atoms: C_17  and  O_21
                            x       y       z     vdW  Elec       q    Type
                         _______ _______ _______ _____ _____    ______ ____

>  <TORSDO>
F 4

$$$$
=
 OpenBabel10272401133D

 27 31  0  0  1  0  0  0  0  0999 V2000
  187.2260  177.9220  142.2290 C   0  0  2  0  0  3  0  0  0  0  0  0
  187.1350  177.6880  143.6210 O   0  0  0  0  0  0  0  0  0  0  0  0
  189.3880  177.9480  143.0620 C   0  0  2  0  0  0  0  0  0  0  0  0
  190.4120  177.0430  140.5800 N   0  0  0  0  0  0  0  0  0  0  0  0
  190.5600  178.8100  143.4730 C   0  0  0  0  0  2  0  0  0  0  0  0
  190.7830  176.1370  139.5790 N   0  0  0  0  0  1  0  0  0  0  0  0
  188.6300  178.3490  141.8310 C   0  0  1  0  0  3  0  0  0  0  0  0
  188.4270  177.3730  144.0900 C   0  0  1  0  0  3  0  0  0  0  0  0
  191.3920  177.4540  141.5750 C   0  0  0  0  0  2  0  0  0  0  0  0
  188.3190  177.4400  139.6320 O   0  0  0  0  0  0  0  0  0  0  0  0
  189.0860  177.5790  140.6210 C   0  0  0  0  0  0  0  0  0  0  0  0
  190.8030  177.3800  142.9820 C   0  0  2  0  0  3  0  0  0  0  0  0
  187.4360  178.0550  147.6940 C   0  0  0  0  0  3  0  0  0  0  0  0
  188.7790  178.0130  148.3700 C   0  0  0  0  0  2  0  0  0  0  0  0
  189.6330  177.0440  146.2770 C   0  0  0  0  0  3  0  0  0  0  0  0
  188.6250  177.8950  145.5310 C   0  0  2  0  0  3  0  0  0  0  0  0
  189.7060  177.1000  147.6130 C   0  0  0  0  0  3  0  0  0  0  0  0
  187.3420  178.0040  146.3530 C   0  0  0  0  0  0  0  0  0  0  0  0
  184.8960  178.4250  146.4000 C   0  0  0  0  0  1  0  0  0  0  0  0
  186.0930  178.0700  145.7210 O   0  0  0  0  0  0  0  0  0  0  0  0
  186.1540  178.9060  141.7420 C   0  0  0  0  0  2  0  0  0  0  0  0
  182.4880  179.1550  139.6600 C   0  0  0  0  0  2  0  0  0  0  0  0
  184.9830  178.3010  140.9570 C   0  0  1  0  0  3  0  0  0  0  0  0
  183.6710  178.3930  141.7040 C   0  0  0  0  0  3  0  0  0  0  0  0
  182.5370  178.8020  141.1190 C   0  0  0  0  0  3  0  0  0  0  0  0
  183.8210  179.7370  139.2080 C   0  0  0  0  0  2  0  0  0  0  0  0
  184.9310  178.7230  139.4790 C   0  0  0  0  0  2  0  0  0  0  0  0
  1 21  1  1  0  0  0
  1  2  1  0  0  0  0
  3  5  1  1  0  0  0
  3  8  1  0  0  0  0
  4 11  1  0  0  0  0
  4  9  1  0  0  0  0
  6  4  1  0  0  0  0
  7 11  1  6  0  0  0
  7  1  1  0  0  0  0
  7  3  1  0  0  0  0
  8  2  1  6  0  0  0
  8 16  1  0  0  0  0
 10 11  2  0  0  0  0
 12  9  1  6  0  0  0
 12  3  1  0  0  0  0
 12  5  1  0  0  0  0
 13 14  1  0  0  0  0
 15 17  2  0  0  0  0
 16 15  1  1  0  0  0
 16 18  1  0  0  0  0
 17 14  1  0  0  0  0
 18 13  2  0  0  0  0
 20 18  1  0  0  0  0
 20 19  1  0  0  0  0
 22 25  1  0  0  0  0
 23 24  1  0  0  0  0
 23 21  1  1  0  0  0
 25 24  2  0  0  0  0
 26 27  1  0  0  0  0
 26 22  1  0  0  0  0
 27 23  1  0  0  0  0
M  END
>  <MODEL>
2

>  <REMARK>
 VINA RESULT:      -9.5      0.764      1.032
  Name = 
  4 active torsions:
  status: ('A' for Active; 'I' for Inactive)
    1  A    between atoms: C_1  and  C_15
    2  A    between atoms: C_9  and  C_15
    3  A    between atoms: C_14  and  C_19
    4  A    between atoms: C_17  and  O_21
                            x       y       z     vdW  Elec       q    Type
                         _______ _______ _______ _____ _____    ______ ____

>  <TORSDO>
F 4

$$$$
=
 OpenBabel10272401133D

 27 31  0  0  1  0  0  0  0  0999 V2000
  187.9910  177.5500  142.5390 C   0  0  2  0  0  3  0  0  0  0  0  0
  188.3740  177.1080  143.8270 O   0  0  0  0  0  0  0  0  0  0  0  0
  190.3080  177.5780  142.6030 C   0  0  2  0  0  0  0  0  0  0  0  0
  190.4450  177.1090  139.8130 N   0  0  0  0  0  0  0  0  0  0  0  0
  191.5450  178.4370  142.7350 C   0  0  0  0  0  2  0  0  0  0  0  0
  190.4630  176.3830  138.6150 N   0  0  0  0  0  1  0  0  0  0  0  0
  189.1790  178.1110  141.7720 C   0  0  1  0  0  3  0  0  0  0  0  0
  189.7510  176.8040  143.7860 C   0  0  1  0  0  3  0  0  0  0  0  0
  191.6990  177.4260  140.4800 C   0  0  0  0  0  2  0  0  0  0  0  0
  188.1520  177.5180  139.6850 O   0  0  0  0  0  0  0  0  0  0  0  0
  189.2060  177.5550  140.3740 C   0  0  0  0  0  0  0  0  0  0  0  0
  191.6170  177.1110  141.9710 C   0  0  2  0  0  3  0  0  0  0  0  0
  189.9650  177.0180  147.5740 C   0  0  0  0  0  3  0  0  0  0  0  0
  191.4440  176.8450  147.7840 C   0  0  0  0  0  2  0  0  0  0  0  0
  191.5440  176.1460  145.4280 C   0  0  0  0  0  3  0  0  0  0  0  0
  190.4180  177.1190  145.1450 C   0  0  2  0  0  3  0  0  0  0  0  0
  192.0280  176.0170  146.6710 C   0  0  0  0  0  3  0  0  0  0  0  0
  189.4600  177.1520  146.3340 C   0  0  0  0  0  0  0  0  0  0  0  0
  187.2120  177.8110  147.1580 C   0  0  0  0  0  1  0  0  0  0  0  0
  188.0860  177.3400  146.1400 O   0  0  0  0  0  0  0  0  0  0  0  0
  186.8130  178.5310  142.5950 C   0  0  0  0  0  2  0  0  0  0  0  0
  182.7940  178.9110  143.8370 C   0  0  0  0  0  2  0  0  0  0  0  0
  185.4930  177.9750  143.1440 C   0  0  1  0  0  3  0  0  0  0  0  0
  185.1520  178.5240  144.5110 C   0  0  0  0  0  3  0  0  0  0  0  0
  183.9260  178.9700  144.8220 C   0  0  0  0  0  3  0  0  0  0  0  0
  183.3160  179.0720  142.4150 C   0  0  0  0  0  2  0  0  0  0  0  0
  184.3390  177.9750  142.1260 C   0  0  0  0  0  2  0  0  0  0  0  0
  1 21  1  1  0  0  0
  1  2  1  0  0  0  0
  3  5  1  1  0  0  0
  3  8  1  0  0  0  0
  4 11  1  0  0  0  0
  4  9  1  0  0  0  0
  6  4  1  0  0  0  0
  7 11  1  6  0  0  0
  7  1  1  0  0  0  0
  7  3  1  0  0  0  0
  8  2  1  1  0  0  0
  8 16  1  0  0  0  0
 10 11  2  0  0  0  0
 12  9  1  6  0  0  0
 12  3  1  0  0  0  0
 12  5  1  0  0  0  0
 13 14  1  0  0  0  0
 15 17  2  0  0  0  0
 16 15  1  1  0  0  0
 16 18  1  0  0  0  0
 17 14  1  0  0  0  0
 18 13  2  0  0  0  0
 20 18  1  0  0  0  0
 20 19  1  0  0  0  0
 22 25  1  0  0  0  0
 23 21  1  6  0  0  0
 23 24  1  0  0  0  0
 24 25  2  0  0  0  0
 26 22  1  0  0  0  0
 27 26  1  0  0  0  0
 27 23  1  0  0  0  0
M  END
>  <MODEL>
3

>  <REMARK>
 VINA RESULT:      -9.3      1.133      1.539
  Name = 
  4 active torsions:
  status: ('A' for Active; 'I' for Inactive)
    1  A    between atoms: C_1  and  C_15
    2  A    between atoms: C_9  and  C_15
    3  A    between atoms: C_14  and  C_19
    4  A    between atoms: C_17  and  O_21
                            x       y       z     vdW  Elec       q    Type
                         _______ _______ _______ _____ _____    ______ ____

>  <TORSDO>
F 4

$$$$
=
 OpenBabel10272401133D

 27 31  0  0  1  0  0  0  0  0999 V2000
  188.4170  177.7020  144.3830 C   0  0  2  0  0  3  0  0  0  0  0  0
  188.8030  177.9770  143.0500 O   0  0  0  0  0  0  0  0  0  0  0  0
  190.4000  176.5650  144.0050 C   0  0  2  0  0  0  0  0  0  0  0  0
  191.0910  176.7500  146.7470 N   0  0  0  0  0  0  0  0  0  0  0  0
  191.0380  175.2250  143.7160 C   0  0  0  0  0  2  0  0  0  0  0  0
  191.6070  177.3070  147.9230 N   0  0  0  0  0  1  0  0  0  0  0  0
  189.2670  176.5950  144.9870 C   0  0  1  0  0  3  0  0  0  0  0  0
  190.1480  177.5780  142.9010 C   0  0  1  0  0  3  0  0  0  0  0  0
  191.9410  175.9070  145.9190 C   0  0  0  0  0  2  0  0  0  0  0  0
  188.9230  177.4890  147.1890 O   0  0  0  0  0  0  0  0  0  0  0  0
  189.7330  176.9880  146.3630 C   0  0  0  0  0  0  0  0  0  0  0  0
  191.8380  176.3070  144.4490 C   0  0  2  0  0  3  0  0  0  0  0  0
  189.8020  177.5360  139.1170 C   0  0  0  0  0  3  0  0  0  0  0  0
  191.1280  176.9480  138.7180 C   0  0  0  0  0  2  0  0  0  0  0  0
  191.8310  177.3410  141.0420 C   0  0  0  0  0  3  0  0  0  0  0  0
  190.4040  177.0580  141.4680 C   0  0  2  0  0  3  0  0  0  0  0  0
  192.1710  177.2880  139.7470 C   0  0  0  0  0  3  0  0  0  0  0  0
  189.4400  177.5950  140.4120 C   0  0  0  0  0  0  0  0  0  0  0  0
  187.1650  178.4130  139.8470 C   0  0  0  0  0  1  0  0  0  0  0  0
  188.1950  178.1180  140.7820 O   0  0  0  0  0  0  0  0  0  0  0  0
  186.9140  177.4150  144.4970 C   0  0  0  0  0  2  0  0  0  0  0  0
  183.0960  179.1730  144.0890 C   0  0  0  0  0  2  0  0  0  0  0  0
  185.9730  178.5770  144.1540 C   0  0  1  0  0  3  0  0  0  0  0  0
  185.1140  178.2940  142.9420 C   0  0  0  0  0  3  0  0  0  0  0  0
  183.7980  178.5460  142.9180 C   0  0  0  0  0  3  0  0  0  0  0  0
  183.7580  178.7540  145.3940 C   0  0  0  0  0  2  0  0  0  0  0  0
  185.2290  179.1630  145.3670 C   0  0  0  0  0  2  0  0  0  0  0  0
  1 21  1  6  0  0  0
  1  7  1  0  0  0  0
  2  1  1  0  0  0  0
  3  5  1  6  0  0  0
  3 12  1  0  0  0  0
  3  7  1  0  0  0  0
  4  6  1  0  0  0  0
  7 11  1  1  0  0  0
  8  2  1  6  0  0  0
  8  3  1  0  0  0  0
  9  4  1  0  0  0  0
 11  4  1  0  0  0  0
 11 10  2  0  0  0  0
 12  5  1  6  0  0  0
 12  9  1  0  0  0  0
 13 18  2  0  0  0  0
 14 13  1  0  0  0  0
 14 17  1  0  0  0  0
 16 15  1  6  0  0  0
 16  8  1  0  0  0  0
 17 15  2  0  0  0  0
 18 20  1  0  0  0  0
 18 16  1  0  0  0  0
 19 20  1  0  0  0  0
 22 26  1  0  0  0  0
 23 21  1  1  0  0  0
 23 27  1  0  0  0  0
 24 23  1  0  0  0  0
 25 24  2  0  0  0  0
 25 22  1  0  0  0  0
 27 26  1  0  0  0  0
M  END
>  <MODEL>
4

>  <REMARK>
 VINA RESULT:      -9.0      2.456      5.291
  Name = 
  4 active torsions:
  status: ('A' for Active; 'I' for Inactive)
    1  A    between atoms: C_1  and  C_15
    2  A    between atoms: C_9  and  C_15
    3  A    between atoms: C_14  and  C_19
    4  A    between atoms: C_17  and  O_21
                            x       y       z     vdW  Elec       q    Type
                         _______ _______ _______ _____ _____    ______ ____

>  <TORSDO>
F 4

$$$$
=
 OpenBabel10272401133D

 27 31  0  0  1  0  0  0  0  0999 V2000
  185.2630  178.8150  142.1530 C   0  0  2  0  0  3  0  0  0  0  0  0
  186.3860  178.7560  141.2940 O   0  0  0  0  0  0  0  0  0  0  0  0
  186.9490  177.7340  143.3190 C   0  0  2  0  0  0  0  0  0  0  0  0
  185.9130  178.6660  145.7860 N   0  0  0  0  0  0  0  0  0  0  0  0
  187.4820  176.4050  143.8010 C   0  0  0  0  0  2  0  0  0  0  0  0
  185.6970  179.5380  146.8590 N   0  0  0  0  0  1  0  0  0  0  0  0
  185.4670  177.9540  143.3900 C   0  0  1  0  0  3  0  0  0  0  0  0
  187.5070  178.4090  142.0770 C   0  0  1  0  0  3  0  0  0  0  0  0
  186.9870  177.6860  145.8610 C   0  0  0  0  0  2  0  0  0  0  0  0
  183.9980  179.3690  144.6560 O   0  0  0  0  0  0  0  0  0  0  0  0
  185.0760  178.7180  144.6260 C   0  0  0  0  0  0  0  0  0  0  0  0
  187.8120  177.6830  144.5770 C   0  0  2  0  0  3  0  0  0  0  0  0
  189.5880  177.4710  139.0390 C   0  0  0  0  0  3  0  0  0  0  0  0
  190.7360  176.7520  139.6930 C   0  0  0  0  0  2  0  0  0  0  0  0
  189.9000  177.6660  141.8180 C   0  0  0  0  0  3  0  0  0  0  0  0
  188.4970  177.5500  141.2570 C   0  0  2  0  0  3  0  0  0  0  0  0
  190.9540  177.2890  141.0810 C   0  0  0  0  0  3  0  0  0  0  0  0
  188.5190  177.8540  139.7600 C   0  0  0  0  0  0  0  0  0  0  0  0
  186.9230  178.1210  137.8770 C   0  0  0  0  0  1  0  0  0  0  0  0
  187.4380  178.5000  139.1470 O   0  0  0  0  0  0  0  0  0  0  0  0
  183.9590  178.4820  141.4150 C   0  0  0  0  0  2  0  0  0  0  0  0
  182.2380  178.6500  137.5630 C   0  0  0  0  0  2  0  0  0  0  0  0
  184.0310  178.4640  139.8830 C   0  0  1  0  0  3  0  0  0  0  0  0
  183.3570  177.2520  139.2810 C   0  0  0  0  0  3  0  0  0  0  0  0
  182.5220  177.3380  138.2360 C   0  0  0  0  0  3  0  0  0  0  0  0
  182.3030  179.7910  138.5700 C   0  0  0  0  0  2  0  0  0  0  0  0
  183.6840  179.8090  139.2210 C   0  0  0  0  0  2  0  0  0  0  0  0
  1 21  1  6  0  0  0
  1  7  1  0  0  0  0
  2  1  1  0  0  0  0
  3  7  1  0  0  0  0
  3  5  1  6  0  0  0
  3 12  1  0  0  0  0
  4  9  1  0  0  0  0
  4  6  1  0  0  0  0
  7 11  1  1  0  0  0
  8  2  1  6  0  0  0
  8  3  1  0  0  0  0
 11 10  2  0  0  0  0
 11  4  1  0  0  0  0
 12  5  1  6  0  0  0
 12  9  1  0  0  0  0
 13 14  1  0  0  0  0
 13 18  2  0  0  0  0
 14 17  1  0  0  0  0
 16 15  1  1  0  0  0
 16  8  1  0  0  0  0
 17 15  2  0  0  0  0
 18 16  1  0  0  0  0
 19 20  1  0  0  0  0
 20 18  1  0  0  0  0
 22 25  1  0  0  0  0
 22 26  1  0  0  0  0
 23 21  1  1  0  0  0
 24 23  1  0  0  0  0
 25 24  2  0  0  0  0
 26 27  1  0  0  0  0
 27 23  1  0  0  0  0
M  END
>  <MODEL>
5

>  <REMARK>
 VINA RESULT:      -8.7      2.834      5.587
  Name = 
  4 active torsions:
  status: ('A' for Active; 'I' for Inactive)
    1  A    between atoms: C_1  and  C_15
    2  A    between atoms: C_9  and  C_15
    3  A    between atoms: C_14  and  C_19
    4  A    between atoms: C_17  and  O_21
                            x       y       z     vdW  Elec       q    Type
                         _______ _______ _______ _____ _____    ______ ____

>  <TORSDO>
F 4

$$$$
=
 OpenBabel10272401133D

 27 31  0  0  1  0  0  0  0  0999 V2000
  186.6820  178.0460  143.0360 C   0  0  2  0  0  3  0  0  0  0  0  0
  187.3290  178.2110  141.7890 O   0  0  0  0  0  0  0  0  0  0  0  0
  188.7670  177.0510  143.2200 C   0  0  2  0  0  0  0  0  0  0  0  0
  188.8360  177.5840  146.0010 N   0  0  0  0  0  0  0  0  0  0  0  0
  189.5350  175.7490  143.2350 C   0  0  0  0  0  2  0  0  0  0  0  0
  189.0490  178.3060  147.1830 N   0  0  0  0  0  1  0  0  0  0  0  0
  187.4490  177.0870  143.9340 C   0  0  1  0  0  3  0  0  0  0  0  0
  188.6970  177.9160  141.9720 C   0  0  1  0  0  3  0  0  0  0  0  0
  189.8950  176.7360  145.4770 C   0  0  0  0  0  2  0  0  0  0  0  0
  186.5820  178.1760  145.8900 O   0  0  0  0  0  0  0  0  0  0  0  0
  187.5810  177.6620  145.3180 C   0  0  0  0  0  0  0  0  0  0  0  0
  190.0880  176.9670  143.9810 C   0  0  2  0  0  3  0  0  0  0  0  0
  189.4300  177.6300  138.2550 C   0  0  0  0  0  3  0  0  0  0  0  0
  190.7420  176.8940  138.2810 C   0  0  0  0  0  2  0  0  0  0  0  0
  190.8000  177.3900  140.6890 C   0  0  0  0  0  3  0  0  0  0  0  0
  189.2890  177.2720  140.6980 C   0  0  2  0  0  3  0  0  0  0  0  0
  191.4840  177.2120  139.5510 C   0  0  0  0  0  3  0  0  0  0  0  0
  188.7270  177.8160  139.3870 C   0  0  0  0  0  0  0  0  0  0  0  0
  186.4930  178.2210  138.3810 C   0  0  0  0  0  1  0  0  0  0  0  0
  187.4920  178.4780  139.3590 O   0  0  0  0  0  0  0  0  0  0  0  0
  185.2110  177.6430  142.8700 C   0  0  0  0  0  2  0  0  0  0  0  0
  181.3230  179.2780  143.0800 C   0  0  0  0  0  2  0  0  0  0  0  0
  184.2020  178.7920  142.7490 C   0  0  1  0  0  3  0  0  0  0  0  0
  183.2100  178.5820  141.6260 C   0  0  0  0  0  3  0  0  0  0  0  0
  181.8940  178.7840  141.7820 C   0  0  0  0  0  3  0  0  0  0  0  0
  182.1510  178.7730  144.2540 C   0  0  0  0  0  2  0  0  0  0  0  0
  183.5950  179.2410  144.0890 C   0  0  0  0  0  2  0  0  0  0  0  0
  1 21  1  6  0  0  0
  1  7  1  0  0  0  0
  2  1  1  0  0  0  0
  3  5  1  6  0  0  0
  3  7  1  0  0  0  0
  3 12  1  0  0  0  0
  4  6  1  0  0  0  0
  7 11  1  1  0  0  0
  8  2  1  6  0  0  0
  8  3  1  0  0  0  0
  9  4  1  0  0  0  0
 11 10  2  0  0  0  0
 11  4  1  0  0  0  0
 12  5  1  6  0  0  0
 12  9  1  0  0  0  0
 13 14  1  0  0  0  0
 13 18  2  0  0  0  0
 14 17  1  0  0  0  0
 16 15  1  6  0  0  0
 16  8  1  0  0  0  0
 17 15  2  0  0  0  0
 18 16  1  0  0  0  0
 19 20  1  0  0  0  0
 20 18  1  0  0  0  0
 22 26  1  0  0  0  0
 23 21  1  1  0  0  0
 23 27  1  0  0  0  0
 24 25  2  0  0  0  0
 24 23  1  0  0  0  0
 25 22  1  0  0  0  0
 27 26  1  0  0  0  0
M  END
>  <MODEL>
6

>  <REMARK>
 VINA RESULT:      -8.6      2.269      5.255
  Name = 
  4 active torsions:
  status: ('A' for Active; 'I' for Inactive)
    1  A    between atoms: C_1  and  C_15
    2  A    between atoms: C_9  and  C_15
    3  A    between atoms: C_14  and  C_19
    4  A    between atoms: C_17  and  O_21
                            x       y       z     vdW  Elec       q    Type
                         _______ _______ _______ _____ _____    ______ ____

>  <TORSDO>
F 4

$$$$
=
 OpenBabel10272401133D

 27 31  0  0  1  0  0  0  0  0999 V2000
  188.6430  177.4540  141.7610 C   0  0  2  0  0  3  0  0  0  0  0  0
  187.3250  177.5790  142.2600 O   0  0  0  0  0  0  0  0  0  0  0  0
  188.8050  177.6350  144.0660 C   0  0  2  0  0  0  0  0  0  0  0  0
  191.1940  176.1120  144.0710 N   0  0  0  0  0  0  0  0  0  0  0  0
  189.1310  178.5440  145.2290 C   0  0  0  0  0  2  0  0  0  0  0  0
  192.0110  174.9750  144.0790 N   0  0  0  0  0  1  0  0  0  0  0  0
  189.6720  177.7330  142.8460 C   0  0  1  0  0  3  0  0  0  0  0  0
  187.3690  177.3610  143.6530 C   0  0  1  0  0  3  0  0  0  0  0  0
  190.8190  176.7350  145.3320 C   0  0  0  0  0  2  0  0  0  0  0  0
  191.2620  176.3080  141.7480 O   0  0  0  0  0  0  0  0  0  0  0  0
  190.7400  176.6730  142.8360 C   0  0  0  0  0  0  0  0  0  0  0  0
  189.3220  177.0310  145.3700 C   0  0  2  0  0  3  0  0  0  0  0  0
  183.8910  178.7460  144.3000 C   0  0  0  0  0  3  0  0  0  0  0  0
  183.9640  179.0150  145.7790 C   0  0  0  0  0  2  0  0  0  0  0  0
  186.0360  177.6900  145.7640 C   0  0  0  0  0  3  0  0  0  0  0  0
  186.3070  178.2230  144.3720 C   0  0  2  0  0  3  0  0  0  0  0  0
  184.9330  178.0630  146.4270 C   0  0  0  0  0  3  0  0  0  0  0  0
  184.9880  178.3730  143.6170 C   0  0  0  0  0  0  0  0  0  0  0  0
  183.7030  178.0540  141.5160 C   0  0  0  0  0  1  0  0  0  0  0  0
  184.9260  178.1480  142.2360 O   0  0  0  0  0  0  0  0  0  0  0  0
  188.8660  178.3100  140.5080 C   0  0  0  0  0  2  0  0  0  0  0  0
  187.5980  178.5450  136.4870 C   0  0  0  0  0  2  0  0  0  0  0  0
  188.4210  177.6930  139.1760 C   0  0  1  0  0  3  0  0  0  0  0  0
  186.9850  178.0180  138.8340 C   0  0  0  0  0  3  0  0  0  0  0  0
  186.6110  178.4260  137.6130 C   0  0  0  0  0  3  0  0  0  0  0  0
  188.9710  178.9270  137.0210 C   0  0  0  0  0  2  0  0  0  0  0  0
  189.4300  177.8760  138.0290 C   0  0  0  0  0  2  0  0  0  0  0  0
  1 21  1  6  0  0  0
  1  2  1  0  0  0  0
  1  7  1  0  0  0  0
  3  5  1  1  0  0  0
  3 12  1  0  0  0  0
  4  6  1  0  0  0  0
  4  9  1  0  0  0  0
  7 11  1  1  0  0  0
  7  3  1  0  0  0  0
  8  2  1  6  0  0  0
  8  3  1  0  0  0  0
  8 16  1  0  0  0  0
  9 12  1  0  0  0  0
 10 11  2  0  0  0  0
 11  4  1  0  0  0  0
 12  5  1  1  0  0  0
 13 14  1  0  0  0  0
 14 17  1  0  0  0  0
 15 17  2  0  0  0  0
 16 15  1  1  0  0  0
 18 13  2  0  0  0  0
 18 16  1  0  0  0  0
 19 20  1  0  0  0  0
 20 18  1  0  0  0  0
 22 26  1  0  0  0  0
 22 25  1  0  0  0  0
 23 21  1  1  0  0  0
 24 23  1  0  0  0  0
 25 24  2  0  0  0  0
 26 27  1  0  0  0  0
 27 23  1  0  0  0  0
M  END
>  <MODEL>
7

>  <REMARK>
 VINA RESULT:      -8.3      2.361      4.550
  Name = 
  4 active torsions:
  status: ('A' for Active; 'I' for Inactive)
    1  A    between atoms: C_1  and  C_15
    2  A    between atoms: C_9  and  C_15
    3  A    between atoms: C_14  and  C_19
    4  A    between atoms: C_17  and  O_21
                            x       y       z     vdW  Elec       q    Type
                         _______ _______ _______ _____ _____    ______ ____

>  <TORSDO>
F 4

$$$$
=
 OpenBabel10272401133D

 27 31  0  0  1  0  0  0  0  0999 V2000
  187.6170  178.4130  142.1740 C   0  0  2  0  0  3  0  0  0  0  0  0
  187.3830  178.6550  140.8000 O   0  0  0  0  0  0  0  0  0  0  0  0
  189.4340  177.5570  141.0180 C   0  0  2  0  0  0  0  0  0  0  0  0
  191.1320  178.0180  143.2390 N   0  0  0  0  0  0  0  0  0  0  0  0
  190.1060  176.3100  140.4920 C   0  0  0  0  0  2  0  0  0  0  0  0
  191.9820  178.7200  144.1020 N   0  0  0  0  0  1  0  0  0  0  0  0
  188.8040  177.4840  142.3780 C   0  0  1  0  0  3  0  0  0  0  0  0
  188.5980  178.4480  140.1140 C   0  0  1  0  0  3  0  0  0  0  0  0
  191.6990  177.2570  142.1350 C   0  0  0  0  0  2  0  0  0  0  0  0
  189.2390  178.4590  144.5280 O   0  0  0  0  0  0  0  0  0  0  0  0
  189.7160  178.0300  143.4430 C   0  0  0  0  0  0  0  0  0  0  0  0
  190.9490  177.5420  140.8360 C   0  0  2  0  0  3  0  0  0  0  0  0
  186.7130  178.0390  136.8410 C   0  0  0  0  0  3  0  0  0  0  0  0
  187.8410  177.7020  135.9050 C   0  0  0  0  0  2  0  0  0  0  0  0
  189.3510  178.4120  137.7110 C   0  0  0  0  0  3  0  0  0  0  0  0
  188.3340  177.8800  138.7010 C   0  0  2  0  0  3  0  0  0  0  0  0
  189.1190  178.3270  136.3940 C   0  0  0  0  0  3  0  0  0  0  0  0
  186.9250  178.1250  138.1670 C   0  0  0  0  0  0  0  0  0  0  0  0
  184.5060  178.4170  138.6410 C   0  0  0  0  0  1  0  0  0  0  0  0
  185.8700  178.4130  139.0420 O   0  0  0  0  0  0  0  0  0  0  0  0
  186.3550  177.9170  142.8920 C   0  0  0  0  0  2  0  0  0  0  0  0
  182.6100  179.1620  144.3960 C   0  0  0  0  0  2  0  0  0  0  0  0
  185.2740  178.9700  143.1700 C   0  0  1  0  0  3  0  0  0  0  0  0
  184.0030  178.7210  142.3890 C   0  0  0  0  0  3  0  0  0  0  0  0
  182.7880  178.7880  142.9520 C   0  0  0  0  0  3  0  0  0  0  0  0
  183.7960  178.6810  145.2200 C   0  0  0  0  0  2  0  0  0  0  0  0
  185.0790  179.2930  144.6620 C   0  0  0  0  0  2  0  0  0  0  0  0
  1  7  1  0  0  0  0
  1 21  1  6  0  0  0
  2  1  1  0  0  0  0
  3  5  1  6  0  0  0
  3  7  1  0  0  0  0
  4 11  1  0  0  0  0
  4  6  1  0  0  0  0
  7 11  1  1  0  0  0
  8  2  1  1  0  0  0
  8  3  1  0  0  0  0
  9  4  1  0  0  0  0
 11 10  2  0  0  0  0
 12  5  1  6  0  0  0
 12  3  1  0  0  0  0
 12  9  1  0  0  0  0
 13 18  2  0  0  0  0
 14 17  1  0  0  0  0
 14 13  1  0  0  0  0
 16 15  1  6  0  0  0
 16  8  1  0  0  0  0
 17 15  2  0  0  0  0
 18 16  1  0  0  0  0
 18 20  1  0  0  0  0
 19 20  1  0  0  0  0
 22 26  1  0  0  0  0
 23 21  1  1  0  0  0
 23 27  1  0  0  0  0
 24 25  2  0  0  0  0
 24 23  1  0  0  0  0
 25 22  1  0  0  0  0
 27 26  1  0  0  0  0
M  END
>  <MODEL>
8

>  <REMARK>
 VINA RESULT:      -8.3      2.451      5.785
  Name = 
  4 active torsions:
  status: ('A' for Active; 'I' for Inactive)
    1  A    between atoms: C_1  and  C_15
    2  A    between atoms: C_9  and  C_15
    3  A    between atoms: C_14  and  C_19
    4  A    between atoms: C_17  and  O_21
                            x       y       z     vdW  Elec       q    Type
                         _______ _______ _______ _____ _____    ______ ____

>  <TORSDO>
F 4

$$$$
=
 OpenBabel10272401133D

 27 31  0  0  1  0  0  0  0  0999 V2000
  189.2460  177.5340  141.2150 C   0  0  2  0  0  3  0  0  0  0  0  0
  188.2090  177.9300  140.3380 O   0  0  0  0  0  0  0  0  0  0  0  0
  189.8820  176.8880  139.0820 C   0  0  2  0  0  0  0  0  0  0  0  0
  192.6200  177.1410  139.7640 N   0  0  0  0  0  0  0  0  0  0  0  0
  190.0100  175.7380  138.1100 C   0  0  0  0  0  2  0  0  0  0  0  0
  193.8570  177.7650  139.9700 N   0  0  0  0  0  1  0  0  0  0  0  0
  190.2480  176.6300  140.5130 C   0  0  1  0  0  3  0  0  0  0  0  0
  188.7070  177.8510  139.0200 C   0  0  1  0  0  3  0  0  0  0  0  0
  192.3260  176.5390  138.4720 C   0  0  0  0  0  2  0  0  0  0  0  0
  191.9890  177.3560  141.9990 O   0  0  0  0  0  0  0  0  0  0  0  0
  191.6530  177.0770  140.8170 C   0  0  0  0  0  0  0  0  0  0  0  0
  190.9390  176.9490  137.9830 C   0  0  2  0  0  3  0  0  0  0  0  0
  185.3070  178.1200  137.3450 C   0  0  0  0  0  3  0  0  0  0  0  0
  185.6150  177.5530  135.9870 C   0  0  0  0  0  2  0  0  0  0  0  0
  187.9860  177.7490  136.6090 C   0  0  0  0  0  3  0  0  0  0  0  0
  187.5830  177.4470  138.0380 C   0  0  2  0  0  3  0  0  0  0  0  0
  187.0590  177.7980  135.6430 C   0  0  0  0  0  3  0  0  0  0  0  0
  186.2230  178.0770  138.3290 C   0  0  0  0  0  0  0  0  0  0  0  0
  184.6720  179.1570  139.9400 C   0  0  0  0  0  1  0  0  0  0  0  0
  185.9280  178.5810  139.6020 O   0  0  0  0  0  0  0  0  0  0  0  0
  188.6980  176.9100  142.5050 C   0  0  0  0  0  2  0  0  0  0  0  0
  188.0350  177.8150  146.5770 C   0  0  0  0  0  2  0  0  0  0  0  0
  188.4270  177.8770  143.6650 C   0  0  1  0  0  3  0  0  0  0  0  0
  187.0690  177.6660  144.2950 C   0  0  0  0  0  3  0  0  0  0  0  0
  186.8910  177.6170  145.6230 C   0  0  0  0  0  3  0  0  0  0  0  0
  189.3300  177.2930  145.9700 C   0  0  0  0  0  2  0  0  0  0  0  0
  189.5980  178.0180  144.6530 C   0  0  0  0  0  2  0  0  0  0  0  0
  1 21  1  1  0  0  0
  2  1  1  0  0  0  0
  3  5  1  6  0  0  0
  3  7  1  0  0  0  0
  4  6  1  0  0  0  0
  4 11  1  0  0  0  0
  7 11  1  6  0  0  0
  7  1  1  0  0  0  0
  8  3  1  0  0  0  0
  8  2  1  1  0  0  0
  9  4  1  0  0  0  0
 11 10  2  0  0  0  0
 12  5  1  6  0  0  0
 12  9  1  0  0  0  0
 12  3  1  0  0  0  0
 13 18  2  0  0  0  0
 14 13  1  0  0  0  0
 16 15  1  6  0  0  0
 16 18  1  0  0  0  0
 16  8  1  0  0  0  0
 17 14  1  0  0  0  0
 17 15  2  0  0  0  0
 18 20  1  0  0  0  0
 20 19  1  0  0  0  0
 23 21  1  6  0  0  0
 23 24  1  0  0  0  0
 23 27  1  0  0  0  0
 24 25  2  0  0  0  0
 25 22  1  0  0  0  0
 26 22  1  0  0  0  0
 27 26  1  0  0  0  0
M  END
>  <MODEL>
9

>  <REMARK>
 VINA RESULT:      -8.0      2.837      6.667
  Name = 
  4 active torsions:
  status: ('A' for Active; 'I' for Inactive)
    1  A    between atoms: C_1  and  C_15
    2  A    between atoms: C_9  and  C_15
    3  A    between atoms: C_14  and  C_19
    4  A    between atoms: C_17  and  O_21
                            x       y       z     vdW  Elec       q    Type
                         _______ _______ _______ _____ _____    ______ ____

>  <TORSDO>
F 4

$$$$
