=
 OpenBabel10272401483D

 28 31  0  0  1  0  0  0  0  0999 V2000
  190.0900  177.6430  144.9390 C   0  0  1  0  0  3  0  0  0  0  0  0
  192.3310  175.7260  146.8120 C   0  0  0  0  0  2  0  0  0  0  0  0
  191.0220  176.8250  145.7080 N   0  0  0  0  0  0  0  0  0  0  0  0
  191.8970  175.6720  145.4150 C   0  0  0  0  0  0  0  0  0  0  0  0
  191.4900  176.8150  147.0370 N   0  0  0  0  0  2  0  0  0  0  0  0
  192.1550  174.9600  144.4100 O   0  0  0  0  0  0  0  0  0  0  0  0
  190.6960  178.0890  143.6090 C   0  0  2  0  0  3  0  0  0  0  0  0
  191.5250  179.1990  143.7850 O   0  0  0  0  0  1  0  0  0  0  0  0
  189.6110  178.4060  142.5920 C   0  0  0  0  0  2  0  0  0  0  0  0
  189.8490  177.6570  141.3210 C   0  0  0  0  0  0  0  0  0  0  0  0
  189.6180  176.7730  139.3440 N   0  0  0  0  0  0  0  0  0  0  0  0
  190.8920  176.8300  141.1060 N   0  0  0  0  0  0  0  0  0  0  0  0
  187.7480  178.3380  139.9930 C   0  0  0  0  0  1  0  0  0  0  0  0
  189.0350  177.6160  140.2110 C   0  0  0  0  0  0  0  0  0  0  0  0
  189.1410  176.3990  138.0240 C   0  0  0  0  0  1  0  0  0  0  0  0
  190.7280  176.3110  139.8970 N   0  0  0  0  0  0  0  0  0  0  0  0
  188.7850  176.9020  144.6980 C   0  0  0  0  0  2  0  0  0  0  0  0
  186.2560  177.6850  143.4000 C   0  0  0  0  0  2  0  0  0  0  0  0
  185.4740  178.5580  145.6550 C   0  0  0  0  0  0  0  0  0  0  0  0
  187.6800  177.5350  145.4850 C   0  0  0  0  0  0  0  0  0  0  0  0
  183.9190  178.4880  143.6760 C   0  0  1  0  0  3  0  0  0  0  0  0
  186.4870  177.9620  144.8660 C   0  0  0  0  0  0  0  0  0  0  0  0
  186.8670  178.3340  147.6240 C   0  0  0  0  0  3  0  0  0  0  0  0
  184.2130  179.1010  145.0410 C   0  0  0  0  0  2  0  0  0  0  0  0
  185.6790  178.7510  147.0230 C   0  0  0  0  0  3  0  0  0  0  0  0
  182.8880  179.1800  143.0730 F   0  0  0  0  0  0  0  0  0  0  0  0
  185.1630  178.5660  142.8050 C   0  0  0  0  0  2  0  0  0  0  0  0
  187.8630  177.7300  146.8580 C   0  0  0  0  0  3  0  0  0  0  0  0
  1 17  1  6  0  0  0
  1  3  1  0  0  0  0
  2  5  1  0  0  0  0
  3  5  1  0  0  0  0
  4  3  1  0  0  0  0
  4  2  1  0  0  0  0
  6  4  2  0  0  0  0
  7  8  1  1  0  0  0
  7  1  1  0  0  0  0
  9  7  1  0  0  0  0
 10  9  1  0  0  0  0
 11 16  1  0  0  0  0
 11 14  1  0  0  0  0
 12 10  1  0  0  0  0
 13 14  1  0  0  0  0
 14 10  2  0  0  0  0
 15 11  1  0  0  0  0
 16 12  2  0  0  0  0
 17 20  1  0  0  0  0
 18 22  1  0  0  0  0
 19 25  1  0  0  0  0
 20 28  2  0  0  0  0
 21 26  1  6  0  0  0
 21 24  1  0  0  0  0
 22 20  1  0  0  0  0
 22 19  2  0  0  0  0
 24 19  1  0  0  0  0
 25 23  2  0  0  0  0
 27 18  1  0  0  0  0
 27 21  1  0  0  0  0
 28 23  1  0  0  0  0
M  END
>  <MODEL>
1

>  <REMARK>
 VINA RESULT:      -9.7      0.000      0.000
  Name = 
  6 active torsions:
  status: ('A' for Active; 'I' for Inactive)
    1  A    between atoms: C_1  and  C_2
    2  A    between atoms: C_1  and  C_27
    3  A    between atoms: C_2  and  C_3
    4  A    between atoms: C_10  and  C_17
    5  A    between atoms: N_16  and  C_27
    6  A    between atoms: C_17  and  C_27
                            x       y       z     vdW  Elec       q    Type
                         _______ _______ _______ _____ _____    ______ ____

>  <TORSDO>
F 6

$$$$
=
 OpenBabel10272401483D

 28 31  0  0  1  0  0  0  0  0999 V2000
  189.0150  177.5970  142.4070 C   0  0  1  0  0  3  0  0  0  0  0  0
  191.9200  178.5390  144.1040 C   0  0  0  0  0  2  0  0  0  0  0  0
  190.2270  177.9720  143.1280 N   0  0  0  0  0  0  0  0  0  0  0  0
  191.3170  177.2390  143.8050 C   0  0  0  0  0  0  0  0  0  0  0  0
  190.8710  179.1830  143.4510 N   0  0  0  0  0  2  0  0  0  0  0  0
  191.5990  176.0330  144.0250 O   0  0  0  0  0  0  0  0  0  0  0  0
  189.3360  177.0000  141.0380 C   0  0  2  0  0  3  0  0  0  0  0  0
  190.4670  176.1830  141.1020 O   0  0  0  0  0  1  0  0  0  0  0  0
  189.5400  178.0900  139.9980 C   0  0  0  0  0  2  0  0  0  0  0  0
  188.3970  178.1170  139.0350 C   0  0  0  0  0  0  0  0  0  0  0  0
  187.1930  178.0510  137.2220 N   0  0  0  0  0  0  0  0  0  0  0  0
  187.1430  178.4990  139.3500 N   0  0  0  0  0  0  0  0  0  0  0  0
  189.6090  177.4120  136.8740 C   0  0  0  0  0  1  0  0  0  0  0  0
  188.4350  177.8410  137.6860 C   0  0  0  0  0  0  0  0  0  0  0  0
  186.7260  177.8940  135.8550 C   0  0  0  0  0  1  0  0  0  0  0  0
  186.4330  178.4450  138.2310 N   0  0  0  0  0  0  0  0  0  0  0  0
  188.1760  176.6250  143.2210 C   0  0  0  0  0  2  0  0  0  0  0  0
  188.7190  177.1170  146.0770 C   0  0  0  0  0  2  0  0  0  0  0  0
  186.4660  178.2860  146.2100 C   0  0  0  0  0  0  0  0  0  0  0  0
  187.1990  177.3750  144.0710 C   0  0  0  0  0  0  0  0  0  0  0  0
  188.0520  178.2920  148.1640 C   0  0  1  0  0  3  0  0  0  0  0  0
  187.4220  177.5720  145.4490 C   0  0  0  0  0  0  0  0  0  0  0  0
  185.0830  178.5460  144.2370 C   0  0  0  0  0  3  0  0  0  0  0  0
  186.6110  178.4620  147.6960 C   0  0  0  0  0  2  0  0  0  0  0  0
  185.3000  178.7550  145.5990 C   0  0  0  0  0  3  0  0  0  0  0  0
  188.0850  178.2420  149.5440 F   0  0  0  0  0  0  0  0  0  0  0  0
  188.6230  177.0030  147.5940 C   0  0  0  0  0  2  0  0  0  0  0  0
  186.0290  177.8590  143.4770 C   0  0  0  0  0  3  0  0  0  0  0  0
  1  3  1  0  0  0  0
  1 17  1  1  0  0  0
  3  5  1  0  0  0  0
  3  4  1  0  0  0  0
  4  6  2  0  0  0  0
  4  2  1  0  0  0  0
  5  2  1  0  0  0  0
  7  8  1  1  0  0  0
  7  1  1  0  0  0  0
  9  7  1  0  0  0  0
 10 12  1  0  0  0  0
 10  9  1  0  0  0  0
 11 14  1  0  0  0  0
 11 16  1  0  0  0  0
 13 14  1  0  0  0  0
 14 10  2  0  0  0  0
 15 11  1  0  0  0  0
 16 12  2  0  0  0  0
 17 20  1  0  0  0  0
 18 27  1  0  0  0  0
 19 24  1  0  0  0  0
 20 22  1  0  0  0  0
 21 26  1  1  0  0  0
 22 18  1  0  0  0  0
 22 19  2  0  0  0  0
 23 25  2  0  0  0  0
 24 21  1  0  0  0  0
 25 19  1  0  0  0  0
 27 21  1  0  0  0  0
 28 20  2  0  0  0  0
 28 23  1  0  0  0  0
M  END
>  <MODEL>
2

>  <REMARK>
 VINA RESULT:      -9.2      2.511      3.783
  Name = 
  6 active torsions:
  status: ('A' for Active; 'I' for Inactive)
    1  A    between atoms: C_1  and  C_2
    2  A    between atoms: C_1  and  C_27
    3  A    between atoms: C_2  and  C_3
    4  A    between atoms: C_10  and  C_17
    5  A    between atoms: N_16  and  C_27
    6  A    between atoms: C_17  and  C_27
                            x       y       z     vdW  Elec       q    Type
                         _______ _______ _______ _____ _____    ______ ____

>  <TORSDO>
F 6

$$$$
=
 OpenBabel10272401483D

 28 31  0  0  1  0  0  0  0  0999 V2000
  188.8930  177.6230  142.8350 C   0  0  1  0  0  3  0  0  0  0  0  0
  191.8550  178.7210  144.3260 C   0  0  0  0  0  2  0  0  0  0  0  0
  190.1290  178.0640  143.4730 N   0  0  0  0  0  0  0  0  0  0  0  0
  191.2310  177.4030  144.2010 C   0  0  0  0  0  0  0  0  0  0  0  0
  190.7940  179.2970  143.6310 N   0  0  0  0  0  2  0  0  0  0  0  0
  191.5080  176.2280  144.5550 O   0  0  0  0  0  0  0  0  0  0  0  0
  189.1500  177.0500  141.4430 C   0  0  2  0  0  3  0  0  0  0  0  0
  190.2310  176.1650  141.4590 O   0  0  0  0  0  1  0  0  0  0  0  0
  189.4000  178.1580  140.4320 C   0  0  0  0  0  2  0  0  0  0  0  0
  188.3210  178.1780  139.3990 C   0  0  0  0  0  0  0  0  0  0  0  0
  187.2360  178.1260  137.5110 N   0  0  0  0  0  0  0  0  0  0  0  0
  187.0380  178.5160  139.6420 N   0  0  0  0  0  0  0  0  0  0  0  0
  189.6870  177.5660  137.3020 C   0  0  0  0  0  1  0  0  0  0  0  0
  188.4520  177.9400  138.0480 C   0  0  0  0  0  0  0  0  0  0  0  0
  186.8620  177.9930  136.1130 C   0  0  0  0  0  1  0  0  0  0  0  0
  186.4020  178.4720  138.4780 N   0  0  0  0  0  0  0  0  0  0  0  0
  188.1700  176.6010  143.6980 C   0  0  0  0  0  2  0  0  0  0  0  0
  185.5240  177.7200  143.0360 C   0  0  0  0  0  2  0  0  0  0  0  0
  185.3640  178.5270  145.4400 C   0  0  0  0  0  0  0  0  0  0  0  0
  187.3470  177.2950  144.7370 C   0  0  0  0  0  0  0  0  0  0  0  0
  183.4140  178.7410  143.8640 C   0  0  1  0  0  3  0  0  0  0  0  0
  186.1030  177.8800  144.4220 C   0  0  0  0  0  0  0  0  0  0  0  0
  187.1230  178.0380  147.0340 C   0  0  0  0  0  3  0  0  0  0  0  0
  184.0700  179.2350  145.1490 C   0  0  0  0  0  2  0  0  0  0  0  0
  185.8870  178.6120  146.7330 C   0  0  0  0  0  3  0  0  0  0  0  0
  182.3610  179.5730  143.5360 F   0  0  0  0  0  0  0  0  0  0  0  0
  184.4360  178.7460  142.7370 C   0  0  0  0  0  2  0  0  0  0  0  0
  187.8490  177.3830  146.0400 C   0  0  0  0  0  3  0  0  0  0  0  0
  1  3  1  0  0  0  0
  1 17  1  1  0  0  0
  3  5  1  0  0  0  0
  3  4  1  0  0  0  0
  4  2  1  0  0  0  0
  4  6  2  0  0  0  0
  5  2  1  0  0  0  0
  7  8  1  1  0  0  0
  7  1  1  0  0  0  0
  9  7  1  0  0  0  0
 10 12  1  0  0  0  0
 10  9  1  0  0  0  0
 11 14  1  0  0  0  0
 11 16  1  0  0  0  0
 13 14  1  0  0  0  0
 14 10  2  0  0  0  0
 15 11  1  0  0  0  0
 16 12  2  0  0  0  0
 17 20  1  0  0  0  0
 18 22  1  0  0  0  0
 19 25  1  0  0  0  0
 20 28  2  0  0  0  0
 21 26  1  6  0  0  0
 21 24  1  0  0  0  0
 22 20  1  0  0  0  0
 22 19  2  0  0  0  0
 24 19  1  0  0  0  0
 25 23  2  0  0  0  0
 27 18  1  0  0  0  0
 27 21  1  0  0  0  0
 28 23  1  0  0  0  0
M  END
>  <MODEL>
3

>  <REMARK>
 VINA RESULT:      -9.1      1.877      2.534
  Name = 
  6 active torsions:
  status: ('A' for Active; 'I' for Inactive)
    1  A    between atoms: C_1  and  C_2
    2  A    between atoms: C_1  and  C_27
    3  A    between atoms: C_2  and  C_3
    4  A    between atoms: C_10  and  C_17
    5  A    between atoms: N_16  and  C_27
    6  A    between atoms: C_17  and  C_27
                            x       y       z     vdW  Elec       q    Type
                         _______ _______ _______ _____ _____    ______ ____

>  <TORSDO>
F 6

$$$$
=
 OpenBabel10272401483D

 28 31  0  0  1  0  0  0  0  0999 V2000
  188.2470  177.8010  142.0550 C   0  0  1  0  0  3  0  0  0  0  0  0
  190.0650  176.9390  139.1990 C   0  0  0  0  0  2  0  0  0  0  0  0
  188.9910  177.4510  140.8490 N   0  0  0  0  0  0  0  0  0  0  0  0
  189.1400  178.0320  139.4990 C   0  0  0  0  0  0  0  0  0  0  0  0
  189.8920  176.4310  140.4850 N   0  0  0  0  0  2  0  0  0  0  0  0
  188.6780  179.0270  138.8840 O   0  0  0  0  0  0  0  0  0  0  0  0
  186.8430  178.3050  141.7240 C   0  0  2  0  0  3  0  0  0  0  0  0
  186.8490  179.6810  141.4870 O   0  0  0  0  0  1  0  0  0  0  0  0
  185.8650  177.9740  142.8400 C   0  0  0  0  0  2  0  0  0  0  0  0
  184.4660  178.2970  142.4250 C   0  0  0  0  0  0  0  0  0  0  0  0
  182.3590  178.8480  142.4370 N   0  0  0  0  0  0  0  0  0  0  0  0
  183.9760  178.1080  141.1830 N   0  0  0  0  0  0  0  0  0  0  0  0
  183.4930  179.0790  144.6790 C   0  0  0  0  0  1  0  0  0  0  0  0
  183.4430  178.7570  143.2240 C   0  0  0  0  0  0  0  0  0  0  0  0
  181.0280  179.2860  142.8200 C   0  0  0  0  0  1  0  0  0  0  0  0
  182.6960  178.4550  141.2190 N   0  0  0  0  0  0  0  0  0  0  0  0
  188.1690  176.6190  143.0080 C   0  0  0  0  0  2  0  0  0  0  0  0
  187.3950  177.3250  145.7650 C   0  0  0  0  0  2  0  0  0  0  0  0
  189.8610  177.2660  146.3750 C   0  0  0  0  0  0  0  0  0  0  0  0
  189.1990  176.7590  144.0850 C   0  0  0  0  0  0  0  0  0  0  0  0
  188.0910  177.5720  148.1390 C   0  0  1  0  0  3  0  0  0  0  0  0
  188.8480  177.1470  145.3940 C   0  0  0  0  0  0  0  0  0  0  0  0
  191.5340  176.6630  144.7290 C   0  0  0  0  0  3  0  0  0  0  0  0
  189.5590  177.7490  147.7670 C   0  0  0  0  0  2  0  0  0  0  0  0
  191.1950  177.0370  146.0300 C   0  0  0  0  0  3  0  0  0  0  0  0
  187.8340  178.2300  149.3250 F   0  0  0  0  0  0  0  0  0  0  0  0
  187.2150  178.1460  147.0370 C   0  0  0  0  0  2  0  0  0  0  0  0
  190.5400  176.5250  143.7610 C   0  0  0  0  0  3  0  0  0  0  0  0
  1 17  1  1  0  0  0
  2  4  1  0  0  0  0
  2  5  1  0  0  0  0
  3  1  1  0  0  0  0
  4  3  1  0  0  0  0
  5  3  1  0  0  0  0
  6  4  2  0  0  0  0
  7  8  1  1  0  0  0
  7  1  1  0  0  0  0
  7  9  1  0  0  0  0
 10  9  1  0  0  0  0
 10 14  2  0  0  0  0
 11 15  1  0  0  0  0
 11 14  1  0  0  0  0
 12 16  2  0  0  0  0
 12 10  1  0  0  0  0
 14 13  1  0  0  0  0
 16 11  1  0  0  0  0
 17 20  1  0  0  0  0
 18 27  1  0  0  0  0
 19 24  1  0  0  0  0
 20 22  1  0  0  0  0
 21 26  1  1  0  0  0
 22 18  1  0  0  0  0
 22 19  2  0  0  0  0
 23 25  2  0  0  0  0
 24 21  1  0  0  0  0
 25 19  1  0  0  0  0
 27 21  1  0  0  0  0
 28 20  2  0  0  0  0
 28 23  1  0  0  0  0
M  END
>  <MODEL>
4

>  <REMARK>
 VINA RESULT:      -9.1      3.418      5.994
  Name = 
  6 active torsions:
  status: ('A' for Active; 'I' for Inactive)
    1  A    between atoms: C_1  and  C_2
    2  A    between atoms: C_1  and  C_27
    3  A    between atoms: C_2  and  C_3
    4  A    between atoms: C_10  and  C_17
    5  A    between atoms: N_16  and  C_27
    6  A    between atoms: C_17  and  C_27
                            x       y       z     vdW  Elec       q    Type
                         _______ _______ _______ _____ _____    ______ ____

>  <TORSDO>
F 6

$$$$
=
 OpenBabel10272401483D

 28 31  0  0  1  0  0  0  0  0999 V2000
  188.1970  178.0740  142.5330 C   0  0  1  0  0  3  0  0  0  0  0  0
  191.5700  177.2150  142.2290 C   0  0  0  0  0  2  0  0  0  0  0  0
  189.6120  177.7360  142.4100 N   0  0  0  0  0  0  0  0  0  0  0  0
  190.8720  178.2710  142.9630 C   0  0  0  0  0  0  0  0  0  0  0  0
  190.3540  176.7470  141.7350 N   0  0  0  0  0  2  0  0  0  0  0  0
  191.1990  179.2150  143.7280 O   0  0  0  0  0  0  0  0  0  0  0  0
  187.5410  178.2570  141.1650 C   0  0  2  0  0  3  0  0  0  0  0  0
  188.4470  178.7880  140.2440 O   0  0  0  0  0  1  0  0  0  0  0  0
  186.3140  179.1510  141.2620 C   0  0  0  0  0  2  0  0  0  0  0  0
  185.3180  178.7890  140.2090 C   0  0  0  0  0  0  0  0  0  0  0  0
  183.5090  178.1490  139.1780 N   0  0  0  0  0  0  0  0  0  0  0  0
  185.6040  178.6630  138.8970 N   0  0  0  0  0  0  0  0  0  0  0  0
  183.2300  178.4140  141.6710 C   0  0  0  0  0  1  0  0  0  0  0  0
  183.9940  178.4550  140.3920 C   0  0  0  0  0  0  0  0  0  0  0  0
  182.1570  177.7340  138.8490 C   0  0  0  0  0  1  0  0  0  0  0  0
  184.4870  178.2780  138.2950 N   0  0  0  0  0  0  0  0  0  0  0  0
  187.4530  177.0170  143.3340 C   0  0  0  0  0  2  0  0  0  0  0  0
  188.9310  177.2880  145.8710 C   0  0  0  0  0  2  0  0  0  0  0  0
  186.8380  178.3220  146.8740 C   0  0  0  0  0  0  0  0  0  0  0  0
  186.8120  177.6390  144.5340 C   0  0  0  0  0  0  0  0  0  0  0  0
  188.9970  178.2410  148.1660 C   0  0  1  0  0  3  0  0  0  0  0  0
  187.4900  177.7270  145.7680 C   0  0  0  0  0  0  0  0  0  0  0  0
  184.8590  178.6800  145.5230 C   0  0  0  0  0  3  0  0  0  0  0  0
  187.4800  178.3760  148.2340 C   0  0  0  0  0  2  0  0  0  0  0  0
  185.5250  178.7800  146.7450 C   0  0  0  0  0  3  0  0  0  0  0  0
  189.5020  178.0730  149.4410 F   0  0  0  0  0  0  0  0  0  0  0  0
  189.3630  177.0370  147.3110 C   0  0  0  0  0  2  0  0  0  0  0  0
  185.5000  178.1110  144.4230 C   0  0  0  0  0  3  0  0  0  0  0  0
  1 17  1  6  0  0  0
  2  4  1  0  0  0  0
  3  1  1  0  0  0  0
  3  4  1  0  0  0  0
  4  6  2  0  0  0  0
  5  2  1  0  0  0  0
  5  3  1  0  0  0  0
  7  8  1  6  0  0  0
  7  9  1  0  0  0  0
  7  1  1  0  0  0  0
 10 14  2  0  0  0  0
 10  9  1  0  0  0  0
 11 14  1  0  0  0  0
 12 10  1  0  0  0  0
 14 13  1  0  0  0  0
 15 11  1  0  0  0  0
 16 12  2  0  0  0  0
 16 11  1  0  0  0  0
 17 20  1  0  0  0  0
 18 27  1  0  0  0  0
 19 24  1  0  0  0  0
 20 22  1  0  0  0  0
 21 24  1  0  0  0  0
 21 26  1  1  0  0  0
 22 18  1  0  0  0  0
 22 19  2  0  0  0  0
 23 25  2  0  0  0  0
 25 19  1  0  0  0  0
 27 21  1  0  0  0  0
 28 20  2  0  0  0  0
 28 23  1  0  0  0  0
M  END
>  <MODEL>
5

>  <REMARK>
 VINA RESULT:      -9.0      3.101      4.793
  Name = 
  6 active torsions:
  status: ('A' for Active; 'I' for Inactive)
    1  A    between atoms: C_1  and  C_2
    2  A    between atoms: C_1  and  C_27
    3  A    between atoms: C_2  and  C_3
    4  A    between atoms: C_10  and  C_17
    5  A    between atoms: N_16  and  C_27
    6  A    between atoms: C_17  and  C_27
                            x       y       z     vdW  Elec       q    Type
                         _______ _______ _______ _____ _____    ______ ____

>  <TORSDO>
F 6

$$$$
=
 OpenBabel10272401483D

 28 31  0  0  1  0  0  0  0  0999 V2000
  189.0490  178.2240  142.3220 C   0  0  1  0  0  3  0  0  0  0  0  0
  191.9710  178.6720  144.1830 C   0  0  0  0  0  2  0  0  0  0  0  0
  190.2680  178.3900  143.1070 N   0  0  0  0  0  0  0  0  0  0  0  0
  191.3470  177.4960  143.5740 C   0  0  0  0  0  0  0  0  0  0  0  0
  190.9300  179.4730  143.7170 N   0  0  0  0  0  2  0  0  0  0  0  0
  191.6120  176.2690  143.4850 O   0  0  0  0  0  0  0  0  0  0  0  0
  189.3570  178.0090  140.8410 C   0  0  2  0  0  3  0  0  0  0  0  0
  188.2110  178.1820  140.0620 O   0  0  0  0  0  1  0  0  0  0  0  0
  189.9450  176.6270  140.5990 C   0  0  0  0  0  2  0  0  0  0  0  0
  191.1680  176.7210  139.7450 C   0  0  0  0  0  0  0  0  0  0  0  0
  192.6150  176.4750  138.1360 N   0  0  0  0  0  0  0  0  0  0  0  0
  192.3290  177.2850  140.1340 N   0  0  0  0  0  0  0  0  0  0  0  0
  190.3590  175.4530  137.6530 C   0  0  0  0  0  1  0  0  0  0  0  0
  191.3480  176.1980  138.4840 C   0  0  0  0  0  0  0  0  0  0  0  0
  193.2820  176.1290  136.8930 C   0  0  0  0  0  1  0  0  0  0  0  0
  193.1880  177.1250  139.1360 N   0  0  0  0  0  0  0  0  0  0  0  0
  188.2100  177.0740  142.8550 C   0  0  0  0  0  2  0  0  0  0  0  0
  188.6700  177.3040  145.7590 C   0  0  0  0  0  2  0  0  0  0  0  0
  186.2880  178.1600  145.9770 C   0  0  0  0  0  0  0  0  0  0  0  0
  187.1420  177.5950  143.7640 C   0  0  0  0  0  0  0  0  0  0  0  0
  187.8500  178.1430  147.9500 C   0  0  1  0  0  3  0  0  0  0  0  0
  187.3300  177.6610  145.1610 C   0  0  0  0  0  0  0  0  0  0  0  0
  184.8940  178.4670  144.0180 C   0  0  0  0  0  3  0  0  0  0  0  0
  186.4010  178.1840  147.4760 C   0  0  0  0  0  2  0  0  0  0  0  0
  185.0750  178.5450  145.4000 C   0  0  0  0  0  3  0  0  0  0  0  0
  187.8810  177.9420  149.3170 F   0  0  0  0  0  0  0  0  0  0  0  0
  188.5820  177.0080  147.2520 C   0  0  0  0  0  2  0  0  0  0  0  0
  185.9230  177.9930  143.2050 C   0  0  0  0  0  3  0  0  0  0  0  0
  1 17  1  1  0  0  0
  1  3  1  0  0  0  0
  3  4  1  0  0  0  0
  3  5  1  0  0  0  0
  4  2  1  0  0  0  0
  5  2  1  0  0  0  0
  6  4  2  0  0  0  0
  7  8  1  6  0  0  0
  7  1  1  0  0  0  0
  9  7  1  0  0  0  0
 10 12  1  0  0  0  0
 10  9  1  0  0  0  0
 11 14  1  0  0  0  0
 11 16  1  0  0  0  0
 13 14  1  0  0  0  0
 14 10  2  0  0  0  0
 15 11  1  0  0  0  0
 16 12  2  0  0  0  0
 17 20  1  0  0  0  0
 18 27  1  0  0  0  0
 19 24  1  0  0  0  0
 20 22  1  0  0  0  0
 21 26  1  1  0  0  0
 22 18  1  0  0  0  0
 22 19  2  0  0  0  0
 23 25  2  0  0  0  0
 24 21  1  0  0  0  0
 25 19  1  0  0  0  0
 27 21  1  0  0  0  0
 28 20  2  0  0  0  0
 28 23  1  0  0  0  0
M  END
>  <MODEL>
6

>  <REMARK>
 VINA RESULT:      -8.9      2.516      3.696
  Name = 
  6 active torsions:
  status: ('A' for Active; 'I' for Inactive)
    1  A    between atoms: C_1  and  C_2
    2  A    between atoms: C_1  and  C_27
    3  A    between atoms: C_2  and  C_3
    4  A    between atoms: C_10  and  C_17
    5  A    between atoms: N_16  and  C_27
    6  A    between atoms: C_17  and  C_27
                            x       y       z     vdW  Elec       q    Type
                         _______ _______ _______ _____ _____    ______ ____

>  <TORSDO>
F 6

$$$$
=
 OpenBabel10272401483D

 28 31  0  0  1  0  0  0  0  0999 V2000
  188.9490  178.2950  142.4820 C   0  0  1  0  0  3  0  0  0  0  0  0
  191.9740  178.6420  144.1950 C   0  0  0  0  0  2  0  0  0  0  0  0
  190.2120  178.4180  143.2030 N   0  0  0  0  0  0  0  0  0  0  0  0
  191.3450  177.5180  143.4990 C   0  0  0  0  0  0  0  0  0  0  0  0
  190.8820  179.4510  143.8880 N   0  0  0  0  0  2  0  0  0  0  0  0
  191.6390  176.3190  143.2580 O   0  0  0  0  0  0  0  0  0  0  0  0
  189.1690  178.1730  140.9750 C   0  0  2  0  0  3  0  0  0  0  0  0
  188.0750  178.6760  140.2680 O   0  0  0  0  0  1  0  0  0  0  0  0
  189.4280  176.7300  140.5750 C   0  0  0  0  0  2  0  0  0  0  0  0
  190.4900  176.6590  139.5260 C   0  0  0  0  0  0  0  0  0  0  0  0
  191.5700  176.3030  137.6680 N   0  0  0  0  0  0  0  0  0  0  0  0
  191.7970  176.9090  139.7450 N   0  0  0  0  0  0  0  0  0  0  0  0
  189.0920  175.8560  137.5170 C   0  0  0  0  0  1  0  0  0  0  0  0
  190.3440  176.2660  138.2140 C   0  0  0  0  0  0  0  0  0  0  0  0
  191.9350  175.9740  136.3020 C   0  0  0  0  0  1  0  0  0  0  0  0
  192.4280  176.6890  138.5990 N   0  0  0  0  0  0  0  0  0  0  0  0
  188.1440  177.1100  142.9920 C   0  0  0  0  0  2  0  0  0  0  0  0
  185.3840  178.1020  142.6890 C   0  0  0  0  0  2  0  0  0  0  0  0
  185.3120  178.4050  145.2110 C   0  0  0  0  0  0  0  0  0  0  0  0
  187.3360  177.5130  144.1860 C   0  0  0  0  0  0  0  0  0  0  0  0
  183.2580  178.7530  143.7990 C   0  0  1  0  0  3  0  0  0  0  0  0
  186.0340  178.0380  144.0510 C   0  0  0  0  0  0  0  0  0  0  0  0
  187.1990  177.7690  146.5930 C   0  0  0  0  0  3  0  0  0  0  0  0
  183.9520  179.0410  145.1260 C   0  0  0  0  0  2  0  0  0  0  0  0
  185.9060  178.2810  146.4690 C   0  0  0  0  0  3  0  0  0  0  0  0
  182.1260  179.5380  143.6930 F   0  0  0  0  0  0  0  0  0  0  0  0
  184.2040  179.0670  142.6510 C   0  0  0  0  0  2  0  0  0  0  0  0
  187.9100  177.3880  145.4550 C   0  0  0  0  0  3  0  0  0  0  0  0
  1 17  1  1  0  0  0
  1  3  1  0  0  0  0
  3  4  1  0  0  0  0
  3  5  1  0  0  0  0
  4  2  1  0  0  0  0
  5  2  1  0  0  0  0
  6  4  2  0  0  0  0
  7  8  1  6  0  0  0
  7  1  1  0  0  0  0
  9  7  1  0  0  0  0
 10 12  1  0  0  0  0
 10  9  1  0  0  0  0
 11 14  1  0  0  0  0
 11 16  1  0  0  0  0
 13 14  1  0  0  0  0
 14 10  2  0  0  0  0
 15 11  1  0  0  0  0
 16 12  2  0  0  0  0
 17 20  1  0  0  0  0
 18 22  1  0  0  0  0
 19 25  1  0  0  0  0
 20 28  2  0  0  0  0
 21 26  1  6  0  0  0
 21 24  1  0  0  0  0
 22 20  1  0  0  0  0
 22 19  2  0  0  0  0
 24 19  1  0  0  0  0
 25 23  2  0  0  0  0
 27 18  1  0  0  0  0
 27 21  1  0  0  0  0
 28 23  1  0  0  0  0
M  END
>  <MODEL>
7

>  <REMARK>
 VINA RESULT:      -8.6      1.787      2.448
  Name = 
  6 active torsions:
  status: ('A' for Active; 'I' for Inactive)
    1  A    between atoms: C_1  and  C_2
    2  A    between atoms: C_1  and  C_27
    3  A    between atoms: C_2  and  C_3
    4  A    between atoms: C_10  and  C_17
    5  A    between atoms: N_16  and  C_27
    6  A    between atoms: C_17  and  C_27
                            x       y       z     vdW  Elec       q    Type
                         _______ _______ _______ _____ _____    ______ ____

>  <TORSDO>
F 6

$$$$
=
 OpenBabel10272401483D

 28 31  0  0  1  0  0  0  0  0999 V2000
  187.1530  178.3090  142.5180 C   0  0  1  0  0  3  0  0  0  0  0  0
  189.6300  177.3860  140.2340 C   0  0  0  0  0  2  0  0  0  0  0  0
  188.1720  177.9220  141.5480 N   0  0  0  0  0  0  0  0  0  0  0  0
  188.3360  178.0540  140.0860 C   0  0  0  0  0  0  0  0  0  0  0  0
  189.4290  177.2880  141.6100 N   0  0  0  0  0  2  0  0  0  0  0  0
  187.6630  178.5310  139.1370 O   0  0  0  0  0  0  0  0  0  0  0  0
  185.8810  178.8060  141.8320 C   0  0  2  0  0  3  0  0  0  0  0  0
  185.5150  180.0660  142.3100 O   0  0  0  0  0  1  0  0  0  0  0  0
  184.7360  177.8240  142.0230 C   0  0  0  0  0  2  0  0  0  0  0  0
  183.4460  178.4290  141.5730 C   0  0  0  0  0  0  0  0  0  0  0  0
  181.4370  179.2680  141.5280 N   0  0  0  0  0  0  0  0  0  0  0  0
  183.0830  178.5800  140.2830 N   0  0  0  0  0  0  0  0  0  0  0  0
  182.3240  178.8520  143.8530 C   0  0  0  0  0  1  0  0  0  0  0  0
  182.4020  178.8550  142.3650 C   0  0  0  0  0  0  0  0  0  0  0  0
  180.1350  179.8060  141.8840 C   0  0  0  0  0  1  0  0  0  0  0  0
  181.8600  179.0950  140.2860 N   0  0  0  0  0  0  0  0  0  0  0  0
  186.8270  177.1560  143.4550 C   0  0  0  0  0  2  0  0  0  0  0  0
  189.2490  177.0210  145.1300 C   0  0  0  0  0  2  0  0  0  0  0  0
  187.8770  177.9930  147.0350 C   0  0  0  0  0  0  0  0  0  0  0  0
  186.8090  177.6350  144.8720 C   0  0  0  0  0  0  0  0  0  0  0  0
  190.3600  177.6510  147.2630 C   0  0  1  0  0  3  0  0  0  0  0  0
  187.9460  177.5280  145.7000 C   0  0  0  0  0  0  0  0  0  0  0  0
  185.5560  178.6100  146.7050 C   0  0  0  0  0  3  0  0  0  0  0  0
  189.0300  177.8360  147.9870 C   0  0  0  0  0  2  0  0  0  0  0  0
  186.6790  178.5170  147.5280 C   0  0  0  0  0  3  0  0  0  0  0  0
  191.3330  177.2920  148.1750 F   0  0  0  0  0  0  0  0  0  0  0  0
  190.2190  176.5600  146.2130 C   0  0  0  0  0  2  0  0  0  0  0  0
  185.6220  178.1700  145.3830 C   0  0  0  0  0  3  0  0  0  0  0  0
  1 17  1  6  0  0  0
  2  5  1  0  0  0  0
  3  5  1  0  0  0  0
  3  1  1  0  0  0  0
  4  2  1  0  0  0  0
  4  3  1  0  0  0  0
  6  4  2  0  0  0  0
  7  9  1  0  0  0  0
  7  8  1  1  0  0  0
  7  1  1  0  0  0  0
 10  9  1  0  0  0  0
 10 14  2  0  0  0  0
 11 15  1  0  0  0  0
 11 14  1  0  0  0  0
 12 16  2  0  0  0  0
 12 10  1  0  0  0  0
 14 13  1  0  0  0  0
 16 11  1  0  0  0  0
 17 20  1  0  0  0  0
 18 22  1  0  0  0  0
 18 27  1  0  0  0  0
 19 25  1  0  0  0  0
 19 24  1  0  0  0  0
 20 28  2  0  0  0  0
 20 22  1  0  0  0  0
 21 24  1  0  0  0  0
 21 26  1  1  0  0  0
 22 19  2  0  0  0  0
 23 25  2  0  0  0  0
 27 21  1  0  0  0  0
 28 23  1  0  0  0  0
M  END
>  <MODEL>
8

>  <REMARK>
 VINA RESULT:      -8.4      3.911      6.187
  Name = 
  6 active torsions:
  status: ('A' for Active; 'I' for Inactive)
    1  A    between atoms: C_1  and  C_2
    2  A    between atoms: C_1  and  C_27
    3  A    between atoms: C_2  and  C_3
    4  A    between atoms: C_10  and  C_17
    5  A    between atoms: N_16  and  C_27
    6  A    between atoms: C_17  and  C_27
                            x       y       z     vdW  Elec       q    Type
                         _______ _______ _______ _____ _____    ______ ____

>  <TORSDO>
F 6

$$$$
=
 OpenBabel10272401483D

 28 31  0  0  1  0  0  0  0  0999 V2000
  188.1790  177.4120  141.0970 C   0  0  1  0  0  3  0  0  0  0  0  0
  189.7820  177.9220  138.0350 C   0  0  0  0  0  2  0  0  0  0  0  0
  188.8670  177.6130  139.8250 N   0  0  0  0  0  0  0  0  0  0  0  0
  189.8680  176.8620  139.0410 C   0  0  0  0  0  0  0  0  0  0  0  0
  188.8370  178.5910  138.8110 N   0  0  0  0  0  2  0  0  0  0  0  0
  190.5080  175.7880  139.1780 O   0  0  0  0  0  0  0  0  0  0  0  0
  189.0510  176.6490  142.0940 C   0  0  2  0  0  3  0  0  0  0  0  0
  188.2660  175.8840  142.9600 O   0  0  0  0  0  1  0  0  0  0  0  0
  189.9320  177.5980  142.8910 C   0  0  0  0  0  2  0  0  0  0  0  0
  190.6740  176.8560  143.9540 C   0  0  0  0  0  0  0  0  0  0  0  0
  191.4940  176.2120  145.8660 N   0  0  0  0  0  0  0  0  0  0  0  0
  191.5890  175.8940  143.7160 N   0  0  0  0  0  0  0  0  0  0  0  0
  189.7780  178.0520  146.0520 C   0  0  0  0  0  1  0  0  0  0  0  0
  190.6180  177.0670  145.3140 C   0  0  0  0  0  0  0  0  0  0  0  0
  191.7970  176.0520  147.2780 C   0  0  0  0  0  1  0  0  0  0  0  0
  192.0660  175.5180  144.8950 N   0  0  0  0  0  0  0  0  0  0  0  0
  187.7400  178.7390  141.6940 C   0  0  0  0  0  2  0  0  0  0  0  0
  186.6540  178.6080  144.4320 C   0  0  0  0  0  2  0  0  0  0  0  0
  184.3270  178.6100  143.4120 C   0  0  0  0  0  0  0  0  0  0  0  0
  186.2640  178.7310  141.9360 C   0  0  0  0  0  0  0  0  0  0  0  0
  184.6560  178.7560  145.9040 C   0  0  1  0  0  3  0  0  0  0  0  0
  185.7310  178.6150  143.2370 C   0  0  0  0  0  0  0  0  0  0  0  0
  184.0220  178.7840  141.0150 C   0  0  0  0  0  3  0  0  0  0  0  0
  183.7000  178.4130  144.7660 C   0  0  0  0  0  2  0  0  0  0  0  0
  183.4860  178.6800  142.2990 C   0  0  0  0  0  3  0  0  0  0  0  0
  184.1080  178.3470  147.1030 F   0  0  0  0  0  0  0  0  0  0  0  0
  185.9840  178.0500  145.6830 C   0  0  0  0  0  2  0  0  0  0  0  0
  185.4040  178.8080  140.8350 C   0  0  0  0  0  3  0  0  0  0  0  0
  1 17  1  1  0  0  0
  1  7  1  0  0  0  0
  2  5  1  0  0  0  0
  2  4  1  0  0  0  0
  3  1  1  0  0  0  0
  4  6  2  0  0  0  0
  4  3  1  0  0  0  0
  5  3  1  0  0  0  0
  7  9  1  0  0  0  0
  7  8  1  1  0  0  0
  9 10  1  0  0  0  0
 10 14  2  0  0  0  0
 11 15  1  0  0  0  0
 12 10  1  0  0  0  0
 12 16  2  0  0  0  0
 14 11  1  0  0  0  0
 14 13  1  0  0  0  0
 16 11  1  0  0  0  0
 17 20  1  0  0  0  0
 18 27  1  0  0  0  0
 19 24  1  0  0  0  0
 20 22  2  0  0  0  0
 21 26  1  1  0  0  0
 22 19  1  0  0  0  0
 22 18  1  0  0  0  0
 23 25  1  0  0  0  0
 24 21  1  0  0  0  0
 25 19  2  0  0  0  0
 27 21  1  0  0  0  0
 28 23  2  0  0  0  0
 28 20  1  0  0  0  0
M  END
>  <MODEL>
9

>  <REMARK>
 VINA RESULT:      -8.3      2.028      5.287
  Name = 
  6 active torsions:
  status: ('A' for Active; 'I' for Inactive)
    1  A    between atoms: C_1  and  C_2
    2  A    between atoms: C_1  and  C_27
    3  A    between atoms: C_2  and  C_3
    4  A    between atoms: C_10  and  C_17
    5  A    between atoms: N_16  and  C_27
    6  A    between atoms: C_17  and  C_27
                            x       y       z     vdW  Elec       q    Type
                         _______ _______ _______ _____ _____    ______ ____

>  <TORSDO>
F 6

$$$$
