=
 OpenBabel10272400413D

 25 28  0  0  1  0  0  0  0  0999 V2000
  186.6830  177.9350  145.0060 C   0  0  0  0  0  0  0  0  0  0  0  0
  187.9130  177.4700  144.5360 C   0  0  0  0  0  0  0  0  0  0  0  0
  187.4190  177.9010  147.3110 C   0  0  0  0  0  3  0  0  0  0  0  0
  185.4960  178.2690  144.3960 C   0  0  0  0  0  0  0  0  0  0  0  0
  182.9370  179.0600  143.7470 C   0  0  0  0  0  3  0  0  0  0  0  0
  188.6680  177.4270  146.8690 C   0  0  0  0  0  3  0  0  0  0  0  0
  184.6300  178.6570  145.3530 N   0  0  0  0  0  0  0  0  0  0  0  0
  183.3610  179.0550  145.0840 C   0  0  0  0  0  3  0  0  0  0  0  0
  190.2420  176.6540  145.0100 C   0  0  2  0  0  3  0  0  0  0  0  0
  191.4110  177.0640  145.8930 C   0  0  0  0  0  1  0  0  0  0  0  0
  188.1450  177.1610  143.0860 C   0  0  0  0  0  2  0  0  0  0  0  0
  183.8280  178.6580  142.7340 C   0  0  0  0  0  3  0  0  0  0  0  0
  186.4460  178.1500  146.3480 C   0  0  0  0  0  0  0  0  0  0  0  0
  185.1870  178.5920  146.5560 N   0  0  0  0  0  0  0  0  0  0  0  0
  190.5240  177.0550  143.6290 N   0  0  0  0  0  0  0  0  0  0  0  0
  185.1340  178.2530  143.0500 C   0  0  0  0  0  3  0  0  0  0  0  0
  189.6010  177.2750  142.7360 C   0  0  0  0  0  0  0  0  0  0  0  0
  188.9290  177.2270  145.4900 C   0  0  0  0  0  0  0  0  0  0  0  0
  189.9510  177.6170  141.4320 O   0  0  0  0  0  0  0  0  0  0  0  0
  189.1730  177.2340  140.3570 N   0  0  0  0  0  2  0  0  0  0  0  0
  188.6780  178.4330  139.6840 C   0  0  2  0  0  3  0  0  0  0  0  0
  187.2230  178.4640  139.6870 N   0  0  0  0  0  1  0  0  0  0  0  0
  189.2170  178.5410  138.2920 C   0  0  0  0  0  0  0  0  0  0  0  0
  188.9090  179.6540  137.5240 O   0  0  0  0  0  0  0  0  0  0  0  0
  189.9710  177.6480  137.8240 O   0  0  0  0  0  1  0  0  0  0  0  0
  1 13  1  0  0  0  0
  2  1  1  0  0  0  0
  2 18  2  0  0  0  0
  4  1  2  0  0  0  0
  4  7  1  0  0  0  0
  5  8  2  0  0  0  0
  6  3  2  0  0  0  0
  7 14  1  0  0  0  0
  8  7  1  0  0  0  0
  9 18  1  0  0  0  0
  9 10  1  1  0  0  0
 11  2  1  0  0  0  0
 12 16  2  0  0  0  0
 12  5  1  0  0  0  0
 13 14  2  0  0  0  0
 13  3  1  0  0  0  0
 15  9  1  0  0  0  0
 16  4  1  0  0  0  0
 17 11  1  0  0  0  0
 17 15  2  0  0  0  0
 18  6  1  0  0  0  0
 19 17  1  0  0  0  0
 20 19  1  0  0  0  0
 21 22  1  6  0  0  0
 21 20  1  0  0  0  0
 23 21  1  0  0  0  0
 24 23  2  0  0  0  0
 25 23  1  0  0  0  0
M  END
>  <MODEL>
1

>  <REMARK>
 VINA RESULT:     -10.1      0.000      0.000
  Name = 
  4 active torsions:
  status: ('A' for Active; 'I' for Inactive)
    1  A    between atoms: C_2  and  C_21
    2  A    between atoms: O_6  and  N_15
    3  A    between atoms: O_6  and  C_23
    4  A    between atoms: N_15  and  C_21
                            x       y       z     vdW  Elec       q    Type
                         _______ _______ _______ _____ _____    ______ ____

>  <TORSDO>
F 4

$$$$
=
 OpenBabel10272400413D

 25 28  0  0  1  0  0  0  0  0999 V2000
  186.9070  177.9150  145.6640 C   0  0  0  0  0  0  0  0  0  0  0  0
  188.1660  177.3370  145.5000 C   0  0  0  0  0  0  0  0  0  0  0  0
  187.2390  178.2430  148.0390 C   0  0  0  0  0  3  0  0  0  0  0  0
  185.8620  178.1830  144.8090 C   0  0  0  0  0  0  0  0  0  0  0  0
  183.5040  178.9410  143.6010 C   0  0  0  0  0  3  0  0  0  0  0  0
  188.5120  177.6590  147.9060 C   0  0  0  0  0  3  0  0  0  0  0  0
  184.8730  178.7550  145.5240 N   0  0  0  0  0  0  0  0  0  0  0  0
  183.6950  179.1460  144.9760 C   0  0  0  0  0  3  0  0  0  0  0  0
  190.3270  176.5330  146.5010 C   0  0  2  0  0  3  0  0  0  0  0  0
  191.3530  177.0450  147.5000 C   0  0  0  0  0  1  0  0  0  0  0  0
  188.6200  176.7820  144.1810 C   0  0  0  0  0  2  0  0  0  0  0  0
  184.5270  178.3450  142.8380 C   0  0  0  0  0  3  0  0  0  0  0  0
  186.4610  178.3600  146.8920 C   0  0  0  0  0  0  0  0  0  0  0  0
  185.2150  178.8730  146.8010 N   0  0  0  0  0  0  0  0  0  0  0  0
  190.8620  176.6870  145.1450 N   0  0  0  0  0  0  0  0  0  0  0  0
  185.7320  177.9550  143.4410 C   0  0  0  0  0  3  0  0  0  0  0  0
  190.1180  176.7860  144.0800 C   0  0  0  0  0  0  0  0  0  0  0  0
  188.9900  177.2220  146.6440 C   0  0  0  0  0  0  0  0  0  0  0  0
  190.7040  176.8930  142.8210 O   0  0  0  0  0  0  0  0  0  0  0  0
  190.2680  176.1240  141.7590 N   0  0  0  0  0  2  0  0  0  0  0  0
  190.5420  176.8410  140.5170 C   0  0  2  0  0  3  0  0  0  0  0  0
  191.7710  177.6120  140.6240 N   0  0  0  0  0  1  0  0  0  0  0  0
  189.3920  177.7140  140.1230 C   0  0  0  0  0  0  0  0  0  0  0  0
  189.4810  178.4890  138.9760 O   0  0  0  0  0  0  0  0  0  0  0  0
  188.3330  177.7270  140.8050 O   0  0  0  0  0  1  0  0  0  0  0  0
  1 13  1  0  0  0  0
  2  1  1  0  0  0  0
  2 18  2  0  0  0  0
  4  7  1  0  0  0  0
  4  1  2  0  0  0  0
  5  8  2  0  0  0  0
  6  3  2  0  0  0  0
  7 14  1  0  0  0  0
  8  7  1  0  0  0  0
  9 18  1  0  0  0  0
  9 10  1  1  0  0  0
 11  2  1  0  0  0  0
 12 16  2  0  0  0  0
 12  5  1  0  0  0  0
 13  3  1  0  0  0  0
 14 13  2  0  0  0  0
 15  9  1  0  0  0  0
 16  4  1  0  0  0  0
 17 11  1  0  0  0  0
 17 15  2  0  0  0  0
 18  6  1  0  0  0  0
 19 17  1  0  0  0  0
 20 19  1  0  0  0  0
 21 22  1  1  0  0  0
 21 20  1  0  0  0  0
 23 21  1  0  0  0  0
 23 25  1  0  0  0  0
 24 23  2  0  0  0  0
M  END
>  <MODEL>
2

>  <REMARK>
 VINA RESULT:     -10.0      1.447      1.725
  Name = 
  4 active torsions:
  status: ('A' for Active; 'I' for Inactive)
    1  A    between atoms: C_2  and  C_21
    2  A    between atoms: O_6  and  N_15
    3  A    between atoms: O_6  and  C_23
    4  A    between atoms: N_15  and  C_21
                            x       y       z     vdW  Elec       q    Type
                         _______ _______ _______ _____ _____    ______ ____

>  <TORSDO>
F 4

$$$$
=
 OpenBabel10272400413D

 25 28  0  0  1  0  0  0  0  0999 V2000
  189.2890  177.3940  144.6760 C   0  0  0  0  0  0  0  0  0  0  0  0
  189.0450  177.3620  143.3020 C   0  0  0  0  0  0  0  0  0  0  0  0
  191.5950  176.7140  144.4000 C   0  0  0  0  0  3  0  0  0  0  0  0
  188.5120  177.6830  145.7740 C   0  0  0  0  0  0  0  0  0  0  0  0
  187.4710  178.1430  148.2840 C   0  0  0  0  0  3  0  0  0  0  0  0
  191.3790  176.6680  143.0110 C   0  0  0  0  0  3  0  0  0  0  0  0
  189.2780  177.5470  146.8750 N   0  0  0  0  0  0  0  0  0  0  0  0
  188.8130  177.7620  148.1310 C   0  0  0  0  0  3  0  0  0  0  0  0
  189.8570  176.8940  140.9700 C   0  0  2  0  0  3  0  0  0  0  0  0
  191.0950  177.1930  140.1370 C   0  0  0  0  0  1  0  0  0  0  0  0
  187.6810  177.6190  142.7290 C   0  0  0  0  0  2  0  0  0  0  0  0
  186.6560  178.2910  147.1450 C   0  0  0  0  0  3  0  0  0  0  0  0
  190.5250  177.0870  145.2070 C   0  0  0  0  0  0  0  0  0  0  0  0
  190.5130  177.1820  146.5540 N   0  0  0  0  0  0  0  0  0  0  0  0
  188.7740  177.7890  140.5520 N   0  0  0  0  0  0  0  0  0  0  0  0
  187.1730  178.0590  145.8620 C   0  0  0  0  0  3  0  0  0  0  0  0
  187.7730  178.1210  141.3180 C   0  0  0  0  0  0  0  0  0  0  0  0
  190.1190  177.0060  142.4530 C   0  0  0  0  0  0  0  0  0  0  0  0
  186.7630  178.9490  140.8350 O   0  0  0  0  0  0  0  0  0  0  0  0
  185.8220  179.5010  141.6830 N   0  0  0  0  0  2  0  0  0  0  0  0
  184.4900  179.1260  141.2140 C   0  0  2  0  0  3  0  0  0  0  0  0
  184.1160  177.8120  141.7140 N   0  0  0  0  0  1  0  0  0  0  0  0
  184.4010  179.1800  139.7210 C   0  0  0  0  0  0  0  0  0  0  0  0
  184.2720  178.0010  139.0000 O   0  0  0  0  0  0  0  0  0  0  0  0
  184.4100  180.2840  139.1160 O   0  0  0  0  0  1  0  0  0  0  0  0
  1 13  1  0  0  0  0
  1  4  2  0  0  0  0
  2  1  1  0  0  0  0
  3 13  1  0  0  0  0
  4 16  1  0  0  0  0
  4  7  1  0  0  0  0
  6  3  2  0  0  0  0
  7  8  1  0  0  0  0
  8  5  2  0  0  0  0
  9 10  1  6  0  0  0
  9 18  1  0  0  0  0
 11  2  1  0  0  0  0
 12  5  1  0  0  0  0
 13 14  2  0  0  0  0
 14  7  1  0  0  0  0
 15  9  1  0  0  0  0
 15 17  2  0  0  0  0
 16 12  2  0  0  0  0
 17 11  1  0  0  0  0
 18  6  1  0  0  0  0
 18  2  2  0  0  0  0
 19 17  1  0  0  0  0
 19 20  1  0  0  0  0
 21 20  1  0  0  0  0
 21 22  1  6  0  0  0
 23 21  1  0  0  0  0
 24 23  2  0  0  0  0
 25 23  1  0  0  0  0
M  END
>  <MODEL>
3

>  <REMARK>
 VINA RESULT:      -9.3      2.468      4.495
  Name = 
  4 active torsions:
  status: ('A' for Active; 'I' for Inactive)
    1  A    between atoms: C_2  and  C_21
    2  A    between atoms: O_6  and  N_15
    3  A    between atoms: O_6  and  C_23
    4  A    between atoms: N_15  and  C_21
                            x       y       z     vdW  Elec       q    Type
                         _______ _______ _______ _____ _____    ______ ____

>  <TORSDO>
F 4

$$$$
=
 OpenBabel10272400413D

 25 28  0  0  1  0  0  0  0  0999 V2000
  185.7710  178.3120  144.5320 C   0  0  0  0  0  0  0  0  0  0  0  0
  186.9600  178.0020  145.1950 C   0  0  0  0  0  0  0  0  0  0  0  0
  184.5200  178.4480  146.5990 C   0  0  0  0  0  3  0  0  0  0  0  0
  185.4310  178.4660  143.2080 C   0  0  0  0  0  0  0  0  0  0  0  0
  184.1930  178.8870  140.7820 C   0  0  0  0  0  3  0  0  0  0  0  0
  185.7000  178.1310  147.2950 C   0  0  0  0  0  3  0  0  0  0  0  0
  184.1180  178.7640  143.1460 N   0  0  0  0  0  0  0  0  0  0  0  0
  183.4640  178.9800  141.9770 C   0  0  0  0  0  3  0  0  0  0  0  0
  188.1820  177.5200  147.3380 C   0  0  2  0  0  3  0  0  0  0  0  0
  188.2560  178.1100  148.7380 C   0  0  0  0  0  1  0  0  0  0  0  0
  188.2250  177.6830  144.4510 C   0  0  0  0  0  2  0  0  0  0  0  0
  185.5660  178.5770  140.8280 C   0  0  0  0  0  3  0  0  0  0  0  0
  184.5920  178.5350  145.2120 C   0  0  0  0  0  0  0  0  0  0  0  0
  183.5820  178.8100  144.3590 N   0  0  0  0  0  0  0  0  0  0  0  0
  189.3810  177.9130  146.5910 N   0  0  0  0  0  0  0  0  0  0  0  0
  186.2090  178.3600  142.0560 C   0  0  0  0  0  3  0  0  0  0  0  0
  189.4340  177.9800  145.2910 C   0  0  0  0  0  0  0  0  0  0  0  0
  186.9240  177.9260  146.6070 C   0  0  0  0  0  0  0  0  0  0  0  0
  190.6230  178.3260  144.6520 O   0  0  0  0  0  0  0  0  0  0  0  0
  190.7180  178.3420  143.2740 N   0  0  0  0  0  2  0  0  0  0  0  0
  191.7120  177.3550  142.8610 C   0  0  2  0  0  3  0  0  0  0  0  0
  191.9560  177.4350  141.4290 N   0  0  0  0  0  1  0  0  0  0  0  0
  191.3090  175.9710  143.2620 C   0  0  0  0  0  0  0  0  0  0  0  0
  190.1890  175.3890  142.6850 O   0  0  0  0  0  0  0  0  0  0  0  0
  191.9930  175.3180  144.0940 O   0  0  0  0  0  1  0  0  0  0  0  0
  1  2  1  0  0  0  0
  1 13  1  0  0  0  0
  2 18  2  0  0  0  0
  3  6  2  0  0  0  0
  4  1  2  0  0  0  0
  5 12  1  0  0  0  0
  5  8  2  0  0  0  0
  7  4  1  0  0  0  0
  7 14  1  0  0  0  0
  8  7  1  0  0  0  0
  9 10  1  1  0  0  0
 11  2  1  0  0  0  0
 11 17  1  0  0  0  0
 12 16  2  0  0  0  0
 13  3  1  0  0  0  0
 14 13  2  0  0  0  0
 15  9  1  0  0  0  0
 16  4  1  0  0  0  0
 17 15  2  0  0  0  0
 18  6  1  0  0  0  0
 18  9  1  0  0  0  0
 19 17  1  0  0  0  0
 20 19  1  0  0  0  0
 21 22  1  6  0  0  0
 21 23  1  0  0  0  0
 21 20  1  0  0  0  0
 23 25  1  0  0  0  0
 24 23  2  0  0  0  0
M  END
>  <MODEL>
4

>  <REMARK>
 VINA RESULT:      -9.1      2.667      3.611
  Name = 
  4 active torsions:
  status: ('A' for Active; 'I' for Inactive)
    1  A    between atoms: C_2  and  C_21
    2  A    between atoms: O_6  and  N_15
    3  A    between atoms: O_6  and  C_23
    4  A    between atoms: N_15  and  C_21
                            x       y       z     vdW  Elec       q    Type
                         _______ _______ _______ _____ _____    ______ ____

>  <TORSDO>
F 4

$$$$
=
 OpenBabel10272400413D

 25 28  0  0  1  0  0  0  0  0999 V2000
  187.3190  178.0250  142.1990 C   0  0  0  0  0  0  0  0  0  0  0  0
  186.9750  177.7760  143.5290 C   0  0  0  0  0  0  0  0  0  0  0  0
  185.1880  179.0650  141.7190 C   0  0  0  0  0  3  0  0  0  0  0  0
  188.4370  177.7640  141.4400 C   0  0  0  0  0  0  0  0  0  0  0  0
  190.3540  177.5130  139.4760 C   0  0  0  0  0  3  0  0  0  0  0  0
  184.8090  178.8240  143.0520 C   0  0  0  0  0  3  0  0  0  0  0  0
  188.2140  178.2280  140.1950 N   0  0  0  0  0  0  0  0  0  0  0  0
  189.1260  178.1290  139.1950 C   0  0  0  0  0  3  0  0  0  0  0  0
  185.2770  177.8750  145.3790 C   0  0  2  0  0  3  0  0  0  0  0  0
  184.2960  178.8930  145.9410 C   0  0  0  0  0  1  0  0  0  0  0  0
  187.8810  177.0220  144.4580 C   0  0  0  0  0  2  0  0  0  0  0  0
  190.6050  177.0220  140.7720 C   0  0  0  0  0  3  0  0  0  0  0  0
  186.4570  178.6550  141.3250 C   0  0  0  0  0  0  0  0  0  0  0  0
  187.0100  178.7770  140.0990 N   0  0  0  0  0  0  0  0  0  0  0  0
  186.4360  177.7880  146.2720 N   0  0  0  0  0  0  0  0  0  0  0  0
  189.6380  177.1430  141.7810 C   0  0  0  0  0  3  0  0  0  0  0  0
  187.6170  177.3920  145.8890 C   0  0  0  0  0  0  0  0  0  0  0  0
  185.6970  178.2000  143.9650 C   0  0  0  0  0  0  0  0  0  0  0  0
  188.6610  177.3010  146.8060 O   0  0  0  0  0  0  0  0  0  0  0  0
  189.8970  177.8590  146.5440 N   0  0  0  0  0  2  0  0  0  0  0  0
  190.8630  176.7830  146.3370 C   0  0  2  0  0  3  0  0  0  0  0  0
  191.8530  176.7640  147.4030 N   0  0  0  0  0  1  0  0  0  0  0  0
  191.5190  176.8880  144.9950 C   0  0  0  0  0  0  0  0  0  0  0  0
  191.8420  175.7320  144.2990 O   0  0  0  0  0  0  0  0  0  0  0  0
  191.7510  178.0140  144.4800 O   0  0  0  0  0  1  0  0  0  0  0  0
  1  2  1  0  0  0  0
  2 18  2  0  0  0  0
  2 11  1  0  0  0  0
  3  6  2  0  0  0  0
  4 16  1  0  0  0  0
  4  1  2  0  0  0  0
  5 12  1  0  0  0  0
  6 18  1  0  0  0  0
  7  4  1  0  0  0  0
  8  5  2  0  0  0  0
  8  7  1  0  0  0  0
  9 10  1  1  0  0  0
  9 15  1  0  0  0  0
 11 17  1  0  0  0  0
 12 16  2  0  0  0  0
 13  3  1  0  0  0  0
 13  1  1  0  0  0  0
 14  7  1  0  0  0  0
 14 13  2  0  0  0  0
 17 15  2  0  0  0  0
 17 19  1  0  0  0  0
 18  9  1  0  0  0  0
 20 19  1  0  0  0  0
 21 20  1  0  0  0  0
 21 22  1  1  0  0  0
 23 21  1  0  0  0  0
 24 23  2  0  0  0  0
 25 23  1  0  0  0  0
M  END
>  <MODEL>
5

>  <REMARK>
 VINA RESULT:      -9.1      2.554      6.122
  Name = 
  4 active torsions:
  status: ('A' for Active; 'I' for Inactive)
    1  A    between atoms: C_2  and  C_21
    2  A    between atoms: O_6  and  N_15
    3  A    between atoms: O_6  and  C_23
    4  A    between atoms: N_15  and  C_21
                            x       y       z     vdW  Elec       q    Type
                         _______ _______ _______ _____ _____    ______ ____

>  <TORSDO>
F 4

$$$$
=
 OpenBabel10272400413D

 25 28  0  0  1  0  0  0  0  0999 V2000
  189.3470  177.3750  144.7220 C   0  0  0  0  0  0  0  0  0  0  0  0
  189.0090  177.3830  143.3680 C   0  0  0  0  0  0  0  0  0  0  0  0
  191.6250  176.6940  144.2690 C   0  0  0  0  0  3  0  0  0  0  0  0
  188.6500  177.6360  145.8790 C   0  0  0  0  0  0  0  0  0  0  0  0
  187.7880  178.0280  148.4670 C   0  0  0  0  0  3  0  0  0  0  0  0
  191.3140  176.6880  142.8970 C   0  0  0  0  0  3  0  0  0  0  0  0
  189.4890  177.4650  146.9200 N   0  0  0  0  0  0  0  0  0  0  0  0
  189.1130  177.6470  148.2110 C   0  0  0  0  0  3  0  0  0  0  0  0
  189.6560  176.9790  140.9730 C   0  0  2  0  0  3  0  0  0  0  0  0
  190.8350  177.2960  140.0660 C   0  0  0  0  0  1  0  0  0  0  0  0
  187.6110  177.6610  142.8990 C   0  0  0  0  0  2  0  0  0  0  0  0
  186.8960  178.2110  147.3920 C   0  0  0  0  0  3  0  0  0  0  0  0
  190.6150  177.0480  145.1580 C   0  0  0  0  0  0  0  0  0  0  0  0
  190.6970  177.1050  146.5050 N   0  0  0  0  0  0  0  0  0  0  0  0
  188.5520  177.8900  140.6570 N   0  0  0  0  0  0  0  0  0  0  0  0
  187.3220  178.0140  146.0700 C   0  0  0  0  0  3  0  0  0  0  0  0
  187.6090  178.2030  141.4990 C   0  0  0  0  0  0  0  0  0  0  0  0
  190.0210  177.0470  142.4370 C   0  0  0  0  0  0  0  0  0  0  0  0
  186.5720  179.0490  141.1100 O   0  0  0  0  0  0  0  0  0  0  0  0
  185.6450  179.5130  142.0240 N   0  0  0  0  0  2  0  0  0  0  0  0
  184.4800  178.6320  141.9980 C   0  0  2  0  0  3  0  0  0  0  0  0
  183.6540  178.9000  140.8310 N   0  0  0  0  0  1  0  0  0  0  0  0
  183.6820  178.7440  143.2600 C   0  0  0  0  0  0  0  0  0  0  0  0
  184.2700  178.4170  144.4730 O   0  0  0  0  0  1  0  0  0  0  0  0
  182.4940  179.1610  143.2330 O   0  0  0  0  0  0  0  0  0  0  0  0
  1 13  1  0  0  0  0
  1  4  2  0  0  0  0
  2  1  1  0  0  0  0
  3 13  1  0  0  0  0
  4 16  1  0  0  0  0
  4  7  1  0  0  0  0
  6  3  2  0  0  0  0
  7  8  1  0  0  0  0
  8  5  2  0  0  0  0
  9 10  1  6  0  0  0
  9 18  1  0  0  0  0
 11  2  1  0  0  0  0
 12  5  1  0  0  0  0
 13 14  2  0  0  0  0
 14  7  1  0  0  0  0
 15  9  1  0  0  0  0
 15 17  2  0  0  0  0
 16 12  2  0  0  0  0
 17 11  1  0  0  0  0
 18  6  1  0  0  0  0
 18  2  2  0  0  0  0
 19 17  1  0  0  0  0
 19 20  1  0  0  0  0
 21 22  1  6  0  0  0
 21 20  1  0  0  0  0
 21 23  1  0  0  0  0
 23 24  1  0  0  0  0
 25 23  2  0  0  0  0
M  END
>  <MODEL>
6

>  <REMARK>
 VINA RESULT:      -9.0      2.755      5.133
  Name = 
  4 active torsions:
  status: ('A' for Active; 'I' for Inactive)
    1  A    between atoms: C_2  and  C_21
    2  A    between atoms: O_6  and  N_15
    3  A    between atoms: O_6  and  C_23
    4  A    between atoms: N_15  and  C_21
                            x       y       z     vdW  Elec       q    Type
                         _______ _______ _______ _____ _____    ______ ____

>  <TORSDO>
F 4

$$$$
=
 OpenBabel10272400413D

 25 28  0  0  1  0  0  0  0  0999 V2000
  188.1330  177.6740  144.7190 C   0  0  0  0  0  0  0  0  0  0  0  0
  187.7750  178.0300  143.4170 C   0  0  0  0  0  0  0  0  0  0  0  0
  185.8850  178.0080  145.5510 C   0  0  0  0  0  3  0  0  0  0  0  0
  189.3150  177.2950  145.3120 C   0  0  0  0  0  0  0  0  0  0  0  0
  191.3400  176.5010  147.0050 C   0  0  0  0  0  3  0  0  0  0  0  0
  185.4950  178.3770  144.2510 C   0  0  0  0  0  3  0  0  0  0  0  0
  189.0740  177.0720  146.6190 N   0  0  0  0  0  0  0  0  0  0  0  0
  190.0360  176.6800  147.4920 C   0  0  0  0  0  3  0  0  0  0  0  0
  186.0320  178.8310  141.7940 C   0  0  2  0  0  3  0  0  0  0  0  0
  184.5820  178.5130  141.4660 C   0  0  0  0  0  1  0  0  0  0  0  0
  188.7870  178.1250  142.3120 C   0  0  0  0  0  2  0  0  0  0  0  0
  191.6100  176.7290  145.6420 C   0  0  0  0  0  3  0  0  0  0  0  0
  187.2170  177.6560  145.7500 C   0  0  0  0  0  0  0  0  0  0  0  0
  187.7980  177.2880  146.9120 N   0  0  0  0  0  0  0  0  0  0  0  0
  186.8950  178.2320  140.7720 N   0  0  0  0  0  0  0  0  0  0  0  0
  190.5890  177.1330  144.7690 C   0  0  0  0  0  3  0  0  0  0  0  0
  188.1440  177.9180  140.9710 C   0  0  0  0  0  0  0  0  0  0  0  0
  186.4240  178.3730  143.1790 C   0  0  0  0  0  0  0  0  0  0  0  0
  188.9090  177.3850  139.9370 O   0  0  0  0  0  0  0  0  0  0  0  0
  189.9700  178.0860  139.3960 N   0  0  0  0  0  2  0  0  0  0  0  0
  191.0600  177.1520  139.1250 C   0  0  2  0  0  3  0  0  0  0  0  0
  190.5730  175.7800  139.1060 N   0  0  0  0  0  1  0  0  0  0  0  0
  192.1770  177.3130  140.1080 C   0  0  0  0  0  0  0  0  0  0  0  0
  193.4890  177.3320  139.6570 O   0  0  0  0  0  0  0  0  0  0  0  0
  191.9360  177.4630  141.3350 O   0  0  0  0  0  1  0  0  0  0  0  0
  1  4  2  0  0  0  0
  1 13  1  0  0  0  0
  2  1  1  0  0  0  0
  3 13  1  0  0  0  0
  4  7  1  0  0  0  0
  5  8  2  0  0  0  0
  6  3  2  0  0  0  0
  7 14  1  0  0  0  0
  7  8  1  0  0  0  0
  9 10  1  6  0  0  0
  9 18  1  0  0  0  0
 11  2  1  0  0  0  0
 12  5  1  0  0  0  0
 13 14  2  0  0  0  0
 15 17  2  0  0  0  0
 15  9  1  0  0  0  0
 16  4  1  0  0  0  0
 16 12  2  0  0  0  0
 17 11  1  0  0  0  0
 18  2  2  0  0  0  0
 18  6  1  0  0  0  0
 19 17  1  0  0  0  0
 20 19  1  0  0  0  0
 21 22  1  1  0  0  0
 21 20  1  0  0  0  0
 21 23  1  0  0  0  0
 23 25  1  0  0  0  0
 24 23  2  0  0  0  0
M  END
>  <MODEL>
7

>  <REMARK>
 VINA RESULT:      -8.9      1.933      4.753
  Name = 
  4 active torsions:
  status: ('A' for Active; 'I' for Inactive)
    1  A    between atoms: C_2  and  C_21
    2  A    between atoms: O_6  and  N_15
    3  A    between atoms: O_6  and  C_23
    4  A    between atoms: N_15  and  C_21
                            x       y       z     vdW  Elec       q    Type
                         _______ _______ _______ _____ _____    ______ ____

>  <TORSDO>
F 4

$$$$
=
 OpenBabel10272400413D

 25 28  0  0  1  0  0  0  0  0999 V2000
  187.7760  177.8120  145.5490 C   0  0  0  0  0  0  0  0  0  0  0  0
  186.9910  178.2780  144.4930 C   0  0  0  0  0  0  0  0  0  0  0  0
  185.9540  177.9850  147.1320 C   0  0  0  0  0  3  0  0  0  0  0  0
  189.0900  177.4190  145.6570 C   0  0  0  0  0  0  0  0  0  0  0  0
  191.5750  176.5390  146.4610 C   0  0  0  0  0  3  0  0  0  0  0  0
  185.1390  178.4630  146.0900 C   0  0  0  0  0  3  0  0  0  0  0  0
  189.3160  177.0640  146.9380 N   0  0  0  0  0  0  0  0  0  0  0  0
  190.5200  176.6240  147.3820 C   0  0  0  0  0  3  0  0  0  0  0  0
  184.7950  179.1700  143.6580 C   0  0  2  0  0  3  0  0  0  0  0  0
  183.3200  178.8330  143.8180 C   0  0  0  0  0  1  0  0  0  0  0  0
  187.5590  178.5140  143.1230 C   0  0  0  0  0  2  0  0  0  0  0  0
  191.3580  176.9060  145.1190 C   0  0  0  0  0  3  0  0  0  0  0  0
  187.2730  177.6630  146.8250 C   0  0  0  0  0  0  0  0  0  0  0  0
  188.2190  177.2050  147.6720 N   0  0  0  0  0  0  0  0  0  0  0  0
  185.2510  178.7020  142.3460 N   0  0  0  0  0  0  0  0  0  0  0  0
  190.0980  177.3560  144.6970 C   0  0  0  0  0  3  0  0  0  0  0  0
  186.4920  178.4150  142.0720 C   0  0  0  0  0  0  0  0  0  0  0  0
  185.6400  178.5950  144.7700 C   0  0  0  0  0  0  0  0  0  0  0  0
  186.8540  178.0110  140.7890 O   0  0  0  0  0  0  0  0  0  0  0  0
  187.8260  178.6820  140.0730 N   0  0  0  0  0  2  0  0  0  0  0  0
  188.6930  177.7010  139.4250 C   0  0  2  0  0  3  0  0  0  0  0  0
  189.7250  177.2370  140.3400 N   0  0  0  0  0  1  0  0  0  0  0  0
  189.2940  178.2480  138.1680 C   0  0  0  0  0  0  0  0  0  0  0  0
  188.9810  179.5380  137.7640 O   0  0  0  0  0  1  0  0  0  0  0  0
  190.1040  177.5600  137.4920 O   0  0  0  0  0  0  0  0  0  0  0  0
  1  4  2  0  0  0  0
  1 13  1  0  0  0  0
  2 18  2  0  0  0  0
  2  1  1  0  0  0  0
  4  7  1  0  0  0  0
  5  8  2  0  0  0  0
  6  3  2  0  0  0  0
  7  8  1  0  0  0  0
  7 14  1  0  0  0  0
  9 10  1  1  0  0  0
  9 18  1  0  0  0  0
 11  2  1  0  0  0  0
 12  5  1  0  0  0  0
 13  3  1  0  0  0  0
 13 14  2  0  0  0  0
 15  9  1  0  0  0  0
 16 12  2  0  0  0  0
 16  4  1  0  0  0  0
 17 15  2  0  0  0  0
 17 11  1  0  0  0  0
 18  6  1  0  0  0  0
 19 17  1  0  0  0  0
 20 19  1  0  0  0  0
 21 20  1  0  0  0  0
 21 22  1  1  0  0  0
 23 21  1  0  0  0  0
 24 23  1  0  0  0  0
 25 23  2  0  0  0  0
M  END
>  <MODEL>
8

>  <REMARK>
 VINA RESULT:      -8.8      1.585      4.527
  Name = 
  4 active torsions:
  status: ('A' for Active; 'I' for Inactive)
    1  A    between atoms: C_2  and  C_21
    2  A    between atoms: O_6  and  N_15
    3  A    between atoms: O_6  and  C_23
    4  A    between atoms: N_15  and  C_21
                            x       y       z     vdW  Elec       q    Type
                         _______ _______ _______ _____ _____    ______ ____

>  <TORSDO>
F 4

$$$$
=
 OpenBabel10272400413D

 25 28  0  0  1  0  0  0  0  0999 V2000
  187.9620  177.7790  145.0890 C   0  0  0  0  0  0  0  0  0  0  0  0
  187.3830  178.2250  143.8990 C   0  0  0  0  0  0  0  0  0  0  0  0
  185.8790  177.9650  146.3070 C   0  0  0  0  0  3  0  0  0  0  0  0
  189.2340  177.3960  145.4440 C   0  0  0  0  0  0  0  0  0  0  0  0
  191.5310  176.5410  146.7060 C   0  0  0  0  0  3  0  0  0  0  0  0
  185.2680  178.4220  145.1250 C   0  0  0  0  0  3  0  0  0  0  0  0
  189.2210  177.0600  146.7490 N   0  0  0  0  0  0  0  0  0  0  0  0
  190.3240  176.6340  147.4150 C   0  0  0  0  0  3  0  0  0  0  0  0
  185.3760  179.0910  142.6600 C   0  0  2  0  0  3  0  0  0  0  0  0
  183.8980  178.7480  142.5500 C   0  0  0  0  0  1  0  0  0  0  0  0
  188.1930  178.4440  142.6540 C   0  0  0  0  0  2  0  0  0  0  0  0
  191.5640  176.8870  145.3410 C   0  0  0  0  0  3  0  0  0  0  0  0
  187.2320  177.6460  146.2520 C   0  0  0  0  0  0  0  0  0  0  0  0
  188.0070  177.2070  147.2670 N   0  0  0  0  0  0  0  0  0  0  0  0
  186.0680  178.6070  141.4620 N   0  0  0  0  0  0  0  0  0  0  0  0
  190.4020  177.3230  144.6860 C   0  0  0  0  0  3  0  0  0  0  0  0
  187.3390  178.3220  141.4260 C   0  0  0  0  0  0  0  0  0  0  0  0
  186.0040  178.5380  143.9170 C   0  0  0  0  0  0  0  0  0  0  0  0
  187.9320  177.9020  140.2380 O   0  0  0  0  0  0  0  0  0  0  0  0
  188.6190  178.7850  139.4280 N   0  0  0  0  0  2  0  0  0  0  0  0
  188.4910  178.3460  138.0400 C   0  0  2  0  0  3  0  0  0  0  0  0
  188.9730  179.3710  137.1270 N   0  0  0  0  0  1  0  0  0  0  0  0
  187.0820  177.9580  137.7180 C   0  0  0  0  0  0  0  0  0  0  0  0
  186.7990  176.6500  137.3490 O   0  0  0  0  0  0  0  0  0  0  0  0
  186.1470  178.7970  137.8080 O   0  0  0  0  0  1  0  0  0  0  0  0
  1  4  2  0  0  0  0
  1 13  1  0  0  0  0
  2 18  2  0  0  0  0
  2  1  1  0  0  0  0
  4  7  1  0  0  0  0
  5  8  2  0  0  0  0
  6  3  2  0  0  0  0
  7 14  1  0  0  0  0
  7  8  1  0  0  0  0
  9 10  1  6  0  0  0
  9 18  1  0  0  0  0
 11  2  1  0  0  0  0
 12  5  1  0  0  0  0
 13  3  1  0  0  0  0
 13 14  2  0  0  0  0
 15  9  1  0  0  0  0
 16 12  2  0  0  0  0
 16  4  1  0  0  0  0
 17 15  2  0  0  0  0
 17 11  1  0  0  0  0
 18  6  1  0  0  0  0
 19 17  1  0  0  0  0
 20 19  1  0  0  0  0
 21 22  1  6  0  0  0
 21 20  1  0  0  0  0
 23 25  1  0  0  0  0
 23 21  1  0  0  0  0
 24 23  2  0  0  0  0
M  END
>  <MODEL>
9

>  <REMARK>
 VINA RESULT:      -8.8      1.923      4.632
  Name = 
  4 active torsions:
  status: ('A' for Active; 'I' for Inactive)
    1  A    between atoms: C_2  and  C_21
    2  A    between atoms: O_6  and  N_15
    3  A    between atoms: O_6  and  C_23
    4  A    between atoms: N_15  and  C_21
                            x       y       z     vdW  Elec       q    Type
                         _______ _______ _______ _____ _____    ______ ____

>  <TORSDO>
F 4

$$$$
