=
 OpenBabel10272413513D

 30 33  0  0  1  0  0  0  0  0999 V2000
  186.1540  177.8270  142.5900 C   0  0  0  0  0  3  0  0  0  0  0  0
  183.8510  178.4500  142.1040 C   0  0  0  0  0  0  0  0  0  0  0  0
  185.5400  178.5330  146.6990 C   0  0  0  0  0  3  0  0  0  0  0  0
  187.2040  177.6270  143.4870 C   0  0  0  0  0  0  0  0  0  0  0  0
  186.5840  178.3370  147.6050 C   0  0  0  0  0  3  0  0  0  0  0  0
  182.5980  178.8760  142.5510 C   0  0  0  0  0  3  0  0  0  0  0  0
  184.0470  178.2150  140.7120 N   0  0  0  0  0  1  0  0  0  0  0  0
  185.7290  178.3020  145.3250 C   0  0  0  0  0  0  0  0  0  0  0  0
  182.3770  179.1150  143.9070 C   0  0  0  0  0  3  0  0  0  0  0  0
  184.8980  178.2570  143.0260 C   0  0  0  0  0  0  0  0  0  0  0  0
  187.0000  177.8650  144.8640 C   0  0  0  0  0  0  0  0  0  0  0  0
  187.8310  177.9080  147.1520 C   0  0  0  0  0  3  0  0  0  0  0  0
  188.0360  177.6740  145.7920 C   0  0  0  0  0  3  0  0  0  0  0  0
  183.4090  178.9280  144.8280 C   0  0  0  0  0  3  0  0  0  0  0  0
  184.6780  178.4980  144.4040 C   0  0  0  0  0  0  0  0  0  0  0  0
  188.5200  177.1670  142.9130 C   0  0  1  0  0  3  0  0  0  0  0  0
  190.3370  178.6910  142.5360 O   0  0  0  0  0  1  0  0  0  0  0  0
  189.1420  178.2180  141.9890 C   0  0  1  0  0  3  0  0  0  0  0  0
  190.5480  177.0240  140.2970 N   0  0  0  0  0  0  0  0  0  0  0  0
  188.3870  177.7930  139.3020 S   0  0  0  0  0  0  0  0  0  0  0  0
  189.4040  177.6530  140.6290 C   0  0  0  0  0  0  0  0  0  0  0  0
  190.5700  176.6580  138.9870 C   0  0  0  0  0  3  0  0  0  0  0  0
  189.4380  177.0030  138.2480 C   0  0  0  0  0  3  0  0  0  0  0  0
  189.4080  176.8220  143.9380 O   0  0  0  0  0  0  0  0  0  0  0  0
  190.1910  175.7920  143.4090 C   0  0  0  0  0  2  0  0  0  0  0  0
  191.5600  175.7880  144.0670 C   0  0  0  0  0  2  0  0  0  0  0  0
  191.6210  176.8460  145.1550 C   0  0  0  0  0  2  0  0  0  0  0  0
  191.8070  176.9360  147.6360 O   0  0  0  0  0  1  0  0  0  0  0  0
  191.9540  176.2150  146.4590 C   0  0  0  0  0  0  0  0  0  0  0  0
  192.3350  175.0170  146.4990 O   0  0  0  0  0  0  0  0  0  0  0  0
  1 10  2  0  0  0  0
  1  4  1  0  0  0  0
  2  6  2  0  0  0  0
  2 10  1  0  0  0  0
  3  5  2  0  0  0  0
  4 11  2  0  0  0  0
  6  9  1  0  0  0  0
  7  2  1  0  0  0  0
  8  3  1  0  0  0  0
  9 14  2  0  0  0  0
 10 15  1  0  0  0  0
 11  8  1  0  0  0  0
 11 13  1  0  0  0  0
 12  5  1  0  0  0  0
 13 12  2  0  0  0  0
 15 14  1  0  0  0  0
 15  8  2  0  0  0  0
 16  4  1  0  0  0  0
 16 24  1  1  0  0  0
 18 17  1  1  0  0  0
 18 16  1  0  0  0  0
 19 21  2  0  0  0  0
 20 21  1  0  0  0  0
 21 18  1  0  0  0  0
 22 19  1  0  0  0  0
 23 22  2  0  0  0  0
 23 20  1  0  0  0  0
 25 24  1  0  0  0  0
 25 26  1  0  0  0  0
 26 27  1  0  0  0  0
 27 29  1  0  0  0  0
 29 30  2  0  0  0  0
 29 28  1  0  0  0  0
M  END
>  <MODEL>
1

>  <REMARK>
 VINA RESULT:      -9.6      0.000      0.000
  Name = 
  8 active torsions:
  status: ('A' for Active; 'I' for Inactive)
    1  A    between atoms: C_4  and  C_13
    2  A    between atoms: C_7  and  C_15
    3  A    between atoms: C_7  and  C_16
    4  A    between atoms: C_8  and  C_12
    5  A    between atoms: C_8  and  C_13
    6  A    between atoms: C_13  and  O_27
    7  A    between atoms: C_16  and  C_30
    8  A    between atoms: O_27  and  C_30
                            x       y       z     vdW  Elec       q    Type
                         _______ _______ _______ _____ _____    ______ ____

>  <TORSDO>
F 8

$$$$
=
 OpenBabel10272413513D

 30 33  0  0  1  0  0  0  0  0999 V2000
  188.8600  177.4720  143.4310 C   0  0  0  0  0  3  0  0  0  0  0  0
  190.8630  176.8300  144.6570 C   0  0  0  0  0  0  0  0  0  0  0  0
  186.7180  177.9040  147.0330 C   0  0  0  0  0  3  0  0  0  0  0  0
  187.5210  177.8620  143.3920 C   0  0  0  0  0  0  0  0  0  0  0  0
  185.3770  178.2930  147.0070 C   0  0  0  0  0  3  0  0  0  0  0  0
  191.5040  176.5860  145.8750 C   0  0  0  0  0  3  0  0  0  0  0  0
  191.5970  176.6800  143.4450 N   0  0  0  0  0  1  0  0  0  0  0  0
  187.4460  177.7550  145.8400 C   0  0  0  0  0  0  0  0  0  0  0  0
  190.8100  176.7240  147.0770 C   0  0  0  0  0  3  0  0  0  0  0  0
  189.5100  177.2200  144.6420 C   0  0  0  0  0  0  0  0  0  0  0  0
  186.8010  178.0060  144.5990 C   0  0  0  0  0  0  0  0  0  0  0  0
  184.7450  178.5390  145.7880 C   0  0  0  0  0  3  0  0  0  0  0  0
  185.4520  178.3960  144.5940 C   0  0  0  0  0  3  0  0  0  0  0  0
  189.4680  177.1090  147.0710 C   0  0  0  0  0  3  0  0  0  0  0  0
  188.8010  177.3630  145.8600 C   0  0  0  0  0  0  0  0  0  0  0  0
  186.9140  178.1030  142.0330 C   0  0  1  0  0  3  0  0  0  0  0  0
  185.9300  180.2790  142.2760 O   0  0  0  0  0  1  0  0  0  0  0  0
  185.6250  178.9260  142.1180 C   0  0  1  0  0  3  0  0  0  0  0  0
  184.9050  179.5110  139.7940 N   0  0  0  0  0  0  0  0  0  0  0  0
  183.5270  177.6460  140.7280 S   0  0  0  0  0  0  0  0  0  0  0  0
  184.7860  178.7420  140.8940 C   0  0  0  0  0  0  0  0  0  0  0  0
  183.9880  179.1880  138.8410 C   0  0  0  0  0  3  0  0  0  0  0  0
  183.1140  178.1550  139.1760 C   0  0  0  0  0  3  0  0  0  0  0  0
  187.8390  178.7190  141.1840 O   0  0  0  0  0  0  0  0  0  0  0  0
  188.0540  177.8010  140.1520 C   0  0  0  0  0  2  0  0  0  0  0  0
  189.4290  178.0130  139.5440 C   0  0  0  0  0  2  0  0  0  0  0  0
  190.3750  176.9130  139.9910 C   0  0  0  0  0  2  0  0  0  0  0  0
  190.4850  175.0650  138.3260 O   0  0  0  0  0  1  0  0  0  0  0  0
  190.9940  176.2630  138.8060 C   0  0  0  0  0  0  0  0  0  0  0  0
  191.9580  176.8170  138.2180 O   0  0  0  0  0  0  0  0  0  0  0  0
  1 10  1  0  0  0  0
  2  6  1  0  0  0  0
  4  1  2  0  0  0  0
  4 11  1  0  0  0  0
  5  3  1  0  0  0  0
  6  9  2  0  0  0  0
  7  2  1  0  0  0  0
  8 15  1  0  0  0  0
  8  3  2  0  0  0  0
 10  2  2  0  0  0  0
 10 15  1  0  0  0  0
 11  8  1  0  0  0  0
 12  5  2  0  0  0  0
 13 11  2  0  0  0  0
 13 12  1  0  0  0  0
 14  9  1  0  0  0  0
 15 14  2  0  0  0  0
 16 24  1  6  0  0  0
 16 18  1  0  0  0  0
 16  4  1  0  0  0  0
 18 17  1  6  0  0  0
 19 21  2  0  0  0  0
 20 21  1  0  0  0  0
 21 18  1  0  0  0  0
 22 23  2  0  0  0  0
 22 19  1  0  0  0  0
 23 20  1  0  0  0  0
 25 24  1  0  0  0  0
 26 27  1  0  0  0  0
 26 25  1  0  0  0  0
 28 29  1  0  0  0  0
 29 27  1  0  0  0  0
 30 29  2  0  0  0  0
M  END
>  <MODEL>
2

>  <REMARK>
 VINA RESULT:      -8.8      2.753      5.675
  Name = 
  8 active torsions:
  status: ('A' for Active; 'I' for Inactive)
    1  A    between atoms: C_4  and  C_13
    2  A    between atoms: C_7  and  C_15
    3  A    between atoms: C_7  and  C_16
    4  A    between atoms: C_8  and  C_12
    5  A    between atoms: C_8  and  C_13
    6  A    between atoms: C_13  and  O_27
    7  A    between atoms: C_16  and  C_30
    8  A    between atoms: O_27  and  C_30
                            x       y       z     vdW  Elec       q    Type
                         _______ _______ _______ _____ _____    ______ ____

>  <TORSDO>
F 8

$$$$
=
 OpenBabel10272413513D

 30 33  0  0  1  0  0  0  0  0999 V2000
  188.7990  177.4690  143.5030 C   0  0  0  0  0  3  0  0  0  0  0  0
  190.7890  176.8610  144.7670 C   0  0  0  0  0  0  0  0  0  0  0  0
  186.6040  177.9430  147.0680 C   0  0  0  0  0  3  0  0  0  0  0  0
  187.4580  177.8490  143.4390 C   0  0  0  0  0  0  0  0  0  0  0  0
  185.2610  178.3220  147.0160 C   0  0  0  0  0  3  0  0  0  0  0  0
  191.4140  176.6410  145.9970 C   0  0  0  0  0  3  0  0  0  0  0  0
  191.5420  176.6970  143.5680 N   0  0  0  0  0  1  0  0  0  0  0  0
  187.3500  177.7800  145.8870 C   0  0  0  0  0  0  0  0  0  0  0  0
  190.7030  176.7930  147.1870 C   0  0  0  0  0  3  0  0  0  0  0  0
  189.4340  177.2410  144.7260 C   0  0  0  0  0  0  0  0  0  0  0  0
  186.7210  178.0060  144.6330 C   0  0  0  0  0  0  0  0  0  0  0  0
  184.6440  178.5440  145.7850 C   0  0  0  0  0  3  0  0  0  0  0  0
  185.3700  178.3870  144.6040 C   0  0  0  0  0  3  0  0  0  0  0  0
  189.3590  177.1690  147.1560 C   0  0  0  0  0  3  0  0  0  0  0  0
  188.7080  177.3980  145.9320 C   0  0  0  0  0  0  0  0  0  0  0  0
  186.8680  178.0640  142.0680 C   0  0  1  0  0  3  0  0  0  0  0  0
  185.9800  180.2880  142.2320 O   0  0  0  0  0  1  0  0  0  0  0  0
  185.6170  178.9450  142.1130 C   0  0  1  0  0  3  0  0  0  0  0  0
  184.9620  179.4680  139.7560 N   0  0  0  0  0  0  0  0  0  0  0  0
  183.4580  177.7380  140.7530 S   0  0  0  0  0  0  0  0  0  0  0  0
  184.7820  178.7590  140.8870 C   0  0  0  0  0  0  0  0  0  0  0  0
  184.0370  179.1610  138.8050 C   0  0  0  0  0  3  0  0  0  0  0  0
  183.0940  178.2010  139.1740 C   0  0  0  0  0  3  0  0  0  0  0  0
  187.8240  178.6060  141.2020 O   0  0  0  0  0  0  0  0  0  0  0  0
  188.1110  177.5840  140.2920 C   0  0  0  0  0  2  0  0  0  0  0  0
  189.4360  177.8600  139.6020 C   0  0  0  0  0  2  0  0  0  0  0  0
  189.3290  177.5510  138.1190 C   0  0  0  0  0  2  0  0  0  0  0  0
  187.3570  178.3140  136.8030 O   0  0  0  0  0  0  0  0  0  0  0  0
  188.5550  178.6190  137.4330 C   0  0  0  0  0  0  0  0  0  0  0  0
  188.9700  179.8070  137.4520 O   0  0  0  0  0  1  0  0  0  0  0  0
  1 10  1  0  0  0  0
  2  6  1  0  0  0  0
  4  1  2  0  0  0  0
  4 11  1  0  0  0  0
  5  3  1  0  0  0  0
  6  9  2  0  0  0  0
  7  2  1  0  0  0  0
  8 15  1  0  0  0  0
  8  3  2  0  0  0  0
 10  2  2  0  0  0  0
 10 15  1  0  0  0  0
 11  8  1  0  0  0  0
 12  5  2  0  0  0  0
 13 11  2  0  0  0  0
 13 12  1  0  0  0  0
 14  9  1  0  0  0  0
 15 14  2  0  0  0  0
 16 24  1  6  0  0  0
 16 18  1  0  0  0  0
 16  4  1  0  0  0  0
 18 17  1  6  0  0  0
 19 21  2  0  0  0  0
 20 21  1  0  0  0  0
 21 18  1  0  0  0  0
 22 23  2  0  0  0  0
 22 19  1  0  0  0  0
 23 20  1  0  0  0  0
 25 24  1  0  0  0  0
 26 25  1  0  0  0  0
 27 26  1  0  0  0  0
 28 29  2  0  0  0  0
 29 30  1  0  0  0  0
 29 27  1  0  0  0  0
M  END
>  <MODEL>
3

>  <REMARK>
 VINA RESULT:      -8.8      2.754      6.095
  Name = 
  8 active torsions:
  status: ('A' for Active; 'I' for Inactive)
    1  A    between atoms: C_4  and  C_13
    2  A    between atoms: C_7  and  C_15
    3  A    between atoms: C_7  and  C_16
    4  A    between atoms: C_8  and  C_12
    5  A    between atoms: C_8  and  C_13
    6  A    between atoms: C_13  and  O_27
    7  A    between atoms: C_16  and  C_30
    8  A    between atoms: O_27  and  C_30
                            x       y       z     vdW  Elec       q    Type
                         _______ _______ _______ _____ _____    ______ ____

>  <TORSDO>
F 8

$$$$
=
 OpenBabel10272413513D

 30 33  0  0  1  0  0  0  0  0999 V2000
  189.1640  177.3790  144.0660 C   0  0  0  0  0  3  0  0  0  0  0  0
  189.8600  177.2490  146.3950 C   0  0  0  0  0  0  0  0  0  0  0  0
  185.2180  178.2880  145.2320 C   0  0  0  0  0  3  0  0  0  0  0  0
  188.1890  177.5900  143.0890 C   0  0  0  0  0  0  0  0  0  0  0  0
  184.2340  178.5000  144.2650 C   0  0  0  0  0  3  0  0  0  0  0  0
  189.5460  177.3410  147.7530 C   0  0  0  0  0  3  0  0  0  0  0  0
  191.1980  176.9400  146.0120 N   0  0  0  0  0  1  0  0  0  0  0  0
  186.5390  177.9830  144.8590 C   0  0  0  0  0  0  0  0  0  0  0  0
  188.2460  177.6400  148.1580 C   0  0  0  0  0  3  0  0  0  0  0  0
  188.8600  177.4630  145.4270 C   0  0  0  0  0  0  0  0  0  0  0  0
  186.8660  177.8930  143.4800 C   0  0  0  0  0  0  0  0  0  0  0  0
  184.5560  178.4120  142.9110 C   0  0  0  0  0  3  0  0  0  0  0  0
  185.8620  178.1100  142.5220 C   0  0  0  0  0  3  0  0  0  0  0  0
  187.2470  177.8530  147.2050 C   0  0  0  0  0  3  0  0  0  0  0  0
  187.5380  177.7690  145.8330 C   0  0  0  0  0  0  0  0  0  0  0  0
  188.6200  177.4710  141.6500 C   0  0  1  0  0  3  0  0  0  0  0  0
  188.1150  179.7550  141.1100 O   0  0  0  0  0  1  0  0  0  0  0  0
  187.8540  178.4340  140.7390 C   0  0  1  0  0  3  0  0  0  0  0  0
  188.9560  179.1230  138.6010 N   0  0  0  0  0  0  0  0  0  0  0  0
  187.7370  176.9570  138.3370 S   0  0  0  0  0  0  0  0  0  0  0  0
  188.2290  178.2340  139.3050 C   0  0  0  0  0  0  0  0  0  0  0  0
  189.1100  178.7450  137.3020 C   0  0  0  0  0  3  0  0  0  0  0  0
  188.4940  177.5440  136.9510 C   0  0  0  0  0  3  0  0  0  0  0  0
  190.0000  177.6710  141.5330 O   0  0  0  0  0  0  0  0  0  0  0  0
  190.4710  176.5560  140.8330 C   0  0  0  0  0  2  0  0  0  0  0  0
  191.5750  176.9700  139.8760 C   0  0  0  0  0  2  0  0  0  0  0  0
  191.4830  176.1700  138.5900 C   0  0  0  0  0  2  0  0  0  0  0  0
  192.8640  176.1460  136.5180 O   0  0  0  0  0  0  0  0  0  0  0  0
  192.8020  176.1550  137.9050 C   0  0  0  0  0  0  0  0  0  0  0  0
  193.8620  176.1860  138.5810 O   0  0  0  0  0  1  0  0  0  0  0  0
  1 10  1  0  0  0  0
  2  6  1  0  0  0  0
  4 11  1  0  0  0  0
  4  1  2  0  0  0  0
  5  3  2  0  0  0  0
  6  9  2  0  0  0  0
  7  2  1  0  0  0  0
  8  3  1  0  0  0  0
  8 15  1  0  0  0  0
 10 15  1  0  0  0  0
 10  2  2  0  0  0  0
 11  8  2  0  0  0  0
 12  5  1  0  0  0  0
 13 12  2  0  0  0  0
 13 11  1  0  0  0  0
 14  9  1  0  0  0  0
 15 14  2  0  0  0  0
 16 24  1  1  0  0  0
 16  4  1  0  0  0  0
 18 17  1  1  0  0  0
 18 16  1  0  0  0  0
 19 21  2  0  0  0  0
 20 21  1  0  0  0  0
 21 18  1  0  0  0  0
 22 19  1  0  0  0  0
 23 22  2  0  0  0  0
 23 20  1  0  0  0  0
 25 24  1  0  0  0  0
 26 25  1  0  0  0  0
 27 26  1  0  0  0  0
 28 29  2  0  0  0  0
 29 30  1  0  0  0  0
 29 27  1  0  0  0  0
M  END
>  <MODEL>
4

>  <REMARK>
 VINA RESULT:      -8.7      2.439      5.117
  Name = 
  8 active torsions:
  status: ('A' for Active; 'I' for Inactive)
    1  A    between atoms: C_4  and  C_13
    2  A    between atoms: C_7  and  C_15
    3  A    between atoms: C_7  and  C_16
    4  A    between atoms: C_8  and  C_12
    5  A    between atoms: C_8  and  C_13
    6  A    between atoms: C_13  and  O_27
    7  A    between atoms: C_16  and  C_30
    8  A    between atoms: O_27  and  C_30
                            x       y       z     vdW  Elec       q    Type
                         _______ _______ _______ _____ _____    ______ ____

>  <TORSDO>
F 8

$$$$
=
 OpenBabel10272413513D

 30 33  0  0  1  0  0  0  0  0999 V2000
  187.0520  177.8640  143.1450 C   0  0  0  0  0  3  0  0  0  0  0  0
  185.2190  178.4100  144.6510 C   0  0  0  0  0  0  0  0  0  0  0  0
  189.6440  177.2770  146.4150 C   0  0  0  0  0  3  0  0  0  0  0  0
  188.3780  177.4970  142.9140 C   0  0  0  0  0  0  0  0  0  0  0  0
  190.9730  176.9110  146.1960 C   0  0  0  0  0  3  0  0  0  0  0  0
  184.7380  178.5800  145.9510 C   0  0  0  0  0  3  0  0  0  0  0  0
  184.3330  178.6120  143.5530 N   0  0  0  0  0  1  0  0  0  0  0  0
  188.7670  177.4770  145.3340 C   0  0  0  0  0  0  0  0  0  0  0  0
  185.5810  178.3910  147.0460 C   0  0  0  0  0  3  0  0  0  0  0  0
  186.5610  178.0420  144.4410 C   0  0  0  0  0  0  0  0  0  0  0  0
  189.2480  177.3020  144.0090 C   0  0  0  0  0  0  0  0  0  0  0  0
  191.4450  176.7380  144.8950 C   0  0  0  0  0  3  0  0  0  0  0  0
  190.5890  176.9330  143.8110 C   0  0  0  0  0  3  0  0  0  0  0  0
  186.9150  178.0270  146.8470 C   0  0  0  0  0  3  0  0  0  0  0  0
  187.4220  177.8470  145.5490 C   0  0  0  0  0  0  0  0  0  0  0  0
  188.8070  177.3370  141.4770 C   0  0  1  0  0  3  0  0  0  0  0  0
  187.8390  179.4530  140.8880 O   0  0  0  0  0  1  0  0  0  0  0  0
  187.8980  178.1080  140.5170 C   0  0  1  0  0  3  0  0  0  0  0  0
  188.9790  179.0140  138.4500 N   0  0  0  0  0  0  0  0  0  0  0  0
  188.1920  176.6660  138.1080 S   0  0  0  0  0  0  0  0  0  0  0  0
  188.3860  177.9990  139.1070 C   0  0  0  0  0  0  0  0  0  0  0  0
  189.2750  178.6870  137.1620 C   0  0  0  0  0  3  0  0  0  0  0  0
  188.9090  177.3990  136.7710 C   0  0  0  0  0  3  0  0  0  0  0  0
  190.1410  177.7280  141.3180 O   0  0  0  0  0  0  0  0  0  0  0  0
  190.7470  176.6780  140.6220 C   0  0  0  0  0  2  0  0  0  0  0  0
  191.8850  177.2090  139.7670 C   0  0  0  0  0  2  0  0  0  0  0  0
  192.0300  176.3710  138.5090 C   0  0  0  0  0  2  0  0  0  0  0  0
  193.8600  176.9140  136.9090 O   0  0  0  0  0  0  0  0  0  0  0  0
  193.4570  176.3180  138.0960 C   0  0  0  0  0  0  0  0  0  0  0  0
  194.3050  175.7610  138.8390 O   0  0  0  0  0  1  0  0  0  0  0  0
  1 10  1  0  0  0  0
  2  6  1  0  0  0  0
  4  1  2  0  0  0  0
  4 11  1  0  0  0  0
  5  3  1  0  0  0  0
  6  9  2  0  0  0  0
  7  2  1  0  0  0  0
  8 15  1  0  0  0  0
  8  3  2  0  0  0  0
 10  2  2  0  0  0  0
 10 15  1  0  0  0  0
 11  8  1  0  0  0  0
 12  5  2  0  0  0  0
 13 11  2  0  0  0  0
 13 12  1  0  0  0  0
 14  9  1  0  0  0  0
 15 14  2  0  0  0  0
 16 24  1  1  0  0  0
 16  4  1  0  0  0  0
 18 17  1  1  0  0  0
 18 16  1  0  0  0  0
 19 21  2  0  0  0  0
 20 21  1  0  0  0  0
 21 18  1  0  0  0  0
 22 19  1  0  0  0  0
 23 22  2  0  0  0  0
 23 20  1  0  0  0  0
 25 24  1  0  0  0  0
 26 25  1  0  0  0  0
 27 26  1  0  0  0  0
 28 29  2  0  0  0  0
 29 27  1  0  0  0  0
 29 30  1  0  0  0  0
M  END
>  <MODEL>
5

>  <REMARK>
 VINA RESULT:      -8.7      2.354      4.305
  Name = 
  8 active torsions:
  status: ('A' for Active; 'I' for Inactive)
    1  A    between atoms: C_4  and  C_13
    2  A    between atoms: C_7  and  C_15
    3  A    between atoms: C_7  and  C_16
    4  A    between atoms: C_8  and  C_12
    5  A    between atoms: C_8  and  C_13
    6  A    between atoms: C_13  and  O_27
    7  A    between atoms: C_16  and  C_30
    8  A    between atoms: O_27  and  C_30
                            x       y       z     vdW  Elec       q    Type
                         _______ _______ _______ _____ _____    ______ ____

>  <TORSDO>
F 8

$$$$
=
 OpenBabel10272413513D

 30 33  0  0  1  0  0  0  0  0999 V2000
  186.7610  178.1810  144.5160 C   0  0  0  0  0  3  0  0  0  0  0  0
  186.5620  178.3710  146.9340 C   0  0  0  0  0  0  0  0  0  0  0  0
  190.5900  176.4650  144.9030 C   0  0  0  0  0  3  0  0  0  0  0  0
  187.4670  177.8120  143.3710 C   0  0  0  0  0  0  0  0  0  0  0  0
  191.3070  176.0930  143.7640 C   0  0  0  0  0  3  0  0  0  0  0  0
  187.1040  178.1750  148.2070 C   0  0  0  0  0  3  0  0  0  0  0  0
  185.2670  178.9530  146.8160 N   0  0  0  0  0  1  0  0  0  0  0  0
  189.3110  177.0400  144.7900 C   0  0  0  0  0  0  0  0  0  0  0  0
  188.3700  177.6090  148.3540 C   0  0  0  0  0  3  0  0  0  0  0  0
  187.2950  177.9940  145.7930 C   0  0  0  0  0  0  0  0  0  0  0  0
  188.7520  177.2380  143.4990 C   0  0  0  0  0  0  0  0  0  0  0  0
  190.7580  176.2880  142.4980 C   0  0  0  0  0  3  0  0  0  0  0  0
  189.4900  176.8570  142.3670 C   0  0  0  0  0  3  0  0  0  0  0  0
  189.1050  177.2320  147.2280 C   0  0  0  0  0  3  0  0  0  0  0  0
  188.5810  177.4170  145.9370 C   0  0  0  0  0  0  0  0  0  0  0  0
  186.8030  178.0620  142.0410 C   0  0  1  0  0  3  0  0  0  0  0  0
  185.6190  180.0820  142.5750 O   0  0  0  0  0  1  0  0  0  0  0  0
  185.4430  178.7480  142.1980 C   0  0  1  0  0  3  0  0  0  0  0  0
  184.7520  179.6140  139.9550 N   0  0  0  0  0  0  0  0  0  0  0  0
  183.4890  177.5420  140.5560 S   0  0  0  0  0  0  0  0  0  0  0  0
  184.6580  178.6870  140.9280 C   0  0  0  0  0  0  0  0  0  0  0  0
  183.8910  179.3710  138.9290 C   0  0  0  0  0  3  0  0  0  0  0  0
  183.0860  178.2420  139.0770 C   0  0  0  0  0  3  0  0  0  0  0  0
  187.6410  178.8110  141.2070 O   0  0  0  0  0  0  0  0  0  0  0  0
  187.7650  178.0510  140.0400 C   0  0  0  0  0  2  0  0  0  0  0  0
  188.9770  178.5100  139.2480 C   0  0  0  0  0  2  0  0  0  0  0  0
  189.3790  177.4460  138.2410 C   0  0  0  0  0  2  0  0  0  0  0  0
  191.5690  177.3330  139.4200 O   0  0  0  0  0  1  0  0  0  0  0  0
  190.5440  176.6780  138.7520 C   0  0  0  0  0  0  0  0  0  0  0  0
  190.5850  175.4290  138.6090 O   0  0  0  0  0  0  0  0  0  0  0  0
  1 10  1  0  0  0  0
  2  6  1  0  0  0  0
  4 11  1  0  0  0  0
  4  1  2  0  0  0  0
  5  3  2  0  0  0  0
  6  9  2  0  0  0  0
  7  2  1  0  0  0  0
  8  3  1  0  0  0  0
  8 15  1  0  0  0  0
 10 15  1  0  0  0  0
 10  2  2  0  0  0  0
 11  8  2  0  0  0  0
 12  5  1  0  0  0  0
 13 12  2  0  0  0  0
 13 11  1  0  0  0  0
 14  9  1  0  0  0  0
 15 14  2  0  0  0  0
 16 24  1  6  0  0  0
 16 18  1  0  0  0  0
 16  4  1  0  0  0  0
 18 17  1  6  0  0  0
 19 21  2  0  0  0  0
 20 21  1  0  0  0  0
 21 18  1  0  0  0  0
 22 23  2  0  0  0  0
 22 19  1  0  0  0  0
 23 20  1  0  0  0  0
 25 24  1  0  0  0  0
 26 25  1  0  0  0  0
 27 29  1  0  0  0  0
 27 26  1  0  0  0  0
 29 28  1  0  0  0  0
 30 29  2  0  0  0  0
M  END
>  <MODEL>
6

>  <REMARK>
 VINA RESULT:      -8.7      2.992      5.627
  Name = 
  8 active torsions:
  status: ('A' for Active; 'I' for Inactive)
    1  A    between atoms: C_4  and  C_13
    2  A    between atoms: C_7  and  C_15
    3  A    between atoms: C_7  and  C_16
    4  A    between atoms: C_8  and  C_12
    5  A    between atoms: C_8  and  C_13
    6  A    between atoms: C_13  and  O_27
    7  A    between atoms: C_16  and  C_30
    8  A    between atoms: O_27  and  C_30
                            x       y       z     vdW  Elec       q    Type
                         _______ _______ _______ _____ _____    ______ ____

>  <TORSDO>
F 8

$$$$
=
 OpenBabel10272413513D

 30 33  0  0  1  0  0  0  0  0999 V2000
  185.6530  178.4140  143.2280 C   0  0  0  0  0  3  0  0  0  0  0  0
  184.9180  178.7840  145.5200 C   0  0  0  0  0  0  0  0  0  0  0  0
  189.3470  176.9140  144.5900 C   0  0  0  0  0  3  0  0  0  0  0  0
  186.6060  177.9890  142.3020 C   0  0  0  0  0  0  0  0  0  0  0  0
  190.3090  176.4880  143.6730 C   0  0  0  0  0  3  0  0  0  0  0  0
  185.1700  178.7130  146.8920 C   0  0  0  0  0  3  0  0  0  0  0  0
  183.6650  179.2930  145.0710 N   0  0  0  0  0  1  0  0  0  0  0  0
  188.1100  177.4180  144.1520 C   0  0  0  0  0  0  0  0  0  0  0  0
  186.3870  178.2200  147.3610 C   0  0  0  0  0  3  0  0  0  0  0  0
  185.8950  178.3520  144.6030 C   0  0  0  0  0  0  0  0  0  0  0  0
  187.8460  177.4880  142.7580 C   0  0  0  0  0  0  0  0  0  0  0  0
  190.0500  176.5570  142.3050 C   0  0  0  0  0  3  0  0  0  0  0  0
  188.8270  177.0540  141.8520 C   0  0  0  0  0  3  0  0  0  0  0  0
  187.3630  177.7910  146.4590 C   0  0  0  0  0  3  0  0  0  0  0  0
  187.1330  177.8500  145.0740 C   0  0  0  0  0  0  0  0  0  0  0  0
  186.2460  178.1030  140.8420 C   0  0  1  0  0  3  0  0  0  0  0  0
  184.9320  179.9130  139.9710 O   0  0  0  0  0  1  0  0  0  0  0  0
  184.8470  178.6900  140.6400 C   0  0  1  0  0  3  0  0  0  0  0  0
  183.0230  176.9900  140.4320 N   0  0  0  0  0  0  0  0  0  0  0  0
  184.1020  177.4390  138.2220 S   0  0  0  0  0  0  0  0  0  0  0  0
  183.9750  177.7550  139.8640 C   0  0  0  0  0  0  0  0  0  0  0  0
  182.4100  176.1790  139.5260 C   0  0  0  0  0  3  0  0  0  0  0  0
  182.8770  176.2820  138.2160 C   0  0  0  0  0  3  0  0  0  0  0  0
  187.2030  178.8600  140.1590 O   0  0  0  0  0  0  0  0  0  0  0  0
  187.6370  178.0390  139.1130 C   0  0  0  0  0  2  0  0  0  0  0  0
  188.9630  178.5430  138.5710 C   0  0  0  0  0  2  0  0  0  0  0  0
  189.6100  177.4830  137.6980 C   0  0  0  0  0  2  0  0  0  0  0  0
  191.4880  177.2880  139.3210 O   0  0  0  0  0  1  0  0  0  0  0  0
  190.5530  176.6660  138.5050 C   0  0  0  0  0  0  0  0  0  0  0  0
  190.4810  175.4110  138.4750 O   0  0  0  0  0  0  0  0  0  0  0  0
  1 10  1  0  0  0  0
  2  6  1  0  0  0  0
  4 11  1  0  0  0  0
  4  1  2  0  0  0  0
  5  3  2  0  0  0  0
  6  9  2  0  0  0  0
  7  2  1  0  0  0  0
  8  3  1  0  0  0  0
  8 15  1  0  0  0  0
 10 15  1  0  0  0  0
 10  2  2  0  0  0  0
 11  8  2  0  0  0  0
 12  5  1  0  0  0  0
 13 12  2  0  0  0  0
 13 11  1  0  0  0  0
 14  9  1  0  0  0  0
 15 14  2  0  0  0  0
 16 24  1  6  0  0  0
 16  4  1  0  0  0  0
 18 17  1  6  0  0  0
 18 16  1  0  0  0  0
 20 21  1  0  0  0  0
 21 19  2  0  0  0  0
 21 18  1  0  0  0  0
 22 19  1  0  0  0  0
 23 20  1  0  0  0  0
 23 22  2  0  0  0  0
 25 24  1  0  0  0  0
 26 25  1  0  0  0  0
 27 29  1  0  0  0  0
 27 26  1  0  0  0  0
 29 28  1  0  0  0  0
 30 29  2  0  0  0  0
M  END
>  <MODEL>
7

>  <REMARK>
 VINA RESULT:      -8.6      3.134      5.417
  Name = 
  8 active torsions:
  status: ('A' for Active; 'I' for Inactive)
    1  A    between atoms: C_4  and  C_13
    2  A    between atoms: C_7  and  C_15
    3  A    between atoms: C_7  and  C_16
    4  A    between atoms: C_8  and  C_12
    5  A    between atoms: C_8  and  C_13
    6  A    between atoms: C_13  and  O_27
    7  A    between atoms: C_16  and  C_30
    8  A    between atoms: O_27  and  C_30
                            x       y       z     vdW  Elec       q    Type
                         _______ _______ _______ _____ _____    ______ ____

>  <TORSDO>
F 8

$$$$
=
 OpenBabel10272413513D

 30 33  0  0  1  0  0  0  0  0999 V2000
  187.5500  177.6880  142.7930 C   0  0  0  0  0  3  0  0  0  0  0  0
  189.1020  177.1980  144.6040 C   0  0  0  0  0  0  0  0  0  0  0  0
  184.5190  178.6300  145.5650 C   0  0  0  0  0  3  0  0  0  0  0  0
  186.2940  178.0840  142.3310 C   0  0  0  0  0  0  0  0  0  0  0  0
  183.2590  179.0260  145.1150 C   0  0  0  0  0  3  0  0  0  0  0  0
  189.3700  177.1160  145.9720 C   0  0  0  0  0  3  0  0  0  0  0  0
  190.1350  176.8770  143.6760 N   0  0  0  0  0  1  0  0  0  0  0  0
  185.5410  178.3120  144.6530 C   0  0  0  0  0  0  0  0  0  0  0  0
  188.3790  177.4230  146.9040 C   0  0  0  0  0  3  0  0  0  0  0  0
  187.8270  177.5970  144.1600 C   0  0  0  0  0  0  0  0  0  0  0  0
  185.2770  178.3980  143.2600 C   0  0  0  0  0  0  0  0  0  0  0  0
  183.0000  179.1100  143.7470 C   0  0  0  0  0  3  0  0  0  0  0  0
  184.0020  178.7980  142.8280 C   0  0  0  0  0  3  0  0  0  0  0  0
  187.1110  177.8180  146.4740 C   0  0  0  0  0  3  0  0  0  0  0  0
  186.8170  177.9110  145.1020 C   0  0  0  0  0  0  0  0  0  0  0  0
  186.0980  178.1440  140.8380 C   0  0  1  0  0  3  0  0  0  0  0  0
  184.8540  179.9280  139.8210 O   0  0  0  0  0  1  0  0  0  0  0  0
  184.7200  178.6940  140.4610 C   0  0  1  0  0  3  0  0  0  0  0  0
  184.2990  177.5560  138.2720 N   0  0  0  0  0  0  0  0  0  0  0  0
  182.6270  176.8580  139.9940 S   0  0  0  0  0  0  0  0  0  0  0  0
  183.9850  177.7450  139.5690 C   0  0  0  0  0  0  0  0  0  0  0  0
  183.4460  176.6910  137.6590 C   0  0  0  0  0  3  0  0  0  0  0  0
  182.4260  176.1830  138.4630 C   0  0  0  0  0  3  0  0  0  0  0  0
  187.1120  178.9000  140.2400 O   0  0  0  0  0  0  0  0  0  0  0  0
  187.6150  178.0890  139.2180 C   0  0  0  0  0  2  0  0  0  0  0  0
  188.9600  178.6170  138.7500 C   0  0  0  0  0  2  0  0  0  0  0  0
  189.7570  177.5070  138.0860 C   0  0  0  0  0  2  0  0  0  0  0  0
  190.9030  175.4290  138.8400 O   0  0  0  0  0  0  0  0  0  0  0  0
  190.4950  176.7270  139.1130 C   0  0  0  0  0  0  0  0  0  0  0  0
  190.7810  177.2560  140.2180 O   0  0  0  0  0  1  0  0  0  0  0  0
  1 10  1  0  0  0  0
  2  6  1  0  0  0  0
  4  1  2  0  0  0  0
  4 11  1  0  0  0  0
  5  3  1  0  0  0  0
  6  9  2  0  0  0  0
  7  2  1  0  0  0  0
  8 15  1  0  0  0  0
  8  3  2  0  0  0  0
 10  2  2  0  0  0  0
 10 15  1  0  0  0  0
 11  8  1  0  0  0  0
 12  5  2  0  0  0  0
 13 11  2  0  0  0  0
 13 12  1  0  0  0  0
 14  9  1  0  0  0  0
 15 14  2  0  0  0  0
 16 24  1  6  0  0  0
 16  4  1  0  0  0  0
 18 17  1  6  0  0  0
 18 16  1  0  0  0  0
 19 21  2  0  0  0  0
 21 20  1  0  0  0  0
 21 18  1  0  0  0  0
 22 19  1  0  0  0  0
 22 23  2  0  0  0  0
 23 20  1  0  0  0  0
 25 24  1  0  0  0  0
 26 25  1  0  0  0  0
 27 26  1  0  0  0  0
 27 29  1  0  0  0  0
 28 29  2  0  0  0  0
 29 30  1  0  0  0  0
M  END
>  <MODEL>
8

>  <REMARK>
 VINA RESULT:      -8.3      2.747      5.582
  Name = 
  8 active torsions:
  status: ('A' for Active; 'I' for Inactive)
    1  A    between atoms: C_4  and  C_13
    2  A    between atoms: C_7  and  C_15
    3  A    between atoms: C_7  and  C_16
    4  A    between atoms: C_8  and  C_12
    5  A    between atoms: C_8  and  C_13
    6  A    between atoms: C_13  and  O_27
    7  A    between atoms: C_16  and  C_30
    8  A    between atoms: O_27  and  C_30
                            x       y       z     vdW  Elec       q    Type
                         _______ _______ _______ _____ _____    ______ ____

>  <TORSDO>
F 8

$$$$
=
 OpenBabel10272413513D

 30 33  0  0  1  0  0  0  0  0999 V2000
  185.5240  178.1250  142.0830 C   0  0  0  0  0  3  0  0  0  0  0  0
  183.2630  178.4930  141.2580 C   0  0  0  0  0  0  0  0  0  0  0  0
  184.2500  178.7840  146.0460 C   0  0  0  0  0  3  0  0  0  0  0  0
  186.4480  178.0450  143.1250 C   0  0  0  0  0  0  0  0  0  0  0  0
  185.1670  178.7070  147.0960 C   0  0  0  0  0  3  0  0  0  0  0  0
  181.9200  178.7830  141.5120 C   0  0  0  0  0  3  0  0  0  0  0  0
  183.6820  178.2720  139.9140 N   0  0  0  0  0  1  0  0  0  0  0  0
  184.6600  178.5670  144.7180 C   0  0  0  0  0  0  0  0  0  0  0  0
  181.4810  179.0050  142.8160 C   0  0  0  0  0  3  0  0  0  0  0  0
  184.1790  178.4200  142.3240 C   0  0  0  0  0  0  0  0  0  0  0  0
  186.0230  178.2670  144.4540 C   0  0  0  0  0  0  0  0  0  0  0  0
  186.5040  178.4130  146.8360 C   0  0  0  0  0  3  0  0  0  0  0  0
  186.9280  178.1950  145.5240 C   0  0  0  0  0  3  0  0  0  0  0  0
  182.3820  178.9350  143.8800 C   0  0  0  0  0  3  0  0  0  0  0  0
  183.7380  178.6430  143.6520 C   0  0  0  0  0  0  0  0  0  0  0  0
  187.8750  177.7260  142.7560 C   0  0  1  0  0  3  0  0  0  0  0  0
  188.6060  175.4400  142.7090 O   0  0  0  0  0  1  0  0  0  0  0  0
  188.4230  176.5390  143.5520 C   0  0  1  0  0  3  0  0  0  0  0  0
  189.8910  176.8800  145.5490 N   0  0  0  0  0  0  0  0  0  0  0  0
  191.1050  177.4110  143.4280 S   0  0  0  0  0  0  0  0  0  0  0  0
  189.7190  176.8830  144.2120 C   0  0  0  0  0  0  0  0  0  0  0  0
  191.1390  177.2900  145.9060 C   0  0  0  0  0  3  0  0  0  0  0  0
  191.9820  177.6360  144.8490 C   0  0  0  0  0  3  0  0  0  0  0  0
  187.9860  177.4930  141.3810 O   0  0  0  0  0  0  0  0  0  0  0  0
  188.8530  178.4850  140.9130 C   0  0  0  0  0  2  0  0  0  0  0  0
  188.9570  178.4130  139.3990 C   0  0  0  0  0  2  0  0  0  0  0  0
  187.6850  177.8270  138.8140 C   0  0  0  0  0  2  0  0  0  0  0  0
  187.0090  176.1290  137.1220 O   0  0  0  0  0  0  0  0  0  0  0  0
  188.0210  176.7890  137.8050 C   0  0  0  0  0  0  0  0  0  0  0  0
  189.2250  176.5320  137.5440 O   0  0  0  0  0  1  0  0  0  0  0  0
  1 10  2  0  0  0  0
  1  4  1  0  0  0  0
  2  6  2  0  0  0  0
  2 10  1  0  0  0  0
  3  5  2  0  0  0  0
  4 11  2  0  0  0  0
  6  9  1  0  0  0  0
  7  2  1  0  0  0  0
  8  3  1  0  0  0  0
  9 14  2  0  0  0  0
 10 15  1  0  0  0  0
 11  8  1  0  0  0  0
 11 13  1  0  0  0  0
 12  5  1  0  0  0  0
 13 12  2  0  0  0  0
 15 14  1  0  0  0  0
 15  8  2  0  0  0  0
 16 24  1  6  0  0  0
 16  4  1  0  0  0  0
 16 18  1  0  0  0  0
 18 17  1  6  0  0  0
 18 21  1  0  0  0  0
 19 22  1  0  0  0  0
 20 21  1  0  0  0  0
 20 23  1  0  0  0  0
 21 19  2  0  0  0  0
 23 22  2  0  0  0  0
 25 24  1  0  0  0  0
 26 25  1  0  0  0  0
 27 26  1  0  0  0  0
 28 29  2  0  0  0  0
 29 27  1  0  0  0  0
 30 29  1  0  0  0  0
M  END
>  <MODEL>
9

>  <REMARK>
 VINA RESULT:      -8.2      2.380      4.624
  Name = 
  8 active torsions:
  status: ('A' for Active; 'I' for Inactive)
    1  A    between atoms: C_4  and  C_13
    2  A    between atoms: C_7  and  C_15
    3  A    between atoms: C_7  and  C_16
    4  A    between atoms: C_8  and  C_12
    5  A    between atoms: C_8  and  C_13
    6  A    between atoms: C_13  and  O_27
    7  A    between atoms: C_16  and  C_30
    8  A    between atoms: O_27  and  C_30
                            x       y       z     vdW  Elec       q    Type
                         _______ _______ _______ _____ _____    ______ ____

>  <TORSDO>
F 8

$$$$
