=
 OpenBabel10272413123D

 32 36  0  0  0  0  0  0  0  0999 V2000
  188.6960  177.8000  142.8330 C   0  0  0  0  0  0  0  0  0  0  0  0
  185.9500  178.2850  142.8880 C   0  0  0  0  0  0  0  0  0  0  0  0
  190.0850  177.6040  142.8350 C   0  0  0  0  0  3  0  0  0  0  0  0
  188.0170  178.0370  141.6040 C   0  0  0  0  0  0  0  0  0  0  0  0
  185.9020  178.5120  140.5050 N   0  0  0  0  0  0  0  0  0  0  0  0
  182.4870  178.8020  144.1550 C   0  0  0  0  0  3  0  0  0  0  0  0
  186.6190  178.2760  141.6420 C   0  0  0  0  0  0  0  0  0  0  0  0
  182.4960  179.0200  141.7430 C   0  0  0  0  0  3  0  0  0  0  0  0
  183.8720  178.7710  141.7250 C   0  0  0  0  0  0  0  0  0  0  0  0
  188.7710  178.0350  140.3940 C   0  0  0  0  0  0  0  0  0  0  0  0
  184.5660  178.7540  140.5180 C   0  0  0  0  0  3  0  0  0  0  0  0
  190.1550  177.8230  140.4400 C   0  0  0  0  0  3  0  0  0  0  0  0
  186.6410  178.0490  144.0320 N   0  0  0  0  0  0  0  0  0  0  0  0
  187.9740  177.7930  144.0460 C   0  0  0  0  0  0  0  0  0  0  0  0
  184.5680  178.5340  142.9290 C   0  0  0  0  0  0  0  0  0  0  0  0
  190.8100  177.6130  141.6480 C   0  0  0  0  0  3  0  0  0  0  0  0
  181.8050  179.0350  142.9570 C   0  0  0  0  0  3  0  0  0  0  0  0
  183.8630  178.5510  144.1430 C   0  0  0  0  0  3  0  0  0  0  0  0
  188.5740  177.5240  147.7860 C   0  0  0  0  0  0  0  0  0  0  0  0
  187.9150  177.7170  148.9540 F   0  0  0  0  0  0  0  0  0  0  0  0
  188.6160  177.5460  145.3550 C   0  0  0  0  0  0  0  0  0  0  0  0
  189.9080  177.1110  147.8050 C   0  0  0  0  0  3  0  0  0  0  0  0
  189.9580  177.1470  145.3880 C   0  0  0  0  0  3  0  0  0  0  0  0
  187.9260  177.7510  146.5660 C   0  0  0  0  0  0  0  0  0  0  0  0
  186.6460  178.2030  146.5670 F   0  0  0  0  0  0  0  0  0  0  0  0
  190.6080  176.9220  146.6040 C   0  0  0  0  0  0  0  0  0  0  0  0
  192.5140  175.7140  147.6160 C   0  0  0  0  0  1  0  0  0  0  0  0
  191.9460  176.5170  146.5900 O   0  0  0  0  0  0  0  0  0  0  0  0
  188.1430  178.2510  139.1240 N   0  0  0  0  0  2  0  0  0  0  0  0
  188.8400  178.7880  137.9640 C   0  0  0  0  0  2  0  0  0  0  0  0
  187.9100  179.2550  137.0380 O   0  0  0  0  0  0  0  0  0  0  0  0
  186.8850  178.3120  137.0660 C   0  0  0  0  0  1  0  0  0  0  0  0
  1  3  1  0  0  0  0
  1 14  1  0  0  0  0
  2 15  1  0  0  0  0
  2 13  1  0  0  0  0
  4  7  1  0  0  0  0
  4  1  2  0  0  0  0
  5 11  2  0  0  0  0
  5  7  1  0  0  0  0
  7  2  2  0  0  0  0
  8 17  1  0  0  0  0
  9  8  2  0  0  0  0
  9 15  1  0  0  0  0
 10 12  2  0  0  0  0
 10  4  1  0  0  0  0
 11  9  1  0  0  0  0
 12 16  1  0  0  0  0
 13 14  2  0  0  0  0
 14 21  1  0  0  0  0
 15 18  2  0  0  0  0
 16  3  2  0  0  0  0
 17  6  2  0  0  0  0
 18  6  1  0  0  0  0
 19 22  1  0  0  0  0
 19 20  1  0  0  0  0
 21 23  2  0  0  0  0
 21 24  1  0  0  0  0
 23 26  1  0  0  0  0
 24 25  1  0  0  0  0
 24 19  2  0  0  0  0
 26 22  2  0  0  0  0
 28 26  1  0  0  0  0
 28 27  1  0  0  0  0
 29 10  1  0  0  0  0
 30 29  1  0  0  0  0
 31 32  1  0  0  0  0
 31 30  1  0  0  0  0
M  END
>  <MODEL>
1

>  <REMARK>
 VINA RESULT:     -10.6      0.000      0.000
  Name = 
  5 active torsions:
  status: ('A' for Active; 'I' for Inactive)
    1  A    between atoms: O_13  and  C_18
    2  A    between atoms: C_14  and  N_29
    3  A    between atoms: O_15  and  C_26
    4  A    between atoms: C_16  and  C_27
    5  A    between atoms: C_18  and  N_29
                            x       y       z     vdW  Elec       q    Type
                         _______ _______ _______ _____ _____    ______ ____

>  <TORSDO>
F 5

$$$$
=
 OpenBabel10272413123D

 32 36  0  0  0  0  0  0  0  0999 V2000
  189.5760  177.3490  142.6580 C   0  0  0  0  0  0  0  0  0  0  0  0
  186.9630  177.9840  143.3960 C   0  0  0  0  0  0  0  0  0  0  0  0
  190.8710  176.9810  142.2650 C   0  0  0  0  0  3  0  0  0  0  0  0
  189.2600  177.4500  144.0440 C   0  0  0  0  0  0  0  0  0  0  0  0
  187.5520  177.8920  145.7150 N   0  0  0  0  0  0  0  0  0  0  0  0
  183.3410  178.8220  143.1710 C   0  0  0  0  0  3  0  0  0  0  0  0
  187.9280  177.7800  144.4080 C   0  0  0  0  0  0  0  0  0  0  0  0
  183.9930  178.7180  145.5010 C   0  0  0  0  0  3  0  0  0  0  0  0
  185.3020  178.4050  145.1220 C   0  0  0  0  0  0  0  0  0  0  0  0
  190.2880  177.2040  145.0000 C   0  0  0  0  0  0  0  0  0  0  0  0
  186.2820  178.1970  146.0880 C   0  0  0  0  0  3  0  0  0  0  0  0
  191.5720  176.8510  144.5620 C   0  0  0  0  0  3  0  0  0  0  0  0
  187.3140  177.8810  142.0900 N   0  0  0  0  0  0  0  0  0  0  0  0
  188.5780  177.5900  141.6890 C   0  0  0  0  0  0  0  0  0  0  0  0
  185.6410  178.2990  143.7560 C   0  0  0  0  0  0  0  0  0  0  0  0
  191.8630  176.7370  143.2080 C   0  0  0  0  0  3  0  0  0  0  0  0
  183.0150  178.9260  144.5260 C   0  0  0  0  0  3  0  0  0  0  0  0
  184.6490  178.5100  142.7860 C   0  0  0  0  0  3  0  0  0  0  0  0
  188.2070  177.9140  137.9240 C   0  0  0  0  0  0  0  0  0  0  0  0
  187.3380  178.4110  137.0120 F   0  0  0  0  0  0  0  0  0  0  0  0
  188.8410  177.5100  140.2370 C   0  0  0  0  0  0  0  0  0  0  0  0
  189.3730  177.2780  137.4940 C   0  0  0  0  0  3  0  0  0  0  0  0
  189.9980  176.8590  139.7920 C   0  0  0  0  0  3  0  0  0  0  0  0
  187.9320  178.0260  139.2930 C   0  0  0  0  0  0  0  0  0  0  0  0
  186.7690  178.6010  139.6920 F   0  0  0  0  0  0  0  0  0  0  0  0
  190.2750  176.7430  138.4270 C   0  0  0  0  0  0  0  0  0  0  0  0
  192.7410  176.5590  138.3830 C   0  0  0  0  0  1  0  0  0  0  0  0
  191.4460  176.0930  138.0270 O   0  0  0  0  0  0  0  0  0  0  0  0
  190.0370  177.3060  146.4070 N   0  0  0  0  0  2  0  0  0  0  0  0
  190.6270  176.4150  147.3950 C   0  0  0  0  0  2  0  0  0  0  0  0
  191.8760  176.9030  147.7740 O   0  0  0  0  0  0  0  0  0  0  0  0
  192.6350  175.7630  148.0270 C   0  0  0  0  0  1  0  0  0  0  0  0
  1  4  1  0  0  0  0
  2 15  2  0  0  0  0
  2  7  1  0  0  0  0
  3  1  2  0  0  0  0
  3 16  1  0  0  0  0
  4  7  1  0  0  0  0
  4 10  2  0  0  0  0
  5 11  1  0  0  0  0
  6 17  1  0  0  0  0
  7  5  2  0  0  0  0
  9  8  1  0  0  0  0
  9 11  2  0  0  0  0
 10 29  1  0  0  0  0
 12 10  1  0  0  0  0
 13  2  1  0  0  0  0
 14 13  2  0  0  0  0
 14  1  1  0  0  0  0
 15  9  1  0  0  0  0
 16 12  2  0  0  0  0
 17  8  2  0  0  0  0
 18  6  2  0  0  0  0
 18 15  1  0  0  0  0
 19 24  1  0  0  0  0
 20 19  1  0  0  0  0
 21 14  1  0  0  0  0
 22 19  2  0  0  0  0
 22 26  1  0  0  0  0
 23 21  1  0  0  0  0
 24 25  1  0  0  0  0
 24 21  2  0  0  0  0
 26 23  2  0  0  0  0
 28 27  1  0  0  0  0
 28 26  1  0  0  0  0
 29 30  1  0  0  0  0
 30 31  1  0  0  0  0
 31 32  1  0  0  0  0
M  END
>  <MODEL>
2

>  <REMARK>
 VINA RESULT:     -10.5      2.736      6.539
  Name = 
  5 active torsions:
  status: ('A' for Active; 'I' for Inactive)
    1  A    between atoms: O_13  and  C_18
    2  A    between atoms: C_14  and  N_29
    3  A    between atoms: O_15  and  C_26
    4  A    between atoms: C_16  and  C_27
    5  A    between atoms: C_18  and  N_29
                            x       y       z     vdW  Elec       q    Type
                         _______ _______ _______ _____ _____    ______ ____

>  <TORSDO>
F 5

$$$$
=
 OpenBabel10272413123D

 32 36  0  0  0  0  0  0  0  0999 V2000
  187.4500  178.0890  141.4710 C   0  0  0  0  0  0  0  0  0  0  0  0
  188.9170  177.4710  143.7610 C   0  0  0  0  0  0  0  0  0  0  0  0
  186.6820  178.3530  140.3270 C   0  0  0  0  0  3  0  0  0  0  0  0
  188.8360  177.7880  141.3370 C   0  0  0  0  0  0  0  0  0  0  0  0
  190.9040  177.1810  142.4580 N   0  0  0  0  0  0  0  0  0  0  0  0
  189.7800  176.8160  147.3240 C   0  0  0  0  0  3  0  0  0  0  0  0
  189.5750  177.4810  142.5090 C   0  0  0  0  0  0  0  0  0  0  0  0
  191.7610  176.5370  145.9570 C   0  0  0  0  0  3  0  0  0  0  0  0
  191.0180  176.8540  144.8160 C   0  0  0  0  0  0  0  0  0  0  0  0
  189.4150  177.7960  140.0350 C   0  0  0  0  0  0  0  0  0  0  0  0
  191.6290  176.8740  143.5650 C   0  0  0  0  0  3  0  0  0  0  0  0
  188.6130  178.0770  138.9200 C   0  0  0  0  0  3  0  0  0  0  0  0
  187.5950  177.7700  143.8370 N   0  0  0  0  0  0  0  0  0  0  0  0
  186.8500  178.0910  142.7490 C   0  0  0  0  0  0  0  0  0  0  0  0
  189.6440  177.1550  144.9210 C   0  0  0  0  0  0  0  0  0  0  0  0
  187.2580  178.3500  139.0610 C   0  0  0  0  0  3  0  0  0  0  0  0
  191.1410  176.5200  147.2100 C   0  0  0  0  0  3  0  0  0  0  0  0
  189.0330  177.1340  146.1850 C   0  0  0  0  0  3  0  0  0  0  0  0
  183.5340  178.9170  144.4040 C   0  0  0  0  0  0  0  0  0  0  0  0
  183.0270  179.1520  145.6380 F   0  0  0  0  0  0  0  0  0  0  0  0
  185.4200  178.4030  142.9580 C   0  0  0  0  0  0  0  0  0  0  0  0
  182.6880  178.9360  143.2930 C   0  0  0  0  0  3  0  0  0  0  0  0
  184.5590  178.4080  141.8540 C   0  0  0  0  0  3  0  0  0  0  0  0
  184.8980  178.6430  144.2430 C   0  0  0  0  0  0  0  0  0  0  0  0
  185.6960  178.5770  145.3400 F   0  0  0  0  0  0  0  0  0  0  0  0
  183.1970  178.6780  142.0110 C   0  0  0  0  0  0  0  0  0  0  0  0
  180.9560  178.7200  140.9650 C   0  0  0  0  0  1  0  0  0  0  0  0
  182.3740  178.6820  140.8800 O   0  0  0  0  0  0  0  0  0  0  0  0
  190.8070  177.5170  139.8360 N   0  0  0  0  0  2  0  0  0  0  0  0
  191.3190  176.7390  138.7180 C   0  0  0  0  0  2  0  0  0  0  0  0
  190.8490  175.4300  138.8070 O   0  0  0  0  0  0  0  0  0  0  0  0
  190.4970  175.0950  137.5020 C   0  0  0  0  0  1  0  0  0  0  0  0
  1 14  1  0  0  0  0
  2 13  1  0  0  0  0
  2 15  1  0  0  0  0
  3  1  1  0  0  0  0
  4  1  2  0  0  0  0
  4  7  1  0  0  0  0
  5  7  1  0  0  0  0
  5 11  2  0  0  0  0
  7  2  2  0  0  0  0
  8 17  2  0  0  0  0
  9 15  2  0  0  0  0
  9  8  1  0  0  0  0
 10  4  1  0  0  0  0
 11  9  1  0  0  0  0
 12 16  1  0  0  0  0
 12 10  2  0  0  0  0
 14 21  1  0  0  0  0
 14 13  2  0  0  0  0
 15 18  1  0  0  0  0
 16  3  2  0  0  0  0
 17  6  1  0  0  0  0
 18  6  2  0  0  0  0
 19 20  1  0  0  0  0
 21 24  2  0  0  0  0
 22 19  2  0  0  0  0
 23 26  2  0  0  0  0
 23 21  1  0  0  0  0
 24 19  1  0  0  0  0
 24 25  1  0  0  0  0
 26 22  1  0  0  0  0
 28 27  1  0  0  0  0
 28 26  1  0  0  0  0
 29 10  1  0  0  0  0
 30 31  1  0  0  0  0
 30 29  1  0  0  0  0
 32 31  1  0  0  0  0
M  END
>  <MODEL>
3

>  <REMARK>
 VINA RESULT:     -10.3      2.288      6.315
  Name = 
  5 active torsions:
  status: ('A' for Active; 'I' for Inactive)
    1  A    between atoms: O_13  and  C_18
    2  A    between atoms: C_14  and  N_29
    3  A    between atoms: O_15  and  C_26
    4  A    between atoms: C_16  and  C_27
    5  A    between atoms: C_18  and  N_29
                            x       y       z     vdW  Elec       q    Type
                         _______ _______ _______ _____ _____    ______ ____

>  <TORSDO>
F 5

$$$$
=
 OpenBabel10272413123D

 32 36  0  0  0  0  0  0  0  0999 V2000
  187.5720  177.9170  143.7710 C   0  0  0  0  0  0  0  0  0  0  0  0
  188.9680  177.5430  141.3860 C   0  0  0  0  0  0  0  0  0  0  0  0
  186.8740  178.0500  144.9810 C   0  0  0  0  0  3  0  0  0  0  0  0
  186.9090  178.1840  142.5390 C   0  0  0  0  0  0  0  0  0  0  0  0
  187.0600  178.2310  140.1140 N   0  0  0  0  0  0  0  0  0  0  0  0
  191.6960  176.7070  138.9920 C   0  0  0  0  0  3  0  0  0  0  0  0
  187.6300  177.9970  141.3310 C   0  0  0  0  0  0  0  0  0  0  0  0
  189.7350  177.4130  137.7560 C   0  0  0  0  0  3  0  0  0  0  0  0
  189.0450  177.6030  138.9570 C   0  0  0  0  0  0  0  0  0  0  0  0
  185.5510  178.6150  142.5730 C   0  0  0  0  0  0  0  0  0  0  0  0
  187.7270  178.0490  138.9450 C   0  0  0  0  0  3  0  0  0  0  0  0
  184.8950  178.7460  143.8040 C   0  0  0  0  0  3  0  0  0  0  0  0
  189.5580  177.3070  142.5850 N   0  0  0  0  0  0  0  0  0  0  0  0
  188.9190  177.4920  143.7680 C   0  0  0  0  0  0  0  0  0  0  0  0
  189.6800  177.3450  140.1900 C   0  0  0  0  0  0  0  0  0  0  0  0
  185.5470  178.4640  144.9990 C   0  0  0  0  0  3  0  0  0  0  0  0
  191.0590  176.9660  137.7740 C   0  0  0  0  0  3  0  0  0  0  0  0
  191.0100  176.8960  140.1960 C   0  0  0  0  0  3  0  0  0  0  0  0
  191.5140  176.1650  146.2010 C   0  0  0  0  0  0  0  0  0  0  0  0
  192.6470  175.4220  146.1980 F   0  0  0  0  0  0  0  0  0  0  0  0
  189.6680  177.2060  145.0100 C   0  0  0  0  0  0  0  0  0  0  0  0
  191.0110  176.6550  147.4080 C   0  0  0  0  0  3  0  0  0  0  0  0
  189.1640  177.6770  146.2290 C   0  0  0  0  0  3  0  0  0  0  0  0
  190.8430  176.4310  145.0010 C   0  0  0  0  0  0  0  0  0  0  0  0
  191.3170  175.9040  143.8430 F   0  0  0  0  0  0  0  0  0  0  0  0
  189.8300  177.4110  147.4290 C   0  0  0  0  0  0  0  0  0  0  0  0
  187.8990  178.0380  148.8410 C   0  0  0  0  0  1  0  0  0  0  0  0
  189.2970  177.9080  148.6220 O   0  0  0  0  0  0  0  0  0  0  0  0
  184.8340  178.9150  141.3690 N   0  0  0  0  0  2  0  0  0  0  0  0
  183.5460  178.3260  141.0330 C   0  0  0  0  0  2  0  0  0  0  0  0
  182.8960  179.1300  140.0990 O   0  0  0  0  0  0  0  0  0  0  0  0
  183.9040  179.5350  139.2250 C   0  0  0  0  0  1  0  0  0  0  0  0
  1  3  2  0  0  0  0
  2 13  1  0  0  0  0
  3 16  1  0  0  0  0
  4 10  2  0  0  0  0
  4  1  1  0  0  0  0
  5  7  2  0  0  0  0
  6 18  2  0  0  0  0
  7  2  1  0  0  0  0
  7  4  1  0  0  0  0
  8 17  2  0  0  0  0
  8  9  1  0  0  0  0
  9 15  1  0  0  0  0
 10 12  1  0  0  0  0
 11  9  2  0  0  0  0
 11  5  1  0  0  0  0
 12 16  2  0  0  0  0
 13 14  2  0  0  0  0
 14  1  1  0  0  0  0
 14 21  1  0  0  0  0
 15 18  1  0  0  0  0
 15  2  2  0  0  0  0
 17  6  1  0  0  0  0
 19 22  1  0  0  0  0
 20 19  1  0  0  0  0
 21 23  2  0  0  0  0
 22 26  2  0  0  0  0
 23 26  1  0  0  0  0
 24 21  1  0  0  0  0
 24 19  2  0  0  0  0
 25 24  1  0  0  0  0
 26 28  1  0  0  0  0
 28 27  1  0  0  0  0
 29 10  1  0  0  0  0
 30 29  1  0  0  0  0
 31 30  1  0  0  0  0
 32 31  1  0  0  0  0
M  END
>  <MODEL>
4

>  <REMARK>
 VINA RESULT:     -10.0      2.355      5.137
  Name = 
  5 active torsions:
  status: ('A' for Active; 'I' for Inactive)
    1  A    between atoms: O_13  and  C_18
    2  A    between atoms: C_14  and  N_29
    3  A    between atoms: O_15  and  C_26
    4  A    between atoms: C_16  and  C_27
    5  A    between atoms: C_18  and  N_29
                            x       y       z     vdW  Elec       q    Type
                         _______ _______ _______ _____ _____    ______ ____

>  <TORSDO>
F 5

$$$$
=
 OpenBabel10272413123D

 32 36  0  0  0  0  0  0  0  0999 V2000
  186.6480  177.9850  144.1670 C   0  0  0  0  0  0  0  0  0  0  0  0
  188.4060  177.7020  142.0200 C   0  0  0  0  0  0  0  0  0  0  0  0
  185.7570  178.1810  145.2330 C   0  0  0  0  0  3  0  0  0  0  0  0
  188.0160  177.6870  144.4350 C   0  0  0  0  0  0  0  0  0  0  0  0
  190.2230  177.2550  143.5150 N   0  0  0  0  0  0  0  0  0  0  0  0
  189.7320  177.5820  138.5420 C   0  0  0  0  0  3  0  0  0  0  0  0
  188.9000  177.5390  143.3350 C   0  0  0  0  0  0  0  0  0  0  0  0
  191.5330  177.1340  140.1000 C   0  0  0  0  0  3  0  0  0  0  0  0
  190.6430  177.2720  141.1690 C   0  0  0  0  0  0  0  0  0  0  0  0
  188.4360  177.5630  145.7910 C   0  0  0  0  0  0  0  0  0  0  0  0
  191.0900  177.1190  142.4780 C   0  0  0  0  0  3  0  0  0  0  0  0
  187.5090  177.7560  146.8240 C   0  0  0  0  0  3  0  0  0  0  0  0
  187.0940  177.9810  141.8160 N   0  0  0  0  0  0  0  0  0  0  0  0
  186.2040  178.1100  142.8330 C   0  0  0  0  0  0  0  0  0  0  0  0
  189.2840  177.5680  140.9310 C   0  0  0  0  0  0  0  0  0  0  0  0
  186.1820  178.0650  146.5510 C   0  0  0  0  0  3  0  0  0  0  0  0
  191.0760  177.2880  138.7880 C   0  0  0  0  0  3  0  0  0  0  0  0
  188.8370  177.7210  139.6090 C   0  0  0  0  0  3  0  0  0  0  0  0
  183.0720  178.9930  140.8760 C   0  0  0  0  0  0  0  0  0  0  0  0
  182.6910  179.2660  139.6050 F   0  0  0  0  0  0  0  0  0  0  0  0
  184.7980  178.4100  142.4860 C   0  0  0  0  0  0  0  0  0  0  0  0
  182.1250  179.0230  141.9030 C   0  0  0  0  0  3  0  0  0  0  0  0
  183.8430  178.4590  143.5090 C   0  0  0  0  0  3  0  0  0  0  0  0
  184.4090  178.6960  141.1630 C   0  0  0  0  0  0  0  0  0  0  0  0
  185.3250  178.7230  140.1610 F   0  0  0  0  0  0  0  0  0  0  0  0
  182.5070  178.7580  143.2270 C   0  0  0  0  0  0  0  0  0  0  0  0
  180.2050  178.4990  144.0940 C   0  0  0  0  0  1  0  0  0  0  0  0
  181.5850  178.7880  144.2770 O   0  0  0  0  0  0  0  0  0  0  0  0
  189.7940  177.2500  146.1250 N   0  0  0  0  0  2  0  0  0  0  0  0
  190.2330  176.9130  147.4710 C   0  0  0  0  0  2  0  0  0  0  0  0
  191.6210  177.0060  147.5440 O   0  0  0  0  0  0  0  0  0  0  0  0
  192.0800  175.7860  147.0500 C   0  0  0  0  0  1  0  0  0  0  0  0
  1  4  1  0  0  0  0
  1  3  2  0  0  0  0
  2  7  1  0  0  0  0
  3 16  1  0  0  0  0
  4 10  2  0  0  0  0
  6 17  1  0  0  0  0
  6 18  2  0  0  0  0
  7  5  2  0  0  0  0
  7  4  1  0  0  0  0
  8  9  1  0  0  0  0
  9 11  2  0  0  0  0
 10 29  1  0  0  0  0
 10 12  1  0  0  0  0
 11  5  1  0  0  0  0
 13  2  1  0  0  0  0
 13 14  2  0  0  0  0
 14  1  1  0  0  0  0
 15  9  1  0  0  0  0
 15  2  2  0  0  0  0
 16 12  2  0  0  0  0
 17  8  2  0  0  0  0
 18 15  1  0  0  0  0
 19 24  2  0  0  0  0
 19 22  1  0  0  0  0
 20 19  1  0  0  0  0
 21 14  1  0  0  0  0
 21 23  2  0  0  0  0
 22 26  2  0  0  0  0
 24 21  1  0  0  0  0
 25 24  1  0  0  0  0
 26 23  1  0  0  0  0
 26 28  1  0  0  0  0
 27 28  1  0  0  0  0
 29 30  1  0  0  0  0
 30 31  1  0  0  0  0
 32 31  1  0  0  0  0
M  END
>  <MODEL>
5

>  <REMARK>
 VINA RESULT:     -10.0      2.897      7.697
  Name = 
  5 active torsions:
  status: ('A' for Active; 'I' for Inactive)
    1  A    between atoms: O_13  and  C_18
    2  A    between atoms: C_14  and  N_29
    3  A    between atoms: O_15  and  C_26
    4  A    between atoms: C_16  and  C_27
    5  A    between atoms: C_18  and  N_29
                            x       y       z     vdW  Elec       q    Type
                         _______ _______ _______ _____ _____    ______ ____

>  <TORSDO>
F 5

$$$$
=
 OpenBabel10272413123D

 32 36  0  0  0  0  0  0  0  0999 V2000
  189.4090  177.6110  142.9920 C   0  0  0  0  0  0  0  0  0  0  0  0
  186.6830  178.1280  143.2750 C   0  0  0  0  0  0  0  0  0  0  0  0
  190.7670  177.3000  142.8270 C   0  0  0  0  0  3  0  0  0  0  0  0
  188.8720  177.7600  144.3030 C   0  0  0  0  0  0  0  0  0  0  0  0
  186.9000  178.1820  145.6590 N   0  0  0  0  0  0  0  0  0  0  0  0
  183.1060  178.7420  142.4400 C   0  0  0  0  0  3  0  0  0  0  0  0
  187.4850  178.0290  144.4360 C   0  0  0  0  0  0  0  0  0  0  0  0
  183.3840  178.7880  144.8460 C   0  0  0  0  0  3  0  0  0  0  0  0
  184.7510  178.5340  144.6940 C   0  0  0  0  0  0  0  0  0  0  0  0
  189.7450  177.6200  145.4200 C   0  0  0  0  0  0  0  0  0  0  0  0
  185.5740  178.4300  145.8110 C   0  0  0  0  0  3  0  0  0  0  0  0
  191.0990  177.3220  145.2090 C   0  0  0  0  0  3  0  0  0  0  0  0
  187.2420  177.9830  142.0480 N   0  0  0  0  0  0  0  0  0  0  0  0
  188.5670  177.7460  141.8670 C   0  0  0  0  0  0  0  0  0  0  0  0
  185.3070  178.3820  143.4060 C   0  0  0  0  0  0  0  0  0  0  0  0
  191.6070  177.1590  143.9260 C   0  0  0  0  0  3  0  0  0  0  0  0
  182.5640  178.8930  143.7190 C   0  0  0  0  0  3  0  0  0  0  0  0
  184.4730  178.4890  142.2820 C   0  0  0  0  0  3  0  0  0  0  0  0
  190.4690  176.5490  138.8060 C   0  0  0  0  0  0  0  0  0  0  0  0
  191.3800  175.6080  138.4600 F   0  0  0  0  0  0  0  0  0  0  0  0
  189.0610  177.6120  140.4800 C   0  0  0  0  0  0  0  0  0  0  0  0
  189.9990  177.4450  137.8430 C   0  0  0  0  0  3  0  0  0  0  0  0
  188.6100  178.5140  139.5090 C   0  0  0  0  0  3  0  0  0  0  0  0
  190.0100  176.6330  140.1270 C   0  0  0  0  0  0  0  0  0  0  0  0
  190.5160  175.7890  141.0610 F   0  0  0  0  0  0  0  0  0  0  0  0
  189.0680  178.4350  138.1910 C   0  0  0  0  0  0  0  0  0  0  0  0
  187.5000  179.0580  136.3820 C   0  0  0  0  0  1  0  0  0  0  0  0
  188.5860  179.3510  137.2510 O   0  0  0  0  0  0  0  0  0  0  0  0
  189.2690  177.7750  146.7630 N   0  0  0  0  0  2  0  0  0  0  0  0
  189.0570  176.6590  147.6740 C   0  0  0  0  0  2  0  0  0  0  0  0
  188.0840  177.0010  148.6100 O   0  0  0  0  0  0  0  0  0  0  0  0
  188.2490  178.3720  148.8000 C   0  0  0  0  0  1  0  0  0  0  0  0
  1  4  1  0  0  0  0
  2 15  2  0  0  0  0
  2  7  1  0  0  0  0
  3  1  2  0  0  0  0
  3 16  1  0  0  0  0
  4  7  1  0  0  0  0
  4 10  2  0  0  0  0
  5 11  1  0  0  0  0
  6 17  1  0  0  0  0
  7  5  2  0  0  0  0
  9  8  1  0  0  0  0
  9 11  2  0  0  0  0
 10 29  1  0  0  0  0
 12 10  1  0  0  0  0
 13  2  1  0  0  0  0
 14 13  2  0  0  0  0
 14  1  1  0  0  0  0
 15  9  1  0  0  0  0
 16 12  2  0  0  0  0
 17  8  2  0  0  0  0
 18  6  2  0  0  0  0
 18 15  1  0  0  0  0
 19 24  1  0  0  0  0
 20 19  1  0  0  0  0
 21 14  1  0  0  0  0
 22 26  1  0  0  0  0
 22 19  2  0  0  0  0
 23 21  1  0  0  0  0
 24 21  2  0  0  0  0
 24 25  1  0  0  0  0
 26 23  2  0  0  0  0
 27 28  1  0  0  0  0
 28 26  1  0  0  0  0
 29 30  1  0  0  0  0
 30 31  1  0  0  0  0
 31 32  1  0  0  0  0
M  END
>  <MODEL>
6

>  <REMARK>
 VINA RESULT:      -9.9      2.626      6.670
  Name = 
  5 active torsions:
  status: ('A' for Active; 'I' for Inactive)
    1  A    between atoms: O_13  and  C_18
    2  A    between atoms: C_14  and  N_29
    3  A    between atoms: O_15  and  C_26
    4  A    between atoms: C_16  and  C_27
    5  A    between atoms: C_18  and  N_29
                            x       y       z     vdW  Elec       q    Type
                         _______ _______ _______ _____ _____    ______ ____

>  <TORSDO>
F 5

$$$$
=
 OpenBabel10272413123D

 32 36  0  0  0  0  0  0  0  0999 V2000
  187.5670  177.9870  141.6130 C   0  0  0  0  0  0  0  0  0  0  0  0
  189.0140  177.4000  143.9230 C   0  0  0  0  0  0  0  0  0  0  0  0
  186.8760  178.3230  140.4390 C   0  0  0  0  0  3  0  0  0  0  0  0
  186.9400  178.1680  142.8790 C   0  0  0  0  0  0  0  0  0  0  0  0
  187.1490  178.0110  145.2950 N   0  0  0  0  0  0  0  0  0  0  0  0
  191.7950  176.3630  146.1730 C   0  0  0  0  0  3  0  0  0  0  0  0
  187.6830  177.8610  144.0490 C   0  0  0  0  0  0  0  0  0  0  0  0
  189.8760  176.9910  147.5120 C   0  0  0  0  0  3  0  0  0  0  0  0
  189.1570  177.2770  146.3470 C   0  0  0  0  0  0  0  0  0  0  0  0
  185.6030  178.6600  142.9170 C   0  0  0  0  0  0  0  0  0  0  0  0
  187.8440  177.7330  146.4280 C   0  0  0  0  0  3  0  0  0  0  0  0
  184.9450  178.9720  141.7190 C   0  0  0  0  0  3  0  0  0  0  0  0
  189.5660  177.2390  142.6940 N   0  0  0  0  0  0  0  0  0  0  0  0
  188.8900  177.4980  141.5460 C   0  0  0  0  0  0  0  0  0  0  0  0
  189.7560  177.1070  145.0810 C   0  0  0  0  0  0  0  0  0  0  0  0
  185.5740  178.8100  140.4910 C   0  0  0  0  0  3  0  0  0  0  0  0
  191.1940  176.5340  147.4230 C   0  0  0  0  0  3  0  0  0  0  0  0
  191.0800  176.6470  145.0050 C   0  0  0  0  0  3  0  0  0  0  0  0
  191.6320  176.9910  138.9690 C   0  0  0  0  0  0  0  0  0  0  0  0
  192.9820  176.8890  138.9040 F   0  0  0  0  0  0  0  0  0  0  0  0
  189.5950  177.2800  140.2650 C   0  0  0  0  0  0  0  0  0  0  0  0
  190.8760  176.9200  137.7970 C   0  0  0  0  0  3  0  0  0  0  0  0
  188.8500  177.2240  139.0810 C   0  0  0  0  0  3  0  0  0  0  0  0
  190.9980  177.1790  140.2030 C   0  0  0  0  0  0  0  0  0  0  0  0
  191.7520  177.2970  141.3260 F   0  0  0  0  0  0  0  0  0  0  0  0
  189.4790  177.0400  137.8470 C   0  0  0  0  0  0  0  0  0  0  0  0
  187.4660  177.6840  136.5610 C   0  0  0  0  0  1  0  0  0  0  0  0
  188.6950  176.9820  136.6910 O   0  0  0  0  0  0  0  0  0  0  0  0
  184.9130  178.8480  144.1580 N   0  0  0  0  0  2  0  0  0  0  0  0
  183.6280  179.5250  144.2690 C   0  0  0  0  0  2  0  0  0  0  0  0
  182.6150  178.5780  144.4080 O   0  0  0  0  0  0  0  0  0  0  0  0
  181.6210  178.9970  143.5260 C   0  0  0  0  0  1  0  0  0  0  0  0
  1  4  1  0  0  0  0
  2  7  1  0  0  0  0
  2 15  1  0  0  0  0
  3 16  2  0  0  0  0
  3  1  1  0  0  0  0
  4 10  1  0  0  0  0
  4  7  2  0  0  0  0
  5 11  2  0  0  0  0
  6 17  1  0  0  0  0
  7  5  1  0  0  0  0
  9 11  1  0  0  0  0
  9  8  1  0  0  0  0
 10 29  1  0  0  0  0
 12 10  2  0  0  0  0
 13  2  2  0  0  0  0
 14  1  2  0  0  0  0
 14 13  1  0  0  0  0
 15  9  2  0  0  0  0
 16 12  1  0  0  0  0
 17  8  2  0  0  0  0
 18 15  1  0  0  0  0
 18  6  2  0  0  0  0
 19 24  1  0  0  0  0
 20 19  1  0  0  0  0
 21 14  1  0  0  0  0
 22 26  1  0  0  0  0
 22 19  2  0  0  0  0
 23 21  1  0  0  0  0
 24 21  2  0  0  0  0
 24 25  1  0  0  0  0
 26 23  2  0  0  0  0
 27 28  1  0  0  0  0
 28 26  1  0  0  0  0
 29 30  1  0  0  0  0
 30 31  1  0  0  0  0
 32 31  1  0  0  0  0
M  END
>  <MODEL>
7

>  <REMARK>
 VINA RESULT:      -9.8      3.046      7.363
  Name = 
  5 active torsions:
  status: ('A' for Active; 'I' for Inactive)
    1  A    between atoms: O_13  and  C_18
    2  A    between atoms: C_14  and  N_29
    3  A    between atoms: O_15  and  C_26
    4  A    between atoms: C_16  and  C_27
    5  A    between atoms: C_18  and  N_29
                            x       y       z     vdW  Elec       q    Type
                         _______ _______ _______ _____ _____    ______ ____

>  <TORSDO>
F 5

$$$$
=
 OpenBabel10272413123D

 32 36  0  0  0  0  0  0  0  0999 V2000
  186.3140  178.1580  144.2390 C   0  0  0  0  0  0  0  0  0  0  0  0
  186.9420  178.1450  141.5220 C   0  0  0  0  0  0  0  0  0  0  0  0
  186.0090  178.1090  145.6070 C   0  0  0  0  0  3  0  0  0  0  0  0
  185.2920  178.4710  143.2970 C   0  0  0  0  0  0  0  0  0  0  0  0
  184.6970  178.7560  140.9590 N   0  0  0  0  0  0  0  0  0  0  0  0
  188.8640  177.8070  138.3490 C   0  0  0  0  0  3  0  0  0  0  0  0
  185.6240  178.4670  141.9170 C   0  0  0  0  0  0  0  0  0  0  0  0
  186.5790  178.4270  137.8370 C   0  0  0  0  0  3  0  0  0  0  0  0
  186.2750  178.4370  139.2020 C   0  0  0  0  0  0  0  0  0  0  0  0
  183.9830  178.7610  143.7790 C   0  0  0  0  0  0  0  0  0  0  0  0
  184.9890  178.7490  139.6320 C   0  0  0  0  0  3  0  0  0  0  0  0
  183.7250  178.7120  145.1560 C   0  0  0  0  0  3  0  0  0  0  0  0
  187.8830  177.8580  142.4570 N   0  0  0  0  0  0  0  0  0  0  0  0
  187.6210  177.8690  143.7890 C   0  0  0  0  0  0  0  0  0  0  0  0
  187.2690  178.1290  140.1550 C   0  0  0  0  0  0  0  0  0  0  0  0
  184.7250  178.3860  146.0640 C   0  0  0  0  0  3  0  0  0  0  0  0
  187.8730  178.1130  137.4130 C   0  0  0  0  0  3  0  0  0  0  0  0
  188.5650  177.8150  139.7160 C   0  0  0  0  0  3  0  0  0  0  0  0
  190.8840  176.5250  145.1920 C   0  0  0  0  0  0  0  0  0  0  0  0
  191.9790  175.8410  144.7830 F   0  0  0  0  0  0  0  0  0  0  0  0
  188.7290  177.5450  144.7130 C   0  0  0  0  0  0  0  0  0  0  0  0
  190.7700  176.9140  146.5280 C   0  0  0  0  0  3  0  0  0  0  0  0
  188.6190  177.9140  146.0590 C   0  0  0  0  0  3  0  0  0  0  0  0
  189.8630  176.8300  144.2830 C   0  0  0  0  0  0  0  0  0  0  0  0
  189.9660  176.4000  142.9990 F   0  0  0  0  0  0  0  0  0  0  0  0
  189.6340  177.6090  146.9700 C   0  0  0  0  0  0  0  0  0  0  0  0
  188.2270  178.0360  148.9590 C   0  0  0  0  0  1  0  0  0  0  0  0
  189.4880  178.0040  148.3030 O   0  0  0  0  0  0  0  0  0  0  0  0
  182.9160  179.0980  142.8840 N   0  0  0  0  0  2  0  0  0  0  0  0
  181.5160  179.1360  143.2800 C   0  0  0  0  0  2  0  0  0  0  0  0
  180.7430  178.4920  142.3160 O   0  0  0  0  0  0  0  0  0  0  0  0
  181.0630  179.1380  141.1230 C   0  0  0  0  0  1  0  0  0  0  0  0
  1  3  2  0  0  0  0
  2  7  1  0  0  0  0
  2 13  1  0  0  0  0
  3 16  1  0  0  0  0
  4 10  2  0  0  0  0
  4  1  1  0  0  0  0
  5  7  2  0  0  0  0
  6 18  2  0  0  0  0
  7  4  1  0  0  0  0
  8  9  1  0  0  0  0
  9 11  2  0  0  0  0
  9 15  1  0  0  0  0
 10 12  1  0  0  0  0
 11  5  1  0  0  0  0
 12 16  2  0  0  0  0
 13 14  2  0  0  0  0
 14  1  1  0  0  0  0
 14 21  1  0  0  0  0
 15  2  2  0  0  0  0
 17  8  2  0  0  0  0
 17  6  1  0  0  0  0
 18 15  1  0  0  0  0
 19 22  1  0  0  0  0
 20 19  1  0  0  0  0
 21 23  2  0  0  0  0
 22 26  2  0  0  0  0
 23 26  1  0  0  0  0
 24 21  1  0  0  0  0
 24 19  2  0  0  0  0
 25 24  1  0  0  0  0
 26 28  1  0  0  0  0
 28 27  1  0  0  0  0
 29 30  1  0  0  0  0
 29 10  1  0  0  0  0
 31 30  1  0  0  0  0
 32 31  1  0  0  0  0
M  END
>  <MODEL>
8

>  <REMARK>
 VINA RESULT:      -9.8      2.585      5.130
  Name = 
  5 active torsions:
  status: ('A' for Active; 'I' for Inactive)
    1  A    between atoms: O_13  and  C_18
    2  A    between atoms: C_14  and  N_29
    3  A    between atoms: O_15  and  C_26
    4  A    between atoms: C_16  and  C_27
    5  A    between atoms: C_18  and  N_29
                            x       y       z     vdW  Elec       q    Type
                         _______ _______ _______ _____ _____    ______ ____

>  <TORSDO>
F 5

$$$$
=
 OpenBabel10272413123D

 32 36  0  0  0  0  0  0  0  0999 V2000
  186.0520  178.3240  141.8660 C   0  0  0  0  0  0  0  0  0  0  0  0
  187.1070  178.0730  144.4350 C   0  0  0  0  0  0  0  0  0  0  0  0
  185.5540  178.4970  140.5660 C   0  0  0  0  0  3  0  0  0  0  0  0
  185.1800  178.4710  142.9820 C   0  0  0  0  0  0  0  0  0  0  0  0
  184.9510  178.4630  145.4010 N   0  0  0  0  0  0  0  0  0  0  0  0
  189.5330  177.5730  147.2170 C   0  0  0  0  0  3  0  0  0  0  0  0
  185.7260  178.3350  144.2850 C   0  0  0  0  0  0  0  0  0  0  0  0
  187.3280  177.9710  148.1400 C   0  0  0  0  0  3  0  0  0  0  0  0
  186.8080  178.0900  146.8480 C   0  0  0  0  0  0  0  0  0  0  0  0
  183.8050  178.7580  142.7430 C   0  0  0  0  0  0  0  0  0  0  0  0
  185.4530  178.3470  146.6580 C   0  0  0  0  0  3  0  0  0  0  0  0
  183.3470  178.9100  141.4270 C   0  0  0  0  0  3  0  0  0  0  0  0
  187.8970  177.9380  143.3400 N   0  0  0  0  0  0  0  0  0  0  0  0
  187.4190  178.0370  142.0730 C   0  0  0  0  0  0  0  0  0  0  0  0
  187.6510  177.9510  145.7250 C   0  0  0  0  0  0  0  0  0  0  0  0
  184.2110  178.7850  140.3470 C   0  0  0  0  0  3  0  0  0  0  0  0
  188.6890  177.7120  148.3230 C   0  0  0  0  0  3  0  0  0  0  0  0
  189.0160  177.6910  145.9220 C   0  0  0  0  0  3  0  0  0  0  0  0
  190.3930  176.9020  140.0040 C   0  0  0  0  0  0  0  0  0  0  0  0
  191.4740  176.0910  140.1070 F   0  0  0  0  0  0  0  0  0  0  0  0
  188.3760  177.8650  140.9590 C   0  0  0  0  0  0  0  0  0  0  0  0
  190.1820  177.6250  138.8280 C   0  0  0  0  0  3  0  0  0  0  0  0
  188.1840  178.5990  139.7810 C   0  0  0  0  0  3  0  0  0  0  0  0
  189.4990  177.0240  141.0740 C   0  0  0  0  0  0  0  0  0  0  0  0
  189.7480  176.3540  142.2280 F   0  0  0  0  0  0  0  0  0  0  0  0
  189.0760  178.4810  138.7120 C   0  0  0  0  0  0  0  0  0  0  0  0
  187.8140  178.8990  136.6270 C   0  0  0  0  0  1  0  0  0  0  0  0
  188.8420  179.2250  137.5520 O   0  0  0  0  0  0  0  0  0  0  0  0
  182.8740  178.9000  143.8240 N   0  0  0  0  0  2  0  0  0  0  0  0
  181.4300  178.8210  143.6560 C   0  0  0  0  0  2  0  0  0  0  0  0
  180.9210  180.0920  143.4010 O   0  0  0  0  0  0  0  0  0  0  0  0
  179.9840  179.8970  142.3880 C   0  0  0  0  0  1  0  0  0  0  0  0
  1 14  2  0  0  0  0
  1  4  1  0  0  0  0
  2 15  1  0  0  0  0
  3  1  1  0  0  0  0
  4  7  2  0  0  0  0
  5 11  2  0  0  0  0
  6 17  1  0  0  0  0
  7  2  1  0  0  0  0
  7  5  1  0  0  0  0
  8 17  2  0  0  0  0
  9  8  1  0  0  0  0
 10  4  1  0  0  0  0
 10 29  1  0  0  0  0
 11  9  1  0  0  0  0
 12 10  2  0  0  0  0
 13  2  2  0  0  0  0
 14 13  1  0  0  0  0
 15 18  1  0  0  0  0
 15  9  2  0  0  0  0
 16  3  2  0  0  0  0
 16 12  1  0  0  0  0
 18  6  2  0  0  0  0
 19 20  1  0  0  0  0
 19 24  1  0  0  0  0
 21 24  2  0  0  0  0
 21 14  1  0  0  0  0
 22 19  2  0  0  0  0
 23 21  1  0  0  0  0
 24 25  1  0  0  0  0
 26 22  1  0  0  0  0
 26 23  2  0  0  0  0
 27 28  1  0  0  0  0
 28 26  1  0  0  0  0
 30 29  1  0  0  0  0
 31 30  1  0  0  0  0
 32 31  1  0  0  0  0
M  END
>  <MODEL>
9

>  <REMARK>
 VINA RESULT:      -9.7      2.813      6.901
  Name = 
  5 active torsions:
  status: ('A' for Active; 'I' for Inactive)
    1  A    between atoms: O_13  and  C_18
    2  A    between atoms: C_14  and  N_29
    3  A    between atoms: O_15  and  C_26
    4  A    between atoms: C_16  and  C_27
    5  A    between atoms: C_18  and  N_29
                            x       y       z     vdW  Elec       q    Type
                         _______ _______ _______ _____ _____    ______ ____

>  <TORSDO>
F 5

$$$$
