=
 OpenBabel10272414133D

 43 48  0  0  1  0  0  0  0  0999 V2000
  186.5660  178.7720  137.0600 N   0  0  0  0  0  0  0  0  0  0  0  0
  186.4790  177.4980  137.2270 C   0  0  0  0  0  0  0  0  0  0  0  0
  187.7930  179.3850  136.6030 C   0  0  0  0  0  2  0  0  0  0  0  0
  187.6660  176.6090  136.9580 C   0  0  0  0  0  2  0  0  0  0  0  0
  189.0030  177.2810  137.3270 C   0  0  1  0  0  3  0  0  0  0  0  0
  188.9660  178.8200  137.3990 C   0  0  0  0  0  2  0  0  0  0  0  0
  185.1990  176.9030  137.7140 C   0  0  0  0  0  2  0  0  0  0  0  0
  182.9090  177.4080  137.8480 C   0  0  0  0  0  2  0  0  0  0  0  0
  183.4710  177.4680  139.1930 C   0  0  1  0  0  3  0  0  0  0  0  0
  184.2580  177.9580  138.0510 N   0  0  0  0  0  0  0  0  0  0  0  0
  182.9040  178.6600  139.9470 C   0  0  2  0  0  3  0  0  0  0  0  0
  183.3700  178.6550  141.3710 C   0  0  0  0  0  0  0  0  0  0  0  0
  182.9310  178.8310  143.7530 C   0  0  0  0  0  3  0  0  0  0  0  0
  185.1870  178.4490  142.9640 C   0  0  0  0  0  3  0  0  0  0  0  0
  184.2890  178.6370  144.0180 C   0  0  0  0  0  3  0  0  0  0  0  0
  184.7280  178.4550  141.6430 C   0  0  0  0  0  3  0  0  0  0  0  0
  182.4710  178.8380  142.4330 C   0  0  0  0  0  3  0  0  0  0  0  0
  181.0820  178.6610  139.8490 S   0  0  0  0  0  0  0  0  0  0  0  0
  181.0050  180.4490  139.5510 C   0  0  1  0  0  3  0  0  0  0  0  0
  179.9920  182.0570  137.9830 C   0  0  0  0  0  1  0  0  0  0  0  0
  182.0630  180.8330  138.5390 C   0  0  0  0  0  2  0  0  0  0  0  0
  180.6210  180.6850  138.1060 C   0  0  1  0  0  3  0  0  0  0  0  0
  189.6300  176.6150  138.5600 C   0  0  1  0  0  3  0  0  0  0  0  0
  193.5920  175.1040  137.7730 C   0  0  0  0  0  0  0  0  0  0  0  0
  191.1890  174.7860  137.6320 C   0  0  0  0  0  0  0  0  0  0  0  0
  193.3960  176.3360  138.3990 C   0  0  0  0  0  3  0  0  0  0  0  0
  194.9700  174.6140  137.5110 C   0  0  0  0  0  1  0  0  0  0  0  0
  190.9890  176.0370  138.2640 C   0  0  0  0  0  0  0  0  0  0  0  0
  192.4920  174.3330  137.3910 C   0  0  0  0  0  3  0  0  0  0  0  0
  192.1020  176.7980  138.6420 C   0  0  0  0  0  3  0  0  0  0  0  0
  189.8490  174.0500  135.8270 O   0  0  0  0  0  1  0  0  0  0  0  0
  190.0520  173.9180  137.2010 C   0  0  0  0  0  2  0  0  0  0  0  0
  189.5590  177.4090  139.8800 C   0  0  1  0  0  3  0  0  0  0  0  0
  188.2740  177.9050  140.1030 O   0  0  0  0  0  1  0  0  0  0  0  0
  190.0090  176.5720  141.0790 C   0  0  0  0  0  2  0  0  0  0  0  0
  188.1870  176.8730  144.4310 C   0  0  0  0  0  3  0  0  0  0  0  0
  189.2030  177.2480  145.2160 C   0  0  0  0  0  0  0  0  0  0  0  0
  190.7800  177.2450  143.3540 C   0  0  0  0  0  3  0  0  0  0  0  0
  188.4430  176.4140  143.0220 C   0  0  0  0  0  2  0  0  0  0  0  0
  189.6070  177.1990  142.4070 C   0  0  2  0  0  3  0  0  0  0  0  0
  190.5750  177.3080  144.6730 C   0  0  0  0  0  3  0  0  0  0  0  0
  188.7450  177.9460  147.7220 C   0  0  0  0  0  3  0  0  0  0  0  0
  188.9510  177.6270  146.5780 C   0  0  0  0  0  0  0  0  0  0  0  0
  1  2  2  0  0  0  0
  2  7  1  0  0  0  0
  3  1  1  0  0  0  0
  3  6  1  0  0  0  0
  4  2  1  0  0  0  0
  4  5  1  0  0  0  0
  5  6  1  0  0  0  0
  5 23  1  1  0  0  0
  7 10  1  0  0  0  0
  8 10  1  0  0  0  0
  8  9  1  0  0  0  0
  9 11  1  1  0  0  0
 10  9  1  0  0  0  0
 11 18  1  1  0  0  0
 11 12  1  0  0  0  0
 12 16  2  0  0  0  0
 12 17  1  0  0  0  0
 13 15  1  0  0  0  0
 14 15  2  0  0  0  0
 16 14  1  0  0  0  0
 17 13  2  0  0  0  0
 19 18  1  6  0  0  0
 21 19  1  0  0  0  0
 22 20  1  1  0  0  0
 22 21  1  0  0  0  0
 22 19  1  0  0  0  0
 23 33  1  1  0  0  0
 24 26  1  0  0  0  0
 25 28  2  0  0  0  0
 26 30  2  0  0  0  0
 27 24  1  0  0  0  0
 28 23  1  0  0  0  0
 28 30  1  0  0  0  0
 29 25  1  0  0  0  0
 29 24  2  0  0  0  0
 31 32  1  0  0  0  0
 32 25  1  0  0  0  0
 33 34  1  1  0  0  0
 33 35  1  0  0  0  0
 36 37  2  0  0  0  0
 37 43  1  0  0  0  0
 38 41  2  0  0  0  0
 39 36  1  0  0  0  0
 40 35  1  6  0  0  0
 40 39  1  0  0  0  0
 40 38  1  0  0  0  0
 41 37  1  0  0  0  0
 43 42  3  0  0  0  0
M  END
>  <MODEL>
1

>  <REMARK>
 VINA RESULT:      -8.2      0.000      0.000
  Name = 
  13 active torsions:
  status: ('A' for Active; 'I' for Inactive)
    1  A    between atoms: C_1  and  C_8
    2  A    between atoms: C_1  and  C_35
    3  A    between atoms: C_4  and  C_14
    4  A    between atoms: C_6  and  C_17
    5  A    between atoms: C_8  and  C_30
    6  A    between atoms: C_10  and  S_41
    7  A    between atoms: C_11  and  C_14
    8  A    between atoms: N_12  and  C_17
    9  A    between atoms: C_14  and  S_41
   10  A    between atoms: C_16  and  C_43
   11  A    between atoms: C_19  and  C_37
   12  A    between atoms: C_21  and  C_30
   13  A    between atoms: C_27  and  C_30
                            x       y       z     vdW  Elec       q    Type
                         _______ _______ _______ _____ _____    ______ ____

>  <TORSDO>
F 13

$$$$
=
 OpenBabel10272414133D

 43 48  0  0  1  0  0  0  0  0999 V2000
  190.4250  176.5380  140.0670 N   0  0  0  0  0  0  0  0  0  0  0  0
  189.4340  177.3440  139.9020 C   0  0  0  0  0  0  0  0  0  0  0  0
  191.5000  176.4670  139.1020 C   0  0  0  0  0  2  0  0  0  0  0  0
  189.3640  178.2320  138.6870 C   0  0  0  0  0  2  0  0  0  0  0  0
  189.9420  177.5580  137.4290 C   0  0  1  0  0  3  0  0  0  0  0  0
  190.9110  176.3890  137.6960 C   0  0  0  0  0  2  0  0  0  0  0  0
  188.3360  177.3780  140.9140 C   0  0  0  0  0  2  0  0  0  0  0  0
  189.7480  178.1800  142.6110 C   0  0  0  0  0  2  0  0  0  0  0  0
  188.3880  178.1260  143.1350 C   0  0  1  0  0  3  0  0  0  0  0  0
  188.8650  177.0670  142.2310 N   0  0  0  0  0  0  0  0  0  0  0  0
  188.3940  177.5970  144.5600 C   0  0  2  0  0  3  0  0  0  0  0  0
  187.1050  177.9240  145.2500 C   0  0  0  0  0  0  0  0  0  0  0  0
  185.8160  178.3220  147.2700 C   0  0  0  0  0  3  0  0  0  0  0  0
  184.7430  178.4530  145.1040 C   0  0  0  0  0  3  0  0  0  0  0  0
  184.6720  178.5390  146.4980 C   0  0  0  0  0  3  0  0  0  0  0  0
  185.9570  178.1480  144.4820 C   0  0  0  0  0  3  0  0  0  0  0  0
  187.0310  178.0170  146.6490 C   0  0  0  0  0  3  0  0  0  0  0  0
  189.8220  178.2650  145.4760 S   0  0  0  0  0  0  0  0  0  0  0  0
  190.3880  176.6180  145.9830 C   0  0  1  0  0  3  0  0  0  0  0  0
  192.1040  175.5700  147.4070 C   0  0  0  0  0  1  0  0  0  0  0  0
  191.5270  176.1820  145.0860 C   0  0  0  0  0  2  0  0  0  0  0  0
  191.8180  176.7230  146.4690 C   0  0  1  0  0  3  0  0  0  0  0  0
  188.8300  177.2260  136.4240 C   0  0  1  0  0  3  0  0  0  0  0  0
  187.9600  173.0020  136.3360 C   0  0  0  0  0  0  0  0  0  0  0  0
  189.1500  174.8910  135.3820 C   0  0  0  0  0  0  0  0  0  0  0  0
  187.3740  173.8440  137.2820 C   0  0  0  0  0  3  0  0  0  0  0  0
  187.6430  171.5510  136.3350 C   0  0  0  0  0  1  0  0  0  0  0  0
  188.5600  175.7460  136.3430 C   0  0  0  0  0  0  0  0  0  0  0  0
  188.8450  173.5240  135.3900 C   0  0  0  0  0  3  0  0  0  0  0  0
  187.6740  175.2080  137.2850 C   0  0  0  0  0  3  0  0  0  0  0  0
  191.3360  174.7540  134.4880 O   0  0  0  0  0  1  0  0  0  0  0  0
  190.1040  175.3920  134.3460 C   0  0  0  0  0  2  0  0  0  0  0  0
  187.5570  178.0930  136.4950 C   0  0  1  0  0  3  0  0  0  0  0  0
  187.8730  179.4520  136.5370 O   0  0  0  0  0  1  0  0  0  0  0  0
  186.6060  177.8150  135.3290 C   0  0  0  0  0  2  0  0  0  0  0  0
  183.6250  175.5190  136.0310 C   0  0  0  0  0  3  0  0  0  0  0  0
  183.3110  175.9170  137.2680 C   0  0  0  0  0  0  0  0  0  0  0  0
  185.0860  177.5910  137.2940 C   0  0  0  0  0  3  0  0  0  0  0  0
  184.8960  175.9920  135.3800 C   0  0  0  0  0  2  0  0  0  0  0  0
  185.2090  177.4310  135.8000 C   0  0  2  0  0  3  0  0  0  0  0  0
  184.1620  176.9010  137.9690 C   0  0  0  0  0  3  0  0  0  0  0  0
  181.1270  174.9870  138.4270 C   0  0  0  0  0  3  0  0  0  0  0  0
  182.1250  175.4110  137.9010 C   0  0  0  0  0  0  0  0  0  0  0  0
  2  1  2  0  0  0  0
  2  7  1  0  0  0  0
  3  1  1  0  0  0  0
  4  2  1  0  0  0  0
  5 23  1  6  0  0  0
  5  6  1  0  0  0  0
  5  4  1  0  0  0  0
  6  3  1  0  0  0  0
  7 10  1  0  0  0  0
  8  9  1  0  0  0  0
  9 11  1  1  0  0  0
 10  8  1  0  0  0  0
 10  9  1  0  0  0  0
 11 12  1  0  0  0  0
 11 18  1  1  0  0  0
 12 17  1  0  0  0  0
 14 15  2  0  0  0  0
 15 13  1  0  0  0  0
 16 14  1  0  0  0  0
 16 12  2  0  0  0  0
 17 13  2  0  0  0  0
 19 18  1  6  0  0  0
 19 22  1  0  0  0  0
 21 19  1  0  0  0  0
 21 22  1  0  0  0  0
 22 20  1  1  0  0  0
 23 33  1  1  0  0  0
 24 26  1  0  0  0  0
 25 29  1  0  0  0  0
 25 28  2  0  0  0  0
 26 30  2  0  0  0  0
 27 24  1  0  0  0  0
 28 23  1  0  0  0  0
 28 30  1  0  0  0  0
 29 24  2  0  0  0  0
 32 31  1  0  0  0  0
 32 25  1  0  0  0  0
 33 34  1  6  0  0  0
 35 33  1  0  0  0  0
 36 37  2  0  0  0  0
 37 43  1  0  0  0  0
 37 41  1  0  0  0  0
 38 41  2  0  0  0  0
 39 40  1  0  0  0  0
 39 36  1  0  0  0  0
 40 35  1  1  0  0  0
 40 38  1  0  0  0  0
 43 42  3  0  0  0  0
M  END
>  <MODEL>
2

>  <REMARK>
 VINA RESULT:      -7.3      3.234      7.452
  Name = 
  13 active torsions:
  status: ('A' for Active; 'I' for Inactive)
    1  A    between atoms: C_1  and  C_8
    2  A    between atoms: C_1  and  C_35
    3  A    between atoms: C_4  and  C_14
    4  A    between atoms: C_6  and  C_17
    5  A    between atoms: C_8  and  C_30
    6  A    between atoms: C_10  and  S_41
    7  A    between atoms: C_11  and  C_14
    8  A    between atoms: N_12  and  C_17
    9  A    between atoms: C_14  and  S_41
   10  A    between atoms: C_16  and  C_43
   11  A    between atoms: C_19  and  C_37
   12  A    between atoms: C_21  and  C_30
   13  A    between atoms: C_27  and  C_30
                            x       y       z     vdW  Elec       q    Type
                         _______ _______ _______ _____ _____    ______ ____

>  <TORSDO>
F 13

$$$$
=
 OpenBabel10272414133D

 43 48  0  0  1  0  0  0  0  0999 V2000
  191.6340  176.9830  140.5930 N   0  0  0  0  0  0  0  0  0  0  0  0
  190.4780  176.9650  140.0260 C   0  0  0  0  0  0  0  0  0  0  0  0
  192.8300  177.2940  139.8420 C   0  0  0  0  0  2  0  0  0  0  0  0
  190.3420  177.2610  138.5550 C   0  0  0  0  0  2  0  0  0  0  0  0
  191.5380  176.7400  137.7350 C   0  0  1  0  0  3  0  0  0  0  0  0
  192.8300  176.4970  138.5400 C   0  0  0  0  0  2  0  0  0  0  0  0
  189.2660  176.6260  140.8310 C   0  0  0  0  0  2  0  0  0  0  0  0
  189.1680  178.4170  142.3480 C   0  0  0  0  0  2  0  0  0  0  0  0
  188.1770  177.4250  142.7470 C   0  0  1  0  0  3  0  0  0  0  0  0
  189.4790  176.9850  142.2230 N   0  0  0  0  0  0  0  0  0  0  0  0
  188.1730  177.2630  144.2580 C   0  0  2  0  0  3  0  0  0  0  0  0
  186.8940  177.7790  144.8420 C   0  0  0  0  0  0  0  0  0  0  0  0
  184.6190  178.5950  144.5920 C   0  0  0  0  0  3  0  0  0  0  0  0
  185.6000  178.4020  146.7970 C   0  0  0  0  0  3  0  0  0  0  0  0
  184.5190  178.7390  145.9780 C   0  0  0  0  0  3  0  0  0  0  0  0
  186.7840  177.9210  146.2290 C   0  0  0  0  0  3  0  0  0  0  0  0
  185.8020  178.1140  144.0240 C   0  0  0  0  0  3  0  0  0  0  0  0
  189.6180  178.1020  144.9870 S   0  0  0  0  0  0  0  0  0  0  0  0
  190.2890  176.5610  145.6700 C   0  0  1  0  0  3  0  0  0  0  0  0
  191.8500  175.7930  147.4140 C   0  0  0  0  0  1  0  0  0  0  0  0
  191.6090  176.2500  145.0000 C   0  0  0  0  0  2  0  0  0  0  0  0
  191.5890  176.8680  146.3810 C   0  0  1  0  0  3  0  0  0  0  0  0
  191.1240  175.5540  136.8520 C   0  0  1  0  0  3  0  0  0  0  0  0
  187.2560  176.2650  135.0790 C   0  0  0  0  0  0  0  0  0  0  0  0
  188.7300  174.7730  136.3030 C   0  0  0  0  0  0  0  0  0  0  0  0
  188.2690  177.2240  135.0210 C   0  0  0  0  0  3  0  0  0  0  0  0
  185.9340  176.5430  134.4630 C   0  0  0  0  0  1  0  0  0  0  0  0
  189.7570  175.7460  136.2480 C   0  0  0  0  0  0  0  0  0  0  0  0
  187.4870  175.0450  135.7180 C   0  0  0  0  0  3  0  0  0  0  0  0
  189.5110  176.9650  135.6030 C   0  0  0  0  0  3  0  0  0  0  0  0
  188.7120  172.4210  136.0550 O   0  0  0  0  0  1  0  0  0  0  0  0
  188.9190  173.4510  136.9730 C   0  0  0  0  0  2  0  0  0  0  0  0
  192.1820  175.0340  135.8590 C   0  0  1  0  0  3  0  0  0  0  0  0
  191.5880  174.3170  134.8190 O   0  0  0  0  0  1  0  0  0  0  0  0
  193.0410  176.1640  135.2900 C   0  0  0  0  0  2  0  0  0  0  0  0
  196.8280  176.4870  134.8390 C   0  0  0  0  0  3  0  0  0  0  0  0
  197.2350  175.3950  135.4950 C   0  0  0  0  0  0  0  0  0  0  0  0
  194.9460  174.7260  136.0140 C   0  0  0  0  0  3  0  0  0  0  0  0
  195.3920  176.9280  134.9120 C   0  0  0  0  0  2  0  0  0  0  0  0
  194.4620  175.7120  134.9800 C   0  0  2  0  0  3  0  0  0  0  0  0
  196.2560  174.5580  136.2190 C   0  0  0  0  0  3  0  0  0  0  0  0
  199.7840  174.7040  135.4490 C   0  0  0  0  0  3  0  0  0  0  0  0
  198.6210  175.0200  135.4660 C   0  0  0  0  0  0  0  0  0  0  0  0
  2  1  2  0  0  0  0
  2  7  1  0  0  0  0
  3  1  1  0  0  0  0
  4  2  1  0  0  0  0
  5 23  1  1  0  0  0
  5  6  1  0  0  0  0
  5  4  1  0  0  0  0
  6  3  1  0  0  0  0
  7 10  1  0  0  0  0
  8  9  1  0  0  0  0
  9 11  1  1  0  0  0
 10  8  1  0  0  0  0
 10  9  1  0  0  0  0
 11 12  1  0  0  0  0
 11 18  1  1  0  0  0
 12 16  1  0  0  0  0
 13 15  2  0  0  0  0
 15 14  1  0  0  0  0
 16 14  2  0  0  0  0
 17 13  1  0  0  0  0
 17 12  2  0  0  0  0
 19 18  1  6  0  0  0
 19 22  1  0  0  0  0
 21 19  1  0  0  0  0
 21 22  1  0  0  0  0
 22 20  1  1  0  0  0
 23 33  1  6  0  0  0
 24 29  1  0  0  0  0
 25 32  1  0  0  0  0
 26 24  2  0  0  0  0
 26 30  1  0  0  0  0
 27 24  1  0  0  0  0
 28 25  1  0  0  0  0
 28 23  1  0  0  0  0
 29 25  2  0  0  0  0
 30 28  2  0  0  0  0
 31 32  1  0  0  0  0
 33 34  1  6  0  0  0
 35 33  1  0  0  0  0
 36 39  1  0  0  0  0
 36 37  2  0  0  0  0
 37 41  1  0  0  0  0
 38 41  2  0  0  0  0
 39 40  1  0  0  0  0
 40 35  1  1  0  0  0
 40 38  1  0  0  0  0
 42 43  3  0  0  0  0
 43 37  1  0  0  0  0
M  END
>  <MODEL>
3

>  <REMARK>
 VINA RESULT:      -7.0      3.869      8.222
  Name = 
  13 active torsions:
  status: ('A' for Active; 'I' for Inactive)
    1  A    between atoms: C_1  and  C_8
    2  A    between atoms: C_1  and  C_35
    3  A    between atoms: C_4  and  C_14
    4  A    between atoms: C_6  and  C_17
    5  A    between atoms: C_8  and  C_30
    6  A    between atoms: C_10  and  S_41
    7  A    between atoms: C_11  and  C_14
    8  A    between atoms: N_12  and  C_17
    9  A    between atoms: C_14  and  S_41
   10  A    between atoms: C_16  and  C_43
   11  A    between atoms: C_19  and  C_37
   12  A    between atoms: C_21  and  C_30
   13  A    between atoms: C_27  and  C_30
                            x       y       z     vdW  Elec       q    Type
                         _______ _______ _______ _____ _____    ______ ____

>  <TORSDO>
F 13

$$$$
=
 OpenBabel10272414133D

 43 48  0  0  1  0  0  0  0  0999 V2000
  189.0990  179.0540  138.0910 N   0  0  0  0  0  0  0  0  0  0  0  0
  188.8260  178.1460  138.9620 C   0  0  0  0  0  0  0  0  0  0  0  0
  188.2780  179.2330  136.9140 C   0  0  0  0  0  2  0  0  0  0  0  0
  187.6410  177.2340  138.7710 C   0  0  0  0  0  2  0  0  0  0  0  0
  187.3950  176.8890  137.2900 C   0  0  1  0  0  3  0  0  0  0  0  0
  188.0100  177.8730  136.2750 C   0  0  0  0  0  2  0  0  0  0  0  0
  189.7050  177.9820  140.1580 C   0  0  0  0  0  2  0  0  0  0  0  0
  189.6440  176.4120  141.9040 C   0  0  0  0  0  2  0  0  0  0  0  0
  189.7510  177.7440  142.4900 C   0  0  1  0  0  3  0  0  0  0  0  0
  188.9170  177.5370  141.2960 N   0  0  0  0  0  0  0  0  0  0  0  0
  188.8490  177.8580  143.7070 C   0  0  2  0  0  3  0  0  0  0  0  0
  189.5820  177.4510  144.9480 C   0  0  0  0  0  0  0  0  0  0  0  0
  189.6210  176.9270  147.3200 C   0  0  0  0  0  3  0  0  0  0  0  0
  191.6630  176.8240  146.0240 C   0  0  0  0  0  3  0  0  0  0  0  0
  190.9950  176.6860  147.2440 C   0  0  0  0  0  3  0  0  0  0  0  0
  190.9570  177.2030  144.8780 C   0  0  0  0  0  3  0  0  0  0  0  0
  188.9140  177.3070  146.1750 C   0  0  0  0  0  3  0  0  0  0  0  0
  187.3410  176.8580  143.4720 S   0  0  0  0  0  0  0  0  0  0  0  0
  186.2480  178.2960  143.6360 C   0  0  1  0  0  3  0  0  0  0  0  0
  183.8480  178.8540  143.5960 C   0  0  0  0  0  1  0  0  0  0  0  0
  185.9240  178.8380  142.2600 C   0  0  0  0  0  2  0  0  0  0  0  0
  184.9180  177.9730  142.9880 C   0  0  1  0  0  3  0  0  0  0  0  0
  187.7270  175.4170  137.0070 C   0  0  1  0  0  3  0  0  0  0  0  0
  184.1020  173.0780  136.9690 C   0  0  0  0  0  0  0  0  0  0  0  0
  186.5270  173.1370  137.0760 C   0  0  0  0  0  0  0  0  0  0  0  0
  184.0680  174.4700  136.8840 C   0  0  0  0  0  3  0  0  0  0  0  0
  182.8360  172.3010  136.9580 C   0  0  0  0  0  1  0  0  0  0  0  0
  186.4950  174.5500  136.9940 C   0  0  0  0  0  0  0  0  0  0  0  0
  185.3280  172.4140  137.0650 C   0  0  0  0  0  3  0  0  0  0  0  0
  185.2580  175.2010  136.8970 C   0  0  0  0  0  3  0  0  0  0  0  0
  187.8940  171.4480  136.1410 O   0  0  0  0  0  1  0  0  0  0  0  0
  187.8080  172.3730  137.1810 C   0  0  0  0  0  2  0  0  0  0  0  0
  188.6990  175.1420  135.8420 C   0  0  1  0  0  3  0  0  0  0  0  0
  188.0760  175.3320  134.6080 O   0  0  0  0  0  1  0  0  0  0  0  0
  189.9580  176.0080  135.9280 C   0  0  0  0  0  2  0  0  0  0  0  0
  193.0290  173.9310  136.8800 C   0  0  0  0  0  3  0  0  0  0  0  0
  193.6610  174.8010  137.6750 C   0  0  0  0  0  0  0  0  0  0  0  0
  191.9070  176.4770  137.4120 C   0  0  0  0  0  3  0  0  0  0  0  0
  191.8400  174.3680  136.0690 C   0  0  0  0  0  2  0  0  0  0  0  0
  191.0160  175.4030  136.8410 C   0  0  2  0  0  3  0  0  0  0  0  0
  193.1370  176.1730  137.8370 C   0  0  0  0  0  3  0  0  0  0  0  0
  195.8100  174.0400  139.0090 C   0  0  0  0  0  3  0  0  0  0  0  0
  194.8310  174.3880  138.3980 C   0  0  0  0  0  0  0  0  0  0  0  0
  1  2  2  0  0  0  0
  2  7  1  0  0  0  0
  3  1  1  0  0  0  0
  4  2  1  0  0  0  0
  5 23  1  6  0  0  0
  5  4  1  0  0  0  0
  6  3  1  0  0  0  0
  6  5  1  0  0  0  0
  7 10  1  0  0  0  0
  8  9  1  0  0  0  0
  9 11  1  1  0  0  0
 10  8  1  0  0  0  0
 10  9  1  0  0  0  0
 11 18  1  6  0  0  0
 11 12  1  0  0  0  0
 12 17  1  0  0  0  0
 14 15  2  0  0  0  0
 15 13  1  0  0  0  0
 16 12  2  0  0  0  0
 16 14  1  0  0  0  0
 17 13  2  0  0  0  0
 19 18  1  6  0  0  0
 21 22  1  0  0  0  0
 21 19  1  0  0  0  0
 22 20  1  1  0  0  0
 22 19  1  0  0  0  0
 23 33  1  6  0  0  0
 24 29  1  0  0  0  0
 25 32  1  0  0  0  0
 26 30  1  0  0  0  0
 26 24  2  0  0  0  0
 27 24  1  0  0  0  0
 28 23  1  0  0  0  0
 28 25  1  0  0  0  0
 29 25  2  0  0  0  0
 30 28  2  0  0  0  0
 31 32  1  0  0  0  0
 33 34  1  6  0  0  0
 33 35  1  0  0  0  0
 36 37  2  0  0  0  0
 37 41  1  0  0  0  0
 37 43  1  0  0  0  0
 38 41  2  0  0  0  0
 39 40  1  0  0  0  0
 39 36  1  0  0  0  0
 40 35  1  6  0  0  0
 40 38  1  0  0  0  0
 43 42  3  0  0  0  0
M  END
>  <MODEL>
4

>  <REMARK>
 VINA RESULT:      -6.9      2.949      6.911
  Name = 
  13 active torsions:
  status: ('A' for Active; 'I' for Inactive)
    1  A    between atoms: C_1  and  C_8
    2  A    between atoms: C_1  and  C_35
    3  A    between atoms: C_4  and  C_14
    4  A    between atoms: C_6  and  C_17
    5  A    between atoms: C_8  and  C_30
    6  A    between atoms: C_10  and  S_41
    7  A    between atoms: C_11  and  C_14
    8  A    between atoms: N_12  and  C_17
    9  A    between atoms: C_14  and  S_41
   10  A    between atoms: C_16  and  C_43
   11  A    between atoms: C_19  and  C_37
   12  A    between atoms: C_21  and  C_30
   13  A    between atoms: C_27  and  C_30
                            x       y       z     vdW  Elec       q    Type
                         _______ _______ _______ _____ _____    ______ ____

>  <TORSDO>
F 13

$$$$
=
 OpenBabel10272414133D

 43 48  0  0  1  0  0  0  0  0999 V2000
  186.5280  178.8200  136.7360 N   0  0  0  0  0  0  0  0  0  0  0  0
  186.2370  178.0600  137.7340 C   0  0  0  0  0  0  0  0  0  0  0  0
  187.5220  178.4270  135.7620 C   0  0  0  0  0  2  0  0  0  0  0  0
  186.9360  176.7380  137.9190 C   0  0  0  0  0  2  0  0  0  0  0  0
  188.4100  176.7820  137.4720 C   0  0  1  0  0  3  0  0  0  0  0  0
  188.7640  177.9140  136.4870 C   0  0  0  0  0  2  0  0  0  0  0  0
  185.2150  178.5070  138.7270 C   0  0  0  0  0  2  0  0  0  0  0  0
  183.3650  177.2700  139.4790 C   0  0  0  0  0  2  0  0  0  0  0  0
  182.9360  178.6460  139.2580 C   0  0  1  0  0  3  0  0  0  0  0  0
  183.9000  178.0260  138.3370 N   0  0  0  0  0  0  0  0  0  0  0  0
  181.5680  178.6710  138.5960 C   0  0  2  0  0  3  0  0  0  0  0  0
  181.3070  180.0080  137.9730 C   0  0  0  0  0  0  0  0  0  0  0  0
  180.3980  181.3790  136.1860 C   0  0  0  0  0  3  0  0  0  0  0  0
  181.5080  182.4230  138.0670 C   0  0  0  0  0  3  0  0  0  0  0  0
  180.8380  182.5300  136.8450 C   0  0  0  0  0  3  0  0  0  0  0  0
  181.7400  181.1640  138.6310 C   0  0  0  0  0  3  0  0  0  0  0  0
  180.6290  180.1200  136.7480 C   0  0  0  0  0  3  0  0  0  0  0  0
  180.2730  178.2410  139.8060 S   0  0  0  0  0  0  0  0  0  0  0  0
  181.0670  179.1870  141.1350 C   0  0  1  0  0  3  0  0  0  0  0  0
  181.6690  178.9560  143.5130 C   0  0  0  0  0  1  0  0  0  0  0  0
  180.0060  179.8940  141.9490 C   0  0  0  0  0  2  0  0  0  0  0  0
  180.6290  178.6160  142.4670 C   0  0  1  0  0  3  0  0  0  0  0  0
  189.3540  176.6900  138.6790 C   0  0  1  0  0  3  0  0  0  0  0  0
  193.2800  175.2110  137.6780 C   0  0  0  0  0  0  0  0  0  0  0  0
  190.8720  174.9070  137.6040 C   0  0  0  0  0  0  0  0  0  0  0  0
  193.1110  176.4090  138.3740 C   0  0  0  0  0  3  0  0  0  0  0  0
  194.6450  174.7310  137.3450 C   0  0  0  0  0  1  0  0  0  0  0  0
  190.6990  176.1240  138.3060 C   0  0  0  0  0  0  0  0  0  0  0  0
  192.1630  174.4640  137.2950 C   0  0  0  0  0  3  0  0  0  0  0  0
  191.8280  176.8620  138.6850 C   0  0  0  0  0  3  0  0  0  0  0  0
  189.7300  173.9230  135.7810 O   0  0  0  0  0  1  0  0  0  0  0  0
  189.7160  174.0660  137.1690 C   0  0  0  0  0  2  0  0  0  0  0  0
  189.4250  177.9310  139.5910 C   0  0  1  0  0  3  0  0  0  0  0  0
  188.9560  179.0690  138.9340 O   0  0  0  0  0  1  0  0  0  0  0  0
  188.6540  177.7300  140.8980 C   0  0  0  0  0  2  0  0  0  0  0  0
  189.5950  177.6290  144.6060 C   0  0  0  0  0  3  0  0  0  0  0  0
  190.5630  176.7060  144.5760 C   0  0  0  0  0  0  0  0  0  0  0  0
  190.3710  176.4330  142.1590 C   0  0  0  0  0  3  0  0  0  0  0  0
  188.7420  177.8770  143.3920 C   0  0  0  0  0  2  0  0  0  0  0  0
  189.5700  177.7100  142.1140 C   0  0  2  0  0  3  0  0  0  0  0  0
  190.8660  175.9910  143.3190 C   0  0  0  0  0  3  0  0  0  0  0  0
  191.9680  176.2050  146.7550 C   0  0  0  0  0  3  0  0  0  0  0  0
  191.3290  176.4360  145.7600 C   0  0  0  0  0  0  0  0  0  0  0  0
  1  2  2  0  0  0  0
  2  4  1  0  0  0  0
  2  7  1  0  0  0  0
  3  6  1  0  0  0  0
  3  1  1  0  0  0  0
  5  4  1  0  0  0  0
  5 23  1  1  0  0  0
  6  5  1  0  0  0  0
  9 11  1  6  0  0  0
  9  8  1  0  0  0  0
 10  7  1  0  0  0  0
 10  9  1  0  0  0  0
 10  8  1  0  0  0  0
 11 18  1  1  0  0  0
 12 11  1  0  0  0  0
 12 16  1  0  0  0  0
 13 17  1  0  0  0  0
 13 15  2  0  0  0  0
 14 16  2  0  0  0  0
 15 14  1  0  0  0  0
 17 12  2  0  0  0  0
 19 18  1  6  0  0  0
 19 21  1  0  0  0  0
 19 22  1  0  0  0  0
 21 22  1  0  0  0  0
 22 20  1  1  0  0  0
 23 33  1  6  0  0  0
 24 26  1  0  0  0  0
 25 28  2  0  0  0  0
 26 30  2  0  0  0  0
 27 24  1  0  0  0  0
 28 23  1  0  0  0  0
 28 30  1  0  0  0  0
 29 25  1  0  0  0  0
 29 24  2  0  0  0  0
 31 32  1  0  0  0  0
 32 25  1  0  0  0  0
 33 34  1  6  0  0  0
 33 35  1  0  0  0  0
 37 36  2  0  0  0  0
 37 43  1  0  0  0  0
 38 41  2  0  0  0  0
 39 36  1  0  0  0  0
 40 35  1  6  0  0  0
 40 38  1  0  0  0  0
 40 39  1  0  0  0  0
 41 37  1  0  0  0  0
 43 42  3  0  0  0  0
M  END
>  <MODEL>
5

>  <REMARK>
 VINA RESULT:      -6.8      1.386      3.170
  Name = 
  13 active torsions:
  status: ('A' for Active; 'I' for Inactive)
    1  A    between atoms: C_1  and  C_8
    2  A    between atoms: C_1  and  C_35
    3  A    between atoms: C_4  and  C_14
    4  A    between atoms: C_6  and  C_17
    5  A    between atoms: C_8  and  C_30
    6  A    between atoms: C_10  and  S_41
    7  A    between atoms: C_11  and  C_14
    8  A    between atoms: N_12  and  C_17
    9  A    between atoms: C_14  and  S_41
   10  A    between atoms: C_16  and  C_43
   11  A    between atoms: C_19  and  C_37
   12  A    between atoms: C_21  and  C_30
   13  A    between atoms: C_27  and  C_30
                            x       y       z     vdW  Elec       q    Type
                         _______ _______ _______ _____ _____    ______ ____

>  <TORSDO>
F 13

$$$$
=
 OpenBabel10272414133D

 43 48  0  0  1  0  0  0  0  0999 V2000
  190.1840  177.4680  140.0190 N   0  0  0  0  0  0  0  0  0  0  0  0
  189.2080  177.7600  139.2310 C   0  0  0  0  0  0  0  0  0  0  0  0
  191.4930  177.1400  139.4980 C   0  0  0  0  0  2  0  0  0  0  0  0
  189.4030  177.7580  137.7370 C   0  0  0  0  0  2  0  0  0  0  0  0
  190.3830  176.6650  137.2700 C   0  0  1  0  0  3  0  0  0  0  0  0
  191.3440  176.1390  138.3550 C   0  0  0  0  0  2  0  0  0  0  0  0
  187.8670  178.0800  139.8060 C   0  0  0  0  0  2  0  0  0  0  0  0
  186.6760  179.0750  141.5690 C   0  0  0  0  0  2  0  0  0  0  0  0
  187.2860  177.8470  142.0650 C   0  0  1  0  0  3  0  0  0  0  0  0
  188.0210  178.6940  141.1140 N   0  0  0  0  0  0  0  0  0  0  0  0
  187.8500  178.0650  143.4590 C   0  0  2  0  0  3  0  0  0  0  0  0
  189.2340  177.5030  143.5630 C   0  0  0  0  0  0  0  0  0  0  0  0
  191.5930  177.7430  144.0950 C   0  0  0  0  0  3  0  0  0  0  0  0
  190.7400  175.6200  143.3030 C   0  0  0  0  0  3  0  0  0  0  0  0
  191.8080  176.4080  143.7420 C   0  0  0  0  0  3  0  0  0  0  0  0
  189.4560  176.1660  143.2160 C   0  0  0  0  0  3  0  0  0  0  0  0
  190.3090  178.2900  144.0080 C   0  0  0  0  0  3  0  0  0  0  0  0
  186.7440  177.3340  144.7100 S   0  0  0  0  0  0  0  0  0  0  0  0
  187.4630  178.3130  146.0570 C   0  0  1  0  0  3  0  0  0  0  0  0
  188.3230  178.0240  148.3480 C   0  0  0  0  0  1  0  0  0  0  0  0
  186.3680  178.7270  147.0150 C   0  0  0  0  0  2  0  0  0  0  0  0
  187.2730  177.5650  147.3590 C   0  0  1  0  0  3  0  0  0  0  0  0
  189.6460  175.5580  136.5030 C   0  0  1  0  0  3  0  0  0  0  0  0
  185.9070  177.0100  134.9160 C   0  0  0  0  0  0  0  0  0  0  0  0
  187.0740  175.4550  136.3710 C   0  0  0  0  0  0  0  0  0  0  0  0
  187.1260  177.5670  134.5260 C   0  0  0  0  0  3  0  0  0  0  0  0
  184.6370  177.5360  134.3540 C   0  0  0  0  0  1  0  0  0  0  0  0
  188.3120  176.0220  135.9800 C   0  0  0  0  0  0  0  0  0  0  0  0
  185.8830  175.9580  135.8350 C   0  0  0  0  0  3  0  0  0  0  0  0
  188.3210  177.0740  135.0560 C   0  0  0  0  0  3  0  0  0  0  0  0
  185.6770  173.8500  137.4040 O   0  0  0  0  0  1  0  0  0  0  0  0
  186.9860  174.3300  137.3500 C   0  0  0  0  0  2  0  0  0  0  0  0
  190.4780  174.7590  135.4810 C   0  0  1  0  0  3  0  0  0  0  0  0
  189.6580  174.1280  134.5440 O   0  0  0  0  0  1  0  0  0  0  0  0
  191.5070  175.6360  134.7650 C   0  0  0  0  0  2  0  0  0  0  0  0
  195.1450  175.8560  135.9350 C   0  0  0  0  0  3  0  0  0  0  0  0
  195.2610  174.6780  136.5570 C   0  0  0  0  0  0  0  0  0  0  0  0
  192.9680  174.0460  136.0130 C   0  0  0  0  0  3  0  0  0  0  0  0
  193.7990  176.3430  135.4740 C   0  0  0  0  0  2  0  0  0  0  0  0
  192.9360  175.1670  135.0050 C   0  0  2  0  0  3  0  0  0  0  0  0
  194.0820  173.8010  136.7090 C   0  0  0  0  0  3  0  0  0  0  0  0
  197.6210  173.9000  137.4530 C   0  0  0  0  0  3  0  0  0  0  0  0
  196.5430  174.2530  137.0460 C   0  0  0  0  0  0  0  0  0  0  0  0
  2  7  1  0  0  0  0
  2  1  2  0  0  0  0
  3  1  1  0  0  0  0
  4  2  1  0  0  0  0
  5 23  1  1  0  0  0
  5  4  1  0  0  0  0
  5  6  1  0  0  0  0
  6  3  1  0  0  0  0
  7 10  1  0  0  0  0
  8  9  1  0  0  0  0
  9 11  1  1  0  0  0
 10  8  1  0  0  0  0
 10  9  1  0  0  0  0
 11 12  1  0  0  0  0
 11 18  1  1  0  0  0
 12 17  1  0  0  0  0
 14 15  2  0  0  0  0
 15 13  1  0  0  0  0
 16 14  1  0  0  0  0
 16 12  2  0  0  0  0
 17 13  2  0  0  0  0
 19 18  1  6  0  0  0
 19 21  1  0  0  0  0
 19 22  1  0  0  0  0
 21 22  1  0  0  0  0
 22 20  1  1  0  0  0
 23 33  1  6  0  0  0
 24 29  1  0  0  0  0
 25 32  1  0  0  0  0
 26 24  2  0  0  0  0
 26 30  1  0  0  0  0
 27 24  1  0  0  0  0
 28 25  1  0  0  0  0
 28 23  1  0  0  0  0
 29 25  2  0  0  0  0
 30 28  2  0  0  0  0
 32 31  1  0  0  0  0
 33 34  1  6  0  0  0
 35 33  1  0  0  0  0
 36 37  2  0  0  0  0
 37 41  1  0  0  0  0
 37 43  1  0  0  0  0
 38 41  2  0  0  0  0
 39 36  1  0  0  0  0
 40 35  1  1  0  0  0
 40 39  1  0  0  0  0
 40 38  1  0  0  0  0
 43 42  3  0  0  0  0
M  END
>  <MODEL>
6

>  <REMARK>
 VINA RESULT:      -6.7      3.334      7.656
  Name = 
  13 active torsions:
  status: ('A' for Active; 'I' for Inactive)
    1  A    between atoms: C_1  and  C_8
    2  A    between atoms: C_1  and  C_35
    3  A    between atoms: C_4  and  C_14
    4  A    between atoms: C_6  and  C_17
    5  A    between atoms: C_8  and  C_30
    6  A    between atoms: C_10  and  S_41
    7  A    between atoms: C_11  and  C_14
    8  A    between atoms: N_12  and  C_17
    9  A    between atoms: C_14  and  S_41
   10  A    between atoms: C_16  and  C_43
   11  A    between atoms: C_19  and  C_37
   12  A    between atoms: C_21  and  C_30
   13  A    between atoms: C_27  and  C_30
                            x       y       z     vdW  Elec       q    Type
                         _______ _______ _______ _____ _____    ______ ____

>  <TORSDO>
F 13

$$$$
=
 OpenBabel10272414133D

 43 48  0  0  1  0  0  0  0  0999 V2000
  190.5270  176.4380  140.2500 N   0  0  0  0  0  0  0  0  0  0  0  0
  189.4830  177.1830  140.3730 C   0  0  0  0  0  0  0  0  0  0  0  0
  191.5020  176.6820  139.2110 C   0  0  0  0  0  2  0  0  0  0  0  0
  189.2470  178.3300  139.4250 C   0  0  0  0  0  2  0  0  0  0  0  0
  189.7310  178.0240  137.9950 C   0  0  1  0  0  3  0  0  0  0  0  0
  190.7810  176.9010  137.8840 C   0  0  0  0  0  2  0  0  0  0  0  0
  188.4910  176.8900  141.4500 C   0  0  0  0  0  2  0  0  0  0  0  0
  187.2090  178.3200  142.8020 C   0  0  0  0  0  2  0  0  0  0  0  0
  187.8740  177.3500  143.6640 C   0  0  1  0  0  3  0  0  0  0  0  0
  188.5830  177.8950  142.4960 N   0  0  0  0  0  0  0  0  0  0  0  0
  188.3960  178.0300  144.9190 C   0  0  2  0  0  3  0  0  0  0  0  0
  189.6500  177.3670  145.3980 C   0  0  0  0  0  0  0  0  0  0  0  0
  191.8970  176.5300  145.0050 C   0  0  0  0  0  3  0  0  0  0  0  0
  190.9010  176.3390  147.2030 C   0  0  0  0  0  3  0  0  0  0  0  0
  191.9790  176.1230  146.3390 C   0  0  0  0  0  3  0  0  0  0  0  0
  189.7410  176.9610  146.7340 C   0  0  0  0  0  3  0  0  0  0  0  0
  190.7370  177.1530  144.5350 C   0  0  0  0  0  3  0  0  0  0  0  0
  187.1130  178.0340  146.2150 S   0  0  0  0  0  0  0  0  0  0  0  0
  185.7640  178.1920  145.0130 C   0  0  1  0  0  3  0  0  0  0  0  0
  184.2560  179.9050  144.0860 C   0  0  0  0  0  1  0  0  0  0  0  0
  184.4370  178.0740  145.7310 C   0  0  0  0  0  2  0  0  0  0  0  0
  184.9660  179.4360  145.3380 C   0  0  1  0  0  3  0  0  0  0  0  0
  188.5430  177.8620  137.0360 C   0  0  1  0  0  3  0  0  0  0  0  0
  187.8310  173.7130  136.0930 C   0  0  0  0  0  0  0  0  0  0  0  0
  188.7010  175.8730  135.4050 C   0  0  0  0  0  0  0  0  0  0  0  0
  187.4480  174.2550  137.3210 C   0  0  0  0  0  3  0  0  0  0  0  0
  187.5760  172.2790  135.8010 C   0  0  0  0  0  1  0  0  0  0  0  0
  188.3170  176.4230  136.6510 C   0  0  0  0  0  0  0  0  0  0  0  0
  188.4550  174.5200  135.1390 C   0  0  0  0  0  3  0  0  0  0  0  0
  187.6910  175.6020  137.5970 C   0  0  0  0  0  3  0  0  0  0  0  0
  190.7550  176.5170  134.4230 O   0  0  0  0  0  1  0  0  0  0  0  0
  189.3720  176.6870  134.3460 C   0  0  0  0  0  2  0  0  0  0  0  0
  187.2540  178.6240  137.4020 C   0  0  1  0  0  3  0  0  0  0  0  0
  187.1090  179.7730  136.6220 O   0  0  0  0  0  1  0  0  0  0  0  0
  186.0090  177.7450  137.2720 C   0  0  0  0  0  2  0  0  0  0  0  0
  182.7660  177.5300  139.2930 C   0  0  0  0  0  3  0  0  0  0  0  0
  183.1250  178.2200  140.3820 C   0  0  0  0  0  0  0  0  0  0  0  0
  185.3510  178.6710  139.4920 C   0  0  0  0  0  3  0  0  0  0  0  0
  183.7940  177.1460  138.2650 C   0  0  0  0  0  2  0  0  0  0  0  0
  184.8560  178.2420  138.1340 C   0  0  2  0  0  3  0  0  0  0  0  0
  184.5150  178.6940  140.5340 C   0  0  0  0  0  3  0  0  0  0  0  0
  181.3180  178.7860  142.2240 C   0  0  0  0  0  3  0  0  0  0  0  0
  182.1450  178.5280  141.3860 C   0  0  0  0  0  0  0  0  0  0  0  0
  1  2  2  0  0  0  0
  2  7  1  0  0  0  0
  3  1  1  0  0  0  0
  4  2  1  0  0  0  0
  5 23  1  6  0  0  0
  5  4  1  0  0  0  0
  6  5  1  0  0  0  0
  6  3  1  0  0  0  0
  7 10  1  0  0  0  0
  8  9  1  0  0  0  0
  9 11  1  1  0  0  0
 10  8  1  0  0  0  0
 10  9  1  0  0  0  0
 11 12  1  0  0  0  0
 11 18  1  1  0  0  0
 12 16  1  0  0  0  0
 13 15  2  0  0  0  0
 15 14  1  0  0  0  0
 16 14  2  0  0  0  0
 17 13  1  0  0  0  0
 17 12  2  0  0  0  0
 19 22  1  0  0  0  0
 19 21  1  0  0  0  0
 19 18  1  1  0  0  0
 22 20  1  6  0  0  0
 22 21  1  0  0  0  0
 23 33  1  1  0  0  0
 24 26  1  0  0  0  0
 25 28  2  0  0  0  0
 26 30  2  0  0  0  0
 27 24  1  0  0  0  0
 28 23  1  0  0  0  0
 28 30  1  0  0  0  0
 29 25  1  0  0  0  0
 29 24  2  0  0  0  0
 32 31  1  0  0  0  0
 32 25  1  0  0  0  0
 33 34  1  6  0  0  0
 35 33  1  0  0  0  0
 36 37  2  0  0  0  0
 37 41  1  0  0  0  0
 37 43  1  0  0  0  0
 38 41  2  0  0  0  0
 39 36  1  0  0  0  0
 40 35  1  6  0  0  0
 40 39  1  0  0  0  0
 40 38  1  0  0  0  0
 43 42  3  0  0  0  0
M  END
>  <MODEL>
7

>  <REMARK>
 VINA RESULT:      -6.6      2.755      6.467
  Name = 
  13 active torsions:
  status: ('A' for Active; 'I' for Inactive)
    1  A    between atoms: C_1  and  C_8
    2  A    between atoms: C_1  and  C_35
    3  A    between atoms: C_4  and  C_14
    4  A    between atoms: C_6  and  C_17
    5  A    between atoms: C_8  and  C_30
    6  A    between atoms: C_10  and  S_41
    7  A    between atoms: C_11  and  C_14
    8  A    between atoms: N_12  and  C_17
    9  A    between atoms: C_14  and  S_41
   10  A    between atoms: C_16  and  C_43
   11  A    between atoms: C_19  and  C_37
   12  A    between atoms: C_21  and  C_30
   13  A    between atoms: C_27  and  C_30
                            x       y       z     vdW  Elec       q    Type
                         _______ _______ _______ _____ _____    ______ ____

>  <TORSDO>
F 13

$$$$
=
 OpenBabel10272414133D

 43 48  0  0  1  0  0  0  0  0999 V2000
  189.2290  177.1270  140.0400 N   0  0  0  0  0  0  0  0  0  0  0  0
  188.3600  177.9070  139.4970 C   0  0  0  0  0  0  0  0  0  0  0  0
  190.4710  176.8100  139.3710 C   0  0  0  0  0  2  0  0  0  0  0  0
  188.6140  178.5050  138.1370 C   0  0  0  0  0  2  0  0  0  0  0  0
  189.3850  177.5500  137.2060 C   0  0  1  0  0  3  0  0  0  0  0  0
  190.1820  176.4400  137.9190 C   0  0  0  0  0  2  0  0  0  0  0  0
  187.0820  178.2000  140.2120 C   0  0  0  0  0  2  0  0  0  0  0  0
  186.0750  178.9460  142.1980 C   0  0  0  0  0  2  0  0  0  0  0  0
  186.9370  177.8140  142.5190 C   0  0  1  0  0  3  0  0  0  0  0  0
  187.3640  178.7940  141.5080 N   0  0  0  0  0  0  0  0  0  0  0  0
  187.6930  178.0780  143.8110 C   0  0  2  0  0  3  0  0  0  0  0  0
  189.0900  177.5470  143.7250 C   0  0  0  0  0  0  0  0  0  0  0  0
  191.4960  177.8600  143.8590 C   0  0  0  0  0  3  0  0  0  0  0  0
  190.5860  175.6780  143.3370 C   0  0  0  0  0  3  0  0  0  0  0  0
  191.6880  176.5100  143.5530 C   0  0  0  0  0  3  0  0  0  0  0  0
  189.2900  176.1950  143.4250 C   0  0  0  0  0  3  0  0  0  0  0  0
  190.2000  178.3780  143.9470 C   0  0  0  0  0  3  0  0  0  0  0  0
  186.7970  177.3550  145.2260 S   0  0  0  0  0  0  0  0  0  0  0  0
  187.9470  178.0620  146.4380 C   0  0  1  0  0  3  0  0  0  0  0  0
  189.9380  177.4250  147.7420 C   0  0  0  0  0  1  0  0  0  0  0  0
  187.4870  177.7030  147.8330 C   0  0  0  0  0  2  0  0  0  0  0  0
  188.6180  176.9320  147.1890 C   0  0  1  0  0  3  0  0  0  0  0  0
  188.4830  177.0390  136.0740 C   0  0  1  0  0  3  0  0  0  0  0  0
  188.0320  172.7510  136.2020 C   0  0  0  0  0  0  0  0  0  0  0  0
  189.1680  174.6870  135.2750 C   0  0  0  0  0  0  0  0  0  0  0  0
  187.2390  173.5880  136.9880 C   0  0  0  0  0  3  0  0  0  0  0  0
  187.8550  171.2780  136.2720 C   0  0  0  0  0  1  0  0  0  0  0  0
  188.3670  175.5370  136.0750 C   0  0  0  0  0  0  0  0  0  0  0  0
  188.9930  173.3000  135.3490 C   0  0  0  0  0  3  0  0  0  0  0  0
  187.4070  174.9730  136.9240 C   0  0  0  0  0  3  0  0  0  0  0  0
  191.4370  174.6050  134.6120 O   0  0  0  0  0  1  0  0  0  0  0  0
  190.2120  175.2160  134.3460 C   0  0  0  0  0  2  0  0  0  0  0  0
  187.1410  177.7730  135.8800 C   0  0  1  0  0  3  0  0  0  0  0  0
  187.3310  179.0310  135.3080 O   0  0  0  0  0  1  0  0  0  0  0  0
  186.1580  176.9590  135.0350 C   0  0  0  0  0  2  0  0  0  0  0  0
  182.9520  175.3160  136.3260 C   0  0  0  0  0  3  0  0  0  0  0  0
  182.8280  175.9400  137.5030 C   0  0  0  0  0  0  0  0  0  0  0  0
  184.8280  177.2840  137.1200 C   0  0  0  0  0  3  0  0  0  0  0  0
  184.2070  175.4710  135.5120 C   0  0  0  0  0  2  0  0  0  0  0  0
  184.7750  176.8850  135.6660 C   0  0  2  0  0  3  0  0  0  0  0  0
  183.8830  176.8640  137.9660 C   0  0  0  0  0  3  0  0  0  0  0  0
  180.6590  175.5720  138.9650 C   0  0  0  0  0  3  0  0  0  0  0  0
  181.6490  175.7360  138.2980 C   0  0  0  0  0  0  0  0  0  0  0  0
  2  1  2  0  0  0  0
  2  7  1  0  0  0  0
  3  1  1  0  0  0  0
  4  2  1  0  0  0  0
  5 23  1  6  0  0  0
  5  6  1  0  0  0  0
  5  4  1  0  0  0  0
  6  3  1  0  0  0  0
  7 10  1  0  0  0  0
  8  9  1  0  0  0  0
  9 11  1  1  0  0  0
 10  8  1  0  0  0  0
 10  9  1  0  0  0  0
 11 18  1  1  0  0  0
 12 11  1  0  0  0  0
 12 17  1  0  0  0  0
 13 17  2  0  0  0  0
 14 16  1  0  0  0  0
 14 15  2  0  0  0  0
 15 13  1  0  0  0  0
 16 12  2  0  0  0  0
 19 18  1  6  0  0  0
 19 22  1  0  0  0  0
 19 21  1  0  0  0  0
 22 20  1  1  0  0  0
 22 21  1  0  0  0  0
 23 33  1  1  0  0  0
 23 28  1  0  0  0  0
 24 27  1  0  0  0  0
 24 26  1  0  0  0  0
 25 29  1  0  0  0  0
 25 28  2  0  0  0  0
 28 30  1  0  0  0  0
 29 24  2  0  0  0  0
 30 26  2  0  0  0  0
 32 31  1  0  0  0  0
 32 25  1  0  0  0  0
 33 34  1  6  0  0  0
 35 33  1  0  0  0  0
 36 37  2  0  0  0  0
 37 41  1  0  0  0  0
 37 43  1  0  0  0  0
 38 41  2  0  0  0  0
 39 40  1  0  0  0  0
 39 36  1  0  0  0  0
 40 35  1  1  0  0  0
 40 38  1  0  0  0  0
 43 42  3  0  0  0  0
M  END
>  <MODEL>
8

>  <REMARK>
 VINA RESULT:      -6.6      3.046      7.271
  Name = 
  13 active torsions:
  status: ('A' for Active; 'I' for Inactive)
    1  A    between atoms: C_1  and  C_8
    2  A    between atoms: C_1  and  C_35
    3  A    between atoms: C_4  and  C_14
    4  A    between atoms: C_6  and  C_17
    5  A    between atoms: C_8  and  C_30
    6  A    between atoms: C_10  and  S_41
    7  A    between atoms: C_11  and  C_14
    8  A    between atoms: N_12  and  C_17
    9  A    between atoms: C_14  and  S_41
   10  A    between atoms: C_16  and  C_43
   11  A    between atoms: C_19  and  C_37
   12  A    between atoms: C_21  and  C_30
   13  A    between atoms: C_27  and  C_30
                            x       y       z     vdW  Elec       q    Type
                         _______ _______ _______ _____ _____    ______ ____

>  <TORSDO>
F 13

$$$$
=
 OpenBabel10272414133D

 43 48  0  0  1  0  0  0  0  0999 V2000
  184.1260  178.3800  145.1620 N   0  0  0  0  0  0  0  0  0  0  0  0
  184.7560  179.1580  144.3520 C   0  0  0  0  0  0  0  0  0  0  0  0
  184.7120  177.9800  146.4220 C   0  0  0  0  0  2  0  0  0  0  0  0
  186.1330  179.6650  144.6940 C   0  0  0  0  0  2  0  0  0  0  0  0
  186.9680  178.6300  145.4720 C   0  0  1  0  0  3  0  0  0  0  0  0
  186.1530  177.5360  146.1900 C   0  0  0  0  0  2  0  0  0  0  0  0
  184.1250  179.5380  143.0530 C   0  0  0  0  0  2  0  0  0  0  0  0
  181.9970  178.8060  142.3790 C   0  0  0  0  0  2  0  0  0  0  0  0
  182.8620  178.8410  141.2050 C   0  0  1  0  0  3  0  0  0  0  0  0
  183.4060  178.4020  142.4990 N   0  0  0  0  0  0  0  0  0  0  0  0
  182.6170  177.6200  140.3340 C   0  0  2  0  0  3  0  0  0  0  0  0
  183.6560  177.5200  139.2600 C   0  0  0  0  0  0  0  0  0  0  0  0
  184.6170  176.4040  137.3280 C   0  0  0  0  0  3  0  0  0  0  0  0
  185.6440  178.4160  138.1980 C   0  0  0  0  0  3  0  0  0  0  0  0
  185.6210  177.3730  137.2670 C   0  0  0  0  0  3  0  0  0  0  0  0
  184.6620  178.4900  139.1900 C   0  0  0  0  0  3  0  0  0  0  0  0
  183.6350  176.4770  138.3200 C   0  0  0  0  0  3  0  0  0  0  0  0
  180.9370  177.6760  139.6250 S   0  0  0  0  0  0  0  0  0  0  0  0
  181.2420  179.2550  138.7850 C   0  0  1  0  0  3  0  0  0  0  0  0
  180.3600  181.5540  138.7150 C   0  0  0  0  0  1  0  0  0  0  0  0
  180.3350  179.3630  137.5790 C   0  0  0  0  0  2  0  0  0  0  0  0
  179.9840  180.0950  138.8560 C   0  0  1  0  0  3  0  0  0  0  0  0
  188.1130  178.0860  144.6070 C   0  0  1  0  0  3  0  0  0  0  0  0
  191.2570  176.5210  147.1120 C   0  0  0  0  0  0  0  0  0  0  0  0
  190.6130  177.6700  145.0720 C   0  0  0  0  0  0  0  0  0  0  0  0
  189.9140  176.4040  147.4740 C   0  0  0  0  0  3  0  0  0  0  0  0
  192.3160  175.9750  147.9980 C   0  0  0  0  0  1  0  0  0  0  0  0
  189.2510  177.5560  145.4390 C   0  0  0  0  0  0  0  0  0  0  0  0
  191.6040  177.1520  145.9150 C   0  0  0  0  0  3  0  0  0  0  0  0
  188.9180  176.9190  146.6410 C   0  0  0  0  0  3  0  0  0  0  0  0
  192.0880  179.2230  144.0670 O   0  0  0  0  0  1  0  0  0  0  0  0
  191.0450  178.3350  143.8050 C   0  0  0  0  0  2  0  0  0  0  0  0
  187.7130  177.1690  143.4340 C   0  0  1  0  0  3  0  0  0  0  0  0
  186.5770  176.4190  143.7440 O   0  0  0  0  0  1  0  0  0  0  0  0
  187.4800  177.9560  142.1420 C   0  0  0  0  0  2  0  0  0  0  0  0
  189.5110  177.9710  138.8980 C   0  0  0  0  0  3  0  0  0  0  0  0
  190.4680  177.0930  139.2180 C   0  0  0  0  0  0  0  0  0  0  0  0
  189.5140  176.6990  141.4290 C   0  0  0  0  0  3  0  0  0  0  0  0
  188.5610  178.4770  139.9480 C   0  0  0  0  0  2  0  0  0  0  0  0
  188.2470  177.3720  140.9630 C   0  0  2  0  0  3  0  0  0  0  0  0
  190.5380  176.5390  140.5860 C   0  0  0  0  0  3  0  0  0  0  0  0
  192.1950  176.2990  137.3840 C   0  0  0  0  0  3  0  0  0  0  0  0
  191.4070  176.6640  138.2190 C   0  0  0  0  0  0  0  0  0  0  0  0
  1  3  1  0  0  0  0
  2  4  1  0  0  0  0
  2  1  2  0  0  0  0
  4  5  1  0  0  0  0
  5 23  1  6  0  0  0
  5  6  1  0  0  0  0
  6  3  1  0  0  0  0
  7  2  1  0  0  0  0
  8 10  1  0  0  0  0
  9 11  1  6  0  0  0
  9  8  1  0  0  0  0
  9 10  1  0  0  0  0
 10  7  1  0  0  0  0
 11 18  1  6  0  0  0
 12 11  1  0  0  0  0
 13 17  1  0  0  0  0
 14 16  2  0  0  0  0
 15 13  2  0  0  0  0
 15 14  1  0  0  0  0
 16 12  1  0  0  0  0
 17 12  2  0  0  0  0
 19 22  1  0  0  0  0
 19 18  1  1  0  0  0
 21 19  1  0  0  0  0
 21 22  1  0  0  0  0
 22 20  1  6  0  0  0
 23 33  1  1  0  0  0
 23 28  1  0  0  0  0
 24 26  1  0  0  0  0
 24 27  1  0  0  0  0
 25 28  2  0  0  0  0
 25 29  1  0  0  0  0
 28 30  1  0  0  0  0
 29 24  2  0  0  0  0
 30 26  2  0  0  0  0
 32 31  1  0  0  0  0
 32 25  1  0  0  0  0
 33 34  1  1  0  0  0
 35 33  1  0  0  0  0
 36 37  2  0  0  0  0
 36 39  1  0  0  0  0
 37 41  1  0  0  0  0
 39 40  1  0  0  0  0
 40 38  1  0  0  0  0
 40 35  1  1  0  0  0
 41 38  2  0  0  0  0
 42 43  3  0  0  0  0
 43 37  1  0  0  0  0
M  END
>  <MODEL>
9

>  <REMARK>
 VINA RESULT:      -6.6      2.391      6.590
  Name = 
  13 active torsions:
  status: ('A' for Active; 'I' for Inactive)
    1  A    between atoms: C_1  and  C_8
    2  A    between atoms: C_1  and  C_35
    3  A    between atoms: C_4  and  C_14
    4  A    between atoms: C_6  and  C_17
    5  A    between atoms: C_8  and  C_30
    6  A    between atoms: C_10  and  S_41
    7  A    between atoms: C_11  and  C_14
    8  A    between atoms: N_12  and  C_17
    9  A    between atoms: C_14  and  S_41
   10  A    between atoms: C_16  and  C_43
   11  A    between atoms: C_19  and  C_37
   12  A    between atoms: C_21  and  C_30
   13  A    between atoms: C_27  and  C_30
                            x       y       z     vdW  Elec       q    Type
                         _______ _______ _______ _____ _____    ______ ____

>  <TORSDO>
F 13

$$$$
