=
 OpenBabel10272413343D

 32 36  0  0  1  0  0  0  0  0999 V2000
  189.1290  177.5270  145.7540 C   0  0  0  0  0  2  0  0  0  0  0  0
  186.7160  178.4060  141.4360 C   0  0  0  0  0  0  0  0  0  0  0  0
  181.9170  178.9040  144.2280 C   0  0  0  0  0  3  0  0  0  0  0  0
  181.3780  179.1310  142.9690 C   0  0  0  0  0  3  0  0  0  0  0  0
  189.0510  177.8950  142.9920 C   0  0  0  0  0  0  0  0  0  0  0  0
  186.6090  178.0790  142.8750 C   0  0  0  0  0  0  0  0  0  0  0  0
  187.8040  177.2950  145.0490 C   0  0  0  0  0  2  0  0  0  0  0  0
  183.2630  178.5740  144.3510 C   0  0  0  0  0  3  0  0  0  0  0  0
  185.4790  178.1200  143.5790 C   0  0  0  0  0  3  0  0  0  0  0  0
  184.0980  178.4650  143.2290 C   0  0  0  0  0  0  0  0  0  0  0  0
  184.2890  178.5640  140.6430 C   0  0  0  0  0  0  0  0  0  0  0  0
  191.3130  176.9000  142.7900 C   0  0  0  0  0  1  0  0  0  0  0  0
  190.3640  177.6550  143.7140 C   0  0  2  0  0  3  0  0  0  0  0  0
  187.8640  177.7720  143.6200 C   0  0  0  0  0  0  0  0  0  0  0  0
  189.0900  178.3130  141.6550 O   0  0  0  0  0  0  0  0  0  0  0  0
  190.1980  176.9120  144.9740 N   0  0  0  0  0  0  0  0  0  0  0  0
  182.1900  179.0190  141.8430 C   0  0  0  0  0  3  0  0  0  0  0  0
  183.5580  178.6840  141.9350 C   0  0  0  0  0  0  0  0  0  0  0  0
  187.9310  178.5080  140.8970 C   0  0  0  0  0  3  0  0  0  0  0  0
  185.6130  178.4870  140.4840 C   0  0  0  0  0  3  0  0  0  0  0  0
  181.7350  179.8740  138.0840 C   0  0  0  0  0  0  0  0  0  0  0  0
  181.0550  178.6180  137.7370 C   0  0  0  0  0  3  0  0  0  0  0  0
  182.6020  177.3810  139.1690 C   0  0  0  0  0  0  0  0  0  0  0  0
  180.7340  176.3000  137.9460 O   0  0  0  0  0  1  0  0  0  0  0  0
  181.4370  177.4550  138.2660 C   0  0  0  0  0  0  0  0  0  0  0  0
  182.7030  179.9170  139.2290 C   0  0  0  0  0  2  0  0  0  0  0  0
  181.4480  180.9320  137.4690 O   0  0  0  0  0  0  0  0  0  0  0  0
  182.9150  176.2780  139.6920 O   0  0  0  0  0  0  0  0  0  0  0  0
  183.4780  178.6000  139.3650 C   0  0  1  0  0  3  0  0  0  0  0  0
  191.4170  177.0860  145.7560 C   0  0  0  0  0  2  0  0  0  0  0  0
  191.2020  176.6130  147.1850 C   0  0  0  0  0  2  0  0  0  0  0  0
  192.3660  175.7530  147.6360 C   0  0  0  0  0  1  0  0  0  0  0  0
  2  6  1  0  0  0  0
  3  8  1  0  0  0  0
  4  3  2  0  0  0  0
  5 14  2  0  0  0  0
  5 13  1  0  0  0  0
  6  9  2  0  0  0  0
  6 14  1  0  0  0  0
  7  1  1  0  0  0  0
 10  9  1  0  0  0  0
 10  8  2  0  0  0  0
 11 18  1  0  0  0  0
 13 12  1  6  0  0  0
 13 16  1  0  0  0  0
 14  7  1  0  0  0  0
 15  5  1  0  0  0  0
 16  1  1  0  0  0  0
 16 30  1  0  0  0  0
 17 18  2  0  0  0  0
 17  4  1  0  0  0  0
 18 10  1  0  0  0  0
 19  2  2  0  0  0  0
 19 15  1  0  0  0  0
 20 11  2  0  0  0  0
 20  2  1  0  0  0  0
 21 26  1  0  0  0  0
 22 21  1  0  0  0  0
 22 25  2  0  0  0  0
 23 29  1  0  0  0  0
 23 28  2  0  0  0  0
 24 25  1  0  0  0  0
 25 23  1  0  0  0  0
 26 29  1  0  0  0  0
 27 21  2  0  0  0  0
 29 11  1  1  0  0  0
 30 31  1  0  0  0  0
 31 32  1  0  0  0  0
M  END
>  <MODEL>
1

>  <REMARK>
 VINA RESULT:     -10.2      0.000      0.000
  Name = 
  3 active torsions:
  status: ('A' for Active; 'I' for Inactive)
    1  A    between atoms: C_1  and  C_10
    2  A    between atoms: C_10  and  N_24
    3  A    between atoms: C_16  and  C_32
                            x       y       z     vdW  Elec       q    Type
                         _______ _______ _______ _____ _____    ______ ____

>  <TORSDO>
F 3

$$$$
=
 OpenBabel10272413343D

 32 36  0  0  1  0  0  0  0  0999 V2000
  189.0920  177.5240  146.8000 C   0  0  0  0  0  2  0  0  0  0  0  0
  187.1620  178.1630  142.2060 C   0  0  0  0  0  0  0  0  0  0  0  0
  182.1290  179.0150  144.4460 C   0  0  0  0  0  3  0  0  0  0  0  0
  181.7300  179.1670  143.1260 C   0  0  0  0  0  3  0  0  0  0  0  0
  189.3070  177.6930  144.0260 C   0  0  0  0  0  0  0  0  0  0  0  0
  186.8980  177.9450  143.6460 C   0  0  0  0  0  0  0  0  0  0  0  0
  187.8360  177.2840  145.9800 C   0  0  0  0  0  2  0  0  0  0  0  0
  183.4430  178.6520  144.7300 C   0  0  0  0  0  3  0  0  0  0  0  0
  185.7050  178.0730  144.2240 C   0  0  0  0  0  3  0  0  0  0  0  0
  184.3820  178.4360  143.7110 C   0  0  0  0  0  0  0  0  0  0  0  0
  184.8360  178.3400  141.1570 C   0  0  0  0  0  0  0  0  0  0  0  0
  191.5370  176.6140  144.1280 C   0  0  0  0  0  1  0  0  0  0  0  0
  190.5300  177.4640  144.8950 C   0  0  2  0  0  3  0  0  0  0  0  0
  188.0580  177.6530  144.5350 C   0  0  0  0  0  0  0  0  0  0  0  0
  189.4960  178.0110  142.6750 O   0  0  0  0  0  0  0  0  0  0  0  0
  190.2100  176.8200  146.1790 N   0  0  0  0  0  0  0  0  0  0  0  0
  182.6460  178.9480  142.1000 C   0  0  0  0  0  3  0  0  0  0  0  0
  183.9830  178.5770  142.3560 C   0  0  0  0  0  0  0  0  0  0  0  0
  188.4290  178.1860  141.7890 C   0  0  0  0  0  3  0  0  0  0  0  0
  186.1650  178.2090  141.1420 C   0  0  0  0  0  3  0  0  0  0  0  0
  182.5420  177.0500  138.3540 C   0  0  0  0  0  0  0  0  0  0  0  0
  183.4400  177.2000  137.2000 C   0  0  0  0  0  3  0  0  0  0  0  0
  185.1280  178.2190  138.6440 C   0  0  0  0  0  0  0  0  0  0  0  0
  185.4940  177.7970  136.2270 O   0  0  0  0  0  1  0  0  0  0  0  0
  184.6620  177.7180  137.3360 C   0  0  0  0  0  0  0  0  0  0  0  0
  183.0650  177.2340  139.7470 C   0  0  0  0  0  2  0  0  0  0  0  0
  181.3500  176.6900  138.1760 O   0  0  0  0  0  0  0  0  0  0  0  0
  186.3040  178.6610  138.7580 O   0  0  0  0  0  0  0  0  0  0  0  0
  184.1600  178.3080  139.8030 C   0  0  1  0  0  3  0  0  0  0  0  0
  191.3490  177.0120  147.0690 C   0  0  0  0  0  2  0  0  0  0  0  0
  191.9170  175.6690  147.5000 C   0  0  0  0  0  2  0  0  0  0  0  0
  192.9440  175.8590  148.5990 C   0  0  0  0  0  1  0  0  0  0  0  0
  2  6  1  0  0  0  0
  3  8  1  0  0  0  0
  4  3  2  0  0  0  0
  5 14  2  0  0  0  0
  5 13  1  0  0  0  0
  6  9  2  0  0  0  0
  6 14  1  0  0  0  0
  7  1  1  0  0  0  0
 10  9  1  0  0  0  0
 10  8  2  0  0  0  0
 11 18  1  0  0  0  0
 13 12  1  6  0  0  0
 13 16  1  0  0  0  0
 14  7  1  0  0  0  0
 15  5  1  0  0  0  0
 16  1  1  0  0  0  0
 16 30  1  0  0  0  0
 17 18  2  0  0  0  0
 17  4  1  0  0  0  0
 18 10  1  0  0  0  0
 19  2  2  0  0  0  0
 19 15  1  0  0  0  0
 20 11  2  0  0  0  0
 20  2  1  0  0  0  0
 21 26  1  0  0  0  0
 22 25  2  0  0  0  0
 22 21  1  0  0  0  0
 23 28  2  0  0  0  0
 23 29  1  0  0  0  0
 24 25  1  0  0  0  0
 25 23  1  0  0  0  0
 26 29  1  0  0  0  0
 27 21  2  0  0  0  0
 29 11  1  1  0  0  0
 30 31  1  0  0  0  0
 31 32  1  0  0  0  0
M  END
>  <MODEL>
2

>  <REMARK>
 VINA RESULT:      -9.6      1.491      2.006
  Name = 
  3 active torsions:
  status: ('A' for Active; 'I' for Inactive)
    1  A    between atoms: C_1  and  C_10
    2  A    between atoms: C_10  and  N_24
    3  A    between atoms: C_16  and  C_32
                            x       y       z     vdW  Elec       q    Type
                         _______ _______ _______ _____ _____    ______ ____

>  <TORSDO>
F 3

$$$$
=
 OpenBabel10272413343D

 32 36  0  0  1  0  0  0  0  0999 V2000
  190.3190  177.3650  144.5410 C   0  0  0  0  0  2  0  0  0  0  0  0
  186.1130  178.0230  141.8740 C   0  0  0  0  0  0  0  0  0  0  0  0
  189.1000  177.9890  137.1680 C   0  0  0  0  0  3  0  0  0  0  0  0
  187.8670  178.1720  136.5580 C   0  0  0  0  0  3  0  0  0  0  0  0
  187.5550  177.6470  144.3050 C   0  0  0  0  0  0  0  0  0  0  0  0
  187.5920  178.0380  141.8850 C   0  0  0  0  0  0  0  0  0  0  0  0
  189.7830  178.0350  143.2880 C   0  0  0  0  0  2  0  0  0  0  0  0
  189.1850  177.9780  138.5570 C   0  0  0  0  0  3  0  0  0  0  0  0
  188.3570  178.0920  140.7960 C   0  0  0  0  0  3  0  0  0  0  0  0
  188.0500  178.1460  139.3640 C   0  0  0  0  0  0  0  0  0  0  0  0
  185.4940  178.5860  139.4570 C   0  0  0  0  0  0  0  0  0  0  0  0
  187.3930  178.1370  146.7300 C   0  0  0  0  0  1  0  0  0  0  0  0
  188.2080  177.4250  145.6570 C   0  0  2  0  0  3  0  0  0  0  0  0
  188.2850  177.8860  143.1970 C   0  0  0  0  0  0  0  0  0  0  0  0
  186.1620  177.5390  144.2090 O   0  0  0  0  0  0  0  0  0  0  0  0
  189.6050  177.8860  145.7030 N   0  0  0  0  0  0  0  0  0  0  0  0
  186.7300  178.3500  137.3430 C   0  0  0  0  0  3  0  0  0  0  0  0
  186.7850  178.3450  138.7520 C   0  0  0  0  0  0  0  0  0  0  0  0
  185.4720  177.7780  143.0170 C   0  0  0  0  0  3  0  0  0  0  0  0
  185.2530  178.4020  140.7570 C   0  0  0  0  0  3  0  0  0  0  0  0
  182.2950  180.5180  138.5530 C   0  0  0  0  0  0  0  0  0  0  0  0
  181.4790  179.4220  138.0130 C   0  0  0  0  0  3  0  0  0  0  0  0
  183.3560  177.8820  138.2940 C   0  0  0  0  0  0  0  0  0  0  0  0
  181.1370  177.1670  137.4470 O   0  0  0  0  0  1  0  0  0  0  0  0
  181.9600  178.1810  137.9190 C   0  0  0  0  0  0  0  0  0  0  0  0
  183.5920  180.2240  139.2460 C   0  0  0  0  0  2  0  0  0  0  0  0
  181.8690  181.7000  138.5020 O   0  0  0  0  0  0  0  0  0  0  0  0
  183.7740  176.6940  138.2410 O   0  0  0  0  0  0  0  0  0  0  0  0
  184.3040  179.0150  138.6250 C   0  0  1  0  0  3  0  0  0  0  0  0
  190.2370  177.2780  146.8680 C   0  0  0  0  0  2  0  0  0  0  0  0
  191.5230  176.5730  146.4670 C   0  0  0  0  0  2  0  0  0  0  0  0
  192.1130  175.8370  147.6540 C   0  0  0  0  0  1  0  0  0  0  0  0
  1 16  1  0  0  0  0
  2  6  1  0  0  0  0
  2 19  2  0  0  0  0
  3  8  1  0  0  0  0
  4  3  2  0  0  0  0
  4 17  1  0  0  0  0
  5 13  1  0  0  0  0
  6 14  1  0  0  0  0
  7  1  1  0  0  0  0
  8 10  2  0  0  0  0
  9  6  2  0  0  0  0
 10  9  1  0  0  0  0
 11 20  2  0  0  0  0
 13 16  1  0  0  0  0
 13 12  1  1  0  0  0
 14  7  1  0  0  0  0
 14  5  2  0  0  0  0
 15  5  1  0  0  0  0
 16 30  1  0  0  0  0
 17 18  2  0  0  0  0
 18 10  1  0  0  0  0
 18 11  1  0  0  0  0
 19 15  1  0  0  0  0
 20  2  1  0  0  0  0
 21 26  1  0  0  0  0
 22 21  1  0  0  0  0
 23 29  1  0  0  0  0
 24 25  1  0  0  0  0
 25 22  2  0  0  0  0
 25 23  1  0  0  0  0
 27 21  2  0  0  0  0
 28 23  2  0  0  0  0
 29 26  1  0  0  0  0
 29 11  1  1  0  0  0
 31 30  1  0  0  0  0
 31 32  1  0  0  0  0
M  END
>  <MODEL>
3

>  <REMARK>
 VINA RESULT:      -9.6      1.786      3.833
  Name = 
  3 active torsions:
  status: ('A' for Active; 'I' for Inactive)
    1  A    between atoms: C_1  and  C_10
    2  A    between atoms: C_10  and  N_24
    3  A    between atoms: C_16  and  C_32
                            x       y       z     vdW  Elec       q    Type
                         _______ _______ _______ _____ _____    ______ ____

>  <TORSDO>
F 3

$$$$
=
 OpenBabel10272413343D

 32 36  0  0  1  0  0  0  0  0999 V2000
  188.0460  177.9050  144.8180 C   0  0  0  0  0  2  0  0  0  0  0  0
  185.1610  178.5620  140.7580 C   0  0  0  0  0  0  0  0  0  0  0  0
  180.6700  179.0040  144.0300 C   0  0  0  0  0  3  0  0  0  0  0  0
  179.9940  179.1720  142.8290 C   0  0  0  0  0  3  0  0  0  0  0  0
  187.6630  178.1770  142.0700 C   0  0  0  0  0  0  0  0  0  0  0  0
  185.2180  178.2800  142.2090 C   0  0  0  0  0  0  0  0  0  0  0  0
  186.6630  177.6080  144.2660 C   0  0  0  0  0  2  0  0  0  0  0  0
  182.0320  178.7200  144.0180 C   0  0  0  0  0  3  0  0  0  0  0  0
  184.1680  178.3090  143.0280 C   0  0  0  0  0  3  0  0  0  0  0  0
  182.7470  178.6000  142.8180 C   0  0  0  0  0  0  0  0  0  0  0  0
  182.6600  178.6170  140.2240 C   0  0  0  0  0  0  0  0  0  0  0  0
  189.9250  177.2460  141.6580 C   0  0  0  0  0  1  0  0  0  0  0  0
  189.0530  178.0020  142.6540 C   0  0  2  0  0  3  0  0  0  0  0  0
  186.5540  178.0380  142.8240 C   0  0  0  0  0  0  0  0  0  0  0  0
  187.5460  178.5500  140.7240 O   0  0  0  0  0  0  0  0  0  0  0  0
  189.0470  177.2970  143.9470 N   0  0  0  0  0  0  0  0  0  0  0  0
  180.6850  179.0470  141.6270 C   0  0  0  0  0  3  0  0  0  0  0  0
  182.0650  178.7580  141.5830 C   0  0  0  0  0  0  0  0  0  0  0  0
  186.3080  178.6830  140.0890 C   0  0  0  0  0  3  0  0  0  0  0  0
  183.9610  178.5760  139.9270 C   0  0  0  0  0  3  0  0  0  0  0  0
  181.2520  177.4970  136.8260 C   0  0  0  0  0  0  0  0  0  0  0  0
  180.9430  178.8060  136.2330 C   0  0  0  0  0  3  0  0  0  0  0  0
  181.6160  179.9070  138.3090 C   0  0  0  0  0  0  0  0  0  0  0  0
  180.8790  181.1540  136.2960 O   0  0  0  0  0  1  0  0  0  0  0  0
  181.1410  179.9370  136.9120 C   0  0  0  0  0  0  0  0  0  0  0  0
  182.0330  177.4110  138.1020 C   0  0  0  0  0  2  0  0  0  0  0  0
  180.9270  176.4440  136.2200 O   0  0  0  0  0  0  0  0  0  0  0  0
  181.8400  180.9890  138.9140 O   0  0  0  0  0  0  0  0  0  0  0  0
  181.7180  178.5850  139.0400 C   0  0  1  0  0  3  0  0  0  0  0  0
  190.3350  177.5350  144.5890 C   0  0  0  0  0  2  0  0  0  0  0  0
  190.2290  177.3150  146.0900 C   0  0  0  0  0  2  0  0  0  0  0  0
  191.4540  176.5860  146.6040 C   0  0  0  0  0  1  0  0  0  0  0  0
  2  6  1  0  0  0  0
  4  3  2  0  0  0  0
  5 13  1  0  0  0  0
  5 14  2  0  0  0  0
  6 14  1  0  0  0  0
  6  9  2  0  0  0  0
  7  1  1  0  0  0  0
  8  3  1  0  0  0  0
 10  9  1  0  0  0  0
 10  8  2  0  0  0  0
 11 18  1  0  0  0  0
 13 12  1  6  0  0  0
 13 16  1  0  0  0  0
 14  7  1  0  0  0  0
 15  5  1  0  0  0  0
 16 30  1  0  0  0  0
 16  1  1  0  0  0  0
 17  4  1  0  0  0  0
 18 17  2  0  0  0  0
 18 10  1  0  0  0  0
 19 15  1  0  0  0  0
 19  2  2  0  0  0  0
 20 11  2  0  0  0  0
 20  2  1  0  0  0  0
 21 26  1  0  0  0  0
 22 21  1  0  0  0  0
 22 25  2  0  0  0  0
 23 28  2  0  0  0  0
 23 29  1  0  0  0  0
 24 25  1  0  0  0  0
 25 23  1  0  0  0  0
 26 29  1  0  0  0  0
 27 21  2  0  0  0  0
 29 11  1  1  0  0  0
 30 31  1  0  0  0  0
 31 32  1  0  0  0  0
M  END
>  <MODEL>
4

>  <REMARK>
 VINA RESULT:      -9.5      1.316      2.287
  Name = 
  3 active torsions:
  status: ('A' for Active; 'I' for Inactive)
    1  A    between atoms: C_1  and  C_10
    2  A    between atoms: C_10  and  N_24
    3  A    between atoms: C_16  and  C_32
                            x       y       z     vdW  Elec       q    Type
                         _______ _______ _______ _____ _____    ______ ____

>  <TORSDO>
F 3

$$$$
=
 OpenBabel10272413343D

 32 36  0  0  1  0  0  0  0  0999 V2000
  186.8490  178.4130  144.3840 C   0  0  0  0  0  2  0  0  0  0  0  0
  190.4660  177.0000  141.1960 C   0  0  0  0  0  0  0  0  0  0  0  0
  187.1950  178.3620  136.8930 C   0  0  0  0  0  3  0  0  0  0  0  0
  188.2730  177.9370  136.1290 C   0  0  0  0  0  3  0  0  0  0  0  0
  189.4010  177.4510  143.8030 C   0  0  0  0  0  0  0  0  0  0  0  0
  189.0450  177.3700  141.3790 C   0  0  0  0  0  0  0  0  0  0  0  0
  187.0700  177.7780  143.0220 C   0  0  0  0  0  2  0  0  0  0  0  0
  187.2400  178.2320  138.2780 C   0  0  0  0  0  3  0  0  0  0  0  0
  188.2010  177.6440  140.3860 C   0  0  0  0  0  3  0  0  0  0  0  0
  188.3530  177.6810  138.9290 C   0  0  0  0  0  0  0  0  0  0  0  0
  190.6920  176.5830  138.6830 C   0  0  0  0  0  0  0  0  0  0  0  0
  189.6380  176.6540  146.1390 C   0  0  0  0  0  1  0  0  0  0  0  0
  188.9550  177.6750  145.2360 C   0  0  2  0  0  3  0  0  0  0  0  0
  188.5380  177.5410  142.7700 C   0  0  0  0  0  0  0  0  0  0  0  0
  190.7570  177.2030  143.5550 O   0  0  0  0  0  0  0  0  0  0  0  0
  187.4950  177.5910  145.4030 N   0  0  0  0  0  0  0  0  0  0  0  0
  189.3840  177.3790  136.7570 C   0  0  0  0  0  3  0  0  0  0  0  0
  189.4580  177.2320  138.1580 C   0  0  0  0  0  0  0  0  0  0  0  0
  191.2480  176.9330  142.2740 C   0  0  0  0  0  3  0  0  0  0  0  0
  191.0880  176.5440  139.9580 C   0  0  0  0  0  3  0  0  0  0  0  0
  192.3010  173.8210  136.5460 C   0  0  0  0  0  0  0  0  0  0  0  0
  193.7220  174.1340  136.7510 C   0  0  0  0  0  3  0  0  0  0  0  0
  193.1010  176.1000  138.0640 C   0  0  0  0  0  0  0  0  0  0  0  0
  195.4550  175.4120  137.6920 O   0  0  0  0  0  1  0  0  0  0  0  0
  194.1010  175.1810  137.4860 C   0  0  0  0  0  0  0  0  0  0  0  0
  191.2490  174.5110  137.3620 C   0  0  0  0  0  2  0  0  0  0  0  0
  191.9700  172.9150  135.7390 O   0  0  0  0  0  0  0  0  0  0  0  0
  193.4820  177.0550  138.7940 O   0  0  0  0  0  0  0  0  0  0  0  0
  191.6430  175.9600  137.6830 C   0  0  1  0  0  3  0  0  0  0  0  0
  187.1580  178.2010  146.6840 C   0  0  0  0  0  2  0  0  0  0  0  0
  185.9830  179.1540  146.5250 C   0  0  0  0  0  2  0  0  0  0  0  0
  184.6750  178.4140  146.7210 C   0  0  0  0  0  1  0  0  0  0  0  0
  1 16  1  0  0  0  0
  2  6  1  0  0  0  0
  2 19  2  0  0  0  0
  3  8  1  0  0  0  0
  4 17  1  0  0  0  0
  4  3  2  0  0  0  0
  5 13  1  0  0  0  0
  6 14  1  0  0  0  0
  7  1  1  0  0  0  0
  8 10  2  0  0  0  0
  9  6  2  0  0  0  0
 10  9  1  0  0  0  0
 11 20  2  0  0  0  0
 13 16  1  0  0  0  0
 13 12  1  1  0  0  0
 14  7  1  0  0  0  0
 14  5  2  0  0  0  0
 15  5  1  0  0  0  0
 16 30  1  0  0  0  0
 17 18  2  0  0  0  0
 18 11  1  0  0  0  0
 18 10  1  0  0  0  0
 19 15  1  0  0  0  0
 20  2  1  0  0  0  0
 21 22  1  0  0  0  0
 21 26  1  0  0  0  0
 22 25  2  0  0  0  0
 23 28  2  0  0  0  0
 25 24  1  0  0  0  0
 25 23  1  0  0  0  0
 26 29  1  0  0  0  0
 27 21  2  0  0  0  0
 29 23  1  0  0  0  0
 29 11  1  1  0  0  0
 31 30  1  0  0  0  0
 31 32  1  0  0  0  0
M  END
>  <MODEL>
5

>  <REMARK>
 VINA RESULT:      -9.1      4.608      7.931
  Name = 
  3 active torsions:
  status: ('A' for Active; 'I' for Inactive)
    1  A    between atoms: C_1  and  C_10
    2  A    between atoms: C_10  and  N_24
    3  A    between atoms: C_16  and  C_32
                            x       y       z     vdW  Elec       q    Type
                         _______ _______ _______ _____ _____    ______ ____

>  <TORSDO>
F 3

$$$$
=
 OpenBabel10272413343D

 32 36  0  0  1  0  0  0  0  0999 V2000
  188.2840  178.0140  145.0910 C   0  0  0  0  0  2  0  0  0  0  0  0
  191.0820  177.2060  140.9970 C   0  0  0  0  0  0  0  0  0  0  0  0
  186.6770  178.3310  137.7720 C   0  0  0  0  0  3  0  0  0  0  0  0
  187.5600  178.0780  136.7320 C   0  0  0  0  0  3  0  0  0  0  0  0
  190.6870  177.4060  143.8140 C   0  0  0  0  0  0  0  0  0  0  0  0
  189.7250  177.3860  141.5600 C   0  0  0  0  0  0  0  0  0  0  0  0
  188.2120  177.4720  143.6740 C   0  0  0  0  0  2  0  0  0  0  0  0
  187.0940  178.1470  139.0880 C   0  0  0  0  0  3  0  0  0  0  0  0
  188.6280  177.5950  140.8350 C   0  0  0  0  0  3  0  0  0  0  0  0
  188.3920  177.7130  139.3930 C   0  0  0  0  0  0  0  0  0  0  0  0
  190.6930  176.9290  138.4840 C   0  0  0  0  0  0  0  0  0  0  0  0
  191.6090  176.5460  145.9490 C   0  0  0  0  0  1  0  0  0  0  0  0
  190.6070  177.5100  145.3260 C   0  0  2  0  0  3  0  0  0  0  0  0
  189.5810  177.4320  143.0420 C   0  0  0  0  0  0  0  0  0  0  0  0
  191.9520  177.3420  143.2150 O   0  0  0  0  0  0  0  0  0  0  0  0
  189.2580  177.2360  145.8500 N   0  0  0  0  0  0  0  0  0  0  0  0
  188.8500  177.6370  137.0160 C   0  0  0  0  0  3  0  0  0  0  0  0
  189.3010  177.4400  138.3380 C   0  0  0  0  0  0  0  0  0  0  0  0
  192.1200  177.1910  141.8350 C   0  0  0  0  0  3  0  0  0  0  0  0
  191.4080  176.8860  139.6110 C   0  0  0  0  0  3  0  0  0  0  0  0
  191.7290  174.5650  135.6350 C   0  0  0  0  0  0  0  0  0  0  0  0
  193.1810  174.7920  135.6300 C   0  0  0  0  0  3  0  0  0  0  0  0
  192.9220  176.4970  137.3610 C   0  0  0  0  0  0  0  0  0  0  0  0
  195.1280  175.8200  136.4510 O   0  0  0  0  0  1  0  0  0  0  0  0
  193.7470  175.6720  136.4570 C   0  0  0  0  0  0  0  0  0  0  0  0
  190.8810  175.1230  136.7380 C   0  0  0  0  0  2  0  0  0  0  0  0
  191.2070  173.8350  134.7540 O   0  0  0  0  0  0  0  0  0  0  0  0
  193.4830  177.2880  138.1670 O   0  0  0  0  0  0  0  0  0  0  0  0
  191.4140  176.4740  137.2340 C   0  0  1  0  0  3  0  0  0  0  0  0
  189.2000  177.7440  147.2160 C   0  0  0  0  0  2  0  0  0  0  0  0
  187.8590  177.4080  147.8500 C   0  0  0  0  0  2  0  0  0  0  0  0
  187.7540  178.0360  149.2250 C   0  0  0  0  0  1  0  0  0  0  0  0
  1 16  1  0  0  0  0
  2  6  1  0  0  0  0
  2 19  2  0  0  0  0
  3  8  1  0  0  0  0
  4 17  1  0  0  0  0
  4  3  2  0  0  0  0
  5 13  1  0  0  0  0
  6 14  1  0  0  0  0
  7  1  1  0  0  0  0
  8 10  2  0  0  0  0
  9  6  2  0  0  0  0
 10  9  1  0  0  0  0
 11 20  2  0  0  0  0
 13 16  1  0  0  0  0
 13 12  1  1  0  0  0
 14  7  1  0  0  0  0
 14  5  2  0  0  0  0
 15  5  1  0  0  0  0
 16 30  1  0  0  0  0
 17 18  2  0  0  0  0
 18 11  1  0  0  0  0
 18 10  1  0  0  0  0
 19 15  1  0  0  0  0
 20  2  1  0  0  0  0
 21 26  1  0  0  0  0
 22 21  1  0  0  0  0
 22 25  2  0  0  0  0
 23 28  2  0  0  0  0
 24 25  1  0  0  0  0
 25 23  1  0  0  0  0
 26 29  1  0  0  0  0
 27 21  2  0  0  0  0
 29 23  1  0  0  0  0
 29 11  1  1  0  0  0
 30 31  1  0  0  0  0
 31 32  1  0  0  0  0
M  END
>  <MODEL>
6

>  <REMARK>
 VINA RESULT:      -8.9      4.868      7.483
  Name = 
  3 active torsions:
  status: ('A' for Active; 'I' for Inactive)
    1  A    between atoms: C_1  and  C_10
    2  A    between atoms: C_10  and  N_24
    3  A    between atoms: C_16  and  C_32
                            x       y       z     vdW  Elec       q    Type
                         _______ _______ _______ _____ _____    ______ ____

>  <TORSDO>
F 3

$$$$
=
 OpenBabel10272413343D

 32 36  0  0  1  0  0  0  0  0999 V2000
  187.9150  178.1260  137.5960 C   0  0  0  0  0  2  0  0  0  0  0  0
  189.1350  176.7990  142.2860 C   0  0  0  0  0  0  0  0  0  0  0  0
  184.2700  178.8130  144.1140 C   0  0  0  0  0  3  0  0  0  0  0  0
  184.7320  178.3970  145.3550 C   0  0  0  0  0  3  0  0  0  0  0  0
  189.6120  176.9650  139.4790 C   0  0  0  0  0  0  0  0  0  0  0  0
  188.2290  177.5740  141.4090 C   0  0  0  0  0  0  0  0  0  0  0  0
  187.7570  178.5530  139.0450 C   0  0  0  0  0  2  0  0  0  0  0  0
  185.0950  178.6990  142.9990 C   0  0  0  0  0  3  0  0  0  0  0  0
  187.0860  178.1300  141.8060 C   0  0  0  0  0  3  0  0  0  0  0  0
  186.3900  178.1710  143.0950 C   0  0  0  0  0  0  0  0  0  0  0  0
  188.2400  177.2150  144.6450 C   0  0  0  0  0  0  0  0  0  0  0  0
  191.4790  177.0390  137.8490 C   0  0  0  0  0  1  0  0  0  0  0  0
  189.9640  176.9690  138.0030 C   0  0  2  0  0  3  0  0  0  0  0  0
  188.5630  177.6630  139.9590 C   0  0  0  0  0  0  0  0  0  0  0  0
  190.3680  176.1630  140.3440 O   0  0  0  0  0  0  0  0  0  0  0  0
  189.3360  178.0770  137.2650 N   0  0  0  0  0  0  0  0  0  0  0  0
  186.0190  177.8780  145.4710 C   0  0  0  0  0  3  0  0  0  0  0  0
  186.8800  177.7520  144.3600 C   0  0  0  0  0  0  0  0  0  0  0  0
  190.1490  176.1380  141.7250 C   0  0  0  0  0  3  0  0  0  0  0  0
  189.1320  176.7960  143.7450 C   0  0  0  0  0  3  0  0  0  0  0  0
  188.5500  178.0990  148.3740 C   0  0  0  0  0  0  0  0  0  0  0  0
  189.9670  177.7770  148.5960 C   0  0  0  0  0  3  0  0  0  0  0  0
  190.1450  176.9670  146.2970 C   0  0  0  0  0  0  0  0  0  0  0  0
  192.0700  177.0310  147.8600 O   0  0  0  0  0  1  0  0  0  0  0  0
  190.7240  177.2770  147.6180 C   0  0  0  0  0  0  0  0  0  0  0  0
  187.9880  178.1160  146.9840 C   0  0  0  0  0  2  0  0  0  0  0  0
  187.8260  178.4380  149.3450 O   0  0  0  0  0  0  0  0  0  0  0  0
  190.8900  176.5380  145.3750 O   0  0  0  0  0  0  0  0  0  0  0  0
  188.6470  177.0540  146.0940 C   0  0  1  0  0  3  0  0  0  0  0  0
  189.4060  177.7620  135.8430 C   0  0  0  0  0  2  0  0  0  0  0  0
  188.3240  176.7610  135.4680 C   0  0  0  0  0  2  0  0  0  0  0  0
  188.9240  175.6000  134.7000 C   0  0  0  0  0  1  0  0  0  0  0  0
  1  7  1  0  0  0  0
  2 20  1  0  0  0  0
  3  4  1  0  0  0  0
  4 17  2  0  0  0  0
  5 14  2  0  0  0  0
  5 15  1  0  0  0  0
  6  9  2  0  0  0  0
  6  2  1  0  0  0  0
  7 14  1  0  0  0  0
  8 10  1  0  0  0  0
  8  3  2  0  0  0  0
  9 10  1  0  0  0  0
 10 18  2  0  0  0  0
 13 12  1  1  0  0  0
 13  5  1  0  0  0  0
 14  6  1  0  0  0  0
 15 19  1  0  0  0  0
 16  1  1  0  0  0  0
 16 13  1  0  0  0  0
 18 11  1  0  0  0  0
 18 17  1  0  0  0  0
 19  2  2  0  0  0  0
 20 11  2  0  0  0  0
 21 22  1  0  0  0  0
 21 27  2  0  0  0  0
 23 25  1  0  0  0  0
 25 24  1  0  0  0  0
 25 22  2  0  0  0  0
 26 21  1  0  0  0  0
 28 23  2  0  0  0  0
 29 11  1  6  0  0  0
 29 23  1  0  0  0  0
 29 26  1  0  0  0  0
 30 16  1  0  0  0  0
 31 30  1  0  0  0  0
 32 31  1  0  0  0  0
M  END
>  <MODEL>
7

>  <REMARK>
 VINA RESULT:      -8.9      4.232      8.237
  Name = 
  3 active torsions:
  status: ('A' for Active; 'I' for Inactive)
    1  A    between atoms: C_1  and  C_10
    2  A    between atoms: C_10  and  N_24
    3  A    between atoms: C_16  and  C_32
                            x       y       z     vdW  Elec       q    Type
                         _______ _______ _______ _____ _____    ______ ____

>  <TORSDO>
F 3

$$$$
=
 OpenBabel10272413343D

 32 36  0  0  1  0  0  0  0  0999 V2000
  188.4520  178.0340  145.9410 C   0  0  0  0  0  2  0  0  0  0  0  0
  189.1810  177.4690  141.0020 C   0  0  0  0  0  0  0  0  0  0  0  0
  184.0310  179.3700  140.0310 C   0  0  0  0  0  3  0  0  0  0  0  0
  184.3650  179.1630  138.7000 C   0  0  0  0  0  3  0  0  0  0  0  0
  190.0110  177.3660  143.7280 C   0  0  0  0  0  0  0  0  0  0  0  0
  188.2130  177.7040  142.0970 C   0  0  0  0  0  0  0  0  0  0  0  0
  187.7310  177.6740  144.6530 C   0  0  0  0  0  2  0  0  0  0  0  0
  184.9240  178.9930  141.0300 C   0  0  0  0  0  3  0  0  0  0  0  0
  186.9530  178.0970  141.9210 C   0  0  0  0  0  3  0  0  0  0  0  0
  186.1620  178.4080  140.7270 C   0  0  0  0  0  0  0  0  0  0  0  0
  187.7580  177.5320  138.8770 C   0  0  0  0  0  0  0  0  0  0  0  0
  191.6070  176.1760  145.2070 C   0  0  0  0  0  1  0  0  0  0  0  0
  190.5750  177.2960  145.1350 C   0  0  2  0  0  3  0  0  0  0  0  0
  188.7000  177.5850  143.5010 C   0  0  0  0  0  0  0  0  0  0  0  0
  190.8960  177.2580  142.6470 O   0  0  0  0  0  0  0  0  0  0  0  0
  189.5390  177.0860  146.1600 N   0  0  0  0  0  0  0  0  0  0  0  0
  185.5870  178.5760  138.3800 C   0  0  0  0  0  3  0  0  0  0  0  0
  186.5110  178.1820  139.3700 C   0  0  0  0  0  0  0  0  0  0  0  0
  190.4590  177.2600  141.3190 C   0  0  0  0  0  3  0  0  0  0  0  0
  188.8610  177.2880  139.5900 C   0  0  0  0  0  3  0  0  0  0  0  0
  188.3490  175.3220  135.7870 C   0  0  0  0  0  0  0  0  0  0  0  0
  189.1040  176.2600  134.9430 C   0  0  0  0  0  3  0  0  0  0  0  0
  188.8120  178.0100  136.6230 C   0  0  0  0  0  0  0  0  0  0  0  0
  190.1070  178.3460  134.5340 O   0  0  0  0  0  1  0  0  0  0  0  0
  189.3490  177.5090  135.3440 C   0  0  0  0  0  0  0  0  0  0  0  0
  188.0590  175.6600  137.2180 C   0  0  0  0  0  2  0  0  0  0  0  0
  188.0130  174.2000  135.3290 O   0  0  0  0  0  0  0  0  0  0  0  0
  189.0960  179.1780  137.0020 O   0  0  0  0  0  0  0  0  0  0  0  0
  187.8330  177.1650  137.4100 C   0  0  1  0  0  3  0  0  0  0  0  0
  190.1170  177.4290  147.4540 C   0  0  0  0  0  2  0  0  0  0  0  0
  189.2180  178.4090  148.1920 C   0  0  0  0  0  2  0  0  0  0  0  0
  188.1530  177.6630  148.9710 C   0  0  0  0  0  1  0  0  0  0  0  0
  1 16  1  0  0  0  0
  2 19  2  0  0  0  0
  2  6  1  0  0  0  0
  3  8  1  0  0  0  0
  4  3  2  0  0  0  0
  5 13  1  0  0  0  0
  6 14  1  0  0  0  0
  7  1  1  0  0  0  0
  9  6  2  0  0  0  0
 10  8  2  0  0  0  0
 10  9  1  0  0  0  0
 11 18  1  0  0  0  0
 11 20  2  0  0  0  0
 13 12  1  6  0  0  0
 13 16  1  0  0  0  0
 14  5  2  0  0  0  0
 14  7  1  0  0  0  0
 15  5  1  0  0  0  0
 16 30  1  0  0  0  0
 17  4  1  0  0  0  0
 17 18  2  0  0  0  0
 18 10  1  0  0  0  0
 19 15  1  0  0  0  0
 20  2  1  0  0  0  0
 21 26  1  0  0  0  0
 22 25  2  0  0  0  0
 22 21  1  0  0  0  0
 23 28  2  0  0  0  0
 23 29  1  0  0  0  0
 24 25  1  0  0  0  0
 25 23  1  0  0  0  0
 26 29  1  0  0  0  0
 27 21  2  0  0  0  0
 29 11  1  1  0  0  0
 30 31  1  0  0  0  0
 31 32  1  0  0  0  0
M  END
>  <MODEL>
8

>  <REMARK>
 VINA RESULT:      -8.8      3.302      5.037
  Name = 
  3 active torsions:
  status: ('A' for Active; 'I' for Inactive)
    1  A    between atoms: C_1  and  C_10
    2  A    between atoms: C_10  and  N_24
    3  A    between atoms: C_16  and  C_32
                            x       y       z     vdW  Elec       q    Type
                         _______ _______ _______ _____ _____    ______ ____

>  <TORSDO>
F 3

$$$$
=
 OpenBabel10272413343D

 32 36  0  0  1  0  0  0  0  0999 V2000
  190.7080  177.4590  145.3200 C   0  0  0  0  0  2  0  0  0  0  0  0
  185.8700  177.8580  144.0250 C   0  0  0  0  0  0  0  0  0  0  0  0
  187.3500  178.3250  138.6710 C   0  0  0  0  0  3  0  0  0  0  0  0
  185.9820  178.4240  138.4540 C   0  0  0  0  0  3  0  0  0  0  0  0
  187.9830  177.4980  145.9060 C   0  0  0  0  0  0  0  0  0  0  0  0
  187.2840  178.0070  143.6130 C   0  0  0  0  0  0  0  0  0  0  0  0
  189.7830  178.1370  144.3240 C   0  0  0  0  0  2  0  0  0  0  0  0
  187.8360  178.2550  139.9730 C   0  0  0  0  0  3  0  0  0  0  0  0
  187.6910  178.1840  142.3570 C   0  0  0  0  0  3  0  0  0  0  0  0
  186.9770  178.2790  141.0810 C   0  0  0  0  0  0  0  0  0  0  0  0
  184.5340  178.4780  141.9340 C   0  0  0  0  0  0  0  0  0  0  0  0
  188.5000  177.8540  148.3050 C   0  0  0  0  0  1  0  0  0  0  0  0
  189.0160  177.2710  146.9940 C   0  0  2  0  0  3  0  0  0  0  0  0
  188.3380  177.8570  144.6560 C   0  0  0  0  0  0  0  0  0  0  0  0
  186.6340  177.2680  146.2060 O   0  0  0  0  0  0  0  0  0  0  0  0
  190.3280  177.8560  146.6720 N   0  0  0  0  0  0  0  0  0  0  0  0
  185.1140  178.4590  139.5430 C   0  0  0  0  0  3  0  0  0  0  0  0
  185.5770  178.3910  140.8740 C   0  0  0  0  0  0  0  0  0  0  0  0
  185.6110  177.5010  145.2830 C   0  0  0  0  0  3  0  0  0  0  0  0
  184.6970  178.2100  143.2320 C   0  0  0  0  0  3  0  0  0  0  0  0
  180.8940  179.6540  142.3200 C   0  0  0  0  0  0  0  0  0  0  0  0
  180.2120  178.6490  141.4920 C   0  0  0  0  0  3  0  0  0  0  0  0
  182.3720  177.6880  140.8750 C   0  0  0  0  0  0  0  0  0  0  0  0
  180.2080  176.7500  140.1070 O   0  0  0  0  0  1  0  0  0  0  0  0
  180.8970  177.7080  140.8400 C   0  0  0  0  0  0  0  0  0  0  0  0
  182.3460  179.4950  142.6580 C   0  0  0  0  0  2  0  0  0  0  0  0
  180.2390  180.6090  142.8100 O   0  0  0  0  0  0  0  0  0  0  0  0
  182.9960  176.7620  140.2890 O   0  0  0  0  0  0  0  0  0  0  0  0
  183.1250  178.8360  141.5120 C   0  0  1  0  0  3  0  0  0  0  0  0
  191.3150  177.2520  147.5600 C   0  0  0  0  0  2  0  0  0  0  0  0
  191.9800  176.0640  146.8830 C   0  0  0  0  0  2  0  0  0  0  0  0
  192.0490  174.8860  147.8350 C   0  0  0  0  0  1  0  0  0  0  0  0
  1 16  1  0  0  0  0
  2 19  2  0  0  0  0
  3  8  1  0  0  0  0
  4  3  2  0  0  0  0
  4 17  1  0  0  0  0
  5 15  1  0  0  0  0
  5 13  1  0  0  0  0
  6  2  1  0  0  0  0
  6 14  1  0  0  0  0
  7 14  1  0  0  0  0
  7  1  1  0  0  0  0
  8 10  2  0  0  0  0
  9  6  2  0  0  0  0
 10  9  1  0  0  0  0
 11 20  2  0  0  0  0
 13 12  1  1  0  0  0
 14  5  2  0  0  0  0
 16 13  1  0  0  0  0
 16 30  1  0  0  0  0
 17 18  2  0  0  0  0
 18 10  1  0  0  0  0
 18 11  1  0  0  0  0
 19 15  1  0  0  0  0
 20  2  1  0  0  0  0
 21 26  1  0  0  0  0
 21 27  2  0  0  0  0
 22 21  1  0  0  0  0
 23 29  1  0  0  0  0
 24 25  1  0  0  0  0
 25 23  1  0  0  0  0
 25 22  2  0  0  0  0
 28 23  2  0  0  0  0
 29 11  1  1  0  0  0
 29 26  1  0  0  0  0
 31 30  1  0  0  0  0
 31 32  1  0  0  0  0
M  END
>  <MODEL>
9

>  <REMARK>
 VINA RESULT:      -8.5      2.045      3.667
  Name = 
  3 active torsions:
  status: ('A' for Active; 'I' for Inactive)
    1  A    between atoms: C_1  and  C_10
    2  A    between atoms: C_10  and  N_24
    3  A    between atoms: C_16  and  C_32
                            x       y       z     vdW  Elec       q    Type
                         _______ _______ _______ _____ _____    ______ ____

>  <TORSDO>
F 3

$$$$
