=
 OpenBabel10272401573D

 28 32  0  0  1  0  0  0  0  0999 V2000
  188.7360  177.2050  138.8450 N   0  0  0  0  0  0  0  0  0  0  0  0
  184.4530  179.0650  138.6900 C   0  0  0  0  0  3  0  0  0  0  0  0
  187.1520  176.9320  134.5380 C   0  0  0  0  0  1  0  0  0  0  0  0
  184.0780  176.7050  138.2620 C   0  0  0  0  0  0  0  0  0  0  0  0
  186.0640  177.8390  137.1590 C   0  0  1  0  0  3  0  0  0  0  0  0
  182.5480  177.9430  139.6800 C   0  0  0  0  0  0  0  0  0  0  0  0
  184.8670  177.8640  138.0900 C   0  0  0  0  0  0  0  0  0  0  0  0
  185.4350  175.6140  136.4850 C   0  0  0  0  0  2  0  0  0  0  0  0
  182.9360  176.7480  139.0690 C   0  0  0  0  0  3  0  0  0  0  0  0
  188.8110  177.3100  136.3560 C   0  0  2  0  0  3  0  0  0  0  0  0
  187.2010  178.7530  137.6660 C   0  0  0  0  0  2  0  0  0  0  0  0
  184.4780  175.3960  137.6480 C   0  0  0  0  0  2  0  0  0  0  0  0
  190.0550  175.7100  137.4380 C   0  0  0  0  0  2  0  0  0  0  0  0
  187.6180  176.4480  135.9100 C   0  0  1  0  0  3  0  0  0  0  0  0
  190.0320  176.5960  136.3420 O   0  0  0  0  0  0  0  0  0  0  0  0
  181.1180  177.9860  140.6870 Cl  0  0  0  0  0  0  0  0  0  0  0  0
  183.3040  179.1020  139.4860 C   0  0  0  0  0  3  0  0  0  0  0  0
  186.5440  176.4620  136.9240 N   0  0  1  0  0  0  0  0  0  0  0  0
  190.0100  176.4940  138.7440 C   0  0  0  0  0  2  0  0  0  0  0  0
  188.5870  178.0840  137.6760 C   0  0  1  0  0  3  0  0  0  0  0  0
  188.8390  178.0620  140.0210 C   0  0  0  0  0  2  0  0  0  0  0  0
  187.8560  177.6490  141.1150 C   0  0  2  0  0  3  0  0  0  0  0  0
  186.5840  177.6990  143.6820 C   0  0  0  0  0  0  0  0  0  0  0  0
  186.8530  178.7600  141.4400 C   0  0  0  0  0  2  0  0  0  0  0  0
  188.5550  177.1470  142.3510 C   0  0  0  0  0  3  0  0  0  0  0  0
  187.9440  177.1510  143.5390 C   0  0  0  0  0  3  0  0  0  0  0  0
  186.0200  177.6770  144.8060 O   0  0  0  0  0  0  0  0  0  0  0  0
  185.8600  178.2620  142.4910 C   0  0  0  0  0  2  0  0  0  0  0  0
  1 21  1  0  0  0  0
  2 17  1  0  0  0  0
  4  9  2  0  0  0  0
  5 11  1  1  0  0  0
  5  7  1  0  0  0  0
  6 16  1  0  0  0  0
  7  4  1  0  0  0  0
  7  2  2  0  0  0  0
  8 12  1  0  0  0  0
  9  6  1  0  0  0  0
 10 15  1  1  0  0  0
 10 20  1  0  0  0  0
 12  4  1  0  0  0  0
 13 19  1  0  0  0  0
 14  3  1  6  0  0  0
 14 10  1  0  0  0  0
 14 18  1  0  0  0  0
 15 13  1  0  0  0  0
 17  6  2  0  0  0  0
 18  8  1  6  0  0  0
 18  5  1  0  0  0  0
 19  1  1  0  0  0  0
 20 11  1  6  0  0  0
 20  1  1  0  0  0  0
 22 21  1  6  0  0  0
 22 24  1  0  0  0  0
 22 25  1  0  0  0  0
 23 27  2  0  0  0  0
 24 28  1  0  0  0  0
 25 26  2  0  0  0  0
 26 23  1  0  0  0  0
 28 23  1  0  0  0  0
M  END
>  <MODEL>
1

>  <REMARK>
 VINA RESULT:      -6.5      0.000      0.000
  Name = 
  2 active torsions:
  status: ('A' for Active; 'I' for Inactive)
    1  A    between atoms: N_1  and  C_2
    2  A    between atoms: C_2  and  C_3
                            x       y       z     vdW  Elec       q    Type
                         _______ _______ _______ _____ _____    ______ ____

>  <TORSDO>
F 2

$$$$
=
 OpenBabel10272401573D

 28 32  0  0  1  0  0  0  0  0999 V2000
  189.0450  177.2060  139.4850 N   0  0  0  0  0  0  0  0  0  0  0  0
  184.7990  177.8230  137.6350 C   0  0  0  0  0  3  0  0  0  0  0  0
  189.2640  176.4080  134.9620 C   0  0  0  0  0  1  0  0  0  0  0  0
  185.1990  175.4400  137.3930 C   0  0  0  0  0  0  0  0  0  0  0  0
  187.1060  177.0470  136.9160 C   0  0  1  0  0  3  0  0  0  0  0  0
  183.0030  176.2480  138.0340 C   0  0  0  0  0  0  0  0  0  0  0  0
  185.6850  176.7660  137.3660 C   0  0  0  0  0  0  0  0  0  0  0  0
  187.3350  174.7180  136.3410 C   0  0  0  0  0  2  0  0  0  0  0  0
  183.8680  175.1890  137.7440 C   0  0  0  0  0  3  0  0  0  0  0  0
  189.9960  177.2680  137.1810 C   0  0  2  0  0  3  0  0  0  0  0  0
  187.7180  178.2480  137.6700 C   0  0  0  0  0  2  0  0  0  0  0  0
  186.1030  174.2760  137.1190 C   0  0  0  0  0  2  0  0  0  0  0  0
  191.1110  176.0940  138.8120 C   0  0  0  0  0  2  0  0  0  0  0  0
  189.3000  176.1030  136.4590 C   0  0  1  0  0  3  0  0  0  0  0  0
  191.2730  176.9140  137.6770 O   0  0  0  0  0  0  0  0  0  0  0  0
  181.3400  175.9230  138.4720 Cl  0  0  0  0  0  0  0  0  0  0  0  0
  183.4670  177.5640  137.9740 C   0  0  0  0  0  3  0  0  0  0  0  0
  187.9610  175.8470  137.0300 N   0  0  1  0  0  0  0  0  0  0  0  0
  190.4010  176.8680  139.9170 C   0  0  0  0  0  2  0  0  0  0  0  0
  189.1220  177.9830  138.2390 C   0  0  1  0  0  3  0  0  0  0  0  0
  188.4980  178.0870  140.5110 C   0  0  0  0  0  2  0  0  0  0  0  0
  188.6210  177.4790  141.9070 C   0  0  2  0  0  3  0  0  0  0  0  0
  188.5780  177.4070  144.7720 C   0  0  0  0  0  0  0  0  0  0  0  0
  187.2780  177.4440  142.6430 C   0  0  0  0  0  2  0  0  0  0  0  0
  189.6910  178.1490  142.7290 C   0  0  0  0  0  3  0  0  0  0  0  0
  189.6760  178.0880  144.0630 C   0  0  0  0  0  3  0  0  0  0  0  0
  188.5920  177.3450  146.0280 O   0  0  0  0  0  0  0  0  0  0  0  0
  187.4560  176.7680  144.0020 C   0  0  0  0  0  2  0  0  0  0  0  0
  1 19  1  0  0  0  0
  1 21  1  0  0  0  0
  2 17  1  0  0  0  0
  4  9  2  0  0  0  0
  5 18  1  0  0  0  0
  5  7  1  0  0  0  0
  5 11  1  1  0  0  0
  6 16  1  0  0  0  0
  7  4  1  0  0  0  0
  7  2  2  0  0  0  0
  8 12  1  0  0  0  0
  9  6  1  0  0  0  0
 10 15  1  1  0  0  0
 10 20  1  0  0  0  0
 12  4  1  0  0  0  0
 13 19  1  0  0  0  0
 14  3  1  6  0  0  0
 14 18  1  0  0  0  0
 14 10  1  0  0  0  0
 15 13  1  0  0  0  0
 17  6  2  0  0  0  0
 18  8  1  6  0  0  0
 20 11  1  6  0  0  0
 20  1  1  0  0  0  0
 22 21  1  6  0  0  0
 22 24  1  0  0  0  0
 22 25  1  0  0  0  0
 23 27  2  0  0  0  0
 24 28  1  0  0  0  0
 25 26  2  0  0  0  0
 26 23  1  0  0  0  0
 28 23  1  0  0  0  0
M  END
>  <MODEL>
2

>  <REMARK>
 VINA RESULT:      -6.4      1.499      1.876
  Name = 
  2 active torsions:
  status: ('A' for Active; 'I' for Inactive)
    1  A    between atoms: N_1  and  C_2
    2  A    between atoms: C_2  and  C_3
                            x       y       z     vdW  Elec       q    Type
                         _______ _______ _______ _____ _____    ______ ____

>  <TORSDO>
F 2

$$$$
=
 OpenBabel10272401573D

 28 32  0  0  1  0  0  0  0  0999 V2000
  188.4880  176.7670  142.0650 N   0  0  0  0  0  0  0  0  0  0  0  0
  187.6620  178.4140  137.7720 C   0  0  0  0  0  3  0  0  0  0  0  0
  192.5060  177.6670  140.0210 C   0  0  0  0  0  1  0  0  0  0  0  0
  188.7110  176.2600  137.3770 C   0  0  0  0  0  0  0  0  0  0  0  0
  189.6380  177.7430  139.2180 C   0  0  1  0  0  3  0  0  0  0  0  0
  186.8480  176.9770  135.9990 C   0  0  0  0  0  0  0  0  0  0  0  0
  188.6220  177.4510  138.1300 C   0  0  0  0  0  0  0  0  0  0  0  0
  190.8560  175.7780  138.5420 C   0  0  0  0  0  2  0  0  0  0  0  0
  187.8140  176.0230  136.3310 C   0  0  0  0  0  3  0  0  0  0  0  0
  190.8360  177.5800  141.8650 C   0  0  2  0  0  3  0  0  0  0  0  0
  189.0080  178.5210  140.3940 C   0  0  0  0  0  2  0  0  0  0  0  0
  189.7130  175.1980  137.7210 C   0  0  0  0  0  2  0  0  0  0  0  0
  190.3930  175.7920  143.2380 C   0  0  0  0  0  2  0  0  0  0  0  0
  191.3870  176.8320  140.6400 C   0  0  1  0  0  3  0  0  0  0  0  0
  191.1790  176.9510  143.0850 O   0  0  0  0  0  0  0  0  0  0  0  0
  185.7300  176.6710  134.6880 Cl  0  0  0  0  0  0  0  0  0  0  0  0
  186.7760  178.1740  136.7170 C   0  0  0  0  0  3  0  0  0  0  0  0
  190.3070  176.5110  139.6840 N   0  0  1  0  0  0  0  0  0  0  0  0
  188.9190  176.1680  143.3280 C   0  0  0  0  0  2  0  0  0  0  0  0
  189.3330  177.9360  141.7790 C   0  0  1  0  0  3  0  0  0  0  0  0
  187.1320  177.2570  142.2880 C   0  0  0  0  0  2  0  0  0  0  0  0
  186.9870  177.9320  143.6510 C   0  0  2  0  0  3  0  0  0  0  0  0
  185.7540  178.6110  146.1470 C   0  0  0  0  0  0  0  0  0  0  0  0
  187.0050  176.9220  144.8010 C   0  0  0  0  0  2  0  0  0  0  0  0
  185.7820  178.8330  143.7160 C   0  0  0  0  0  3  0  0  0  0  0  0
  185.2300  179.1640  144.8870 C   0  0  0  0  0  3  0  0  0  0  0  0
  185.2320  178.9480  147.2400 O   0  0  0  0  0  0  0  0  0  0  0  0
  186.9230  177.6640  146.1360 C   0  0  0  0  0  2  0  0  0  0  0  0
  1 21  1  0  0  0  0
  1 19  1  0  0  0  0
  2  7  1  0  0  0  0
  4 12  1  0  0  0  0
  4  7  2  0  0  0  0
  5 18  1  0  0  0  0
  5 11  1  1  0  0  0
  6  9  2  0  0  0  0
  6 17  1  0  0  0  0
  7  5  1  0  0  0  0
  9  4  1  0  0  0  0
 10 15  1  1  0  0  0
 12  8  1  0  0  0  0
 13 19  1  0  0  0  0
 14  3  1  6  0  0  0
 14 10  1  0  0  0  0
 15 13  1  0  0  0  0
 16  6  1  0  0  0  0
 17  2  2  0  0  0  0
 18  8  1  6  0  0  0
 18 14  1  0  0  0  0
 20 11  1  6  0  0  0
 20 10  1  0  0  0  0
 20  1  1  0  0  0  0
 22 21  1  6  0  0  0
 22 25  1  0  0  0  0
 22 24  1  0  0  0  0
 23 27  2  0  0  0  0
 24 28  1  0  0  0  0
 25 26  2  0  0  0  0
 26 23  1  0  0  0  0
 28 23  1  0  0  0  0
M  END
>  <MODEL>
3

>  <REMARK>
 VINA RESULT:      -6.1      3.108      4.824
  Name = 
  2 active torsions:
  status: ('A' for Active; 'I' for Inactive)
    1  A    between atoms: N_1  and  C_2
    2  A    between atoms: C_2  and  C_3
                            x       y       z     vdW  Elec       q    Type
                         _______ _______ _______ _____ _____    ______ ____

>  <TORSDO>
F 2

$$$$
=
 OpenBabel10272401573D

 28 32  0  0  1  0  0  0  0  0999 V2000
  188.5220  177.7300  140.5610 N   0  0  0  0  0  0  0  0  0  0  0  0
  187.0340  178.1490  136.1520 C   0  0  0  0  0  3  0  0  0  0  0  0
  191.8530  176.3130  137.7260 C   0  0  0  0  0  1  0  0  0  0  0  0
  187.2160  175.7500  136.4790 C   0  0  0  0  0  0  0  0  0  0  0  0
  189.0410  177.2470  137.4170 C   0  0  1  0  0  3  0  0  0  0  0  0
  185.3450  176.6720  135.2390 C   0  0  0  0  0  0  0  0  0  0  0  0
  187.7150  177.0520  136.7050 C   0  0  0  0  0  0  0  0  0  0  0  0
  189.3530  174.8580  137.3890 C   0  0  0  0  0  2  0  0  0  0  0  0
  186.0270  175.5700  135.7640 C   0  0  0  0  0  3  0  0  0  0  0  0
  190.8430  177.4590  139.6920 C   0  0  2  0  0  3  0  0  0  0  0  0
  189.0460  178.5310  138.2750 C   0  0  0  0  0  2  0  0  0  0  0  0
  187.9020  174.5460  137.0520 C   0  0  0  0  0  2  0  0  0  0  0  0
  190.2930  176.5060  141.7090 C   0  0  0  0  0  2  0  0  0  0  0  0
  190.7610  176.2160  138.7910 C   0  0  1  0  0  3  0  0  0  0  0  0
  191.3150  177.1580  140.9910 O   0  0  0  0  0  0  0  0  0  0  0  0
  183.8590  176.4350  134.3460 Cl  0  0  0  0  0  0  0  0  0  0  0  0
  185.8520  177.9590  135.4290 C   0  0  0  0  0  3  0  0  0  0  0  0
  189.4070  176.0620  138.2200 N   0  0  1  0  0  0  0  0  0  0  0  0
  189.0960  177.4340  141.8730 C   0  0  0  0  0  2  0  0  0  0  0  0
  189.5620  178.3270  139.7090 C   0  0  1  0  0  3  0  0  0  0  0  0
  187.5050  178.7520  140.7820 C   0  0  0  0  0  2  0  0  0  0  0  0
  186.0920  178.1820  140.6710 C   0  0  2  0  0  3  0  0  0  0  0  0
  183.2270  178.2100  140.6180 C   0  0  0  0  0  0  0  0  0  0  0  0
  185.3640  178.6810  139.4190 C   0  0  0  0  0  2  0  0  0  0  0  0
  185.2820  178.4160  141.9190 C   0  0  0  0  0  3  0  0  0  0  0  0
  183.9470  178.4020  141.8890 C   0  0  0  0  0  3  0  0  0  0  0  0
  181.9690  178.1820  140.6130 O   0  0  0  0  0  0  0  0  0  0  0  0
  183.9850  178.0260  139.3330 C   0  0  0  0  0  2  0  0  0  0  0  0
  1 21  1  0  0  0  0
  1 19  1  0  0  0  0
  2  7  1  0  0  0  0
  4  7  2  0  0  0  0
  4 12  1  0  0  0  0
  5 18  1  0  0  0  0
  5 11  1  1  0  0  0
  6 17  1  0  0  0  0
  6  9  2  0  0  0  0
  7  5  1  0  0  0  0
  9  4  1  0  0  0  0
 10 20  1  0  0  0  0
 10 15  1  1  0  0  0
 12  8  1  0  0  0  0
 13 19  1  0  0  0  0
 14  3  1  6  0  0  0
 14 10  1  0  0  0  0
 15 13  1  0  0  0  0
 16  6  1  0  0  0  0
 17  2  2  0  0  0  0
 18  8  1  6  0  0  0
 18 14  1  0  0  0  0
 20 11  1  6  0  0  0
 20  1  1  0  0  0  0
 22 21  1  1  0  0  0
 22 25  1  0  0  0  0
 23 26  1  0  0  0  0
 24 22  1  0  0  0  0
 26 25  2  0  0  0  0
 27 23  2  0  0  0  0
 28 24  1  0  0  0  0
 28 23  1  0  0  0  0
M  END
>  <MODEL>
4

>  <REMARK>
 VINA RESULT:      -5.9      2.438      4.051
  Name = 
  2 active torsions:
  status: ('A' for Active; 'I' for Inactive)
    1  A    between atoms: N_1  and  C_2
    2  A    between atoms: C_2  and  C_3
                            x       y       z     vdW  Elec       q    Type
                         _______ _______ _______ _____ _____    ______ ____

>  <TORSDO>
F 2

$$$$
=
 OpenBabel10272401573D

 28 32  0  0  1  0  0  0  0  0999 V2000
  189.2270  176.8970  138.7750 N   0  0  0  0  0  0  0  0  0  0  0  0
  184.9780  178.8110  138.4450 C   0  0  0  0  0  3  0  0  0  0  0  0
  188.0040  177.0450  134.3460 C   0  0  0  0  0  1  0  0  0  0  0  0
  184.6320  176.5050  137.7670 C   0  0  0  0  0  0  0  0  0  0  0  0
  186.7060  177.7150  136.9430 C   0  0  1  0  0  3  0  0  0  0  0  0
  182.9940  177.6230  139.1650 C   0  0  0  0  0  0  0  0  0  0  0  0
  185.4350  177.6660  137.7710 C   0  0  0  0  0  0  0  0  0  0  0  0
  186.1280  175.5690  136.0130 C   0  0  0  0  0  2  0  0  0  0  0  0
  183.4270  176.4850  138.4780 C   0  0  0  0  0  3  0  0  0  0  0  0
  189.5080  177.2330  136.3210 C   0  0  2  0  0  3  0  0  0  0  0  0
  187.8000  178.5650  137.6250 C   0  0  0  0  0  2  0  0  0  0  0  0
  185.0760  175.2550  137.0680 C   0  0  0  0  0  2  0  0  0  0  0  0
  190.6530  175.5260  137.3470 C   0  0  0  0  0  2  0  0  0  0  0  0
  188.3530  176.4300  135.7000 C   0  0  1  0  0  3  0  0  0  0  0  0
  190.7240  176.5100  136.3410 O   0  0  0  0  0  0  0  0  0  0  0  0
  181.4850  177.5870  140.0510 Cl  0  0  0  0  0  0  0  0  0  0  0  0
  183.7670  178.7860  139.1430 C   0  0  0  0  0  3  0  0  0  0  0  0
  187.1990  176.3610  136.6200 N   0  0  1  0  0  0  0  0  0  0  0  0
  190.5030  176.1850  138.7130 C   0  0  0  0  0  2  0  0  0  0  0  0
  189.1780  177.8830  137.6860 C   0  0  1  0  0  3  0  0  0  0  0  0
  189.2350  177.6400  140.0310 C   0  0  0  0  0  2  0  0  0  0  0  0
  189.9960  176.8950  141.1270 C   0  0  2  0  0  3  0  0  0  0  0  0
  191.1640  176.4650  143.7080 C   0  0  0  0  0  0  0  0  0  0  0  0
  189.0960  176.5370  142.3140 C   0  0  0  0  0  2  0  0  0  0  0  0
  191.2330  177.6340  141.5660 C   0  0  0  0  0  3  0  0  0  0  0  0
  191.7850  177.4080  142.7620 C   0  0  0  0  0  3  0  0  0  0  0  0
  191.7090  176.2520  144.8220 O   0  0  0  0  0  0  0  0  0  0  0  0
  189.8990  175.7400  143.3430 C   0  0  0  0  0  2  0  0  0  0  0  0
  1 21  1  0  0  0  0
  2 17  1  0  0  0  0
  4  7  1  0  0  0  0
  4  9  2  0  0  0  0
  5 11  1  1  0  0  0
  5  7  1  0  0  0  0
  6 16  1  0  0  0  0
  7  2  2  0  0  0  0
  8 12  1  0  0  0  0
  9  6  1  0  0  0  0
 10 15  1  1  0  0  0
 10 20  1  0  0  0  0
 12  4  1  0  0  0  0
 13 19  1  0  0  0  0
 14  3  1  6  0  0  0
 14 10  1  0  0  0  0
 14 18  1  0  0  0  0
 15 13  1  0  0  0  0
 17  6  2  0  0  0  0
 18  8  1  6  0  0  0
 18  5  1  0  0  0  0
 19  1  1  0  0  0  0
 20 11  1  6  0  0  0
 20  1  1  0  0  0  0
 22 21  1  6  0  0  0
 22 25  1  0  0  0  0
 22 24  1  0  0  0  0
 23 27  2  0  0  0  0
 24 28  1  0  0  0  0
 25 26  2  0  0  0  0
 26 23  1  0  0  0  0
 28 23  1  0  0  0  0
M  END
>  <MODEL>
5

>  <REMARK>
 VINA RESULT:      -5.8      1.731      2.158
  Name = 
  2 active torsions:
  status: ('A' for Active; 'I' for Inactive)
    1  A    between atoms: N_1  and  C_2
    2  A    between atoms: C_2  and  C_3
                            x       y       z     vdW  Elec       q    Type
                         _______ _______ _______ _____ _____    ______ ____

>  <TORSDO>
F 2

$$$$
=
 OpenBabel10272401573D

 28 32  0  0  1  0  0  0  0  0999 V2000
  188.1550  177.8120  139.9060 N   0  0  0  0  0  0  0  0  0  0  0  0
  185.0100  177.6210  136.4560 C   0  0  0  0  0  3  0  0  0  0  0  0
  190.1590  176.0450  136.1640 C   0  0  0  0  0  1  0  0  0  0  0  0
  185.4520  175.2900  136.9700 C   0  0  0  0  0  0  0  0  0  0  0  0
  187.4060  176.9110  136.9040 C   0  0  1  0  0  3  0  0  0  0  0  0
  183.1900  176.0230  136.4880 C   0  0  0  0  0  0  0  0  0  0  0  0
  185.9200  176.6130  136.8160 C   0  0  0  0  0  0  0  0  0  0  0  0
  187.8240  174.5430  137.0430 C   0  0  0  0  0  2  0  0  0  0  0  0
  184.0900  175.0070  136.8230 C   0  0  0  0  0  3  0  0  0  0  0  0
  189.9490  177.4400  138.2150 C   0  0  2  0  0  3  0  0  0  0  0  0
  187.6750  178.2990  137.5240 C   0  0  0  0  0  2  0  0  0  0  0  0
  186.3800  174.1780  137.3590 C   0  0  0  0  0  2  0  0  0  0  0  0
  190.3070  176.7650  140.3820 C   0  0  0  0  0  2  0  0  0  0  0  0
  189.5900  176.0870  137.5820 C   0  0  1  0  0  3  0  0  0  0  0  0
  190.9170  177.3210  139.2400 O   0  0  0  0  0  0  0  0  0  0  0  0
  181.4890  175.6590  136.3060 Cl  0  0  0  0  0  0  0  0  0  0  0  0
  183.6520  177.3280  136.2990 C   0  0  0  0  0  3  0  0  0  0  0  0
  188.1330  175.8480  137.6280 N   0  0  1  0  0  0  0  0  0  0  0  0
  189.2210  177.7000  140.9010 C   0  0  0  0  0  2  0  0  0  0  0  0
  188.7310  178.2940  138.6420 C   0  0  1  0  0  3  0  0  0  0  0  0
  187.2500  178.8480  140.3920 C   0  0  0  0  0  2  0  0  0  0  0  0
  185.8670  178.2880  140.7190 C   0  0  2  0  0  3  0  0  0  0  0  0
  183.1130  178.3420  141.5080 C   0  0  0  0  0  0  0  0  0  0  0  0
  184.8040  178.7570  139.7210 C   0  0  0  0  0  2  0  0  0  0  0  0
  185.4600  178.5670  142.1420 C   0  0  0  0  0  3  0  0  0  0  0  0
  184.1740  178.5640  142.5050 C   0  0  0  0  0  3  0  0  0  0  0  0
  181.9090  178.3260  141.8740 O   0  0  0  0  0  0  0  0  0  0  0  0
  183.4600  178.1130  140.0640 C   0  0  0  0  0  2  0  0  0  0  0  0
  1 21  1  0  0  0  0
  1 19  1  0  0  0  0
  2  7  1  0  0  0  0
  4 12  1  0  0  0  0
  5 11  1  1  0  0  0
  5 18  1  0  0  0  0
  6  9  2  0  0  0  0
  7  5  1  0  0  0  0
  7  4  2  0  0  0  0
  8 12  1  0  0  0  0
  9  4  1  0  0  0  0
 10 20  1  0  0  0  0
 10 15  1  1  0  0  0
 13 19  1  0  0  0  0
 14  3  1  6  0  0  0
 14 18  1  0  0  0  0
 14 10  1  0  0  0  0
 15 13  1  0  0  0  0
 16  6  1  0  0  0  0
 17  2  2  0  0  0  0
 17  6  1  0  0  0  0
 18  8  1  6  0  0  0
 20 11  1  6  0  0  0
 20  1  1  0  0  0  0
 22 21  1  6  0  0  0
 22 25  1  0  0  0  0
 23 27  2  0  0  0  0
 23 26  1  0  0  0  0
 24 28  1  0  0  0  0
 24 22  1  0  0  0  0
 25 26  2  0  0  0  0
 28 23  1  0  0  0  0
M  END
>  <MODEL>
6

>  <REMARK>
 VINA RESULT:      -5.5      2.031      2.987
  Name = 
  2 active torsions:
  status: ('A' for Active; 'I' for Inactive)
    1  A    between atoms: N_1  and  C_2
    2  A    between atoms: C_2  and  C_3
                            x       y       z     vdW  Elec       q    Type
                         _______ _______ _______ _____ _____    ______ ____

>  <TORSDO>
F 2

$$$$
=
 OpenBabel10272401573D

 28 32  0  0  1  0  0  0  0  0999 V2000
  190.0120  177.6200  138.2500 N   0  0  0  0  0  0  0  0  0  0  0  0
  193.2480  174.2920  137.7210 C   0  0  0  0  0  3  0  0  0  0  0  0
  188.7450  174.8490  134.8070 C   0  0  0  0  0  1  0  0  0  0  0  0
  193.4360  175.6140  135.6930 C   0  0  0  0  0  0  0  0  0  0  0  0
  191.1200  175.0890  136.5910 C   0  0  1  0  0  3  0  0  0  0  0  0
  195.4320  174.7840  136.7950 C   0  0  0  0  0  0  0  0  0  0  0  0
  192.6320  175.0310  136.6970 C   0  0  0  0  0  0  0  0  0  0  0  0
  191.3570  176.0710  134.4040 C   0  0  0  0  0  2  0  0  0  0  0  0
  194.8290  175.5020  135.7580 C   0  0  0  0  0  3  0  0  0  0  0  0
  188.4700  176.2660  136.8350 C   0  0  2  0  0  3  0  0  0  0  0  0
  190.4530  175.1970  137.9800 C   0  0  0  0  0  2  0  0  0  0  0  0
  192.8290  176.4180  134.5820 C   0  0  0  0  0  2  0  0  0  0  0  0
  188.2070  178.5490  136.8950 C   0  0  0  0  0  2  0  0  0  0  0  0
  189.2140  176.1290  135.4970 C   0  0  1  0  0  3  0  0  0  0  0  0
  187.5240  177.3190  136.8250 O   0  0  0  0  0  0  0  0  0  0  0  0
  197.1750  174.6500  136.8670 Cl  0  0  0  0  0  0  0  0  0  0  0  0
  194.6410  174.1760  137.7720 C   0  0  0  0  0  3  0  0  0  0  0  0
  190.6770  176.1780  135.6960 N   0  0  1  0  0  0  0  0  0  0  0  0
  188.9720  178.6470  138.2100 C   0  0  0  0  0  2  0  0  0  0  0  0
  189.3860  176.3010  138.0810 C   0  0  1  0  0  3  0  0  0  0  0  0
  190.5760  177.6640  139.5950 C   0  0  0  0  0  2  0  0  0  0  0  0
  189.5610  177.2300  140.6520 C   0  0  2  0  0  3  0  0  0  0  0  0
  188.3790  177.0260  143.2540 C   0  0  0  0  0  0  0  0  0  0  0  0
  188.7780  178.4170  141.2210 C   0  0  0  0  0  2  0  0  0  0  0  0
  190.1900  176.4010  141.7410 C   0  0  0  0  0  3  0  0  0  0  0  0
  189.6180  176.2920  142.9430 C   0  0  0  0  0  3  0  0  0  0  0  0
  187.8460  176.8960  144.3860 O   0  0  0  0  0  0  0  0  0  0  0  0
  187.7380  177.9110  142.2210 C   0  0  0  0  0  2  0  0  0  0  0  0
  1 21  1  0  0  0  0
  2 17  1  0  0  0  0
  4  9  2  0  0  0  0
  4  7  1  0  0  0  0
  5  7  1  0  0  0  0
  5 11  1  1  0  0  0
  6 16  1  0  0  0  0
  6 17  2  0  0  0  0
  7  2  2  0  0  0  0
  8 12  1  0  0  0  0
  9  6  1  0  0  0  0
 10 15  1  6  0  0  0
 10 20  1  0  0  0  0
 12  4  1  0  0  0  0
 13 19  1  0  0  0  0
 14  3  1  1  0  0  0
 14 18  1  0  0  0  0
 14 10  1  0  0  0  0
 15 13  1  0  0  0  0
 18  8  1  6  0  0  0
 18  5  1  0  0  0  0
 19  1  1  0  0  0  0
 20 11  1  6  0  0  0
 20  1  1  0  0  0  0
 22 21  1  6  0  0  0
 22 24  1  0  0  0  0
 22 25  1  0  0  0  0
 23 27  2  0  0  0  0
 24 28  1  0  0  0  0
 25 26  2  0  0  0  0
 26 23  1  0  0  0  0
 28 23  1  0  0  0  0
M  END
>  <MODEL>
7

>  <REMARK>
 VINA RESULT:      -5.4      4.305      6.843
  Name = 
  2 active torsions:
  status: ('A' for Active; 'I' for Inactive)
    1  A    between atoms: N_1  and  C_2
    2  A    between atoms: C_2  and  C_3
                            x       y       z     vdW  Elec       q    Type
                         _______ _______ _______ _____ _____    ______ ____

>  <TORSDO>
F 2

$$$$
=
 OpenBabel10272401573D

 28 32  0  0  1  0  0  0  0  0999 V2000
  188.5800  177.1940  139.1600 N   0  0  0  0  0  0  0  0  0  0  0  0
  184.0110  177.9050  138.4870 C   0  0  0  0  0  3  0  0  0  0  0  0
  187.7660  177.4540  134.6420 C   0  0  0  0  0  1  0  0  0  0  0  0
  184.3890  175.6730  137.6080 C   0  0  0  0  0  0  0  0  0  0  0  0
  186.1050  177.4780  137.1160 C   0  0  1  0  0  3  0  0  0  0  0  0
  182.3850  176.1550  138.8870 C   0  0  0  0  0  0  0  0  0  0  0  0
  184.8310  177.0020  137.7880 C   0  0  0  0  0  0  0  0  0  0  0  0
  186.2380  175.3630  135.9720 C   0  0  0  0  0  2  0  0  0  0  0  0
  183.1800  175.2540  138.1730 C   0  0  0  0  0  3  0  0  0  0  0  0
  188.9730  177.8410  136.7850 C   0  0  2  0  0  3  0  0  0  0  0  0
  186.8510  178.5190  137.9790 C   0  0  0  0  0  2  0  0  0  0  0  0
  185.2270  174.6680  136.8750 C   0  0  0  0  0  2  0  0  0  0  0  0
  190.4550  176.4140  137.8070 C   0  0  0  0  0  2  0  0  0  0  0  0
  188.1510  176.8230  135.9790 C   0  0  1  0  0  3  0  0  0  0  0  0
  190.3360  177.4770  136.8910 O   0  0  0  0  0  0  0  0  0  0  0  0
  180.8740  175.6210  139.5900 Cl  0  0  0  0  0  0  0  0  0  0  0  0
  182.7990  177.4810  139.0390 C   0  0  0  0  0  3  0  0  0  0  0  0
  186.9850  176.3490  136.7530 N   0  0  1  0  0  0  0  0  0  0  0  0
  190.0050  176.8650  139.1910 C   0  0  0  0  0  2  0  0  0  0  0  0
  188.3540  178.2350  138.1460 C   0  0  1  0  0  3  0  0  0  0  0  0
  188.2670  177.7780  140.4590 C   0  0  0  0  0  2  0  0  0  0  0  0
  189.3180  177.4230  141.5100 C   0  0  2  0  0  3  0  0  0  0  0  0
  190.4260  177.0920  144.1320 C   0  0  0  0  0  0  0  0  0  0  0  0
  188.9010  176.2200  142.3600 C   0  0  0  0  0  2  0  0  0  0  0  0
  189.6930  178.6070  142.3640 C   0  0  0  0  0  3  0  0  0  0  0  0
  190.2330  178.4410  143.5740 C   0  0  0  0  0  3  0  0  0  0  0  0
  190.9520  176.9560  145.2670 O   0  0  0  0  0  0  0  0  0  0  0  0
  190.0190  175.8770  143.3460 C   0  0  0  0  0  2  0  0  0  0  0  0
  1 19  1  0  0  0  0
  1 21  1  0  0  0  0
  2 17  1  0  0  0  0
  4  7  1  0  0  0  0
  4  9  2  0  0  0  0
  5  7  1  0  0  0  0
  5 11  1  1  0  0  0
  6 17  2  0  0  0  0
  6 16  1  0  0  0  0
  7  2  2  0  0  0  0
  8 12  1  0  0  0  0
  9  6  1  0  0  0  0
 10 15  1  1  0  0  0
 10 20  1  0  0  0  0
 12  4  1  0  0  0  0
 13 19  1  0  0  0  0
 14  3  1  6  0  0  0
 14 18  1  0  0  0  0
 14 10  1  0  0  0  0
 15 13  1  0  0  0  0
 18  8  1  6  0  0  0
 18  5  1  0  0  0  0
 20 11  1  6  0  0  0
 20  1  1  0  0  0  0
 22 21  1  6  0  0  0
 22 24  1  0  0  0  0
 22 25  1  0  0  0  0
 23 27  2  0  0  0  0
 24 28  1  0  0  0  0
 25 26  2  0  0  0  0
 26 23  1  0  0  0  0
 28 23  1  0  0  0  0
M  END
>  <MODEL>
8

>  <REMARK>
 VINA RESULT:      -5.4      1.627      2.047
  Name = 
  2 active torsions:
  status: ('A' for Active; 'I' for Inactive)
    1  A    between atoms: N_1  and  C_2
    2  A    between atoms: C_2  and  C_3
                            x       y       z     vdW  Elec       q    Type
                         _______ _______ _______ _____ _____    ______ ____

>  <TORSDO>
F 2

$$$$
=
 OpenBabel10272401573D

 28 32  0  0  1  0  0  0  0  0999 V2000
  182.8990  176.2950  138.0620 N   0  0  0  0  0  0  0  0  0  0  0  0
  185.4280  178.7880  141.0980 C   0  0  0  0  0  3  0  0  0  0  0  0
  181.2940  180.6020  138.1500 C   0  0  0  0  0  1  0  0  0  0  0  0
  183.2350  178.6650  142.1310 C   0  0  0  0  0  0  0  0  0  0  0  0
  183.3780  179.0700  139.6290 C   0  0  1  0  0  3  0  0  0  0  0  0
  185.2340  178.4480  143.4880 C   0  0  0  0  0  0  0  0  0  0  0  0
  184.0290  178.7930  140.9710 C   0  0  0  0  0  0  0  0  0  0  0  0
  181.2620  179.3050  140.7560 C   0  0  0  0  0  2  0  0  0  0  0  0
  183.8410  178.4760  143.3780 C   0  0  0  0  0  3  0  0  0  0  0  0
  181.9900  178.4310  137.1520 C   0  0  2  0  0  3  0  0  0  0  0  0
  184.1460  178.3970  138.4700 C   0  0  0  0  0  2  0  0  0  0  0  0
  181.7370  178.6580  142.0500 C   0  0  0  0  0  2  0  0  0  0  0  0
  180.7210  176.5230  136.9850 C   0  0  0  0  0  2  0  0  0  0  0  0
  181.3040  179.0890  138.3600 C   0  0  1  0  0  3  0  0  0  0  0  0
  181.0820  177.7180  136.3330 O   0  0  0  0  0  0  0  0  0  0  0  0
  185.9820  178.2120  145.0520 Cl  0  0  0  0  0  0  0  0  0  0  0  0
  186.0260  178.6100  142.3490 C   0  0  0  0  0  3  0  0  0  0  0  0
  181.9520  178.6840  139.6240 N   0  0  1  0  0  0  0  0  0  0  0  0
  181.9480  175.6370  137.1670 C   0  0  0  0  0  2  0  0  0  0  0  0
  183.2530  177.6070  137.4990 C   0  0  1  0  0  3  0  0  0  0  0  0
  184.1070  175.4770  138.0470 C   0  0  0  0  0  2  0  0  0  0  0  0
  184.0250  174.3600  137.0070 C   0  0  2  0  0  3  0  0  0  0  0  0
  184.9770  172.2750  135.2880 C   0  0  0  0  0  0  0  0  0  0  0  0
  184.3730  172.9930  137.6010 C   0  0  0  0  0  2  0  0  0  0  0  0
  184.8440  174.6630  135.7790 C   0  0  0  0  0  3  0  0  0  0  0  0
  185.2610  173.6850  134.9700 C   0  0  0  0  0  3  0  0  0  0  0  0
  185.3640  171.3700  134.5050 O   0  0  0  0  0  0  0  0  0  0  0  0
  184.2100  171.9130  136.5300 C   0  0  0  0  0  2  0  0  0  0  0  0
  2 17  1  0  0  0  0
  4  9  2  0  0  0  0
  5 11  1  6  0  0  0
  5  7  1  0  0  0  0
  6 16  1  0  0  0  0
  7  2  2  0  0  0  0
  7  4  1  0  0  0  0
  8 12  1  0  0  0  0
  9  6  1  0  0  0  0
 10 15  1  1  0  0  0
 10 20  1  0  0  0  0
 10 14  1  0  0  0  0
 12  4  1  0  0  0  0
 13 19  1  0  0  0  0
 14  3  1  6  0  0  0
 14 18  1  0  0  0  0
 15 13  1  0  0  0  0
 17  6  2  0  0  0  0
 18  5  1  0  0  0  0
 18  8  1  1  0  0  0
 19  1  1  0  0  0  0
 20  1  1  0  0  0  0
 20 11  1  1  0  0  0
 21  1  1  0  0  0  0
 22 24  1  0  0  0  0
 22 21  1  1  0  0  0
 23 28  1  0  0  0  0
 25 22  1  0  0  0  0
 26 23  1  0  0  0  0
 26 25  2  0  0  0  0
 27 23  2  0  0  0  0
 28 24  1  0  0  0  0
M  END
>  <MODEL>
9

>  <REMARK>
 VINA RESULT:      -5.2      3.946      6.971
  Name = 
  2 active torsions:
  status: ('A' for Active; 'I' for Inactive)
    1  A    between atoms: N_1  and  C_2
    2  A    between atoms: C_2  and  C_3
                            x       y       z     vdW  Elec       q    Type
                         _______ _______ _______ _____ _____    ______ ____

>  <TORSDO>
F 2

$$$$
