=
 OpenBabel10272413463D

 30 32  0  0  1  0  0  0  0  0999 V2000
  184.5640  178.7410  144.6540 C   0  0  0  0  0  0  0  0  0  0  0  0
  184.3210  178.8400  145.9860 N   0  0  0  0  0  0  0  0  0  0  0  0
  183.2860  179.2930  143.5780 Cl  0  0  0  0  0  0  0  0  0  0  0  0
  186.7140  177.7550  145.1880 C   0  0  0  0  0  0  0  0  0  0  0  0
  185.2170  178.4130  146.9050 C   0  0  0  0  0  3  0  0  0  0  0  0
  185.7870  178.1810  144.2020 C   0  0  0  0  0  0  0  0  0  0  0  0
  186.3940  177.8770  146.5050 N   0  0  0  0  0  0  0  0  0  0  0  0
  190.6220  176.8080  143.2680 C   0  0  0  0  0  3  0  0  0  0  0  0
  191.0670  177.3160  144.4170 C   0  0  0  0  0  3  0  0  0  0  0  0
  189.4270  175.9210  143.1920 C   0  0  0  0  0  2  0  0  0  0  0  0
  189.0860  177.1130  145.8960 C   0  0  0  0  0  3  0  0  0  0  0  0
  188.1970  176.6420  143.6310 C   0  0  0  0  0  3  0  0  0  0  0  0
  190.4170  177.1390  145.7370 C   0  0  0  0  0  0  0  0  0  0  0  0
  188.0380  177.1790  144.8460 C   0  0  0  0  0  0  0  0  0  0  0  0
  192.3410  174.9860  146.6120 O   0  0  0  0  0  0  0  0  0  0  0  0
  192.1480  176.1480  147.3480 C   0  0  0  0  0  0  0  0  0  0  0  0
  191.2080  177.1460  146.9330 N   0  0  0  0  0  2  0  0  0  0  0  0
  192.8030  176.3210  148.4070 O   0  0  0  0  0  1  0  0  0  0  0  0
  186.2920  178.9040  141.8570 C   0  0  0  0  0  3  0  0  0  0  0  0
  186.1150  177.9620  142.7710 C   0  0  0  0  0  3  0  0  0  0  0  0
  186.6190  178.5180  140.4590 C   0  0  0  0  0  2  0  0  0  0  0  0
  187.9990  177.8540  140.3930 C   0  0  2  0  0  3  0  0  0  0  0  0
  189.1060  178.8630  140.6680 C   0  0  0  0  0  1  0  0  0  0  0  0
  189.9300  177.3440  137.4220 C   0  0  0  0  0  2  0  0  0  0  0  0
  188.2490  177.1430  139.1300 N   0  0  0  0  0  0  0  0  0  0  0  0
  188.7970  178.2650  137.0650 C   0  0  2  0  0  0  0  0  0  0  0  0
  187.6830  177.9200  138.0290 C   0  0  0  0  0  2  0  0  0  0  0  0
  189.6850  176.9960  138.8720 C   0  0  0  0  0  2  0  0  0  0  0  0
  188.3560  178.0360  135.6340 C   0  0  0  0  0  1  0  0  0  0  0  0
  189.1820  179.5810  137.2390 F   0  0  0  0  0  0  0  0  0  0  0  0
  1  2  1  0  0  0  0
  2  5  2  0  0  0  0
  3  1  1  0  0  0  0
  4  7  2  0  0  0  0
  6  1  2  0  0  0  0
  6  4  1  0  0  0  0
  7  5  1  0  0  0  0
  8  9  2  0  0  0  0
  9 13  1  0  0  0  0
 10  8  1  0  0  0  0
 10 12  1  0  0  0  0
 12 14  2  0  0  0  0
 13 11  2  0  0  0  0
 13 17  1  0  0  0  0
 14  4  1  0  0  0  0
 14 11  1  0  0  0  0
 15 16  2  0  0  0  0
 16 18  1  0  0  0  0
 17 16  1  0  0  0  0
 19 20  2  0  0  0  0
 20  6  1  0  0  0  0
 21 19  1  0  0  0  0
 22 21  1  0  0  0  0
 22 23  1  6  0  0  0
 24 28  1  0  0  0  0
 25 22  1  0  0  0  0
 26 29  1  6  0  0  0
 26 30  1  0  0  0  0
 26 24  1  0  0  0  0
 26 27  1  0  0  0  0
 27 25  1  0  0  0  0
 28 25  1  0  0  0  0
M  END
>  <MODEL>
1

>  <REMARK>
 VINA RESULT:      -9.4      0.000      0.000
  Name = 
  6 active torsions:
  status: ('A' for Active; 'I' for Inactive)
    1  A    between atoms: C_1  and  C_4
    2  A    between atoms: C_4  and  C_27
    3  A    between atoms: C_5  and  C_22
    4  A    between atoms: N_8  and  C_27
    5  A    between atoms: N_16  and  C_25
    6  A    between atoms: C_19  and  C_29
                            x       y       z     vdW  Elec       q    Type
                         _______ _______ _______ _____ _____    ______ ____

>  <TORSDO>
F 6

$$$$
=
 OpenBabel10272413463D

 30 32  0  0  1  0  0  0  0  0999 V2000
  184.4110  178.7880  144.8810 C   0  0  0  0  0  0  0  0  0  0  0  0
  184.2290  178.8370  146.2250 N   0  0  0  0  0  0  0  0  0  0  0  0
  183.0850  179.3780  143.8850 Cl  0  0  0  0  0  0  0  0  0  0  0  0
  186.5840  177.7860  145.2780 C   0  0  0  0  0  0  0  0  0  0  0  0
  185.1670  178.3770  147.0850 C   0  0  0  0  0  3  0  0  0  0  0  0
  185.6120  178.2470  144.3520 C   0  0  0  0  0  0  0  0  0  0  0  0
  186.3240  177.8590  146.6120 N   0  0  0  0  0  0  0  0  0  0  0  0
  190.4160  176.9420  143.1680 C   0  0  0  0  0  3  0  0  0  0  0  0
  190.9040  177.3720  144.3320 C   0  0  0  0  0  3  0  0  0  0  0  0
  189.2120  176.0700  143.0750 C   0  0  0  0  0  2  0  0  0  0  0  0
  188.9720  177.0840  145.8610 C   0  0  0  0  0  3  0  0  0  0  0  0
  188.0030  176.7680  143.6020 C   0  0  0  0  0  3  0  0  0  0  0  0
  190.2980  177.1120  145.6590 C   0  0  0  0  0  0  0  0  0  0  0  0
  187.8900  177.2260  144.8540 C   0  0  0  0  0  0  0  0  0  0  0  0
  192.3100  174.9500  146.2730 O   0  0  0  0  0  0  0  0  0  0  0  0
  192.1090  176.0340  147.1180 C   0  0  0  0  0  0  0  0  0  0  0  0
  191.1280  177.0360  146.8250 N   0  0  0  0  0  2  0  0  0  0  0  0
  192.7950  176.1320  148.1670 O   0  0  0  0  0  1  0  0  0  0  0  0
  185.8140  179.0360  141.9830 C   0  0  0  0  0  3  0  0  0  0  0  0
  185.8730  178.0830  142.9000 C   0  0  0  0  0  3  0  0  0  0  0  0
  186.1070  178.7060  140.5630 C   0  0  0  0  0  2  0  0  0  0  0  0
  184.8080  178.4560  139.7890 C   0  0  2  0  0  3  0  0  0  0  0  0
  185.0710  178.3600  138.2930 C   0  0  0  0  0  1  0  0  0  0  0  0
  181.3800  179.4880  139.7130 C   0  0  0  0  0  2  0  0  0  0  0  0
  183.7590  179.4490  140.0660 N   0  0  0  0  0  0  0  0  0  0  0  0
  182.0390  180.0390  138.4780 C   0  0  2  0  0  0  0  0  0  0  0  0
  183.4960  180.2140  138.8480 C   0  0  0  0  0  2  0  0  0  0  0  0
  182.5020  178.8070  140.4620 C   0  0  0  0  0  2  0  0  0  0  0  0
  181.4230  181.3670  138.0920 C   0  0  0  0  0  1  0  0  0  0  0  0
  181.9220  179.1380  137.4360 F   0  0  0  0  0  0  0  0  0  0  0  0
  1  2  1  0  0  0  0
  2  5  2  0  0  0  0
  3  1  1  0  0  0  0
  4  7  2  0  0  0  0
  6  1  2  0  0  0  0
  6  4  1  0  0  0  0
  7  5  1  0  0  0  0
  8  9  2  0  0  0  0
  9 13  1  0  0  0  0
 10  8  1  0  0  0  0
 10 12  1  0  0  0  0
 12 14  2  0  0  0  0
 13 11  2  0  0  0  0
 13 17  1  0  0  0  0
 14  4  1  0  0  0  0
 14 11  1  0  0  0  0
 15 16  2  0  0  0  0
 16 18  1  0  0  0  0
 17 16  1  0  0  0  0
 19 20  2  0  0  0  0
 20  6  1  0  0  0  0
 21 19  1  0  0  0  0
 22 23  1  6  0  0  0
 22 25  1  0  0  0  0
 22 21  1  0  0  0  0
 24 28  1  0  0  0  0
 25 28  1  0  0  0  0
 26 29  1  6  0  0  0
 26 27  1  0  0  0  0
 26 24  1  0  0  0  0
 27 25  1  0  0  0  0
 30 26  1  0  0  0  0
M  END
>  <MODEL>
2

>  <REMARK>
 VINA RESULT:      -9.2      2.709      3.623
  Name = 
  6 active torsions:
  status: ('A' for Active; 'I' for Inactive)
    1  A    between atoms: C_1  and  C_4
    2  A    between atoms: C_4  and  C_27
    3  A    between atoms: C_5  and  C_22
    4  A    between atoms: N_8  and  C_27
    5  A    between atoms: N_16  and  C_25
    6  A    between atoms: C_19  and  C_29
                            x       y       z     vdW  Elec       q    Type
                         _______ _______ _______ _____ _____    ______ ____

>  <TORSDO>
F 6

$$$$
=
 OpenBabel10272413463D

 30 32  0  0  1  0  0  0  0  0999 V2000
  184.4400  178.7710  144.8400 C   0  0  0  0  0  0  0  0  0  0  0  0
  184.2600  178.8620  146.1830 N   0  0  0  0  0  0  0  0  0  0  0  0
  183.1090  179.3220  143.8290 Cl  0  0  0  0  0  0  0  0  0  0  0  0
  186.6180  177.7930  145.2640 C   0  0  0  0  0  0  0  0  0  0  0  0
  185.2020  178.4340  147.0550 C   0  0  0  0  0  3  0  0  0  0  0  0
  185.6430  178.2200  144.3260 C   0  0  0  0  0  0  0  0  0  0  0  0
  186.3610  177.9070  146.5960 N   0  0  0  0  0  0  0  0  0  0  0  0
  190.4670  176.9240  143.1940 C   0  0  0  0  0  3  0  0  0  0  0  0
  190.9450  177.3600  144.3580 C   0  0  0  0  0  3  0  0  0  0  0  0
  189.2600  176.0540  143.0970 C   0  0  0  0  0  2  0  0  0  0  0  0
  189.0000  177.0900  145.8730 C   0  0  0  0  0  3  0  0  0  0  0  0
  188.0490  176.7590  143.6080 C   0  0  0  0  0  3  0  0  0  0  0  0
  190.3270  177.1130  145.6810 C   0  0  0  0  0  0  0  0  0  0  0  0
  187.9270  177.2270  144.8550 C   0  0  0  0  0  0  0  0  0  0  0  0
  192.3210  174.9440  146.3340 O   0  0  0  0  0  0  0  0  0  0  0  0
  192.1200  176.0380  147.1670 C   0  0  0  0  0  0  0  0  0  0  0  0
  191.1480  177.0430  146.8550 N   0  0  0  0  0  2  0  0  0  0  0  0
  192.7980  176.1420  148.2200 O   0  0  0  0  0  1  0  0  0  0  0  0
  185.8640  178.9400  141.9370 C   0  0  0  0  0  3  0  0  0  0  0  0
  185.9020  178.0100  142.8800 C   0  0  0  0  0  3  0  0  0  0  0  0
  186.1520  178.5650  140.5270 C   0  0  0  0  0  2  0  0  0  0  0  0
  184.9200  178.8000  139.6460 C   0  0  2  0  0  3  0  0  0  0  0  0
  183.8020  177.8280  139.9980 C   0  0  0  0  0  1  0  0  0  0  0  0
  185.3810  176.9650  136.6070 C   0  0  0  0  0  2  0  0  0  0  0  0
  185.2100  178.7530  138.2050 N   0  0  0  0  0  0  0  0  0  0  0  0
  186.7420  177.1740  137.2120 C   0  0  2  0  0  0  0  0  0  0  0  0
  186.6280  178.4500  138.0170 C   0  0  0  0  0  2  0  0  0  0  0  0
  184.4430  177.6990  137.5360 C   0  0  0  0  0  2  0  0  0  0  0  0
  187.7900  177.3170  136.1290 C   0  0  0  0  0  1  0  0  0  0  0  0
  187.0580  176.1180  138.0450 F   0  0  0  0  0  0  0  0  0  0  0  0
  1  2  1  0  0  0  0
  2  5  2  0  0  0  0
  3  1  1  0  0  0  0
  4  7  2  0  0  0  0
  6  1  2  0  0  0  0
  6  4  1  0  0  0  0
  7  5  1  0  0  0  0
  8  9  2  0  0  0  0
  9 13  1  0  0  0  0
 10  8  1  0  0  0  0
 10 12  1  0  0  0  0
 12 14  2  0  0  0  0
 13 11  2  0  0  0  0
 13 17  1  0  0  0  0
 14  4  1  0  0  0  0
 14 11  1  0  0  0  0
 15 16  2  0  0  0  0
 16 18  1  0  0  0  0
 17 16  1  0  0  0  0
 19 20  2  0  0  0  0
 20  6  1  0  0  0  0
 21 19  1  0  0  0  0
 22 23  1  6  0  0  0
 22 21  1  0  0  0  0
 24 26  1  0  0  0  0
 24 28  1  0  0  0  0
 25 22  1  0  0  0  0
 26 29  1  6  0  0  0
 26 27  1  0  0  0  0
 26 30  1  0  0  0  0
 27 25  1  0  0  0  0
 28 25  1  0  0  0  0
M  END
>  <MODEL>
3

>  <REMARK>
 VINA RESULT:      -9.1      1.493      2.088
  Name = 
  6 active torsions:
  status: ('A' for Active; 'I' for Inactive)
    1  A    between atoms: C_1  and  C_4
    2  A    between atoms: C_4  and  C_27
    3  A    between atoms: C_5  and  C_22
    4  A    between atoms: N_8  and  C_27
    5  A    between atoms: N_16  and  C_25
    6  A    between atoms: C_19  and  C_29
                            x       y       z     vdW  Elec       q    Type
                         _______ _______ _______ _____ _____    ______ ____

>  <TORSDO>
F 6

$$$$
=
 OpenBabel10272413463D

 30 32  0  0  1  0  0  0  0  0999 V2000
  184.7110  178.3150  143.6220 C   0  0  0  0  0  0  0  0  0  0  0  0
  183.7750  178.6260  144.5550 N   0  0  0  0  0  0  0  0  0  0  0  0
  184.1490  178.1710  141.9610 Cl  0  0  0  0  0  0  0  0  0  0  0  0
  186.3560  178.2200  145.4020 C   0  0  0  0  0  0  0  0  0  0  0  0
  184.0870  178.7270  145.8680 C   0  0  0  0  0  3  0  0  0  0  0  0
  186.0550  178.0940  144.0210 C   0  0  0  0  0  0  0  0  0  0  0  0
  185.3600  178.5240  146.2780 N   0  0  0  0  0  0  0  0  0  0  0  0
  190.0010  176.6780  147.4490 C   0  0  0  0  0  3  0  0  0  0  0  0
  190.4180  176.6000  146.1860 C   0  0  0  0  0  3  0  0  0  0  0  0
  189.1860  177.8170  147.9570 C   0  0  0  0  0  2  0  0  0  0  0  0
  188.8840  178.1620  145.0180 C   0  0  0  0  0  3  0  0  0  0  0  0
  187.8680  177.8850  147.2630 C   0  0  0  0  0  3  0  0  0  0  0  0
  190.0830  177.5700  145.1160 C   0  0  0  0  0  0  0  0  0  0  0  0
  187.7260  178.0410  145.9420 C   0  0  0  0  0  0  0  0  0  0  0  0
  190.7540  175.6140  142.9190 O   0  0  0  0  0  1  0  0  0  0  0  0
  191.3070  176.8880  142.9690 C   0  0  0  0  0  0  0  0  0  0  0  0
  191.0000  177.7920  144.0360 N   0  0  0  0  0  2  0  0  0  0  0  0
  192.1020  177.2490  142.0650 O   0  0  0  0  0  0  0  0  0  0  0  0
  187.3840  178.2040  141.9000 C   0  0  0  0  0  3  0  0  0  0  0  0
  187.1330  177.6770  143.0890 C   0  0  0  0  0  3  0  0  0  0  0  0
  188.5090  177.6720  141.0860 C   0  0  0  0  0  2  0  0  0  0  0  0
  188.5500  178.3550  139.7150 C   0  0  2  0  0  3  0  0  0  0  0  0
  187.2960  178.0440  138.9100 C   0  0  0  0  0  1  0  0  0  0  0  0
  190.1210  176.9900  136.8020 C   0  0  0  0  0  2  0  0  0  0  0  0
  189.7560  178.0360  138.9360 N   0  0  0  0  0  0  0  0  0  0  0  0
  190.1090  175.9110  137.8490 C   0  0  2  0  0  0  0  0  0  0  0  0
  190.1190  176.6400  139.1740 C   0  0  0  0  0  2  0  0  0  0  0  0
  189.5230  178.1900  137.4970 C   0  0  0  0  0  2  0  0  0  0  0  0
  191.3300  175.0260  137.7160 C   0  0  0  0  0  1  0  0  0  0  0  0
  188.9580  175.1540  137.7360 F   0  0  0  0  0  0  0  0  0  0  0  0
  1  6  2  0  0  0  0
  1  2  1  0  0  0  0
  2  5  2  0  0  0  0
  3  1  1  0  0  0  0
  4 14  1  0  0  0  0
  4  7  2  0  0  0  0
  5  7  1  0  0  0  0
  6  4  1  0  0  0  0
  8 10  1  0  0  0  0
  9  8  2  0  0  0  0
 11 13  2  0  0  0  0
 11 14  1  0  0  0  0
 12 10  1  0  0  0  0
 13  9  1  0  0  0  0
 14 12  2  0  0  0  0
 15 16  1  0  0  0  0
 16 17  1  0  0  0  0
 17 13  1  0  0  0  0
 18 16  2  0  0  0  0
 19 20  2  0  0  0  0
 20  6  1  0  0  0  0
 21 19  1  0  0  0  0
 22 23  1  6  0  0  0
 22 21  1  0  0  0  0
 24 28  1  0  0  0  0
 24 26  1  0  0  0  0
 25 27  1  0  0  0  0
 25 22  1  0  0  0  0
 26 29  1  6  0  0  0
 26 27  1  0  0  0  0
 28 25  1  0  0  0  0
 30 26  1  0  0  0  0
M  END
>  <MODEL>
4

>  <REMARK>
 VINA RESULT:      -9.1      2.065      2.884
  Name = 
  6 active torsions:
  status: ('A' for Active; 'I' for Inactive)
    1  A    between atoms: C_1  and  C_4
    2  A    between atoms: C_4  and  C_27
    3  A    between atoms: C_5  and  C_22
    4  A    between atoms: N_8  and  C_27
    5  A    between atoms: N_16  and  C_25
    6  A    between atoms: C_19  and  C_29
                            x       y       z     vdW  Elec       q    Type
                         _______ _______ _______ _____ _____    ______ ____

>  <TORSDO>
F 6

$$$$
=
 OpenBabel10272413463D

 30 32  0  0  1  0  0  0  0  0999 V2000
  185.5600  178.4040  145.1340 C   0  0  0  0  0  0  0  0  0  0  0  0
  185.0700  178.7530  146.3510 N   0  0  0  0  0  0  0  0  0  0  0  0
  184.4200  178.4200  143.7930 Cl  0  0  0  0  0  0  0  0  0  0  0  0
  187.7160  178.0320  146.1810 C   0  0  0  0  0  0  0  0  0  0  0  0
  185.8480  178.7410  147.4580 C   0  0  0  0  0  3  0  0  0  0  0  0
  186.9200  178.0210  145.0050 C   0  0  0  0  0  0  0  0  0  0  0  0
  187.1500  178.3830  147.3680 N   0  0  0  0  0  0  0  0  0  0  0  0
  191.6230  175.9120  146.4840 C   0  0  0  0  0  3  0  0  0  0  0  0
  191.6060  176.1390  145.1720 C   0  0  0  0  0  3  0  0  0  0  0  0
  191.1460  176.9140  147.4790 C   0  0  0  0  0  2  0  0  0  0  0  0
  189.9670  177.9910  144.9690 C   0  0  0  0  0  3  0  0  0  0  0  0
  189.6920  177.1950  147.3010 C   0  0  0  0  0  3  0  0  0  0  0  0
  191.0600  177.3550  144.5230 C   0  0  0  0  0  0  0  0  0  0  0  0
  189.1570  177.6800  146.1740 C   0  0  0  0  0  0  0  0  0  0  0  0
  190.8540  175.9410  141.8660 O   0  0  0  0  0  1  0  0  0  0  0  0
  191.4920  177.1680  142.0030 C   0  0  0  0  0  0  0  0  0  0  0  0
  191.6060  177.8100  143.2780 N   0  0  0  0  0  2  0  0  0  0  0  0
  191.9880  177.7200  140.9880 O   0  0  0  0  0  0  0  0  0  0  0  0
  187.5810  178.2310  142.5980 C   0  0  0  0  0  3  0  0  0  0  0  0
  187.5290  177.5540  143.7340 C   0  0  0  0  0  3  0  0  0  0  0  0
  188.2310  177.6190  141.4090 C   0  0  0  0  0  2  0  0  0  0  0  0
  187.7610  178.3100  140.1240 C   0  0  2  0  0  3  0  0  0  0  0  0
  186.2490  178.4860  140.1190 C   0  0  0  0  0  1  0  0  0  0  0  0
  189.1060  178.4110  136.8080 C   0  0  0  0  0  2  0  0  0  0  0  0
  188.2050  177.6320  138.8970 N   0  0  0  0  0  0  0  0  0  0  0  0
  187.6090  178.3780  136.6800 C   0  0  2  0  0  0  0  0  0  0  0  0
  187.1180  177.6610  137.9190 C   0  0  0  0  0  2  0  0  0  0  0  0
  189.3560  178.3100  138.2940 C   0  0  0  0  0  2  0  0  0  0  0  0
  187.1970  177.6290  135.4310 C   0  0  0  0  0  1  0  0  0  0  0  0
  187.1070  179.6650  136.6510 F   0  0  0  0  0  0  0  0  0  0  0  0
  1  2  1  0  0  0  0
  2  5  2  0  0  0  0
  3  1  1  0  0  0  0
  4  7  2  0  0  0  0
  6  1  2  0  0  0  0
  6  4  1  0  0  0  0
  7  5  1  0  0  0  0
  8 10  1  0  0  0  0
  9  8  2  0  0  0  0
 11 14  1  0  0  0  0
 12 10  1  0  0  0  0
 13 11  2  0  0  0  0
 13  9  1  0  0  0  0
 14  4  1  0  0  0  0
 14 12  2  0  0  0  0
 15 16  1  0  0  0  0
 16 17  1  0  0  0  0
 17 13  1  0  0  0  0
 18 16  2  0  0  0  0
 19 20  2  0  0  0  0
 20  6  1  0  0  0  0
 21 19  1  0  0  0  0
 22 23  1  1  0  0  0
 22 21  1  0  0  0  0
 24 28  1  0  0  0  0
 25 22  1  0  0  0  0
 26 29  1  6  0  0  0
 26 24  1  0  0  0  0
 26 27  1  0  0  0  0
 27 25  1  0  0  0  0
 28 25  1  0  0  0  0
 30 26  1  0  0  0  0
M  END
>  <MODEL>
5

>  <REMARK>
 VINA RESULT:      -9.0      2.063      2.769
  Name = 
  6 active torsions:
  status: ('A' for Active; 'I' for Inactive)
    1  A    between atoms: C_1  and  C_4
    2  A    between atoms: C_4  and  C_27
    3  A    between atoms: C_5  and  C_22
    4  A    between atoms: N_8  and  C_27
    5  A    between atoms: N_16  and  C_25
    6  A    between atoms: C_19  and  C_29
                            x       y       z     vdW  Elec       q    Type
                         _______ _______ _______ _____ _____    ______ ____

>  <TORSDO>
F 6

$$$$
=
 OpenBabel10272413463D

 30 32  0  0  1  0  0  0  0  0999 V2000
  190.0130  176.9460  146.0790 C   0  0  0  0  0  0  0  0  0  0  0  0
  189.9000  176.9950  147.4310 N   0  0  0  0  0  0  0  0  0  0  0  0
  191.5850  176.4840  145.4370 Cl  0  0  0  0  0  0  0  0  0  0  0  0
  187.7040  177.6720  145.9270 C   0  0  0  0  0  0  0  0  0  0  0  0
  188.7490  177.3720  148.0340 C   0  0  0  0  0  3  0  0  0  0  0  0
  188.9020  177.2930  145.2670 C   0  0  0  0  0  0  0  0  0  0  0  0
  187.6710  177.7060  147.2870 N   0  0  0  0  0  0  0  0  0  0  0  0
  183.9940  179.6670  144.4740 C   0  0  0  0  0  3  0  0  0  0  0  0
  184.7590  179.8270  143.3940 C   0  0  0  0  0  3  0  0  0  0  0  0
  183.9980  178.4140  145.2810 C   0  0  0  0  0  2  0  0  0  0  0  0
  186.5020  178.0910  143.7090 C   0  0  0  0  0  3  0  0  0  0  0  0
  185.3370  178.1770  145.8950 C   0  0  0  0  0  3  0  0  0  0  0  0
  185.7470  178.8430  142.8950 C   0  0  0  0  0  0  0  0  0  0  0  0
  186.4660  178.0300  145.1920 C   0  0  0  0  0  0  0  0  0  0  0  0
  183.7370  178.8130  140.6450 O   0  0  0  0  0  1  0  0  0  0  0  0
  185.1070  178.7890  140.4130 C   0  0  0  0  0  0  0  0  0  0  0  0
  186.0460  178.7730  141.4940 N   0  0  0  0  0  2  0  0  0  0  0  0
  185.5300  178.7680  139.2290 O   0  0  0  0  0  0  0  0  0  0  0  0
  189.7700  178.0810  143.0530 C   0  0  0  0  0  3  0  0  0  0  0  0
  188.9480  177.3430  143.7840 C   0  0  0  0  0  3  0  0  0  0  0  0
  189.6900  178.0150  141.5700 C   0  0  0  0  0  2  0  0  0  0  0  0
  190.6940  176.9950  141.0210 C   0  0  2  0  0  3  0  0  0  0  0  0
  192.0690  177.6240  140.8400 C   0  0  0  0  0  1  0  0  0  0  0  0
  190.4710  176.9150  137.4490 C   0  0  0  0  0  2  0  0  0  0  0  0
  190.2540  176.3490  139.7760 N   0  0  0  0  0  0  0  0  0  0  0  0
  189.2050  177.5440  137.9600 C   0  0  2  0  0  0  0  0  0  0  0  0
  188.9990  176.9610  139.3410 C   0  0  0  0  0  2  0  0  0  0  0  0
  191.2310  176.5360  138.6990 C   0  0  0  0  0  2  0  0  0  0  0  0
  188.0390  177.2030  137.0570 C   0  0  0  0  0  1  0  0  0  0  0  0
  189.3570  178.9150  138.0450 F   0  0  0  0  0  0  0  0  0  0  0  0
  1  2  1  0  0  0  0
  2  5  2  0  0  0  0
  3  1  1  0  0  0  0
  4  7  2  0  0  0  0
  6  4  1  0  0  0  0
  6  1  2  0  0  0  0
  7  5  1  0  0  0  0
  8 10  1  0  0  0  0
  9  8  2  0  0  0  0
 10 12  1  0  0  0  0
 11 14  1  0  0  0  0
 13  9  1  0  0  0  0
 13 11  2  0  0  0  0
 14 12  2  0  0  0  0
 14  4  1  0  0  0  0
 16 15  1  0  0  0  0
 16 17  1  0  0  0  0
 17 13  1  0  0  0  0
 18 16  2  0  0  0  0
 19 20  2  0  0  0  0
 20  6  1  0  0  0  0
 21 19  1  0  0  0  0
 22 23  1  6  0  0  0
 22 21  1  0  0  0  0
 24 26  1  0  0  0  0
 24 28  1  0  0  0  0
 25 22  1  0  0  0  0
 26 29  1  6  0  0  0
 26 30  1  0  0  0  0
 26 27  1  0  0  0  0
 27 25  1  0  0  0  0
 28 25  1  0  0  0  0
M  END
>  <MODEL>
6

>  <REMARK>
 VINA RESULT:      -8.9      3.657      5.444
  Name = 
  6 active torsions:
  status: ('A' for Active; 'I' for Inactive)
    1  A    between atoms: C_1  and  C_4
    2  A    between atoms: C_4  and  C_27
    3  A    between atoms: C_5  and  C_22
    4  A    between atoms: N_8  and  C_27
    5  A    between atoms: N_16  and  C_25
    6  A    between atoms: C_19  and  C_29
                            x       y       z     vdW  Elec       q    Type
                         _______ _______ _______ _____ _____    ______ ____

>  <TORSDO>
F 6

$$$$
=
 OpenBabel10272413463D

 30 32  0  0  1  0  0  0  0  0999 V2000
  184.3110  178.7690  144.7930 C   0  0  0  0  0  0  0  0  0  0  0  0
  184.1060  178.7960  146.1350 N   0  0  0  0  0  0  0  0  0  0  0  0
  182.9870  179.3370  143.7820 Cl  0  0  0  0  0  0  0  0  0  0  0  0
  186.5030  177.8200  145.2150 C   0  0  0  0  0  0  0  0  0  0  0  0
  185.0410  178.3500  147.0050 C   0  0  0  0  0  3  0  0  0  0  0  0
  185.5360  178.2680  144.2780 C   0  0  0  0  0  0  0  0  0  0  0  0
  186.2190  177.8690  146.5450 N   0  0  0  0  0  0  0  0  0  0  0  0
  190.3840  177.0940  143.1490 C   0  0  0  0  0  3  0  0  0  0  0  0
  190.8450  177.5410  144.3160 C   0  0  0  0  0  3  0  0  0  0  0  0
  189.2080  176.1840  143.0450 C   0  0  0  0  0  2  0  0  0  0  0  0
  188.9060  177.1960  145.8260 C   0  0  0  0  0  3  0  0  0  0  0  0
  187.9730  176.8450  143.5560 C   0  0  0  0  0  3  0  0  0  0  0  0
  190.2320  177.2650  145.6370 C   0  0  0  0  0  0  0  0  0  0  0  0
  187.8320  177.3010  144.8060 C   0  0  0  0  0  0  0  0  0  0  0  0
  192.1930  175.0860  146.3530 O   0  0  0  0  0  0  0  0  0  0  0  0
  192.0090  176.2070  147.1530 C   0  0  0  0  0  0  0  0  0  0  0  0
  191.0520  177.2170  146.8130 N   0  0  0  0  0  2  0  0  0  0  0  0
  192.6890  176.3310  148.2030 O   0  0  0  0  0  1  0  0  0  0  0  0
  185.7430  179.0890  141.9210 C   0  0  0  0  0  3  0  0  0  0  0  0
  185.8250  178.1290  142.8290 C   0  0  0  0  0  3  0  0  0  0  0  0
  186.0710  178.7870  140.5030 C   0  0  0  0  0  2  0  0  0  0  0  0
  184.8070  178.8320  139.6370 C   0  0  2  0  0  3  0  0  0  0  0  0
  183.5790  179.1560  140.4770 C   0  0  0  0  0  1  0  0  0  0  0  0
  184.1850  177.1850  136.5200 C   0  0  0  0  0  2  0  0  0  0  0  0
  184.5880  177.6080  138.8520 N   0  0  0  0  0  0  0  0  0  0  0  0
  182.8540  177.3930  137.1870 C   0  0  2  0  0  0  0  0  0  0  0  0
  183.1500  177.4120  138.6710 C   0  0  0  0  0  2  0  0  0  0  0  0
  185.1890  177.7080  137.5190 C   0  0  0  0  0  2  0  0  0  0  0  0
  181.9050  176.2630  136.8460 C   0  0  0  0  0  1  0  0  0  0  0  0
  182.3120  178.6040  136.7990 F   0  0  0  0  0  0  0  0  0  0  0  0
  1  2  1  0  0  0  0
  2  5  2  0  0  0  0
  3  1  1  0  0  0  0
  4  7  2  0  0  0  0
  6  1  2  0  0  0  0
  6  4  1  0  0  0  0
  7  5  1  0  0  0  0
  8  9  2  0  0  0  0
  9 13  1  0  0  0  0
 10  8  1  0  0  0  0
 10 12  1  0  0  0  0
 12 14  2  0  0  0  0
 13 11  2  0  0  0  0
 13 17  1  0  0  0  0
 14  4  1  0  0  0  0
 14 11  1  0  0  0  0
 15 16  2  0  0  0  0
 16 18  1  0  0  0  0
 17 16  1  0  0  0  0
 19 20  2  0  0  0  0
 20  6  1  0  0  0  0
 21 19  1  0  0  0  0
 22 23  1  1  0  0  0
 22 21  1  0  0  0  0
 24 26  1  0  0  0  0
 24 28  1  0  0  0  0
 25 22  1  0  0  0  0
 26 29  1  6  0  0  0
 26 27  1  0  0  0  0
 27 25  1  0  0  0  0
 28 25  1  0  0  0  0
 30 26  1  0  0  0  0
M  END
>  <MODEL>
7

>  <REMARK>
 VINA RESULT:      -8.6      2.433      2.981
  Name = 
  6 active torsions:
  status: ('A' for Active; 'I' for Inactive)
    1  A    between atoms: C_1  and  C_4
    2  A    between atoms: C_4  and  C_27
    3  A    between atoms: C_5  and  C_22
    4  A    between atoms: N_8  and  C_27
    5  A    between atoms: N_16  and  C_25
    6  A    between atoms: C_19  and  C_29
                            x       y       z     vdW  Elec       q    Type
                         _______ _______ _______ _____ _____    ______ ____

>  <TORSDO>
F 6

$$$$
=
 OpenBabel10272413463D

 30 32  0  0  1  0  0  0  0  0999 V2000
  184.7930  178.5880  145.3810 C   0  0  0  0  0  0  0  0  0  0  0  0
  184.9020  178.5980  146.7340 N   0  0  0  0  0  0  0  0  0  0  0  0
  183.2020  178.9440  144.7180 Cl  0  0  0  0  0  0  0  0  0  0  0  0
  187.1370  177.9780  145.2620 C   0  0  0  0  0  0  0  0  0  0  0  0
  186.0680  178.3030  147.3540 C   0  0  0  0  0  3  0  0  0  0  0  0
  185.9240  178.2690  144.5860 C   0  0  0  0  0  0  0  0  0  0  0  0
  187.1650  177.9970  146.6230 N   0  0  0  0  0  0  0  0  0  0  0  0
  190.8700  176.0410  143.7910 C   0  0  0  0  0  3  0  0  0  0  0  0
  190.1420  175.9710  142.6780 C   0  0  0  0  0  3  0  0  0  0  0  0
  190.8540  177.2310  144.6890 C   0  0  0  0  0  2  0  0  0  0  0  0
  188.4100  177.7060  143.0610 C   0  0  0  0  0  3  0  0  0  0  0  0
  189.4980  177.4420  145.2730 C   0  0  0  0  0  3  0  0  0  0  0  0
  189.1830  177.0040  142.2200 C   0  0  0  0  0  0  0  0  0  0  0  0
  188.3960  177.6560  144.5460 C   0  0  0  0  0  0  0  0  0  0  0  0
  191.2440  177.6510  140.1130 O   0  0  0  0  0  1  0  0  0  0  0  0
  189.9030  177.4580  139.8010 C   0  0  0  0  0  0  0  0  0  0  0  0
  188.9340  177.1810  140.8190 N   0  0  0  0  0  2  0  0  0  0  0  0
  189.5320  177.5400  138.6030 O   0  0  0  0  0  0  0  0  0  0  0  0
  185.2920  179.0020  142.2760 C   0  0  0  0  0  3  0  0  0  0  0  0
  185.8870  178.1600  143.1060 C   0  0  0  0  0  3  0  0  0  0  0  0
  185.3490  178.7520  140.8110 C   0  0  0  0  0  2  0  0  0  0  0  0
  183.9690  178.9550  140.1760 C   0  0  2  0  0  3  0  0  0  0  0  0
  182.9870  177.8900  140.6470 C   0  0  0  0  0  1  0  0  0  0  0  0
  183.0290  177.6590  136.9740 C   0  0  0  0  0  2  0  0  0  0  0  0
  184.0010  179.0130  138.7070 N   0  0  0  0  0  0  0  0  0  0  0  0
  184.3750  177.0800  137.3110 C   0  0  2  0  0  0  0  0  0  0  0  0
  185.0310  178.0980  138.2180 C   0  0  0  0  0  2  0  0  0  0  0  0
  182.7240  178.5900  138.1240 C   0  0  0  0  0  2  0  0  0  0  0  0
  185.1970  176.8750  136.0560 C   0  0  0  0  0  1  0  0  0  0  0  0
  184.2220  175.8810  137.9810 F   0  0  0  0  0  0  0  0  0  0  0  0
  1  2  1  0  0  0  0
  2  5  2  0  0  0  0
  3  1  1  0  0  0  0
  4  7  2  0  0  0  0
  6  4  1  0  0  0  0
  6  1  2  0  0  0  0
  7  5  1  0  0  0  0
  8 10  1  0  0  0  0
  9  8  2  0  0  0  0
 10 12  1  0  0  0  0
 11 14  1  0  0  0  0
 13  9  1  0  0  0  0
 13 11  2  0  0  0  0
 14  4  1  0  0  0  0
 14 12  2  0  0  0  0
 16 15  1  0  0  0  0
 16 17  1  0  0  0  0
 17 13  1  0  0  0  0
 18 16  2  0  0  0  0
 19 20  2  0  0  0  0
 20  6  1  0  0  0  0
 21 19  1  0  0  0  0
 22 23  1  6  0  0  0
 22 21  1  0  0  0  0
 24 26  1  0  0  0  0
 24 28  1  0  0  0  0
 25 22  1  0  0  0  0
 26 29  1  6  0  0  0
 26 30  1  0  0  0  0
 26 27  1  0  0  0  0
 27 25  1  0  0  0  0
 28 25  1  0  0  0  0
M  END
>  <MODEL>
8

>  <REMARK>
 VINA RESULT:      -8.6      3.181      4.358
  Name = 
  6 active torsions:
  status: ('A' for Active; 'I' for Inactive)
    1  A    between atoms: C_1  and  C_4
    2  A    between atoms: C_4  and  C_27
    3  A    between atoms: C_5  and  C_22
    4  A    between atoms: N_8  and  C_27
    5  A    between atoms: N_16  and  C_25
    6  A    between atoms: C_19  and  C_29
                            x       y       z     vdW  Elec       q    Type
                         _______ _______ _______ _____ _____    ______ ____

>  <TORSDO>
F 6

$$$$
=
 OpenBabel10272413463D

 30 32  0  0  1  0  0  0  0  0999 V2000
  190.3800  176.8390  144.6990 C   0  0  0  0  0  0  0  0  0  0  0  0
  190.7100  176.8810  146.0150 N   0  0  0  0  0  0  0  0  0  0  0  0
  191.6630  176.3910  143.5810 Cl  0  0  0  0  0  0  0  0  0  0  0  0
  188.1410  177.5470  145.3040 C   0  0  0  0  0  0  0  0  0  0  0  0
  189.8130  177.2480  146.9600 C   0  0  0  0  0  3  0  0  0  0  0  0
  189.0640  177.1800  144.2910 C   0  0  0  0  0  0  0  0  0  0  0  0
  188.5490  177.5760  146.6020 N   0  0  0  0  0  0  0  0  0  0  0  0
  184.2160  179.6250  144.9410 C   0  0  0  0  0  3  0  0  0  0  0  0
  184.5310  179.5370  143.6490 C   0  0  0  0  0  3  0  0  0  0  0  0
  184.4830  178.5230  145.9090 C   0  0  0  0  0  2  0  0  0  0  0  0
  186.2160  177.7160  143.6300 C   0  0  0  0  0  3  0  0  0  0  0  0
  185.9460  178.2620  146.0330 C   0  0  0  0  0  3  0  0  0  0  0  0
  185.2350  178.3960  143.0180 C   0  0  0  0  0  0  0  0  0  0  0  0
  186.7300  177.8980  145.0120 C   0  0  0  0  0  0  0  0  0  0  0  0
  182.5490  178.3740  141.6430 O   0  0  0  0  0  1  0  0  0  0  0  0
  183.7290  178.0880  140.9660 C   0  0  0  0  0  0  0  0  0  0  0  0
  184.9910  178.0740  141.6420 N   0  0  0  0  0  2  0  0  0  0  0  0
  183.6840  177.8250  139.7380 O   0  0  0  0  0  0  0  0  0  0  0  0
  189.2130  177.9240  141.9030 C   0  0  0  0  0  3  0  0  0  0  0  0
  188.6290  177.2360  142.8730 C   0  0  0  0  0  3  0  0  0  0  0  0
  188.6510  177.8720  140.5280 C   0  0  0  0  0  2  0  0  0  0  0  0
  189.5380  177.0180  139.6160 C   0  0  2  0  0  3  0  0  0  0  0  0
  191.0030  177.1300  140.0160 C   0  0  0  0  0  1  0  0  0  0  0  0
  187.9980  178.8710  136.9680 C   0  0  0  0  0  2  0  0  0  0  0  0
  189.3690  177.3160  138.1860 N   0  0  0  0  0  0  0  0  0  0  0  0
  187.2140  177.6000  137.1360 C   0  0  2  0  0  0  0  0  0  0  0  0
  188.2010  176.5920  137.6850 C   0  0  0  0  0  2  0  0  0  0  0  0
  189.1320  178.7440  137.9570 C   0  0  0  0  0  2  0  0  0  0  0  0
  186.6610  177.1350  135.8050 C   0  0  0  0  0  1  0  0  0  0  0  0
  186.1850  177.7920  138.0380 F   0  0  0  0  0  0  0  0  0  0  0  0
  1  2  1  0  0  0  0
  2  5  2  0  0  0  0
  3  1  1  0  0  0  0
  4  7  2  0  0  0  0
  6  1  2  0  0  0  0
  6  4  1  0  0  0  0
  7  5  1  0  0  0  0
  8 10  1  0  0  0  0
  9  8  2  0  0  0  0
 10 12  1  0  0  0  0
 11 14  1  0  0  0  0
 13 11  2  0  0  0  0
 13  9  1  0  0  0  0
 14  4  1  0  0  0  0
 14 12  2  0  0  0  0
 16 17  1  0  0  0  0
 16 15  1  0  0  0  0
 17 13  1  0  0  0  0
 18 16  2  0  0  0  0
 19 20  2  0  0  0  0
 20  6  1  0  0  0  0
 21 19  1  0  0  0  0
 22 23  1  1  0  0  0
 22 21  1  0  0  0  0
 24 26  1  0  0  0  0
 24 28  1  0  0  0  0
 25 22  1  0  0  0  0
 26 29  1  6  0  0  0
 26 27  1  0  0  0  0
 26 30  1  0  0  0  0
 27 25  1  0  0  0  0
 28 25  1  0  0  0  0
M  END
>  <MODEL>
9

>  <REMARK>
 VINA RESULT:      -8.6      3.838      5.619
  Name = 
  6 active torsions:
  status: ('A' for Active; 'I' for Inactive)
    1  A    between atoms: C_1  and  C_4
    2  A    between atoms: C_4  and  C_27
    3  A    between atoms: C_5  and  C_22
    4  A    between atoms: N_8  and  C_27
    5  A    between atoms: N_16  and  C_25
    6  A    between atoms: C_19  and  C_29
                            x       y       z     vdW  Elec       q    Type
                         _______ _______ _______ _____ _____    ______ ____

>  <TORSDO>
F 6

$$$$
