=
 OpenBabel10272414393D

 43 47  0  0  1  0  0  0  0  0999 V2000
  191.5980  176.6180  139.0260 N   0  0  0  0  0  0  0  0  0  0  0  0
  193.0010  176.5630  138.6990 C   0  0  0  0  0  0  0  0  0  0  0  0
  193.8380  177.1640  139.4270 O   0  0  0  0  0  0  0  0  0  0  0  0
  187.5110  177.4600  135.8410 C   0  0  0  0  0  0  0  0  0  0  0  0
  188.8830  175.7730  136.8410 C   0  0  0  0  0  0  0  0  0  0  0  0
  188.2860  178.4520  136.4820 C   0  0  0  0  0  3  0  0  0  0  0  0
  186.3700  177.8610  134.9780 C   0  0  0  0  0  1  0  0  0  0  0  0
  189.6460  176.7350  137.4440 C   0  0  0  0  0  0  0  0  0  0  0  0
  187.8030  176.0960  136.0240 C   0  0  0  0  0  3  0  0  0  0  0  0
  189.3690  178.0930  137.3030 C   0  0  0  0  0  3  0  0  0  0  0  0
  190.5860  176.0520  138.1830 C   0  0  0  0  0  0  0  0  0  0  0  0
  190.3880  174.7550  138.0450 O   0  0  0  0  0  0  0  0  0  0  0  0
  189.3650  174.5390  137.2310 C   0  0  0  0  0  3  0  0  0  0  0  0
  193.4990  175.7060  137.5710 C   0  0  0  0  0  2  0  0  0  0  0  0
  196.9690  175.0060  136.4230 C   0  0  0  0  0  2  0  0  0  0  0  0
  197.2650  173.7570  137.2590 C   0  0  0  0  0  0  0  0  0  0  0  0
  198.7530  173.6990  137.5340 C   0  0  0  0  0  1  0  0  0  0  0  0
  195.0450  174.1590  138.3940 C   0  0  0  0  0  2  0  0  0  0  0  0
  195.4670  175.2790  136.3540 C   0  0  0  0  0  2  0  0  0  0  0  0
  194.9240  175.4390  137.7030 N   0  0  0  0  0  0  0  0  0  0  0  0
  196.8710  172.5060  136.4890 C   0  0  0  0  0  1  0  0  0  0  0  0
  196.5210  173.8100  138.5970 C   0  0  0  0  0  2  0  0  0  0  0  0
  191.1780  177.1380  140.3240 C   0  0  0  0  0  2  0  0  0  0  0  0
  190.3570  176.1990  140.9790 O   0  0  0  0  0  0  0  0  0  0  0  0
  189.8850  176.7480  142.1940 C   0  0  2  0  0  3  0  0  0  0  0  0
  189.1190  178.0520  142.0020 C   0  0  0  0  0  1  0  0  0  0  0  0
  190.9720  176.8810  143.2630 C   0  0  0  0  0  2  0  0  0  0  0  0
  190.1070  178.3320  145.1670 N   0  0  0  0  0  2  0  0  0  0  0  0
  190.9060  178.1930  143.9900 C   0  0  0  0  0  0  0  0  0  0  0  0
  191.5100  179.2020  143.5400 O   0  0  0  0  0  0  0  0  0  0  0  0
  189.2640  177.2630  145.6880 C   0  0  1  0  0  3  0  0  0  0  0  0
  187.3270  177.7960  147.3060 C   0  0  0  0  0  2  0  0  0  0  0  0
  189.8520  176.7200  146.9920 C   0  0  0  0  0  2  0  0  0  0  0  0
  189.7310  177.7250  148.1450 C   0  0  0  0  0  2  0  0  0  0  0  0
  187.8140  177.7630  145.8550 C   0  0  2  0  0  3  0  0  0  0  0  0
  188.3790  178.4520  148.1940 C   0  0  0  0  0  2  0  0  0  0  0  0
  186.8350  177.0210  144.9430 C   0  0  0  0  0  2  0  0  0  0  0  0
  185.6960  177.8760  144.4850 C   0  0  0  0  0  0  0  0  0  0  0  0
  183.5550  179.4560  143.6190 C   0  0  0  0  0  3  0  0  0  0  0  0
  184.4590  178.9340  142.6900 C   0  0  0  0  0  3  0  0  0  0  0  0
  183.7200  179.1890  144.9820 C   0  0  0  0  0  3  0  0  0  0  0  0
  185.5290  178.1450  143.1210 C   0  0  0  0  0  3  0  0  0  0  0  0
  184.7900  178.4000  145.4140 C   0  0  0  0  0  3  0  0  0  0  0  0
  1 23  1  0  0  0  0
  2  1  1  0  0  0  0
  2  3  2  0  0  0  0
  4  9  2  0  0  0  0
  4  6  1  0  0  0  0
  5 13  2  0  0  0  0
  5  8  1  0  0  0  0
  6 10  2  0  0  0  0
  7  4  1  0  0  0  0
  8 11  2  0  0  0  0
  9  5  1  0  0  0  0
 10  8  1  0  0  0  0
 11  1  1  0  0  0  0
 12 11  1  0  0  0  0
 13 12  1  0  0  0  0
 14 20  1  0  0  0  0
 14  2  1  0  0  0  0
 15 16  1  0  0  0  0
 16 17  1  0  0  0  0
 16 22  1  0  0  0  0
 18 22  1  0  0  0  0
 19 15  1  0  0  0  0
 19 20  1  0  0  0  0
 20 18  1  0  0  0  0
 21 16  1  0  0  0  0
 23 24  1  0  0  0  0
 24 25  1  0  0  0  0
 25 26  1  6  0  0  0
 25 27  1  0  0  0  0
 27 29  1  0  0  0  0
 29 28  1  0  0  0  0
 30 29  2  0  0  0  0
 31 28  1  1  0  0  0
 31 35  1  0  0  0  0
 31 33  1  0  0  0  0
 32 36  1  0  0  0  0
 33 34  1  0  0  0  0
 34 36  1  0  0  0  0
 35 37  1  6  0  0  0
 35 32  1  0  0  0  0
 38 37  1  0  0  0  0
 38 43  1  0  0  0  0
 39 41  1  0  0  0  0
 40 42  1  0  0  0  0
 40 39  2  0  0  0  0
 41 43  2  0  0  0  0
 42 38  2  0  0  0  0
M  END
>  <MODEL>
1

>  <REMARK>
 VINA RESULT:     -10.1      0.000      0.000
  Name = 
  11 active torsions:
  status: ('A' for Active; 'I' for Inactive)
    1  A    between atoms: C_1  and  C_34
    2  A    between atoms: C_1  and  N_35
    3  A    between atoms: C_2  and  C_6
    4  A    between atoms: C_2  and  O_13
    5  A    between atoms: N_3  and  C_4
    6  A    between atoms: C_6  and  C_12
    7  A    between atoms: N_8  and  C_27
    8  A    between atoms: N_8  and  C_30
    9  A    between atoms: C_11  and  C_14
   10  A    between atoms: O_13  and  C_27
   11  A    between atoms: C_14  and  C_41
                            x       y       z     vdW  Elec       q    Type
                         _______ _______ _______ _____ _____    ______ ____

>  <TORSDO>
F 11

$$$$
=
 OpenBabel10272414393D

 43 47  0  0  1  0  0  0  0  0999 V2000
  190.1640  177.0950  138.8280 N   0  0  0  0  0  0  0  0  0  0  0  0
  189.4040  178.1250  138.1650 C   0  0  0  0  0  0  0  0  0  0  0  0
  188.9920  179.1200  138.8220 O   0  0  0  0  0  0  0  0  0  0  0  0
  193.9760  174.4590  136.3600 C   0  0  0  0  0  0  0  0  0  0  0  0
  191.6970  174.3600  137.0880 C   0  0  0  0  0  0  0  0  0  0  0  0
  194.0830  175.7520  136.9170 C   0  0  0  0  0  3  0  0  0  0  0  0
  195.1470  173.8530  135.6760 C   0  0  0  0  0  1  0  0  0  0  0  0
  191.8090  175.6020  137.6470 C   0  0  0  0  0  0  0  0  0  0  0  0
  192.7640  173.7470  136.4350 C   0  0  0  0  0  3  0  0  0  0  0  0
  192.9860  176.3440  137.5680 C   0  0  0  0  0  3  0  0  0  0  0  0
  190.5670  175.8880  138.1670 C   0  0  0  0  0  0  0  0  0  0  0  0
  189.7520  174.8800  137.9200 O   0  0  0  0  0  0  0  0  0  0  0  0
  190.4000  173.9250  137.2700 C   0  0  0  0  0  3  0  0  0  0  0  0
  189.1920  178.0950  136.6790 C   0  0  0  0  0  2  0  0  0  0  0  0
  185.6210  177.0750  136.9170 C   0  0  0  0  0  2  0  0  0  0  0  0
  185.3520  176.7500  135.4450 C   0  0  0  0  0  0  0  0  0  0  0  0
  183.8900  177.0090  135.1510 C   0  0  0  0  0  1  0  0  0  0  0  0
  187.6670  177.6390  134.9680 C   0  0  0  0  0  2  0  0  0  0  0  0
  187.1210  177.1110  137.2080 C   0  0  0  0  0  2  0  0  0  0  0  0
  187.7740  178.0990  136.3490 N   0  0  0  0  0  0  0  0  0  0  0  0
  185.6430  175.2830  135.1710 C   0  0  0  0  0  1  0  0  0  0  0  0
  186.2010  177.6370  134.5290 C   0  0  0  0  0  2  0  0  0  0  0  0
  190.6750  177.3260  140.1760 C   0  0  0  0  0  2  0  0  0  0  0  0
  190.4080  176.2090  140.9920 O   0  0  0  0  0  0  0  0  0  0  0  0
  189.8820  176.6430  142.2320 C   0  0  2  0  0  3  0  0  0  0  0  0
  189.0560  177.9190  142.1160 C   0  0  0  0  0  1  0  0  0  0  0  0
  190.9360  176.7490  143.3360 C   0  0  0  0  0  2  0  0  0  0  0  0
  190.1060  178.2600  145.2070 N   0  0  0  0  0  2  0  0  0  0  0  0
  190.9040  178.0760  144.0370 C   0  0  0  0  0  0  0  0  0  0  0  0
  191.5370  179.0580  143.5680 O   0  0  0  0  0  0  0  0  0  0  0  0
  189.2320  177.2250  145.7460 C   0  0  1  0  0  3  0  0  0  0  0  0
  187.2790  177.8490  147.3120 C   0  0  0  0  0  2  0  0  0  0  0  0
  189.7860  176.7110  147.0770 C   0  0  0  0  0  2  0  0  0  0  0  0
  189.6670  177.7540  148.1960 C   0  0  0  0  0  2  0  0  0  0  0  0
  187.7910  177.7600  145.8720 C   0  0  2  0  0  3  0  0  0  0  0  0
  188.3300  178.5100  148.1980 C   0  0  0  0  0  2  0  0  0  0  0  0
  186.8120  177.0100  144.9670 C   0  0  0  0  0  2  0  0  0  0  0  0
  185.6980  177.8730  144.4640 C   0  0  0  0  0  0  0  0  0  0  0  0
  183.6030  179.4680  143.5150 C   0  0  0  0  0  3  0  0  0  0  0  0
  184.5130  178.9020  142.6170 C   0  0  0  0  0  3  0  0  0  0  0  0
  183.7390  179.2370  144.8880 C   0  0  0  0  0  3  0  0  0  0  0  0
  185.5590  178.1060  143.0900 C   0  0  0  0  0  3  0  0  0  0  0  0
  184.7860  178.4410  145.3620 C   0  0  0  0  0  3  0  0  0  0  0  0
  1 23  1  0  0  0  0
  2  3  2  0  0  0  0
  2  1  1  0  0  0  0
  4  9  2  0  0  0  0
  4  6  1  0  0  0  0
  5 13  2  0  0  0  0
  5  8  1  0  0  0  0
  6 10  2  0  0  0  0
  7  4  1  0  0  0  0
  8 11  2  0  0  0  0
  9  5  1  0  0  0  0
 10  8  1  0  0  0  0
 11  1  1  0  0  0  0
 12 11  1  0  0  0  0
 13 12  1  0  0  0  0
 14  2  1  0  0  0  0
 15 19  1  0  0  0  0
 16 15  1  0  0  0  0
 17 16  1  0  0  0  0
 18 20  1  0  0  0  0
 20 14  1  0  0  0  0
 20 19  1  0  0  0  0
 21 16  1  0  0  0  0
 22 18  1  0  0  0  0
 22 16  1  0  0  0  0
 23 24  1  0  0  0  0
 24 25  1  0  0  0  0
 25 26  1  6  0  0  0
 25 27  1  0  0  0  0
 27 29  1  0  0  0  0
 29 28  1  0  0  0  0
 30 29  2  0  0  0  0
 31 28  1  1  0  0  0
 31 35  1  0  0  0  0
 31 33  1  0  0  0  0
 32 36  1  0  0  0  0
 33 34  1  0  0  0  0
 34 36  1  0  0  0  0
 35 37  1  6  0  0  0
 35 32  1  0  0  0  0
 38 37  1  0  0  0  0
 38 43  1  0  0  0  0
 39 41  1  0  0  0  0
 40 42  1  0  0  0  0
 40 39  2  0  0  0  0
 41 43  2  0  0  0  0
 42 38  2  0  0  0  0
M  END
>  <MODEL>
2

>  <REMARK>
 VINA RESULT:     -10.0      1.621      5.565
  Name = 
  11 active torsions:
  status: ('A' for Active; 'I' for Inactive)
    1  A    between atoms: C_1  and  C_34
    2  A    between atoms: C_1  and  N_35
    3  A    between atoms: C_2  and  C_6
    4  A    between atoms: C_2  and  O_13
    5  A    between atoms: N_3  and  C_4
    6  A    between atoms: C_6  and  C_12
    7  A    between atoms: N_8  and  C_27
    8  A    between atoms: N_8  and  C_30
    9  A    between atoms: C_11  and  C_14
   10  A    between atoms: O_13  and  C_27
   11  A    between atoms: C_14  and  C_41
                            x       y       z     vdW  Elec       q    Type
                         _______ _______ _______ _____ _____    ______ ____

>  <TORSDO>
F 11

$$$$
=
 OpenBabel10272414393D

 43 47  0  0  1  0  0  0  0  0999 V2000
  190.1850  176.9920  139.4290 N   0  0  0  0  0  0  0  0  0  0  0  0
  189.2270  178.0460  139.2060 C   0  0  0  0  0  0  0  0  0  0  0  0
  188.4540  178.3980  140.1380 O   0  0  0  0  0  0  0  0  0  0  0  0
  190.7650  173.4690  135.5800 C   0  0  0  0  0  0  0  0  0  0  0  0
  191.8200  175.2810  136.7350 C   0  0  0  0  0  0  0  0  0  0  0  0
  189.6280  173.6240  136.4040 C   0  0  0  0  0  3  0  0  0  0  0  0
  190.7810  172.4080  134.5400 C   0  0  0  0  0  1  0  0  0  0  0  0
  190.7100  175.4440  137.5160 C   0  0  0  0  0  0  0  0  0  0  0  0
  191.8870  174.3020  135.7470 C   0  0  0  0  0  3  0  0  0  0  0  0
  189.5930  174.6210  137.3950 C   0  0  0  0  0  3  0  0  0  0  0  0
  191.0150  176.4690  138.3840 C   0  0  0  0  0  0  0  0  0  0  0  0
  192.2450  176.8850  138.1460 O   0  0  0  0  0  0  0  0  0  0  0  0
  192.7700  176.1940  137.1460 C   0  0  0  0  0  3  0  0  0  0  0  0
  189.2100  178.8140  137.9160 C   0  0  0  0  0  2  0  0  0  0  0  0
  185.8070  177.4440  137.2870 C   0  0  0  0  0  2  0  0  0  0  0  0
  185.9850  176.9790  135.8400 C   0  0  0  0  0  0  0  0  0  0  0  0
  184.6460  177.0590  135.1370 C   0  0  0  0  0  1  0  0  0  0  0  0
  188.2620  178.0680  135.9140 C   0  0  0  0  0  2  0  0  0  0  0  0
  187.1590  177.6610  137.9660 C   0  0  0  0  0  2  0  0  0  0  0  0
  187.9440  178.6430  137.2180 N   0  0  0  0  0  0  0  0  0  0  0  0
  186.4560  175.5340  135.8080 C   0  0  0  0  0  1  0  0  0  0  0  0
  186.9810  177.8770  135.0990 C   0  0  0  0  0  2  0  0  0  0  0  0
  190.4380  176.5200  140.7870 C   0  0  0  0  0  2  0  0  0  0  0  0
  191.6140  177.1070  141.2930 O   0  0  0  0  0  0  0  0  0  0  0  0
  191.4960  177.2780  142.6920 C   0  0  2  0  0  3  0  0  0  0  0  0
  191.6220  175.9700  143.4650 C   0  0  0  0  0  1  0  0  0  0  0  0
  190.2500  178.0620  143.1050 C   0  0  0  0  0  2  0  0  0  0  0  0
  190.0270  178.6770  145.5650 N   0  0  0  0  0  2  0  0  0  0  0  0
  190.5090  178.9900  144.2570 C   0  0  0  0  0  0  0  0  0  0  0  0
  191.1070  180.0830  144.0710 O   0  0  0  0  0  0  0  0  0  0  0  0
  189.2080  177.5060  145.8530 C   0  0  1  0  0  3  0  0  0  0  0  0
  187.0300  177.7370  147.2160 C   0  0  0  0  0  2  0  0  0  0  0  0
  189.6520  176.8670  147.1700 C   0  0  0  0  0  2  0  0  0  0  0  0
  189.2940  177.7330  148.3850 C   0  0  0  0  0  2  0  0  0  0  0  0
  187.7140  177.8910  145.8550 C   0  0  2  0  0  3  0  0  0  0  0  0
  187.8950  178.3610  148.3070 C   0  0  0  0  0  2  0  0  0  0  0  0
  186.9320  177.1880  144.7440 C   0  0  0  0  0  2  0  0  0  0  0  0
  185.7240  177.9510  144.3030 C   0  0  0  0  0  0  0  0  0  0  0  0
  183.4530  179.3600  143.4700 C   0  0  0  0  0  3  0  0  0  0  0  0
  184.3620  178.8770  142.5250 C   0  0  0  0  0  3  0  0  0  0  0  0
  183.6780  179.1390  144.8330 C   0  0  0  0  0  3  0  0  0  0  0  0
  185.4960  178.1730  142.9390 C   0  0  0  0  0  3  0  0  0  0  0  0
  184.8120  178.4360  145.2490 C   0  0  0  0  0  3  0  0  0  0  0  0
  1 23  1  0  0  0  0
  2  1  1  0  0  0  0
  2  3  2  0  0  0  0
  4  9  2  0  0  0  0
  4  6  1  0  0  0  0
  5 13  2  0  0  0  0
  5  8  1  0  0  0  0
  6 10  2  0  0  0  0
  7  4  1  0  0  0  0
  8 11  2  0  0  0  0
  9  5  1  0  0  0  0
 10  8  1  0  0  0  0
 11  1  1  0  0  0  0
 12 11  1  0  0  0  0
 13 12  1  0  0  0  0
 14  2  1  0  0  0  0
 15 19  1  0  0  0  0
 16 15  1  0  0  0  0
 17 16  1  0  0  0  0
 18 20  1  0  0  0  0
 20 14  1  0  0  0  0
 20 19  1  0  0  0  0
 21 16  1  0  0  0  0
 22 16  1  0  0  0  0
 22 18  1  0  0  0  0
 23 24  1  0  0  0  0
 24 25  1  0  0  0  0
 25 27  1  0  0  0  0
 25 26  1  1  0  0  0
 27 29  1  0  0  0  0
 29 28  1  0  0  0  0
 30 29  2  0  0  0  0
 31 28  1  1  0  0  0
 31 35  1  0  0  0  0
 31 33  1  0  0  0  0
 32 36  1  0  0  0  0
 33 34  1  0  0  0  0
 35 37  1  6  0  0  0
 35 32  1  0  0  0  0
 36 34  1  0  0  0  0
 38 37  1  0  0  0  0
 38 43  1  0  0  0  0
 39 41  1  0  0  0  0
 40 42  1  0  0  0  0
 40 39  2  0  0  0  0
 41 43  2  0  0  0  0
 42 38  2  0  0  0  0
M  END
>  <MODEL>
3

>  <REMARK>
 VINA RESULT:      -9.6      2.297      5.282
  Name = 
  11 active torsions:
  status: ('A' for Active; 'I' for Inactive)
    1  A    between atoms: C_1  and  C_34
    2  A    between atoms: C_1  and  N_35
    3  A    between atoms: C_2  and  C_6
    4  A    between atoms: C_2  and  O_13
    5  A    between atoms: N_3  and  C_4
    6  A    between atoms: C_6  and  C_12
    7  A    between atoms: N_8  and  C_27
    8  A    between atoms: N_8  and  C_30
    9  A    between atoms: C_11  and  C_14
   10  A    between atoms: O_13  and  C_27
   11  A    between atoms: C_14  and  C_41
                            x       y       z     vdW  Elec       q    Type
                         _______ _______ _______ _____ _____    ______ ____

>  <TORSDO>
F 11

$$$$
=
 OpenBabel10272414393D

 43 47  0  0  1  0  0  0  0  0999 V2000
  187.5510  178.1600  138.6180 N   0  0  0  0  0  0  0  0  0  0  0  0
  188.6940  178.2720  137.7470 C   0  0  0  0  0  0  0  0  0  0  0  0
  189.7640  178.7800  138.1790 O   0  0  0  0  0  0  0  0  0  0  0  0
  182.3550  178.9050  138.4910 C   0  0  0  0  0  0  0  0  0  0  0  0
  184.1330  177.4660  137.7840 C   0  0  0  0  0  0  0  0  0  0  0  0
  183.3030  179.7460  139.1160 C   0  0  0  0  0  3  0  0  0  0  0  0
  180.9110  179.2470  138.5580 C   0  0  0  0  0  1  0  0  0  0  0  0
  185.0510  178.2930  138.3700 C   0  0  0  0  0  0  0  0  0  0  0  0
  182.7680  177.7400  137.8190 C   0  0  0  0  0  3  0  0  0  0  0  0
  184.6740  179.4400  139.0650 C   0  0  0  0  0  3  0  0  0  0  0  0
  186.2730  177.6960  138.1610 C   0  0  0  0  0  0  0  0  0  0  0  0
  186.0970  176.5670  137.5010 O   0  0  0  0  0  0  0  0  0  0  0  0
  184.8100  176.3900  137.2450 C   0  0  0  0  0  3  0  0  0  0  0  0
  188.6710  177.6880  136.3640 C   0  0  0  0  0  2  0  0  0  0  0  0
  190.4900  174.8990  134.7020 C   0  0  0  0  0  2  0  0  0  0  0  0
  190.4420  173.8600  135.8260 C   0  0  0  0  0  0  0  0  0  0  0  0
  191.6610  172.9700  135.7150 C   0  0  0  0  0  1  0  0  0  0  0  0
  189.4220  175.6670  137.2650 C   0  0  0  0  0  2  0  0  0  0  0  0
  189.4520  175.9990  134.9240 C   0  0  0  0  0  2  0  0  0  0  0  0
  189.6780  176.6480  136.2150 N   0  0  0  0  0  0  0  0  0  0  0  0
  189.2010  172.9930  135.6870 C   0  0  0  0  0  1  0  0  0  0  0  0
  190.4580  174.5430  137.1970 C   0  0  0  0  0  2  0  0  0  0  0  0
  187.7090  178.3880  140.0520 C   0  0  0  0  0  2  0  0  0  0  0  0
  188.1680  177.2140  140.6800 O   0  0  0  0  0  0  0  0  0  0  0  0
  189.3560  177.4920  141.3960 C   0  0  2  0  0  3  0  0  0  0  0  0
  190.5910  176.8500  140.7730 C   0  0  0  0  0  1  0  0  0  0  0  0
  189.2510  177.1860  142.8910 C   0  0  0  0  0  2  0  0  0  0  0  0
  189.9040  178.1290  145.1620 N   0  0  0  0  0  2  0  0  0  0  0  0
  189.9740  178.1930  143.7370 C   0  0  0  0  0  0  0  0  0  0  0  0
  190.6060  179.1400  143.1980 O   0  0  0  0  0  0  0  0  0  0  0  0
  189.0870  177.1560  145.8760 C   0  0  1  0  0  3  0  0  0  0  0  0
  187.4200  177.9250  147.6890 C   0  0  0  0  0  2  0  0  0  0  0  0
  189.8200  176.6760  147.1310 C   0  0  0  0  0  2  0  0  0  0  0  0
  189.9100  177.7690  148.2040 C   0  0  0  0  0  2  0  0  0  0  0  0
  187.7010  177.7550  146.1930 C   0  0  2  0  0  3  0  0  0  0  0  0
  188.6160  178.5800  148.3720 C   0  0  0  0  0  2  0  0  0  0  0  0
  186.5700  177.0090  145.4840 C   0  0  0  0  0  2  0  0  0  0  0  0
  185.6520  177.9150  144.7280 C   0  0  0  0  0  0  0  0  0  0  0  0
  183.9260  179.5940  143.3000 C   0  0  0  0  0  3  0  0  0  0  0  0
  185.0380  179.0340  142.6670 C   0  0  0  0  0  3  0  0  0  0  0  0
  183.6750  179.3160  144.6480 C   0  0  0  0  0  3  0  0  0  0  0  0
  185.9010  178.1950  143.3780 C   0  0  0  0  0  3  0  0  0  0  0  0
  184.5380  178.4780  145.3610 C   0  0  0  0  0  3  0  0  0  0  0  0
  1 23  1  0  0  0  0
  2  3  2  0  0  0  0
  2  1  1  0  0  0  0
  4  7  1  0  0  0  0
  4  6  1  0  0  0  0
  5  9  1  0  0  0  0
  5  8  1  0  0  0  0
  8 10  1  0  0  0  0
  9  4  2  0  0  0  0
 10  6  2  0  0  0  0
 11  8  2  0  0  0  0
 11  1  1  0  0  0  0
 12 11  1  0  0  0  0
 13 12  1  0  0  0  0
 13  5  2  0  0  0  0
 14  2  1  0  0  0  0
 15 19  1  0  0  0  0
 15 16  1  0  0  0  0
 16 22  1  0  0  0  0
 17 16  1  0  0  0  0
 19 20  1  0  0  0  0
 20 14  1  0  0  0  0
 20 18  1  0  0  0  0
 21 16  1  0  0  0  0
 22 18  1  0  0  0  0
 23 24  1  0  0  0  0
 24 25  1  0  0  0  0
 25 26  1  6  0  0  0
 25 27  1  0  0  0  0
 27 29  1  0  0  0  0
 29 28  1  0  0  0  0
 30 29  2  0  0  0  0
 31 28  1  1  0  0  0
 31 35  1  0  0  0  0
 31 33  1  0  0  0  0
 32 36  1  0  0  0  0
 33 34  1  0  0  0  0
 34 36  1  0  0  0  0
 35 37  1  1  0  0  0
 35 32  1  0  0  0  0
 38 43  1  0  0  0  0
 38 37  1  0  0  0  0
 39 41  1  0  0  0  0
 40 39  2  0  0  0  0
 40 42  1  0  0  0  0
 41 43  2  0  0  0  0
 42 38  2  0  0  0  0
M  END
>  <MODEL>
4

>  <REMARK>
 VINA RESULT:      -9.1      2.884      4.221
  Name = 
  11 active torsions:
  status: ('A' for Active; 'I' for Inactive)
    1  A    between atoms: C_1  and  C_34
    2  A    between atoms: C_1  and  N_35
    3  A    between atoms: C_2  and  C_6
    4  A    between atoms: C_2  and  O_13
    5  A    between atoms: N_3  and  C_4
    6  A    between atoms: C_6  and  C_12
    7  A    between atoms: N_8  and  C_27
    8  A    between atoms: N_8  and  C_30
    9  A    between atoms: C_11  and  C_14
   10  A    between atoms: O_13  and  C_27
   11  A    between atoms: C_14  and  C_41
                            x       y       z     vdW  Elec       q    Type
                         _______ _______ _______ _____ _____    ______ ____

>  <TORSDO>
F 11

$$$$
=
 OpenBabel10272414393D

 43 47  0  0  1  0  0  0  0  0999 V2000
  188.1020  177.8750  138.4330 N   0  0  0  0  0  0  0  0  0  0  0  0
  186.6890  178.0970  138.6170 C   0  0  0  0  0  0  0  0  0  0  0  0
  186.2550  178.4780  139.7380 O   0  0  0  0  0  0  0  0  0  0  0  0
  189.2710  173.5990  135.6190 C   0  0  0  0  0  0  0  0  0  0  0  0
  189.3600  175.9910  135.6530 C   0  0  0  0  0  0  0  0  0  0  0  0
  188.6440  173.6180  136.8850 C   0  0  0  0  0  3  0  0  0  0  0  0
  189.5500  172.3000  134.9560 C   0  0  0  0  0  1  0  0  0  0  0  0
  188.7330  176.0090  136.8680 C   0  0  0  0  0  0  0  0  0  0  0  0
  189.6450  174.8010  134.9900 C   0  0  0  0  0  3  0  0  0  0  0  0
  188.3730  174.8380  137.5300 C   0  0  0  0  0  3  0  0  0  0  0  0
  188.6480  177.3370  137.2220 C   0  0  0  0  0  0  0  0  0  0  0  0
  189.2070  178.0730  136.2800 O   0  0  0  0  0  0  0  0  0  0  0  0
  189.6480  177.2950  135.3020 C   0  0  0  0  0  3  0  0  0  0  0  0
  185.7340  177.9940  137.4620 C   0  0  0  0  0  2  0  0  0  0  0  0
  183.8260  174.8090  137.2160 C   0  0  0  0  0  2  0  0  0  0  0  0
  182.4380  175.3690  136.8940 C   0  0  0  0  0  0  0  0  0  0  0  0
  181.3930  174.4190  137.4390 C   0  0  0  0  0  1  0  0  0  0  0  0
  183.4300  177.6620  137.2640 C   0  0  0  0  0  2  0  0  0  0  0  0
  184.9150  175.8480  136.9520 C   0  0  0  0  0  2  0  0  0  0  0  0
  184.6640  177.0500  137.7470 N   0  0  0  0  0  0  0  0  0  0  0  0
  182.2510  175.4750  135.3890 C   0  0  0  0  0  1  0  0  0  0  0  0
  182.2410  176.7410  137.5480 C   0  0  0  0  0  2  0  0  0  0  0  0
  189.0440  178.3360  139.4480 C   0  0  0  0  0  2  0  0  0  0  0  0
  189.1280  177.3960  140.4940 O   0  0  0  0  0  0  0  0  0  0  0  0
  190.1440  177.7830  141.3990 C   0  0  2  0  0  3  0  0  0  0  0  0
  191.5270  177.2880  140.9900 C   0  0  0  0  0  1  0  0  0  0  0  0
  189.8250  177.4360  142.8550 C   0  0  0  0  0  2  0  0  0  0  0  0
  190.0850  178.3410  145.2190 N   0  0  0  0  0  2  0  0  0  0  0  0
  190.3210  178.4770  143.8160 C   0  0  0  0  0  0  0  0  0  0  0  0
  190.9020  179.5100  143.3920 O   0  0  0  0  0  0  0  0  0  0  0  0
  189.3040  177.2530  145.7930 C   0  0  1  0  0  3  0  0  0  0  0  0
  187.4990  177.7370  147.5720 C   0  0  0  0  0  2  0  0  0  0  0  0
  190.0050  176.7040  147.0380 C   0  0  0  0  0  2  0  0  0  0  0  0
  189.9650  177.6940  148.2100 C   0  0  0  0  0  2  0  0  0  0  0  0
  187.8660  177.7290  146.0860 C   0  0  2  0  0  3  0  0  0  0  0  0
  188.6110  178.3990  148.3790 C   0  0  0  0  0  2  0  0  0  0  0  0
  186.8260  176.9820  145.2480 C   0  0  0  0  0  2  0  0  0  0  0  0
  185.7530  177.8760  144.7100 C   0  0  0  0  0  0  0  0  0  0  0  0
  183.7380  179.5300  143.6920 C   0  0  0  0  0  3  0  0  0  0  0  0
  184.7590  179.0750  142.8530 C   0  0  0  0  0  3  0  0  0  0  0  0
  183.7230  179.1580  145.0400 C   0  0  0  0  0  3  0  0  0  0  0  0
  185.7660  178.2490  143.3600 C   0  0  0  0  0  3  0  0  0  0  0  0
  184.7300  178.3330  145.5490 C   0  0  0  0  0  3  0  0  0  0  0  0
  1  2  1  0  0  0  0
  1 23  1  0  0  0  0
  2  3  2  0  0  0  0
  4  6  1  0  0  0  0
  5  8  1  0  0  0  0
  6 10  2  0  0  0  0
  7  4  1  0  0  0  0
  8 11  2  0  0  0  0
  8 10  1  0  0  0  0
  9  4  2  0  0  0  0
  9  5  1  0  0  0  0
 11  1  1  0  0  0  0
 12 11  1  0  0  0  0
 13  5  2  0  0  0  0
 13 12  1  0  0  0  0
 14 20  1  0  0  0  0
 14  2  1  0  0  0  0
 16 15  1  0  0  0  0
 16 17  1  0  0  0  0
 16 22  1  0  0  0  0
 18 22  1  0  0  0  0
 18 20  1  0  0  0  0
 19 15  1  0  0  0  0
 19 20  1  0  0  0  0
 21 16  1  0  0  0  0
 23 24  1  0  0  0  0
 24 25  1  0  0  0  0
 25 26  1  6  0  0  0
 25 27  1  0  0  0  0
 27 29  1  0  0  0  0
 29 28  1  0  0  0  0
 30 29  2  0  0  0  0
 31 28  1  1  0  0  0
 31 35  1  0  0  0  0
 31 33  1  0  0  0  0
 32 36  1  0  0  0  0
 33 34  1  0  0  0  0
 34 36  1  0  0  0  0
 35 37  1  6  0  0  0
 35 32  1  0  0  0  0
 38 37  1  0  0  0  0
 38 43  1  0  0  0  0
 39 41  1  0  0  0  0
 40 42  1  0  0  0  0
 40 39  2  0  0  0  0
 41 43  2  0  0  0  0
 42 38  2  0  0  0  0
M  END
>  <MODEL>
5

>  <REMARK>
 VINA RESULT:      -8.9      3.474      6.550
  Name = 
  11 active torsions:
  status: ('A' for Active; 'I' for Inactive)
    1  A    between atoms: C_1  and  C_34
    2  A    between atoms: C_1  and  N_35
    3  A    between atoms: C_2  and  C_6
    4  A    between atoms: C_2  and  O_13
    5  A    between atoms: N_3  and  C_4
    6  A    between atoms: C_6  and  C_12
    7  A    between atoms: N_8  and  C_27
    8  A    between atoms: N_8  and  C_30
    9  A    between atoms: C_11  and  C_14
   10  A    between atoms: O_13  and  C_27
   11  A    between atoms: C_14  and  C_41
                            x       y       z     vdW  Elec       q    Type
                         _______ _______ _______ _____ _____    ______ ____

>  <TORSDO>
F 11

$$$$
=
 OpenBabel10272414393D

 43 47  0  0  1  0  0  0  0  0999 V2000
  188.9850  176.5330  138.2530 N   0  0  0  0  0  0  0  0  0  0  0  0
  187.6750  176.7910  137.7090 C   0  0  0  0  0  0  0  0  0  0  0  0
  186.9370  177.6660  138.2390 O   0  0  0  0  0  0  0  0  0  0  0  0
  193.8210  175.0020  136.8980 C   0  0  0  0  0  0  0  0  0  0  0  0
  191.5360  174.3090  137.0670 C   0  0  0  0  0  0  0  0  0  0  0  0
  193.4590  176.2710  137.4000 C   0  0  0  0  0  3  0  0  0  0  0  0
  195.2370  174.7270  136.5440 C   0  0  0  0  0  1  0  0  0  0  0  0
  191.1900  175.5310  137.5740 C   0  0  0  0  0  0  0  0  0  0  0  0
  192.8480  174.0010  136.7180 C   0  0  0  0  0  3  0  0  0  0  0  0
  192.1230  176.5510  137.7400 C   0  0  0  0  0  3  0  0  0  0  0  0
  189.8290  175.4790  137.7690 C   0  0  0  0  0  0  0  0  0  0  0  0
  189.3800  174.2990  137.3850 O   0  0  0  0  0  0  0  0  0  0  0  0
  190.3860  173.5520  136.9570 C   0  0  0  0  0  3  0  0  0  0  0  0
  187.2150  176.1170  136.4480 C   0  0  0  0  0  2  0  0  0  0  0  0
  184.9670  173.3950  137.6260 C   0  0  0  0  0  2  0  0  0  0  0  0
  184.2380  173.0850  136.3160 C   0  0  0  0  0  0  0  0  0  0  0  0
  182.8490  172.5780  136.6430 C   0  0  0  0  0  1  0  0  0  0  0  0
  185.4520  175.0670  135.3300 C   0  0  0  0  0  2  0  0  0  0  0  0
  186.2560  174.1750  137.3680 C   0  0  0  0  0  2  0  0  0  0  0  0
  185.9560  175.4160  136.6550 N   0  0  0  0  0  0  0  0  0  0  0  0
  184.9760  171.9990  135.5500 C   0  0  0  0  0  1  0  0  0  0  0  0
  184.1090  174.3440  135.4540 C   0  0  0  0  0  2  0  0  0  0  0  0
  189.5540  177.4510  139.2360 C   0  0  0  0  0  2  0  0  0  0  0  0
  189.3690  176.9420  140.5360 O   0  0  0  0  0  0  0  0  0  0  0  0
  190.3040  177.5360  141.4150 C   0  0  2  0  0  3  0  0  0  0  0  0
  191.7510  177.2290  141.0440 C   0  0  0  0  0  1  0  0  0  0  0  0
  190.0240  177.2430  142.8900 C   0  0  0  0  0  2  0  0  0  0  0  0
  189.8490  178.4150  145.1420 N   0  0  0  0  0  2  0  0  0  0  0  0
  190.2280  178.4460  143.7650 C   0  0  0  0  0  0  0  0  0  0  0  0
  190.6840  179.5150  143.2810 O   0  0  0  0  0  0  0  0  0  0  0  0
  189.1870  177.2730  145.7610 C   0  0  1  0  0  3  0  0  0  0  0  0
  187.7750  177.5810  147.8980 C   0  0  0  0  0  2  0  0  0  0  0  0
  190.1160  176.6210  146.7870 C   0  0  0  0  0  2  0  0  0  0  0  0
  190.3180  177.5010  148.0270 C   0  0  0  0  0  2  0  0  0  0  0  0
  187.8400  177.7080  146.3740 C   0  0  2  0  0  3  0  0  0  0  0  0
  189.0320  178.1770  148.5240 C   0  0  0  0  0  2  0  0  0  0  0  0
  186.6470  177.0310  145.6960 C   0  0  0  0  0  2  0  0  0  0  0  0
  186.0370  177.8630  144.6140 C   0  0  0  0  0  0  0  0  0  0  0  0
  184.8840  179.4010  142.5790 C   0  0  0  0  0  3  0  0  0  0  0  0
  185.9180  178.5090  142.2800 C   0  0  0  0  0  3  0  0  0  0  0  0
  184.4260  179.5250  143.8940 C   0  0  0  0  0  3  0  0  0  0  0  0
  186.4940  177.7410  143.2960 C   0  0  0  0  0  3  0  0  0  0  0  0
  185.0020  178.7570  144.9110 C   0  0  0  0  0  3  0  0  0  0  0  0
  1 23  1  0  0  0  0
  2  3  2  0  0  0  0
  2  1  1  0  0  0  0
  4  6  1  0  0  0  0
  5  8  1  0  0  0  0
  6 10  2  0  0  0  0
  7  4  1  0  0  0  0
  8 10  1  0  0  0  0
  8 11  2  0  0  0  0
  9  4  2  0  0  0  0
  9  5  1  0  0  0  0
 11  1  1  0  0  0  0
 12 11  1  0  0  0  0
 13  5  2  0  0  0  0
 13 12  1  0  0  0  0
 14 20  1  0  0  0  0
 14  2  1  0  0  0  0
 16 17  1  0  0  0  0
 16 15  1  0  0  0  0
 18 22  1  0  0  0  0
 18 20  1  0  0  0  0
 19 15  1  0  0  0  0
 20 19  1  0  0  0  0
 21 16  1  0  0  0  0
 22 16  1  0  0  0  0
 23 24  1  0  0  0  0
 24 25  1  0  0  0  0
 25 26  1  6  0  0  0
 25 27  1  0  0  0  0
 27 29  1  0  0  0  0
 29 28  1  0  0  0  0
 30 29  2  0  0  0  0
 31 28  1  1  0  0  0
 31 35  1  0  0  0  0
 31 33  1  0  0  0  0
 32 36  1  0  0  0  0
 33 34  1  0  0  0  0
 34 36  1  0  0  0  0
 35 37  1  6  0  0  0
 35 32  1  0  0  0  0
 38 43  1  0  0  0  0
 38 37  1  0  0  0  0
 39 41  1  0  0  0  0
 40 39  2  0  0  0  0
 40 42  1  0  0  0  0
 41 43  2  0  0  0  0
 42 38  2  0  0  0  0
M  END
>  <MODEL>
6

>  <REMARK>
 VINA RESULT:      -8.8      2.359      5.979
  Name = 
  11 active torsions:
  status: ('A' for Active; 'I' for Inactive)
    1  A    between atoms: C_1  and  C_34
    2  A    between atoms: C_1  and  N_35
    3  A    between atoms: C_2  and  C_6
    4  A    between atoms: C_2  and  O_13
    5  A    between atoms: N_3  and  C_4
    6  A    between atoms: C_6  and  C_12
    7  A    between atoms: N_8  and  C_27
    8  A    between atoms: N_8  and  C_30
    9  A    between atoms: C_11  and  C_14
   10  A    between atoms: O_13  and  C_27
   11  A    between atoms: C_14  and  C_41
                            x       y       z     vdW  Elec       q    Type
                         _______ _______ _______ _____ _____    ______ ____

>  <TORSDO>
F 11

$$$$
=
 OpenBabel10272414393D

 43 47  0  0  1  0  0  0  0  0999 V2000
  187.8190  178.3440  141.3460 N   0  0  0  0  0  0  0  0  0  0  0  0
  188.0630  178.1940  139.9330 C   0  0  0  0  0  0  0  0  0  0  0  0
  187.1320  178.4140  139.1110 O   0  0  0  0  0  0  0  0  0  0  0  0
  188.8270  177.2890  146.3900 C   0  0  0  0  0  0  0  0  0  0  0  0
  189.8060  177.5290  144.2180 C   0  0  0  0  0  0  0  0  0  0  0  0
  187.5590  177.5660  145.8340 C   0  0  0  0  0  3  0  0  0  0  0  0
  188.9510  177.0240  147.8460 C   0  0  0  0  0  1  0  0  0  0  0  0
  188.5750  177.7740  143.6770 C   0  0  0  0  0  0  0  0  0  0  0  0
  189.9760  177.2760  145.5770 C   0  0  0  0  0  3  0  0  0  0  0  0
  187.4210  177.8200  144.4580 C   0  0  0  0  0  3  0  0  0  0  0  0
  188.7970  178.0050  142.3390 C   0  0  0  0  0  0  0  0  0  0  0  0
  190.0910  177.9180  142.0930 O   0  0  0  0  0  0  0  0  0  0  0  0
  190.7430  177.6240  143.2080 C   0  0  0  0  0  3  0  0  0  0  0  0
  189.4380  177.8920  139.4140 C   0  0  0  0  0  2  0  0  0  0  0  0
  190.4230  174.9190  137.4030 C   0  0  0  0  0  2  0  0  0  0  0  0
  190.6250  175.5900  136.0420 C   0  0  0  0  0  0  0  0  0  0  0  0
  190.3220  174.5810  134.9540 C   0  0  0  0  0  1  0  0  0  0  0  0
  189.7340  177.7010  137.1030 C   0  0  0  0  0  2  0  0  0  0  0  0
  190.4320  175.9500  138.5320 C   0  0  0  0  0  2  0  0  0  0  0  0
  189.3880  176.9490  138.3060 N   0  0  0  0  0  0  0  0  0  0  0  0
  192.0690  176.0400  135.8880 C   0  0  0  0  0  1  0  0  0  0  0  0
  189.6800  176.7840  135.8790 C   0  0  0  0  0  2  0  0  0  0  0  0
  186.5950  178.9940  141.8050 C   0  0  0  0  0  2  0  0  0  0  0  0
  185.5330  178.0700  141.8230 O   0  0  0  0  0  0  0  0  0  0  0  0
  184.3090  178.7480  141.6160 C   0  0  2  0  0  3  0  0  0  0  0  0
  183.4320  178.7880  142.8630 C   0  0  0  0  0  1  0  0  0  0  0  0
  183.5360  178.2490  140.3950 C   0  0  0  0  0  2  0  0  0  0  0  0
  182.8750  178.9500  138.0400 N   0  0  0  0  0  2  0  0  0  0  0  0
  183.6240  179.1930  139.2320 C   0  0  0  0  0  0  0  0  0  0  0  0
  184.4040  180.1820  139.2720 O   0  0  0  0  0  0  0  0  0  0  0  0
  182.0540  177.7620  137.8440 C   0  0  1  0  0  3  0  0  0  0  0  0
  182.2310  176.3950  135.6630 C   0  0  0  0  0  2  0  0  0  0  0  0
  180.7280  178.1450  137.1830 C   0  0  0  0  0  2  0  0  0  0  0  0
  180.9100  178.5720  135.7210 C   0  0  0  0  0  2  0  0  0  0  0  0
  182.8340  176.7040  137.0360 C   0  0  2  0  0  3  0  0  0  0  0  0
  181.8960  177.6940  134.9370 C   0  0  0  0  0  2  0  0  0  0  0  0
  183.0910  175.4300  137.8440 C   0  0  0  0  0  2  0  0  0  0  0  0
  184.4080  174.7930  137.5330 C   0  0  0  0  0  0  0  0  0  0  0  0
  186.8810  173.6110  136.9700 C   0  0  0  0  0  3  0  0  0  0  0  0
  186.7150  174.9900  136.8180 C   0  0  0  0  0  3  0  0  0  0  0  0
  185.8120  172.8210  137.4040 C   0  0  0  0  0  3  0  0  0  0  0  0
  185.4800  175.5820  137.0980 C   0  0  0  0  0  3  0  0  0  0  0  0
  184.5760  173.4120  137.6850 C   0  0  0  0  0  3  0  0  0  0  0  0
  1 23  1  0  0  0  0
  1 11  1  0  0  0  0
  2  1  1  0  0  0  0
  3  2  2  0  0  0  0
  4  7  1  0  0  0  0
  5  9  1  0  0  0  0
  6  4  1  0  0  0  0
  8  5  1  0  0  0  0
  8 10  1  0  0  0  0
  9  4  2  0  0  0  0
 10  6  2  0  0  0  0
 11  8  2  0  0  0  0
 12 11  1  0  0  0  0
 12 13  1  0  0  0  0
 13  5  2  0  0  0  0
 14  2  1  0  0  0  0
 15 19  1  0  0  0  0
 16 15  1  0  0  0  0
 17 16  1  0  0  0  0
 18 20  1  0  0  0  0
 20 19  1  0  0  0  0
 20 14  1  0  0  0  0
 21 16  1  0  0  0  0
 22 16  1  0  0  0  0
 22 18  1  0  0  0  0
 23 24  1  0  0  0  0
 25 24  1  0  0  0  0
 25 26  1  1  0  0  0
 27 25  1  0  0  0  0
 28 29  1  0  0  0  0
 29 30  2  0  0  0  0
 29 27  1  0  0  0  0
 31 28  1  6  0  0  0
 32 35  1  0  0  0  0
 33 31  1  0  0  0  0
 34 33  1  0  0  0  0
 35 37  1  1  0  0  0
 35 31  1  0  0  0  0
 36 32  1  0  0  0  0
 36 34  1  0  0  0  0
 38 43  1  0  0  0  0
 38 37  1  0  0  0  0
 39 41  1  0  0  0  0
 40 39  2  0  0  0  0
 40 42  1  0  0  0  0
 41 43  2  0  0  0  0
 42 38  2  0  0  0  0
M  END
>  <MODEL>
7

>  <REMARK>
 VINA RESULT:      -8.7      3.483      8.595
  Name = 
  11 active torsions:
  status: ('A' for Active; 'I' for Inactive)
    1  A    between atoms: C_1  and  C_34
    2  A    between atoms: C_1  and  N_35
    3  A    between atoms: C_2  and  C_6
    4  A    between atoms: C_2  and  O_13
    5  A    between atoms: N_3  and  C_4
    6  A    between atoms: C_6  and  C_12
    7  A    between atoms: N_8  and  C_27
    8  A    between atoms: N_8  and  C_30
    9  A    between atoms: C_11  and  C_14
   10  A    between atoms: O_13  and  C_27
   11  A    between atoms: C_14  and  C_41
                            x       y       z     vdW  Elec       q    Type
                         _______ _______ _______ _____ _____    ______ ____

>  <TORSDO>
F 11

$$$$
=
 OpenBabel10272414393D

 43 47  0  0  1  0  0  0  0  0999 V2000
  186.9710  178.1010  141.9790 N   0  0  0  0  0  0  0  0  0  0  0  0
  186.3300  178.6490  140.8100 C   0  0  0  0  0  0  0  0  0  0  0  0
  186.9250  178.6200  139.6980 O   0  0  0  0  0  0  0  0  0  0  0  0
  187.7150  177.7870  147.1670 C   0  0  0  0  0  0  0  0  0  0  0  0
  186.0920  178.1910  145.4540 C   0  0  0  0  0  0  0  0  0  0  0  0
  188.7030  177.6160  146.1710 C   0  0  0  0  0  3  0  0  0  0  0  0
  188.0830  177.6500  148.5990 C   0  0  0  0  0  1  0  0  0  0  0  0
  187.0530  178.0480  144.4930 C   0  0  0  0  0  0  0  0  0  0  0  0
  186.3840  178.0710  146.8110 C   0  0  0  0  0  3  0  0  0  0  0  0
  188.3750  177.7410  144.8100 C   0  0  0  0  0  3  0  0  0  0  0  0
  186.4000  178.2010  143.2910 C   0  0  0  0  0  0  0  0  0  0  0  0
  185.1170  178.4070  143.5180 O   0  0  0  0  0  0  0  0  0  0  0  0
  184.8860  178.4160  144.8220 C   0  0  0  0  0  3  0  0  0  0  0  0
  184.9160  179.1500  140.8670 C   0  0  0  0  0  2  0  0  0  0  0  0
  182.1830  178.8240  138.3620 C   0  0  0  0  0  2  0  0  0  0  0  0
  181.4850  177.5770  138.9110 C   0  0  0  0  0  0  0  0  0  0  0  0
  180.8410  176.8350  137.7580 C   0  0  0  0  0  1  0  0  0  0  0  0
  183.3790  177.4140  140.5720 C   0  0  0  0  0  2  0  0  0  0  0  0
  183.0880  179.4580  139.4190 C   0  0  0  0  0  2  0  0  0  0  0  0
  184.0820  178.4870  139.8750 N   0  0  0  0  0  0  0  0  0  0  0  0
  180.3940  177.9750  139.8920 C   0  0  0  0  0  1  0  0  0  0  0  0
  182.4920  176.6450  139.5910 C   0  0  0  0  0  2  0  0  0  0  0  0
  188.1760  177.2900  141.8300 C   0  0  0  0  0  2  0  0  0  0  0  0
  189.2440  178.0880  141.3770 O   0  0  0  0  0  0  0  0  0  0  0  0
  190.2070  177.2730  140.7370 C   0  0  2  0  0  3  0  0  0  0  0  0
  191.5940  177.3890  141.3570 C   0  0  0  0  0  1  0  0  0  0  0  0
  190.2480  177.4600  139.2190 C   0  0  0  0  0  2  0  0  0  0  0  0
  189.1850  175.8930  137.5190 N   0  0  0  0  0  2  0  0  0  0  0  0
  190.2110  176.1550  138.4770 C   0  0  0  0  0  0  0  0  0  0  0  0
  191.0540  175.2540  138.7330 O   0  0  0  0  0  0  0  0  0  0  0  0
  188.0870  176.8140  137.2550 C   0  0  1  0  0  3  0  0  0  0  0  0
  186.6770  176.5870  135.1060 C   0  0  0  0  0  2  0  0  0  0  0  0
  188.5980  178.0270  136.4740 C   0  0  0  0  0  2  0  0  0  0  0  0
  188.9830  177.6690  135.0320 C   0  0  0  0  0  2  0  0  0  0  0  0
  186.9410  176.0810  136.5270 C   0  0  2  0  0  3  0  0  0  0  0  0
  187.9940  176.7150  134.3460 C   0  0  0  0  0  2  0  0  0  0  0  0
  185.6600  176.0350  137.3610 C   0  0  0  0  0  2  0  0  0  0  0  0
  184.8400  174.8100  137.1100 C   0  0  0  0  0  0  0  0  0  0  0  0
  183.3000  172.5160  136.6630 C   0  0  0  0  0  3  0  0  0  0  0  0
  184.5160  172.4190  137.3440 C   0  0  0  0  0  3  0  0  0  0  0  0
  182.8520  173.7590  136.2040 C   0  0  0  0  0  3  0  0  0  0  0  0
  185.2860  173.5640  137.5680 C   0  0  0  0  0  3  0  0  0  0  0  0
  183.6210  174.9050  136.4270 C   0  0  0  0  0  3  0  0  0  0  0  0
  1 11  1  0  0  0  0
  2 14  1  0  0  0  0
  2  1  1  0  0  0  0
  3  2  2  0  0  0  0
  4  7  1  0  0  0  0
  5  9  1  0  0  0  0
  6  4  1  0  0  0  0
  8 10  1  0  0  0  0
  8  5  1  0  0  0  0
  9  4  2  0  0  0  0
 10  6  2  0  0  0  0
 11 12  1  0  0  0  0
 11  8  2  0  0  0  0
 12 13  1  0  0  0  0
 13  5  2  0  0  0  0
 15 16  1  0  0  0  0
 15 19  1  0  0  0  0
 16 22  1  0  0  0  0
 16 21  1  0  0  0  0
 17 16  1  0  0  0  0
 19 20  1  0  0  0  0
 20 18  1  0  0  0  0
 20 14  1  0  0  0  0
 22 18  1  0  0  0  0
 23  1  1  0  0  0  0
 24 23  1  0  0  0  0
 25 26  1  1  0  0  0
 25 24  1  0  0  0  0
 27 25  1  0  0  0  0
 28 29  1  0  0  0  0
 29 30  2  0  0  0  0
 29 27  1  0  0  0  0
 31 28  1  6  0  0  0
 32 35  1  0  0  0  0
 33 31  1  0  0  0  0
 34 33  1  0  0  0  0
 35 31  1  0  0  0  0
 35 37  1  1  0  0  0
 36 34  1  0  0  0  0
 36 32  1  0  0  0  0
 38 37  1  0  0  0  0
 38 42  1  0  0  0  0
 39 40  1  0  0  0  0
 40 42  2  0  0  0  0
 41 43  1  0  0  0  0
 41 39  2  0  0  0  0
 43 38  2  0  0  0  0
M  END
>  <MODEL>
8

>  <REMARK>
 VINA RESULT:      -8.6      3.472     10.253
  Name = 
  11 active torsions:
  status: ('A' for Active; 'I' for Inactive)
    1  A    between atoms: C_1  and  C_34
    2  A    between atoms: C_1  and  N_35
    3  A    between atoms: C_2  and  C_6
    4  A    between atoms: C_2  and  O_13
    5  A    between atoms: N_3  and  C_4
    6  A    between atoms: C_6  and  C_12
    7  A    between atoms: N_8  and  C_27
    8  A    between atoms: N_8  and  C_30
    9  A    between atoms: C_11  and  C_14
   10  A    between atoms: O_13  and  C_27
   11  A    between atoms: C_14  and  C_41
                            x       y       z     vdW  Elec       q    Type
                         _______ _______ _______ _____ _____    ______ ____

>  <TORSDO>
F 11

$$$$
=
 OpenBabel10272414393D

 43 47  0  0  1  0  0  0  0  0999 V2000
  184.7600  176.8780  136.5030 N   0  0  0  0  0  0  0  0  0  0  0  0
  184.7090  175.6250  135.7920 C   0  0  0  0  0  0  0  0  0  0  0  0
  185.7640  175.1440  135.2950 O   0  0  0  0  0  0  0  0  0  0  0  0
  181.9450  178.3830  140.6720 C   0  0  0  0  0  0  0  0  0  0  0  0
  182.0220  178.3650  138.2790 C   0  0  0  0  0  0  0  0  0  0  0  0
  183.1890  177.7150  140.7030 C   0  0  0  0  0  3  0  0  0  0  0  0
  181.2620  178.7280  141.9450 C   0  0  0  0  0  1  0  0  0  0  0  0
  183.2370  177.7390  138.3110 C   0  0  0  0  0  0  0  0  0  0  0  0
  181.3410  178.7100  139.4440 C   0  0  0  0  0  3  0  0  0  0  0  0
  183.8500  177.3780  139.5090 C   0  0  0  0  0  3  0  0  0  0  0  0
  183.5840  177.5350  136.9950 C   0  0  0  0  0  0  0  0  0  0  0  0
  182.6230  177.9980  136.2170 O   0  0  0  0  0  0  0  0  0  0  0  0
  181.6550  178.5180  136.9570 C   0  0  0  0  0  3  0  0  0  0  0  0
  183.4420  174.8230  135.7290 C   0  0  0  0  0  2  0  0  0  0  0  0
  183.5610  171.3050  134.5200 C   0  0  0  0  0  2  0  0  0  0  0  0
  182.8540  170.6120  135.6880 C   0  0  0  0  0  0  0  0  0  0  0  0
  183.3870  169.2000  135.8070 C   0  0  0  0  0  1  0  0  0  0  0  0
  182.8760  172.8520  136.8520 C   0  0  0  0  0  2  0  0  0  0  0  0
  183.2850  172.8090  134.5230 C   0  0  0  0  0  2  0  0  0  0  0  0
  183.7190  173.3950  135.7910 N   0  0  0  0  0  0  0  0  0  0  0  0
  181.3580  170.5390  135.4260 C   0  0  0  0  0  1  0  0  0  0  0  0
  183.1250  171.3500  137.0020 C   0  0  0  0  0  2  0  0  0  0  0  0
  186.0520  177.4490  136.8720 C   0  0  0  0  0  2  0  0  0  0  0  0
  186.6860  176.6340  137.8300 O   0  0  0  0  0  0  0  0  0  0  0  0
  188.0890  176.7220  137.6730 C   0  0  2  0  0  3  0  0  0  0  0  0
  188.6540  175.6510  136.7470 C   0  0  0  0  0  1  0  0  0  0  0  0
  188.8460  176.7790  139.0010 C   0  0  0  0  0  2  0  0  0  0  0  0
  189.1460  178.3680  140.9660 N   0  0  0  0  0  2  0  0  0  0  0  0
  188.9000  178.1660  139.5740 C   0  0  0  0  0  0  0  0  0  0  0  0
  188.6730  179.1660  138.8420 O   0  0  0  0  0  0  0  0  0  0  0  0
  189.2830  177.2720  141.9180 C   0  0  1  0  0  3  0  0  0  0  0  0
  189.7060  177.7560  144.4170 C   0  0  0  0  0  2  0  0  0  0  0  0
  190.7500  176.8510  142.0240 C   0  0  0  0  0  2  0  0  0  0  0  0
  191.6080  177.9090  142.7290 C   0  0  0  0  0  2  0  0  0  0  0  0
  188.6820  177.6740  143.2810 C   0  0  2  0  0  3  0  0  0  0  0  0
  190.9330  178.5370  143.9570 C   0  0  0  0  0  2  0  0  0  0  0  0
  187.4780  176.8110  143.6620 C   0  0  0  0  0  2  0  0  0  0  0  0
  186.3670  177.5950  144.2850 C   0  0  0  0  0  0  0  0  0  0  0  0
  184.3030  179.0780  145.4560 C   0  0  0  0  0  3  0  0  0  0  0  0
  185.2300  178.4130  146.2630 C   0  0  0  0  0  3  0  0  0  0  0  0
  184.4060  179.0030  144.0640 C   0  0  0  0  0  3  0  0  0  0  0  0
  186.2610  177.6720  145.6790 C   0  0  0  0  0  3  0  0  0  0  0  0
  185.4370  178.2620  143.4790 C   0  0  0  0  0  3  0  0  0  0  0  0
  1 23  1  0  0  0  0
  1 11  1  0  0  0  0
  2  1  1  0  0  0  0
  3  2  2  0  0  0  0
  4  6  1  0  0  0  0
  4  7  1  0  0  0  0
  5  8  1  0  0  0  0
  5  9  1  0  0  0  0
  8 10  1  0  0  0  0
  9  4  2  0  0  0  0
 10  6  2  0  0  0  0
 11  8  2  0  0  0  0
 12 13  1  0  0  0  0
 12 11  1  0  0  0  0
 13  5  2  0  0  0  0
 14 20  1  0  0  0  0
 14  2  1  0  0  0  0
 15 19  1  0  0  0  0
 15 16  1  0  0  0  0
 16 17  1  0  0  0  0
 16 22  1  0  0  0  0
 18 22  1  0  0  0  0
 19 20  1  0  0  0  0
 20 18  1  0  0  0  0
 21 16  1  0  0  0  0
 23 24  1  0  0  0  0
 25 26  1  1  0  0  0
 25 24  1  0  0  0  0
 25 27  1  0  0  0  0
 27 29  1  0  0  0  0
 29 28  1  0  0  0  0
 30 29  2  0  0  0  0
 31 28  1  6  0  0  0
 31 33  1  0  0  0  0
 31 35  1  0  0  0  0
 33 34  1  0  0  0  0
 34 36  1  0  0  0  0
 35 37  1  1  0  0  0
 35 32  1  0  0  0  0
 36 32  1  0  0  0  0
 37 38  1  0  0  0  0
 38 42  1  0  0  0  0
 39 40  1  0  0  0  0
 41 39  2  0  0  0  0
 42 40  2  0  0  0  0
 43 41  1  0  0  0  0
 43 38  2  0  0  0  0
M  END
>  <MODEL>
9

>  <REMARK>
 VINA RESULT:      -8.6      4.410      8.090
  Name = 
  11 active torsions:
  status: ('A' for Active; 'I' for Inactive)
    1  A    between atoms: C_1  and  C_34
    2  A    between atoms: C_1  and  N_35
    3  A    between atoms: C_2  and  C_6
    4  A    between atoms: C_2  and  O_13
    5  A    between atoms: N_3  and  C_4
    6  A    between atoms: C_6  and  C_12
    7  A    between atoms: N_8  and  C_27
    8  A    between atoms: N_8  and  C_30
    9  A    between atoms: C_11  and  C_14
   10  A    between atoms: O_13  and  C_27
   11  A    between atoms: C_14  and  C_41
                            x       y       z     vdW  Elec       q    Type
                         _______ _______ _______ _____ _____    ______ ____

>  <TORSDO>
F 11

$$$$
