=
 OpenBabel10272401113D

 27 32  0  0  1  0  0  0  0  0999 V2000
  190.6910  177.0250  139.8910 C   0  0  2  0  0  3  0  0  0  0  0  0
  189.3940  177.3420  139.2010 C   0  0  0  0  0  0  0  0  0  0  0  0
  190.4140  175.8500  137.8270 C   0  0  2  0  0  0  0  0  0  0  0  0
  185.8400  177.5730  137.4240 N   0  0  0  0  0  0  0  0  0  0  0  0
  185.5170  177.2920  135.0310 C   0  0  0  0  0  1  0  0  0  0  0  0
  188.4400  178.3830  139.6370 C   0  0  0  0  0  3  0  0  0  0  0  0
  187.2730  175.6320  136.3270 S   0  0  0  0  0  0  0  0  0  0  0  0
  193.1470  176.3320  137.2040 C   0  0  0  0  0  0  0  0  0  0  0  0
  190.2550  174.4610  137.2650 C   0  0  0  0  0  2  0  0  0  0  0  0
  194.3370  176.8730  136.7330 O   0  0  0  0  0  1  0  0  0  0  0  0
  188.1250  177.0400  137.1010 C   0  0  1  0  0  3  0  0  0  0  0  0
  185.7150  176.5900  136.3620 C   0  0  1  0  0  3  0  0  0  0  0  0
  187.0500  177.8010  137.8010 C   0  0  0  0  0  0  0  0  0  0  0  0
  191.4240  176.0460  138.9540 C   0  0  1  0  0  3  0  0  0  0  0  0
  189.2010  176.6510  138.0830 C   0  0  0  0  0  0  0  0  0  0  0  0
  192.3920  175.3650  136.3330 C   0  0  0  0  0  2  0  0  0  0  0  0
  187.3350  178.5750  138.9750 N   0  0  0  0  0  0  0  0  0  0  0  0
  193.4540  177.4920  139.2380 O   0  0  0  0  0  1  0  0  0  0  0  0
  192.7040  176.6450  138.4280 C   0  0  0  0  0  0  0  0  0  0  0  0
  190.8760  175.5720  136.4050 C   0  0  2  0  0  3  0  0  0  0  0  0
  190.4580  176.3960  141.2660 C   0  0  0  0  0  2  0  0  0  0  0  0
  190.1110  178.3240  144.9980 C   0  0  0  0  0  2  0  0  0  0  0  0
  190.1050  177.4030  142.2570 N   0  0  0  0  0  0  0  0  0  0  0  0
  191.3500  177.8350  142.8910 C   0  0  0  0  0  2  0  0  0  0  0  0
  191.0520  178.9000  143.9440 C   0  0  0  0  0  2  0  0  0  0  0  0
  188.8640  177.7440  144.3370 C   0  0  0  0  0  2  0  0  0  0  0  0
  189.2770  176.7410  143.2630 C   0  0  0  0  0  2  0  0  0  0  0  0
  1 21  1  1  0  0  0
  2  6  1  0  0  0  0
  2  1  1  0  0  0  0
  3  9  1  1  0  0  0
  3 15  1  0  0  0  0
  3 14  1  0  0  0  0
  4 13  2  0  0  0  0
  7 12  1  0  0  0  0
  8 19  2  0  0  0  0
 10  8  1  0  0  0  0
 11  7  1  1  0  0  0
 11 13  1  0  0  0  0
 11 15  1  0  0  0  0
 12  5  1  6  0  0  0
 12  4  1  0  0  0  0
 13 17  1  0  0  0  0
 14 19  1  6  0  0  0
 14  1  1  0  0  0  0
 15  2  2  0  0  0  0
 16  8  1  0  0  0  0
 17  6  2  0  0  0  0
 19 18  1  0  0  0  0
 20 16  1  1  0  0  0
 20  9  1  0  0  0  0
 20  3  1  0  0  0  0
 21 23  1  0  0  0  0
 23 24  1  0  0  0  0
 23 27  1  0  0  0  0
 24 25  1  0  0  0  0
 25 22  1  0  0  0  0
 26 22  1  0  0  0  0
 27 26  1  0  0  0  0
M  END
>  <MODEL>
1

>  <REMARK>
 VINA RESULT:      -8.1      0.000      0.000
  Name = 
  2 active torsions:
  status: ('A' for Active; 'I' for Inactive)
    1  A    between atoms: C_1  and  C_15
    2  A    between atoms: N_9  and  C_15
                            x       y       z     vdW  Elec       q    Type
                         _______ _______ _______ _____ _____    ______ ____

>  <TORSDO>
F 2

$$$$
=
 OpenBabel10272401113D

 27 32  0  0  1  0  0  0  0  0999 V2000
  184.9850  178.5780  142.7560 C   0  0  2  0  0  3  0  0  0  0  0  0
  186.2840  178.4700  142.0070 C   0  0  0  0  0  0  0  0  0  0  0  0
  186.7320  177.5740  144.0440 C   0  0  2  0  0  0  0  0  0  0  0  0
  189.6690  177.5720  140.1160 N   0  0  0  0  0  0  0  0  0  0  0  0
  191.8250  177.4130  141.2300 C   0  0  0  0  0  1  0  0  0  0  0  0
  186.5390  179.0550  140.6730 C   0  0  0  0  0  3  0  0  0  0  0  0
  189.6150  176.3830  142.4840 S   0  0  0  0  0  0  0  0  0  0  0  0
  185.8870  179.0590  146.3180 C   0  0  0  0  0  0  0  0  0  0  0  0
  187.1250  176.2790  144.7050 C   0  0  0  0  0  2  0  0  0  0  0  0
  185.7260  180.0310  147.2980 O   0  0  0  0  0  1  0  0  0  0  0  0
  188.6840  177.9250  142.2410 C   0  0  1  0  0  3  0  0  0  0  0  0
  190.5140  176.7100  140.9250 C   0  0  1  0  0  3  0  0  0  0  0  0
  188.7460  178.1830  140.7730 C   0  0  0  0  0  0  0  0  0  0  0  0
  185.2770  178.0160  144.1610 C   0  0  1  0  0  3  0  0  0  0  0  0
  187.2460  177.8600  142.6900 C   0  0  0  0  0  0  0  0  0  0  0  0
  186.9010  177.9690  146.5330 C   0  0  0  0  0  2  0  0  0  0  0  0
  187.6970  178.8980  140.1020 N   0  0  0  0  0  0  0  0  0  0  0  0
  184.1470  180.0610  145.0740 O   0  0  0  0  0  1  0  0  0  0  0  0
  185.1220  179.0790  145.2190 C   0  0  0  0  0  0  0  0  0  0  0  0
  187.6580  177.6120  145.2500 C   0  0  2  0  0  3  0  0  0  0  0  0
  183.8720  177.7840  142.0690 C   0  0  0  0  0  2  0  0  0  0  0  0
  179.9850  179.0860  141.0880 C   0  0  0  0  0  2  0  0  0  0  0  0
  182.7940  178.6580  141.6270 N   0  0  0  0  0  0  0  0  0  0  0  0
  181.8320  178.7410  142.7260 C   0  0  0  0  0  2  0  0  0  0  0  0
  180.6710  179.6490  142.3300 C   0  0  0  0  0  2  0  0  0  0  0  0
  181.0030  178.8640  139.9730 C   0  0  0  0  0  2  0  0  0  0  0  0
  182.1470  177.9970  140.4940 C   0  0  0  0  0  2  0  0  0  0  0  0
  1 21  1  6  0  0  0
  1 14  1  0  0  0  0
  2 15  2  0  0  0  0
  2  1  1  0  0  0  0
  3 14  1  0  0  0  0
  3  9  1  6  0  0  0
  3 20  1  0  0  0  0
  4 13  2  0  0  0  0
  4 12  1  0  0  0  0
  6  2  1  0  0  0  0
  8 16  1  0  0  0  0
  8 10  1  0  0  0  0
 11 13  1  6  0  0  0
 11  7  1  0  0  0  0
 11 15  1  0  0  0  0
 12  5  1  1  0  0  0
 12  7  1  0  0  0  0
 14 19  1  1  0  0  0
 15  3  1  0  0  0  0
 17  6  2  0  0  0  0
 17 13  1  0  0  0  0
 18 19  1  0  0  0  0
 19  8  2  0  0  0  0
 20  9  1  1  0  0  0
 20 16  1  0  0  0  0
 22 25  1  0  0  0  0
 23 21  1  0  0  0  0
 23 24  1  0  0  0  0
 25 24  1  0  0  0  0
 26 27  1  0  0  0  0
 26 22  1  0  0  0  0
 27 23  1  0  0  0  0
M  END
>  <MODEL>
2

>  <REMARK>
 VINA RESULT:      -7.8      5.182      8.364
  Name = 
  2 active torsions:
  status: ('A' for Active; 'I' for Inactive)
    1  A    between atoms: C_1  and  C_15
    2  A    between atoms: N_9  and  C_15
                            x       y       z     vdW  Elec       q    Type
                         _______ _______ _______ _____ _____    ______ ____

>  <TORSDO>
F 2

$$$$
=
 OpenBabel10272401113D

 27 32  0  0  1  0  0  0  0  0999 V2000
  187.8610  177.7480  143.4940 C   0  0  2  0  0  3  0  0  0  0  0  0
  187.4020  178.0660  142.0980 C   0  0  0  0  0  0  0  0  0  0  0  0
  189.5280  177.3130  141.8360 C   0  0  2  0  0  0  0  0  0  0  0  0
  186.2970  178.3070  138.2820 N   0  0  0  0  0  0  0  0  0  0  0  0
  187.8400  178.8040  136.4690 C   0  0  0  0  0  1  0  0  0  0  0  0
  186.1250  178.7300  141.7610 C   0  0  0  0  0  3  0  0  0  0  0  0
  188.6550  177.1110  138.4650 S   0  0  0  0  0  0  0  0  0  0  0  0
  191.5060  178.4120  143.5580 C   0  0  0  0  0  0  0  0  0  0  0  0
  190.3150  176.1900  141.2120 C   0  0  0  0  0  2  0  0  0  0  0  0
  192.3850  179.2650  144.2150 O   0  0  0  0  0  1  0  0  0  0  0  0
  188.1540  178.2910  139.7530 C   0  0  1  0  0  3  0  0  0  0  0  0
  187.3030  177.7340  137.4030 C   0  0  1  0  0  3  0  0  0  0  0  0
  186.7200  178.5870  139.4650 C   0  0  0  0  0  0  0  0  0  0  0  0
  189.3200  177.2770  143.3470 C   0  0  1  0  0  3  0  0  0  0  0  0
  188.2970  177.7720  141.1620 C   0  0  0  0  0  0  0  0  0  0  0  0
  191.9760  177.6880  142.3270 C   0  0  0  0  0  2  0  0  0  0  0  0
  185.8140  178.9530  140.5160 N   0  0  0  0  0  0  0  0  0  0  0  0
  189.8840  178.8490  145.2190 O   0  0  0  0  0  1  0  0  0  0  0  0
  190.2720  178.2160  144.0420 C   0  0  0  0  0  0  0  0  0  0  0  0
  190.8960  177.6110  141.2430 C   0  0  2  0  0  3  0  0  0  0  0  0
  186.9950  176.6620  144.1360 C   0  0  0  0  0  2  0  0  0  0  0  0
  185.9720  179.2340  147.3150 C   0  0  0  0  0  2  0  0  0  0  0  0
  186.4060  177.1240  145.3850 N   0  0  0  0  0  0  0  0  0  0  0  0
  185.5490  178.2640  145.0590 C   0  0  0  0  0  2  0  0  0  0  0  0
  184.8930  178.7980  146.3290 C   0  0  0  0  0  2  0  0  0  0  0  0
  186.9570  178.0940  147.5620 C   0  0  0  0  0  2  0  0  0  0  0  0
  187.5040  177.5960  146.2270 C   0  0  0  0  0  2  0  0  0  0  0  0
  1 21  1  6  0  0  0
  2  1  1  0  0  0  0
  3  9  1  6  0  0  0
  3 14  1  0  0  0  0
  4 13  2  0  0  0  0
  6  2  1  0  0  0  0
  8 19  2  0  0  0  0
  8 10  1  0  0  0  0
 11  7  1  6  0  0  0
 11 15  1  0  0  0  0
 12  5  1  6  0  0  0
 12  4  1  0  0  0  0
 12  7  1  0  0  0  0
 13 11  1  0  0  0  0
 13 17  1  0  0  0  0
 14  1  1  0  0  0  0
 14 19  1  1  0  0  0
 15  3  1  0  0  0  0
 15  2  2  0  0  0  0
 16  8  1  0  0  0  0
 17  6  2  0  0  0  0
 19 18  1  0  0  0  0
 20  9  1  6  0  0  0
 20  3  1  0  0  0  0
 20 16  1  0  0  0  0
 21 23  1  0  0  0  0
 22 26  1  0  0  0  0
 23 27  1  0  0  0  0
 24 23  1  0  0  0  0
 24 25  1  0  0  0  0
 25 22  1  0  0  0  0
 27 26  1  0  0  0  0
M  END
>  <MODEL>
3

>  <REMARK>
 VINA RESULT:      -7.8      3.212      4.749
  Name = 
  2 active torsions:
  status: ('A' for Active; 'I' for Inactive)
    1  A    between atoms: C_1  and  C_15
    2  A    between atoms: N_9  and  C_15
                            x       y       z     vdW  Elec       q    Type
                         _______ _______ _______ _____ _____    ______ ____

>  <TORSDO>
F 2

$$$$
=
 OpenBabel10272401113D

 27 32  0  0  1  0  0  0  0  0999 V2000
  188.3220  178.0420  142.2110 C   0  0  2  0  0  3  0  0  0  0  0  0
  189.3640  178.0070  143.2950 C   0  0  0  0  0  0  0  0  0  0  0  0
  187.4190  177.5270  144.3650 C   0  0  2  0  0  0  0  0  0  0  0  0
  191.9440  177.3230  146.2470 N   0  0  0  0  0  0  0  0  0  0  0  0
  191.4140  177.6630  148.5960 C   0  0  0  0  0  1  0  0  0  0  0  0
  190.7780  178.4010  143.1190 C   0  0  0  0  0  3  0  0  0  0  0  0
  189.5180  176.5350  146.9680 S   0  0  0  0  0  0  0  0  0  0  0  0
  185.1980  179.2180  143.8210 C   0  0  0  0  0  0  0  0  0  0  0  0
  186.7330  176.4260  145.1310 C   0  0  0  0  0  2  0  0  0  0  0  0
  184.3340  180.3010  143.7200 O   0  0  0  0  0  1  0  0  0  0  0  0
  189.6940  177.8650  145.7410 C   0  0  1  0  0  3  0  0  0  0  0  0
  191.2840  176.7360  147.4010 C   0  0  1  0  0  3  0  0  0  0  0  0
  191.1490  177.8900  145.4090 C   0  0  0  0  0  0  0  0  0  0  0  0
  186.9840  177.7630  142.9220 C   0  0  1  0  0  3  0  0  0  0  0  0
  188.8850  177.6630  144.4850 C   0  0  0  0  0  0  0  0  0  0  0  0
  185.1250  178.3380  145.0390 C   0  0  0  0  0  2  0  0  0  0  0  0
  191.6060  178.3250  144.1200 N   0  0  0  0  0  0  0  0  0  0  0  0
  186.0600  179.7400  141.6850 O   0  0  0  0  0  1  0  0  0  0  0  0
  186.0570  178.9480  142.8290 C   0  0  0  0  0  0  0  0  0  0  0  0
  186.5070  177.8930  145.5250 C   0  0  2  0  0  3  0  0  0  0  0  0
  188.5980  176.9940  141.1320 C   0  0  0  0  0  2  0  0  0  0  0  0
  189.7310  177.6500  137.1250 C   0  0  0  0  0  2  0  0  0  0  0  0
  189.2640  177.5830  139.9780 N   0  0  0  0  0  0  0  0  0  0  0  0
  188.2160  178.0380  139.0660 C   0  0  0  0  0  2  0  0  0  0  0  0
  188.8460  178.6740  137.8290 C   0  0  0  0  0  2  0  0  0  0  0  0
  190.7450  177.0620  138.1030 C   0  0  0  0  0  2  0  0  0  0  0  0
  190.0140  176.5120  139.3250 C   0  0  0  0  0  2  0  0  0  0  0  0
  1 21  1  6  0  0  0
  1 14  1  0  0  0  0
  1  2  1  0  0  0  0
  2 15  2  0  0  0  0
  3 15  1  0  0  0  0
  3  9  1  1  0  0  0
  3 20  1  0  0  0  0
  4 12  1  0  0  0  0
  6  2  1  0  0  0  0
  6 17  2  0  0  0  0
  7 12  1  0  0  0  0
  8 16  1  0  0  0  0
  9 20  1  0  0  0  0
 10  8  1  0  0  0  0
 11 15  1  6  0  0  0
 11  7  1  0  0  0  0
 12  5  1  1  0  0  0
 13 11  1  0  0  0  0
 13  4  2  0  0  0  0
 14 19  1  1  0  0  0
 14  3  1  0  0  0  0
 17 13  1  0  0  0  0
 18 19  1  0  0  0  0
 19  8  2  0  0  0  0
 20 16  1  6  0  0  0
 22 25  1  0  0  0  0
 22 26  1  0  0  0  0
 23 21  1  0  0  0  0
 24 23  1  0  0  0  0
 25 24  1  0  0  0  0
 26 27  1  0  0  0  0
 27 23  1  0  0  0  0
M  END
>  <MODEL>
4

>  <REMARK>
 VINA RESULT:      -7.4      4.024      8.426
  Name = 
  2 active torsions:
  status: ('A' for Active; 'I' for Inactive)
    1  A    between atoms: C_1  and  C_15
    2  A    between atoms: N_9  and  C_15
                            x       y       z     vdW  Elec       q    Type
                         _______ _______ _______ _____ _____    ______ ____

>  <TORSDO>
F 2

$$$$
=
 OpenBabel10272401113D

 27 32  0  0  1  0  0  0  0  0999 V2000
  187.5770  178.1450  141.8290 C   0  0  2  0  0  3  0  0  0  0  0  0
  187.8970  177.6820  143.2230 C   0  0  0  0  0  0  0  0  0  0  0  0
  189.9210  177.8650  142.2100 C   0  0  2  0  0  0  0  0  0  0  0  0
  189.0760  176.9820  146.9600 N   0  0  0  0  0  0  0  0  0  0  0  0
  191.1320  175.8110  147.5190 C   0  0  0  0  0  1  0  0  0  0  0  0
  186.8920  177.2770  144.2290 C   0  0  0  0  0  3  0  0  0  0  0  0
  191.1650  177.6190  145.4590 S   0  0  0  0  0  0  0  0  0  0  0  0
  190.1830  176.6880  139.6340 C   0  0  0  0  0  0  0  0  0  0  0  0
  191.2110  178.6390  142.2800 C   0  0  0  0  0  2  0  0  0  0  0  0
  190.2520  175.7970  138.5700 O   0  0  0  0  0  1  0  0  0  0  0  0
  189.7120  176.8510  144.6820 C   0  0  1  0  0  3  0  0  0  0  0  0
  190.5140  177.1320  147.0970 C   0  0  1  0  0  3  0  0  0  0  0  0
  188.6670  176.8420  145.7470 C   0  0  0  0  0  0  0  0  0  0  0  0
  188.9340  178.2330  141.1060 C   0  0  1  0  0  3  0  0  0  0  0  0
  189.1990  177.5800  143.4660 C   0  0  0  0  0  0  0  0  0  0  0  0
  191.4450  177.0390  140.3740 C   0  0  0  0  0  2  0  0  0  0  0  0
  187.2720  176.8990  145.4150 N   0  0  0  0  0  0  0  0  0  0  0  0
  187.8720  176.9580  139.2250 O   0  0  0  0  0  1  0  0  0  0  0  0
  189.0130  177.2500  139.9670 C   0  0  0  0  0  0  0  0  0  0  0  0
  191.2260  177.1550  141.8850 C   0  0  2  0  0  3  0  0  0  0  0  0
  186.8700  179.5020  141.8360 C   0  0  0  0  0  2  0  0  0  0  0  0
  183.3280  177.7670  140.3490 C   0  0  0  0  0  2  0  0  0  0  0  0
  185.5130  179.3950  141.3170 N   0  0  0  0  0  0  0  0  0  0  0  0
  184.7710  178.5300  142.2330 C   0  0  0  0  0  2  0  0  0  0  0  0
  183.3310  178.3770  141.7480 C   0  0  0  0  0  2  0  0  0  0  0  0
  184.2110  178.5840  139.4110 C   0  0  0  0  0  2  0  0  0  0  0  0
  185.6040  178.7260  140.0200 C   0  0  0  0  0  2  0  0  0  0  0  0
  1 21  1  1  0  0  0
  1  2  1  0  0  0  0
  2 15  2  0  0  0  0
  2  6  1  0  0  0  0
  3  9  1  1  0  0  0
  3 15  1  0  0  0  0
  4 12  1  0  0  0  0
  6 17  2  0  0  0  0
  7 12  1  0  0  0  0
  8 19  2  0  0  0  0
  8 16  1  0  0  0  0
 10  8  1  0  0  0  0
 11 15  1  6  0  0  0
 11  7  1  0  0  0  0
 11 13  1  0  0  0  0
 12  5  1  6  0  0  0
 13  4  2  0  0  0  0
 14 19  1  6  0  0  0
 14  1  1  0  0  0  0
 14  3  1  0  0  0  0
 17 13  1  0  0  0  0
 18 19  1  0  0  0  0
 20 16  1  6  0  0  0
 20  3  1  0  0  0  0
 20  9  1  0  0  0  0
 22 25  1  0  0  0  0
 23 21  1  0  0  0  0
 23 24  1  0  0  0  0
 25 24  1  0  0  0  0
 26 27  1  0  0  0  0
 26 22  1  0  0  0  0
 27 23  1  0  0  0  0
M  END
>  <MODEL>
5

>  <REMARK>
 VINA RESULT:      -6.3      3.563      6.967
  Name = 
  2 active torsions:
  status: ('A' for Active; 'I' for Inactive)
    1  A    between atoms: C_1  and  C_15
    2  A    between atoms: N_9  and  C_15
                            x       y       z     vdW  Elec       q    Type
                         _______ _______ _______ _____ _____    ______ ____

>  <TORSDO>
F 2

$$$$
=
 OpenBabel10272401113D

 27 32  0  0  1  0  0  0  0  0999 V2000
  190.3700  176.8130  143.3670 C   0  0  2  0  0  3  0  0  0  0  0  0
  188.9220  177.0570  143.6910 C   0  0  0  0  0  0  0  0  0  0  0  0
  190.0210  177.5340  145.6200 C   0  0  2  0  0  0  0  0  0  0  0  0
  185.2670  178.2870  144.6760 N   0  0  0  0  0  0  0  0  0  0  0  0
  184.3940  178.2110  146.9440 C   0  0  0  0  0  1  0  0  0  0  0  0
  187.7920  176.7420  142.7920 C   0  0  0  0  0  3  0  0  0  0  0  0
  186.9950  178.9900  146.5590 S   0  0  0  0  0  0  0  0  0  0  0  0
  191.9470  175.6380  146.5080 C   0  0  0  0  0  0  0  0  0  0  0  0
  190.3180  178.6730  146.5600 C   0  0  0  0  0  2  0  0  0  0  0  0
  192.5820  174.4940  146.9750 O   0  0  0  0  0  1  0  0  0  0  0  0
  187.3420  177.5310  145.5330 C   0  0  1  0  0  3  0  0  0  0  0  0
  185.2670  178.9680  145.9590 C   0  0  1  0  0  3  0  0  0  0  0  0
  186.3100  177.5640  144.4560 C   0  0  0  0  0  0  0  0  0  0  0  0
  191.1330  177.0860  144.6760 C   0  0  1  0  0  3  0  0  0  0  0  0
  188.7210  177.5150  144.9210 C   0  0  0  0  0  0  0  0  0  0  0  0
  191.4620  176.6590  147.5010 C   0  0  0  0  0  2  0  0  0  0  0  0
  186.5710  177.0010  143.1620 N   0  0  0  0  0  0  0  0  0  0  0  0
  192.3190  174.9090  144.2920 O   0  0  0  0  0  1  0  0  0  0  0  0
  191.8030  175.8380  145.1910 C   0  0  0  0  0  0  0  0  0  0  0  0
  190.1050  177.2560  147.1130 C   0  0  2  0  0  3  0  0  0  0  0  0
  190.8580  177.7320  142.2450 C   0  0  0  0  0  2  0  0  0  0  0  0
  191.7610  176.8540  138.2230 C   0  0  0  0  0  2  0  0  0  0  0  0
  191.2450  176.9700  141.0660 N   0  0  0  0  0  0  0  0  0  0  0  0
  192.4220  177.6260  140.4990 C   0  0  0  0  0  2  0  0  0  0  0  0
  192.8850  176.8730  139.2550 C   0  0  0  0  0  2  0  0  0  0  0  0
  190.4820  176.2970  138.8410 C   0  0  0  0  0  2  0  0  0  0  0  0
  190.1460  177.0800  140.1080 C   0  0  0  0  0  2  0  0  0  0  0  0
  1 21  1  6  0  0  0
  1  2  1  0  0  0  0
  1 14  1  0  0  0  0
  2 15  2  0  0  0  0
  3  9  1  1  0  0  0
  3 20  1  0  0  0  0
  4 12  1  0  0  0  0
  6 17  2  0  0  0  0
  6  2  1  0  0  0  0
  8 10  1  0  0  0  0
  8 16  1  0  0  0  0
 11 13  1  6  0  0  0
 11  7  1  0  0  0  0
 12  7  1  0  0  0  0
 12  5  1  1  0  0  0
 13  4  2  0  0  0  0
 14 19  1  1  0  0  0
 14  3  1  0  0  0  0
 15 11  1  0  0  0  0
 15  3  1  0  0  0  0
 17 13  1  0  0  0  0
 18 19  1  0  0  0  0
 19  8  2  0  0  0  0
 20  9  1  1  0  0  0
 20 16  1  0  0  0  0
 22 26  1  0  0  0  0
 22 25  1  0  0  0  0
 23 21  1  0  0  0  0
 24 23  1  0  0  0  0
 25 24  1  0  0  0  0
 26 27  1  0  0  0  0
 27 23  1  0  0  0  0
M  END
>  <MODEL>
6

>  <REMARK>
 VINA RESULT:      -6.2      3.880      7.481
  Name = 
  2 active torsions:
  status: ('A' for Active; 'I' for Inactive)
    1  A    between atoms: C_1  and  C_15
    2  A    between atoms: N_9  and  C_15
                            x       y       z     vdW  Elec       q    Type
                         _______ _______ _______ _____ _____    ______ ____

>  <TORSDO>
F 2

$$$$
=
 OpenBabel10272401113D

 27 32  0  0  1  0  0  0  0  0999 V2000
  188.4130  177.2830  138.0490 C   0  0  2  0  0  3  0  0  0  0  0  0
  188.6930  177.4810  139.5120 C   0  0  0  0  0  0  0  0  0  0  0  0
  190.6260  176.6300  138.6790 C   0  0  2  0  0  0  0  0  0  0  0  0
  189.8900  178.3840  143.1990 N   0  0  0  0  0  0  0  0  0  0  0  0
  191.6070  177.1430  144.3930 C   0  0  0  0  0  1  0  0  0  0  0  0
  187.6850  177.8810  140.5170 C   0  0  0  0  0  3  0  0  0  0  0  0
  191.9710  177.6630  141.7260 S   0  0  0  0  0  0  0  0  0  0  0  0
  190.4090  174.3390  137.0070 C   0  0  0  0  0  0  0  0  0  0  0  0
  192.0740  176.9820  138.4590 C   0  0  0  0  0  2  0  0  0  0  0  0
  190.1770  173.0630  136.5080 O   0  0  0  0  0  1  0  0  0  0  0  0
  190.3230  177.0180  141.3130 C   0  0  1  0  0  3  0  0  0  0  0  0
  191.3240  178.2080  143.3480 C   0  0  1  0  0  3  0  0  0  0  0  0
  189.3820  177.7900  142.1770 C   0  0  0  0  0  0  0  0  0  0  0  0
  189.6980  176.6620  137.4680 C   0  0  1  0  0  3  0  0  0  0  0  0
  189.9370  177.1780  139.8640 C   0  0  0  0  0  0  0  0  0  0  0  0
  191.7630  174.6640  137.5740 C   0  0  0  0  0  2  0  0  0  0  0  0
  188.0300  178.0370  141.7620 N   0  0  0  0  0  0  0  0  0  0  0  0
  188.2240  174.9610  136.3590 O   0  0  0  0  0  1  0  0  0  0  0  0
  189.4470  175.2700  136.9480 C   0  0  0  0  0  0  0  0  0  0  0  0
  191.6800  175.5430  138.8250 C   0  0  2  0  0  3  0  0  0  0  0  0
  188.0810  178.6060  137.3550 C   0  0  0  0  0  2  0  0  0  0  0  0
  185.0490  176.9070  134.9720 C   0  0  0  0  0  2  0  0  0  0  0  0
  186.8630  178.4990  136.5650 N   0  0  0  0  0  0  0  0  0  0  0  0
  186.0350  177.4690  137.1910 C   0  0  0  0  0  2  0  0  0  0  0  0
  184.7330  177.3070  136.4100 C   0  0  0  0  0  2  0  0  0  0  0  0
  186.0240  177.9010  134.3460 C   0  0  0  0  0  2  0  0  0  0  0  0
  187.2570  178.0320  135.2360 C   0  0  0  0  0  2  0  0  0  0  0  0
  1 21  1  6  0  0  0
  1  2  1  0  0  0  0
  2 15  2  0  0  0  0
  2  6  1  0  0  0  0
  3  9  1  6  0  0  0
  3 20  1  0  0  0  0
  3 15  1  0  0  0  0
  4 12  1  0  0  0  0
  6 17  2  0  0  0  0
  7 12  1  0  0  0  0
  8 16  1  0  0  0  0
  9 20  1  0  0  0  0
 10  8  1  0  0  0  0
 11 15  1  6  0  0  0
 11  7  1  0  0  0  0
 11 13  1  0  0  0  0
 12  5  1  1  0  0  0
 13  4  2  0  0  0  0
 14 19  1  1  0  0  0
 14  1  1  0  0  0  0
 14  3  1  0  0  0  0
 17 13  1  0  0  0  0
 18 19  1  0  0  0  0
 19  8  2  0  0  0  0
 20 16  1  6  0  0  0
 22 25  1  0  0  0  0
 23 24  1  0  0  0  0
 23 21  1  0  0  0  0
 25 24  1  0  0  0  0
 26 22  1  0  0  0  0
 26 27  1  0  0  0  0
 27 23  1  0  0  0  0
M  END
>  <MODEL>
7

>  <REMARK>
 VINA RESULT:      -6.1      2.476      6.228
  Name = 
  2 active torsions:
  status: ('A' for Active; 'I' for Inactive)
    1  A    between atoms: C_1  and  C_15
    2  A    between atoms: N_9  and  C_15
                            x       y       z     vdW  Elec       q    Type
                         _______ _______ _______ _____ _____    ______ ____

>  <TORSDO>
F 2

$$$$
=
 OpenBabel10272401113D

 27 32  0  0  1  0  0  0  0  0999 V2000
  187.1440  176.4420  137.1380 C   0  0  2  0  0  3  0  0  0  0  0  0
  186.4170  175.1260  137.0840 C   0  0  0  0  0  0  0  0  0  0  0  0
  184.7660  176.6850  137.0740 C   0  0  2  0  0  0  0  0  0  0  0  0
  184.2580  171.8520  136.4030 N   0  0  0  0  0  0  0  0  0  0  0  0
  181.9570  171.5870  137.1430 C   0  0  0  0  0  1  0  0  0  0  0  0
  187.0600  173.8020  137.2170 C   0  0  0  0  0  3  0  0  0  0  0  0
  182.7420  174.0080  136.1230 S   0  0  0  0  0  0  0  0  0  0  0  0
  184.9420  178.7610  139.0100 C   0  0  0  0  0  0  0  0  0  0  0  0
  183.6510  177.2190  136.2130 C   0  0  0  0  0  2  0  0  0  0  0  0
  184.9820  179.4860  140.1940 O   0  0  0  0  0  1  0  0  0  0  0  0
  184.1850  174.0720  137.2270 C   0  0  1  0  0  3  0  0  0  0  0  0
  182.8780  172.1840  136.0940 C   0  0  1  0  0  3  0  0  0  0  0  0
  184.9210  172.7990  136.9710 C   0  0  0  0  0  0  0  0  0  0  0  0
  186.0410  177.5160  137.1780 C   0  0  1  0  0  3  0  0  0  0  0  0
  185.0980  175.2490  136.9880 C   0  0  0  0  0  0  0  0  0  0  0  0
  183.6180  178.5520  138.3280 C   0  0  0  0  0  2  0  0  0  0  0  0
  186.3430  172.7180  137.1470 N   0  0  0  0  0  0  0  0  0  0  0  0
  187.2930  178.5490  139.0900 O   0  0  0  0  0  1  0  0  0  0  0  0
  186.0740  178.2870  138.4730 C   0  0  0  0  0  0  0  0  0  0  0  0
  183.4770  177.1460  137.7380 C   0  0  2  0  0  3  0  0  0  0  0  0
  188.0520  176.6330  135.9210 C   0  0  0  0  0  2  0  0  0  0  0  0
  191.8530  175.7180  137.4950 C   0  0  0  0  0  2  0  0  0  0  0  0
  189.4420  176.7990  136.3180 N   0  0  0  0  0  0  0  0  0  0  0  0
  190.2140  175.7740  135.6180 C   0  0  0  0  0  2  0  0  0  0  0  0
  191.6900  175.8940  135.9870 C   0  0  0  0  0  2  0  0  0  0  0  0
  190.9480  176.6930  138.2430 C   0  0  0  0  0  2  0  0  0  0  0  0
  189.5110  176.5310  137.7540 C   0  0  0  0  0  2  0  0  0  0  0  0
  1 21  1  6  0  0  0
  1 14  1  0  0  0  0
  2  1  1  0  0  0  0
  2  6  1  0  0  0  0
  3  9  1  6  0  0  0
  3 14  1  0  0  0  0
  3 20  1  0  0  0  0
  4 13  2  0  0  0  0
  8 10  1  0  0  0  0
 11  7  1  6  0  0  0
 12  7  1  0  0  0  0
 12  4  1  0  0  0  0
 12  5  1  1  0  0  0
 13 17  1  0  0  0  0
 13 11  1  0  0  0  0
 14 19  1  1  0  0  0
 15  3  1  0  0  0  0
 15  2  2  0  0  0  0
 15 11  1  0  0  0  0
 16  8  1  0  0  0  0
 17  6  2  0  0  0  0
 19  8  2  0  0  0  0
 19 18  1  0  0  0  0
 20  9  1  6  0  0  0
 20 16  1  0  0  0  0
 21 23  1  0  0  0  0
 22 26  1  0  0  0  0
 23 27  1  0  0  0  0
 24 25  1  0  0  0  0
 24 23  1  0  0  0  0
 25 22  1  0  0  0  0
 27 26  1  0  0  0  0
M  END
>  <MODEL>
8

>  <REMARK>
 VINA RESULT:      -6.0      3.897      6.657
  Name = 
  2 active torsions:
  status: ('A' for Active; 'I' for Inactive)
    1  A    between atoms: C_1  and  C_15
    2  A    between atoms: N_9  and  C_15
                            x       y       z     vdW  Elec       q    Type
                         _______ _______ _______ _____ _____    ______ ____

>  <TORSDO>
F 2

$$$$
=
 OpenBabel10272401113D

 27 32  0  0  1  0  0  0  0  0999 V2000
  187.9820  177.7280  143.5260 C   0  0  2  0  0  3  0  0  0  0  0  0
  188.4360  177.8610  142.0990 C   0  0  0  0  0  0  0  0  0  0  0  0
  189.9160  176.4120  143.0290 C   0  0  2  0  0  0  0  0  0  0  0  0
  189.5420  177.5980  138.2850 N   0  0  0  0  0  0  0  0  0  0  0  0
  191.8240  177.1450  137.5790 C   0  0  0  0  0  1  0  0  0  0  0  0
  187.8720  178.8150  141.1210 C   0  0  0  0  0  3  0  0  0  0  0  0
  190.8080  175.7660  139.7200 S   0  0  0  0  0  0  0  0  0  0  0  0
  191.0450  177.1540  145.5320 C   0  0  0  0  0  0  0  0  0  0  0  0
  190.3870  174.9850  142.9380 C   0  0  0  0  0  2  0  0  0  0  0  0
  191.7440  177.7940  146.5480 O   0  0  0  0  0  1  0  0  0  0  0  0
  190.2560  177.3000  140.5230 C   0  0  1  0  0  3  0  0  0  0  0  0
  190.5260  176.5470  138.0910 C   0  0  1  0  0  3  0  0  0  0  0  0
  189.4010  177.9790  139.5060 C   0  0  0  0  0  0  0  0  0  0  0  0
  189.0010  176.7830  144.1920 C   0  0  1  0  0  3  0  0  0  0  0  0
  189.4730  177.0890  141.7940 C   0  0  0  0  0  0  0  0  0  0  0  0
  191.7260  176.0610  144.7550 C   0  0  0  0  0  2  0  0  0  0  0  0
  188.3280  178.8460  139.9020 N   0  0  0  0  0  0  0  0  0  0  0  0
  189.1450  178.4560  146.0550 O   0  0  0  0  0  1  0  0  0  0  0  0
  189.7720  177.4870  145.2790 C   0  0  0  0  0  0  0  0  0  0  0  0
  191.3870  176.1050  143.2620 C   0  0  2  0  0  3  0  0  0  0  0  0
  186.5650  177.1580  143.6160 C   0  0  0  0  0  2  0  0  0  0  0  0
  182.8210  179.0460  144.0450 C   0  0  0  0  0  2  0  0  0  0  0  0
  185.5730  178.2190  143.7150 N   0  0  0  0  0  0  0  0  0  0  0  0
  184.8990  178.0570  145.0020 C   0  0  0  0  0  2  0  0  0  0  0  0
  183.8420  179.1450  145.1740 C   0  0  0  0  0  2  0  0  0  0  0  0
  183.5230  179.0760  142.6900 C   0  0  0  0  0  2  0  0  0  0  0  0
  184.5970  177.9920  142.6490 C   0  0  0  0  0  2  0  0  0  0  0  0
  1 21  1  6  0  0  0
  1 14  1  0  0  0  0
  2  1  1  0  0  0  0
  3  9  1  6  0  0  0
  3 20  1  0  0  0  0
  3 14  1  0  0  0  0
  4 13  2  0  0  0  0
  6  2  1  0  0  0  0
  7 11  1  0  0  0  0
  8 10  1  0  0  0  0
 11 13  1  6  0  0  0
 11 15  1  0  0  0  0
 12  5  1  1  0  0  0
 12  4  1  0  0  0  0
 12  7  1  0  0  0  0
 13 17  1  0  0  0  0
 14 19  1  1  0  0  0
 15  2  2  0  0  0  0
 15  3  1  0  0  0  0
 16  8  1  0  0  0  0
 17  6  2  0  0  0  0
 19  8  2  0  0  0  0
 19 18  1  0  0  0  0
 20  9  1  1  0  0  0
 20 16  1  0  0  0  0
 21 23  1  0  0  0  0
 22 25  1  0  0  0  0
 23 24  1  0  0  0  0
 24 25  1  0  0  0  0
 26 22  1  0  0  0  0
 27 26  1  0  0  0  0
 27 23  1  0  0  0  0
M  END
>  <MODEL>
9

>  <REMARK>
 VINA RESULT:      -6.0      3.614      5.946
  Name = 
  2 active torsions:
  status: ('A' for Active; 'I' for Inactive)
    1  A    between atoms: C_1  and  C_15
    2  A    between atoms: N_9  and  C_15
                            x       y       z     vdW  Elec       q    Type
                         _______ _______ _______ _____ _____    ______ ____

>  <TORSDO>
F 2

$$$$
