=
 OpenBabel10272413473D

 30 31  0  0  1  0  0  0  0  0999 V2000
  189.9260  176.9560  145.6780 C   0  0  2  0  0  3  0  0  0  0  0  0
  192.0890  174.9100  145.7490 C   0  0  0  0  0  1  0  0  0  0  0  0
  192.0360  176.0650  146.6950 C   0  0  0  0  0  3  0  0  0  0  0  0
  191.0670  176.9870  146.6610 C   0  0  0  0  0  3  0  0  0  0  0  0
  190.2480  178.9920  144.2580 C   0  0  0  0  0  1  0  0  0  0  0  0
  190.3180  177.4680  144.2680 C   0  0  2  0  0  3  0  0  0  0  0  0
  188.8310  177.9480  142.2370 C   0  0  0  0  0  2  0  0  0  0  0  0
  189.1190  178.3350  139.5110 S   0  0  0  0  0  0  0  0  0  0  0  0
  189.2770  177.6610  141.0350 C   0  0  0  0  0  0  0  0  0  0  0  0
  189.4240  176.8810  143.1500 C   0  0  1  0  0  3  0  0  0  0  0  0
  190.1510  177.1310  138.8690 C   0  0  0  0  0  0  0  0  0  0  0  0
  190.5970  176.2490  139.8030 N   0  0  0  0  0  0  0  0  0  0  0  0
  190.2490  176.0450  142.1850 C   0  0  0  0  0  2  0  0  0  0  0  0
  190.0760  176.5930  141.0030 C   0  0  0  0  0  0  0  0  0  0  0  0
  190.5350  177.0500  137.4350 C   0  0  0  0  0  1  0  0  0  0  0  0
  188.7150  177.6780  146.3020 C   0  0  1  0  0  3  0  0  0  0  0  0
  186.5750  177.3840  145.0960 C   0  0  0  0  0  0  0  0  0  0  0  0
  185.7670  177.7080  144.1240 C   0  0  0  0  0  3  0  0  0  0  0  0
  187.3800  177.0280  146.0630 C   0  0  0  0  0  3  0  0  0  0  0  0
  185.2980  179.1130  143.9270 C   0  0  1  0  0  3  0  0  0  0  0  0
  185.2670  179.4270  142.4440 C   0  0  0  0  0  1  0  0  0  0  0  0
  183.9400  179.3380  144.5130 C   0  0  0  0  0  0  0  0  0  0  0  0
  183.7440  179.0590  145.7250 O   0  0  0  0  0  0  0  0  0  0  0  0
  182.9200  179.8990  143.7350 O   0  0  0  0  0  0  0  0  0  0  0  0
  181.3340  178.3180  144.2640 F   0  0  0  0  0  0  0  0  0  0  0  0
  181.8030  179.1500  143.2640 C   0  0  0  0  0  0  0  0  0  0  0  0
  180.7980  180.0220  142.8940 F   0  0  0  0  0  0  0  0  0  0  0  0
  182.1720  178.3930  142.1660 F   0  0  0  0  0  0  0  0  0  0  0  0
  188.9270  178.0960  147.6960 C   0  0  0  0  0  0  0  0  0  0  0  0
  189.0990  178.4350  148.8400 C   0  0  0  0  0  3  0  0  0  0  0  0
  1 16  1  0  0  0  0
  1  4  1  1  0  0  0
  2  3  1  0  0  0  0
  4  3  2  0  0  0  0
  6  5  1  1  0  0  0
  6  1  1  0  0  0  0
  7 10  1  0  0  0  0
  8  9  1  0  0  0  0
  9  7  1  0  0  0  0
 10  6  1  1  0  0  0
 11  8  1  0  0  0  0
 11 12  2  0  0  0  0
 12 14  1  0  0  0  0
 13 10  1  0  0  0  0
 14  9  2  0  0  0  0
 14 13  1  0  0  0  0
 15 11  1  0  0  0  0
 16 19  1  1  0  0  0
 16 29  1  0  0  0  0
 17 19  2  0  0  0  0
 18 17  2  0  0  0  0
 20 21  1  6  0  0  0
 20 18  1  0  0  0  0
 20 22  1  0  0  0  0
 22 23  2  0  0  0  0
 24 22  1  0  0  0  0
 26 24  1  0  0  0  0
 26 25  1  0  0  0  0
 27 26  1  0  0  0  0
 28 26  1  0  0  0  0
 29 30  3  0  0  0  0
M  END
>  <MODEL>
1

>  <REMARK>
 VINA RESULT:      -8.3      0.000      0.000
  Name = 
  10 active torsions:
  status: ('A' for Active; 'I' for Inactive)
    1  A    between atoms: C_2  and  C_22
    2  A    between atoms: C_4  and  C_27
    3  A    between atoms: C_5  and  C_22
    4  A    between atoms: C_8  and  O_12
    5  A    between atoms: C_8  and  C_27
    6  A    between atoms: C_9  and  O_12
    7  A    between atoms: C_11  and  C_29
    8  A    between atoms: C_19  and  C_22
    9  A    between atoms: C_19  and  C_28
   10  A    between atoms: C_19  and  C_29
                            x       y       z     vdW  Elec       q    Type
                         _______ _______ _______ _____ _____    ______ ____

>  <TORSDO>
F 10

$$$$
=
 OpenBabel10272413473D

 30 31  0  0  1  0  0  0  0  0999 V2000
  189.3790  177.0790  144.8830 C   0  0  2  0  0  3  0  0  0  0  0  0
  191.9070  176.1530  146.1530 C   0  0  0  0  0  1  0  0  0  0  0  0
  191.7490  177.5180  145.5660 C   0  0  0  0  0  3  0  0  0  0  0  0
  190.6150  177.9330  144.9910 C   0  0  0  0  0  3  0  0  0  0  0  0
  189.6470  175.4670  142.9860 C   0  0  0  0  0  1  0  0  0  0  0  0
  188.9770  176.7680  143.4170 C   0  0  2  0  0  3  0  0  0  0  0  0
  190.2430  177.4550  141.2980 C   0  0  0  0  0  2  0  0  0  0  0  0
  189.8200  177.5000  138.5620 S   0  0  0  0  0  0  0  0  0  0  0  0
  189.5650  177.7130  140.2030 C   0  0  0  0  0  0  0  0  0  0  0  0
  189.3460  177.9110  142.4430 C   0  0  1  0  0  3  0  0  0  0  0  0
  188.2750  178.1560  138.2340 C   0  0  0  0  0  0  0  0  0  0  0  0
  187.5950  178.5200  139.3540 N   0  0  0  0  0  0  0  0  0  0  0  0
  188.1110  178.4130  141.7110 C   0  0  0  0  0  2  0  0  0  0  0  0
  188.3650  178.2500  140.4330 C   0  0  0  0  0  0  0  0  0  0  0  0
  187.7160  178.3120  136.8650 C   0  0  0  0  0  1  0  0  0  0  0  0
  188.2580  177.7200  145.7260 C   0  0  1  0  0  3  0  0  0  0  0  0
  186.0630  177.4190  144.6250 C   0  0  0  0  0  0  0  0  0  0  0  0
  185.2240  177.7110  143.6690 C   0  0  0  0  0  3  0  0  0  0  0  0
  186.8980  177.0960  145.5770 C   0  0  0  0  0  3  0  0  0  0  0  0
  184.7830  179.1150  143.4100 C   0  0  1  0  0  3  0  0  0  0  0  0
  184.5970  179.3150  141.9190 C   0  0  0  0  0  1  0  0  0  0  0  0
  183.5080  179.4410  144.1210 C   0  0  0  0  0  0  0  0  0  0  0  0
  183.4480  179.2870  145.3690 O   0  0  0  0  0  0  0  0  0  0  0  0
  182.4180  179.9590  143.4110 O   0  0  0  0  0  0  0  0  0  0  0  0
  181.5190  178.2650  142.1410 F   0  0  0  0  0  0  0  0  0  0  0  0
  181.2480  179.1990  143.1240 C   0  0  0  0  0  0  0  0  0  0  0  0
  180.8400  178.5440  144.2690 F   0  0  0  0  0  0  0  0  0  0  0  0
  180.2330  180.0390  142.6980 F   0  0  0  0  0  0  0  0  0  0  0  0
  188.6400  177.9790  147.1220 C   0  0  0  0  0  0  0  0  0  0  0  0
  188.9520  178.1870  148.2680 C   0  0  0  0  0  3  0  0  0  0  0  0
  1  4  1  6  0  0  0
  1 16  1  0  0  0  0
  3  2  1  0  0  0  0
  4  3  2  0  0  0  0
  6  5  1  6  0  0  0
  6  1  1  0  0  0  0
  7 10  1  0  0  0  0
  8  9  1  0  0  0  0
  9 14  2  0  0  0  0
  9  7  1  0  0  0  0
 10  6  1  1  0  0  0
 11  8  1  0  0  0  0
 11 12  2  0  0  0  0
 12 14  1  0  0  0  0
 13 10  1  0  0  0  0
 14 13  1  0  0  0  0
 15 11  1  0  0  0  0
 16 19  1  1  0  0  0
 16 29  1  0  0  0  0
 17 19  2  0  0  0  0
 18 17  2  0  0  0  0
 20 21  1  6  0  0  0
 20 18  1  0  0  0  0
 20 22  1  0  0  0  0
 22 23  2  0  0  0  0
 24 22  1  0  0  0  0
 25 26  1  0  0  0  0
 26 24  1  0  0  0  0
 26 27  1  0  0  0  0
 28 26  1  0  0  0  0
 29 30  3  0  0  0  0
M  END
>  <MODEL>
2

>  <REMARK>
 VINA RESULT:      -8.1      1.262      1.839
  Name = 
  10 active torsions:
  status: ('A' for Active; 'I' for Inactive)
    1  A    between atoms: C_2  and  C_22
    2  A    between atoms: C_4  and  C_27
    3  A    between atoms: C_5  and  C_22
    4  A    between atoms: C_8  and  O_12
    5  A    between atoms: C_8  and  C_27
    6  A    between atoms: C_9  and  O_12
    7  A    between atoms: C_11  and  C_29
    8  A    between atoms: C_19  and  C_22
    9  A    between atoms: C_19  and  C_28
   10  A    between atoms: C_19  and  C_29
                            x       y       z     vdW  Elec       q    Type
                         _______ _______ _______ _____ _____    ______ ____

>  <TORSDO>
F 10

$$$$
=
 OpenBabel10272413473D

 30 31  0  0  1  0  0  0  0  0999 V2000
  188.7000  177.4830  145.8100 C   0  0  2  0  0  3  0  0  0  0  0  0
  187.6670  178.7210  148.3130 C   0  0  0  0  0  1  0  0  0  0  0  0
  188.3190  177.3770  148.2850 C   0  0  0  0  0  3  0  0  0  0  0  0
  188.7790  176.8180  147.1600 C   0  0  0  0  0  3  0  0  0  0  0  0
  187.6840  176.2360  143.8910 C   0  0  0  0  0  1  0  0  0  0  0  0
  187.3810  177.1760  145.0540 C   0  0  2  0  0  3  0  0  0  0  0  0
  186.1030  178.2990  143.1380 C   0  0  0  0  0  2  0  0  0  0  0  0
  183.4930  178.5040  142.2370 S   0  0  0  0  0  0  0  0  0  0  0  0
  184.8130  178.5100  143.2670 C   0  0  0  0  0  0  0  0  0  0  0  0
  186.6770  178.4540  144.5410 C   0  0  1  0  0  3  0  0  0  0  0  0
  182.4600  178.8550  143.5540 C   0  0  0  0  0  0  0  0  0  0  0  0
  183.1160  178.9670  144.7390 N   0  0  0  0  0  0  0  0  0  0  0  0
  185.4380  178.7550  145.3710 C   0  0  0  0  0  2  0  0  0  0  0  0
  184.4360  178.7650  144.5220 C   0  0  0  0  0  0  0  0  0  0  0  0
  180.9870  179.0150  143.4300 C   0  0  0  0  0  1  0  0  0  0  0  0
  189.9790  177.1480  145.0180 C   0  0  1  0  0  3  0  0  0  0  0  0
  189.9050  178.3550  142.8600 C   0  0  0  0  0  0  0  0  0  0  0  0
  189.3770  178.5390  141.6800 C   0  0  0  0  0  3  0  0  0  0  0  0
  190.4330  178.2020  144.0460 C   0  0  0  0  0  3  0  0  0  0  0  0
  189.2790  177.4330  140.6810 C   0  0  1  0  0  3  0  0  0  0  0  0
  188.4140  177.8820  139.5200 C   0  0  0  0  0  1  0  0  0  0  0  0
  190.6230  177.0180  140.1710 C   0  0  0  0  0  0  0  0  0  0  0  0
  191.6310  177.7060  140.4780 O   0  0  0  0  0  0  0  0  0  0  0  0
  190.7590  175.8530  139.4070 O   0  0  0  0  0  0  0  0  0  0  0  0
  191.0310  177.0890  137.4850 F   0  0  0  0  0  0  0  0  0  0  0  0
  191.2500  175.8550  138.0700 C   0  0  0  0  0  0  0  0  0  0  0  0
  192.6070  175.5980  138.0860 F   0  0  0  0  0  0  0  0  0  0  0  0
  190.6140  174.8720  137.3320 F   0  0  0  0  0  0  0  0  0  0  0  0
  191.0650  176.6020  145.8460 C   0  0  0  0  0  0  0  0  0  0  0  0
  191.9560  176.1530  146.5230 C   0  0  0  0  0  3  0  0  0  0  0  0
  1  4  1  1  0  0  0
  3  2  1  0  0  0  0
  4  3  2  0  0  0  0
  6  5  1  6  0  0  0
  6  1  1  0  0  0  0
  7  9  1  0  0  0  0
  7 10  1  0  0  0  0
  8  9  1  0  0  0  0
  8 11  1  0  0  0  0
  9 14  2  0  0  0  0
 10  6  1  1  0  0  0
 10 13  1  0  0  0  0
 11 12  2  0  0  0  0
 14 12  1  0  0  0  0
 14 13  1  0  0  0  0
 15 11  1  0  0  0  0
 16 19  1  1  0  0  0
 16  1  1  0  0  0  0
 16 29  1  0  0  0  0
 17 19  2  0  0  0  0
 18 17  2  0  0  0  0
 20 21  1  6  0  0  0
 20 18  1  0  0  0  0
 22 23  2  0  0  0  0
 22 20  1  0  0  0  0
 24 22  1  0  0  0  0
 25 26  1  0  0  0  0
 26 27  1  0  0  0  0
 26 24  1  0  0  0  0
 28 26  1  0  0  0  0
 29 30  3  0  0  0  0
M  END
>  <MODEL>
3

>  <REMARK>
 VINA RESULT:      -8.1      4.918      7.108
  Name = 
  10 active torsions:
  status: ('A' for Active; 'I' for Inactive)
    1  A    between atoms: C_2  and  C_22
    2  A    between atoms: C_4  and  C_27
    3  A    between atoms: C_5  and  C_22
    4  A    between atoms: C_8  and  O_12
    5  A    between atoms: C_8  and  C_27
    6  A    between atoms: C_9  and  O_12
    7  A    between atoms: C_11  and  C_29
    8  A    between atoms: C_19  and  C_22
    9  A    between atoms: C_19  and  C_28
   10  A    between atoms: C_19  and  C_29
                            x       y       z     vdW  Elec       q    Type
                         _______ _______ _______ _____ _____    ______ ____

>  <TORSDO>
F 10

$$$$
=
 OpenBabel10272413473D

 30 31  0  0  1  0  0  0  0  0999 V2000
  188.5970  177.5590  145.7760 C   0  0  2  0  0  3  0  0  0  0  0  0
  187.6640  178.5630  148.4190 C   0  0  0  0  0  1  0  0  0  0  0  0
  188.3530  177.2490  148.2510 C   0  0  0  0  0  3  0  0  0  0  0  0
  188.7680  176.7940  147.0630 C   0  0  0  0  0  3  0  0  0  0  0  0
  187.5450  176.3100  143.8780 C   0  0  0  0  0  1  0  0  0  0  0  0
  187.2630  177.2440  145.0510 C   0  0  2  0  0  3  0  0  0  0  0  0
  185.9810  178.3850  143.1470 C   0  0  0  0  0  2  0  0  0  0  0  0
  183.3770  178.5550  142.2230 S   0  0  0  0  0  0  0  0  0  0  0  0
  184.6850  178.5650  143.2670 C   0  0  0  0  0  0  0  0  0  0  0  0
  186.5370  178.5200  144.5600 C   0  0  1  0  0  3  0  0  0  0  0  0
  182.3230  178.8530  143.5360 C   0  0  0  0  0  0  0  0  0  0  0  0
  182.9650  178.9520  144.7310 N   0  0  0  0  0  0  0  0  0  0  0  0
  185.2840  178.7750  145.3830 C   0  0  0  0  0  2  0  0  0  0  0  0
  184.2900  178.7830  144.5230 C   0  0  0  0  0  0  0  0  0  0  0  0
  180.8480  178.9860  143.3990 C   0  0  0  0  0  1  0  0  0  0  0  0
  189.8550  177.3550  144.9080 C   0  0  1  0  0  3  0  0  0  0  0  0
  189.8280  178.6930  142.8280 C   0  0  0  0  0  0  0  0  0  0  0  0
  189.4010  178.8890  141.6100 C   0  0  0  0  0  3  0  0  0  0  0  0
  190.2490  178.5290  144.0540 C   0  0  0  0  0  3  0  0  0  0  0  0
  189.5640  177.8540  140.5440 C   0  0  1  0  0  3  0  0  0  0  0  0
  189.6730  176.4850  141.1870 C   0  0  0  0  0  1  0  0  0  0  0  0
  188.4230  177.8620  139.5770 C   0  0  0  0  0  0  0  0  0  0  0  0
  187.3620  178.4640  139.8890 O   0  0  0  0  0  0  0  0  0  0  0  0
  188.5560  177.2520  138.3240 O   0  0  0  0  0  0  0  0  0  0  0  0
  188.9330  177.3560  136.0570 F   0  0  0  0  0  0  0  0  0  0  0  0
  189.3930  177.7700  137.2940 C   0  0  0  0  0  0  0  0  0  0  0  0
  189.3720  179.1500  137.3440 F   0  0  0  0  0  0  0  0  0  0  0  0
  190.6920  177.3310  137.4760 F   0  0  0  0  0  0  0  0  0  0  0  0
  190.9820  176.7450  145.6300 C   0  0  0  0  0  0  0  0  0  0  0  0
  191.9040  176.2420  146.2220 C   0  0  0  0  0  3  0  0  0  0  0  0
  1  4  1  1  0  0  0
  3  2  1  0  0  0  0
  4  3  2  0  0  0  0
  6  5  1  6  0  0  0
  6  1  1  0  0  0  0
  7  9  1  0  0  0  0
  7 10  1  0  0  0  0
  8  9  1  0  0  0  0
  8 11  1  0  0  0  0
  9 14  2  0  0  0  0
 10  6  1  1  0  0  0
 10 13  1  0  0  0  0
 11 12  2  0  0  0  0
 14 12  1  0  0  0  0
 14 13  1  0  0  0  0
 15 11  1  0  0  0  0
 16 19  1  1  0  0  0
 16 29  1  0  0  0  0
 16  1  1  0  0  0  0
 17 19  2  0  0  0  0
 18 17  2  0  0  0  0
 20 21  1  1  0  0  0
 20 18  1  0  0  0  0
 22 23  2  0  0  0  0
 22 20  1  0  0  0  0
 24 22  1  0  0  0  0
 25 26  1  0  0  0  0
 26 27  1  0  0  0  0
 26 28  1  0  0  0  0
 26 24  1  0  0  0  0
 29 30  3  0  0  0  0
M  END
>  <MODEL>
4

>  <REMARK>
 VINA RESULT:      -8.0      4.229      6.614
  Name = 
  10 active torsions:
  status: ('A' for Active; 'I' for Inactive)
    1  A    between atoms: C_2  and  C_22
    2  A    between atoms: C_4  and  C_27
    3  A    between atoms: C_5  and  C_22
    4  A    between atoms: C_8  and  O_12
    5  A    between atoms: C_8  and  C_27
    6  A    between atoms: C_9  and  O_12
    7  A    between atoms: C_11  and  C_29
    8  A    between atoms: C_19  and  C_22
    9  A    between atoms: C_19  and  C_28
   10  A    between atoms: C_19  and  C_29
                            x       y       z     vdW  Elec       q    Type
                         _______ _______ _______ _____ _____    ______ ____

>  <TORSDO>
F 10

$$$$
=
 OpenBabel10272413473D

 30 31  0  0  1  0  0  0  0  0999 V2000
  188.5640  177.1900  144.1740 C   0  0  2  0  0  3  0  0  0  0  0  0
  189.6410  176.8390  146.9280 C   0  0  0  0  0  1  0  0  0  0  0  0
  190.0340  177.9780  146.0440 C   0  0  0  0  0  3  0  0  0  0  0  0
  189.5540  178.1340  144.8050 C   0  0  0  0  0  3  0  0  0  0  0  0
  190.0380  175.4660  143.1140 C   0  0  0  0  0  1  0  0  0  0  0  0
  189.0560  176.5980  142.8280 C   0  0  2  0  0  3  0  0  0  0  0  0
  190.6690  177.0600  140.8910 C   0  0  0  0  0  2  0  0  0  0  0  0
  190.6070  177.1300  138.1230 S   0  0  0  0  0  0  0  0  0  0  0  0
  190.1810  177.4010  139.7200 C   0  0  0  0  0  0  0  0  0  0  0  0
  189.7120  177.6600  141.9140 C   0  0  1  0  0  3  0  0  0  0  0  0
  189.2310  178.0050  137.6050 C   0  0  0  0  0  0  0  0  0  0  0  0
  188.4770  178.4810  138.6310 N   0  0  0  0  0  0  0  0  0  0  0  0
  188.6680  178.3300  141.0340 C   0  0  0  0  0  2  0  0  0  0  0  0
  189.0550  178.1140  139.7970 C   0  0  0  0  0  0  0  0  0  0  0  0
  188.8800  178.2230  136.1770 C   0  0  0  0  0  1  0  0  0  0  0  0
  187.1920  177.8890  144.0970 C   0  0  1  0  0  3  0  0  0  0  0  0
  185.1670  178.0400  142.6830 C   0  0  0  0  0  0  0  0  0  0  0  0
  184.0220  178.5970  142.3970 C   0  0  0  0  0  3  0  0  0  0  0  0
  186.3220  177.4830  142.9390 C   0  0  0  0  0  3  0  0  0  0  0  0
  182.9190  178.6870  143.4010 C   0  0  1  0  0  3  0  0  0  0  0  0
  183.2890  179.7070  144.4610 C   0  0  0  0  0  1  0  0  0  0  0  0
  181.6180  179.0720  142.7710 C   0  0  0  0  0  0  0  0  0  0  0  0
  180.9720  180.0420  143.2470 O   0  0  0  0  0  0  0  0  0  0  0  0
  181.1560  178.3940  141.6370 O   0  0  0  0  0  0  0  0  0  0  0  0
  180.0610  180.0750  140.5120 F   0  0  0  0  0  0  0  0  0  0  0  0
  180.9580  179.0310  140.3780 C   0  0  0  0  0  0  0  0  0  0  0  0
  182.1650  179.5280  139.9270 F   0  0  0  0  0  0  0  0  0  0  0  0
  180.4730  178.1180  139.4590 F   0  0  0  0  0  0  0  0  0  0  0  0
  186.4780  177.9400  145.3820 C   0  0  0  0  0  0  0  0  0  0  0  0
  185.8910  177.9790  146.4340 C   0  0  0  0  0  3  0  0  0  0  0  0
  1  4  1  6  0  0  0
  3  2  1  0  0  0  0
  4  3  2  0  0  0  0
  6  5  1  1  0  0  0
  6  1  1  0  0  0  0
  7 10  1  0  0  0  0
  8  9  1  0  0  0  0
  9 14  2  0  0  0  0
  9  7  1  0  0  0  0
 10  6  1  6  0  0  0
 11  8  1  0  0  0  0
 11 12  2  0  0  0  0
 12 14  1  0  0  0  0
 13 10  1  0  0  0  0
 14 13  1  0  0  0  0
 15 11  1  0  0  0  0
 16 19  1  6  0  0  0
 16  1  1  0  0  0  0
 16 29  1  0  0  0  0
 17 19  2  0  0  0  0
 18 17  2  0  0  0  0
 18 20  1  0  0  0  0
 20 21  1  1  0  0  0
 22 23  2  0  0  0  0
 22 20  1  0  0  0  0
 24 22  1  0  0  0  0
 26 25  1  0  0  0  0
 26 24  1  0  0  0  0
 27 26  1  0  0  0  0
 28 26  1  0  0  0  0
 29 30  3  0  0  0  0
M  END
>  <MODEL>
5

>  <REMARK>
 VINA RESULT:      -7.5      1.987      2.921
  Name = 
  10 active torsions:
  status: ('A' for Active; 'I' for Inactive)
    1  A    between atoms: C_2  and  C_22
    2  A    between atoms: C_4  and  C_27
    3  A    between atoms: C_5  and  C_22
    4  A    between atoms: C_8  and  O_12
    5  A    between atoms: C_8  and  C_27
    6  A    between atoms: C_9  and  O_12
    7  A    between atoms: C_11  and  C_29
    8  A    between atoms: C_19  and  C_22
    9  A    between atoms: C_19  and  C_28
   10  A    between atoms: C_19  and  C_29
                            x       y       z     vdW  Elec       q    Type
                         _______ _______ _______ _____ _____    ______ ____

>  <TORSDO>
F 10

$$$$
=
 OpenBabel10272413473D

 30 31  0  0  1  0  0  0  0  0999 V2000
  183.0790  179.0000  140.8960 C   0  0  2  0  0  3  0  0  0  0  0  0
  180.1630  179.5490  141.1400 C   0  0  0  0  0  1  0  0  0  0  0  0
  180.7070  178.1970  140.8100 C   0  0  0  0  0  3  0  0  0  0  0  0
  182.0170  177.9500  140.6960 C   0  0  0  0  0  3  0  0  0  0  0  0
  183.0710  179.8810  138.5530 C   0  0  0  0  0  1  0  0  0  0  0  0
  183.9430  179.2450  139.6310 C   0  0  2  0  0  3  0  0  0  0  0  0
  184.0430  177.5090  137.7490 C   0  0  0  0  0  2  0  0  0  0  0  0
  185.3100  177.1780  135.3100 S   0  0  0  0  0  0  0  0  0  0  0  0
  185.0730  177.5080  136.9340 C   0  0  0  0  0  0  0  0  0  0  0  0
  184.5990  177.9490  139.0980 C   0  0  1  0  0  3  0  0  0  0  0  0
  186.9680  177.5660  135.4700 C   0  0  0  0  0  0  0  0  0  0  0  0
  187.3150  177.9370  136.7320 N   0  0  0  0  0  0  0  0  0  0  0  0
  186.0690  178.1810  138.7870 C   0  0  0  0  0  2  0  0  0  0  0  0
  186.2130  177.8870  137.5140 C   0  0  0  0  0  0  0  0  0  0  0  0
  187.9420  177.5130  134.3490 C   0  0  0  0  0  1  0  0  0  0  0  0
  183.8890  178.6490  142.1600 C   0  0  1  0  0  3  0  0  0  0  0  0
  186.3530  178.5220  142.3470 C   0  0  0  0  0  0  0  0  0  0  0  0
  187.4480  177.8190  142.4410 C   0  0  0  0  0  3  0  0  0  0  0  0
  185.2690  179.2440  142.2300 C   0  0  0  0  0  3  0  0  0  0  0  0
  187.6500  176.8190  143.5330 C   0  0  1  0  0  3  0  0  0  0  0  0
  188.9890  176.1340  143.3440 C   0  0  0  0  0  1  0  0  0  0  0  0
  187.5990  177.4510  144.8880 C   0  0  0  0  0  0  0  0  0  0  0  0
  188.5780  178.1400  145.2770 O   0  0  0  0  0  0  0  0  0  0  0  0
  186.4570  177.3170  145.6860 O   0  0  0  0  0  0  0  0  0  0  0  0
  184.5780  178.0580  146.7870 F   0  0  0  0  0  0  0  0  0  0  0  0
  185.8390  178.4170  146.3480 C   0  0  0  0  0  0  0  0  0  0  0  0
  186.6090  178.7820  147.4350 F   0  0  0  0  0  0  0  0  0  0  0  0
  185.7400  179.4920  145.4830 F   0  0  0  0  0  0  0  0  0  0  0  0
  183.1260  178.7810  143.4100 C   0  0  0  0  0  0  0  0  0  0  0  0
  182.5000  178.8930  144.4350 C   0  0  0  0  0  3  0  0  0  0  0  0
  1  4  1  6  0  0  0
  1 16  1  0  0  0  0
  3  2  1  0  0  0  0
  4  3  2  0  0  0  0
  6  5  1  6  0  0  0
  6  1  1  0  0  0  0
  7 10  1  0  0  0  0
  8 11  1  0  0  0  0
  8  9  1  0  0  0  0
  9 14  2  0  0  0  0
  9  7  1  0  0  0  0
 10  6  1  6  0  0  0
 11 12  2  0  0  0  0
 12 14  1  0  0  0  0
 13 10  1  0  0  0  0
 14 13  1  0  0  0  0
 15 11  1  0  0  0  0
 16 19  1  1  0  0  0
 16 29  1  0  0  0  0
 17 18  2  0  0  0  0
 18 20  1  0  0  0  0
 19 17  2  0  0  0  0
 20 21  1  6  0  0  0
 20 22  1  0  0  0  0
 22 23  2  0  0  0  0
 22 24  1  0  0  0  0
 24 26  1  0  0  0  0
 26 25  1  0  0  0  0
 26 27  1  0  0  0  0
 28 26  1  0  0  0  0
 29 30  3  0  0  0  0
M  END
>  <MODEL>
6

>  <REMARK>
 VINA RESULT:      -7.4      3.586      6.811
  Name = 
  10 active torsions:
  status: ('A' for Active; 'I' for Inactive)
    1  A    between atoms: C_2  and  C_22
    2  A    between atoms: C_4  and  C_27
    3  A    between atoms: C_5  and  C_22
    4  A    between atoms: C_8  and  O_12
    5  A    between atoms: C_8  and  C_27
    6  A    between atoms: C_9  and  O_12
    7  A    between atoms: C_11  and  C_29
    8  A    between atoms: C_19  and  C_22
    9  A    between atoms: C_19  and  C_28
   10  A    between atoms: C_19  and  C_29
                            x       y       z     vdW  Elec       q    Type
                         _______ _______ _______ _____ _____    ______ ____

>  <TORSDO>
F 10

$$$$
=
 OpenBabel10272413473D

 30 31  0  0  1  0  0  0  0  0999 V2000
  188.0620  178.1610  145.8190 C   0  0  2  0  0  3  0  0  0  0  0  0
  188.6410  178.0460  148.7380 C   0  0  0  0  0  1  0  0  0  0  0  0
  187.8170  177.0170  148.0350 C   0  0  0  0  0  3  0  0  0  0  0  0
  187.5530  177.0700  146.7250 C   0  0  0  0  0  3  0  0  0  0  0  0
  185.7360  179.0880  145.8130 C   0  0  0  0  0  1  0  0  0  0  0  0
  186.9520  178.7940  144.9400 C   0  0  2  0  0  3  0  0  0  0  0  0
  185.0440  177.7460  143.5880 C   0  0  0  0  0  2  0  0  0  0  0  0
  183.3870  178.4330  141.4790 S   0  0  0  0  0  0  0  0  0  0  0  0
  184.7740  178.2180  142.3920 C   0  0  0  0  0  0  0  0  0  0  0  0
  186.5530  177.8950  143.7460 C   0  0  1  0  0  3  0  0  0  0  0  0
  184.3180  179.1290  140.2240 C   0  0  0  0  0  0  0  0  0  0  0  0
  185.6460  179.1910  140.5090 N   0  0  0  0  0  0  0  0  0  0  0  0
  186.9590  178.5390  142.4290 C   0  0  0  0  0  2  0  0  0  0  0  0
  185.8480  178.6660  141.7390 C   0  0  0  0  0  0  0  0  0  0  0  0
  183.7430  179.6270  138.9470 C   0  0  0  0  0  1  0  0  0  0  0  0
  189.2710  177.6240  145.0270 C   0  0  1  0  0  3  0  0  0  0  0  0
  189.6570  176.3390  142.9490 C   0  0  0  0  0  0  0  0  0  0  0  0
  190.3490  176.1160  141.8650 C   0  0  0  0  0  3  0  0  0  0  0  0
  188.9640  176.5310  144.0410 C   0  0  0  0  0  3  0  0  0  0  0  0
  190.5850  177.1870  140.8490 C   0  0  1  0  0  3  0  0  0  0  0  0
  192.0210  177.6640  140.9490 C   0  0  0  0  0  1  0  0  0  0  0  0
  190.3150  176.7070  139.4580 C   0  0  0  0  0  0  0  0  0  0  0  0
  191.2140  176.0760  138.8440 O   0  0  0  0  0  0  0  0  0  0  0  0
  189.0610  176.9170  138.8720 O   0  0  0  0  0  0  0  0  0  0  0  0
  187.3610  178.1840  137.9780 F   0  0  0  0  0  0  0  0  0  0  0  0
  188.7320  178.0970  138.1450 C   0  0  0  0  0  0  0  0  0  0  0  0
  189.1720  179.2000  138.8480 F   0  0  0  0  0  0  0  0  0  0  0  0
  189.3480  178.0750  136.9060 F   0  0  0  0  0  0  0  0  0  0  0  0
  190.1430  178.6780  144.4880 C   0  0  0  0  0  0  0  0  0  0  0  0
  190.8580  179.5400  144.0430 C   0  0  0  0  0  3  0  0  0  0  0  0
  1  4  1  6  0  0  0
  3  2  1  0  0  0  0
  4  3  2  0  0  0  0
  6  5  1  1  0  0  0
  6  1  1  0  0  0  0
  7 10  1  0  0  0  0
  8  9  1  0  0  0  0
  9  7  1  0  0  0  0
 10  6  1  1  0  0  0
 11 12  2  0  0  0  0
 11  8  1  0  0  0  0
 12 14  1  0  0  0  0
 13 10  1  0  0  0  0
 14  9  2  0  0  0  0
 14 13  1  0  0  0  0
 15 11  1  0  0  0  0
 16 19  1  6  0  0  0
 16  1  1  0  0  0  0
 17 19  2  0  0  0  0
 18 17  2  0  0  0  0
 20 21  1  6  0  0  0
 20 18  1  0  0  0  0
 22 20  1  0  0  0  0
 23 22  2  0  0  0  0
 24 22  1  0  0  0  0
 25 26  1  0  0  0  0
 26 27  1  0  0  0  0
 26 24  1  0  0  0  0
 28 26  1  0  0  0  0
 29 16  1  0  0  0  0
 30 29  3  0  0  0  0
M  END
>  <MODEL>
7

>  <REMARK>
 VINA RESULT:      -7.2      4.021      6.098
  Name = 
  10 active torsions:
  status: ('A' for Active; 'I' for Inactive)
    1  A    between atoms: C_2  and  C_22
    2  A    between atoms: C_4  and  C_27
    3  A    between atoms: C_5  and  C_22
    4  A    between atoms: C_8  and  O_12
    5  A    between atoms: C_8  and  C_27
    6  A    between atoms: C_9  and  O_12
    7  A    between atoms: C_11  and  C_29
    8  A    between atoms: C_19  and  C_22
    9  A    between atoms: C_19  and  C_28
   10  A    between atoms: C_19  and  C_29
                            x       y       z     vdW  Elec       q    Type
                         _______ _______ _______ _____ _____    ______ ____

>  <TORSDO>
F 10

$$$$
=
 OpenBabel10272413473D

 30 31  0  0  1  0  0  0  0  0999 V2000
  188.1510  177.9560  142.1150 C   0  0  2  0  0  3  0  0  0  0  0  0
  187.1550  177.2400  144.8290 C   0  0  0  0  0  1  0  0  0  0  0  0
  187.7390  176.2350  143.8900 C   0  0  0  0  0  3  0  0  0  0  0  0
  188.1830  176.5550  142.6690 C   0  0  0  0  0  3  0  0  0  0  0  0
  188.2290  178.3930  139.6520 C   0  0  0  0  0  1  0  0  0  0  0  0
  187.3020  178.0840  140.8240 C   0  0  2  0  0  3  0  0  0  0  0  0
  184.8850  178.7500  140.2950 C   0  0  0  0  0  2  0  0  0  0  0  0
  182.3670  178.4380  141.4040 S   0  0  0  0  0  0  0  0  0  0  0  0
  184.0010  178.7750  141.2670 C   0  0  0  0  0  0  0  0  0  0  0  0
  186.2020  179.1660  140.9390 C   0  0  1  0  0  3  0  0  0  0  0  0
  182.4320  178.7880  143.0770 C   0  0  0  0  0  0  0  0  0  0  0  0
  183.6720  179.1470  143.5040 N   0  0  0  0  0  0  0  0  0  0  0  0
  185.8050  179.3740  142.3930 C   0  0  0  0  0  2  0  0  0  0  0  0
  184.5160  179.1240  142.4480 C   0  0  0  0  0  0  0  0  0  0  0  0
  181.2590  178.7040  143.9850 C   0  0  0  0  0  1  0  0  0  0  0  0
  189.6000  178.4660  141.9770 C   0  0  1  0  0  3  0  0  0  0  0  0
  190.9470  178.3680  144.0490 C   0  0  0  0  0  0  0  0  0  0  0  0
  191.7130  177.7070  144.8740 C   0  0  0  0  0  3  0  0  0  0  0  0
  190.2010  179.0540  143.2230 C   0  0  0  0  0  3  0  0  0  0  0  0
  191.2720  176.4240  145.5000 C   0  0  1  0  0  3  0  0  0  0  0  0
  191.9790  175.2670  144.8220 C   0  0  0  0  0  1  0  0  0  0  0  0
  191.5550  176.3910  146.9690 C   0  0  0  0  0  0  0  0  0  0  0  0
  192.4020  175.5700  147.4080 O   0  0  0  0  0  0  0  0  0  0  0  0
  190.9240  177.2960  147.8290 O   0  0  0  0  0  0  0  0  0  0  0  0
  189.1930  178.4210  146.8140 F   0  0  0  0  0  0  0  0  0  0  0  0
  189.5180  177.5270  147.8170 C   0  0  0  0  0  0  0  0  0  0  0  0
  188.8650  176.3320  147.5860 F   0  0  0  0  0  0  0  0  0  0  0  0
  189.1130  178.0340  149.0400 F   0  0  0  0  0  0  0  0  0  0  0  0
  190.4930  177.5320  141.2740 C   0  0  0  0  0  0  0  0  0  0  0  0
  191.2260  176.7700  140.6960 C   0  0  0  0  0  3  0  0  0  0  0  0
  1  4  1  6  0  0  0
  3  2  1  0  0  0  0
  4  3  2  0  0  0  0
  6  5  1  6  0  0  0
  6  1  1  0  0  0  0
  7 10  1  0  0  0  0
  7  9  1  0  0  0  0
  8 11  1  0  0  0  0
  9  8  1  0  0  0  0
  9 14  2  0  0  0  0
 10  6  1  1  0  0  0
 10 13  1  0  0  0  0
 11 12  2  0  0  0  0
 11 15  1  0  0  0  0
 13 14  1  0  0  0  0
 14 12  1  0  0  0  0
 16 29  1  1  0  0  0
 16  1  1  0  0  0  0
 16 19  1  0  0  0  0
 17 18  2  0  0  0  0
 18 20  1  0  0  0  0
 19 17  2  0  0  0  0
 20 21  1  6  0  0  0
 20 22  1  0  0  0  0
 22 23  2  0  0  0  0
 22 24  1  0  0  0  0
 25 26  1  0  0  0  0
 26 24  1  0  0  0  0
 26 28  1  0  0  0  0
 27 26  1  0  0  0  0
 30 29  3  0  0  0  0
M  END
>  <MODEL>
8

>  <REMARK>
 VINA RESULT:      -7.2      4.252      7.170
  Name = 
  10 active torsions:
  status: ('A' for Active; 'I' for Inactive)
    1  A    between atoms: C_2  and  C_22
    2  A    between atoms: C_4  and  C_27
    3  A    between atoms: C_5  and  C_22
    4  A    between atoms: C_8  and  O_12
    5  A    between atoms: C_8  and  C_27
    6  A    between atoms: C_9  and  O_12
    7  A    between atoms: C_11  and  C_29
    8  A    between atoms: C_19  and  C_22
    9  A    between atoms: C_19  and  C_28
   10  A    between atoms: C_19  and  C_29
                            x       y       z     vdW  Elec       q    Type
                         _______ _______ _______ _____ _____    ______ ____

>  <TORSDO>
F 10

$$$$
=
 OpenBabel10272413473D

 30 31  0  0  1  0  0  0  0  0999 V2000
  188.9720  177.2760  143.3340 C   0  0  2  0  0  3  0  0  0  0  0  0
  191.4880  178.2300  144.6080 C   0  0  0  0  0  1  0  0  0  0  0  0
  190.4780  179.1590  144.0180 C   0  0  0  0  0  3  0  0  0  0  0  0
  189.3490  178.7310  143.4410 C   0  0  0  0  0  3  0  0  0  0  0  0
  190.9060  175.7820  142.7890 C   0  0  0  0  0  1  0  0  0  0  0  0
  189.7190  176.5330  142.1950 C   0  0  2  0  0  3  0  0  0  0  0  0
  191.6090  177.1910  140.5950 C   0  0  0  0  0  2  0  0  0  0  0  0
  192.5420  176.4660  138.0910 S   0  0  0  0  0  0  0  0  0  0  0  0
  191.4930  176.9100  139.3170 C   0  0  0  0  0  0  0  0  0  0  0  0
  190.1920  177.4870  141.0730 C   0  0  1  0  0  3  0  0  0  0  0  0
  191.2290  176.3600  137.0010 C   0  0  0  0  0  0  0  0  0  0  0  0
  190.0300  176.6550  137.5710 N   0  0  0  0  0  0  0  0  0  0  0  0
  189.3710  177.2790  139.8090 C   0  0  0  0  0  2  0  0  0  0  0  0
  190.2350  176.9580  138.8730 C   0  0  0  0  0  0  0  0  0  0  0  0
  191.3700  175.9770  135.5710 C   0  0  0  0  0  1  0  0  0  0  0  0
  187.4360  177.1660  143.2630 C   0  0  1  0  0  3  0  0  0  0  0  0
  187.1260  177.5530  145.6870 C   0  0  0  0  0  0  0  0  0  0  0  0
  187.4820  178.1410  146.7970 C   0  0  0  0  0  3  0  0  0  0  0  0
  186.7400  176.9710  144.5820 C   0  0  0  0  0  3  0  0  0  0  0  0
  188.8720  178.0330  147.3330 C   0  0  1  0  0  3  0  0  0  0  0  0
  188.9410  178.7140  148.6860 C   0  0  0  0  0  1  0  0  0  0  0  0
  189.3120  176.6100  147.4670 C   0  0  0  0  0  0  0  0  0  0  0  0
  188.6220  175.8210  148.1650 O   0  0  0  0  0  0  0  0  0  0  0  0
  190.4460  176.1540  146.7850 O   0  0  0  0  0  0  0  0  0  0  0  0
  192.0360  176.9640  148.2360 F   0  0  0  0  0  0  0  0  0  0  0  0
  191.6890  175.8950  147.4300 C   0  0  0  0  0  0  0  0  0  0  0  0
  191.5660  174.7630  148.2110 F   0  0  0  0  0  0  0  0  0  0  0  0
  192.6770  175.6870  146.4850 F   0  0  0  0  0  0  0  0  0  0  0  0
  186.8070  178.1850  142.4090 C   0  0  0  0  0  0  0  0  0  0  0  0
  186.2940  179.0210  141.7080 C   0  0  0  0  0  3  0  0  0  0  0  0
  1  4  1  6  0  0  0
  3  2  1  0  0  0  0
  4  3  2  0  0  0  0
  6  5  1  1  0  0  0
  6  1  1  0  0  0  0
  7 10  1  0  0  0  0
  8  9  1  0  0  0  0
  9  7  1  0  0  0  0
 10  6  1  1  0  0  0
 11 12  2  0  0  0  0
 11  8  1  0  0  0  0
 12 14  1  0  0  0  0
 13 10  1  0  0  0  0
 14  9  2  0  0  0  0
 14 13  1  0  0  0  0
 15 11  1  0  0  0  0
 16 29  1  1  0  0  0
 16  1  1  0  0  0  0
 16 19  1  0  0  0  0
 17 18  2  0  0  0  0
 18 20  1  0  0  0  0
 19 17  2  0  0  0  0
 20 22  1  0  0  0  0
 20 21  1  1  0  0  0
 22 23  2  0  0  0  0
 24 26  1  0  0  0  0
 24 22  1  0  0  0  0
 26 27  1  0  0  0  0
 26 25  1  0  0  0  0
 28 26  1  0  0  0  0
 30 29  3  0  0  0  0
M  END
>  <MODEL>
9

>  <REMARK>
 VINA RESULT:      -7.1      4.582      5.971
  Name = 
  10 active torsions:
  status: ('A' for Active; 'I' for Inactive)
    1  A    between atoms: C_2  and  C_22
    2  A    between atoms: C_4  and  C_27
    3  A    between atoms: C_5  and  C_22
    4  A    between atoms: C_8  and  O_12
    5  A    between atoms: C_8  and  C_27
    6  A    between atoms: C_9  and  O_12
    7  A    between atoms: C_11  and  C_29
    8  A    between atoms: C_19  and  C_22
    9  A    between atoms: C_19  and  C_28
   10  A    between atoms: C_19  and  C_29
                            x       y       z     vdW  Elec       q    Type
                         _______ _______ _______ _____ _____    ______ ____

>  <TORSDO>
F 10

$$$$
