=
 OpenBabel10272413233D

 32 37  0  0  1  0  0  0  0  0999 V2000
  184.5370  178.3740  138.9840 N   0  0  0  0  0  2  0  0  0  0  0  0
  188.3670  177.7300  142.4450 C   0  0  0  0  0  0  0  0  0  0  0  0
  185.8540  178.2380  146.7060 C   0  0  0  0  0  3  0  0  0  0  0  0
  187.0450  178.1380  147.4240 C   0  0  0  0  0  3  0  0  0  0  0  0
  190.3670  176.3110  143.0440 C   0  0  0  0  0  0  0  0  0  0  0  0
  191.0440  175.9910  144.2720 C   0  0  0  0  0  0  0  0  0  0  0  0
  187.3050  178.1830  140.3430 N   0  0  0  0  0  0  0  0  0  0  0  0
  185.9750  178.2090  142.4180 C   0  0  0  0  0  3  0  0  0  0  0  0
  192.0950  175.8640  146.8290 C   0  0  0  0  0  0  0  0  0  0  0  0
  184.9490  178.9410  140.2620 C   0  0  0  0  0  2  0  0  0  0  0  0
  185.8740  178.2020  145.3120 C   0  0  0  0  0  3  0  0  0  0  0  0
  187.0930  178.0150  143.1320 C   0  0  0  0  0  0  0  0  0  0  0  0
  187.0870  178.0580  144.6150 C   0  0  0  0  0  0  0  0  0  0  0  0
  189.6410  177.8820  144.6400 C   0  0  2  0  0  3  0  0  0  0  0  0
  192.5070  174.9390  145.8490 C   0  0  0  0  0  3  0  0  0  0  0  0
  186.7420  178.0820  137.9630 C   0  0  0  0  0  3  0  0  0  0  0  0
  185.9630  178.0220  140.9270 C   0  0  1  0  0  3  0  0  0  0  0  0
  191.9830  174.9990  144.5490 C   0  0  0  0  0  3  0  0  0  0  0  0
  187.5070  178.7950  139.0350 C   0  0  0  0  0  2  0  0  0  0  0  0
  185.4130  177.9300  137.9330 C   0  0  0  0  0  0  0  0  0  0  0  0
  188.2580  177.9960  146.7460 C   0  0  0  0  0  3  0  0  0  0  0  0
  188.2970  177.9270  145.3450 C   0  0  0  0  0  0  0  0  0  0  0  0
  191.1500  176.8560  146.5180 C   0  0  0  0  0  3  0  0  0  0  0  0
  188.4620  177.8450  141.1170 C   0  0  0  0  0  3  0  0  0  0  0  0
  190.4670  175.6730  141.9620 O   0  0  0  0  0  0  0  0  0  0  0  0
  192.7710  175.7820  148.4410 Cl  0  0  0  0  0  0  0  0  0  0  0  0
  189.5130  177.4350  143.2430 N   0  0  0  0  0  0  0  0  0  0  0  0
  190.6170  176.8880  145.2280 C   0  0  0  0  0  0  0  0  0  0  0  0
  185.6970  177.3350  135.4060 O   0  0  0  0  0  0  0  0  0  0  0  0
  184.7070  177.0980  136.5370 S   0  0  1  0  0  0  0  0  0  0  0  0
  184.8990  175.0450  136.9950 S   0  0  0  0  0  0  0  0  0  0  0  0
  183.3780  175.0560  137.9830 C   0  0  0  0  0  1  0  0  0  0  0  0
  1 10  1  0  0  0  0
  2 12  1  0  0  0  0
  2 27  1  0  0  0  0
  3  4  1  0  0  0  0
  5 27  1  0  0  0  0
  5  6  1  0  0  0  0
  6 18  2  0  0  0  0
  6 28  1  0  0  0  0
  7 17  1  0  0  0  0
  7 24  1  0  0  0  0
  8 12  2  0  0  0  0
  9 26  1  0  0  0  0
 11  3  2  0  0  0  0
 12 13  1  0  0  0  0
 13 11  1  0  0  0  0
 13 22  2  0  0  0  0
 14 28  1  1  0  0  0
 14 22  1  0  0  0  0
 15  9  2  0  0  0  0
 16 19  1  0  0  0  0
 17 10  1  6  0  0  0
 17  8  1  0  0  0  0
 18 15  1  0  0  0  0
 19  7  1  0  0  0  0
 20 16  2  0  0  0  0
 20  1  1  0  0  0  0
 21  4  2  0  0  0  0
 22 21  1  0  0  0  0
 23  9  1  0  0  0  0
 24  2  2  0  0  0  0
 25  5  2  0  0  0  0
 27 14  1  0  0  0  0
 28 23  2  0  0  0  0
 30 29  2  6  0  0  0
 30 31  1  0  0  0  0
 30 20  1  0  0  0  0
 31 32  1  0  0  0  0
M  END
>  <MODEL>
1

>  <REMARK>
 VINA RESULT:      -9.7      0.000      0.000
  Name = 
  2 active torsions:
  status: ('A' for Active; 'I' for Inactive)
    1  A    between atoms: S_1  and  S_20
    2  A    between atoms: S_20  and  C_24
                            x       y       z     vdW  Elec       q    Type
                         _______ _______ _______ _____ _____    ______ ____

>  <TORSDO>
F 2

$$$$
=
 OpenBabel10272413233D

 32 37  0  0  1  0  0  0  0  0999 V2000
  192.2400  175.3510  136.2300 N   0  0  0  0  0  0  0  0  0  0  0  0
  189.3570  177.3340  140.0780 C   0  0  0  0  0  0  0  0  0  0  0  0
  185.0340  178.0380  137.7230 C   0  0  0  0  0  3  0  0  0  0  0  0
  184.5050  178.6360  138.8660 C   0  0  0  0  0  3  0  0  0  0  0  0
  188.7280  177.0720  142.5090 C   0  0  0  0  0  0  0  0  0  0  0  0
  187.5770  177.4250  143.2960 C   0  0  0  0  0  0  0  0  0  0  0  0
  191.3160  176.6850  138.8590 N   0  0  0  0  0  0  0  0  0  0  0  0
  189.1390  176.7930  137.7090 C   0  0  0  0  0  3  0  0  0  0  0  0
  185.2640  178.4890  144.3820 C   0  0  0  0  0  0  0  0  0  0  0  0
  191.2280  176.3850  136.4030 C   0  0  0  0  0  2  0  0  0  0  0  0
  186.3590  177.6030  137.7130 C   0  0  0  0  0  3  0  0  0  0  0  0
  188.5790  177.2790  138.8260 C   0  0  0  0  0  0  0  0  0  0  0  0
  187.1730  177.7530  138.8490 C   0  0  0  0  0  0  0  0  0  0  0  0
  187.4940  178.6210  141.2370 C   0  0  2  0  0  3  0  0  0  0  0  0
  186.0260  177.5580  145.1160 C   0  0  0  0  0  3  0  0  0  0  0  0
  193.4780  175.6700  138.3180 C   0  0  0  0  0  2  0  0  0  0  0  0
  190.5140  176.1850  137.7310 C   0  0  1  0  0  3  0  0  0  0  0  0
  187.2030  177.0180  144.5750 C   0  0  0  0  0  3  0  0  0  0  0  0
  192.7530  176.9100  138.7420 C   0  0  0  0  0  2  0  0  0  0  0  0
  193.2640  175.0020  137.1780 C   0  0  0  0  0  0  0  0  0  0  0  0
  185.3010  178.7940  140.0020 C   0  0  0  0  0  3  0  0  0  0  0  0
  186.6270  178.3350  140.0230 C   0  0  0  0  0  0  0  0  0  0  0  0
  185.6700  178.8840  143.0960 C   0  0  0  0  0  3  0  0  0  0  0  0
  190.6680  177.0790  140.0740 C   0  0  0  0  0  3  0  0  0  0  0  0
  189.6130  176.2370  142.8370 O   0  0  0  0  0  0  0  0  0  0  0  0
  183.8070  179.1620  145.0790 Cl  0  0  0  0  0  0  0  0  0  0  0  0
  188.6940  177.7690  141.2660 N   0  0  0  0  0  0  0  0  0  0  0  0
  186.8280  178.3180  142.5600 C   0  0  0  0  0  0  0  0  0  0  0  0
  195.1310  173.9930  135.6550 O   0  0  0  0  0  0  0  0  0  0  0  0
  194.2770  173.5860  136.8480 S   0  0  1  0  0  0  0  0  0  0  0  0
  195.6280  173.5150  138.4710 S   0  0  0  0  0  0  0  0  0  0  0  0
  196.9320  174.3250  137.5050 C   0  0  0  0  0  1  0  0  0  0  0  0
  1 10  1  0  0  0  0
  1 20  2  0  0  0  0
  2 27  1  0  0  0  0
  3  4  1  0  0  0  0
  4 21  2  0  0  0  0
  5 25  2  0  0  0  0
  5  6  1  0  0  0  0
  6 18  1  0  0  0  0
  7 24  1  0  0  0  0
  8 17  1  0  0  0  0
  8 12  2  0  0  0  0
  9 26  1  0  0  0  0
  9 15  1  0  0  0  0
 11  3  2  0  0  0  0
 11 13  1  0  0  0  0
 12 13  1  0  0  0  0
 12  2  1  0  0  0  0
 13 22  2  0  0  0  0
 14 22  1  6  0  0  0
 14 27  1  0  0  0  0
 14 28  1  0  0  0  0
 16 19  1  0  0  0  0
 17 10  1  6  0  0  0
 17  7  1  0  0  0  0
 18 15  2  0  0  0  0
 19  7  1  0  0  0  0
 20 16  1  0  0  0  0
 21 22  1  0  0  0  0
 23  9  2  0  0  0  0
 24  2  2  0  0  0  0
 27  5  1  0  0  0  0
 28 23  1  0  0  0  0
 28  6  2  0  0  0  0
 30 29  2  6  0  0  0
 30 20  1  0  0  0  0
 30 31  1  0  0  0  0
 32 31  1  0  0  0  0
M  END
>  <MODEL>
2

>  <REMARK>
 VINA RESULT:      -8.9      4.687      7.096
  Name = 
  2 active torsions:
  status: ('A' for Active; 'I' for Inactive)
    1  A    between atoms: S_1  and  S_20
    2  A    between atoms: S_20  and  C_24
                            x       y       z     vdW  Elec       q    Type
                         _______ _______ _______ _____ _____    ______ ____

>  <TORSDO>
F 2

$$$$
=
 OpenBabel10272413233D

 32 37  0  0  1  0  0  0  0  0999 V2000
  181.9850  178.6690  139.8590 N   0  0  0  0  0  2  0  0  0  0  0  0
  186.5300  178.2550  142.3520 C   0  0  0  0  0  0  0  0  0  0  0  0
  184.9770  178.0380  147.0720 C   0  0  0  0  0  3  0  0  0  0  0  0
  186.3000  178.0390  147.5100 C   0  0  0  0  0  3  0  0  0  0  0  0
  188.7630  177.0760  142.3570 C   0  0  0  0  0  0  0  0  0  0  0  0
  189.7260  176.7440  143.3730 C   0  0  0  0  0  0  0  0  0  0  0  0
  184.9870  178.7400  140.5830 N   0  0  0  0  0  0  0  0  0  0  0  0
  184.1520  178.4020  142.8770 C   0  0  0  0  0  3  0  0  0  0  0  0
  191.3220  176.5390  145.6250 C   0  0  0  0  0  0  0  0  0  0  0  0
  182.6000  179.1730  141.0800 C   0  0  0  0  0  2  0  0  0  0  0  0
  184.6940  178.1270  145.7090 C   0  0  0  0  0  3  0  0  0  0  0  0
  185.4150  178.3010  143.3170 C   0  0  0  0  0  0  0  0  0  0  0  0
  185.7310  178.2130  144.7640 C   0  0  0  0  0  0  0  0  0  0  0  0
  188.2310  178.3860  144.2380 C   0  0  2  0  0  3  0  0  0  0  0  0
  191.6110  175.7690  144.4810 C   0  0  0  0  0  3  0  0  0  0  0  0
  183.9290  178.7720  138.3760 C   0  0  0  0  0  3  0  0  0  0  0  0
  183.8340  178.3470  141.4100 C   0  0  1  0  0  3  0  0  0  0  0  0
  190.8100  175.8700  143.3330 C   0  0  0  0  0  3  0  0  0  0  0  0
  184.8250  179.4860  139.3410 C   0  0  0  0  0  2  0  0  0  0  0  0
  182.6530  178.4430  138.6050 C   0  0  0  0  0  0  0  0  0  0  0  0
  187.3420  178.1250  146.5850 C   0  0  0  0  0  3  0  0  0  0  0  0
  187.0790  178.1850  145.2070 C   0  0  0  0  0  0  0  0  0  0  0  0
  190.2240  177.4160  145.6320 C   0  0  0  0  0  3  0  0  0  0  0  0
  186.3170  178.4970  141.0560 C   0  0  0  0  0  3  0  0  0  0  0  0
  188.6950  176.5540  141.2120 O   0  0  0  0  0  0  0  0  0  0  0  0
  192.3410  176.4100  147.0410 Cl  0  0  0  0  0  0  0  0  0  0  0  0
  187.8500  178.0500  142.8570 N   0  0  0  0  0  0  0  0  0  0  0  0
  189.4200  177.4880  144.4930 C   0  0  0  0  0  0  0  0  0  0  0  0
  182.8140  177.3050  136.2590 O   0  0  0  0  0  0  0  0  0  0  0  0
  181.7560  177.6480  137.2990 S   0  0  1  0  0  0  0  0  0  0  0  0
  181.1830  175.7840  138.1130 S   0  0  0  0  0  0  0  0  0  0  0  0
  182.8780  175.1460  138.0110 C   0  0  0  0  0  1  0  0  0  0  0  0
  1 10  1  0  0  0  0
  2 27  1  0  0  0  0
  2 12  1  0  0  0  0
  3  4  1  0  0  0  0
  5 27  1  0  0  0  0
  5  6  1  0  0  0  0
  6 28  1  0  0  0  0
  7 24  1  0  0  0  0
  7 17  1  0  0  0  0
  8 12  2  0  0  0  0
  9 23  1  0  0  0  0
  9 26  1  0  0  0  0
 11  3  2  0  0  0  0
 12 13  1  0  0  0  0
 13 22  2  0  0  0  0
 13 11  1  0  0  0  0
 14 28  1  1  0  0  0
 14 22  1  0  0  0  0
 15  9  2  0  0  0  0
 16 20  2  0  0  0  0
 16 19  1  0  0  0  0
 17 10  1  1  0  0  0
 17  8  1  0  0  0  0
 18  6  2  0  0  0  0
 18 15  1  0  0  0  0
 19  7  1  0  0  0  0
 20  1  1  0  0  0  0
 21  4  2  0  0  0  0
 22 21  1  0  0  0  0
 24  2  2  0  0  0  0
 25  5  2  0  0  0  0
 27 14  1  0  0  0  0
 28 23  2  0  0  0  0
 30 29  2  6  0  0  0
 30 31  1  0  0  0  0
 30 20  1  0  0  0  0
 32 31  1  0  0  0  0
M  END
>  <MODEL>
3

>  <REMARK>
 VINA RESULT:      -8.8      1.695      2.086
  Name = 
  2 active torsions:
  status: ('A' for Active; 'I' for Inactive)
    1  A    between atoms: S_1  and  S_20
    2  A    between atoms: S_20  and  C_24
                            x       y       z     vdW  Elec       q    Type
                         _______ _______ _______ _____ _____    ______ ____

>  <TORSDO>
F 2

$$$$
=
 OpenBabel10272413233D

 32 37  0  0  1  0  0  0  0  0999 V2000
  194.3570  176.3730  137.6780 N   0  0  0  0  0  2  0  0  0  0  0  0
  189.8950  176.9240  140.2940 C   0  0  0  0  0  0  0  0  0  0  0  0
  191.6150  178.0430  144.8250 C   0  0  0  0  0  3  0  0  0  0  0  0
  190.3130  178.0340  145.3240 C   0  0  0  0  0  3  0  0  0  0  0  0
  187.5870  177.9440  140.2130 C   0  0  0  0  0  0  0  0  0  0  0  0
  186.6440  178.3830  141.2060 C   0  0  0  0  0  0  0  0  0  0  0  0
  191.3980  176.2400  138.5560 N   0  0  0  0  0  0  0  0  0  0  0  0
  192.2970  177.0180  140.7150 C   0  0  0  0  0  3  0  0  0  0  0  0
  185.1270  178.8710  143.4700 C   0  0  0  0  0  0  0  0  0  0  0  0
  193.8270  176.0490  138.9960 C   0  0  0  0  0  2  0  0  0  0  0  0
  191.8490  177.7400  143.4840 C   0  0  0  0  0  3  0  0  0  0  0  0
  191.0480  177.1140  141.1950 C   0  0  0  0  0  0  0  0  0  0  0  0
  190.7840  177.4280  142.6200 C   0  0  0  0  0  0  0  0  0  0  0  0
  188.2840  177.0110  142.2590 C   0  0  2  0  0  3  0  0  0  0  0  0
  184.7400  179.4140  142.2290 C   0  0  0  0  0  3  0  0  0  0  0  0
  192.3680  175.8960  136.3340 C   0  0  0  0  0  3  0  0  0  0  0  0
  192.5530  176.8400  139.2450 C   0  0  1  0  0  3  0  0  0  0  0  0
  185.5010  179.1680  141.0750 C   0  0  0  0  0  3  0  0  0  0  0  0
  191.5640  175.3030  137.4500 C   0  0  0  0  0  2  0  0  0  0  0  0
  193.6260  176.3390  136.4400 C   0  0  0  0  0  0  0  0  0  0  0  0
  189.2440  177.7260  144.4800 C   0  0  0  0  0  3  0  0  0  0  0  0
  189.4560  177.4480  143.1200 C   0  0  0  0  0  0  0  0  0  0  0  0
  186.2840  178.0790  143.5690 C   0  0  0  0  0  3  0  0  0  0  0  0
  190.0740  176.4760  139.0480 C   0  0  0  0  0  3  0  0  0  0  0  0
  187.5730  178.2640  138.9950 O   0  0  0  0  0  0  0  0  0  0  0  0
  184.1580  179.1770  144.8940 Cl  0  0  0  0  0  0  0  0  0  0  0  0
  188.5850  177.1280  140.8230 N   0  0  0  0  0  0  0  0  0  0  0  0
  187.0460  177.8640  142.4190 C   0  0  0  0  0  0  0  0  0  0  0  0
  195.3570  178.0390  135.4710 O   0  0  0  0  0  0  0  0  0  0  0  0
  194.4120  176.9530  134.9750 S   0  0  1  0  0  0  0  0  0  0  0  0
  195.6820  175.3800  134.3610 S   0  0  0  0  0  0  0  0  0  0  0  0
  197.1230  176.1480  135.1510 C   0  0  0  0  0  1  0  0  0  0  0  0
  1 10  1  0  0  0  0
  2 27  1  0  0  0  0
  2 12  1  0  0  0  0
  3  4  1  0  0  0  0
  5 27  1  0  0  0  0
  5  6  1  0  0  0  0
  6 28  1  0  0  0  0
  7 24  1  0  0  0  0
  7 17  1  0  0  0  0
  8 12  2  0  0  0  0
  9 23  1  0  0  0  0
  9 26  1  0  0  0  0
 11  3  2  0  0  0  0
 12 13  1  0  0  0  0
 13 22  2  0  0  0  0
 13 11  1  0  0  0  0
 14 28  1  1  0  0  0
 14 22  1  0  0  0  0
 15  9  2  0  0  0  0
 16 20  2  0  0  0  0
 16 19  1  0  0  0  0
 17 10  1  1  0  0  0
 17  8  1  0  0  0  0
 18  6  2  0  0  0  0
 18 15  1  0  0  0  0
 19  7  1  0  0  0  0
 20  1  1  0  0  0  0
 21  4  2  0  0  0  0
 22 21  1  0  0  0  0
 24  2  2  0  0  0  0
 25  5  2  0  0  0  0
 27 14  1  0  0  0  0
 28 23  2  0  0  0  0
 30 29  2  1  0  0  0
 30 20  1  0  0  0  0
 31 30  1  0  0  0  0
 31 32  1  0  0  0  0
M  END
>  <MODEL>
4

>  <REMARK>
 VINA RESULT:      -8.4      5.039      7.068
  Name = 
  2 active torsions:
  status: ('A' for Active; 'I' for Inactive)
    1  A    between atoms: S_1  and  S_20
    2  A    between atoms: S_20  and  C_24
                            x       y       z     vdW  Elec       q    Type
                         _______ _______ _______ _____ _____    ______ ____

>  <TORSDO>
F 2

$$$$
=
 OpenBabel10272413233D

 32 37  0  0  1  0  0  0  0  0999 V2000
  192.7800  174.6090  135.4230 N   0  0  0  0  0  0  0  0  0  0  0  0
  189.9940  176.8810  139.1830 C   0  0  0  0  0  0  0  0  0  0  0  0
  185.6260  177.4540  136.8750 C   0  0  0  0  0  3  0  0  0  0  0  0
  185.1260  178.1340  137.9850 C   0  0  0  0  0  3  0  0  0  0  0  0
  189.4170  176.7950  141.6390 C   0  0  0  0  0  0  0  0  0  0  0  0
  188.2860  177.2120  142.4230 C   0  0  0  0  0  0  0  0  0  0  0  0
  191.9230  176.1310  137.9710 N   0  0  0  0  0  0  0  0  0  0  0  0
  189.7220  176.1770  136.8630 C   0  0  0  0  0  3  0  0  0  0  0  0
  186.0030  178.3680  143.4800 C   0  0  0  0  0  0  0  0  0  0  0  0
  191.7790  175.6610  135.5450 C   0  0  0  0  0  2  0  0  0  0  0  0
  186.9470  177.0080  136.8680 C   0  0  0  0  0  3  0  0  0  0  0  0
  189.1890  176.7450  137.9540 C   0  0  0  0  0  0  0  0  0  0  0  0
  187.7870  177.2310  137.9730 C   0  0  0  0  0  0  0  0  0  0  0  0
  188.1660  178.2610  140.2870 C   0  0  2  0  0  3  0  0  0  0  0  0
  186.7750  177.4850  144.2610 C   0  0  0  0  0  3  0  0  0  0  0  0
  194.0650  175.0630  137.4570 C   0  0  0  0  0  2  0  0  0  0  0  0
  191.0920  175.5610  136.8980 C   0  0  1  0  0  3  0  0  0  0  0  0
  187.9360  176.8990  143.7350 C   0  0  0  0  0  3  0  0  0  0  0  0
  193.3570  176.3360  137.8080 C   0  0  0  0  0  2  0  0  0  0  0  0
  193.8220  174.3190  136.3720 C   0  0  0  0  0  0  0  0  0  0  0  0
  185.9480  178.3650  139.0900 C   0  0  0  0  0  3  0  0  0  0  0  0
  187.2710  177.8980  139.1150 C   0  0  0  0  0  0  0  0  0  0  0  0
  186.3840  178.6690  142.1620 C   0  0  0  0  0  3  0  0  0  0  0  0
  191.3040  176.6150  139.1690 C   0  0  0  0  0  3  0  0  0  0  0  0
  190.3030  175.9780  142.0050 O   0  0  0  0  0  0  0  0  0  0  0  0
  184.5660  179.1010  144.1590 Cl  0  0  0  0  0  0  0  0  0  0  0  0
  189.3600  177.4030  140.3510 N   0  0  0  0  0  0  0  0  0  0  0  0
  187.5270  178.0580  141.6420 C   0  0  0  0  0  0  0  0  0  0  0  0
  196.0730  173.3880  135.4280 O   0  0  0  0  0  0  0  0  0  0  0  0
  194.8180  172.8750  136.1200 S   0  0  1  0  0  0  0  0  0  0  0  0
  195.4610  172.3350  138.0590 S   0  0  0  0  0  0  0  0  0  0  0  0
  197.2040  172.5770  137.6190 C   0  0  0  0  0  1  0  0  0  0  0  0
  1 10  1  0  0  0  0
  1 20  2  0  0  0  0
  2 27  1  0  0  0  0
  3  4  1  0  0  0  0
  4 21  2  0  0  0  0
  5 25  2  0  0  0  0
  5  6  1  0  0  0  0
  6 18  1  0  0  0  0
  7 24  1  0  0  0  0
  8 17  1  0  0  0  0
  8 12  2  0  0  0  0
  9 26  1  0  0  0  0
  9 15  1  0  0  0  0
 11  3  2  0  0  0  0
 11 13  1  0  0  0  0
 12 13  1  0  0  0  0
 12  2  1  0  0  0  0
 13 22  2  0  0  0  0
 14 22  1  6  0  0  0
 14 27  1  0  0  0  0
 14 28  1  0  0  0  0
 16 19  1  0  0  0  0
 17 10  1  6  0  0  0
 17  7  1  0  0  0  0
 18 15  2  0  0  0  0
 19  7  1  0  0  0  0
 20 16  1  0  0  0  0
 21 22  1  0  0  0  0
 23  9  2  0  0  0  0
 24  2  2  0  0  0  0
 27  5  1  0  0  0  0
 28 23  1  0  0  0  0
 28  6  2  0  0  0  0
 30 29  2  6  0  0  0
 30 20  1  0  0  0  0
 30 31  1  0  0  0  0
 32 31  1  0  0  0  0
M  END
>  <MODEL>
5

>  <REMARK>
 VINA RESULT:      -8.3      5.155      7.617
  Name = 
  2 active torsions:
  status: ('A' for Active; 'I' for Inactive)
    1  A    between atoms: S_1  and  S_20
    2  A    between atoms: S_20  and  C_24
                            x       y       z     vdW  Elec       q    Type
                         _______ _______ _______ _____ _____    ______ ____

>  <TORSDO>
F 2

$$$$
=
 OpenBabel10272413233D

 32 37  0  0  1  0  0  0  0  0999 V2000
  190.8240  176.1730  136.6460 N   0  0  0  0  0  0  0  0  0  0  0  0
  190.3910  177.3380  141.6970 C   0  0  0  0  0  0  0  0  0  0  0  0
  185.5130  178.2570  142.0160 C   0  0  0  0  0  3  0  0  0  0  0  0
  185.6670  178.6250  143.3520 C   0  0  0  0  0  3  0  0  0  0  0  0
  191.0650  176.6340  144.0260 C   0  0  0  0  0  0  0  0  0  0  0  0
  190.4900  176.7970  145.3340 C   0  0  0  0  0  0  0  0  0  0  0  0
  191.4280  176.9920  139.5630 N   0  0  0  0  0  0  0  0  0  0  0  0
  188.9770  177.2060  139.7130 C   0  0  0  0  0  3  0  0  0  0  0  0
  189.1030  177.5590  147.6050 C   0  0  0  0  0  0  0  0  0  0  0  0
  190.0930  177.1180  137.4810 C   0  0  0  0  0  2  0  0  0  0  0  0
  186.6260  177.8850  141.2620 C   0  0  0  0  0  3  0  0  0  0  0  0
  189.0840  177.4680  141.0230 C   0  0  0  0  0  0  0  0  0  0  0  0
  187.9100  177.8710  141.8350 C   0  0  0  0  0  0  0  0  0  0  0  0
  189.4400  178.3260  143.8390 C   0  0  2  0  0  3  0  0  0  0  0  0
  190.0820  176.5480  147.6800 C   0  0  0  0  0  3  0  0  0  0  0  0
  192.9620  176.1780  137.8380 C   0  0  0  0  0  2  0  0  0  0  0  0
  190.1390  176.6620  138.9310 C   0  0  1  0  0  3  0  0  0  0  0  0
  190.7940  176.1590  146.5350 C   0  0  0  0  0  3  0  0  0  0  0  0
  192.6170  177.2940  138.7740 C   0  0  0  0  0  2  0  0  0  0  0  0
  192.1670  175.7080  136.8690 C   0  0  0  0  0  0  0  0  0  0  0  0
  186.9360  178.6170  143.9360 C   0  0  0  0  0  3  0  0  0  0  0  0
  188.0640  178.2180  143.2030 C   0  0  0  0  0  0  0  0  0  0  0  0
  188.8230  178.1870  146.3800 C   0  0  0  0  0  3  0  0  0  0  0  0
  191.5040  177.1430  140.9850 C   0  0  0  0  0  3  0  0  0  0  0  0
  191.9490  175.7930  143.7120 O   0  0  0  0  0  0  0  0  0  0  0  0
  188.2360  178.0400  149.0470 Cl  0  0  0  0  0  0  0  0  0  0  0  0
  190.4430  177.5330  143.1100 N   0  0  0  0  0  0  0  0  0  0  0  0
  189.5190  177.7720  145.2430 C   0  0  0  0  0  0  0  0  0  0  0  0
  193.6240  175.1340  134.7780 O   0  0  0  0  0  0  0  0  0  0  0  0
  192.7980  174.4140  135.8360 S   0  0  1  0  0  0  0  0  0  0  0  0
  194.2220  173.4250  137.0430 S   0  0  0  0  0  0  0  0  0  0  0  0
  195.6000  174.0510  136.0430 C   0  0  0  0  0  1  0  0  0  0  0  0
  1 20  2  0  0  0  0
  1 10  1  0  0  0  0
  2 27  1  0  0  0  0
  3  4  1  0  0  0  0
  4 21  2  0  0  0  0
  5  6  1  0  0  0  0
  6 18  1  0  0  0  0
  7 24  1  0  0  0  0
  8 12  2  0  0  0  0
  9 15  1  0  0  0  0
  9 26  1  0  0  0  0
 11 13  1  0  0  0  0
 11  3  2  0  0  0  0
 12  2  1  0  0  0  0
 12 13  1  0  0  0  0
 13 22  2  0  0  0  0
 14 22  1  6  0  0  0
 14 28  1  0  0  0  0
 16 19  1  0  0  0  0
 17 10  1  6  0  0  0
 17  7  1  0  0  0  0
 17  8  1  0  0  0  0
 18 15  2  0  0  0  0
 19  7  1  0  0  0  0
 20 16  1  0  0  0  0
 22 21  1  0  0  0  0
 23  9  2  0  0  0  0
 24  2  2  0  0  0  0
 25  5  2  0  0  0  0
 27 14  1  0  0  0  0
 27  5  1  0  0  0  0
 28  6  2  0  0  0  0
 28 23  1  0  0  0  0
 30 29  2  6  0  0  0
 30 20  1  0  0  0  0
 30 31  1  0  0  0  0
 32 31  1  0  0  0  0
M  END
>  <MODEL>
6

>  <REMARK>
 VINA RESULT:      -7.9      4.009      5.110
  Name = 
  2 active torsions:
  status: ('A' for Active; 'I' for Inactive)
    1  A    between atoms: S_1  and  S_20
    2  A    between atoms: S_20  and  C_24
                            x       y       z     vdW  Elec       q    Type
                         _______ _______ _______ _____ _____    ______ ____

>  <TORSDO>
F 2

$$$$
=
 OpenBabel10272413233D

 32 37  0  0  1  0  0  0  0  0999 V2000
  193.9270  175.0840  137.4270 N   0  0  0  0  0  0  0  0  0  0  0  0
  190.0360  177.3380  140.0420 C   0  0  0  0  0  0  0  0  0  0  0  0
  186.3590  176.9800  136.7130 C   0  0  0  0  0  3  0  0  0  0  0  0
  185.5190  177.7040  137.5590 C   0  0  0  0  0  3  0  0  0  0  0  0
  188.8700  177.4550  142.2780 C   0  0  0  0  0  0  0  0  0  0  0  0
  187.5360  177.7870  142.7020 C   0  0  0  0  0  0  0  0  0  0  0  0
  192.2820  176.7480  139.4440 N   0  0  0  0  0  0  0  0  0  0  0  0
  190.4430  176.3350  137.8550 C   0  0  0  0  0  3  0  0  0  0  0  0
  184.9430  178.7050  143.0080 C   0  0  0  0  0  0  0  0  0  0  0  0
  192.8120  175.9810  137.1500 C   0  0  0  0  0  2  0  0  0  0  0  0
  187.6810  176.7380  137.0840 C   0  0  0  0  0  3  0  0  0  0  0  0
  189.5890  176.9410  138.6930 C   0  0  0  0  0  0  0  0  0  0  0  0
  188.1820  177.2110  138.3090 C   0  0  0  0  0  0  0  0  0  0  0  0
  187.8410  178.5500  140.4660 C   0  0  2  0  0  3  0  0  0  0  0  0
  185.5890  178.0450  144.0720 C   0  0  0  0  0  3  0  0  0  0  0  0
  194.5930  175.9580  139.6130 C   0  0  0  0  0  2  0  0  0  0  0  0
  191.8220  175.9390  138.3030 C   0  0  1  0  0  3  0  0  0  0  0  0
  186.9050  177.5800  143.9270 C   0  0  0  0  0  3  0  0  0  0  0  0
  193.6780  177.1440  139.5940 C   0  0  0  0  0  2  0  0  0  0  0  0
  194.7210  175.0650  138.6260 C   0  0  0  0  0  0  0  0  0  0  0  0
  186.0010  178.1810  138.7790 C   0  0  0  0  0  3  0  0  0  0  0  0
  187.3200  177.9230  139.1840 C   0  0  0  0  0  0  0  0  0  0  0  0
  185.6080  178.9030  141.7860 C   0  0  0  0  0  3  0  0  0  0  0  0
  191.3280  177.2710  140.3760 C   0  0  0  0  0  3  0  0  0  0  0  0
  189.7230  176.8270  142.9600 O   0  0  0  0  0  0  0  0  0  0  0  0
  183.3060  179.2900  143.2120 Cl  0  0  0  0  0  0  0  0  0  0  0  0
  189.0710  177.8930  140.9360 N   0  0  0  0  0  0  0  0  0  0  0  0
  186.9080  178.4130  141.6470 C   0  0  0  0  0  0  0  0  0  0  0  0
  195.1560  172.4940  138.4710 O   0  0  0  0  0  0  0  0  0  0  0  0
  195.9080  173.7660  138.8350 S   0  0  1  0  0  0  0  0  0  0  0  0
  197.2790  174.0470  137.2520 S   0  0  0  0  0  0  0  0  0  0  0  0
  198.5730  174.6190  138.3870 C   0  0  0  0  0  1  0  0  0  0  0  0
  1 20  2  0  0  0  0
  2 24  2  0  0  0  0
  2 27  1  0  0  0  0
  3 11  2  0  0  0  0
  3  4  1  0  0  0  0
  4 21  2  0  0  0  0
  5  6  1  0  0  0  0
  5 25  2  0  0  0  0
  6 18  1  0  0  0  0
  7 19  1  0  0  0  0
  7 24  1  0  0  0  0
  8 17  1  0  0  0  0
  8 12  2  0  0  0  0
  9 26  1  0  0  0  0
  9 15  1  0  0  0  0
 10  1  1  0  0  0  0
 11 13  1  0  0  0  0
 12  2  1  0  0  0  0
 13 12  1  0  0  0  0
 13 22  2  0  0  0  0
 14 22  1  6  0  0  0
 14 27  1  0  0  0  0
 14 28  1  0  0  0  0
 17 10  1  6  0  0  0
 17  7  1  0  0  0  0
 18 15  2  0  0  0  0
 19 16  1  0  0  0  0
 20 30  1  0  0  0  0
 20 16  1  0  0  0  0
 21 22  1  0  0  0  0
 23  9  2  0  0  0  0
 27  5  1  0  0  0  0
 28 23  1  0  0  0  0
 28  6  2  0  0  0  0
 30 29  2  6  0  0  0
 31 32  1  0  0  0  0
 31 30  1  0  0  0  0
M  END
>  <MODEL>
7

>  <REMARK>
 VINA RESULT:      -7.8      5.107      8.019
  Name = 
  2 active torsions:
  status: ('A' for Active; 'I' for Inactive)
    1  A    between atoms: S_1  and  S_20
    2  A    between atoms: S_20  and  C_24
                            x       y       z     vdW  Elec       q    Type
                         _______ _______ _______ _____ _____    ______ ____

>  <TORSDO>
F 2

$$$$
=
 OpenBabel10272413233D

 32 37  0  0  1  0  0  0  0  0999 V2000
  183.2360  178.8960  142.6210 N   0  0  0  0  0  2  0  0  0  0  0  0
  187.6600  177.8940  140.0760 C   0  0  0  0  0  0  0  0  0  0  0  0
  190.8190  177.3830  143.8830 C   0  0  0  0  0  3  0  0  0  0  0  0
  191.8790  177.2380  142.9880 C   0  0  0  0  0  3  0  0  0  0  0  0
  188.6850  176.5430  138.2050 C   0  0  0  0  0  0  0  0  0  0  0  0
  190.0060  176.0450  137.9280 C   0  0  0  0  0  0  0  0  0  0  0  0
  185.4190  178.6580  140.4470 N   0  0  0  0  0  0  0  0  0  0  0  0
  186.8860  178.1850  142.3710 C   0  0  0  0  0  3  0  0  0  0  0  0
  192.7170  175.5120  137.7590 C   0  0  0  0  0  0  0  0  0  0  0  0
  184.6490  179.2370  142.7280 C   0  0  0  0  0  2  0  0  0  0  0  0
  189.5300  177.6160  143.4050 C   0  0  0  0  0  3  0  0  0  0  0  0
  187.9020  177.9440  141.5300 C   0  0  0  0  0  0  0  0  0  0  0  0
  189.2800  177.7020  142.0240 C   0  0  0  0  0  0  0  0  0  0  0  0
  190.1560  177.7180  139.6180 C   0  0  2  0  0  3  0  0  0  0  0  0
  191.8080  174.8250  136.9290 C   0  0  0  0  0  3  0  0  0  0  0  0
  183.0050  178.9730  140.1860 C   0  0  0  0  0  3  0  0  0  0  0  0
  185.4720  178.2880  141.8710 C   0  0  1  0  0  3  0  0  0  0  0  0
  190.4330  175.0930  137.0040 C   0  0  0  0  0  3  0  0  0  0  0  0
  184.3720  179.5240  139.9160 C   0  0  0  0  0  2  0  0  0  0  0  0
  182.4960  178.7290  141.3990 C   0  0  0  0  0  0  0  0  0  0  0  0
  191.6470  177.3210  141.6140 C   0  0  0  0  0  3  0  0  0  0  0  0
  190.3520  177.5250  141.1120 C   0  0  0  0  0  0  0  0  0  0  0  0
  192.2560  176.4700  138.6770 C   0  0  0  0  0  3  0  0  0  0  0  0
  186.4810  178.2680  139.5700 C   0  0  0  0  0  3  0  0  0  0  0  0
  187.6200  176.1330  137.6720 O   0  0  0  0  0  0  0  0  0  0  0  0
  194.4300  175.1740  137.6400 Cl  0  0  0  0  0  0  0  0  0  0  0  0
  188.7490  177.5390  139.2230 N   0  0  0  0  0  0  0  0  0  0  0  0
  190.8830  176.7080  138.7610 C   0  0  0  0  0  0  0  0  0  0  0  0
  179.9840  179.3750  141.7050 O   0  0  0  0  0  0  0  0  0  0  0  0
  180.8310  178.1290  141.4920 S   0  0  1  0  0  0  0  0  0  0  0  0
  180.3840  177.5100  139.5220 S   0  0  0  0  0  0  0  0  0  0  0  0
  180.3180  175.7660  140.0170 C   0  0  0  0  0  1  0  0  0  0  0  0
  1 10  1  0  0  0  0
  2 12  1  0  0  0  0
  4  3  2  0  0  0  0
  5 27  1  0  0  0  0
  6  5  1  0  0  0  0
  6 28  1  0  0  0  0
  7 17  1  0  0  0  0
  9 23  1  0  0  0  0
 11  3  1  0  0  0  0
 12 13  1  0  0  0  0
 12  8  2  0  0  0  0
 13 11  2  0  0  0  0
 14 28  1  6  0  0  0
 14 22  1  0  0  0  0
 15 18  1  0  0  0  0
 15  9  2  0  0  0  0
 16 20  2  0  0  0  0
 17  8  1  1  0  0  0
 17 10  1  0  0  0  0
 18  6  2  0  0  0  0
 19 16  1  0  0  0  0
 19  7  1  0  0  0  0
 20 30  1  0  0  0  0
 20  1  1  0  0  0  0
 21  4  1  0  0  0  0
 22 21  2  0  0  0  0
 22 13  1  0  0  0  0
 23 28  2  0  0  0  0
 24  2  2  0  0  0  0
 24  7  1  0  0  0  0
 25  5  2  0  0  0  0
 26  9  1  0  0  0  0
 27 14  1  0  0  0  0
 27  2  1  0  0  0  0
 30 29  2  6  0  0  0
 31 32  1  0  0  0  0
 31 30  1  0  0  0  0
M  END
>  <MODEL>
8

>  <REMARK>
 VINA RESULT:      -7.8      3.965      5.616
  Name = 
  2 active torsions:
  status: ('A' for Active; 'I' for Inactive)
    1  A    between atoms: S_1  and  S_20
    2  A    between atoms: S_20  and  C_24
                            x       y       z     vdW  Elec       q    Type
                         _______ _______ _______ _____ _____    ______ ____

>  <TORSDO>
F 2

$$$$
=
 OpenBabel10272413233D

 32 37  0  0  1  0  0  0  0  0999 V2000
  183.2980  178.8570  141.2560 N   0  0  0  0  0  2  0  0  0  0  0  0
  187.9590  177.6820  139.2670 C   0  0  0  0  0  0  0  0  0  0  0  0
  190.7450  177.6760  143.3870 C   0  0  0  0  0  3  0  0  0  0  0  0
  191.8870  177.4570  142.6180 C   0  0  0  0  0  3  0  0  0  0  0  0
  189.1750  176.1550  137.6670 C   0  0  0  0  0  0  0  0  0  0  0  0
  190.5230  175.6610  137.5730 C   0  0  0  0  0  0  0  0  0  0  0  0
  185.6820  178.4300  139.3380 N   0  0  0  0  0  0  0  0  0  0  0  0
  186.9640  178.2100  141.4320 C   0  0  0  0  0  3  0  0  0  0  0  0
  193.2450  175.1770  137.7210 C   0  0  0  0  0  0  0  0  0  0  0  0
  184.6900  179.2410  141.4560 C   0  0  0  0  0  2  0  0  0  0  0  0
  189.5040  177.8230  142.7670 C   0  0  0  0  0  3  0  0  0  0  0  0
  188.0590  177.9000  140.7230 C   0  0  0  0  0  0  0  0  0  0  0  0
  189.3860  177.7480  141.3680 C   0  0  0  0  0  0  0  0  0  0  0  0
  190.4880  177.5160  139.0680 C   0  0  2  0  0  3  0  0  0  0  0  0
  192.4290  174.3800  136.8920 C   0  0  0  0  0  3  0  0  0  0  0  0
  183.3000  178.6550  138.8170 C   0  0  0  0  0  3  0  0  0  0  0  0
  185.6030  178.2220  140.7930 C   0  0  1  0  0  3  0  0  0  0  0  0
  191.0490  174.6220  136.8080 C   0  0  0  0  0  3  0  0  0  0  0  0
  184.6790  179.2050  138.6160 C   0  0  0  0  0  2  0  0  0  0  0  0
  182.6810  178.5370  139.9970 C   0  0  0  0  0  0  0  0  0  0  0  0
  191.7870  177.3810  141.2270 C   0  0  0  0  0  3  0  0  0  0  0  0
  190.5430  177.4960  140.5860 C   0  0  0  0  0  0  0  0  0  0  0  0
  192.6860  176.2210  138.4770 C   0  0  0  0  0  3  0  0  0  0  0  0
  186.8290  177.9690  138.6150 C   0  0  0  0  0  3  0  0  0  0  0  0
  188.1710  175.6630  137.0870 O   0  0  0  0  0  0  0  0  0  0  0  0
  194.9650  174.8690  137.8020 Cl  0  0  0  0  0  0  0  0  0  0  0  0
  189.1290  177.2600  138.5660 N   0  0  0  0  0  0  0  0  0  0  0  0
  191.3080  176.4340  138.4040 C   0  0  0  0  0  0  0  0  0  0  0  0
  181.1820  176.3980  140.0310 O   0  0  0  0  0  0  0  0  0  0  0  0
  181.0230  177.9110  140.0020 S   0  0  1  0  0  0  0  0  0  0  0  0
  180.2790  178.4070  141.9160 S   0  0  0  0  0  0  0  0  0  0  0  0
  179.9830  180.1280  141.4260 C   0  0  0  0  0  1  0  0  0  0  0  0
  1 10  1  0  0  0  0
  2 12  1  0  0  0  0
  4  3  2  0  0  0  0
  5 27  1  0  0  0  0
  6  5  1  0  0  0  0
  6 28  1  0  0  0  0
  7 17  1  0  0  0  0
  9 26  1  0  0  0  0
  9 23  1  0  0  0  0
 11  3  1  0  0  0  0
 12 13  1  0  0  0  0
 12  8  2  0  0  0  0
 13 11  2  0  0  0  0
 14 28  1  6  0  0  0
 14 22  1  0  0  0  0
 15  9  2  0  0  0  0
 16 20  2  0  0  0  0
 17  8  1  1  0  0  0
 17 10  1  0  0  0  0
 18 15  1  0  0  0  0
 18  6  2  0  0  0  0
 19 16  1  0  0  0  0
 19  7  1  0  0  0  0
 20 30  1  0  0  0  0
 20  1  1  0  0  0  0
 21  4  1  0  0  0  0
 22 21  2  0  0  0  0
 22 13  1  0  0  0  0
 24  2  2  0  0  0  0
 24  7  1  0  0  0  0
 25  5  2  0  0  0  0
 27 14  1  0  0  0  0
 27  2  1  0  0  0  0
 28 23  2  0  0  0  0
 30 29  2  1  0  0  0
 30 31  1  0  0  0  0
 32 31  1  0  0  0  0
M  END
>  <MODEL>
9

>  <REMARK>
 VINA RESULT:      -7.0      4.062      5.745
  Name = 
  2 active torsions:
  status: ('A' for Active; 'I' for Inactive)
    1  A    between atoms: S_1  and  S_20
    2  A    between atoms: S_20  and  C_24
                            x       y       z     vdW  Elec       q    Type
                         _______ _______ _______ _____ _____    ______ ____

>  <TORSDO>
F 2

$$$$
