=
 OpenBabel10272400233D

 31 34  0  0  1  0  0  0  0  0999 V2000
  190.4660  177.1530  146.4780 C   0  0  0  0  0  0  0  0  0  0  0  0
  187.7010  177.2690  143.8040 C   0  0  2  0  0  3  0  0  0  0  0  0
  186.5430  177.8770  144.5930 C   0  0  0  0  0  0  0  0  0  0  0  0
  185.2090  177.9480  146.6320 C   0  0  0  0  0  3  0  0  0  0  0  0
  189.0600  177.2060  144.4890 C   0  0  0  0  0  0  0  0  0  0  0  0
  191.5930  176.9270  145.6870 C   0  0  0  0  0  3  0  0  0  0  0  0
  186.3170  177.4850  145.9210 C   0  0  0  0  0  3  0  0  0  0  0  0
  188.8250  177.0260  141.5770 C   0  0  1  0  0  3  0  0  0  0  0  0
  190.5920  177.2440  147.8570 O   0  0  0  0  0  1  0  0  0  0  0  0
  185.7010  179.0600  142.4990 C   0  0  0  0  0  2  0  0  0  0  0  0
  184.2880  178.7920  146.0120 C   0  0  0  0  0  3  0  0  0  0  0  0
  190.1040  176.8960  142.2740 N   0  0  0  0  0  2  0  0  0  0  0  0
  187.8570  177.8840  142.4000 C   0  0  1  0  0  3  0  0  0  0  0  0
  189.2080  177.2840  145.8830 C   0  0  0  0  0  3  0  0  0  0  0  0
  183.5190  179.9850  144.0740 O   0  0  0  0  0  1  0  0  0  0  0  0
  190.2070  176.9590  143.7000 C   0  0  0  0  0  0  0  0  0  0  0  0
  191.4630  176.8320  144.3000 C   0  0  0  0  0  3  0  0  0  0  0  0
  186.5020  178.0220  141.7290 C   0  0  0  0  0  2  0  0  0  0  0  0
  185.5650  178.6800  143.9490 C   0  0  0  0  0  0  0  0  0  0  0  0
  184.4600  179.1570  144.6760 C   0  0  0  0  0  0  0  0  0  0  0  0
  189.0600  177.5740  140.1700 C   0  0  0  0  0  2  0  0  0  0  0  0
  190.5380  177.5810  139.8010 C   0  0  0  0  0  2  0  0  0  0  0  0
  190.7670  176.8100  138.5110 C   0  0  0  0  0  2  0  0  0  0  0  0
  192.2260  176.4020  138.3870 C   0  0  0  0  0  2  0  0  0  0  0  0
  192.3480  175.0390  137.7270 C   0  0  0  0  0  2  0  0  0  0  0  0
  194.0800  174.2820  135.8110 S   0  0  0  0  0  0  0  0  0  0  0  0
  193.7620  174.7850  137.3390 C   0  0  0  0  0  0  0  0  0  0  0  0
  195.6370  174.2820  139.0280 C   0  0  0  0  0  0  0  0  0  0  0  0
  195.4510  173.0370  139.0410 O   0  0  0  0  0  0  0  0  0  0  0  0
  196.9520  174.9800  140.0140 S   0  0  0  0  0  1  0  0  0  0  0  0
  194.8010  175.1550  138.2590 N   0  0  0  0  0  2  0  0  0  0  0  0
  1  9  1  0  0  0  0
  2  5  1  1  0  0  0
  2  3  1  0  0  0  0
  3  7  1  0  0  0  0
  5 14  2  0  0  0  0
  6  1  2  0  0  0  0
  7  4  2  0  0  0  0
  8 21  1  6  0  0  0
  8 12  1  0  0  0  0
  8 13  1  0  0  0  0
 10 19  1  0  0  0  0
 11  4  1  0  0  0  0
 12 16  1  0  0  0  0
 13 18  1  6  0  0  0
 13  2  1  0  0  0  0
 14  1  1  0  0  0  0
 15 20  1  0  0  0  0
 16 17  2  0  0  0  0
 16  5  1  0  0  0  0
 17  6  1  0  0  0  0
 18 10  1  0  0  0  0
 19  3  2  0  0  0  0
 19 20  1  0  0  0  0
 20 11  2  0  0  0  0
 22 21  1  0  0  0  0
 23 22  1  0  0  0  0
 24 23  1  0  0  0  0
 25 24  1  0  0  0  0
 26 27  2  0  0  0  0
 27 25  1  0  0  0  0
 27 31  1  0  0  0  0
 28 29  2  0  0  0  0
 28 30  1  0  0  0  0
 31 28  1  0  0  0  0
M  END
>  <MODEL>
1

>  <REMARK>
 VINA RESULT:      -9.4      0.000      0.000
  Name = 
  7 active torsions:
  status: ('A' for Active; 'I' for Inactive)
    1  A    between atoms: C_3  and  C_19
    2  A    between atoms: C_3  and  C_22
    3  A    between atoms: C_7  and  C_9
    4  A    between atoms: C_7  and  C_22
    5  A    between atoms: C_9  and  C_23
    6  A    between atoms: C_15  and  C_23
    7  A    between atoms: C_19  and  N_24
                            x       y       z     vdW  Elec       q    Type
                         _______ _______ _______ _____ _____    ______ ____

>  <TORSDO>
F 7

$$$$
=
 OpenBabel10272400233D

 31 34  0  0  1  0  0  0  0  0999 V2000
  188.7620  177.9950  141.1890 C   0  0  0  0  0  0  0  0  0  0  0  0
  186.6070  177.6720  144.3600 C   0  0  2  0  0  3  0  0  0  0  0  0
  187.6770  177.5860  145.4460 C   0  0  0  0  0  0  0  0  0  0  0  0
  189.7890  176.6590  146.2340 C   0  0  0  0  0  3  0  0  0  0  0  0
  187.0690  177.9730  142.9400 C   0  0  0  0  0  0  0  0  0  0  0  0
  187.8080  178.4110  140.2590 C   0  0  0  0  0  3  0  0  0  0  0  0
  188.8420  176.8360  145.2250 C   0  0  0  0  0  3  0  0  0  0  0  0
  184.2900  178.4100  143.7490 C   0  0  1  0  0  3  0  0  0  0  0  0
  190.0780  177.8000  140.7940 O   0  0  0  0  0  1  0  0  0  0  0  0
  186.1570  178.8140  147.0810 C   0  0  0  0  0  2  0  0  0  0  0  0
  189.5700  177.2060  147.4980 C   0  0  0  0  0  3  0  0  0  0  0  0
  184.7530  178.6180  142.3790 N   0  0  0  0  0  2  0  0  0  0  0  0
  185.4450  178.6110  144.7370 C   0  0  1  0  0  3  0  0  0  0  0  0
  188.3930  177.7710  142.5180 C   0  0  0  0  0  3  0  0  0  0  0  0
  188.1910  178.4350  149.0340 O   0  0  0  0  0  1  0  0  0  0  0  0
  186.1090  178.3770  141.9850 C   0  0  0  0  0  0  0  0  0  0  0  0
  186.4840  178.6020  140.6580 C   0  0  0  0  0  3  0  0  0  0  0  0
  185.0180  178.3750  146.1750 C   0  0  0  0  0  2  0  0  0  0  0  0
  187.4300  178.0810  146.7540 C   0  0  0  0  0  0  0  0  0  0  0  0
  188.3960  177.9130  147.7610 C   0  0  0  0  0  0  0  0  0  0  0  0
  183.0960  179.3200  144.0330 C   0  0  0  0  0  2  0  0  0  0  0  0
  181.7720  178.6460  143.6950 C   0  0  0  0  0  2  0  0  0  0  0  0
  180.9010  179.5730  142.8640 C   0  0  0  0  0  2  0  0  0  0  0  0
  180.4150  178.8630  141.6100 C   0  0  0  0  0  2  0  0  0  0  0  0
  181.5230  178.0160  141.0080 C   0  0  0  0  0  2  0  0  0  0  0  0
  182.2110  177.1680  138.5480 S   0  0  0  0  0  0  0  0  0  0  0  0
  181.6880  178.3430  139.5650 C   0  0  0  0  0  0  0  0  0  0  0  0
  182.0100  180.7450  138.7000 C   0  0  0  0  0  0  0  0  0  0  0  0
  183.2610  180.7520  138.8390 O   0  0  0  0  0  0  0  0  0  0  0  0
  181.1970  182.1840  138.0250 S   0  0  0  0  0  1  0  0  0  0  0  0
  181.2200  179.6160  139.0950 N   0  0  0  0  0  2  0  0  0  0  0  0
  1 14  1  0  0  0  0
  2  5  1  6  0  0  0
  2 13  1  0  0  0  0
  2  3  1  0  0  0  0
  3 19  1  0  0  0  0
  4 11  2  0  0  0  0
  6 17  1  0  0  0  0
  6  1  2  0  0  0  0
  7  3  2  0  0  0  0
  7  4  1  0  0  0  0
  8 21  1  1  0  0  0
  8 13  1  0  0  0  0
  9  1  1  0  0  0  0
 11 20  1  0  0  0  0
 12  8  1  0  0  0  0
 13 18  1  1  0  0  0
 14  5  2  0  0  0  0
 16 12  1  0  0  0  0
 16  5  1  0  0  0  0
 17 16  2  0  0  0  0
 18 10  1  0  0  0  0
 19 10  1  0  0  0  0
 19 20  2  0  0  0  0
 20 15  1  0  0  0  0
 22 21  1  0  0  0  0
 23 22  1  0  0  0  0
 24 23  1  0  0  0  0
 25 24  1  0  0  0  0
 26 27  2  0  0  0  0
 27 25  1  0  0  0  0
 28 29  2  0  0  0  0
 28 31  1  0  0  0  0
 30 28  1  0  0  0  0
 31 27  1  0  0  0  0
M  END
>  <MODEL>
2

>  <REMARK>
 VINA RESULT:      -9.3      5.239      8.625
  Name = 
  7 active torsions:
  status: ('A' for Active; 'I' for Inactive)
    1  A    between atoms: C_3  and  C_19
    2  A    between atoms: C_3  and  C_22
    3  A    between atoms: C_7  and  C_9
    4  A    between atoms: C_7  and  C_22
    5  A    between atoms: C_9  and  C_23
    6  A    between atoms: C_15  and  C_23
    7  A    between atoms: C_19  and  N_24
                            x       y       z     vdW  Elec       q    Type
                         _______ _______ _______ _____ _____    ______ ____

>  <TORSDO>
F 7

$$$$
=
 OpenBabel10272400233D

 31 34  0  0  1  0  0  0  0  0999 V2000
  189.0890  177.9050  140.5630 C   0  0  0  0  0  0  0  0  0  0  0  0
  188.1310  177.1260  144.2070 C   0  0  2  0  0  3  0  0  0  0  0  0
  189.5030  176.9220  144.8440 C   0  0  0  0  0  0  0  0  0  0  0  0
  191.7340  175.9460  144.7400 C   0  0  0  0  0  3  0  0  0  0  0  0
  188.0910  177.6190  142.7670 C   0  0  0  0  0  0  0  0  0  0  0  0
  187.8860  178.4180  140.0750 C   0  0  0  0  0  3  0  0  0  0  0  0
  190.5060  176.2320  144.1450 C   0  0  0  0  0  3  0  0  0  0  0  0
  185.7630  177.8870  144.5210 C   0  0  1  0  0  3  0  0  0  0  0  0
  190.1870  177.7910  139.7230 O   0  0  0  0  0  1  0  0  0  0  0  0
  188.6590  177.8940  147.0430 C   0  0  0  0  0  2  0  0  0  0  0  0
  191.9710  176.3180  146.0630 C   0  0  0  0  0  3  0  0  0  0  0  0
  185.7380  178.2820  143.1140 N   0  0  0  0  0  2  0  0  0  0  0  0
  187.1890  177.9830  145.0740 C   0  0  1  0  0  3  0  0  0  0  0  0
  189.1870  177.5030  141.8970 C   0  0  0  0  0  3  0  0  0  0  0  0
  191.2260  177.3070  148.1220 O   0  0  0  0  0  1  0  0  0  0  0  0
  186.8730  178.1240  142.2560 C   0  0  0  0  0  0  0  0  0  0  0  0
  186.7810  178.5280  140.9210 C   0  0  0  0  0  3  0  0  0  0  0  0
  187.2700  177.5520  146.5290 C   0  0  0  0  0  2  0  0  0  0  0  0
  189.7270  177.2370  146.2110 C   0  0  0  0  0  0  0  0  0  0  0  0
  190.9740  176.9600  146.7990 C   0  0  0  0  0  0  0  0  0  0  0  0
  184.7590  178.7270  145.3090 C   0  0  0  0  0  2  0  0  0  0  0  0
  183.7560  179.4210  144.3950 C   0  0  0  0  0  2  0  0  0  0  0  0
  182.3820  178.7880  144.5360 C   0  0  0  0  0  2  0  0  0  0  0  0
  181.5260  179.0980  143.3190 C   0  0  0  0  0  2  0  0  0  0  0  0
  182.3000  178.8380  142.0380 C   0  0  0  0  0  2  0  0  0  0  0  0
  180.0970  179.9440  140.9580 S   0  0  0  0  0  0  0  0  0  0  0  0
  181.3930  178.9430  140.8630 C   0  0  0  0  0  0  0  0  0  0  0  0
  182.7370  178.7610  138.6770 C   0  0  0  0  0  0  0  0  0  0  0  0
  183.2800  179.8920  138.7800 O   0  0  0  0  0  0  0  0  0  0  0  0
  183.1450  177.7190  137.2860 S   0  0  0  0  0  1  0  0  0  0  0  0
  181.7800  178.3010  139.6390 N   0  0  0  0  0  2  0  0  0  0  0  0
  1 14  1  0  0  0  0
  2  5  1  6  0  0  0
  2  3  1  0  0  0  0
  2 13  1  0  0  0  0
  3 19  1  0  0  0  0
  4 11  2  0  0  0  0
  6  1  2  0  0  0  0
  6 17  1  0  0  0  0
  7  4  1  0  0  0  0
  7  3  2  0  0  0  0
  8 13  1  0  0  0  0
  8 21  1  1  0  0  0
  9  1  1  0  0  0  0
 11 20  1  0  0  0  0
 12  8  1  0  0  0  0
 13 18  1  1  0  0  0
 14  5  2  0  0  0  0
 16  5  1  0  0  0  0
 16 12  1  0  0  0  0
 17 16  2  0  0  0  0
 18 10  1  0  0  0  0
 19 20  2  0  0  0  0
 19 10  1  0  0  0  0
 20 15  1  0  0  0  0
 22 23  1  0  0  0  0
 22 21  1  0  0  0  0
 24 23  1  0  0  0  0
 25 24  1  0  0  0  0
 27 26  2  0  0  0  0
 27 25  1  0  0  0  0
 28 29  2  0  0  0  0
 28 31  1  0  0  0  0
 30 28  1  0  0  0  0
 31 27  1  0  0  0  0
M  END
>  <MODEL>
3

>  <REMARK>
 VINA RESULT:      -9.3      4.811      8.697
  Name = 
  7 active torsions:
  status: ('A' for Active; 'I' for Inactive)
    1  A    between atoms: C_3  and  C_19
    2  A    between atoms: C_3  and  C_22
    3  A    between atoms: C_7  and  C_9
    4  A    between atoms: C_7  and  C_22
    5  A    between atoms: C_9  and  C_23
    6  A    between atoms: C_15  and  C_23
    7  A    between atoms: C_19  and  N_24
                            x       y       z     vdW  Elec       q    Type
                         _______ _______ _______ _____ _____    ______ ____

>  <TORSDO>
F 7

$$$$
=
 OpenBabel10272400233D

 31 34  0  0  1  0  0  0  0  0999 V2000
  190.3810  177.1250  146.3700 C   0  0  0  0  0  0  0  0  0  0  0  0
  187.7090  177.3860  143.6130 C   0  0  2  0  0  3  0  0  0  0  0  0
  186.5230  177.9490  144.3940 C   0  0  0  0  0  0  0  0  0  0  0  0
  185.1210  177.9080  146.3870 C   0  0  0  0  0  3  0  0  0  0  0  0
  189.0450  177.2860  144.3400 C   0  0  0  0  0  0  0  0  0  0  0  0
  191.5360  176.9430  145.6060 C   0  0  0  0  0  3  0  0  0  0  0  0
  186.2530  177.4850  145.6900 C   0  0  0  0  0  3  0  0  0  0  0  0
  188.9100  177.2670  141.4160 C   0  0  1  0  0  3  0  0  0  0  0  0
  190.4610  177.1400  147.7550 O   0  0  0  0  0  1  0  0  0  0  0  0
  185.7510  179.2450  142.3410 C   0  0  0  0  0  2  0  0  0  0  0  0
  184.2190  178.7830  145.7840 C   0  0  0  0  0  3  0  0  0  0  0  0
  190.1640  177.0980  142.1480 N   0  0  0  0  0  2  0  0  0  0  0  0
  187.9120  178.0770  142.2520 C   0  0  1  0  0  3  0  0  0  0  0  0
  189.1450  177.2880  145.7400 C   0  0  0  0  0  3  0  0  0  0  0  0
  183.5140  180.0810  143.8880 O   0  0  0  0  0  1  0  0  0  0  0  0
  190.2180  177.0840  143.5780 C   0  0  0  0  0  0  0  0  0  0  0  0
  191.4530  176.9240  144.2130 C   0  0  0  0  0  3  0  0  0  0  0  0
  186.5800  178.2510  141.5430 C   0  0  0  0  0  2  0  0  0  0  0  0
  185.5660  178.7860  143.7620 C   0  0  0  0  0  0  0  0  0  0  0  0
  184.4360  179.2210  144.4760 C   0  0  0  0  0  0  0  0  0  0  0  0
  189.1910  177.8910  140.0500 C   0  0  0  0  0  2  0  0  0  0  0  0
  189.3710  176.8340  138.9670 C   0  0  0  0  0  2  0  0  0  0  0  0
  188.8700  177.3530  137.6300 C   0  0  0  0  0  2  0  0  0  0  0  0
  187.4200  176.9510  137.4140 C   0  0  0  0  0  2  0  0  0  0  0  0
  186.4820  178.0570  137.8690 C   0  0  0  0  0  2  0  0  0  0  0  0
  184.7300  176.9720  136.1380 S   0  0  0  0  0  0  0  0  0  0  0  0
  185.0720  177.6820  137.5760 C   0  0  0  0  0  0  0  0  0  0  0  0
  183.6790  178.9910  139.2980 C   0  0  0  0  0  0  0  0  0  0  0  0
  184.2350  180.1000  139.0790 O   0  0  0  0  0  0  0  0  0  0  0  0
  182.3550  178.8980  140.4930 S   0  0  0  0  0  1  0  0  0  0  0  0
  184.1010  177.7980  138.6270 N   0  0  0  0  0  2  0  0  0  0  0  0
  1  9  1  0  0  0  0
  2  5  1  1  0  0  0
  2  3  1  0  0  0  0
  3  7  1  0  0  0  0
  5 14  2  0  0  0  0
  6  1  2  0  0  0  0
  7  4  2  0  0  0  0
  8 21  1  6  0  0  0
  8 12  1  0  0  0  0
  8 13  1  0  0  0  0
 10 19  1  0  0  0  0
 11  4  1  0  0  0  0
 12 16  1  0  0  0  0
 13 18  1  6  0  0  0
 13  2  1  0  0  0  0
 14  1  1  0  0  0  0
 15 20  1  0  0  0  0
 16 17  2  0  0  0  0
 16  5  1  0  0  0  0
 17  6  1  0  0  0  0
 18 10  1  0  0  0  0
 19  3  2  0  0  0  0
 19 20  1  0  0  0  0
 20 11  2  0  0  0  0
 22 21  1  0  0  0  0
 23 22  1  0  0  0  0
 24 23  1  0  0  0  0
 24 25  1  0  0  0  0
 26 27  2  0  0  0  0
 27 25  1  0  0  0  0
 27 31  1  0  0  0  0
 28 30  1  0  0  0  0
 29 28  2  0  0  0  0
 31 28  1  0  0  0  0
M  END
>  <MODEL>
4

>  <REMARK>
 VINA RESULT:      -9.3      4.098      5.525
  Name = 
  7 active torsions:
  status: ('A' for Active; 'I' for Inactive)
    1  A    between atoms: C_3  and  C_19
    2  A    between atoms: C_3  and  C_22
    3  A    between atoms: C_7  and  C_9
    4  A    between atoms: C_7  and  C_22
    5  A    between atoms: C_9  and  C_23
    6  A    between atoms: C_15  and  C_23
    7  A    between atoms: C_19  and  N_24
                            x       y       z     vdW  Elec       q    Type
                         _______ _______ _______ _____ _____    ______ ____

>  <TORSDO>
F 7

$$$$
=
 OpenBabel10272400233D

 31 34  0  0  1  0  0  0  0  0999 V2000
  190.4260  177.1500  146.6260 C   0  0  0  0  0  0  0  0  0  0  0  0
  187.7290  177.2040  143.8820 C   0  0  2  0  0  3  0  0  0  0  0  0
  186.5610  177.8560  144.6180 C   0  0  0  0  0  0  0  0  0  0  0  0
  185.1800  178.0210  146.6190 C   0  0  0  0  0  3  0  0  0  0  0  0
  189.0700  177.1470  144.6020 C   0  0  0  0  0  0  0  0  0  0  0  0
  191.5690  176.8790  145.8720 C   0  0  0  0  0  3  0  0  0  0  0  0
  186.2970  177.5160  145.9540 C   0  0  0  0  0  3  0  0  0  0  0  0
  188.9040  176.8630  141.6940 C   0  0  1  0  0  3  0  0  0  0  0  0
  190.5200  177.2900  148.0030 O   0  0  0  0  0  1  0  0  0  0  0  0
  185.7880  178.9710  142.4630 C   0  0  0  0  0  2  0  0  0  0  0  0
  184.2850  178.8530  145.9470 C   0  0  0  0  0  3  0  0  0  0  0  0
  190.1630  176.7410  142.4270 N   0  0  0  0  0  2  0  0  0  0  0  0
  187.9290  177.7630  142.4610 C   0  0  1  0  0  3  0  0  0  0  0  0
  189.1860  177.2750  145.9960 C   0  0  0  0  0  3  0  0  0  0  0  0
  183.5810  179.9830  143.9470 O   0  0  0  0  0  1  0  0  0  0  0  0
  190.2320  176.8560  143.8520 C   0  0  0  0  0  0  0  0  0  0  0  0
  191.4710  176.7340  144.4870 C   0  0  0  0  0  3  0  0  0  0  0  0
  186.5920  177.8950  141.7510 C   0  0  0  0  0  2  0  0  0  0  0  0
  185.6100  178.6470  143.9210 C   0  0  0  0  0  0  0  0  0  0  0  0
  184.4950  179.1650  144.6030 C   0  0  0  0  0  0  0  0  0  0  0  0
  189.1810  177.3540  140.2740 C   0  0  0  0  0  2  0  0  0  0  0  0
  190.6740  177.4650  139.9900 C   0  0  0  0  0  2  0  0  0  0  0  0
  191.1020  176.4120  138.9820 C   0  0  0  0  0  2  0  0  0  0  0  0
  189.9610  176.0940  138.0290 C   0  0  0  0  0  2  0  0  0  0  0  0
  190.1910  176.7500  136.6780 C   0  0  0  0  0  2  0  0  0  0  0  0
  188.8220  176.9760  134.3710 S   0  0  0  0  0  0  0  0  0  0  0  0
  188.8870  177.0110  136.0100 C   0  0  0  0  0  0  0  0  0  0  0  0
  187.0170  178.3030  137.2160 C   0  0  0  0  0  0  0  0  0  0  0  0
  187.4720  179.4450  136.9460 O   0  0  0  0  0  0  0  0  0  0  0  0
  185.4910  178.1630  138.1330 S   0  0  0  0  0  1  0  0  0  0  0  0
  187.7090  177.1110  136.8240 N   0  0  0  0  0  2  0  0  0  0  0  0
  1  9  1  0  0  0  0
  2  5  1  1  0  0  0
  2  3  1  0  0  0  0
  3  7  1  0  0  0  0
  5 14  2  0  0  0  0
  6  1  2  0  0  0  0
  7  4  2  0  0  0  0
  8 21  1  6  0  0  0
  8 12  1  0  0  0  0
  8 13  1  0  0  0  0
 10 19  1  0  0  0  0
 11  4  1  0  0  0  0
 12 16  1  0  0  0  0
 13 18  1  6  0  0  0
 13  2  1  0  0  0  0
 14  1  1  0  0  0  0
 15 20  1  0  0  0  0
 16 17  2  0  0  0  0
 16  5  1  0  0  0  0
 17  6  1  0  0  0  0
 18 10  1  0  0  0  0
 19 20  1  0  0  0  0
 19  3  2  0  0  0  0
 20 11  2  0  0  0  0
 22 21  1  0  0  0  0
 23 22  1  0  0  0  0
 24 23  1  0  0  0  0
 25 24  1  0  0  0  0
 26 27  2  0  0  0  0
 27 25  1  0  0  0  0
 27 31  1  0  0  0  0
 28 30  1  0  0  0  0
 29 28  2  0  0  0  0
 31 28  1  0  0  0  0
M  END
>  <MODEL>
5

>  <REMARK>
 VINA RESULT:      -9.3      3.285      3.962
  Name = 
  7 active torsions:
  status: ('A' for Active; 'I' for Inactive)
    1  A    between atoms: C_3  and  C_19
    2  A    between atoms: C_3  and  C_22
    3  A    between atoms: C_7  and  C_9
    4  A    between atoms: C_7  and  C_22
    5  A    between atoms: C_9  and  C_23
    6  A    between atoms: C_15  and  C_23
    7  A    between atoms: C_19  and  N_24
                            x       y       z     vdW  Elec       q    Type
                         _______ _______ _______ _____ _____    ______ ____

>  <TORSDO>
F 7

$$$$
=
 OpenBabel10272400233D

 31 34  0  0  1  0  0  0  0  0999 V2000
  185.2190  178.3270  145.4550 C   0  0  0  0  0  0  0  0  0  0  0  0
  188.8390  177.9270  144.2120 C   0  0  2  0  0  3  0  0  0  0  0  0
  189.5460  177.4610  145.4820 C   0  0  0  0  0  0  0  0  0  0  0  0
  189.9110  177.6980  147.8800 C   0  0  0  0  0  3  0  0  0  0  0  0
  187.3210  178.0460  144.2550 C   0  0  0  0  0  0  0  0  0  0  0  0
  184.5290  178.4150  144.2450 C   0  0  0  0  0  3  0  0  0  0  0  0
  189.2130  178.0330  146.7200 C   0  0  0  0  0  3  0  0  0  0  0  0
  188.7480  177.8400  141.7080 C   0  0  1  0  0  3  0  0  0  0  0  0
  184.5300  178.4180  146.6550 O   0  0  0  0  0  1  0  0  0  0  0  0
  191.1420  176.0310  144.1040 C   0  0  0  0  0  2  0  0  0  0  0  0
  190.9790  176.8040  147.8170 C   0  0  0  0  0  3  0  0  0  0  0  0
  187.3000  178.0290  141.7870 N   0  0  0  0  0  2  0  0  0  0  0  0
  189.2590  177.1260  142.9640 C   0  0  1  0  0  3  0  0  0  0  0  0
  186.6050  178.1510  145.4590 C   0  0  0  0  0  3  0  0  0  0  0  0
  192.4440  175.3820  146.5500 O   0  0  0  0  0  1  0  0  0  0  0  0
  186.6130  178.1540  143.0370 C   0  0  0  0  0  0  0  0  0  0  0  0
  185.2260  178.3280  143.0380 C   0  0  0  0  0  3  0  0  0  0  0  0
  190.7660  176.9350  142.9410 C   0  0  0  0  0  2  0  0  0  0  0  0
  190.6770  176.6050  145.4150 C   0  0  0  0  0  0  0  0  0  0  0  0
  191.3650  176.2590  146.5920 C   0  0  0  0  0  0  0  0  0  0  0  0
  189.1000  177.1040  140.4170 C   0  0  0  0  0  2  0  0  0  0  0  0
  189.9080  177.9770  139.4640 C   0  0  0  0  0  2  0  0  0  0  0  0
  188.9820  178.8260  138.6090 C   0  0  0  0  0  2  0  0  0  0  0  0
  188.9960  178.3410  137.1680 C   0  0  0  0  0  2  0  0  0  0  0  0
  187.6140  178.4630  136.5470 C   0  0  0  0  0  2  0  0  0  0  0  0
  187.4850  175.8400  137.1380 S   0  0  0  0  0  0  0  0  0  0  0  0
  186.7710  177.3040  136.9490 C   0  0  0  0  0  0  0  0  0  0  0  0
  184.9280  178.3150  138.4320 C   0  0  0  0  0  0  0  0  0  0  0  0
  185.7160  178.7870  139.2930 O   0  0  0  0  0  0  0  0  0  0  0  0
  183.1720  178.5810  138.6160 S   0  0  0  0  0  1  0  0  0  0  0  0
  185.4060  177.5480  137.3200 N   0  0  0  0  0  2  0  0  0  0  0  0
  1 14  1  0  0  0  0
  1  9  1  0  0  0  0
  2  5  1  1  0  0  0
  2  3  1  0  0  0  0
  3  7  1  0  0  0  0
  5 14  2  0  0  0  0
  6  1  2  0  0  0  0
  7  4  2  0  0  0  0
  8 21  1  6  0  0  0
  8 12  1  0  0  0  0
  8 13  1  0  0  0  0
 10 19  1  0  0  0  0
 11  4  1  0  0  0  0
 12 16  1  0  0  0  0
 13 18  1  6  0  0  0
 13  2  1  0  0  0  0
 15 20  1  0  0  0  0
 16 17  2  0  0  0  0
 16  5  1  0  0  0  0
 17  6  1  0  0  0  0
 18 10  1  0  0  0  0
 19  3  2  0  0  0  0
 19 20  1  0  0  0  0
 20 11  2  0  0  0  0
 22 21  1  0  0  0  0
 23 22  1  0  0  0  0
 24 23  1  0  0  0  0
 25 27  1  0  0  0  0
 25 24  1  0  0  0  0
 27 26  2  0  0  0  0
 27 31  1  0  0  0  0
 28 30  1  0  0  0  0
 28 29  2  0  0  0  0
 31 28  1  0  0  0  0
M  END
>  <MODEL>
6

>  <REMARK>
 VINA RESULT:      -9.1      3.791      6.439
  Name = 
  7 active torsions:
  status: ('A' for Active; 'I' for Inactive)
    1  A    between atoms: C_3  and  C_19
    2  A    between atoms: C_3  and  C_22
    3  A    between atoms: C_7  and  C_9
    4  A    between atoms: C_7  and  C_22
    5  A    between atoms: C_9  and  C_23
    6  A    between atoms: C_15  and  C_23
    7  A    between atoms: C_19  and  N_24
                            x       y       z     vdW  Elec       q    Type
                         _______ _______ _______ _____ _____    ______ ____

>  <TORSDO>
F 7

$$$$
=
 OpenBabel10272400233D

 31 34  0  0  1  0  0  0  0  0999 V2000
  185.1600  178.3450  145.4870 C   0  0  0  0  0  0  0  0  0  0  0  0
  188.7640  178.0250  144.1780 C   0  0  2  0  0  3  0  0  0  0  0  0
  189.4940  177.5200  145.4210 C   0  0  0  0  0  0  0  0  0  0  0  0
  189.8910  177.6730  147.8210 C   0  0  0  0  0  3  0  0  0  0  0  0
  187.2460  178.1270  144.2480 C   0  0  0  0  0  0  0  0  0  0  0  0
  184.4510  178.4700  144.2910 C   0  0  0  0  0  3  0  0  0  0  0  0
  189.1740  178.0430  146.6830 C   0  0  0  0  0  3  0  0  0  0  0  0
  188.6370  178.0280  141.6750 C   0  0  1  0  0  3  0  0  0  0  0  0
  184.4870  178.3850  146.6990 O   0  0  0  0  0  1  0  0  0  0  0  0
  191.0820  176.1560  143.9690 C   0  0  0  0  0  2  0  0  0  0  0  0
  190.9670  176.7930  147.7100 C   0  0  0  0  0  3  0  0  0  0  0  0
  187.1890  178.2000  141.7810 N   0  0  0  0  0  2  0  0  0  0  0  0
  189.1740  177.2740  142.8970 C   0  0  1  0  0  3  0  0  0  0  0  0
  186.5470  178.1820  145.4650 C   0  0  0  0  0  3  0  0  0  0  0  0
  192.4260  175.4320  146.3710 O   0  0  0  0  0  1  0  0  0  0  0  0
  186.5190  178.2730  143.0440 C   0  0  0  0  0  0  0  0  0  0  0  0
  185.1310  178.4330  143.0720 C   0  0  0  0  0  3  0  0  0  0  0  0
  190.6820  177.0980  142.8460 C   0  0  0  0  0  2  0  0  0  0  0  0
  190.6310  176.6780  145.3070 C   0  0  0  0  0  0  0  0  0  0  0  0
  191.3400  176.2960  146.4600 C   0  0  0  0  0  0  0  0  0  0  0  0
  188.9780  177.3420  140.3530 C   0  0  0  0  0  2  0  0  0  0  0  0
  188.1930  177.9300  139.1870 C   0  0  0  0  0  2  0  0  0  0  0  0
  189.0560  178.9050  138.4040 C   0  0  0  0  0  2  0  0  0  0  0  0
  189.0170  178.5760  136.9200 C   0  0  0  0  0  2  0  0  0  0  0  0
  188.4530  177.1840  136.6930 C   0  0  0  0  0  2  0  0  0  0  0  0
  189.0780  175.4070  134.7700 S   0  0  0  0  0  0  0  0  0  0  0  0
  189.4880  176.3090  136.0770 C   0  0  0  0  0  0  0  0  0  0  0  0
  191.4920  175.6190  137.5360 C   0  0  0  0  0  0  0  0  0  0  0  0
  190.8590  174.7610  138.2050 O   0  0  0  0  0  0  0  0  0  0  0  0
  193.2310  175.8670  137.8550 S   0  0  0  0  0  1  0  0  0  0  0  0
  190.8420  176.4200  136.5410 N   0  0  0  0  0  2  0  0  0  0  0  0
  1  9  1  0  0  0  0
  2  5  1  1  0  0  0
  2  3  1  0  0  0  0
  3  7  1  0  0  0  0
  5 14  2  0  0  0  0
  6  1  2  0  0  0  0
  7  4  2  0  0  0  0
  8 21  1  6  0  0  0
  8 12  1  0  0  0  0
  8 13  1  0  0  0  0
 10 19  1  0  0  0  0
 11  4  1  0  0  0  0
 12 16  1  0  0  0  0
 13 18  1  6  0  0  0
 13  2  1  0  0  0  0
 14  1  1  0  0  0  0
 15 20  1  0  0  0  0
 16 17  2  0  0  0  0
 16  5  1  0  0  0  0
 17  6  1  0  0  0  0
 18 10  1  0  0  0  0
 19  3  2  0  0  0  0
 19 20  1  0  0  0  0
 20 11  2  0  0  0  0
 22 21  1  0  0  0  0
 23 22  1  0  0  0  0
 24 23  1  0  0  0  0
 25 24  1  0  0  0  0
 26 27  2  0  0  0  0
 27 31  1  0  0  0  0
 27 25  1  0  0  0  0
 28 30  1  0  0  0  0
 28 29  2  0  0  0  0
 31 28  1  0  0  0  0
M  END
>  <MODEL>
7

>  <REMARK>
 VINA RESULT:      -9.1      2.286      4.913
  Name = 
  7 active torsions:
  status: ('A' for Active; 'I' for Inactive)
    1  A    between atoms: C_3  and  C_19
    2  A    between atoms: C_3  and  C_22
    3  A    between atoms: C_7  and  C_9
    4  A    between atoms: C_7  and  C_22
    5  A    between atoms: C_9  and  C_23
    6  A    between atoms: C_15  and  C_23
    7  A    between atoms: C_19  and  N_24
                            x       y       z     vdW  Elec       q    Type
                         _______ _______ _______ _____ _____    ______ ____

>  <TORSDO>
F 7

$$$$
=
 OpenBabel10272400233D

 31 34  0  0  1  0  0  0  0  0999 V2000
  190.4590  177.1620  146.4570 C   0  0  0  0  0  0  0  0  0  0  0  0
  187.7290  177.3890  143.7550 C   0  0  2  0  0  3  0  0  0  0  0  0
  186.5570  177.9530  144.5560 C   0  0  0  0  0  0  0  0  0  0  0  0
  185.1960  177.9210  146.5770 C   0  0  0  0  0  3  0  0  0  0  0  0
  189.0790  177.3010  144.4540 C   0  0  0  0  0  0  0  0  0  0  0  0
  191.5980  176.9800  145.6710 C   0  0  0  0  0  3  0  0  0  0  0  0
  186.3160  177.4980  145.8610 C   0  0  0  0  0  3  0  0  0  0  0  0
  188.8840  177.2570  141.5340 C   0  0  1  0  0  3  0  0  0  0  0  0
  190.5670  177.1890  147.8400 O   0  0  0  0  0  1  0  0  0  0  0  0
  185.7350  179.2290  142.5090 C   0  0  0  0  0  2  0  0  0  0  0  0
  184.2780  178.7870  145.9860 C   0  0  0  0  0  3  0  0  0  0  0  0
  190.1540  177.1010  142.2410 N   0  0  0  0  0  2  0  0  0  0  0  0
  187.9000  178.0700  142.3840 C   0  0  1  0  0  3  0  0  0  0  0  0
  189.2090  177.3140  145.8520 C   0  0  0  0  0  3  0  0  0  0  0  0
  183.5270  180.0670  144.0960 O   0  0  0  0  0  1  0  0  0  0  0  0
  190.2380  177.0980  143.6700 C   0  0  0  0  0  0  0  0  0  0  0  0
  191.4860  176.9490  144.2800 C   0  0  0  0  0  3  0  0  0  0  0  0
  186.5520  178.2330  141.7020 C   0  0  0  0  0  2  0  0  0  0  0  0
  185.5820  178.7800  143.9370 C   0  0  0  0  0  0  0  0  0  0  0  0
  184.4650  179.2160  144.6710 C   0  0  0  0  0  0  0  0  0  0  0  0
  189.1330  177.8720  140.1580 C   0  0  0  0  0  2  0  0  0  0  0  0
  189.8750  176.9150  139.2320 C   0  0  0  0  0  2  0  0  0  0  0  0
  189.6660  177.3110  137.7810 C   0  0  0  0  0  2  0  0  0  0  0  0
  188.8740  178.6060  137.6920 C   0  0  0  0  0  2  0  0  0  0  0  0
  187.8910  178.5570  136.5350 C   0  0  0  0  0  2  0  0  0  0  0  0
  185.7420  178.0380  138.0720 S   0  0  0  0  0  0  0  0  0  0  0  0
  186.7690  177.6330  136.8590 C   0  0  0  0  0  0  0  0  0  0  0  0
  186.7430  175.1280  136.2720 C   0  0  0  0  0  0  0  0  0  0  0  0
  187.2910  174.7520  137.3410 O   0  0  0  0  0  0  0  0  0  0  0  0
  186.2470  173.9070  135.0670 S   0  0  0  0  0  1  0  0  0  0  0  0
  186.5290  176.5170  135.9890 N   0  0  0  0  0  2  0  0  0  0  0  0
  1  9  1  0  0  0  0
  2  5  1  1  0  0  0
  2  3  1  0  0  0  0
  3  7  1  0  0  0  0
  5 14  2  0  0  0  0
  6  1  2  0  0  0  0
  7  4  2  0  0  0  0
  8 21  1  6  0  0  0
  8 12  1  0  0  0  0
  8 13  1  0  0  0  0
 10 19  1  0  0  0  0
 11  4  1  0  0  0  0
 12 16  1  0  0  0  0
 13 18  1  6  0  0  0
 13  2  1  0  0  0  0
 14  1  1  0  0  0  0
 15 20  1  0  0  0  0
 16 17  2  0  0  0  0
 16  5  1  0  0  0  0
 17  6  1  0  0  0  0
 18 10  1  0  0  0  0
 19  3  2  0  0  0  0
 19 20  1  0  0  0  0
 20 11  2  0  0  0  0
 22 21  1  0  0  0  0
 23 22  1  0  0  0  0
 24 23  1  0  0  0  0
 25 27  1  0  0  0  0
 25 24  1  0  0  0  0
 27 26  2  0  0  0  0
 28 29  2  0  0  0  0
 30 28  1  0  0  0  0
 31 28  1  0  0  0  0
 31 27  1  0  0  0  0
M  END
>  <MODEL>
8

>  <REMARK>
 VINA RESULT:      -9.0      3.589      4.308
  Name = 
  7 active torsions:
  status: ('A' for Active; 'I' for Inactive)
    1  A    between atoms: C_3  and  C_19
    2  A    between atoms: C_3  and  C_22
    3  A    between atoms: C_7  and  C_9
    4  A    between atoms: C_7  and  C_22
    5  A    between atoms: C_9  and  C_23
    6  A    between atoms: C_15  and  C_23
    7  A    between atoms: C_19  and  N_24
                            x       y       z     vdW  Elec       q    Type
                         _______ _______ _______ _____ _____    ______ ____

>  <TORSDO>
F 7

$$$$
=
 OpenBabel10272400233D

 31 34  0  0  1  0  0  0  0  0999 V2000
  190.4750  177.1620  146.4830 C   0  0  0  0  0  0  0  0  0  0  0  0
  187.6990  177.2750  143.8210 C   0  0  2  0  0  3  0  0  0  0  0  0
  186.5430  177.8820  144.6130 C   0  0  0  0  0  0  0  0  0  0  0  0
  185.2190  177.9530  146.6580 C   0  0  0  0  0  3  0  0  0  0  0  0
  189.0610  177.2120  144.5000 C   0  0  0  0  0  0  0  0  0  0  0  0
  191.5990  176.9360  145.6870 C   0  0  0  0  0  3  0  0  0  0  0  0
  186.3230  177.4900  145.9430 C   0  0  0  0  0  3  0  0  0  0  0  0
  188.8140  177.0310  141.5890 C   0  0  1  0  0  3  0  0  0  0  0  0
  190.6070  177.2530  147.8610 O   0  0  0  0  0  1  0  0  0  0  0  0
  185.6920  179.0630  142.5230 C   0  0  0  0  0  2  0  0  0  0  0  0
  184.2940  178.7950  146.0420 C   0  0  0  0  0  3  0  0  0  0  0  0
  190.0960  176.9020  142.2800 N   0  0  0  0  0  2  0  0  0  0  0  0
  187.8490  177.8880  142.4160 C   0  0  1  0  0  3  0  0  0  0  0  0
  189.2150  177.2910  145.8930 C   0  0  0  0  0  3  0  0  0  0  0  0
  183.5160  179.9870  144.1060 O   0  0  0  0  0  1  0  0  0  0  0  0
  190.2040  176.9660  143.7060 C   0  0  0  0  0  0  0  0  0  0  0  0
  191.4630  176.8400  144.3010 C   0  0  0  0  0  3  0  0  0  0  0  0
  186.4900  178.0250  141.7500 C   0  0  0  0  0  2  0  0  0  0  0  0
  185.5620  178.6840  143.9730 C   0  0  0  0  0  0  0  0  0  0  0  0
  184.4600  179.1600  144.7050 C   0  0  0  0  0  0  0  0  0  0  0  0
  189.0430  177.5780  140.1800 C   0  0  0  0  0  2  0  0  0  0  0  0
  190.4530  177.2920  139.6800 C   0  0  0  0  0  2  0  0  0  0  0  0
  190.5120  177.4080  138.1660 C   0  0  0  0  0  2  0  0  0  0  0  0
  189.1760  177.8790  137.6160 C   0  0  0  0  0  2  0  0  0  0  0  0
  188.9330  177.3060  136.2300 C   0  0  0  0  0  2  0  0  0  0  0  0
  187.1140  175.4580  136.9490 S   0  0  0  0  0  0  0  0  0  0  0  0
  188.5770  175.8650  136.3300 C   0  0  0  0  0  0  0  0  0  0  0  0
  190.3300  173.9820  136.3850 C   0  0  0  0  0  0  0  0  0  0  0  0
  190.4970  174.0150  137.6320 O   0  0  0  0  0  0  0  0  0  0  0  0
  191.2300  172.7850  135.4130 S   0  0  0  0  0  1  0  0  0  0  0  0
  189.4510  174.9010  135.7240 N   0  0  0  0  0  2  0  0  0  0  0  0
  1  9  1  0  0  0  0
  2  5  1  1  0  0  0
  2  3  1  0  0  0  0
  3  7  1  0  0  0  0
  5 14  2  0  0  0  0
  6  1  2  0  0  0  0
  7  4  2  0  0  0  0
  8 21  1  6  0  0  0
  8 12  1  0  0  0  0
  8 13  1  0  0  0  0
 10 19  1  0  0  0  0
 11  4  1  0  0  0  0
 12 16  1  0  0  0  0
 13 18  1  6  0  0  0
 13  2  1  0  0  0  0
 14  1  1  0  0  0  0
 15 20  1  0  0  0  0
 16 17  2  0  0  0  0
 16  5  1  0  0  0  0
 17  6  1  0  0  0  0
 18 10  1  0  0  0  0
 19  3  2  0  0  0  0
 19 20  1  0  0  0  0
 20 11  2  0  0  0  0
 22 21  1  0  0  0  0
 23 22  1  0  0  0  0
 24 23  1  0  0  0  0
 25 27  1  0  0  0  0
 25 24  1  0  0  0  0
 27 26  2  0  0  0  0
 28 29  2  0  0  0  0
 30 28  1  0  0  0  0
 31 27  1  0  0  0  0
 31 28  1  0  0  0  0
M  END
>  <MODEL>
9

>  <REMARK>
 VINA RESULT:      -9.0      2.489      2.944
  Name = 
  7 active torsions:
  status: ('A' for Active; 'I' for Inactive)
    1  A    between atoms: C_3  and  C_19
    2  A    between atoms: C_3  and  C_22
    3  A    between atoms: C_7  and  C_9
    4  A    between atoms: C_7  and  C_22
    5  A    between atoms: C_9  and  C_23
    6  A    between atoms: C_15  and  C_23
    7  A    between atoms: C_19  and  N_24
                            x       y       z     vdW  Elec       q    Type
                         _______ _______ _______ _____ _____    ______ ____

>  <TORSDO>
F 7

$$$$
