=
 OpenBabel10262423573D

 34 38  0  0  1  0  0  0  0  0999 V2000
  190.0330  177.0780  137.1150 C   0  0  2  0  0  3  0  0  0  0  0  0
  187.9970  175.7950  136.7970 C   0  0  0  0  0  2  0  0  0  0  0  0
  188.2110  177.0650  138.7730 C   0  0  1  0  0  3  0  0  0  0  0  0
  186.8850  178.4470  140.4070 N   0  0  0  0  0  0  0  0  0  0  0  0
  189.4580  177.3090  134.6410 C   0  0  0  0  0  2  0  0  0  0  0  0
  188.4410  176.2120  134.3460 C   0  0  0  0  0  2  0  0  0  0  0  0
  186.3280  178.4130  138.1300 O   0  0  0  0  0  0  0  0  0  0  0  0
  188.5680  177.0240  137.3440 N   0  0  1  0  0  0  0  0  0  0  0  0
  190.4660  176.8090  135.6680 C   0  0  0  0  0  2  0  0  0  0  0  0
  189.4160  177.3600  139.6820 C   0  0  1  0  0  3  0  0  0  0  0  0
  190.8310  176.1890  138.0900 C   0  0  0  0  0  2  0  0  0  0  0  0
  187.3810  176.0930  135.4370 C   0  0  0  0  0  2  0  0  0  0  0  0
  187.8300  178.0940  141.4270 C   0  0  0  0  0  3  0  0  0  0  0  0
  189.0140  177.5270  141.1400 C   0  0  0  0  0  0  0  0  0  0  0  0
  187.1010  178.0320  139.0510 C   0  0  0  0  0  0  0  0  0  0  0  0
  190.3920  176.2870  139.4930 N   0  0  0  0  0  2  0  0  0  0  0  0
  191.5560  178.1320  143.8970 C   0  0  0  0  0  0  0  0  0  0  0  0
  191.7540  176.8380  144.3810 C   0  0  0  0  0  3  0  0  0  0  0  0
  189.9720  177.2890  142.2510 C   0  0  0  0  0  0  0  0  0  0  0  0
  191.0630  175.7670  143.8080 C   0  0  0  0  0  3  0  0  0  0  0  0
  190.6680  178.3570  142.8410 C   0  0  0  0  0  3  0  0  0  0  0  0
  190.1760  175.9920  142.7520 C   0  0  0  0  0  3  0  0  0  0  0  0
  192.2240  179.1720  144.4530 F   0  0  0  0  0  0  0  0  0  0  0  0
  185.7320  179.2580  140.7680 C   0  0  0  0  0  2  0  0  0  0  0  0
  184.8860  178.5220  141.7890 C   0  0  0  0  0  2  0  0  0  0  0  0
  185.1130  179.1220  143.1630 C   0  0  0  0  0  2  0  0  0  0  0  0
  184.8460  178.0860  144.2430 C   0  0  0  0  0  2  0  0  0  0  0  0
  184.5710  178.6150  147.0270 O   0  0  0  0  0  0  0  0  0  0  0  0
  185.9410  178.0540  145.2050 N   0  0  0  0  0  0  0  0  0  0  0  0
  185.7260  178.3650  146.5930 C   0  0  0  0  0  0  0  0  0  0  0  0
  187.9650  177.4350  147.0960 C   0  0  0  0  0  2  0  0  0  0  0  0
  188.2440  177.4910  145.6190 C   0  0  0  0  0  3  0  0  0  0  0  0
  187.2640  177.7420  144.7480 C   0  0  0  0  0  3  0  0  0  0  0  0
  186.9050  178.4560  147.5120 C   0  0  0  0  0  2  0  0  0  0  0  0
  1  9  1  6  0  0  0
  1  8  1  0  0  0  0
  1 11  1  0  0  0  0
  3 15  1  6  0  0  0
  3 10  1  0  0  0  0
  4 24  1  0  0  0  0
  4 13  1  0  0  0  0
  5  9  1  0  0  0  0
  6  5  1  0  0  0  0
  6 12  1  0  0  0  0
  7 15  2  0  0  0  0
  8  2  1  1  0  0  0
  8  3  1  0  0  0  0
 10 16  1  1  0  0  0
 10 14  1  0  0  0  0
 11 16  1  0  0  0  0
 12  2  1  0  0  0  0
 14 13  2  0  0  0  0
 14 19  1  0  0  0  0
 15  4  1  0  0  0  0
 17 18  1  0  0  0  0
 17 23  1  0  0  0  0
 19 22  2  0  0  0  0
 19 21  1  0  0  0  0
 20 18  2  0  0  0  0
 21 17  2  0  0  0  0
 22 20  1  0  0  0  0
 24 25  1  0  0  0  0
 25 26  1  0  0  0  0
 26 27  1  0  0  0  0
 27 29  1  0  0  0  0
 29 30  1  0  0  0  0
 30 28  2  0  0  0  0
 30 34  1  0  0  0  0
 31 34  1  0  0  0  0
 32 31  1  0  0  0  0
 33 29  1  0  0  0  0
 33 32  2  0  0  0  0
M  END
>  <MODEL>
1

>  <REMARK>
 VINA RESULT:      -9.1      0.000      0.000
  Name = 
  6 active torsions:
  status: ('A' for Active; 'I' for Inactive)
    1  A    between atoms: C_3  and  N_13
    2  A    between atoms: C_3  and  C_17
    3  A    between atoms: N_5  and  C_18
    4  A    between atoms: C_12  and  C_28
    5  A    between atoms: C_17  and  C_29
    6  A    between atoms: C_18  and  C_29
                            x       y       z     vdW  Elec       q    Type
                         _______ _______ _______ _____ _____    ______ ____

>  <TORSDO>
F 6

$$$$
=
 OpenBabel10262423573D

 34 38  0  0  1  0  0  0  0  0999 V2000
  181.7830  178.0500  140.4560 C   0  0  2  0  0  3  0  0  0  0  0  0
  182.3190  180.0750  139.2300 C   0  0  0  0  0  2  0  0  0  0  0  0
  184.0430  179.0310  140.4560 C   0  0  1  0  0  3  0  0  0  0  0  0
  186.5130  178.5480  140.4070 N   0  0  0  0  0  0  0  0  0  0  0  0
  180.5060  177.8760  138.2550 C   0  0  0  0  0  2  0  0  0  0  0  0
  180.5060  179.2810  137.6620 C   0  0  0  0  0  2  0  0  0  0  0  0
  185.2610  178.6200  138.4260 O   0  0  0  0  0  0  0  0  0  0  0  0
  182.8170  178.7770  139.6780 N   0  0  1  0  0  0  0  0  0  0  0  0
  180.4120  177.9620  139.7720 C   0  0  0  0  0  2  0  0  0  0  0  0
  184.0490  178.3120  141.8160 C   0  0  1  0  0  3  0  0  0  0  0  0
  181.6330  178.5710  141.8990 C   0  0  0  0  0  2  0  0  0  0  0  0
  181.8670  179.9620  137.7810 C   0  0  0  0  0  2  0  0  0  0  0  0
  186.5080  178.5320  141.8420 C   0  0  0  0  0  3  0  0  0  0  0  0
  185.3690  178.4770  142.5530 C   0  0  0  0  0  0  0  0  0  0  0  0
  185.2820  178.6960  139.6850 C   0  0  0  0  0  0  0  0  0  0  0  0
  182.9120  178.8100  142.5900 N   0  0  0  0  0  2  0  0  0  0  0  0
  186.6770  177.6710  146.0270 C   0  0  0  0  0  0  0  0  0  0  0  0
  185.6550  178.1780  146.8320 C   0  0  0  0  0  3  0  0  0  0  0  0
  185.4640  178.3600  144.0320 C   0  0  0  0  0  0  0  0  0  0  0  0
  184.5380  178.7790  146.2460 C   0  0  0  0  0  3  0  0  0  0  0  0
  186.5830  177.7650  144.6350 C   0  0  0  0  0  3  0  0  0  0  0  0
  184.4450  178.8720  144.8540 C   0  0  0  0  0  3  0  0  0  0  0  0
  187.7610  177.0900  146.5950 F   0  0  0  0  0  0  0  0  0  0  0  0
  187.7770  178.3780  139.7060 C   0  0  0  0  0  2  0  0  0  0  0  0
  188.7160  177.5290  140.5410 C   0  0  0  0  0  2  0  0  0  0  0  0
  190.1420  177.7330  140.0650 C   0  0  0  0  0  2  0  0  0  0  0  0
  191.0980  176.8740  140.8780 C   0  0  0  0  0  2  0  0  0  0  0  0
  190.2640  175.0550  142.9030 O   0  0  0  0  0  0  0  0  0  0  0  0
  191.0020  177.2000  142.2960 N   0  0  0  0  0  0  0  0  0  0  0  0
  190.5400  176.2330  143.2550 C   0  0  0  0  0  0  0  0  0  0  0  0
  191.3670  177.7080  145.0640 C   0  0  0  0  0  2  0  0  0  0  0  0
  191.4730  178.7970  144.0320 C   0  0  0  0  0  3  0  0  0  0  0  0
  191.3400  178.5230  142.7330 C   0  0  0  0  0  3  0  0  0  0  0  0
  190.3250  176.6570  144.6740 C   0  0  0  0  0  2  0  0  0  0  0  0
  1  9  1  6  0  0  0
  1 11  1  0  0  0  0
  3 15  1  6  0  0  0
  3 10  1  0  0  0  0
  4 13  1  0  0  0  0
  5  9  1  0  0  0  0
  6 12  1  0  0  0  0
  6  5  1  0  0  0  0
  7 15  2  0  0  0  0
  8  2  1  1  0  0  0
  8  3  1  0  0  0  0
  8  1  1  0  0  0  0
 10 14  1  1  0  0  0
 10 16  1  0  0  0  0
 11 16  1  0  0  0  0
 12  2  1  0  0  0  0
 13 14  2  0  0  0  0
 14 19  1  0  0  0  0
 15  4  1  0  0  0  0
 17 23  1  0  0  0  0
 17 18  1  0  0  0  0
 19 21  1  0  0  0  0
 19 22  2  0  0  0  0
 20 18  2  0  0  0  0
 21 17  2  0  0  0  0
 22 20  1  0  0  0  0
 24  4  1  0  0  0  0
 24 25  1  0  0  0  0
 26 25  1  0  0  0  0
 26 27  1  0  0  0  0
 27 29  1  0  0  0  0
 28 30  2  0  0  0  0
 29 33  1  0  0  0  0
 29 30  1  0  0  0  0
 30 34  1  0  0  0  0
 32 31  1  0  0  0  0
 33 32  2  0  0  0  0
 34 31  1  0  0  0  0
M  END
>  <MODEL>
2

>  <REMARK>
 VINA RESULT:      -8.6      2.977      6.318
  Name = 
  6 active torsions:
  status: ('A' for Active; 'I' for Inactive)
    1  A    between atoms: C_3  and  N_13
    2  A    between atoms: C_3  and  C_17
    3  A    between atoms: N_5  and  C_18
    4  A    between atoms: C_12  and  C_28
    5  A    between atoms: C_17  and  C_29
    6  A    between atoms: C_18  and  C_29
                            x       y       z     vdW  Elec       q    Type
                         _______ _______ _______ _____ _____    ______ ____

>  <TORSDO>
F 6

$$$$
=
 OpenBabel10262423573D

 34 38  0  0  1  0  0  0  0  0999 V2000
  186.5110  177.4040  137.6090 C   0  0  2  0  0  3  0  0  0  0  0  0
  188.4350  178.8610  137.3430 C   0  0  0  0  0  2  0  0  0  0  0  0
  187.8380  178.1990  139.5270 C   0  0  1  0  0  3  0  0  0  0  0  0
  188.8210  177.5890  141.7620 N   0  0  0  0  0  0  0  0  0  0  0  0
  187.7200  176.5670  135.5250 C   0  0  0  0  0  2  0  0  0  0  0  0
  188.6740  177.6860  135.1200 C   0  0  0  0  0  2  0  0  0  0  0  0
  189.9380  177.0560  139.7720 O   0  0  0  0  0  0  0  0  0  0  0  0
  187.8580  177.7650  138.1180 N   0  0  1  0  0  0  0  0  0  0  0  0
  186.4420  177.1680  136.0950 C   0  0  0  0  0  2  0  0  0  0  0  0
  186.4720  177.9830  140.2000 C   0  0  1  0  0  3  0  0  0  0  0  0
  185.4120  178.3910  138.0510 C   0  0  0  0  0  2  0  0  0  0  0  0
  189.4040  178.2900  136.3170 C   0  0  0  0  0  2  0  0  0  0  0  0
  187.6180  178.0590  142.3870 C   0  0  0  0  0  3  0  0  0  0  0  0
  186.5000  178.3130  141.6850 C   0  0  0  0  0  0  0  0  0  0  0  0
  188.9230  177.5520  140.3320 C   0  0  0  0  0  0  0  0  0  0  0  0
  185.4840  178.7780  139.4710 N   0  0  0  0  0  2  0  0  0  0  0  0
  182.8450  178.7390  142.6280 C   0  0  0  0  0  0  0  0  0  0  0  0
  182.9510  179.3960  143.8560 C   0  0  0  0  0  3  0  0  0  0  0  0
  185.2710  178.6990  142.4270 C   0  0  0  0  0  0  0  0  0  0  0  0
  184.2100  179.7030  144.3760 C   0  0  0  0  0  3  0  0  0  0  0  0
  183.9990  178.3900  141.9200 C   0  0  0  0  0  3  0  0  0  0  0  0
  185.3630  179.3540  143.6670 C   0  0  0  0  0  3  0  0  0  0  0  0
  181.6240  178.4380  142.1240 F   0  0  0  0  0  0  0  0  0  0  0  0
  189.9120  177.1200  142.6040 C   0  0  0  0  0  2  0  0  0  0  0  0
  190.6780  178.3060  143.1580 C   0  0  0  0  0  2  0  0  0  0  0  0
  190.7940  178.1760  144.6640 C   0  0  0  0  0  2  0  0  0  0  0  0
  190.0580  176.9350  145.1460 C   0  0  0  0  0  2  0  0  0  0  0  0
  190.6330  177.3110  147.9090 O   0  0  0  0  0  0  0  0  0  0  0  0
  189.0690  177.2860  146.1580 N   0  0  0  0  0  0  0  0  0  0  0  0
  189.4340  177.4270  147.5420 C   0  0  0  0  0  0  0  0  0  0  0  0
  187.2420  178.5010  147.9580 C   0  0  0  0  0  2  0  0  0  0  0  0
  186.8120  177.9840  146.6120 C   0  0  0  0  0  3  0  0  0  0  0  0
  187.7000  177.4560  145.7670 C   0  0  0  0  0  3  0  0  0  0  0  0
  188.3600  177.6490  148.5610 C   0  0  0  0  0  2  0  0  0  0  0  0
  1  9  1  6  0  0  0
  1 11  1  0  0  0  0
  1  8  1  0  0  0  0
  3 10  1  0  0  0  0
  3 15  1  1  0  0  0
  4 13  1  0  0  0  0
  4 24  1  0  0  0  0
  5  9  1  0  0  0  0
  6  5  1  0  0  0  0
  6 12  1  0  0  0  0
  7 15  2  0  0  0  0
  8  2  1  6  0  0  0
  8  3  1  0  0  0  0
 10 16  1  6  0  0  0
 10 14  1  0  0  0  0
 11 16  1  0  0  0  0
 12  2  1  0  0  0  0
 14 13  2  0  0  0  0
 14 19  1  0  0  0  0
 15  4  1  0  0  0  0
 17 18  1  0  0  0  0
 18 20  2  0  0  0  0
 19 22  2  0  0  0  0
 21 19  1  0  0  0  0
 21 17  2  0  0  0  0
 22 20  1  0  0  0  0
 23 17  1  0  0  0  0
 24 25  1  0  0  0  0
 25 26  1  0  0  0  0
 26 27  1  0  0  0  0
 27 29  1  0  0  0  0
 29 30  1  0  0  0  0
 30 28  2  0  0  0  0
 30 34  1  0  0  0  0
 31 34  1  0  0  0  0
 32 31  1  0  0  0  0
 33 29  1  0  0  0  0
 33 32  2  0  0  0  0
M  END
>  <MODEL>
3

>  <REMARK>
 VINA RESULT:      -8.5      2.699      4.915
  Name = 
  6 active torsions:
  status: ('A' for Active; 'I' for Inactive)
    1  A    between atoms: C_3  and  N_13
    2  A    between atoms: C_3  and  C_17
    3  A    between atoms: N_5  and  C_18
    4  A    between atoms: C_12  and  C_28
    5  A    between atoms: C_17  and  C_29
    6  A    between atoms: C_18  and  C_29
                            x       y       z     vdW  Elec       q    Type
                         _______ _______ _______ _____ _____    ______ ____

>  <TORSDO>
F 6

$$$$
=
 OpenBabel10262423573D

 34 38  0  0  1  0  0  0  0  0999 V2000
  189.0870  177.6460  144.8280 C   0  0  2  0  0  3  0  0  0  0  0  0
  189.9780  175.7450  143.6090 C   0  0  0  0  0  2  0  0  0  0  0  0
  188.5660  177.2400  142.4540 C   0  0  1  0  0  3  0  0  0  0  0  0
  188.2040  178.3010  140.2010 N   0  0  0  0  0  0  0  0  0  0  0  0
  191.4940  177.3850  145.6320 C   0  0  0  0  0  2  0  0  0  0  0  0
  191.9290  175.9900  145.1940 C   0  0  0  0  0  2  0  0  0  0  0  0
  190.3650  177.8200  140.9700 O   0  0  0  0  0  0  0  0  0  0  0  0
  189.5800  177.1480  143.5190 N   0  0  1  0  0  0  0  0  0  0  0  0
  190.0190  177.3620  146.0130 C   0  0  0  0  0  2  0  0  0  0  0  0
  187.3100  178.0140  142.8890 C   0  0  1  0  0  3  0  0  0  0  0  0
  187.6510  177.1850  145.1490 C   0  0  0  0  0  2  0  0  0  0  0  0
  191.4900  175.6650  143.7690 C   0  0  0  0  0  2  0  0  0  0  0  0
  186.8050  178.3960  140.5020 C   0  0  0  0  0  3  0  0  0  0  0  0
  186.3270  178.2140  141.7450 C   0  0  0  0  0  0  0  0  0  0  0  0
  189.1230  177.8210  141.1910 C   0  0  0  0  0  0  0  0  0  0  0  0
  186.7130  177.3000  144.0180 N   0  0  0  0  0  2  0  0  0  0  0  0
  183.0310  178.9250  143.4950 C   0  0  0  0  0  0  0  0  0  0  0  0
  182.1350  178.8840  142.4260 C   0  0  0  0  0  3  0  0  0  0  0  0
  184.8770  178.4320  141.9850 C   0  0  0  0  0  0  0  0  0  0  0  0
  182.6010  178.6210  141.1350 C   0  0  0  0  0  3  0  0  0  0  0  0
  184.3940  178.7040  143.2760 C   0  0  0  0  0  3  0  0  0  0  0  0
  183.9640  178.3990  140.9160 C   0  0  0  0  0  3  0  0  0  0  0  0
  182.5810  179.1830  144.7470 F   0  0  0  0  0  0  0  0  0  0  0  0
  188.6710  178.7320  138.8910 C   0  0  0  0  0  2  0  0  0  0  0  0
  187.9940  177.9130  137.8100 C   0  0  0  0  0  2  0  0  0  0  0  0
  189.0230  177.0420  137.1140 C   0  0  0  0  0  2  0  0  0  0  0  0
  189.5140  175.9510  138.0530 C   0  0  0  0  0  2  0  0  0  0  0  0
  190.5130  173.4510  137.1280 O   0  0  0  0  0  0  0  0  0  0  0  0
  190.9210  175.6600  137.8090 N   0  0  0  0  0  0  0  0  0  0  0  0
  191.3510  174.3590  137.3720 C   0  0  0  0  0  0  0  0  0  0  0  0
  193.5630  175.3280  136.8280 C   0  0  0  0  0  2  0  0  0  0  0  0
  193.1570  176.5310  137.6350 C   0  0  0  0  0  3  0  0  0  0  0  0
  191.8970  176.6830  138.0470 C   0  0  0  0  0  3  0  0  0  0  0  0
  192.8160  174.0690  137.2720 C   0  0  0  0  0  2  0  0  0  0  0  0
  1 11  1  1  0  0  0
  1  9  1  0  0  0  0
  2 12  1  0  0  0  0
  3 15  1  6  0  0  0
  3 10  1  0  0  0  0
  3  8  1  0  0  0  0
  4 13  1  0  0  0  0
  4 15  1  0  0  0  0
  5  9  1  0  0  0  0
  6  5  1  0  0  0  0
  7 15  2  0  0  0  0
  8  2  1  1  0  0  0
  8  1  1  0  0  0  0
 10 14  1  6  0  0  0
 10 16  1  0  0  0  0
 12  6  1  0  0  0  0
 13 14  2  0  0  0  0
 14 19  1  0  0  0  0
 16 11  1  0  0  0  0
 17 23  1  0  0  0  0
 18 17  2  0  0  0  0
 19 21  2  0  0  0  0
 20 18  1  0  0  0  0
 21 17  1  0  0  0  0
 22 20  2  0  0  0  0
 22 19  1  0  0  0  0
 24  4  1  0  0  0  0
 25 24  1  0  0  0  0
 26 25  1  0  0  0  0
 26 27  1  0  0  0  0
 28 30  2  0  0  0  0
 29 33  1  0  0  0  0
 29 27  1  0  0  0  0
 30 29  1  0  0  0  0
 31 34  1  0  0  0  0
 31 32  1  0  0  0  0
 32 33  2  0  0  0  0
 34 30  1  0  0  0  0
M  END
>  <MODEL>
4

>  <REMARK>
 VINA RESULT:      -7.9      2.877      8.101
  Name = 
  6 active torsions:
  status: ('A' for Active; 'I' for Inactive)
    1  A    between atoms: C_3  and  N_13
    2  A    between atoms: C_3  and  C_17
    3  A    between atoms: N_5  and  C_18
    4  A    between atoms: C_12  and  C_28
    5  A    between atoms: C_17  and  C_29
    6  A    between atoms: C_18  and  C_29
                            x       y       z     vdW  Elec       q    Type
                         _______ _______ _______ _____ _____    ______ ____

>  <TORSDO>
F 6

$$$$
=
 OpenBabel10262423573D

 34 38  0  0  1  0  0  0  0  0999 V2000
  189.1600  177.6280  144.9240 C   0  0  2  0  0  3  0  0  0  0  0  0
  189.8940  175.6840  143.6690 C   0  0  0  0  0  2  0  0  0  0  0  0
  188.4540  177.2160  142.5990 C   0  0  1  0  0  3  0  0  0  0  0  0
  187.9670  178.2660  140.3640 N   0  0  0  0  0  0  0  0  0  0  0  0
  191.6070  177.2890  145.5560 C   0  0  0  0  0  2  0  0  0  0  0  0
  191.9610  175.8760  145.1060 C   0  0  0  0  0  2  0  0  0  0  0  0
  190.1600  177.7160  140.9830 O   0  0  0  0  0  0  0  0  0  0  0  0
  189.5390  177.0990  143.5900 N   0  0  1  0  0  0  0  0  0  0  0  0
  190.1640  177.3230  146.0430 C   0  0  0  0  0  2  0  0  0  0  0  0
  187.2600  178.0390  143.1140 C   0  0  1  0  0  3  0  0  0  0  0  0
  187.7350  177.2220  145.3530 C   0  0  0  0  0  2  0  0  0  0  0  0
  191.4090  175.5510  143.7210 C   0  0  0  0  0  2  0  0  0  0  0  0
  186.5980  178.4140  140.7640 C   0  0  0  0  0  3  0  0  0  0  0  0
  186.2050  178.2610  142.0410 C   0  0  0  0  0  0  0  0  0  0  0  0
  188.9390  177.7640  141.2920 C   0  0  0  0  0  0  0  0  0  0  0  0
  186.7230  177.3580  144.2910 N   0  0  0  0  0  2  0  0  0  0  0  0
  182.4240  178.5170  141.7830 C   0  0  0  0  0  0  0  0  0  0  0  0
  182.0930  179.0120  143.0460 C   0  0  0  0  0  3  0  0  0  0  0  0
  184.7840  178.5330  142.3810 C   0  0  0  0  0  0  0  0  0  0  0  0
  183.1000  179.2670  143.9810 C   0  0  0  0  0  3  0  0  0  0  0  0
  183.7610  178.2750  141.4540 C   0  0  0  0  0  3  0  0  0  0  0  0
  184.4360  179.0260  143.6510 C   0  0  0  0  0  3  0  0  0  0  0  0
  181.4490  178.2670  140.8770 F   0  0  0  0  0  0  0  0  0  0  0  0
  188.3530  178.6670  139.0190 C   0  0  0  0  0  2  0  0  0  0  0  0
  187.4160  178.0360  138.0070 C   0  0  0  0  0  2  0  0  0  0  0  0
  187.9250  176.6560  137.6360 C   0  0  0  0  0  2  0  0  0  0  0  0
  187.1250  176.0930  136.4710 C   0  0  0  0  0  2  0  0  0  0  0  0
  184.3630  176.7430  136.7020 O   0  0  0  0  0  0  0  0  0  0  0  0
  186.0950  175.1790  136.9510 N   0  0  0  0  0  0  0  0  0  0  0  0
  184.7240  175.5930  137.0690 C   0  0  0  0  0  0  0  0  0  0  0  0
  184.0830  173.2180  137.3460 C   0  0  0  0  0  2  0  0  0  0  0  0
  185.5380  172.9250  137.5810 C   0  0  0  0  0  3  0  0  0  0  0  0
  186.4690  173.8520  137.3460 C   0  0  0  0  0  3  0  0  0  0  0  0
  183.7320  174.6650  137.6970 C   0  0  0  0  0  2  0  0  0  0  0  0
  1 11  1  1  0  0  0
  1  9  1  0  0  0  0
  2 12  1  0  0  0  0
  3 15  1  6  0  0  0
  3 10  1  0  0  0  0
  3  8  1  0  0  0  0
  4 13  1  0  0  0  0
  4 15  1  0  0  0  0
  5  9  1  0  0  0  0
  6  5  1  0  0  0  0
  7 15  2  0  0  0  0
  8  2  1  1  0  0  0
  8  1  1  0  0  0  0
 10 14  1  6  0  0  0
 10 16  1  0  0  0  0
 12  6  1  0  0  0  0
 13 14  2  0  0  0  0
 14 19  1  0  0  0  0
 16 11  1  0  0  0  0
 17 18  1  0  0  0  0
 18 20  2  0  0  0  0
 19 22  2  0  0  0  0
 21 17  2  0  0  0  0
 21 19  1  0  0  0  0
 22 20  1  0  0  0  0
 23 17  1  0  0  0  0
 24  4  1  0  0  0  0
 25 24  1  0  0  0  0
 26 25  1  0  0  0  0
 27 29  1  0  0  0  0
 27 26  1  0  0  0  0
 28 30  2  0  0  0  0
 29 30  1  0  0  0  0
 29 33  1  0  0  0  0
 30 34  1  0  0  0  0
 31 32  1  0  0  0  0
 31 34  1  0  0  0  0
 33 32  2  0  0  0  0
M  END
>  <MODEL>
5

>  <REMARK>
 VINA RESULT:      -7.8      3.051      7.920
  Name = 
  6 active torsions:
  status: ('A' for Active; 'I' for Inactive)
    1  A    between atoms: C_3  and  N_13
    2  A    between atoms: C_3  and  C_17
    3  A    between atoms: N_5  and  C_18
    4  A    between atoms: C_12  and  C_28
    5  A    between atoms: C_17  and  C_29
    6  A    between atoms: C_18  and  C_29
                            x       y       z     vdW  Elec       q    Type
                         _______ _______ _______ _____ _____    ______ ____

>  <TORSDO>
F 6

$$$$
=
 OpenBabel10262423573D

 34 38  0  0  1  0  0  0  0  0999 V2000
  191.7420  177.4810  141.2810 C   0  0  2  0  0  3  0  0  0  0  0  0
  190.4800  175.9800  139.8510 C   0  0  0  0  0  2  0  0  0  0  0  0
  189.2970  177.2320  141.4630 C   0  0  1  0  0  3  0  0  0  0  0  0
  187.1150  178.4250  141.8520 N   0  0  0  0  0  0  0  0  0  0  0  0
  192.8000  177.6870  138.9700 C   0  0  0  0  0  2  0  0  0  0  0  0
  192.3000  176.4860  138.1750 C   0  0  0  0  0  2  0  0  0  0  0  0
  188.0920  178.3660  139.7210 O   0  0  0  0  0  0  0  0  0  0  0  0
  190.4630  177.2560  140.5620 N   0  0  1  0  0  0  0  0  0  0  0  0
  193.0010  177.2880  140.4260 C   0  0  0  0  0  2  0  0  0  0  0  0
  189.6450  177.6460  142.9030 C   0  0  1  0  0  3  0  0  0  0  0  0
  191.8500  176.6720  142.5900 C   0  0  0  0  0  2  0  0  0  0  0  0
  190.8100  176.2290  138.3860 C   0  0  0  0  0  2  0  0  0  0  0  0
  187.2560  178.1640  143.2550 C   0  0  0  0  0  3  0  0  0  0  0  0
  188.4140  177.7420  143.7910 C   0  0  0  0  0  0  0  0  0  0  0  0
  188.1640  178.0610  140.9430 C   0  0  0  0  0  0  0  0  0  0  0  0
  190.6300  176.6950  143.4160 N   0  0  0  0  0  2  0  0  0  0  0  0
  189.8010  177.1840  147.2840 C   0  0  0  0  0  0  0  0  0  0  0  0
  188.6580  177.3600  148.0670 C   0  0  0  0  0  3  0  0  0  0  0  0
  188.4980  177.5960  145.2680 C   0  0  0  0  0  0  0  0  0  0  0  0
  187.4360  177.6580  147.4590 C   0  0  0  0  0  3  0  0  0  0  0  0
  189.7220  177.3040  145.8930 C   0  0  0  0  0  3  0  0  0  0  0  0
  187.3570  177.7770  146.0690 C   0  0  0  0  0  3  0  0  0  0  0  0
  190.9870  176.8980  147.8720 F   0  0  0  0  0  0  0  0  0  0  0  0
  185.9120  179.0930  141.3780 C   0  0  0  0  0  2  0  0  0  0  0  0
  184.8900  179.1630  142.4970 C   0  0  0  0  0  2  0  0  0  0  0  0
  183.6380  178.4130  142.0870 C   0  0  0  0  0  2  0  0  0  0  0  0
  183.6740  178.0940  140.6010 C   0  0  0  0  0  2  0  0  0  0  0  0
  184.1300  180.2890  138.8460 O   0  0  0  0  0  0  0  0  0  0  0  0
  182.6270  178.8210  139.8940 N   0  0  0  0  0  0  0  0  0  0  0  0
  182.9360  179.9420  139.0480 C   0  0  0  0  0  0  0  0  0  0  0  0
  180.6370  179.8220  138.1350 C   0  0  0  0  0  2  0  0  0  0  0  0
  180.2990  178.9220  139.2920 C   0  0  0  0  0  3  0  0  0  0  0  0
  181.2590  178.4300  140.0780 C   0  0  0  0  0  3  0  0  0  0  0  0
  181.8160  180.7410  138.4580 C   0  0  0  0  0  2  0  0  0  0  0  0
  1  9  1  6  0  0  0
  1 11  1  0  0  0  0
  3 15  1  6  0  0  0
  3 10  1  0  0  0  0
  4 13  1  0  0  0  0
  5  9  1  0  0  0  0
  6 12  1  0  0  0  0
  6  5  1  0  0  0  0
  7 15  2  0  0  0  0
  8  2  1  1  0  0  0
  8  1  1  0  0  0  0
  8  3  1  0  0  0  0
 10 16  1  1  0  0  0
 10 14  1  0  0  0  0
 11 16  1  0  0  0  0
 12  2  1  0  0  0  0
 13 14  2  0  0  0  0
 14 19  1  0  0  0  0
 15  4  1  0  0  0  0
 17 23  1  0  0  0  0
 17 18  1  0  0  0  0
 19 21  1  0  0  0  0
 19 22  2  0  0  0  0
 20 18  2  0  0  0  0
 21 17  2  0  0  0  0
 22 20  1  0  0  0  0
 24  4  1  0  0  0  0
 24 25  1  0  0  0  0
 26 25  1  0  0  0  0
 27 26  1  0  0  0  0
 28 30  2  0  0  0  0
 29 33  1  0  0  0  0
 29 27  1  0  0  0  0
 30 29  1  0  0  0  0
 31 34  1  0  0  0  0
 31 32  1  0  0  0  0
 32 33  2  0  0  0  0
 34 30  1  0  0  0  0
M  END
>  <MODEL>
6

>  <REMARK>
 VINA RESULT:      -7.6      2.678      5.380
  Name = 
  6 active torsions:
  status: ('A' for Active; 'I' for Inactive)
    1  A    between atoms: C_3  and  N_13
    2  A    between atoms: C_3  and  C_17
    3  A    between atoms: N_5  and  C_18
    4  A    between atoms: C_12  and  C_28
    5  A    between atoms: C_17  and  C_29
    6  A    between atoms: C_18  and  C_29
                            x       y       z     vdW  Elec       q    Type
                         _______ _______ _______ _____ _____    ______ ____

>  <TORSDO>
F 6

$$$$
=
 OpenBabel10262423573D

 34 38  0  0  1  0  0  0  0  0999 V2000
  190.0250  175.5150  138.1920 C   0  0  2  0  0  3  0  0  0  0  0  0
  191.7730  177.1690  137.8770 C   0  0  0  0  0  2  0  0  0  0  0  0
  190.5200  177.2470  139.8740 C   0  0  1  0  0  3  0  0  0  0  0  0
  190.7160  177.7530  142.3320 N   0  0  0  0  0  0  0  0  0  0  0  0
  191.9570  174.2670  137.0910 C   0  0  0  0  0  2  0  0  0  0  0  0
  192.8820  175.3430  136.5300 C   0  0  0  0  0  2  0  0  0  0  0  0
  192.5020  176.7930  141.1550 O   0  0  0  0  0  0  0  0  0  0  0  0
  191.0700  176.3390  138.8510 N   0  0  1  0  0  0  0  0  0  0  0  0
  190.5100  174.7250  136.9700 C   0  0  0  0  0  2  0  0  0  0  0  0
  189.0320  176.9880  140.1660 C   0  0  1  0  0  3  0  0  0  0  0  0
  188.7520  176.3140  137.8480 C   0  0  0  0  0  2  0  0  0  0  0  0
  193.0880  176.4980  137.5060 C   0  0  0  0  0  2  0  0  0  0  0  0
  189.3330  178.1320  142.3350 C   0  0  0  0  0  3  0  0  0  0  0  0
  188.5100  177.8420  141.3120 C   0  0  0  0  0  0  0  0  0  0  0  0
  191.3130  177.2140  141.1440 C   0  0  0  0  0  0  0  0  0  0  0  0
  188.2880  177.2050  138.9260 N   0  0  0  0  0  2  0  0  0  0  0  0
  185.0430  178.3200  142.7880 C   0  0  0  0  0  0  0  0  0  0  0  0
  184.3530  178.8640  141.7030 C   0  0  0  0  0  3  0  0  0  0  0  0
  187.0690  178.1820  141.4450 C   0  0  0  0  0  0  0  0  0  0  0  0
  185.0130  179.0740  140.4900 C   0  0  0  0  0  3  0  0  0  0  0  0
  186.3940  177.9840  142.6600 C   0  0  0  0  0  3  0  0  0  0  0  0
  186.3640  178.7370  140.3630 C   0  0  0  0  0  3  0  0  0  0  0  0
  184.4040  178.1180  143.9650 F   0  0  0  0  0  0  0  0  0  0  0  0
  191.4860  177.8950  143.5590 C   0  0  0  0  0  2  0  0  0  0  0  0
  191.6510  176.5410  144.2200 C   0  0  0  0  0  2  0  0  0  0  0  0
  191.1040  176.5960  145.6330 C   0  0  0  0  0  2  0  0  0  0  0  0
  190.5660  177.9860  145.9380 C   0  0  0  0  0  2  0  0  0  0  0  0
  190.0320  178.3360  148.7120 O   0  0  0  0  0  0  0  0  0  0  0  0
  189.2430  177.9030  146.5440 N   0  0  0  0  0  0  0  0  0  0  0  0
  189.0590  178.0600  147.9620 C   0  0  0  0  0  0  0  0  0  0  0  0
  186.6240  178.2840  147.5700 C   0  0  0  0  0  2  0  0  0  0  0  0
  186.8690  177.7500  146.1850 C   0  0  0  0  0  3  0  0  0  0  0  0
  188.1100  177.6210  145.7110 C   0  0  0  0  0  3  0  0  0  0  0  0
  187.7040  177.8260  148.5520 C   0  0  0  0  0  2  0  0  0  0  0  0
  1  9  1  6  0  0  0
  1  8  1  0  0  0  0
  3 10  1  0  0  0  0
  3 15  1  1  0  0  0
  4 13  1  0  0  0  0
  4 24  1  0  0  0  0
  6  5  1  0  0  0  0
  6 12  1  0  0  0  0
  8  2  1  6  0  0  0
  8  3  1  0  0  0  0
  9  5  1  0  0  0  0
 10 16  1  6  0  0  0
 10 14  1  0  0  0  0
 11  1  1  0  0  0  0
 11 16  1  0  0  0  0
 12  2  1  0  0  0  0
 14 19  1  0  0  0  0
 14 13  2  0  0  0  0
 15  7  2  0  0  0  0
 15  4  1  0  0  0  0
 17 23  1  0  0  0  0
 18 17  2  0  0  0  0
 19 21  2  0  0  0  0
 20 18  1  0  0  0  0
 21 17  1  0  0  0  0
 22 20  2  0  0  0  0
 22 19  1  0  0  0  0
 24 25  1  0  0  0  0
 25 26  1  0  0  0  0
 26 27  1  0  0  0  0
 27 29  1  0  0  0  0
 29 30  1  0  0  0  0
 30 34  1  0  0  0  0
 30 28  2  0  0  0  0
 31 34  1  0  0  0  0
 32 31  1  0  0  0  0
 33 32  2  0  0  0  0
 33 29  1  0  0  0  0
M  END
>  <MODEL>
7

>  <REMARK>
 VINA RESULT:      -7.6      2.628      4.754
  Name = 
  6 active torsions:
  status: ('A' for Active; 'I' for Inactive)
    1  A    between atoms: C_3  and  N_13
    2  A    between atoms: C_3  and  C_17
    3  A    between atoms: N_5  and  C_18
    4  A    between atoms: C_12  and  C_28
    5  A    between atoms: C_17  and  C_29
    6  A    between atoms: C_18  and  C_29
                            x       y       z     vdW  Elec       q    Type
                         _______ _______ _______ _____ _____    ______ ____

>  <TORSDO>
F 6

$$$$
=
 OpenBabel10262423573D

 34 38  0  0  1  0  0  0  0  0999 V2000
  182.2140  177.9400  140.7760 C   0  0  2  0  0  3  0  0  0  0  0  0
  182.7700  179.9150  139.4800 C   0  0  0  0  0  2  0  0  0  0  0  0
  184.4870  178.8900  140.7330 C   0  0  1  0  0  3  0  0  0  0  0  0
  186.9490  178.3720  140.6880 N   0  0  0  0  0  0  0  0  0  0  0  0
  180.9230  177.7080  138.5890 C   0  0  0  0  0  2  0  0  0  0  0  0
  180.9380  179.0920  137.9490 C   0  0  0  0  0  2  0  0  0  0  0  0
  185.6880  178.3940  138.7110 O   0  0  0  0  0  0  0  0  0  0  0  0
  183.2530  178.6260  139.9700 N   0  0  1  0  0  0  0  0  0  0  0  0
  180.8380  177.8470  140.1030 C   0  0  0  0  0  2  0  0  0  0  0  0
  184.4900  178.2180  142.1160 C   0  0  1  0  0  3  0  0  0  0  0  0
  182.0790  178.5120  142.2020 C   0  0  0  0  0  2  0  0  0  0  0  0
  182.3080  179.7590  138.0380 C   0  0  0  0  0  2  0  0  0  0  0  0
  186.9530  178.4050  142.1220 C   0  0  0  0  0  3  0  0  0  0  0  0
  185.8170  178.3890  142.8400 C   0  0  0  0  0  0  0  0  0  0  0  0
  185.7170  178.5120  139.9670 C   0  0  0  0  0  0  0  0  0  0  0  0
  183.3650  178.7570  142.8780 N   0  0  0  0  0  2  0  0  0  0  0  0
  187.1210  177.6640  146.3330 C   0  0  0  0  0  0  0  0  0  0  0  0
  186.1220  178.2320  147.1250 C   0  0  0  0  0  3  0  0  0  0  0  0
  185.9170  178.3220  144.3210 C   0  0  0  0  0  0  0  0  0  0  0  0
  185.0220  178.8490  146.5250 C   0  0  0  0  0  3  0  0  0  0  0  0
  187.0210  177.7120  144.9390 C   0  0  0  0  0  3  0  0  0  0  0  0
  184.9220  178.8960  145.1310 C   0  0  0  0  0  3  0  0  0  0  0  0
  188.1900  177.0680  146.9150 F   0  0  0  0  0  0  0  0  0  0  0  0
  188.2070  178.1620  139.9860 C   0  0  0  0  0  2  0  0  0  0  0  0
  189.3020  177.8330  140.9830 C   0  0  0  0  0  2  0  0  0  0  0  0
  190.3160  176.9090  140.3380 C   0  0  0  0  0  2  0  0  0  0  0  0
  190.7120  177.4340  138.9660 C   0  0  0  0  0  2  0  0  0  0  0  0
  193.4980  176.9180  138.6830 O   0  0  0  0  0  0  0  0  0  0  0  0
  191.2790  176.3650  138.1520 N   0  0  0  0  0  0  0  0  0  0  0  0
  192.7010  176.1890  138.0350 C   0  0  0  0  0  0  0  0  0  0  0  0
  192.2910  173.9650  137.0270 C   0  0  0  0  0  2  0  0  0  0  0  0
  190.8580  174.3860  136.8510 C   0  0  0  0  0  3  0  0  0  0  0  0
  190.3960  175.4980  137.4270 C   0  0  0  0  0  3  0  0  0  0  0  0
  193.2330  175.1690  137.0780 C   0  0  0  0  0  2  0  0  0  0  0  0
  1  9  1  6  0  0  0
  1 11  1  0  0  0  0
  3 15  1  6  0  0  0
  3 10  1  0  0  0  0
  4 13  1  0  0  0  0
  5  9  1  0  0  0  0
  6 12  1  0  0  0  0
  6  5  1  0  0  0  0
  7 15  2  0  0  0  0
  8  2  1  1  0  0  0
  8  3  1  0  0  0  0
  8  1  1  0  0  0  0
 10 14  1  1  0  0  0
 10 16  1  0  0  0  0
 11 16  1  0  0  0  0
 12  2  1  0  0  0  0
 13 14  2  0  0  0  0
 14 19  1  0  0  0  0
 15  4  1  0  0  0  0
 17 23  1  0  0  0  0
 17 18  1  0  0  0  0
 19 21  1  0  0  0  0
 19 22  2  0  0  0  0
 20 18  2  0  0  0  0
 21 17  2  0  0  0  0
 22 20  1  0  0  0  0
 24  4  1  0  0  0  0
 24 25  1  0  0  0  0
 26 25  1  0  0  0  0
 27 26  1  0  0  0  0
 29 27  1  0  0  0  0
 30 29  1  0  0  0  0
 30 28  2  0  0  0  0
 31 34  1  0  0  0  0
 32 31  1  0  0  0  0
 32 33  2  0  0  0  0
 33 29  1  0  0  0  0
 34 30  1  0  0  0  0
M  END
>  <MODEL>
8

>  <REMARK>
 VINA RESULT:      -7.6      2.849      7.476
  Name = 
  6 active torsions:
  status: ('A' for Active; 'I' for Inactive)
    1  A    between atoms: C_3  and  N_13
    2  A    between atoms: C_3  and  C_17
    3  A    between atoms: N_5  and  C_18
    4  A    between atoms: C_12  and  C_28
    5  A    between atoms: C_17  and  C_29
    6  A    between atoms: C_18  and  C_29
                            x       y       z     vdW  Elec       q    Type
                         _______ _______ _______ _____ _____    ______ ____

>  <TORSDO>
F 6

$$$$
=
 OpenBabel10262423573D

 34 38  0  0  1  0  0  0  0  0999 V2000
  187.2690  176.1630  137.3130 C   0  0  2  0  0  3  0  0  0  0  0  0
  188.6880  178.1260  137.4720 C   0  0  0  0  0  2  0  0  0  0  0  0
  186.6510  178.1310  138.6610 C   0  0  1  0  0  3  0  0  0  0  0  0
  185.5950  178.9280  140.8020 N   0  0  0  0  0  0  0  0  0  0  0  0
  189.6560  175.2740  137.4390 C   0  0  0  0  0  2  0  0  0  0  0  0
  190.5600  176.4640  137.1380 C   0  0  0  0  0  2  0  0  0  0  0  0
  187.8450  178.2750  140.7410 O   0  0  0  0  0  0  0  0  0  0  0  0
  187.7450  177.2670  138.1840 N   0  0  1  0  0  0  0  0  0  0  0  0
  188.3830  175.3770  136.6100 C   0  0  0  0  0  2  0  0  0  0  0  0
  185.2580  177.5760  138.3180 C   0  0  1  0  0  3  0  0  0  0  0  0
  186.2010  176.6130  136.2960 C   0  0  0  0  0  2  0  0  0  0  0  0
  190.1080  177.7340  137.8550 C   0  0  0  0  0  2  0  0  0  0  0  0
  184.3310  178.9820  140.1250 C   0  0  0  0  0  3  0  0  0  0  0  0
  184.1380  178.4070  138.9260 C   0  0  0  0  0  0  0  0  0  0  0  0
  186.7510  178.4130  140.1290 C   0  0  0  0  0  0  0  0  0  0  0  0
  185.1580  177.4860  136.8620 N   0  0  0  0  0  2  0  0  0  0  0  0
  180.7320  177.2620  137.6910 C   0  0  0  0  0  0  0  0  0  0  0  0
  180.1650  178.4710  137.2840 C   0  0  0  0  0  3  0  0  0  0  0  0
  182.7690  178.4250  138.3450 C   0  0  0  0  0  0  0  0  0  0  0  0
  180.8900  179.6590  137.4070 C   0  0  0  0  0  3  0  0  0  0  0  0
  182.0260  177.2400  138.2220 C   0  0  0  0  0  3  0  0  0  0  0  0
  182.1830  179.6360  137.9380 C   0  0  0  0  0  3  0  0  0  0  0  0
  180.0290  176.1110  137.5740 F   0  0  0  0  0  0  0  0  0  0  0  0
  185.6690  179.3700  142.1870 C   0  0  0  0  0  2  0  0  0  0  0  0
  184.9330  178.3890  143.0790 C   0  0  0  0  0  2  0  0  0  0  0  0
  185.6110  178.3270  144.4340 C   0  0  0  0  0  2  0  0  0  0  0  0
  186.9750  177.6630  144.3120 C   0  0  0  0  0  2  0  0  0  0  0  0
  189.7100  176.9830  144.7110 O   0  0  0  0  0  0  0  0  0  0  0  0
  187.6320  177.6010  145.6120 N   0  0  0  0  0  0  0  0  0  0  0  0
  189.0130  177.2170  145.7330 C   0  0  0  0  0  0  0  0  0  0  0  0
  188.9820  178.0380  148.0690 C   0  0  0  0  0  2  0  0  0  0  0  0
  187.4820  178.0580  147.9690 C   0  0  0  0  0  3  0  0  0  0  0  0
  186.8730  177.8930  146.7930 C   0  0  0  0  0  3  0  0  0  0  0  0
  189.6020  177.0320  147.0970 C   0  0  0  0  0  2  0  0  0  0  0  0
  1 11  1  6  0  0  0
  1  8  1  0  0  0  0
  2 12  1  0  0  0  0
  3 15  1  1  0  0  0
  4 24  1  0  0  0  0
  6  5  1  0  0  0  0
  6 12  1  0  0  0  0
  8  2  1  6  0  0  0
  8  3  1  0  0  0  0
  9  1  1  0  0  0  0
  9  5  1  0  0  0  0
 10 16  1  6  0  0  0
 10  3  1  0  0  0  0
 10 14  1  0  0  0  0
 11 16  1  0  0  0  0
 13  4  1  0  0  0  0
 14 13  2  0  0  0  0
 15  7  2  0  0  0  0
 15  4  1  0  0  0  0
 17 21  1  0  0  0  0
 18 20  1  0  0  0  0
 18 17  2  0  0  0  0
 19 14  1  0  0  0  0
 20 22  2  0  0  0  0
 21 19  2  0  0  0  0
 22 19  1  0  0  0  0
 23 17  1  0  0  0  0
 24 25  1  0  0  0  0
 25 26  1  0  0  0  0
 27 26  1  0  0  0  0
 27 29  1  0  0  0  0
 28 30  2  0  0  0  0
 29 30  1  0  0  0  0
 29 33  1  0  0  0  0
 30 34  1  0  0  0  0
 32 31  1  0  0  0  0
 33 32  2  0  0  0  0
 34 31  1  0  0  0  0
M  END
>  <MODEL>
9

>  <REMARK>
 VINA RESULT:      -7.5      3.741      6.095
  Name = 
  6 active torsions:
  status: ('A' for Active; 'I' for Inactive)
    1  A    between atoms: C_3  and  N_13
    2  A    between atoms: C_3  and  C_17
    3  A    between atoms: N_5  and  C_18
    4  A    between atoms: C_12  and  C_28
    5  A    between atoms: C_17  and  C_29
    6  A    between atoms: C_18  and  C_29
                            x       y       z     vdW  Elec       q    Type
                         _______ _______ _______ _____ _____    ______ ____

>  <TORSDO>
F 6

$$$$
