=
 OpenBabel10272414573D

 37 39  0  0  1  0  0  0  0  0999 V2000
  187.7920  172.4030  136.2910 C   0  0  0  0  0  2  0  0  0  0  0  0
  192.9710  173.7410  136.7860 C   0  0  0  0  0  1  0  0  0  0  0  0
  187.7390  173.8130  136.8620 C   0  0  1  0  0  3  0  0  0  0  0  0
  185.9900  178.2100  139.3580 C   0  0  1  0  0  3  0  0  0  0  0  0
  187.4690  174.7290  135.8320 O   0  0  0  0  0  0  0  0  0  0  0  0
  191.8750  176.0510  138.6860 C   0  0  0  0  0  2  0  0  0  0  0  0
  187.9690  177.1210  137.4840 N   0  0  0  0  0  0  0  0  0  0  0  0
  190.3700  175.9550  138.8740 C   0  0  0  0  0  2  0  0  0  0  0  0
  186.5310  176.8790  137.2590 C   0  0  2  0  0  3  0  0  0  0  0  0
  190.7040  173.4790  134.9090 C   0  0  0  0  0  2  0  0  0  0  0  0
  190.1340  172.5490  135.7830 O   0  0  0  0  0  0  0  0  0  0  0  0
  191.0150  174.7480  135.6450 C   0  0  0  0  0  3  0  0  0  0  0  0
  189.7680  177.3170  139.2030 C   0  0  1  0  0  3  0  0  0  0  0  0
  185.6330  177.9560  137.8920 C   0  0  0  0  0  2  0  0  0  0  0  0
  188.2560  177.2950  138.9220 C   0  0  1  0  0  3  0  0  0  0  0  0
  192.0350  174.8740  136.5020 C   0  0  0  0  0  0  0  0  0  0  0  0
  186.3880  174.3930  136.6690 C   0  0  2  0  0  3  0  0  0  0  0  0
  192.2280  176.1780  137.2110 C   0  0  0  0  0  2  0  0  0  0  0  0
  188.8820  172.2710  135.2330 C   0  0  0  0  0  2  0  0  0  0  0  0
  187.4900  178.4800  139.5150 C   0  0  0  0  0  2  0  0  0  0  0  0
  186.1390  175.4750  137.7240 C   0  0  0  0  0  2  0  0  0  0  0  0
  189.7750  176.6300  141.6510 C   0  0  0  0  0  1  0  0  0  0  0  0
  190.1050  177.7240  140.6440 C   0  0  0  0  0  2  0  0  0  0  0  0
  188.3780  178.2990  136.7170 C   0  0  0  0  0  2  0  0  0  0  0  0
  190.1030  177.7630  135.1730 O   0  0  0  0  0  0  0  0  0  0  0  0
  188.8660  177.8890  135.3720 C   0  0  0  0  0  0  0  0  0  0  0  0
  186.6570  178.2350  134.3460 C   0  0  0  0  0  1  0  0  0  0  0  0
  187.9480  177.6450  134.3500 O   0  0  0  0  0  0  0  0  0  0  0  0
  185.1320  179.2610  139.9300 N   0  0  0  0  0  0  0  0  0  0  0  0
  184.5250  178.8250  141.1850 C   0  0  0  0  0  2  0  0  0  0  0  0
  185.5060  179.0250  142.3230 C   0  0  0  0  0  2  0  0  0  0  0  0
  184.7450  179.1550  143.6250 C   0  0  0  0  0  2  0  0  0  0  0  0
  183.2710  178.9240  143.3730 C   0  0  0  0  0  1  0  0  0  0  0  0
  184.0500  179.5450  138.9960 C   0  0  0  0  0  2  0  0  0  0  0  0
  182.7020  179.4460  139.6980 C   0  0  0  0  0  2  0  0  0  0  0  0
  182.1730  178.5650  137.4240 C   0  0  0  0  0  1  0  0  0  0  0  0
  181.5920  179.1140  138.7130 C   0  0  0  0  0  2  0  0  0  0  0  0
  3  1  1  6  0  0  0
  4 20  1  0  0  0  0
  4 29  1  6  0  0  0
  5 17  1  0  0  0  0
  5  3  1  0  0  0  0
  6  8  1  0  0  0  0
  7 15  1  0  0  0  0
  8 13  1  0  0  0  0
  9  7  1  0  0  0  0
  9 21  1  1  0  0  0
  9 14  1  0  0  0  0
 10 12  1  0  0  0  0
 10 11  1  0  0  0  0
 12 16  2  0  0  0  0
 13 23  1  1  0  0  0
 14  4  1  0  0  0  0
 15 13  1  0  0  0  0
 15 20  1  6  0  0  0
 16  2  1  0  0  0  0
 16 18  1  0  0  0  0
 17  3  1  0  0  0  0
 17 21  1  1  0  0  0
 18  6  1  0  0  0  0
 19 11  1  0  0  0  0
 19  1  1  0  0  0  0
 23 22  1  0  0  0  0
 24  7  1  0  0  0  0
 25 26  2  0  0  0  0
 26 24  1  0  0  0  0
 27 28  1  0  0  0  0
 28 26  1  0  0  0  0
 29 30  1  0  0  0  0
 30 31  1  0  0  0  0
 31 32  1  0  0  0  0
 33 32  1  0  0  0  0
 34 35  1  0  0  0  0
 34 29  1  0  0  0  0
 36 37  1  0  0  0  0
 37 35  1  0  0  0  0
M  END
>  <MODEL>
1

>  <REMARK>
 VINA RESULT:      -4.7      0.000      0.000
  Name = 
  11 active torsions:
  status: ('A' for Active; 'I' for Inactive)
    1  A    between atoms: C_1  and  C_23
    2  A    between atoms: C_1  and  N_33
    3  A    between atoms: C_4  and  N_10
    4  A    between atoms: C_4  and  C_24
    5  A    between atoms: C_5  and  C_23
    6  A    between atoms: C_7  and  N_33
    7  A    between atoms: C_17  and  C_26
    8  A    between atoms: C_17  and  N_33
    9  A    between atoms: C_20  and  C_25
   10  A    between atoms: C_24  and  O_28
   11  A    between atoms: C_26  and  C_34
                            x       y       z     vdW  Elec       q    Type
                         _______ _______ _______ _____ _____    ______ ____

>  <TORSDO>
F 11

$$$$
=
 OpenBabel10272414573D

 37 39  0  0  1  0  0  0  0  0999 V2000
  185.2290  178.6860  143.4040 C   0  0  0  0  0  2  0  0  0  0  0  0
  179.9820  177.5360  143.4160 C   0  0  0  0  0  1  0  0  0  0  0  0
  184.9400  178.3470  141.9500 C   0  0  1  0  0  3  0  0  0  0  0  0
  185.6250  176.8560  136.8580 C   0  0  1  0  0  3  0  0  0  0  0  0
  184.8080  179.5310  141.2070 O   0  0  0  0  0  0  0  0  0  0  0  0
  180.5800  176.2080  140.5830 C   0  0  0  0  0  2  0  0  0  0  0  0
  183.8380  178.1910  138.7650 N   0  0  0  0  0  0  0  0  0  0  0  0
  182.0600  176.2620  140.2410 C   0  0  0  0  0  2  0  0  0  0  0  0
  185.2470  178.6140  138.6550 C   0  0  2  0  0  3  0  0  0  0  0  0
  181.9890  179.7050  143.4180 C   0  0  0  0  0  2  0  0  0  0  0  0
  182.9030  178.8110  143.9820 O   0  0  0  0  0  0  0  0  0  0  0  0
  181.4130  179.1240  142.1620 C   0  0  0  0  0  3  0  0  0  0  0  0
  182.2770  176.2440  138.7300 C   0  0  1  0  0  3  0  0  0  0  0  0
  185.8630  178.3070  137.2800 C   0  0  0  0  0  2  0  0  0  0  0  0
  183.6860  176.7670  138.4040 C   0  0  1  0  0  3  0  0  0  0  0  0
  180.5100  178.1360  142.1500 C   0  0  0  0  0  0  0  0  0  0  0  0
  186.0320  178.8460  141.0800 C   0  0  2  0  0  3  0  0  0  0  0  0
  180.0340  177.6060  140.8350 C   0  0  0  0  0  2  0  0  0  0  0  0
  184.1070  179.5160  144.0180 C   0  0  0  0  0  2  0  0  0  0  0  0
  184.1400  176.4920  136.9690 C   0  0  0  0  0  2  0  0  0  0  0  0
  186.0810  178.0190  139.7920 C   0  0  0  0  0  2  0  0  0  0  0  0
  180.8490  174.8230  137.1790 C   0  0  0  0  0  1  0  0  0  0  0  0
  182.0110  174.8430  138.1630 C   0  0  0  0  0  2  0  0  0  0  0  0
  183.0170  179.0440  137.9040 C   0  0  0  0  0  2  0  0  0  0  0  0
  183.3460  181.1810  138.8910 O   0  0  0  0  0  0  0  0  0  0  0  0
  182.5460  180.2350  138.6630 C   0  0  0  0  0  0  0  0  0  0  0  0
  180.4540  181.4790  139.0170 C   0  0  0  0  0  1  0  0  0  0  0  0
  181.2250  180.2910  139.1070 O   0  0  0  0  0  0  0  0  0  0  0  0
  186.2040  176.5960  135.5290 N   0  0  0  0  0  0  0  0  0  0  0  0
  185.5260  175.4880  134.8620 C   0  0  0  0  0  2  0  0  0  0  0  0
  186.2030  174.1820  135.2270 C   0  0  0  0  0  2  0  0  0  0  0  0
  185.2050  173.2720  135.9100 C   0  0  0  0  0  2  0  0  0  0  0  0
  185.6290  173.0470  137.3460 C   0  0  0  0  0  1  0  0  0  0  0  0
  187.6030  176.2220  135.6900 C   0  0  0  0  0  2  0  0  0  0  0  0
  188.5120  177.3270  135.1680 C   0  0  0  0  0  2  0  0  0  0  0  0
  190.2620  176.2010  136.5470 C   0  0  0  0  0  1  0  0  0  0  0  0
  189.9750  176.9150  135.2400 C   0  0  0  0  0  2  0  0  0  0  0  0
  1 19  1  0  0  0  0
  3  1  1  1  0  0  0
  4 29  1  6  0  0  0
  4 20  1  0  0  0  0
  4 14  1  0  0  0  0
  5  3  1  0  0  0  0
  6 18  1  0  0  0  0
  8  6  1  0  0  0  0
  9 14  1  6  0  0  0
  9  7  1  0  0  0  0
  9 21  1  0  0  0  0
 10 11  1  0  0  0  0
 11 19  1  0  0  0  0
 12 10  1  0  0  0  0
 13 23  1  1  0  0  0
 13  8  1  0  0  0  0
 15 20  1  6  0  0  0
 15 13  1  0  0  0  0
 15  7  1  0  0  0  0
 16 12  2  0  0  0  0
 16  2  1  0  0  0  0
 17 21  1  6  0  0  0
 17  5  1  0  0  0  0
 17  3  1  0  0  0  0
 18 16  1  0  0  0  0
 22 23  1  0  0  0  0
 24 26  1  0  0  0  0
 24  7  1  0  0  0  0
 26 25  2  0  0  0  0
 26 28  1  0  0  0  0
 27 28  1  0  0  0  0
 29 34  1  0  0  0  0
 30 31  1  0  0  0  0
 30 29  1  0  0  0  0
 31 32  1  0  0  0  0
 32 33  1  0  0  0  0
 35 37  1  0  0  0  0
 35 34  1  0  0  0  0
 37 36  1  0  0  0  0
M  END
>  <MODEL>
2

>  <REMARK>
 VINA RESULT:      -4.3      3.505      8.823
  Name = 
  11 active torsions:
  status: ('A' for Active; 'I' for Inactive)
    1  A    between atoms: C_1  and  C_23
    2  A    between atoms: C_1  and  N_33
    3  A    between atoms: C_4  and  N_10
    4  A    between atoms: C_4  and  C_24
    5  A    between atoms: C_5  and  C_23
    6  A    between atoms: C_7  and  N_33
    7  A    between atoms: C_17  and  C_26
    8  A    between atoms: C_17  and  N_33
    9  A    between atoms: C_20  and  C_25
   10  A    between atoms: C_24  and  O_28
   11  A    between atoms: C_26  and  C_34
                            x       y       z     vdW  Elec       q    Type
                         _______ _______ _______ _____ _____    ______ ____

>  <TORSDO>
F 11

$$$$
=
 OpenBabel10272414573D

 37 39  0  0  1  0  0  0  0  0999 V2000
  187.4540  172.9930  136.7190 C   0  0  0  0  0  2  0  0  0  0  0  0
  192.0880  175.2810  138.1810 C   0  0  0  0  0  1  0  0  0  0  0  0
  187.0240  174.3550  137.2440 C   0  0  1  0  0  3  0  0  0  0  0  0
  184.0210  178.2870  139.2800 C   0  0  1  0  0  3  0  0  0  0  0  0
  186.7880  175.2240  136.1660 O   0  0  0  0  0  0  0  0  0  0  0  0
  190.2270  177.3020  139.7940 C   0  0  0  0  0  2  0  0  0  0  0  0
  186.4950  177.6330  137.8420 N   0  0  0  0  0  0  0  0  0  0  0  0
  188.7600  176.9170  139.6900 C   0  0  0  0  0  2  0  0  0  0  0  0
  185.2000  177.1270  137.3490 C   0  0  2  0  0  3  0  0  0  0  0  0
  190.3170  174.6310  135.9070 C   0  0  0  0  0  2  0  0  0  0  0  0
  189.7780  173.5920  136.6700 O   0  0  0  0  0  0  0  0  0  0  0  0
  190.2330  175.9210  136.6670 C   0  0  0  0  0  3  0  0  0  0  0  0
  187.8570  178.1330  139.8720 C   0  0  1  0  0  3  0  0  0  0  0  0
  184.0090  178.0000  137.7780 C   0  0  0  0  0  2  0  0  0  0  0  0
  186.4610  177.8300  139.3060 C   0  0  1  0  0  3  0  0  0  0  0  0
  191.0260  176.2220  137.7020 C   0  0  0  0  0  0  0  0  0  0  0  0
  185.6500  174.6720  136.7850 C   0  0  2  0  0  3  0  0  0  0  0  0
  190.8260  177.5230  138.4130 C   0  0  0  0  0  2  0  0  0  0  0  0
  188.7310  173.0920  135.8930 C   0  0  0  0  0  2  0  0  0  0  0  0
  185.3840  178.8360  139.7190 C   0  0  0  0  0  2  0  0  0  0  0  0
  185.0010  175.6640  137.7530 C   0  0  0  0  0  2  0  0  0  0  0  0
  188.3650  177.4930  142.2800 C   0  0  0  0  0  1  0  0  0  0  0  0
  187.8270  178.5670  141.3440 C   0  0  0  0  0  2  0  0  0  0  0  0
  186.8120  178.8830  137.1480 C   0  0  0  0  0  2  0  0  0  0  0  0
  189.1470  179.1020  136.7670 O   0  0  0  0  0  0  0  0  0  0  0  0
  188.0370  178.7110  136.3200 C   0  0  0  0  0  0  0  0  0  0  0  0
  186.7140  178.0600  134.3510 C   0  0  0  0  0  1  0  0  0  0  0  0
  187.9410  178.1150  135.0630 O   0  0  0  0  0  0  0  0  0  0  0  0
  182.8850  179.1440  139.6580 N   0  0  0  0  0  0  0  0  0  0  0  0
  181.8710  178.3890  140.3890 C   0  0  0  0  0  2  0  0  0  0  0  0
  180.7960  177.9170  139.4310 C   0  0  0  0  0  2  0  0  0  0  0  0
  180.1850  176.6340  139.9540 C   0  0  0  0  0  2  0  0  0  0  0  0
  181.1130  175.4760  139.6540 C   0  0  0  0  0  1  0  0  0  0  0  0
  182.2600  179.6570  138.4460 C   0  0  0  0  0  2  0  0  0  0  0  0
  182.0490  181.1620  138.5530 C   0  0  0  0  0  2  0  0  0  0  0  0
  180.6720  183.1100  137.8190 C   0  0  0  0  0  1  0  0  0  0  0  0
  180.8040  181.5990  137.7950 C   0  0  0  0  0  2  0  0  0  0  0  0
  3  1  1  6  0  0  0
  4 29  1  6  0  0  0
  4 20  1  0  0  0  0
  5 17  1  0  0  0  0
  5  3  1  0  0  0  0
  7 15  1  0  0  0  0
  8  6  1  0  0  0  0
  8 13  1  0  0  0  0
  9 21  1  1  0  0  0
  9 14  1  0  0  0  0
  9  7  1  0  0  0  0
 10 12  1  0  0  0  0
 10 11  1  0  0  0  0
 12 16  2  0  0  0  0
 13 23  1  1  0  0  0
 14  4  1  0  0  0  0
 15 20  1  6  0  0  0
 15 13  1  0  0  0  0
 16  2  1  0  0  0  0
 16 18  1  0  0  0  0
 17  3  1  0  0  0  0
 17 21  1  1  0  0  0
 18  6  1  0  0  0  0
 19 11  1  0  0  0  0
 19  1  1  0  0  0  0
 23 22  1  0  0  0  0
 24  7  1  0  0  0  0
 26 25  2  0  0  0  0
 26 24  1  0  0  0  0
 27 28  1  0  0  0  0
 28 26  1  0  0  0  0
 29 30  1  0  0  0  0
 31 32  1  0  0  0  0
 31 30  1  0  0  0  0
 33 32  1  0  0  0  0
 34 35  1  0  0  0  0
 34 29  1  0  0  0  0
 37 36  1  0  0  0  0
 37 35  1  0  0  0  0
M  END
>  <MODEL>
3

>  <REMARK>
 VINA RESULT:      -3.9      1.700      2.529
  Name = 
  11 active torsions:
  status: ('A' for Active; 'I' for Inactive)
    1  A    between atoms: C_1  and  C_23
    2  A    between atoms: C_1  and  N_33
    3  A    between atoms: C_4  and  N_10
    4  A    between atoms: C_4  and  C_24
    5  A    between atoms: C_5  and  C_23
    6  A    between atoms: C_7  and  N_33
    7  A    between atoms: C_17  and  C_26
    8  A    between atoms: C_17  and  N_33
    9  A    between atoms: C_20  and  C_25
   10  A    between atoms: C_24  and  O_28
   11  A    between atoms: C_26  and  C_34
                            x       y       z     vdW  Elec       q    Type
                         _______ _______ _______ _____ _____    ______ ____

>  <TORSDO>
F 11

$$$$
=
 OpenBabel10272414573D

 37 39  0  0  1  0  0  0  0  0999 V2000
  193.1760  177.3020  139.5650 C   0  0  0  0  0  2  0  0  0  0  0  0
  192.9020  175.8930  134.3890 C   0  0  0  0  0  1  0  0  0  0  0  0
  191.6880  177.3770  139.2590 C   0  0  1  0  0  3  0  0  0  0  0  0
  186.5100  178.6920  139.5500 C   0  0  1  0  0  3  0  0  0  0  0  0
  191.0490  176.2210  139.7380 O   0  0  0  0  0  0  0  0  0  0  0  0
  189.9840  177.1660  134.5150 C   0  0  0  0  0  2  0  0  0  0  0  0
  188.4650  176.8040  138.4410 N   0  0  0  0  0  0  0  0  0  0  0  0
  189.7000  177.7810  135.8760 C   0  0  0  0  0  2  0  0  0  0  0  0
  188.4430  177.0750  139.8910 C   0  0  2  0  0  3  0  0  0  0  0  0
  193.1670  174.9020  137.1600 C   0  0  0  0  0  2  0  0  0  0  0  0
  193.6810  176.1510  137.5200 O   0  0  0  0  0  0  0  0  0  0  0  0
  191.8440  175.0720  136.4740 C   0  0  0  0  0  3  0  0  0  0  0  0
  188.2020  177.8030  136.1680 C   0  0  1  0  0  3  0  0  0  0  0  0
  187.0680  177.5460  140.3950 C   0  0  0  0  0  2  0  0  0  0  0  0
  187.9740  177.9710  137.6790 C   0  0  1  0  0  3  0  0  0  0  0  0
  191.7130  175.5260  135.2230 C   0  0  0  0  0  0  0  0  0  0  0  0
  190.9040  177.3850  140.5170 C   0  0  2  0  0  3  0  0  0  0  0  0
  190.3400  175.6930  134.6530 C   0  0  0  0  0  2  0  0  0  0  0  0
  193.8210  176.0880  138.9070 C   0  0  0  0  0  2  0  0  0  0  0  0
  186.5370  178.3340  138.0600 C   0  0  0  0  0  2  0  0  0  0  0  0
  189.5510  178.0590  140.2750 C   0  0  0  0  0  2  0  0  0  0  0  0
  186.4920  178.3000  134.3540 C   0  0  0  0  0  1  0  0  0  0  0  0
  187.5040  178.8830  135.3310 C   0  0  0  0  0  2  0  0  0  0  0  0
  187.6550  175.6160  138.1660 C   0  0  0  0  0  2  0  0  0  0  0  0
  189.6480  174.3890  137.7540 O   0  0  0  0  0  0  0  0  0  0  0  0
  188.4560  174.6140  137.4120 C   0  0  0  0  0  0  0  0  0  0  0  0
  188.0680  172.5390  136.1500 C   0  0  0  0  0  1  0  0  0  0  0  0
  187.8770  173.9320  136.3410 O   0  0  0  0  0  0  0  0  0  0  0  0
  185.1840  179.1060  140.0400 N   0  0  0  0  0  0  0  0  0  0  0  0
  184.8080  178.3670  141.2420 C   0  0  0  0  0  2  0  0  0  0  0  0
  184.8560  179.2880  142.4440 C   0  0  0  0  0  2  0  0  0  0  0  0
  184.7390  178.4680  143.7110 C   0  0  0  0  0  2  0  0  0  0  0  0
  183.4500  178.8210  144.4220 C   0  0  0  0  0  1  0  0  0  0  0  0
  184.1920  178.8090  139.0140 C   0  0  0  0  0  2  0  0  0  0  0  0
  183.0250  178.0350  139.6140 C   0  0  0  0  0  2  0  0  0  0  0  0
  182.4320  177.9280  137.1910 C   0  0  0  0  0  1  0  0  0  0  0  0
  181.8930  177.8810  138.6090 C   0  0  0  0  0  2  0  0  0  0  0  0
  2 16  1  0  0  0  0
  3  1  1  1  0  0  0
  3  5  1  0  0  0  0
  3 17  1  0  0  0  0
  4 29  1  1  0  0  0
  4 14  1  0  0  0  0
  5 17  1  0  0  0  0
  6 18  1  0  0  0  0
  6  8  1  0  0  0  0
  7  9  1  0  0  0  0
  8 13  1  0  0  0  0
  9 21  1  6  0  0  0
  9 14  1  0  0  0  0
 10 11  1  0  0  0  0
 11 19  1  0  0  0  0
 12 10  1  0  0  0  0
 13 23  1  6  0  0  0
 13 15  1  0  0  0  0
 15 20  1  6  0  0  0
 15  7  1  0  0  0  0
 16 12  2  0  0  0  0
 17 21  1  6  0  0  0
 18 16  1  0  0  0  0
 19  1  1  0  0  0  0
 20  4  1  0  0  0  0
 22 23  1  0  0  0  0
 24  7  1  0  0  0  0
 26 25  2  0  0  0  0
 26 24  1  0  0  0  0
 27 28  1  0  0  0  0
 28 26  1  0  0  0  0
 29 30  1  0  0  0  0
 30 31  1  0  0  0  0
 31 32  1  0  0  0  0
 32 33  1  0  0  0  0
 34 35  1  0  0  0  0
 34 29  1  0  0  0  0
 36 37  1  0  0  0  0
 37 35  1  0  0  0  0
M  END
>  <MODEL>
4

>  <REMARK>
 VINA RESULT:      -2.6      1.650      4.018
  Name = 
  11 active torsions:
  status: ('A' for Active; 'I' for Inactive)
    1  A    between atoms: C_1  and  C_23
    2  A    between atoms: C_1  and  N_33
    3  A    between atoms: C_4  and  N_10
    4  A    between atoms: C_4  and  C_24
    5  A    between atoms: C_5  and  C_23
    6  A    between atoms: C_7  and  N_33
    7  A    between atoms: C_17  and  C_26
    8  A    between atoms: C_17  and  N_33
    9  A    between atoms: C_20  and  C_25
   10  A    between atoms: C_24  and  O_28
   11  A    between atoms: C_26  and  C_34
                            x       y       z     vdW  Elec       q    Type
                         _______ _______ _______ _____ _____    ______ ____

>  <TORSDO>
F 11

$$$$
=
 OpenBabel10272414573D

 37 39  0  0  1  0  0  0  0  0999 V2000
  187.7910  178.7740  135.4090 C   0  0  0  0  0  2  0  0  0  0  0  0
  188.2180  178.7270  140.7630 C   0  0  0  0  0  1  0  0  0  0  0  0
  188.8480  177.7110  135.6690 C   0  0  1  0  0  3  0  0  0  0  0  0
  192.9680  174.3750  134.9480 C   0  0  1  0  0  3  0  0  0  0  0  0
  188.2670  176.4350  135.5770 O   0  0  0  0  0  0  0  0  0  0  0  0
  190.9430  177.1690  140.2260 C   0  0  0  0  0  2  0  0  0  0  0  0
  190.6310  175.0060  136.6090 N   0  0  0  0  0  0  0  0  0  0  0  0
  191.2340  177.0460  138.7390 C   0  0  0  0  0  2  0  0  0  0  0  0
  190.4810  174.8680  135.1480 C   0  0  2  0  0  3  0  0  0  0  0  0
  186.6210  177.8140  138.4510 C   0  0  0  0  0  2  0  0  0  0  0  0
  187.1380  178.8850  137.7170 O   0  0  0  0  0  0  0  0  0  0  0  0
  187.7410  177.0110  139.0410 C   0  0  0  0  0  3  0  0  0  0  0  0
  192.1070  175.8290  138.4460 C   0  0  1  0  0  3  0  0  0  0  0  0
  191.5580  173.9720  134.5130 C   0  0  0  0  0  2  0  0  0  0  0  0
  191.9940  175.4570  136.9590 C   0  0  1  0  0  3  0  0  0  0  0  0
  188.4740  177.4180  140.0830 C   0  0  0  0  0  0  0  0  0  0  0  0
  189.0250  176.8590  134.4680 C   0  0  2  0  0  3  0  0  0  0  0  0
  189.5940  176.5510  140.5640 C   0  0  0  0  0  2  0  0  0  0  0  0
  186.6540  178.6900  136.4220 C   0  0  0  0  0  2  0  0  0  0  0  0
  193.0600  174.4720  136.4750 C   0  0  0  0  0  2  0  0  0  0  0  0
  190.4260  176.2430  134.4780 C   0  0  0  0  0  2  0  0  0  0  0  0
  193.6650  177.2350  139.8820 C   0  0  0  0  0  1  0  0  0  0  0  0
  193.5530  176.0810  138.8940 C   0  0  0  0  0  2  0  0  0  0  0  0
  190.3220  173.7220  137.2420 C   0  0  0  0  0  2  0  0  0  0  0  0
  187.9510  173.8100  137.3760 O   0  0  0  0  0  0  0  0  0  0  0  0
  188.9590  173.2730  136.8460 C   0  0  0  0  0  0  0  0  0  0  0  0
  187.8000  172.3160  134.8990 C   0  0  0  0  0  1  0  0  0  0  0  0
  188.8160  172.2680  135.8890 O   0  0  0  0  0  0  0  0  0  0  0  0
  193.9750  173.4860  134.3460 N   0  0  0  0  0  0  0  0  0  0  0  0
  193.8860  172.1350  134.8940 C   0  0  0  0  0  2  0  0  0  0  0  0
  195.1260  171.8320  135.7110 C   0  0  0  0  0  2  0  0  0  0  0  0
  195.5110  170.3810  135.5210 C   0  0  0  0  0  2  0  0  0  0  0  0
  194.9860  169.5640  136.6830 C   0  0  0  0  0  1  0  0  0  0  0  0
  195.3030  173.9990  134.6600 C   0  0  0  0  0  2  0  0  0  0  0  0
  195.3550  175.5050  134.4410 C   0  0  0  0  0  2  0  0  0  0  0  0
  196.7580  175.2150  136.4850 C   0  0  0  0  0  1  0  0  0  0  0  0
  196.3730  176.1600  135.3630 C   0  0  0  0  0  2  0  0  0  0  0  0
  1 19  1  0  0  0  0
  3  1  1  6  0  0  0
  4 29  1  1  0  0  0
  4 20  1  0  0  0  0
  5  3  1  0  0  0  0
  6 18  1  0  0  0  0
  7 15  1  0  0  0  0
  7 24  1  0  0  0  0
  8  6  1  0  0  0  0
  9 21  1  6  0  0  0
  9  7  1  0  0  0  0
 10 12  1  0  0  0  0
 11 10  1  0  0  0  0
 12 16  2  0  0  0  0
 13  8  1  0  0  0  0
 13 23  1  6  0  0  0
 14  4  1  0  0  0  0
 14  9  1  0  0  0  0
 15 20  1  1  0  0  0
 15 13  1  0  0  0  0
 16 18  1  0  0  0  0
 16  2  1  0  0  0  0
 17 21  1  1  0  0  0
 17  5  1  0  0  0  0
 17  3  1  0  0  0  0
 19 11  1  0  0  0  0
 23 22  1  0  0  0  0
 26 24  1  0  0  0  0
 26 25  2  0  0  0  0
 27 28  1  0  0  0  0
 28 26  1  0  0  0  0
 29 34  1  0  0  0  0
 29 30  1  0  0  0  0
 30 31  1  0  0  0  0
 32 31  1  0  0  0  0
 32 33  1  0  0  0  0
 35 34  1  0  0  0  0
 35 37  1  0  0  0  0
 37 36  1  0  0  0  0
M  END
>  <MODEL>
5

>  <REMARK>
 VINA RESULT:      -2.3      2.746      8.583
  Name = 
  11 active torsions:
  status: ('A' for Active; 'I' for Inactive)
    1  A    between atoms: C_1  and  C_23
    2  A    between atoms: C_1  and  N_33
    3  A    between atoms: C_4  and  N_10
    4  A    between atoms: C_4  and  C_24
    5  A    between atoms: C_5  and  C_23
    6  A    between atoms: C_7  and  N_33
    7  A    between atoms: C_17  and  C_26
    8  A    between atoms: C_17  and  N_33
    9  A    between atoms: C_20  and  C_25
   10  A    between atoms: C_24  and  O_28
   11  A    between atoms: C_26  and  C_34
                            x       y       z     vdW  Elec       q    Type
                         _______ _______ _______ _____ _____    ______ ____

>  <TORSDO>
F 11

$$$$
=
 OpenBabel10272414573D

 37 39  0  0  1  0  0  0  0  0999 V2000
  193.2050  177.4500  139.5600 C   0  0  0  0  0  2  0  0  0  0  0  0
  193.1520  176.1600  134.3460 C   0  0  0  0  0  1  0  0  0  0  0  0
  191.7230  177.4370  139.2160 C   0  0  1  0  0  3  0  0  0  0  0  0
  186.4660  178.4130  139.4000 C   0  0  1  0  0  3  0  0  0  0  0  0
  191.1480  176.2320  139.6500 O   0  0  0  0  0  0  0  0  0  0  0  0
  190.1560  177.2400  134.4240 C   0  0  0  0  0  2  0  0  0  0  0  0
  188.5650  176.6820  138.2980 N   0  0  0  0  0  0  0  0  0  0  0  0
  189.7990  177.8010  135.7910 C   0  0  0  0  0  2  0  0  0  0  0  0
  188.4890  176.9140  139.7530 C   0  0  2  0  0  3  0  0  0  0  0  0
  193.4100  175.1170  137.0990 C   0  0  0  0  0  2  0  0  0  0  0  0
  193.8340  176.3870  137.5010 O   0  0  0  0  0  0  0  0  0  0  0  0
  192.0970  175.2190  136.3820 C   0  0  0  0  0  3  0  0  0  0  0  0
  188.2960  177.7200  136.0440 C   0  0  1  0  0  3  0  0  0  0  0  0
  187.0750  177.2830  140.2320 C   0  0  0  0  0  2  0  0  0  0  0  0
  188.0190  177.8350  137.5520 C   0  0  1  0  0  3  0  0  0  0  0  0
  191.9690  175.6970  135.1380 C   0  0  0  0  0  0  0  0  0  0  0  0
  190.9090  177.3640  140.4530 C   0  0  2  0  0  3  0  0  0  0  0  0
  190.6030  175.7900  134.5360 C   0  0  0  0  0  2  0  0  0  0  0  0
  193.9430  176.2970  138.8900 C   0  0  0  0  0  2  0  0  0  0  0  0
  186.5530  178.0950  137.9030 C   0  0  0  0  0  2  0  0  0  0  0  0
  189.5210  177.9560  140.1900 C   0  0  0  0  0  2  0  0  0  0  0  0
  186.4340  178.1720  134.3730 C   0  0  0  0  0  1  0  0  0  0  0  0
  187.5510  178.7750  135.2150 C   0  0  0  0  0  2  0  0  0  0  0  0
  187.8400  175.4520  137.9740 C   0  0  0  0  0  2  0  0  0  0  0  0
  189.9650  174.4150  137.7300 O   0  0  0  0  0  0  0  0  0  0  0  0
  188.7640  174.4630  137.3530 C   0  0  0  0  0  0  0  0  0  0  0  0
  186.9020  173.3240  136.2170 C   0  0  0  0  0  1  0  0  0  0  0  0
  188.2870  173.5990  136.3680 O   0  0  0  0  0  0  0  0  0  0  0  0
  185.1040  178.7280  139.8640 N   0  0  0  0  0  0  0  0  0  0  0  0
  184.4680  179.7230  139.0050 C   0  0  0  0  0  2  0  0  0  0  0  0
  183.1160  179.2140  138.5480 C   0  0  0  0  0  2  0  0  0  0  0  0
  182.1220  180.3560  138.5520 C   0  0  0  0  0  2  0  0  0  0  0  0
  181.2770  180.2920  137.2970 C   0  0  0  0  0  1  0  0  0  0  0  0
  185.1840  179.2930  141.2050 C   0  0  0  0  0  2  0  0  0  0  0  0
  184.0850  178.7180  142.0890 C   0  0  0  0  0  2  0  0  0  0  0  0
  182.9840  178.7880  144.3280 C   0  0  0  0  0  1  0  0  0  0  0  0
  184.0960  179.3600  143.4680 C   0  0  0  0  0  2  0  0  0  0  0  0
  2 16  1  0  0  0  0
  3  1  1  1  0  0  0
  3  5  1  0  0  0  0
  3 17  1  0  0  0  0
  4 29  1  1  0  0  0
  4 14  1  0  0  0  0
  5 17  1  0  0  0  0
  6 18  1  0  0  0  0
  6  8  1  0  0  0  0
  7  9  1  0  0  0  0
  8 13  1  0  0  0  0
  9 21  1  6  0  0  0
  9 14  1  0  0  0  0
 10 11  1  0  0  0  0
 11 19  1  0  0  0  0
 12 10  1  0  0  0  0
 13 23  1  6  0  0  0
 13 15  1  0  0  0  0
 15 20  1  6  0  0  0
 15  7  1  0  0  0  0
 16 12  2  0  0  0  0
 17 21  1  6  0  0  0
 18 16  1  0  0  0  0
 19  1  1  0  0  0  0
 20  4  1  0  0  0  0
 22 23  1  0  0  0  0
 24  7  1  0  0  0  0
 26 25  2  0  0  0  0
 26 24  1  0  0  0  0
 27 28  1  0  0  0  0
 28 26  1  0  0  0  0
 29 34  1  0  0  0  0
 30 29  1  0  0  0  0
 31 32  1  0  0  0  0
 31 30  1  0  0  0  0
 33 32  1  0  0  0  0
 34 35  1  0  0  0  0
 35 37  1  0  0  0  0
 37 36  1  0  0  0  0
M  END
>  <MODEL>
6

>  <REMARK>
 VINA RESULT:      -2.3      1.728      4.616
  Name = 
  11 active torsions:
  status: ('A' for Active; 'I' for Inactive)
    1  A    between atoms: C_1  and  C_23
    2  A    between atoms: C_1  and  N_33
    3  A    between atoms: C_4  and  N_10
    4  A    between atoms: C_4  and  C_24
    5  A    between atoms: C_5  and  C_23
    6  A    between atoms: C_7  and  N_33
    7  A    between atoms: C_17  and  C_26
    8  A    between atoms: C_17  and  N_33
    9  A    between atoms: C_20  and  C_25
   10  A    between atoms: C_24  and  O_28
   11  A    between atoms: C_26  and  C_34
                            x       y       z     vdW  Elec       q    Type
                         _______ _______ _______ _____ _____    ______ ____

>  <TORSDO>
F 11

$$$$
=
 OpenBabel10272414573D

 37 39  0  0  1  0  0  0  0  0999 V2000
  184.4550  179.8840  144.2650 C   0  0  0  0  0  2  0  0  0  0  0  0
  187.4510  178.4750  148.4960 C   0  0  0  0  0  1  0  0  0  0  0  0
  185.7090  179.3010  143.6300 C   0  0  1  0  0  3  0  0  0  0  0  0
  189.5680  178.2330  140.0830 C   0  0  1  0  0  3  0  0  0  0  0  0
  185.4570  177.9850  143.2090 O   0  0  0  0  0  0  0  0  0  0  0  0
  189.8300  178.3510  146.3810 C   0  0  0  0  0  2  0  0  0  0  0  0
  188.2730  177.3800  142.5750 N   0  0  0  0  0  0  0  0  0  0  0  0
  189.3730  178.7860  144.9980 C   0  0  0  0  0  2  0  0  0  0  0  0
  187.4610  177.6200  141.3670 C   0  0  2  0  0  3  0  0  0  0  0  0
  185.1730  177.7090  146.7750 C   0  0  0  0  0  2  0  0  0  0  0  0
  185.0120  179.0590  146.4500 O   0  0  0  0  0  0  0  0  0  0  0  0
  186.5850  177.2830  146.5020 C   0  0  0  0  0  3  0  0  0  0  0  0
  190.2360  178.1550  143.9090 C   0  0  1  0  0  3  0  0  0  0  0  0
  188.2560  177.4470  140.0620 C   0  0  0  0  0  2  0  0  0  0  0  0
  189.4930  178.2130  142.5640 C   0  0  1  0  0  3  0  0  0  0  0  0
  187.6240  177.6310  147.2710 C   0  0  0  0  0  0  0  0  0  0  0  0
  185.4580  178.9740  142.2060 C   0  0  2  0  0  3  0  0  0  0  0  0
  188.9960  177.1800  146.8810 C   0  0  0  0  0  2  0  0  0  0  0  0
  184.0120  179.0690  145.4750 C   0  0  0  0  0  2  0  0  0  0  0  0
  190.3740  177.9160  141.3480 C   0  0  0  0  0  2  0  0  0  0  0  0
  186.7810  178.9890  141.4350 C   0  0  0  0  0  2  0  0  0  0  0  0
  191.6110  180.2220  144.4550 C   0  0  0  0  0  1  0  0  0  0  0  0
  191.6180  178.8200  143.8610 C   0  0  0  0  0  2  0  0  0  0  0  0
  188.6080  175.9560  142.6480 C   0  0  0  0  0  2  0  0  0  0  0  0
  190.8450  175.7620  141.8690 O   0  0  0  0  0  0  0  0  0  0  0  0
  190.0710  175.7850  142.8620 C   0  0  0  0  0  0  0  0  0  0  0  0
  191.8800  175.1840  144.4170 C   0  0  0  0  0  1  0  0  0  0  0  0
  190.5680  175.6590  144.1600 O   0  0  0  0  0  0  0  0  0  0  0  0
  190.3200  178.0300  138.8330 N   0  0  0  0  0  0  0  0  0  0  0  0
  189.4300  177.6730  137.7310 C   0  0  0  0  0  2  0  0  0  0  0  0
  188.9820  178.9270  137.0090 C   0  0  0  0  0  2  0  0  0  0  0  0
  187.5330  178.7800  136.5960 C   0  0  0  0  0  2  0  0  0  0  0  0
  187.3780  177.5430  135.7370 C   0  0  0  0  0  1  0  0  0  0  0  0
  191.2520  176.9250  139.0190 C   0  0  0  0  0  2  0  0  0  0  0  0
  190.9230  175.7860  138.0620 C   0  0  0  0  0  2  0  0  0  0  0  0
  193.1740  176.1730  137.0550 C   0  0  0  0  0  1  0  0  0  0  0  0
  192.1890  175.1250  137.5380 C   0  0  0  0  0  2  0  0  0  0  0  0
  1 19  1  0  0  0  0
  3  1  1  1  0  0  0
  4 29  1  6  0  0  0
  4 20  1  0  0  0  0
  5  3  1  0  0  0  0
  6 18  1  0  0  0  0
  7 24  1  0  0  0  0
  8  6  1  0  0  0  0
  9 14  1  6  0  0  0
  9 21  1  0  0  0  0
  9  7  1  0  0  0  0
 11 10  1  0  0  0  0
 12 10  1  0  0  0  0
 12 16  2  0  0  0  0
 13 23  1  6  0  0  0
 13  8  1  0  0  0  0
 14  4  1  0  0  0  0
 15 20  1  6  0  0  0
 15  7  1  0  0  0  0
 15 13  1  0  0  0  0
 16  2  1  0  0  0  0
 17 21  1  6  0  0  0
 17  5  1  0  0  0  0
 17  3  1  0  0  0  0
 18 16  1  0  0  0  0
 19 11  1  0  0  0  0
 23 22  1  0  0  0  0
 24 26  1  0  0  0  0
 25 26  2  0  0  0  0
 26 28  1  0  0  0  0
 28 27  1  0  0  0  0
 29 34  1  0  0  0  0
 30 29  1  0  0  0  0
 31 30  1  0  0  0  0
 32 31  1  0  0  0  0
 33 32  1  0  0  0  0
 35 34  1  0  0  0  0
 36 37  1  0  0  0  0
 37 35  1  0  0  0  0
M  END
>  <MODEL>
7

>  <REMARK>
 VINA RESULT:      -2.0      4.054      8.697
  Name = 
  11 active torsions:
  status: ('A' for Active; 'I' for Inactive)
    1  A    between atoms: C_1  and  C_23
    2  A    between atoms: C_1  and  N_33
    3  A    between atoms: C_4  and  N_10
    4  A    between atoms: C_4  and  C_24
    5  A    between atoms: C_5  and  C_23
    6  A    between atoms: C_7  and  N_33
    7  A    between atoms: C_17  and  C_26
    8  A    between atoms: C_17  and  N_33
    9  A    between atoms: C_20  and  C_25
   10  A    between atoms: C_24  and  O_28
   11  A    between atoms: C_26  and  C_34
                            x       y       z     vdW  Elec       q    Type
                         _______ _______ _______ _____ _____    ______ ____

>  <TORSDO>
F 11

$$$$
=
 OpenBabel10272414573D

 37 39  0  0  1  0  0  0  0  0999 V2000
  188.3380  178.6050  138.8850 C   0  0  0  0  0  2  0  0  0  0  0  0
  188.0290  175.6020  134.4420 C   0  0  0  0  0  1  0  0  0  0  0  0
  186.8440  178.3640  138.7260 C   0  0  1  0  0  3  0  0  0  0  0  0
  181.5420  178.9490  139.1370 C   0  0  1  0  0  3  0  0  0  0  0  0
  186.4360  177.3420  139.5980 O   0  0  0  0  0  0  0  0  0  0  0  0
  184.9500  176.4170  134.4750 C   0  0  0  0  0  2  0  0  0  0  0  0
  183.7250  177.1070  138.4600 N   0  0  0  0  0  0  0  0  0  0  0  0
  184.6390  177.3850  135.6050 C   0  0  0  0  0  2  0  0  0  0  0  0
  183.7350  177.8180  139.7520 C   0  0  2  0  0  3  0  0  0  0  0  0
  188.6050  175.5900  137.3400 C   0  0  0  0  0  2  0  0  0  0  0  0
  188.9200  176.9490  137.2460 O   0  0  0  0  0  0  0  0  0  0  0  0
  187.2380  175.3420  136.7760 C   0  0  0  0  0  3  0  0  0  0  0  0
  183.1770  177.2840  136.0310 C   0  0  1  0  0  3  0  0  0  0  0  0
  182.3300  178.2220  140.2290 C   0  0  0  0  0  2  0  0  0  0  0  0
  183.0050  177.8880  137.4340 C   0  0  1  0  0  3  0  0  0  0  0  0
  186.9660  175.3520  135.4660 C   0  0  0  0  0  0  0  0  0  0  0  0
  186.1390  178.6600  139.9960 C   0  0  2  0  0  3  0  0  0  0  0  0
  185.5560  175.1310  135.0180 C   0  0  0  0  0  2  0  0  0  0  0  0
  189.1430  177.3500  138.5650 C   0  0  0  0  0  2  0  0  0  0  0  0
  181.5490  178.1430  137.8320 C   0  0  0  0  0  2  0  0  0  0  0  0
  184.6800  179.0200  139.7010 C   0  0  0  0  0  2  0  0  0  0  0  0
  181.2750  176.9410  134.3790 C   0  0  0  0  0  1  0  0  0  0  0  0
  182.2630  177.9310  134.9810 C   0  0  0  0  0  2  0  0  0  0  0  0
  183.1130  175.7900  138.6460 C   0  0  0  0  0  2  0  0  0  0  0  0
  184.8350  174.3240  137.9150 O   0  0  0  0  0  0  0  0  0  0  0  0
  183.6980  174.8140  137.6860 C   0  0  0  0  0  0  0  0  0  0  0  0
  181.6880  173.8630  136.6330 C   0  0  0  0  0  1  0  0  0  0  0  0
  182.9770  174.4500  136.5470 O   0  0  0  0  0  0  0  0  0  0  0  0
  180.1940  179.3020  139.6120 N   0  0  0  0  0  0  0  0  0  0  0  0
  180.0450  180.7470  139.7580 C   0  0  0  0  0  2  0  0  0  0  0  0
  179.9820  181.3960  138.3900 C   0  0  0  0  0  2  0  0  0  0  0  0
  181.3870  181.6490  137.8890 C   0  0  0  0  0  2  0  0  0  0  0  0
  181.6270  183.1400  137.7940 C   0  0  0  0  0  1  0  0  0  0  0  0
  179.9870  178.7040  140.9250 C   0  0  0  0  0  2  0  0  0  0  0  0
  180.0710  179.7690  142.0110 C   0  0  0  0  0  2  0  0  0  0  0  0
  181.7820  179.0150  143.6650 C   0  0  0  0  0  1  0  0  0  0  0  0
  180.2970  179.1420  143.3790 C   0  0  0  0  0  2  0  0  0  0  0  0
  2 16  1  0  0  0  0
  3  1  1  1  0  0  0
  3  5  1  0  0  0  0
  3 17  1  0  0  0  0
  4 29  1  1  0  0  0
  4 14  1  0  0  0  0
  5 17  1  0  0  0  0
  6 18  1  0  0  0  0
  6  8  1  0  0  0  0
  7 24  1  0  0  0  0
  7  9  1  0  0  0  0
  8 13  1  0  0  0  0
  9 21  1  6  0  0  0
  9 14  1  0  0  0  0
 11 10  1  0  0  0  0
 11 19  1  0  0  0  0
 12 10  1  0  0  0  0
 13 23  1  6  0  0  0
 13 15  1  0  0  0  0
 15 20  1  1  0  0  0
 15  7  1  0  0  0  0
 16 12  2  0  0  0  0
 17 21  1  6  0  0  0
 18 16  1  0  0  0  0
 19  1  1  0  0  0  0
 20  4  1  0  0  0  0
 22 23  1  0  0  0  0
 26 25  2  0  0  0  0
 26 24  1  0  0  0  0
 28 27  1  0  0  0  0
 28 26  1  0  0  0  0
 29 30  1  0  0  0  0
 29 34  1  0  0  0  0
 31 30  1  0  0  0  0
 32 31  1  0  0  0  0
 33 32  1  0  0  0  0
 34 35  1  0  0  0  0
 35 37  1  0  0  0  0
 37 36  1  0  0  0  0
M  END
>  <MODEL>
8

>  <REMARK>
 VINA RESULT:      -2.0      2.703      6.107
  Name = 
  11 active torsions:
  status: ('A' for Active; 'I' for Inactive)
    1  A    between atoms: C_1  and  C_23
    2  A    between atoms: C_1  and  N_33
    3  A    between atoms: C_4  and  N_10
    4  A    between atoms: C_4  and  C_24
    5  A    between atoms: C_5  and  C_23
    6  A    between atoms: C_7  and  N_33
    7  A    between atoms: C_17  and  C_26
    8  A    between atoms: C_17  and  N_33
    9  A    between atoms: C_20  and  C_25
   10  A    between atoms: C_24  and  O_28
   11  A    between atoms: C_26  and  C_34
                            x       y       z     vdW  Elec       q    Type
                         _______ _______ _______ _____ _____    ______ ____

>  <TORSDO>
F 11

$$$$
