=
 OpenBabel10272402033D

 32 36  0  0  1  0  0  0  0  0999 V2000
  187.0800  178.1500  141.6210 C   0  0  0  0  0  0  0  0  0  0  0  0
  188.0520  177.4120  143.7510 C   0  0  0  0  0  0  0  0  0  0  0  0
  187.2570  178.4530  140.2650 C   0  0  0  0  0  3  0  0  0  0  0  0
  188.1890  177.6810  142.3690 C   0  0  0  0  0  0  0  0  0  0  0  0
  189.2160  176.8290  144.5360 C   0  0  2  0  0  3  0  0  0  0  0  0
  186.8090  177.6180  144.3810 C   0  0  0  0  0  0  0  0  0  0  0  0
  187.9410  177.8240  146.5760 C   0  0  1  0  0  3  0  0  0  0  0  0
  189.4300  177.5150  141.7160 C   0  0  0  0  0  0  0  0  0  0  0  0
  189.1950  177.1140  146.0500 C   0  0  0  0  0  2  0  0  0  0  0  0
  190.6190  176.9470  142.4300 C   0  0  0  0  0  2  0  0  0  0  0  0
  189.5460  177.8050  140.3920 N   0  0  0  0  0  0  0  0  0  0  0  0
  185.7160  178.0520  143.6200 C   0  0  0  0  0  3  0  0  0  0  0  0
  185.8270  178.3200  142.2530 C   0  0  0  0  0  0  0  0  0  0  0  0
  186.6680  177.3440  145.8640 C   0  0  1  0  0  3  0  0  0  0  0  0
  190.5660  177.2420  143.9290 C   0  0  2  0  0  3  0  0  0  0  0  0
  188.5000  178.2720  139.6650 C   0  0  0  0  0  3  0  0  0  0  0  0
  182.1250  178.6400  141.8090 C   0  0  0  0  0  0  0  0  0  0  0  0
  181.4310  179.6480  138.5390 O   0  0  0  0  0  1  0  0  0  0  0  0
  180.9870  178.8310  142.5860 O   0  0  0  0  0  1  0  0  0  0  0  0
  183.6380  179.5300  139.3290 C   0  0  0  0  0  3  0  0  0  0  0  0
  184.6080  178.7770  141.5380 C   0  0  0  0  0  0  0  0  0  0  0  0
  181.9460  178.1130  140.4260 C   0  0  0  0  0  2  0  0  0  0  0  0
  184.7190  179.0930  140.2340 C   0  0  0  0  0  3  0  0  0  0  0  0
  183.3390  178.9180  142.3130 C   0  0  0  0  0  0  0  0  0  0  0  0
  183.4520  179.4700  143.9840 Cl  0  0  0  0  0  0  0  0  0  0  0  0
  182.3700  179.1310  139.4210 C   0  0  0  0  0  0  0  0  0  0  0  0
  185.4350  178.0230  146.4730 C   0  0  0  0  0  2  0  0  0  0  0  0
  185.7310  179.4820  146.7750 C   0  0  0  0  0  1  0  0  0  0  0  0
  187.8730  177.6930  148.1000 C   0  0  0  0  0  2  0  0  0  0  0  0
  189.1030  178.2700  148.7880 C   0  0  0  0  0  1  0  0  0  0  0  0
  191.7090  176.6460  144.6290 N   0  0  0  0  0  2  0  0  0  0  0  0
  191.9210  175.2650  144.2010 C   0  0  0  0  0  1  0  0  0  0  0  0
  1 13  2  0  0  0  0
  1  4  1  0  0  0  0
  2  6  1  0  0  0  0
  2  5  1  0  0  0  0
  3  1  1  0  0  0  0
  4  2  2  0  0  0  0
  5  9  1  1  0  0  0
  6 14  1  0  0  0  0
  7 29  1  1  0  0  0
  8  4  1  0  0  0  0
  8 10  1  0  0  0  0
  9  7  1  0  0  0  0
 10 15  1  0  0  0  0
 11  8  2  0  0  0  0
 12  6  2  0  0  0  0
 13 12  1  0  0  0  0
 14 27  1  1  0  0  0
 14  7  1  0  0  0  0
 15  5  1  0  0  0  0
 15 31  1  1  0  0  0
 16  3  2  0  0  0  0
 16 11  1  0  0  0  0
 17 24  2  0  0  0  0
 17 19  1  0  0  0  0
 18 26  1  0  0  0  0
 20 26  2  0  0  0  0
 20 23  1  0  0  0  0
 21 13  1  0  0  0  0
 21 24  1  0  0  0  0
 22 17  1  0  0  0  0
 23 21  2  0  0  0  0
 24 25  1  0  0  0  0
 26 22  1  0  0  0  0
 27 28  1  0  0  0  0
 29 30  1  0  0  0  0
 32 31  1  0  0  0  0
M  END
>  <MODEL>
1

>  <REMARK>
 VINA RESULT:     -11.0      0.000      0.000
  Name = 
  4 active torsions:
  status: ('A' for Active; 'I' for Inactive)
    1  A    between atoms: C_9  and  C_28
    2  A    between atoms: C_11  and  C_12
    3  A    between atoms: N_13  and  C_29
    4  A    between atoms: C_16  and  C_27
                            x       y       z     vdW  Elec       q    Type
                         _______ _______ _______ _____ _____    ______ ____

>  <TORSDO>
F 4

$$$$
=
 OpenBabel10272402033D

 32 36  0  0  1  0  0  0  0  0999 V2000
  189.6550  177.1180  142.7420 C   0  0  0  0  0  0  0  0  0  0  0  0
  187.6170  177.6000  144.0220 C   0  0  0  0  0  0  0  0  0  0  0  0
  191.0220  176.8080  142.7370 C   0  0  0  0  0  3  0  0  0  0  0  0
  188.9850  177.2410  143.9850 C   0  0  0  0  0  0  0  0  0  0  0  0
  186.8760  177.6500  145.3490 C   0  0  2  0  0  3  0  0  0  0  0  0
  186.9270  177.8380  142.8180 C   0  0  0  0  0  0  0  0  0  0  0  0
  185.2540  179.2050  144.0340 C   0  0  1  0  0  3  0  0  0  0  0  0
  189.7140  177.0270  145.1760 C   0  0  0  0  0  0  0  0  0  0  0  0
  185.6420  178.5740  145.3770 C   0  0  0  0  0  2  0  0  0  0  0  0
  189.0450  177.0630  146.5180 C   0  0  0  0  0  2  0  0  0  0  0  0
  191.0340  176.7090  145.1180 N   0  0  0  0  0  0  0  0  0  0  0  0
  187.5970  177.6810  141.5990 C   0  0  0  0  0  3  0  0  0  0  0  0
  188.9470  177.3230  141.5370 C   0  0  0  0  0  0  0  0  0  0  0  0
  185.4660  178.2360  142.8610 C   0  0  1  0  0  3  0  0  0  0  0  0
  187.8240  177.9820  146.5110 C   0  0  2  0  0  3  0  0  0  0  0  0
  191.6970  176.6050  143.9380 C   0  0  0  0  0  3  0  0  0  0  0  0
  188.8870  176.4590  137.8970 C   0  0  0  0  0  0  0  0  0  0  0  0
  192.1620  176.1820  136.7160 O   0  0  0  0  0  1  0  0  0  0  0  0
  188.0270  176.5580  136.8080 O   0  0  0  0  0  1  0  0  0  0  0  0
  191.7180  176.9250  138.8980 C   0  0  0  0  0  3  0  0  0  0  0  0
  189.5630  177.1840  140.1930 C   0  0  0  0  0  0  0  0  0  0  0  0
  190.0290  175.5050  137.8010 C   0  0  0  0  0  2  0  0  0  0  0  0
  190.9050  177.1020  140.1170 C   0  0  0  0  0  3  0  0  0  0  0  0
  188.6710  177.2020  138.9950 C   0  0  0  0  0  0  0  0  0  0  0  0
  187.2530  178.2490  139.0390 Cl  0  0  0  0  0  0  0  0  0  0  0  0
  191.3270  176.2410  137.8240 C   0  0  0  0  0  0  0  0  0  0  0  0
  184.9940  178.8820  141.5520 C   0  0  0  0  0  2  0  0  0  0  0  0
  183.9010  178.0410  140.9140 C   0  0  0  0  0  1  0  0  0  0  0  0
  183.8290  179.7600  144.1150 C   0  0  0  0  0  2  0  0  0  0  0  0
  182.8090  178.6890  144.4780 C   0  0  0  0  0  1  0  0  0  0  0  0
  187.1490  177.9800  147.8130 N   0  0  0  0  0  2  0  0  0  0  0  0
  188.1200  177.9630  148.9040 C   0  0  0  0  0  1  0  0  0  0  0  0
  1  4  1  0  0  0  0
  2  5  1  0  0  0  0
  3  1  2  0  0  0  0
  3 16  1  0  0  0  0
  4  2  1  0  0  0  0
  4  8  2  0  0  0  0
  5  9  1  6  0  0  0
  5 15  1  0  0  0  0
  6 14  1  0  0  0  0
  6  2  2  0  0  0  0
  7 29  1  1  0  0  0
  7  9  1  0  0  0  0
  8 10  1  0  0  0  0
 11  8  1  0  0  0  0
 12  6  1  0  0  0  0
 13 12  2  0  0  0  0
 13  1  1  0  0  0  0
 14 27  1  6  0  0  0
 14  7  1  0  0  0  0
 15 10  1  0  0  0  0
 15 31  1  1  0  0  0
 16 11  2  0  0  0  0
 17 24  2  0  0  0  0
 18 26  1  0  0  0  0
 19 17  1  0  0  0  0
 20 23  1  0  0  0  0
 21 13  1  0  0  0  0
 22 26  1  0  0  0  0
 22 17  1  0  0  0  0
 23 21  2  0  0  0  0
 24 25  1  0  0  0  0
 24 21  1  0  0  0  0
 26 20  2  0  0  0  0
 28 27  1  0  0  0  0
 29 30  1  0  0  0  0
 31 32  1  0  0  0  0
M  END
>  <MODEL>
2

>  <REMARK>
 VINA RESULT:     -11.0      3.262      5.933
  Name = 
  4 active torsions:
  status: ('A' for Active; 'I' for Inactive)
    1  A    between atoms: C_9  and  C_28
    2  A    between atoms: C_11  and  C_12
    3  A    between atoms: N_13  and  C_29
    4  A    between atoms: C_16  and  C_27
                            x       y       z     vdW  Elec       q    Type
                         _______ _______ _______ _____ _____    ______ ____

>  <TORSDO>
F 4

$$$$
=
 OpenBabel10272402033D

 32 36  0  0  1  0  0  0  0  0999 V2000
  189.3800  177.6710  141.4640 C   0  0  0  0  0  0  0  0  0  0  0  0
  188.6060  177.3780  143.7750 C   0  0  0  0  0  0  0  0  0  0  0  0
  190.4450  177.7300  140.5560 C   0  0  0  0  0  3  0  0  0  0  0  0
  189.6560  177.3970  142.8280 C   0  0  0  0  0  0  0  0  0  0  0  0
  188.8870  177.0020  145.2210 C   0  0  2  0  0  3  0  0  0  0  0  0
  187.2850  177.6360  143.3570 C   0  0  0  0  0  0  0  0  0  0  0  0
  186.6700  178.2890  145.6670 C   0  0  1  0  0  3  0  0  0  0  0  0
  190.9940  177.1740  143.2200 C   0  0  0  0  0  0  0  0  0  0  0  0
  187.8830  177.5560  146.2510 C   0  0  0  0  0  2  0  0  0  0  0  0
  191.3430  176.8010  144.6300 C   0  0  0  0  0  2  0  0  0  0  0  0
  191.9910  177.2240  142.2970 N   0  0  0  0  0  0  0  0  0  0  0  0
  187.0270  177.8730  142.0020 C   0  0  0  0  0  3  0  0  0  0  0  0
  188.0480  177.8930  141.0470 C   0  0  0  0  0  0  0  0  0  0  0  0
  186.1650  177.6290  144.3760 C   0  0  1  0  0  3  0  0  0  0  0  0
  190.3260  177.3600  145.6250 C   0  0  2  0  0  3  0  0  0  0  0  0
  191.7480  177.5020  140.9910 C   0  0  0  0  0  3  0  0  0  0  0  0
  185.6490  177.9320  138.1750 C   0  0  0  0  0  0  0  0  0  0  0  0
  187.4180  178.3300  135.1910 O   0  0  0  0  0  1  0  0  0  0  0  0
  184.3040  178.1910  137.9340 O   0  0  0  0  0  1  0  0  0  0  0  0
  188.5000  178.4680  137.2700 C   0  0  0  0  0  3  0  0  0  0  0  0
  187.6670  178.1550  139.6360 C   0  0  0  0  0  0  0  0  0  0  0  0
  186.4100  177.1690  137.1440 C   0  0  0  0  0  2  0  0  0  0  0  0
  188.6520  178.2510  138.7220 C   0  0  0  0  0  3  0  0  0  0  0  0
  186.2240  178.3580  139.3130 C   0  0  0  0  0  0  0  0  0  0  0  0
  185.2230  179.1910  140.5020 Cl  0  0  0  0  0  0  0  0  0  0  0  0
  187.4760  178.0230  136.5430 C   0  0  0  0  0  0  0  0  0  0  0  0
  184.9070  178.3490  143.8720 C   0  0  0  0  0  2  0  0  0  0  0  0
  185.0780  179.8540  143.9900 C   0  0  0  0  0  1  0  0  0  0  0  0
  185.5870  178.4340  146.7410 C   0  0  0  0  0  2  0  0  0  0  0  0
  185.9190  179.5190  147.7570 C   0  0  0  0  0  1  0  0  0  0  0  0
  190.6470  176.9550  146.9980 N   0  0  0  0  0  2  0  0  0  0  0  0
  191.8740  176.1630  147.0340 C   0  0  0  0  0  1  0  0  0  0  0  0
  1  4  1  0  0  0  0
  2  5  1  0  0  0  0
  3 16  2  0  0  0  0
  3  1  1  0  0  0  0
  4  8  1  0  0  0  0
  4  2  2  0  0  0  0
  5 15  1  0  0  0  0
  5  9  1  1  0  0  0
  6  2  1  0  0  0  0
  6 14  1  0  0  0  0
  7  9  1  0  0  0  0
  7 29  1  1  0  0  0
  8 10  1  0  0  0  0
 10 15  1  0  0  0  0
 11  8  2  0  0  0  0
 12  6  2  0  0  0  0
 13  1  2  0  0  0  0
 13 12  1  0  0  0  0
 14 27  1  6  0  0  0
 14  7  1  0  0  0  0
 15 31  1  1  0  0  0
 16 11  1  0  0  0  0
 17 24  2  0  0  0  0
 18 26  1  0  0  0  0
 19 17  1  0  0  0  0
 20 23  1  0  0  0  0
 21 13  1  0  0  0  0
 22 17  1  0  0  0  0
 23 21  2  0  0  0  0
 24 21  1  0  0  0  0
 24 25  1  0  0  0  0
 26 22  1  0  0  0  0
 26 20  2  0  0  0  0
 27 28  1  0  0  0  0
 29 30  1  0  0  0  0
 31 32  1  0  0  0  0
M  END
>  <MODEL>
3

>  <REMARK>
 VINA RESULT:     -10.1      2.295      3.516
  Name = 
  4 active torsions:
  status: ('A' for Active; 'I' for Inactive)
    1  A    between atoms: C_9  and  C_28
    2  A    between atoms: C_11  and  C_12
    3  A    between atoms: N_13  and  C_29
    4  A    between atoms: C_16  and  C_27
                            x       y       z     vdW  Elec       q    Type
                         _______ _______ _______ _____ _____    ______ ____

>  <TORSDO>
F 4

$$$$
=
 OpenBabel10272402033D

 32 36  0  0  1  0  0  0  0  0999 V2000
  186.5310  178.2030  145.1410 C   0  0  0  0  0  0  0  0  0  0  0  0
  185.4020  178.2190  142.9620 C   0  0  0  0  0  0  0  0  0  0  0  0
  186.4540  178.3560  146.5320 C   0  0  0  0  0  3  0  0  0  0  0  0
  185.3470  178.3220  144.3710 C   0  0  0  0  0  0  0  0  0  0  0  0
  184.1220  178.2620  142.1410 C   0  0  2  0  0  3  0  0  0  0  0  0
  186.6400  178.0020  142.3270 C   0  0  0  0  0  0  0  0  0  0  0  0
  185.7400  178.9480  140.2210 C   0  0  1  0  0  3  0  0  0  0  0  0
  184.1250  178.5710  145.0350 C   0  0  0  0  0  0  0  0  0  0  0  0
  184.2940  178.7260  140.6820 C   0  0  0  0  0  2  0  0  0  0  0  0
  182.8270  178.6270  144.2880 C   0  0  0  0  0  2  0  0  0  0  0  0
  184.0990  178.6930  146.3890 N   0  0  0  0  0  0  0  0  0  0  0  0
  187.7950  177.8550  143.1050 C   0  0  0  0  0  3  0  0  0  0  0  0
  187.7650  177.9490  144.5000 C   0  0  0  0  0  0  0  0  0  0  0  0
  186.6990  177.9070  140.8170 C   0  0  1  0  0  3  0  0  0  0  0  0
  183.0320  179.0850  142.8440 C   0  0  2  0  0  3  0  0  0  0  0  0
  185.2260  178.6000  147.1410 C   0  0  0  0  0  3  0  0  0  0  0  0
  191.4900  177.6740  144.7120 C   0  0  0  0  0  0  0  0  0  0  0  0
  192.3830  176.3810  147.8300 O   0  0  0  0  0  1  0  0  0  0  0  0
  192.6200  178.2290  144.1190 O   0  0  0  0  0  1  0  0  0  0  0  0
  190.1540  176.9290  147.3370 C   0  0  0  0  0  3  0  0  0  0  0  0
  189.0460  177.7790  145.2310 C   0  0  0  0  0  0  0  0  0  0  0  0
  191.6500  176.3910  145.4550 C   0  0  0  0  0  2  0  0  0  0  0  0
  189.0060  177.2230  146.4560 C   0  0  0  0  0  3  0  0  0  0  0  0
  190.3000  178.2860  144.5980 C   0  0  0  0  0  0  0  0  0  0  0  0
  190.2000  179.7630  143.6400 Cl  0  0  0  0  0  0  0  0  0  0  0  0
  191.3680  176.5890  146.9060 C   0  0  0  0  0  0  0  0  0  0  0  0
  188.1160  178.1200  140.2690 C   0  0  0  0  0  2  0  0  0  0  0  0
  188.4750  177.0150  139.2900 C   0  0  0  0  0  1  0  0  0  0  0  0
  185.7900  179.0170  138.6910 C   0  0  0  0  0  2  0  0  0  0  0  0
  184.9270  177.9490  138.0330 C   0  0  0  0  0  1  0  0  0  0  0  0
  181.7640  179.0970  142.1040 N   0  0  0  0  0  2  0  0  0  0  0  0
  180.6390  179.3430  143.0030 C   0  0  0  0  0  1  0  0  0  0  0  0
  1  3  1  0  0  0  0
  2  4  1  0  0  0  0
  3 16  2  0  0  0  0
  4  8  1  0  0  0  0
  4  1  2  0  0  0  0
  5  9  1  6  0  0  0
  5 15  1  0  0  0  0
  5  2  1  0  0  0  0
  6  2  2  0  0  0  0
  6 12  1  0  0  0  0
  7 29  1  6  0  0  0
  7  9  1  0  0  0  0
  7 14  1  0  0  0  0
  8 11  2  0  0  0  0
 10  8  1  0  0  0  0
 11 16  1  0  0  0  0
 12 13  2  0  0  0  0
 13  1  1  0  0  0  0
 13 21  1  0  0  0  0
 14 27  1  6  0  0  0
 14  6  1  0  0  0  0
 15 31  1  6  0  0  0
 15 10  1  0  0  0  0
 17 22  1  0  0  0  0
 19 17  1  0  0  0  0
 21 23  2  0  0  0  0
 22 26  1  0  0  0  0
 23 20  1  0  0  0  0
 24 17  2  0  0  0  0
 24 21  1  0  0  0  0
 25 24  1  0  0  0  0
 26 20  2  0  0  0  0
 26 18  1  0  0  0  0
 28 27  1  0  0  0  0
 30 29  1  0  0  0  0
 31 32  1  0  0  0  0
M  END
>  <MODEL>
4

>  <REMARK>
 VINA RESULT:     -10.0      4.061      8.255
  Name = 
  4 active torsions:
  status: ('A' for Active; 'I' for Inactive)
    1  A    between atoms: C_9  and  C_28
    2  A    between atoms: C_11  and  C_12
    3  A    between atoms: N_13  and  C_29
    4  A    between atoms: C_16  and  C_27
                            x       y       z     vdW  Elec       q    Type
                         _______ _______ _______ _____ _____    ______ ____

>  <TORSDO>
F 4

$$$$
=
 OpenBabel10272402033D

 32 36  0  0  1  0  0  0  0  0999 V2000
  189.2060  177.4700  142.3920 C   0  0  0  0  0  0  0  0  0  0  0  0
  187.1610  178.2890  141.3080 C   0  0  0  0  0  0  0  0  0  0  0  0
  190.5220  177.0050  142.2710 C   0  0  0  0  0  3  0  0  0  0  0  0
  188.5070  177.8610  141.2220 C   0  0  0  0  0  0  0  0  0  0  0  0
  186.4370  178.7880  140.0680 C   0  0  2  0  0  3  0  0  0  0  0  0
  186.5200  178.3220  142.5620 C   0  0  0  0  0  0  0  0  0  0  0  0
  184.3100  178.1960  141.4460 C   0  0  1  0  0  3  0  0  0  0  0  0
  189.1680  177.7860  139.9770 C   0  0  0  0  0  0  0  0  0  0  0  0
  184.9010  178.6700  140.1130 C   0  0  0  0  0  2  0  0  0  0  0  0
  188.5130  178.2600  138.7150 C   0  0  0  0  0  2  0  0  0  0  0  0
  190.4530  177.3460  139.9140 N   0  0  0  0  0  0  0  0  0  0  0  0
  187.2350  177.9620  143.7100 C   0  0  0  0  0  3  0  0  0  0  0  0
  188.5660  177.5390  143.6510 C   0  0  0  0  0  0  0  0  0  0  0  0
  185.0750  178.7670  142.6490 C   0  0  1  0  0  3  0  0  0  0  0  0
  186.9910  178.1350  138.7930 C   0  0  2  0  0  3  0  0  0  0  0  0
  191.1320  176.9510  141.0200 C   0  0  0  0  0  3  0  0  0  0  0  0
  188.9870  177.6750  147.3660 C   0  0  0  0  0  0  0  0  0  0  0  0
  192.1390  176.4400  148.2230 O   0  0  0  0  0  1  0  0  0  0  0  0
  188.1980  177.7180  148.5110 O   0  0  0  0  0  1  0  0  0  0  0  0
  191.3570  176.3410  146.0120 C   0  0  0  0  0  3  0  0  0  0  0  0
  189.2340  177.1790  144.9270 C   0  0  0  0  0  0  0  0  0  0  0  0
  190.4180  178.0760  147.4870 C   0  0  0  0  0  2  0  0  0  0  0  0
  190.4980  176.7200  144.8720 C   0  0  0  0  0  3  0  0  0  0  0  0
  188.4530  177.2890  146.1950 C   0  0  0  0  0  0  0  0  0  0  0  0
  186.7340  176.9000  146.1400 Cl  0  0  0  0  0  0  0  0  0  0  0  0
  191.3110  176.9130  147.2140 C   0  0  0  0  0  0  0  0  0  0  0  0
  184.4030  178.3300  143.9570 C   0  0  0  0  0  2  0  0  0  0  0  0
  184.1080  179.5390  144.8290 C   0  0  0  0  0  1  0  0  0  0  0  0
  182.8080  178.4950  141.4820 C   0  0  0  0  0  2  0  0  0  0  0  0
  182.0460  177.7730  140.3780 C   0  0  0  0  0  1  0  0  0  0  0  0
  186.3520  178.6410  137.5730 N   0  0  0  0  0  2  0  0  0  0  0  0
  187.2050  178.4190  136.4070 C   0  0  0  0  0  1  0  0  0  0  0  0
  1 13  2  0  0  0  0
  2  6  1  0  0  0  0
  3  1  1  0  0  0  0
  4  2  2  0  0  0  0
  4  1  1  0  0  0  0
  5  9  1  1  0  0  0
  5  2  1  0  0  0  0
  6 14  1  0  0  0  0
  6 12  2  0  0  0  0
  7 29  1  1  0  0  0
  7 14  1  0  0  0  0
  8  4  1  0  0  0  0
  9  7  1  0  0  0  0
 10 15  1  0  0  0  0
 10  8  1  0  0  0  0
 11  8  2  0  0  0  0
 11 16  1  0  0  0  0
 13 12  1  0  0  0  0
 13 21  1  0  0  0  0
 14 27  1  1  0  0  0
 15 31  1  6  0  0  0
 15  5  1  0  0  0  0
 16  3  2  0  0  0  0
 17 22  1  0  0  0  0
 17 19  1  0  0  0  0
 20 26  2  0  0  0  0
 21 24  1  0  0  0  0
 23 21  2  0  0  0  0
 23 20  1  0  0  0  0
 24 17  2  0  0  0  0
 25 24  1  0  0  0  0
 26 22  1  0  0  0  0
 26 18  1  0  0  0  0
 27 28  1  0  0  0  0
 30 29  1  0  0  0  0
 32 31  1  0  0  0  0
M  END
>  <MODEL>
5

>  <REMARK>
 VINA RESULT:      -9.9      3.277      7.014
  Name = 
  4 active torsions:
  status: ('A' for Active; 'I' for Inactive)
    1  A    between atoms: C_9  and  C_28
    2  A    between atoms: C_11  and  C_12
    3  A    between atoms: N_13  and  C_29
    4  A    between atoms: C_16  and  C_27
                            x       y       z     vdW  Elec       q    Type
                         _______ _______ _______ _____ _____    ______ ____

>  <TORSDO>
F 4

$$$$
=
 OpenBabel10272402033D

 32 36  0  0  1  0  0  0  0  0999 V2000
  183.9740  178.6850  142.2880 C   0  0  0  0  0  0  0  0  0  0  0  0
  186.3560  178.4270  142.8240 C   0  0  0  0  0  0  0  0  0  0  0  0
  182.6500  178.7870  142.7340 C   0  0  0  0  0  3  0  0  0  0  0  0
  185.0140  178.5790  143.2460 C   0  0  0  0  0  0  0  0  0  0  0  0
  187.4800  178.3980  143.8480 C   0  0  2  0  0  3  0  0  0  0  0  0
  186.6520  178.3770  141.4480 C   0  0  0  0  0  0  0  0  0  0  0  0
  188.7750  177.1960  141.9370 C   0  0  1  0  0  3  0  0  0  0  0  0
  184.6800  178.6000  144.6180 C   0  0  0  0  0  0  0  0  0  0  0  0
  188.7600  177.6690  143.3950 C   0  0  0  0  0  2  0  0  0  0  0  0
  185.7390  178.5740  145.6800 C   0  0  0  0  0  2  0  0  0  0  0  0
  183.3810  178.7200  145.0010 N   0  0  0  0  0  0  0  0  0  0  0  0
  185.6160  178.5150  140.5160 C   0  0  0  0  0  3  0  0  0  0  0  0
  184.2830  178.6700  140.9090 C   0  0  0  0  0  0  0  0  0  0  0  0
  188.0870  178.1990  141.0000 C   0  0  1  0  0  3  0  0  0  0  0  0
  186.9960  177.8490  145.1990 C   0  0  2  0  0  3  0  0  0  0  0  0
  182.3710  178.8050  144.0980 C   0  0  0  0  0  3  0  0  0  0  0  0
  182.3630  177.4590  137.9350 C   0  0  0  0  0  0  0  0  0  0  0  0
  180.7310  180.1560  136.4310 O   0  0  0  0  0  1  0  0  0  0  0  0
  181.8090  176.2780  137.4520 O   0  0  0  0  0  1  0  0  0  0  0  0
  181.8820  180.4130  138.4610 C   0  0  0  0  0  3  0  0  0  0  0  0
  183.2610  178.8070  139.8410 C   0  0  0  0  0  0  0  0  0  0  0  0
  182.5740  178.5770  136.9710 C   0  0  0  0  0  2  0  0  0  0  0  0
  182.8530  180.0470  139.5100 C   0  0  0  0  0  3  0  0  0  0  0  0
  182.6970  177.5660  139.2320 C   0  0  0  0  0  0  0  0  0  0  0  0
  182.4720  176.1630  140.2770 Cl  0  0  0  0  0  0  0  0  0  0  0  0
  181.7100  179.7420  137.3240 C   0  0  0  0  0  0  0  0  0  0  0  0
  188.1950  177.7220  139.5460 C   0  0  0  0  0  2  0  0  0  0  0  0
  188.9810  178.7240  138.7180 C   0  0  0  0  0  1  0  0  0  0  0  0
  190.2090  176.8550  141.5180 C   0  0  0  0  0  2  0  0  0  0  0  0
  191.2460  177.6600  142.2900 C   0  0  0  0  0  1  0  0  0  0  0  0
  188.0440  177.8640  146.2250 N   0  0  0  0  0  2  0  0  0  0  0  0
  187.4670  178.0380  147.5560 C   0  0  0  0  0  1  0  0  0  0  0  0
  1  3  2  0  0  0  0
  1  4  1  0  0  0  0
  2  4  1  0  0  0  0
  2  5  1  0  0  0  0
  3 16  1  0  0  0  0
  4  8  2  0  0  0  0
  5  9  1  6  0  0  0
  5 15  1  0  0  0  0
  6  2  2  0  0  0  0
  7 29  1  6  0  0  0
  7  9  1  0  0  0  0
  8 11  1  0  0  0  0
  8 10  1  0  0  0  0
 12 13  2  0  0  0  0
 12  6  1  0  0  0  0
 13  1  1  0  0  0  0
 14 27  1  6  0  0  0
 14  6  1  0  0  0  0
 14  7  1  0  0  0  0
 15 10  1  0  0  0  0
 15 31  1  1  0  0  0
 16 11  2  0  0  0  0
 17 24  2  0  0  0  0
 18 26  1  0  0  0  0
 19 17  1  0  0  0  0
 20 23  1  0  0  0  0
 21 13  1  0  0  0  0
 22 26  1  0  0  0  0
 22 17  1  0  0  0  0
 23 21  2  0  0  0  0
 24 21  1  0  0  0  0
 24 25  1  0  0  0  0
 26 20  2  0  0  0  0
 28 27  1  0  0  0  0
 29 30  1  0  0  0  0
 31 32  1  0  0  0  0
M  END
>  <MODEL>
6

>  <REMARK>
 VINA RESULT:      -9.7      2.275      4.844
  Name = 
  4 active torsions:
  status: ('A' for Active; 'I' for Inactive)
    1  A    between atoms: C_9  and  C_28
    2  A    between atoms: C_11  and  C_12
    3  A    between atoms: N_13  and  C_29
    4  A    between atoms: C_16  and  C_27
                            x       y       z     vdW  Elec       q    Type
                         _______ _______ _______ _____ _____    ______ ____

>  <TORSDO>
F 4

$$$$
=
 OpenBabel10272402033D

 32 36  0  0  1  0  0  0  0  0999 V2000
  185.1380  178.6700  139.6860 C   0  0  0  0  0  0  0  0  0  0  0  0
  185.8750  178.2160  141.9830 C   0  0  0  0  0  0  0  0  0  0  0  0
  185.4580  178.7960  138.3270 C   0  0  0  0  0  3  0  0  0  0  0  0
  186.1580  178.3040  140.5990 C   0  0  0  0  0  0  0  0  0  0  0  0
  186.9460  177.7420  142.9530 C   0  0  2  0  0  3  0  0  0  0  0  0
  184.5760  178.4970  142.4470 C   0  0  0  0  0  0  0  0  0  0  0  0
  185.4770  178.9870  144.7030 C   0  0  1  0  0  3  0  0  0  0  0  0
  187.4590  178.0590  140.1050 C   0  0  0  0  0  0  0  0  0  0  0  0
  186.7710  178.2190  144.4070 C   0  0  0  0  0  2  0  0  0  0  0  0
  188.5610  177.5910  141.0070 C   0  0  0  0  0  2  0  0  0  0  0  0
  187.7140  178.1760  138.7750 N   0  0  0  0  0  0  0  0  0  0  0  0
  183.5730  178.8270  141.5270 C   0  0  0  0  0  3  0  0  0  0  0  0
  183.8280  178.9170  140.1560 C   0  0  0  0  0  0  0  0  0  0  0  0
  184.2800  178.4160  143.9300 C   0  0  1  0  0  3  0  0  0  0  0  0
  188.3550  178.0760  142.4420 C   0  0  2  0  0  3  0  0  0  0  0  0
  186.7550  178.5430  137.8890 C   0  0  0  0  0  3  0  0  0  0  0  0
  181.2130  178.1550  137.5900 C   0  0  0  0  0  0  0  0  0  0  0  0
  179.9820  181.1420  136.2650 O   0  0  0  0  0  1  0  0  0  0  0  0
  180.3410  177.1240  137.2530 O   0  0  0  0  0  1  0  0  0  0  0  0
  181.4870  181.1430  138.0660 C   0  0  0  0  0  3  0  0  0  0  0  0
  182.6940  179.2740  139.2660 C   0  0  0  0  0  0  0  0  0  0  0  0
  181.4980  179.1940  136.5590 C   0  0  0  0  0  2  0  0  0  0  0  0
  182.5180  180.5730  138.9560 C   0  0  0  0  0  3  0  0  0  0  0  0
  181.7770  178.1880  138.8090 C   0  0  0  0  0  0  0  0  0  0  0  0
  181.4310  176.8750  139.9340 Cl  0  0  0  0  0  0  0  0  0  0  0  0
  180.9830  180.5230  137.0010 C   0  0  0  0  0  0  0  0  0  0  0  0
  182.9970  179.1650  144.3150 C   0  0  0  0  0  2  0  0  0  0  0  0
  181.7750  178.3240  143.9830 C   0  0  0  0  0  1  0  0  0  0  0  0
  185.2490  179.0540  146.2170 C   0  0  0  0  0  2  0  0  0  0  0  0
  186.3930  178.4290  147.0040 C   0  0  0  0  0  1  0  0  0  0  0  0
  189.4130  177.5790  143.3280 N   0  0  0  0  0  2  0  0  0  0  0  0
  189.7350  176.1860  143.0250 C   0  0  0  0  0  1  0  0  0  0  0  0
  1 13  2  0  0  0  0
  1  4  1  0  0  0  0
  2  6  1  0  0  0  0
  2  5  1  0  0  0  0
  3  1  1  0  0  0  0
  4  2  2  0  0  0  0
  5  9  1  1  0  0  0
  6 14  1  0  0  0  0
  7 29  1  1  0  0  0
  8  4  1  0  0  0  0
  8 10  1  0  0  0  0
  9  7  1  0  0  0  0
 10 15  1  0  0  0  0
 11  8  2  0  0  0  0
 12  6  2  0  0  0  0
 13 12  1  0  0  0  0
 14 27  1  6  0  0  0
 14  7  1  0  0  0  0
 15  5  1  0  0  0  0
 15 31  1  1  0  0  0
 16  3  2  0  0  0  0
 16 11  1  0  0  0  0
 17 24  2  0  0  0  0
 18 26  1  0  0  0  0
 19 17  1  0  0  0  0
 20 23  1  0  0  0  0
 21 13  1  0  0  0  0
 22 26  1  0  0  0  0
 22 17  1  0  0  0  0
 23 21  2  0  0  0  0
 24 21  1  0  0  0  0
 24 25  1  0  0  0  0
 26 20  2  0  0  0  0
 28 27  1  0  0  0  0
 29 30  1  0  0  0  0
 32 31  1  0  0  0  0
M  END
>  <MODEL>
7

>  <REMARK>
 VINA RESULT:      -9.4      2.129      3.363
  Name = 
  4 active torsions:
  status: ('A' for Active; 'I' for Inactive)
    1  A    between atoms: C_9  and  C_28
    2  A    between atoms: C_11  and  C_12
    3  A    between atoms: N_13  and  C_29
    4  A    between atoms: C_16  and  C_27
                            x       y       z     vdW  Elec       q    Type
                         _______ _______ _______ _____ _____    ______ ____

>  <TORSDO>
F 4

$$$$
=
 OpenBabel10272402033D

 32 36  0  0  1  0  0  0  0  0999 V2000
  189.0000  176.8470  137.8630 C   0  0  0  0  0  0  0  0  0  0  0  0
  188.1930  177.6970  140.0200 C   0  0  0  0  0  0  0  0  0  0  0  0
  188.7900  176.6750  136.4880 C   0  0  0  0  0  3  0  0  0  0  0  0
  188.0300  177.5490  138.6220 C   0  0  0  0  0  0  0  0  0  0  0  0
  187.1970  178.5200  140.8220 C   0  0  2  0  0  3  0  0  0  0  0  0
  189.3220  177.1410  140.6520 C   0  0  0  0  0  0  0  0  0  0  0  0
  188.1110  177.1190  142.8150 C   0  0  1  0  0  3  0  0  0  0  0  0
  186.8940  178.0670  137.9630 C   0  0  0  0  0  0  0  0  0  0  0  0
  187.1000  178.1580  142.3160 C   0  0  0  0  0  2  0  0  0  0  0  0
  185.8730  178.8860  138.6930 C   0  0  0  0  0  2  0  0  0  0  0  0
  186.7450  177.8900  136.6230 N   0  0  0  0  0  0  0  0  0  0  0  0
  190.2850  176.4780  139.8820 C   0  0  0  0  0  3  0  0  0  0  0  0
  190.1480  176.3230  138.5000 C   0  0  0  0  0  0  0  0  0  0  0  0
  189.4850  177.2880  142.1510 C   0  0  1  0  0  3  0  0  0  0  0  0
  185.8050  178.5070  140.1730 C   0  0  2  0  0  3  0  0  0  0  0  0
  187.6540  177.2060  135.8830 C   0  0  0  0  0  3  0  0  0  0  0  0
  193.3560  176.1470  136.5810 C   0  0  0  0  0  0  0  0  0  0  0  0
  193.6170  173.0250  135.0400 O   0  0  0  0  0  1  0  0  0  0  0  0
  194.6060  176.7570  136.5680 O   0  0  0  0  0  1  0  0  0  0  0  0
  191.8650  173.5000  136.5280 C   0  0  0  0  0  3  0  0  0  0  0  0
  191.2270  175.6040  137.7760 C   0  0  0  0  0  0  0  0  0  0  0  0
  192.9330  175.3920  135.3670 C   0  0  0  0  0  2  0  0  0  0  0  0
  190.9590  174.3720  137.3020 C   0  0  0  0  0  3  0  0  0  0  0  0
  192.5660  176.2550  137.6630 C   0  0  0  0  0  0  0  0  0  0  0  0
  193.1270  177.2280  139.0220 Cl  0  0  0  0  0  0  0  0  0  0  0  0
  192.7910  173.9400  135.6780 C   0  0  0  0  0  0  0  0  0  0  0  0
  190.4820  176.2790  142.7350 C   0  0  0  0  0  2  0  0  0  0  0  0
  191.6920  177.0020  143.3040 C   0  0  0  0  0  1  0  0  0  0  0  0
  188.1680  177.1440  144.3460 C   0  0  0  0  0  2  0  0  0  0  0  0
  186.8170  177.4660  144.9710 C   0  0  0  0  0  1  0  0  0  0  0  0
  184.8360  179.3420  140.8920 N   0  0  0  0  0  2  0  0  0  0  0  0
  183.5840  178.6200  141.1060 C   0  0  0  0  0  1  0  0  0  0  0  0
  1 13  2  0  0  0  0
  1  4  1  0  0  0  0
  2  6  1  0  0  0  0
  2  5  1  0  0  0  0
  3  1  1  0  0  0  0
  4  2  2  0  0  0  0
  5  9  1  1  0  0  0
  6 14  1  0  0  0  0
  7 29  1  1  0  0  0
  8  4  1  0  0  0  0
  8 10  1  0  0  0  0
  9  7  1  0  0  0  0
 10 15  1  0  0  0  0
 11  8  2  0  0  0  0
 12  6  2  0  0  0  0
 13 12  1  0  0  0  0
 14 27  1  1  0  0  0
 14  7  1  0  0  0  0
 15  5  1  0  0  0  0
 15 31  1  1  0  0  0
 16  3  2  0  0  0  0
 16 11  1  0  0  0  0
 17 24  2  0  0  0  0
 18 26  1  0  0  0  0
 19 17  1  0  0  0  0
 20 23  1  0  0  0  0
 21 13  1  0  0  0  0
 22 26  1  0  0  0  0
 22 17  1  0  0  0  0
 23 21  2  0  0  0  0
 24 21  1  0  0  0  0
 24 25  1  0  0  0  0
 26 20  2  0  0  0  0
 27 28  1  0  0  0  0
 29 30  1  0  0  0  0
 31 32  1  0  0  0  0
M  END
>  <MODEL>
8

>  <REMARK>
 VINA RESULT:      -9.3      5.241      7.997
  Name = 
  4 active torsions:
  status: ('A' for Active; 'I' for Inactive)
    1  A    between atoms: C_9  and  C_28
    2  A    between atoms: C_11  and  C_12
    3  A    between atoms: N_13  and  C_29
    4  A    between atoms: C_16  and  C_27
                            x       y       z     vdW  Elec       q    Type
                         _______ _______ _______ _____ _____    ______ ____

>  <TORSDO>
F 4

$$$$
=
 OpenBabel10272402033D

 32 36  0  0  1  0  0  0  0  0999 V2000
  187.3760  177.9590  139.6100 C   0  0  0  0  0  0  0  0  0  0  0  0
  187.1700  178.3420  142.0260 C   0  0  0  0  0  0  0  0  0  0  0  0
  186.7690  177.9170  138.3470 C   0  0  0  0  0  3  0  0  0  0  0  0
  186.5970  178.3370  140.7320 C   0  0  0  0  0  0  0  0  0  0  0  0
  186.3620  178.8270  143.2180 C   0  0  2  0  0  3  0  0  0  0  0  0
  188.5180  177.9660  142.1920 C   0  0  0  0  0  0  0  0  0  0  0  0
  188.0830  177.4180  144.5690 C   0  0  1  0  0  3  0  0  0  0  0  0
  185.2400  178.6770  140.5370 C   0  0  0  0  0  0  0  0  0  0  0  0
  186.8090  178.2700  144.5840 C   0  0  0  0  0  2  0  0  0  0  0  0
  184.3860  179.1620  141.6690 C   0  0  0  0  0  2  0  0  0  0  0  0
  184.7030  178.6400  139.2890 N   0  0  0  0  0  0  0  0  0  0  0  0
  189.2800  177.6260  141.0680 C   0  0  0  0  0  3  0  0  0  0  0  0
  188.7370  177.6170  139.7800 C   0  0  0  0  0  0  0  0  0  0  0  0
  189.1250  177.9580  143.5790 C   0  0  1  0  0  3  0  0  0  0  0  0
  184.8570  178.5970  143.0090 C   0  0  2  0  0  3  0  0  0  0  0  0
  185.4280  178.2630  138.2050 C   0  0  0  0  0  3  0  0  0  0  0  0
  189.6200  177.3190  136.1560 C   0  0  0  0  0  0  0  0  0  0  0  0
  192.3220  175.1360  135.7970 O   0  0  0  0  0  1  0  0  0  0  0  0
  189.4680  178.0390  134.9760 O   0  0  0  0  0  1  0  0  0  0  0  0
  191.5660  175.7910  137.9200 C   0  0  0  0  0  3  0  0  0  0  0  0
  189.6310  177.2410  138.6560 C   0  0  0  0  0  0  0  0  0  0  0  0
  189.9610  175.8710  136.0530 C   0  0  0  0  0  2  0  0  0  0  0  0
  190.5980  176.3330  138.8930 C   0  0  0  0  0  3  0  0  0  0  0  0
  189.4520  177.9270  137.3420 C   0  0  0  0  0  0  0  0  0  0  0  0
  188.9820  179.6270  137.3580 Cl  0  0  0  0  0  0  0  0  0  0  0  0
  191.3140  175.6110  136.6250 C   0  0  0  0  0  0  0  0  0  0  0  0
  190.4080  177.1210  143.6550 C   0  0  0  0  0  2  0  0  0  0  0  0
  191.6060  178.0160  143.9280 C   0  0  0  0  0  1  0  0  0  0  0  0
  188.6200  177.2650  145.9960 C   0  0  0  0  0  2  0  0  0  0  0  0
  187.6030  177.6870  147.0480 C   0  0  0  0  0  1  0  0  0  0  0  0
  184.0450  179.1090  144.1180 N   0  0  0  0  0  2  0  0  0  0  0  0
  182.6330  178.7900  143.9200 C   0  0  0  0  0  1  0  0  0  0  0  0
  1 13  2  0  0  0  0
  1  4  1  0  0  0  0
  2  6  1  0  0  0  0
  2  5  1  0  0  0  0
  3  1  1  0  0  0  0
  4  2  2  0  0  0  0
  5  9  1  1  0  0  0
  6 14  1  0  0  0  0
  7  9  1  0  0  0  0
  7 29  1  1  0  0  0
  8  4  1  0  0  0  0
  8 10  1  0  0  0  0
 10 15  1  0  0  0  0
 11  8  2  0  0  0  0
 12  6  2  0  0  0  0
 13 12  1  0  0  0  0
 14 27  1  6  0  0  0
 14  7  1  0  0  0  0
 15  5  1  0  0  0  0
 15 31  1  1  0  0  0
 16  3  2  0  0  0  0
 16 11  1  0  0  0  0
 17 24  2  0  0  0  0
 18 26  1  0  0  0  0
 19 17  1  0  0  0  0
 20 23  1  0  0  0  0
 21 23  2  0  0  0  0
 21 13  1  0  0  0  0
 22 17  1  0  0  0  0
 22 26  1  0  0  0  0
 24 25  1  0  0  0  0
 24 21  1  0  0  0  0
 26 20  2  0  0  0  0
 27 28  1  0  0  0  0
 29 30  1  0  0  0  0
 32 31  1  0  0  0  0
M  END
>  <MODEL>
9

>  <REMARK>
 VINA RESULT:      -9.3      3.924      6.474
  Name = 
  4 active torsions:
  status: ('A' for Active; 'I' for Inactive)
    1  A    between atoms: C_9  and  C_28
    2  A    between atoms: C_11  and  C_12
    3  A    between atoms: N_13  and  C_29
    4  A    between atoms: C_16  and  C_27
                            x       y       z     vdW  Elec       q    Type
                         _______ _______ _______ _____ _____    ______ ____

>  <TORSDO>
F 4

$$$$
