=
 OpenBabel10272414563D

 37 39  0  0  1  0  0  0  0  0999 V2000
  183.5780  179.5840  139.0170 C   0  0  0  0  0  3  0  0  0  0  0  0
  180.8760  176.1910  138.4120 C   0  0  0  0  0  3  0  0  0  0  0  0
  184.4820  178.6040  139.0070 C   0  0  0  0  0  0  0  0  0  0  0  0
  181.9170  177.1230  138.3260 C   0  0  0  0  0  0  0  0  0  0  0  0
  181.5390  178.4010  138.4500 C   0  0  0  0  0  2  0  0  0  0  0  0
  183.2280  176.6890  137.9440 C   0  0  0  0  0  0  0  0  0  0  0  0
  182.2950  174.4610  137.5280 C   0  0  0  0  0  3  0  0  0  0  0  0
  182.3950  179.5770  138.1320 C   0  0  1  0  0  3  0  0  0  0  0  0
  183.3570  175.3610  137.4870 C   0  0  0  0  0  3  0  0  0  0  0  0
  184.3710  177.4300  138.0780 C   0  0  2  0  0  3  0  0  0  0  0  0
  181.0560  174.8620  138.0340 C   0  0  0  0  0  0  0  0  0  0  0  0
  179.9820  173.9750  138.1420 O   0  0  0  0  0  0  0  0  0  0  0  0
  180.1200  172.5750  137.9400 C   0  0  0  0  0  1  0  0  0  0  0  0
  181.0020  181.8260  138.4920 C   0  0  0  0  0  3  0  0  0  0  0  0
  181.6300  180.8100  138.3280 C   0  0  0  0  0  0  0  0  0  0  0  0
  185.5910  178.6990  139.9220 N   0  0  0  0  0  0  0  0  0  0  0  0
  187.8900  178.7210  140.3290 O   0  0  0  0  0  1  0  0  0  0  0  0
  186.8770  178.0940  139.6030 C   0  0  0  0  0  2  0  0  0  0  0  0
  185.4110  179.2210  141.2710 C   0  0  0  0  0  2  0  0  0  0  0  0
  184.8690  178.1340  142.1840 C   0  0  0  0  0  2  0  0  0  0  0  0
  186.9100  177.3560  143.4060 C   0  0  0  0  0  3  0  0  0  0  0  0
  185.6930  178.0450  143.4210 C   0  0  0  0  0  0  0  0  0  0  0  0
  185.2360  178.6310  144.6060 C   0  0  0  0  0  3  0  0  0  0  0  0
  185.5590  179.1060  146.9200 F   0  0  0  0  0  0  0  0  0  0  0  0
  187.2190  177.8520  145.7570 C   0  0  0  0  0  3  0  0  0  0  0  0
  186.0000  178.5370  145.7740 C   0  0  0  0  0  0  0  0  0  0  0  0
  187.6730  177.2600  144.5740 C   0  0  0  0  0  3  0  0  0  0  0  0
  185.6370  176.9770  137.3700 C   0  0  1  0  0  3  0  0  0  0  0  0
  185.7160  175.5810  137.3010 O   0  0  0  0  0  0  0  0  0  0  0  0
  186.9910  175.3010  137.4890 O   0  0  0  0  0  0  0  0  0  0  0  0
  186.3070  173.0260  137.3590 C   0  0  0  0  0  1  0  0  0  0  0  0
  187.2020  174.1080  136.7920 C   0  0  0  0  0  2  0  0  0  0  0  0
  185.7760  177.5890  135.9840 C   0  0  0  0  0  2  0  0  0  0  0  0
  186.8910  178.4250  135.9450 O   0  0  0  0  0  0  0  0  0  0  0  0
  187.8510  177.6940  135.2470 C   0  0  0  0  0  2  0  0  0  0  0  0
  189.1580  178.8900  136.9710 C   0  0  0  0  0  1  0  0  0  0  0  0
  189.1600  177.7220  136.0080 C   0  0  0  0  0  2  0  0  0  0  0  0
  3  1  2  0  0  0  0
  3 16  1  0  0  0  0
  4  2  1  0  0  0  0
  4  5  1  0  0  0  0
  6 10  1  0  0  0  0
  6  4  2  0  0  0  0
  7 11  1  0  0  0  0
  8 15  1  1  0  0  0
  8  5  1  0  0  0  0
  8  1  1  0  0  0  0
  9  7  2  0  0  0  0
  9  6  1  0  0  0  0
 10 28  1  1  0  0  0
 10  3  1  0  0  0  0
 11 12  1  0  0  0  0
 11  2  2  0  0  0  0
 13 12  1  0  0  0  0
 15 14  3  0  0  0  0
 16 19  1  0  0  0  0
 18 16  1  0  0  0  0
 18 17  1  0  0  0  0
 19 20  1  0  0  0  0
 20 22  1  0  0  0  0
 21 22  2  0  0  0  0
 21 27  1  0  0  0  0
 22 23  1  0  0  0  0
 23 26  2  0  0  0  0
 25 26  1  0  0  0  0
 26 24  1  0  0  0  0
 27 25  2  0  0  0  0
 28 33  1  6  0  0  0
 29 28  1  0  0  0  0
 29 30  1  0  0  0  0
 32 31  1  0  0  0  0
 32 30  1  0  0  0  0
 34 33  1  0  0  0  0
 35 34  1  0  0  0  0
 35 37  1  0  0  0  0
 37 36  1  0  0  0  0
M  END
>  <MODEL>
1

>  <REMARK>
 VINA RESULT:      -6.0      0.000      0.000
  Name = 
  15 active torsions:
  status: ('A' for Active; 'I' for Inactive)
    1  A    between atoms: O_1  and  O_5
    2  A    between atoms: O_1  and  C_36
    3  A    between atoms: O_3  and  C_32
    4  A    between atoms: O_5  and  C_23
    5  A    between atoms: C_6  and  C_31
    6  A    between atoms: C_10  and  N_14
    7  A    between atoms: N_14  and  C_27
    8  A    between atoms: N_14  and  C_37
    9  A    between atoms: O_17  and  C_26
   10  A    between atoms: O_17  and  C_33
   11  A    between atoms: C_24  and  C_28
   12  A    between atoms: C_26  and  C_34
   13  A    between atoms: C_29  and  C_36
   14  A    between atoms: C_31  and  C_37
   15  A    between atoms: C_33  and  C_36
                            x       y       z     vdW  Elec       q    Type
                         _______ _______ _______ _____ _____    ______ ____

>  <TORSDO>
F 15

$$$$
=
 OpenBabel10272414563D

 37 39  0  0  1  0  0  0  0  0999 V2000
  188.4030  177.5250  139.5790 C   0  0  0  0  0  3  0  0  0  0  0  0
  192.5110  176.5540  138.4160 C   0  0  0  0  0  3  0  0  0  0  0  0
  188.1680  177.1150  138.3330 C   0  0  0  0  0  0  0  0  0  0  0  0
  191.1330  176.5290  138.6590 C   0  0  0  0  0  0  0  0  0  0  0  0
  190.7620  177.0340  139.8420 C   0  0  0  0  0  2  0  0  0  0  0  0
  190.2650  175.8330  137.7560 C   0  0  0  0  0  0  0  0  0  0  0  0
  192.2540  175.0340  136.5670 C   0  0  0  0  0  3  0  0  0  0  0  0
  189.4110  176.8810  140.4470 C   0  0  1  0  0  3  0  0  0  0  0  0
  190.8750  175.0410  136.7610 C   0  0  0  0  0  3  0  0  0  0  0  0
  188.9010  175.9530  137.7270 C   0  0  2  0  0  3  0  0  0  0  0  0
  193.0770  175.8280  137.3700 C   0  0  0  0  0  0  0  0  0  0  0  0
  194.4600  175.8900  137.1710 O   0  0  0  0  0  0  0  0  0  0  0  0
  195.1580  174.9740  136.3380 C   0  0  0  0  0  1  0  0  0  0  0  0
  189.3760  178.0230  142.8610 C   0  0  0  0  0  3  0  0  0  0  0  0
  189.3900  177.5080  141.7700 C   0  0  0  0  0  0  0  0  0  0  0  0
  187.1760  177.8220  137.5650 N   0  0  0  0  0  0  0  0  0  0  0  0
  188.9530  178.9500  136.5560 O   0  0  0  0  0  1  0  0  0  0  0  0
  187.5620  178.8600  136.6200 C   0  0  0  0  0  2  0  0  0  0  0  0
  185.7540  177.6700  137.8500 C   0  0  0  0  0  2  0  0  0  0  0  0
  185.1750  178.9850  138.3410 C   0  0  0  0  0  2  0  0  0  0  0  0
  185.6040  178.9500  140.8070 C   0  0  0  0  0  3  0  0  0  0  0  0
  184.7000  178.8440  139.7450 C   0  0  0  0  0  0  0  0  0  0  0  0
  183.3500  178.5800  140.0010 C   0  0  0  0  0  3  0  0  0  0  0  0
  181.5960  178.1790  141.5650 F   0  0  0  0  0  0  0  0  0  0  0  0
  183.8070  178.5430  142.3790 C   0  0  0  0  0  3  0  0  0  0  0  0
  182.9030  178.4320  141.3170 C   0  0  0  0  0  0  0  0  0  0  0  0
  185.1580  178.8010  142.1230 C   0  0  0  0  0  3  0  0  0  0  0  0
  188.0840  174.9490  136.9320 C   0  0  1  0  0  3  0  0  0  0  0  0
  186.8830  174.6360  137.5800 O   0  0  0  0  0  0  0  0  0  0  0  0
  186.8540  173.3180  137.6290 O   0  0  0  0  0  0  0  0  0  0  0  0
  184.7700  173.3680  136.4820 C   0  0  0  0  0  1  0  0  0  0  0  0
  185.5010  172.9940  137.7540 C   0  0  0  0  0  2  0  0  0  0  0  0
  187.8170  175.4160  135.5100 C   0  0  0  0  0  2  0  0  0  0  0  0
  188.5460  174.6390  134.6100 O   0  0  0  0  0  0  0  0  0  0  0  0
  187.7280  173.5390  134.3580 C   0  0  0  0  0  2  0  0  0  0  0  0
  187.5040  171.1380  134.9040 C   0  0  0  0  0  1  0  0  0  0  0  0
  188.4860  172.2640  134.6610 C   0  0  0  0  0  2  0  0  0  0  0  0
  1  8  1  0  0  0  0
  2  4  1  0  0  0  0
  3  1  2  0  0  0  0
  4  5  1  0  0  0  0
  5  8  1  0  0  0  0
  6  4  2  0  0  0  0
  7  9  2  0  0  0  0
  7 11  1  0  0  0  0
  8 15  1  1  0  0  0
  9  6  1  0  0  0  0
 10 28  1  6  0  0  0
 10  6  1  0  0  0  0
 10  3  1  0  0  0  0
 11  2  2  0  0  0  0
 12 11  1  0  0  0  0
 13 12  1  0  0  0  0
 15 14  3  0  0  0  0
 16 19  1  0  0  0  0
 16  3  1  0  0  0  0
 17 18  1  0  0  0  0
 18 16  1  0  0  0  0
 19 20  1  0  0  0  0
 20 22  1  0  0  0  0
 21 27  1  0  0  0  0
 22 23  1  0  0  0  0
 22 21  2  0  0  0  0
 23 26  2  0  0  0  0
 26 24  1  0  0  0  0
 26 25  1  0  0  0  0
 27 25  2  0  0  0  0
 28 33  1  6  0  0  0
 28 29  1  0  0  0  0
 29 30  1  0  0  0  0
 30 32  1  0  0  0  0
 31 32  1  0  0  0  0
 34 33  1  0  0  0  0
 35 34  1  0  0  0  0
 35 37  1  0  0  0  0
 37 36  1  0  0  0  0
M  END
>  <MODEL>
2

>  <REMARK>
 VINA RESULT:      -5.9      3.133      7.024
  Name = 
  15 active torsions:
  status: ('A' for Active; 'I' for Inactive)
    1  A    between atoms: O_1  and  O_5
    2  A    between atoms: O_1  and  C_36
    3  A    between atoms: O_3  and  C_32
    4  A    between atoms: O_5  and  C_23
    5  A    between atoms: C_6  and  C_31
    6  A    between atoms: C_10  and  N_14
    7  A    between atoms: N_14  and  C_27
    8  A    between atoms: N_14  and  C_37
    9  A    between atoms: O_17  and  C_26
   10  A    between atoms: O_17  and  C_33
   11  A    between atoms: C_24  and  C_28
   12  A    between atoms: C_26  and  C_34
   13  A    between atoms: C_29  and  C_36
   14  A    between atoms: C_31  and  C_37
   15  A    between atoms: C_33  and  C_36
                            x       y       z     vdW  Elec       q    Type
                         _______ _______ _______ _____ _____    ______ ____

>  <TORSDO>
F 15

$$$$
=
 OpenBabel10272414563D

 37 39  0  0  1  0  0  0  0  0999 V2000
  188.9380  177.2570  139.5150 C   0  0  0  0  0  3  0  0  0  0  0  0
  192.9070  176.5130  137.8210 C   0  0  0  0  0  3  0  0  0  0  0  0
  188.5760  176.9880  138.2610 C   0  0  0  0  0  0  0  0  0  0  0  0
  191.5640  176.4310  138.2040 C   0  0  0  0  0  0  0  0  0  0  0  0
  191.3170  176.7890  139.4700 C   0  0  0  0  0  2  0  0  0  0  0  0
  190.6100  175.8250  137.3220 C   0  0  0  0  0  0  0  0  0  0  0  0
  192.4680  175.2100  135.8460 C   0  0  0  0  0  3  0  0  0  0  0  0
  190.0390  176.5390  140.1910 C   0  0  1  0  0  3  0  0  0  0  0  0
  191.1170  175.1650  136.1830 C   0  0  0  0  0  3  0  0  0  0  0  0
  189.2500  175.9180  137.4510 C   0  0  2  0  0  3  0  0  0  0  0  0
  193.3650  175.9240  136.6440 C   0  0  0  0  0  0  0  0  0  0  0  0
  194.7180  176.0380  136.3100 O   0  0  0  0  0  0  0  0  0  0  0  0
  195.6490  174.9820  136.5090 C   0  0  0  0  0  1  0  0  0  0  0  0
  190.2520  177.3950  142.7120 C   0  0  0  0  0  3  0  0  0  0  0  0
  190.1550  177.0100  141.5730 C   0  0  0  0  0  0  0  0  0  0  0  0
  187.5000  177.7570  137.6900 N   0  0  0  0  0  0  0  0  0  0  0  0
  188.7170  179.7240  137.3720 O   0  0  0  0  0  1  0  0  0  0  0  0
  187.7740  178.8730  136.7950 C   0  0  0  0  0  2  0  0  0  0  0  0
  186.1250  177.5780  138.1400 C   0  0  0  0  0  2  0  0  0  0  0  0
  185.5740  178.8900  138.6710 C   0  0  0  0  0  2  0  0  0  0  0  0
  186.2510  178.7280  141.0750 C   0  0  0  0  0  3  0  0  0  0  0  0
  185.2350  178.7570  140.1140 C   0  0  0  0  0  0  0  0  0  0  0  0
  183.8980  178.6340  140.5080 C   0  0  0  0  0  3  0  0  0  0  0  0
  182.2820  178.3780  142.2420 F   0  0  0  0  0  0  0  0  0  0  0  0
  184.5930  178.4700  142.8210 C   0  0  0  0  0  3  0  0  0  0  0  0
  183.5770  178.4930  141.8610 C   0  0  0  0  0  0  0  0  0  0  0  0
  185.9300  178.5860  142.4280 C   0  0  0  0  0  3  0  0  0  0  0  0
  188.3620  174.9950  136.6350 C   0  0  1  0  0  3  0  0  0  0  0  0
  188.5280  175.2050  135.2600 O   0  0  0  0  0  0  0  0  0  0  0  0
  187.7020  176.1890  134.9620 O   0  0  0  0  0  0  0  0  0  0  0  0
  185.3270  176.2350  134.8160 C   0  0  0  0  0  1  0  0  0  0  0  0
  186.6070  175.5660  134.3580 C   0  0  0  0  0  2  0  0  0  0  0  0
  188.5760  173.5300  136.9800 C   0  0  0  0  0  2  0  0  0  0  0  0
  187.5210  173.0690  137.7670 O   0  0  0  0  0  0  0  0  0  0  0  0
  186.3960  173.2030  136.9550 C   0  0  0  0  0  2  0  0  0  0  0  0
  184.2110  174.0860  137.7040 C   0  0  0  0  0  1  0  0  0  0  0  0
  185.1510  172.9000  137.7620 C   0  0  0  0  0  2  0  0  0  0  0  0
  1  8  1  0  0  0  0
  2  4  1  0  0  0  0
  3  1  2  0  0  0  0
  4  5  1  0  0  0  0
  5  8  1  0  0  0  0
  6 10  1  0  0  0  0
  6  4  2  0  0  0  0
  7  9  2  0  0  0  0
  7 11  1  0  0  0  0
  8 15  1  1  0  0  0
  9  6  1  0  0  0  0
 10 28  1  6  0  0  0
 10  3  1  0  0  0  0
 11  2  2  0  0  0  0
 12 13  1  0  0  0  0
 12 11  1  0  0  0  0
 15 14  3  0  0  0  0
 16 19  1  0  0  0  0
 16  3  1  0  0  0  0
 18 17  1  0  0  0  0
 18 16  1  0  0  0  0
 19 20  1  0  0  0  0
 20 22  1  0  0  0  0
 21 27  1  0  0  0  0
 22 23  1  0  0  0  0
 22 21  2  0  0  0  0
 23 26  2  0  0  0  0
 26 24  1  0  0  0  0
 26 25  1  0  0  0  0
 27 25  2  0  0  0  0
 28 33  1  6  0  0  0
 29 28  1  0  0  0  0
 30 29  1  0  0  0  0
 32 31  1  0  0  0  0
 32 30  1  0  0  0  0
 33 34  1  0  0  0  0
 35 37  1  0  0  0  0
 35 34  1  0  0  0  0
 36 37  1  0  0  0  0
M  END
>  <MODEL>
3

>  <REMARK>
 VINA RESULT:      -5.9      3.156      7.294
  Name = 
  15 active torsions:
  status: ('A' for Active; 'I' for Inactive)
    1  A    between atoms: O_1  and  O_5
    2  A    between atoms: O_1  and  C_36
    3  A    between atoms: O_3  and  C_32
    4  A    between atoms: O_5  and  C_23
    5  A    between atoms: C_6  and  C_31
    6  A    between atoms: C_10  and  N_14
    7  A    between atoms: N_14  and  C_27
    8  A    between atoms: N_14  and  C_37
    9  A    between atoms: O_17  and  C_26
   10  A    between atoms: O_17  and  C_33
   11  A    between atoms: C_24  and  C_28
   12  A    between atoms: C_26  and  C_34
   13  A    between atoms: C_29  and  C_36
   14  A    between atoms: C_31  and  C_37
   15  A    between atoms: C_33  and  C_36
                            x       y       z     vdW  Elec       q    Type
                         _______ _______ _______ _____ _____    ______ ____

>  <TORSDO>
F 15

$$$$
=
 OpenBabel10272414563D

 37 39  0  0  1  0  0  0  0  0999 V2000
  188.5170  177.3910  139.5940 C   0  0  0  0  0  3  0  0  0  0  0  0
  192.6120  176.7140  138.1960 C   0  0  0  0  0  3  0  0  0  0  0  0
  188.2540  177.1420  138.3110 C   0  0  0  0  0  0  0  0  0  0  0  0
  191.2430  176.6130  138.4730 C   0  0  0  0  0  0  0  0  0  0  0  0
  190.8970  176.9460  139.7230 C   0  0  0  0  0  2  0  0  0  0  0  0
  190.3660  176.0150  137.5110 C   0  0  0  0  0  0  0  0  0  0  0  0
  192.3380  175.4440  136.1710 C   0  0  0  0  0  3  0  0  0  0  0  0
  189.5700  176.6720  140.3400 C   0  0  1  0  0  3  0  0  0  0  0  0
  190.9660  175.3800  136.4030 C   0  0  0  0  0  3  0  0  0  0  0  0
  189.0000  176.0930  137.5370 C   0  0  2  0  0  3  0  0  0  0  0  0
  193.1640  176.1510  137.0470 C   0  0  0  0  0  0  0  0  0  0  0  0
  194.5370  176.2830  136.8200 O   0  0  0  0  0  0  0  0  0  0  0  0
  195.1870  175.7100  135.6930 C   0  0  0  0  0  1  0  0  0  0  0  0
  189.5800  177.4900  142.8810 C   0  0  0  0  0  3  0  0  0  0  0  0
  189.5750  177.1190  141.7340 C   0  0  0  0  0  0  0  0  0  0  0  0
  187.2180  177.9110  137.6720 N   0  0  0  0  0  0  0  0  0  0  0  0
  188.6790  179.6560  137.1530 O   0  0  0  0  0  1  0  0  0  0  0  0
  187.5470  178.9640  136.7210 C   0  0  0  0  0  2  0  0  0  0  0  0
  185.8290  177.8040  138.1010 C   0  0  0  0  0  2  0  0  0  0  0  0
  185.3760  179.1060  138.7380 C   0  0  0  0  0  2  0  0  0  0  0  0
  183.5860  178.7630  140.4540 C   0  0  0  0  0  3  0  0  0  0  0  0
  184.9460  178.8670  140.1430 C   0  0  0  0  0  0  0  0  0  0  0  0
  185.9030  178.7730  141.1600 C   0  0  0  0  0  3  0  0  0  0  0  0
  186.4290  178.4690  143.4650 F   0  0  0  0  0  0  0  0  0  0  0  0
  184.1420  178.4540  142.7910 C   0  0  0  0  0  3  0  0  0  0  0  0
  185.5020  178.5640  142.4820 C   0  0  0  0  0  0  0  0  0  0  0  0
  183.1840  178.5550  141.7760 C   0  0  0  0  0  3  0  0  0  0  0  0
  188.1860  175.1770  136.6390 C   0  0  1  0  0  3  0  0  0  0  0  0
  188.9700  174.1400  136.1170 O   0  0  0  0  0  0  0  0  0  0  0  0
  188.3410  173.0320  136.4580 O   0  0  0  0  0  0  0  0  0  0  0  0
  187.8540  170.8420  135.6640 C   0  0  0  0  0  1  0  0  0  0  0  0
  188.5370  172.1640  135.3810 C   0  0  0  0  0  2  0  0  0  0  0  0
  186.9590  174.6170  137.3420 C   0  0  0  0  0  2  0  0  0  0  0  0
  185.8400  174.7520  136.5210 O   0  0  0  0  0  0  0  0  0  0  0  0
  184.7740  174.3280  137.3130 C   0  0  0  0  0  2  0  0  0  0  0  0
  184.4060  171.9730  136.6570 C   0  0  0  0  0  1  0  0  0  0  0  0
  184.9870  172.8850  137.7170 C   0  0  0  0  0  2  0  0  0  0  0  0
  1  8  1  0  0  0  0
  2  4  1  0  0  0  0
  3  1  2  0  0  0  0
  4  5  1  0  0  0  0
  5  8  1  0  0  0  0
  6 10  1  0  0  0  0
  6  4  2  0  0  0  0
  7  9  2  0  0  0  0
  7 11  1  0  0  0  0
  8 15  1  1  0  0  0
  9  6  1  0  0  0  0
 10 28  1  6  0  0  0
 10  3  1  0  0  0  0
 11  2  2  0  0  0  0
 12 11  1  0  0  0  0
 13 12  1  0  0  0  0
 15 14  3  0  0  0  0
 16 19  1  0  0  0  0
 16  3  1  0  0  0  0
 18 17  1  0  0  0  0
 18 16  1  0  0  0  0
 19 20  1  0  0  0  0
 20 22  1  0  0  0  0
 21 27  1  0  0  0  0
 22 21  2  0  0  0  0
 22 23  1  0  0  0  0
 23 26  2  0  0  0  0
 26 25  1  0  0  0  0
 26 24  1  0  0  0  0
 27 25  2  0  0  0  0
 28 33  1  1  0  0  0
 29 30  1  0  0  0  0
 29 28  1  0  0  0  0
 32 31  1  0  0  0  0
 32 30  1  0  0  0  0
 34 35  1  0  0  0  0
 34 33  1  0  0  0  0
 35 37  1  0  0  0  0
 36 37  1  0  0  0  0
M  END
>  <MODEL>
4

>  <REMARK>
 VINA RESULT:      -5.8      2.947      7.100
  Name = 
  15 active torsions:
  status: ('A' for Active; 'I' for Inactive)
    1  A    between atoms: O_1  and  O_5
    2  A    between atoms: O_1  and  C_36
    3  A    between atoms: O_3  and  C_32
    4  A    between atoms: O_5  and  C_23
    5  A    between atoms: C_6  and  C_31
    6  A    between atoms: C_10  and  N_14
    7  A    between atoms: N_14  and  C_27
    8  A    between atoms: N_14  and  C_37
    9  A    between atoms: O_17  and  C_26
   10  A    between atoms: O_17  and  C_33
   11  A    between atoms: C_24  and  C_28
   12  A    between atoms: C_26  and  C_34
   13  A    between atoms: C_29  and  C_36
   14  A    between atoms: C_31  and  C_37
   15  A    between atoms: C_33  and  C_36
                            x       y       z     vdW  Elec       q    Type
                         _______ _______ _______ _____ _____    ______ ____

>  <TORSDO>
F 15

$$$$
=
 OpenBabel10272414563D

 37 39  0  0  1  0  0  0  0  0999 V2000
  189.6690  177.4880  137.9870 C   0  0  0  0  0  3  0  0  0  0  0  0
  189.0930  173.7310  135.8120 C   0  0  0  0  0  3  0  0  0  0  0  0
  190.7520  176.8400  138.4140 C   0  0  0  0  0  0  0  0  0  0  0  0
  189.6100  174.9110  136.3610 C   0  0  0  0  0  0  0  0  0  0  0  0
  188.7750  175.9570  136.3340 C   0  0  0  0  0  2  0  0  0  0  0  0
  190.9940  174.9740  136.7300 C   0  0  0  0  0  0  0  0  0  0  0  0
  191.2890  172.7500  135.7440 C   0  0  0  0  0  3  0  0  0  0  0  0
  189.1690  177.3670  136.6010 C   0  0  1  0  0  3  0  0  0  0  0  0
  191.8130  173.8940  136.3400 C   0  0  0  0  0  3  0  0  0  0  0  0
  191.5550  175.9520  137.5070 C   0  0  2  0  0  3  0  0  0  0  0  0
  189.9150  172.6450  135.5170 C   0  0  0  0  0  0  0  0  0  0  0  0
  189.3450  171.4920  134.9710 O   0  0  0  0  0  0  0  0  0  0  0  0
  188.0390  171.0450  135.3130 C   0  0  0  0  0  1  0  0  0  0  0  0
  187.0560  178.9660  136.2750 C   0  0  0  0  0  3  0  0  0  0  0  0
  188.0100  178.2440  136.4200 C   0  0  0  0  0  0  0  0  0  0  0  0
  191.1460  177.0140  139.7880 N   0  0  0  0  0  0  0  0  0  0  0  0
  192.6760  177.4480  141.4970 O   0  0  0  0  0  1  0  0  0  0  0  0
  192.4460  177.5750  140.1270 C   0  0  0  0  0  2  0  0  0  0  0  0
  190.3510  176.4560  140.8750 C   0  0  0  0  0  2  0  0  0  0  0  0
  189.1440  177.3370  141.1470 C   0  0  0  0  0  2  0  0  0  0  0  0
  187.4930  177.2180  143.0240 C   0  0  0  0  0  3  0  0  0  0  0  0
  188.8210  177.3300  142.6000 C   0  0  0  0  0  0  0  0  0  0  0  0
  189.8460  177.4600  143.5440 C   0  0  0  0  0  3  0  0  0  0  0  0
  190.5370  177.5940  145.8210 F   0  0  0  0  0  0  0  0  0  0  0  0
  188.2170  177.3530  145.3310 C   0  0  0  0  0  3  0  0  0  0  0  0
  189.5450  177.4700  144.9090 C   0  0  0  0  0  0  0  0  0  0  0  0
  187.1910  177.2290  144.3890 C   0  0  0  0  0  3  0  0  0  0  0  0
  193.0680  176.0670  137.5780 C   0  0  1  0  0  3  0  0  0  0  0  0
  193.6370  174.9700  138.2360 O   0  0  0  0  0  0  0  0  0  0  0  0
  194.8000  175.4040  138.6830 O   0  0  0  0  0  0  0  0  0  0  0  0
  195.0430  173.1230  138.0510 C   0  0  0  0  0  1  0  0  0  0  0  0
  195.5400  174.2470  138.9360 C   0  0  0  0  0  2  0  0  0  0  0  0
  193.6990  176.2530  136.2070 C   0  0  0  0  0  2  0  0  0  0  0  0
  194.6910  177.2310  136.2700 O   0  0  0  0  0  0  0  0  0  0  0  0
  195.4200  177.0650  135.0940 C   0  0  0  0  0  2  0  0  0  0  0  0
  197.2890  175.6060  135.7930 C   0  0  0  0  0  1  0  0  0  0  0  0
  195.9770  175.6590  135.0380 C   0  0  0  0  0  2  0  0  0  0  0  0
  1  3  2  0  0  0  0
  2  4  1  0  0  0  0
  3 16  1  0  0  0  0
  4  6  2  0  0  0  0
  5  4  1  0  0  0  0
  5  8  1  0  0  0  0
  6 10  1  0  0  0  0
  7  9  2  0  0  0  0
  8 15  1  1  0  0  0
  8  1  1  0  0  0  0
  9  6  1  0  0  0  0
 10 28  1  1  0  0  0
 10  3  1  0  0  0  0
 11  7  1  0  0  0  0
 11  2  2  0  0  0  0
 12 13  1  0  0  0  0
 12 11  1  0  0  0  0
 14 15  3  0  0  0  0
 16 18  1  0  0  0  0
 16 19  1  0  0  0  0
 18 17  1  0  0  0  0
 19 20  1  0  0  0  0
 20 22  1  0  0  0  0
 21 27  1  0  0  0  0
 22 21  2  0  0  0  0
 22 23  1  0  0  0  0
 23 26  2  0  0  0  0
 26 25  1  0  0  0  0
 26 24  1  0  0  0  0
 27 25  2  0  0  0  0
 28 33  1  6  0  0  0
 28 29  1  0  0  0  0
 29 30  1  0  0  0  0
 30 32  1  0  0  0  0
 31 32  1  0  0  0  0
 33 34  1  0  0  0  0
 35 34  1  0  0  0  0
 37 35  1  0  0  0  0
 37 36  1  0  0  0  0
M  END
>  <MODEL>
5

>  <REMARK>
 VINA RESULT:      -5.8      4.894      7.105
  Name = 
  15 active torsions:
  status: ('A' for Active; 'I' for Inactive)
    1  A    between atoms: O_1  and  O_5
    2  A    between atoms: O_1  and  C_36
    3  A    between atoms: O_3  and  C_32
    4  A    between atoms: O_5  and  C_23
    5  A    between atoms: C_6  and  C_31
    6  A    between atoms: C_10  and  N_14
    7  A    between atoms: N_14  and  C_27
    8  A    between atoms: N_14  and  C_37
    9  A    between atoms: O_17  and  C_26
   10  A    between atoms: O_17  and  C_33
   11  A    between atoms: C_24  and  C_28
   12  A    between atoms: C_26  and  C_34
   13  A    between atoms: C_29  and  C_36
   14  A    between atoms: C_31  and  C_37
   15  A    between atoms: C_33  and  C_36
                            x       y       z     vdW  Elec       q    Type
                         _______ _______ _______ _____ _____    ______ ____

>  <TORSDO>
F 15

$$$$
=
 OpenBabel10272414563D

 37 39  0  0  1  0  0  0  0  0999 V2000
  183.0390  178.6810  142.7110 C   0  0  0  0  0  3  0  0  0  0  0  0
  181.3330  175.7700  139.9200 C   0  0  0  0  0  3  0  0  0  0  0  0
  184.0810  178.5530  141.8910 C   0  0  0  0  0  0  0  0  0  0  0  0
  181.9570  176.8780  140.5040 C   0  0  0  0  0  0  0  0  0  0  0  0
  181.3410  177.3640  141.5890 C   0  0  0  0  0  2  0  0  0  0  0  0
  183.0570  177.5080  139.8340 C   0  0  0  0  0  0  0  0  0  0  0  0
  182.6620  176.0170  137.9290 C   0  0  0  0  0  3  0  0  0  0  0  0
  181.6440  178.6750  142.2240 C   0  0  1  0  0  3  0  0  0  0  0  0
  183.3320  177.0880  138.5160 C   0  0  0  0  0  3  0  0  0  0  0  0
  183.9110  178.4120  140.4060 C   0  0  2  0  0  3  0  0  0  0  0  0
  181.6860  175.3230  138.6480 C   0  0  0  0  0  0  0  0  0  0  0  0
  181.0310  174.2100  138.1140 O   0  0  0  0  0  0  0  0  0  0  0  0
  180.3900  174.2320  136.8450 C   0  0  0  0  0  1  0  0  0  0  0  0
  179.9830  179.0840  144.2750 C   0  0  0  0  0  3  0  0  0  0  0  0
  180.7320  178.9000  143.3470 C   0  0  0  0  0  0  0  0  0  0  0  0
  185.4000  178.5550  142.4700 N   0  0  0  0  0  0  0  0  0  0  0  0
  187.6080  178.4100  141.7260 O   0  0  0  0  0  1  0  0  0  0  0  0
  186.4430  177.6780  141.9560 C   0  0  0  0  0  2  0  0  0  0  0  0
  185.6780  179.2760  143.7060 C   0  0  0  0  0  2  0  0  0  0  0  0
  185.3120  178.4180  144.9060 C   0  0  0  0  0  2  0  0  0  0  0  0
  186.5220  178.2800  147.0920 C   0  0  0  0  0  3  0  0  0  0  0  0
  186.5300  178.1070  145.7040 C   0  0  0  0  0  0  0  0  0  0  0  0
  187.6920  177.6660  145.0610 C   0  0  0  0  0  3  0  0  0  0  0  0
  189.9650  176.9580  145.1840 F   0  0  0  0  0  0  0  0  0  0  0  0
  188.8320  177.5560  147.1940 C   0  0  0  0  0  3  0  0  0  0  0  0
  188.8410  177.3880  145.8060 C   0  0  0  0  0  0  0  0  0  0  0  0
  187.6730  178.0030  147.8370 C   0  0  0  0  0  3  0  0  0  0  0  0
  184.8410  179.2200  139.5170 C   0  0  1  0  0  3  0  0  0  0  0  0
  185.7790  178.4020  138.8760 O   0  0  0  0  0  0  0  0  0  0  0  0
  186.1520  179.0810  137.8080 O   0  0  0  0  0  0  0  0  0  0  0  0
  187.8490  177.4890  138.3050 C   0  0  0  0  0  1  0  0  0  0  0  0
  187.1680  178.3130  137.2330 C   0  0  0  0  0  2  0  0  0  0  0  0
  184.0840  180.0620  138.5010 C   0  0  0  0  0  2  0  0  0  0  0  0
  183.3320  181.0360  139.1570 O   0  0  0  0  0  0  0  0  0  0  0  0
  182.1800  181.1670  138.3840 C   0  0  0  0  0  2  0  0  0  0  0  0
  180.4270  179.4300  138.2370 C   0  0  0  0  0  1  0  0  0  0  0  0
  181.0120  180.5260  139.1030 C   0  0  0  0  0  2  0  0  0  0  0  0
  2  4  1  0  0  0  0
  3 16  1  0  0  0  0
  3  1  2  0  0  0  0
  4  5  1  0  0  0  0
  5  8  1  0  0  0  0
  6 10  1  0  0  0  0
  6  4  2  0  0  0  0
  7  9  2  0  0  0  0
  7 11  1  0  0  0  0
  8  1  1  0  0  0  0
  8 15  1  1  0  0  0
  9  6  1  0  0  0  0
 10 28  1  6  0  0  0
 10  3  1  0  0  0  0
 11  2  2  0  0  0  0
 12 11  1  0  0  0  0
 13 12  1  0  0  0  0
 15 14  3  0  0  0  0
 16 19  1  0  0  0  0
 17 18  1  0  0  0  0
 18 16  1  0  0  0  0
 19 20  1  0  0  0  0
 20 22  1  0  0  0  0
 21 27  1  0  0  0  0
 22 21  2  0  0  0  0
 23 22  1  0  0  0  0
 23 26  2  0  0  0  0
 24 26  1  0  0  0  0
 25 27  2  0  0  0  0
 26 25  1  0  0  0  0
 28 33  1  6  0  0  0
 29 28  1  0  0  0  0
 30 29  1  0  0  0  0
 32 30  1  0  0  0  0
 32 31  1  0  0  0  0
 33 34  1  0  0  0  0
 35 37  1  0  0  0  0
 35 34  1  0  0  0  0
 36 37  1  0  0  0  0
M  END
>  <MODEL>
6

>  <REMARK>
 VINA RESULT:      -5.7      2.316      4.032
  Name = 
  15 active torsions:
  status: ('A' for Active; 'I' for Inactive)
    1  A    between atoms: O_1  and  O_5
    2  A    between atoms: O_1  and  C_36
    3  A    between atoms: O_3  and  C_32
    4  A    between atoms: O_5  and  C_23
    5  A    between atoms: C_6  and  C_31
    6  A    between atoms: C_10  and  N_14
    7  A    between atoms: N_14  and  C_27
    8  A    between atoms: N_14  and  C_37
    9  A    between atoms: O_17  and  C_26
   10  A    between atoms: O_17  and  C_33
   11  A    between atoms: C_24  and  C_28
   12  A    between atoms: C_26  and  C_34
   13  A    between atoms: C_29  and  C_36
   14  A    between atoms: C_31  and  C_37
   15  A    between atoms: C_33  and  C_36
                            x       y       z     vdW  Elec       q    Type
                         _______ _______ _______ _____ _____    ______ ____

>  <TORSDO>
F 15

$$$$
=
 OpenBabel10272414563D

 37 39  0  0  1  0  0  0  0  0999 V2000
  188.8930  177.3620  139.5950 C   0  0  0  0  0  3  0  0  0  0  0  0
  192.8230  176.5530  137.8420 C   0  0  0  0  0  3  0  0  0  0  0  0
  188.5160  177.1800  138.3300 C   0  0  0  0  0  0  0  0  0  0  0  0
  191.4780  176.5050  138.2260 C   0  0  0  0  0  0  0  0  0  0  0  0
  191.2500  176.7990  139.5110 C   0  0  0  0  0  2  0  0  0  0  0  0
  190.4980  175.9900  137.3160 C   0  0  0  0  0  0  0  0  0  0  0  0
  192.3250  175.3840  135.7980 C   0  0  0  0  0  3  0  0  0  0  0  0
  189.9640  176.5620  140.2240 C   0  0  1  0  0  3  0  0  0  0  0  0
  190.9740  175.3760  136.1380 C   0  0  0  0  0  3  0  0  0  0  0  0
  189.1430  176.1320  137.4570 C   0  0  2  0  0  3  0  0  0  0  0  0
  193.2530  176.0130  136.6310 C   0  0  0  0  0  0  0  0  0  0  0  0
  194.6080  176.0900  136.2970 O   0  0  0  0  0  0  0  0  0  0  0  0
  195.5280  175.0430  136.5770 C   0  0  0  0  0  1  0  0  0  0  0  0
  190.2150  177.2690  142.7860 C   0  0  0  0  0  3  0  0  0  0  0  0
  190.1030  176.9480  141.6300 C   0  0  0  0  0  0  0  0  0  0  0  0
  187.4720  178.0240  137.8080 N   0  0  0  0  0  0  0  0  0  0  0  0
  188.9840  179.7510  137.3800 O   0  0  0  0  0  1  0  0  0  0  0  0
  187.7880  179.1660  136.9620 C   0  0  0  0  0  2  0  0  0  0  0  0
  186.0950  177.8900  138.2680 C   0  0  0  0  0  2  0  0  0  0  0  0
  185.8660  178.7580  139.4930 C   0  0  0  0  0  2  0  0  0  0  0  0
  183.8300  178.3020  140.8750 C   0  0  0  0  0  3  0  0  0  0  0  0
  184.4070  178.9040  139.7530 C   0  0  0  0  0  0  0  0  0  0  0  0
  183.6080  179.6240  138.8570 C   0  0  0  0  0  3  0  0  0  0  0  0
  181.4630  180.4490  138.2250 F   0  0  0  0  0  0  0  0  0  0  0  0
  181.6600  179.1520  140.2150 C   0  0  0  0  0  3  0  0  0  0  0  0
  182.2360  179.7500  139.0900 C   0  0  0  0  0  0  0  0  0  0  0  0
  182.4570  178.4270  141.1070 C   0  0  0  0  0  3  0  0  0  0  0  0
  188.2150  175.2940  136.5940 C   0  0  1  0  0  3  0  0  0  0  0  0
  187.1440  174.7820  137.3370 O   0  0  0  0  0  0  0  0  0  0  0  0
  187.1880  173.4780  137.1470 O   0  0  0  0  0  0  0  0  0  0  0  0
  185.3230  172.4510  136.0860 C   0  0  0  0  0  1  0  0  0  0  0  0
  185.8790  173.0410  137.3650 C   0  0  0  0  0  2  0  0  0  0  0  0
  187.7070  176.0570  135.3800 C   0  0  0  0  0  2  0  0  0  0  0  0
  186.3550  175.7780  135.1770 O   0  0  0  0  0  0  0  0  0  0  0  0
  185.8430  176.9390  134.6010 C   0  0  0  0  0  2  0  0  0  0  0  0
  183.9980  176.0050  135.9550 C   0  0  0  0  0  1  0  0  0  0  0  0
  184.3750  177.0710  134.9490 C   0  0  0  0  0  2  0  0  0  0  0  0
  1  8  1  0  0  0  0
  2  4  1  0  0  0  0
  3  1  2  0  0  0  0
  4  5  1  0  0  0  0
  5  8  1  0  0  0  0
  6 10  1  0  0  0  0
  6  4  2  0  0  0  0
  7  9  2  0  0  0  0
  7 11  1  0  0  0  0
  8 15  1  1  0  0  0
  9  6  1  0  0  0  0
 10 28  1  6  0  0  0
 10  3  1  0  0  0  0
 11  2  2  0  0  0  0
 12 13  1  0  0  0  0
 12 11  1  0  0  0  0
 15 14  3  0  0  0  0
 16 19  1  0  0  0  0
 16  3  1  0  0  0  0
 18 17  1  0  0  0  0
 18 16  1  0  0  0  0
 19 20  1  0  0  0  0
 20 22  1  0  0  0  0
 21 27  1  0  0  0  0
 22 21  2  0  0  0  0
 23 26  2  0  0  0  0
 23 22  1  0  0  0  0
 24 26  1  0  0  0  0
 25 27  2  0  0  0  0
 26 25  1  0  0  0  0
 28 33  1  6  0  0  0
 28 29  1  0  0  0  0
 30 29  1  0  0  0  0
 30 32  1  0  0  0  0
 31 32  1  0  0  0  0
 34 33  1  0  0  0  0
 35 37  1  0  0  0  0
 35 34  1  0  0  0  0
 37 36  1  0  0  0  0
M  END
>  <MODEL>
7

>  <REMARK>
 VINA RESULT:      -5.7      3.333      7.385
  Name = 
  15 active torsions:
  status: ('A' for Active; 'I' for Inactive)
    1  A    between atoms: O_1  and  O_5
    2  A    between atoms: O_1  and  C_36
    3  A    between atoms: O_3  and  C_32
    4  A    between atoms: O_5  and  C_23
    5  A    between atoms: C_6  and  C_31
    6  A    between atoms: C_10  and  N_14
    7  A    between atoms: N_14  and  C_27
    8  A    between atoms: N_14  and  C_37
    9  A    between atoms: O_17  and  C_26
   10  A    between atoms: O_17  and  C_33
   11  A    between atoms: C_24  and  C_28
   12  A    between atoms: C_26  and  C_34
   13  A    between atoms: C_29  and  C_36
   14  A    between atoms: C_31  and  C_37
   15  A    between atoms: C_33  and  C_36
                            x       y       z     vdW  Elec       q    Type
                         _______ _______ _______ _____ _____    ______ ____

>  <TORSDO>
F 15

$$$$
=
 OpenBabel10272414563D

 37 39  0  0  1  0  0  0  0  0999 V2000
  188.7900  178.2600  140.7580 C   0  0  0  0  0  3  0  0  0  0  0  0
  184.9660  179.1840  142.6810 C   0  0  0  0  0  3  0  0  0  0  0  0
  189.1670  178.1310  142.0300 C   0  0  0  0  0  0  0  0  0  0  0  0
  186.1740  178.5990  142.2870 C   0  0  0  0  0  0  0  0  0  0  0  0
  186.4000  178.6090  140.9680 C   0  0  0  0  0  2  0  0  0  0  0  0
  186.9690  177.8940  143.2500 C   0  0  0  0  0  0  0  0  0  0  0  0
  185.1600  178.2100  144.8730 C   0  0  0  0  0  3  0  0  0  0  0  0
  187.4620  177.8250  140.2790 C   0  0  1  0  0  3  0  0  0  0  0  0
  186.3910  177.6650  144.5150 C   0  0  0  0  0  3  0  0  0  0  0  0
  188.2710  177.5140  143.0660 C   0  0  2  0  0  3  0  0  0  0  0  0
  184.4600  179.0110  143.9680 C   0  0  0  0  0  0  0  0  0  0  0  0
  183.2490  179.6200  144.3080 O   0  0  0  0  0  0  0  0  0  0  0  0
  181.9960  179.1680  143.8120 C   0  0  0  0  0  1  0  0  0  0  0  0
  187.2910  178.2070  137.6420 C   0  0  0  0  0  3  0  0  0  0  0  0
  187.3690  178.0360  138.8330 C   0  0  0  0  0  0  0  0  0  0  0  0
  190.4780  178.6020  142.3970 N   0  0  0  0  0  0  0  0  0  0  0  0
  191.9680  179.1430  144.1100 O   0  0  0  0  0  1  0  0  0  0  0  0
  190.6810  179.3660  143.6200 C   0  0  0  0  0  2  0  0  0  0  0  0
  191.5980  178.5080  141.4690 C   0  0  0  0  0  2  0  0  0  0  0  0
  191.9450  177.0510  141.2140 C   0  0  0  0  0  2  0  0  0  0  0  0
  190.6900  176.3840  139.1540 C   0  0  0  0  0  3  0  0  0  0  0  0
  191.8960  176.7600  139.7550 C   0  0  0  0  0  0  0  0  0  0  0  0
  193.0640  176.8380  138.9880 C   0  0  0  0  0  3  0  0  0  0  0  0
  194.1530  176.6280  136.8790 F   0  0  0  0  0  0  0  0  0  0  0  0
  191.8170  176.1790  137.0200 C   0  0  0  0  0  3  0  0  0  0  0  0
  193.0240  176.5500  137.6210 C   0  0  0  0  0  0  0  0  0  0  0  0
  190.6500  176.0940  137.7870 C   0  0  0  0  0  3  0  0  0  0  0  0
  188.8990  176.5250  144.0330 C   0  0  1  0  0  3  0  0  0  0  0  0
  189.8890  175.7540  143.4100 O   0  0  0  0  0  0  0  0  0  0  0  0
  190.9900  175.9920  144.0950 O   0  0  0  0  0  0  0  0  0  0  0  0
  192.3590  174.5840  145.4370 C   0  0  0  0  0  1  0  0  0  0  0  0
  191.6800  174.7780  144.0980 C   0  0  0  0  0  2  0  0  0  0  0  0
  189.4540  177.2020  145.2760 C   0  0  0  0  0  2  0  0  0  0  0  0
  188.7590  176.7670  146.4040 O   0  0  0  0  0  0  0  0  0  0  0  0
  189.6800  176.8730  147.4440 C   0  0  0  0  0  2  0  0  0  0  0  0
  187.8220  178.0170  148.6060 C   0  0  0  0  0  1  0  0  0  0  0  0
  189.3100  178.0440  148.3300 C   0  0  0  0  0  2  0  0  0  0  0  0
  1  3  2  0  0  0  0
  2 11  1  0  0  0  0
  3 16  1  0  0  0  0
  3 10  1  0  0  0  0
  4  2  2  0  0  0  0
  4  6  1  0  0  0  0
  5  4  1  0  0  0  0
  6  9  2  0  0  0  0
  8 15  1  6  0  0  0
  8  1  1  0  0  0  0
  8  5  1  0  0  0  0
  9  7  1  0  0  0  0
 10  6  1  0  0  0  0
 10 28  1  1  0  0  0
 11 12  1  0  0  0  0
 11  7  2  0  0  0  0
 13 12  1  0  0  0  0
 14 15  3  0  0  0  0
 16 18  1  0  0  0  0
 18 17  1  0  0  0  0
 19 16  1  0  0  0  0
 20 19  1  0  0  0  0
 21 22  1  0  0  0  0
 22 20  1  0  0  0  0
 23 22  2  0  0  0  0
 24 26  1  0  0  0  0
 25 26  2  0  0  0  0
 25 27  1  0  0  0  0
 26 23  1  0  0  0  0
 27 21  2  0  0  0  0
 28 33  1  1  0  0  0
 29 28  1  0  0  0  0
 29 30  1  0  0  0  0
 30 32  1  0  0  0  0
 32 31  1  0  0  0  0
 33 34  1  0  0  0  0
 34 35  1  0  0  0  0
 35 37  1  0  0  0  0
 37 36  1  0  0  0  0
M  END
>  <MODEL>
8

>  <REMARK>
 VINA RESULT:      -5.7      5.204      8.353
  Name = 
  15 active torsions:
  status: ('A' for Active; 'I' for Inactive)
    1  A    between atoms: O_1  and  O_5
    2  A    between atoms: O_1  and  C_36
    3  A    between atoms: O_3  and  C_32
    4  A    between atoms: O_5  and  C_23
    5  A    between atoms: C_6  and  C_31
    6  A    between atoms: C_10  and  N_14
    7  A    between atoms: N_14  and  C_27
    8  A    between atoms: N_14  and  C_37
    9  A    between atoms: O_17  and  C_26
   10  A    between atoms: O_17  and  C_33
   11  A    between atoms: C_24  and  C_28
   12  A    between atoms: C_26  and  C_34
   13  A    between atoms: C_29  and  C_36
   14  A    between atoms: C_31  and  C_37
   15  A    between atoms: C_33  and  C_36
                            x       y       z     vdW  Elec       q    Type
                         _______ _______ _______ _____ _____    ______ ____

>  <TORSDO>
F 15

$$$$
=
 OpenBabel10272414563D

 37 39  0  0  1  0  0  0  0  0999 V2000
  185.3560  177.5080  136.8620 C   0  0  0  0  0  3  0  0  0  0  0  0
  188.4870  177.6000  139.9220 C   0  0  0  0  0  3  0  0  0  0  0  0
  184.5800  177.5810  137.9430 C   0  0  0  0  0  0  0  0  0  0  0  0
  187.3650  177.8620  139.1260 C   0  0  0  0  0  0  0  0  0  0  0  0
  187.5740  177.7570  137.8080 C   0  0  0  0  0  2  0  0  0  0  0  0
  186.1730  178.3810  139.7300 C   0  0  0  0  0  0  0  0  0  0  0  0
  187.4040  178.5650  141.8420 C   0  0  0  0  0  3  0  0  0  0  0  0
  186.6360  178.2380  136.7570 C   0  0  1  0  0  3  0  0  0  0  0  0
  186.2590  178.7840  141.0790 C   0  0  0  0  0  3  0  0  0  0  0  0
  184.9450  178.4280  139.1280 C   0  0  2  0  0  3  0  0  0  0  0  0
  188.5110  177.9300  141.2750 C   0  0  0  0  0  0  0  0  0  0  0  0
  189.6580  177.6440  142.0220 O   0  0  0  0  0  0  0  0  0  0  0  0
  189.8500  176.4040  142.6900 C   0  0  0  0  0  1  0  0  0  0  0  0
  187.7070  177.8270  134.3460 C   0  0  0  0  0  3  0  0  0  0  0  0
  187.2220  178.0110  135.4340 C   0  0  0  0  0  0  0  0  0  0  0  0
  183.3590  176.8170  137.9500 N   0  0  0  0  0  0  0  0  0  0  0  0
  182.2660  177.8800  136.1820 O   0  0  0  0  0  1  0  0  0  0  0  0
  182.1090  177.4010  137.4830 C   0  0  0  0  0  2  0  0  0  0  0  0
  183.2880  175.5170  138.6070 C   0  0  0  0  0  2  0  0  0  0  0  0
  182.7130  174.4820  137.6550 C   0  0  0  0  0  2  0  0  0  0  0  0
  183.4540  172.3610  136.5510 C   0  0  0  0  0  3  0  0  0  0  0  0
  183.7860  173.5580  137.1940 C   0  0  0  0  0  0  0  0  0  0  0  0
  185.1290  173.8770  137.4260 C   0  0  0  0  0  3  0  0  0  0  0  0
  187.4370  173.3150  137.2310 F   0  0  0  0  0  0  0  0  0  0  0  0
  185.8050  171.8110  136.3610 C   0  0  0  0  0  3  0  0  0  0  0  0
  186.1380  173.0050  137.0080 C   0  0  0  0  0  0  0  0  0  0  0  0
  184.4630  171.4880  136.1340 C   0  0  0  0  0  3  0  0  0  0  0  0
  183.8420  179.2640  139.7550 C   0  0  1  0  0  3  0  0  0  0  0  0
  183.0020  179.8200  138.7820 O   0  0  0  0  0  0  0  0  0  0  0  0
  183.1880  181.1230  138.8730 O   0  0  0  0  0  0  0  0  0  0  0  0
  180.8170  181.0350  139.0440 C   0  0  0  0  0  1  0  0  0  0  0  0
  182.0100  181.6880  138.3780 C   0  0  0  0  0  2  0  0  0  0  0  0
  183.0320  178.4820  140.7760 C   0  0  0  0  0  2  0  0  0  0  0  0
  182.8270  179.2600  141.9160 O   0  0  0  0  0  0  0  0  0  0  0  0
  183.1790  178.4260  142.9760 C   0  0  0  0  0  2  0  0  0  0  0  0
  184.8450  179.2520  144.6050 C   0  0  0  0  0  1  0  0  0  0  0  0
  183.3790  179.2550  144.2260 C   0  0  0  0  0  2  0  0  0  0  0  0
  1  3  2  0  0  0  0
  2 11  1  0  0  0  0
  3 16  1  0  0  0  0
  3 10  1  0  0  0  0
  4  6  1  0  0  0  0
  4  2  2  0  0  0  0
  5  4  1  0  0  0  0
  6  9  2  0  0  0  0
  8 15  1  6  0  0  0
  8  1  1  0  0  0  0
  8  5  1  0  0  0  0
  9  7  1  0  0  0  0
 10  6  1  0  0  0  0
 10 28  1  1  0  0  0
 11  7  2  0  0  0  0
 11 12  1  0  0  0  0
 12 13  1  0  0  0  0
 14 15  3  0  0  0  0
 16 19  1  0  0  0  0
 17 18  1  0  0  0  0
 18 16  1  0  0  0  0
 20 19  1  0  0  0  0
 21 22  1  0  0  0  0
 22 23  2  0  0  0  0
 22 20  1  0  0  0  0
 25 26  2  0  0  0  0
 26 24  1  0  0  0  0
 26 23  1  0  0  0  0
 27 25  1  0  0  0  0
 27 21  2  0  0  0  0
 28 33  1  1  0  0  0
 29 30  1  0  0  0  0
 29 28  1  0  0  0  0
 32 30  1  0  0  0  0
 32 31  1  0  0  0  0
 33 34  1  0  0  0  0
 34 35  1  0  0  0  0
 35 37  1  0  0  0  0
 37 36  1  0  0  0  0
M  END
>  <MODEL>
9

>  <REMARK>
 VINA RESULT:      -5.6      2.962      7.728
  Name = 
  15 active torsions:
  status: ('A' for Active; 'I' for Inactive)
    1  A    between atoms: O_1  and  O_5
    2  A    between atoms: O_1  and  C_36
    3  A    between atoms: O_3  and  C_32
    4  A    between atoms: O_5  and  C_23
    5  A    between atoms: C_6  and  C_31
    6  A    between atoms: C_10  and  N_14
    7  A    between atoms: N_14  and  C_27
    8  A    between atoms: N_14  and  C_37
    9  A    between atoms: O_17  and  C_26
   10  A    between atoms: O_17  and  C_33
   11  A    between atoms: C_24  and  C_28
   12  A    between atoms: C_26  and  C_34
   13  A    between atoms: C_29  and  C_36
   14  A    between atoms: C_31  and  C_37
   15  A    between atoms: C_33  and  C_36
                            x       y       z     vdW  Elec       q    Type
                         _______ _______ _______ _____ _____    ______ ____

>  <TORSDO>
F 15

$$$$
