=
 OpenBabel10272414153D

 43 47  0  0  1  0  0  0  0  0999 V2000
  190.1410  176.1230  138.3910 N   0  0  0  0  0  2  0  0  0  0  0  0
  189.3500  178.3380  138.9990 C   0  0  2  0  0  3  0  0  0  0  0  0
  190.4070  177.2750  138.8900 C   0  0  0  0  0  0  0  0  0  0  0  0
  189.5870  176.8770  141.7630 N   0  0  0  0  0  0  0  0  0  0  0  0
  188.2750  177.9950  140.0260 C   0  0  0  0  0  2  0  0  0  0  0  0
  191.8630  176.7100  140.8290 C   0  0  0  0  0  2  0  0  0  0  0  0
  190.9990  177.2790  141.9530 C   0  0  2  0  0  3  0  0  0  0  0  0
  188.8300  178.0810  141.4430 C   0  0  0  0  0  2  0  0  0  0  0  0
  191.7280  177.5170  139.5450 C   0  0  0  0  0  2  0  0  0  0  0  0
  191.4220  176.5510  146.1210 C   0  0  1  0  0  3  0  0  0  0  0  0
  191.5130  178.0500  144.4180 C   0  0  0  0  0  0  0  0  0  0  0  0
  191.9200  175.3890  145.2650 C   0  0  0  0  0  2  0  0  0  0  0  0
  191.7810  176.2960  147.5690 C   0  0  0  0  0  1  0  0  0  0  0  0
  191.6710  176.9760  143.3180 C   0  0  1  0  0  3  0  0  0  0  0  0
  192.0190  177.7530  145.6970 O   0  0  0  0  0  0  0  0  0  0  0  0
  191.3950  175.5620  143.8450 C   0  0  0  0  0  2  0  0  0  0  0  0
  191.9950  179.4110  143.9630 C   0  0  0  0  0  2  0  0  0  0  0  0
  190.5340  179.2030  144.3260 C   0  0  0  0  0  2  0  0  0  0  0  0
  188.9520  176.2760  142.9370 C   0  0  0  0  0  2  0  0  0  0  0  0
  187.0360  178.0880  145.7670 C   0  0  0  0  0  2  0  0  0  0  0  0
  185.6210  177.8740  145.2290 C   0  0  2  0  0  3  0  0  0  0  0  0
  186.5570  177.0480  143.0630 C   0  0  0  0  0  2  0  0  0  0  0  0
  188.0020  177.0970  145.1260 C   0  0  0  0  0  2  0  0  0  0  0  0
  187.9740  177.2400  143.6020 C   0  0  1  0  0  3  0  0  0  0  0  0
  185.6090  178.0500  143.7130 C   0  0  0  0  0  2  0  0  0  0  0  0
  183.4960  179.1360  144.9290 C   0  0  0  0  0  1  0  0  0  0  0  0
  184.6650  178.8700  145.8580 C   0  0  0  0  0  2  0  0  0  0  0  0
  188.7780  178.7710  137.6460 C   0  0  0  0  0  2  0  0  0  0  0  0
  188.1600  177.6310  136.8360 C   0  0  0  0  0  2  0  0  0  0  0  0
  186.6620  177.8670  134.8400 C   0  0  0  0  0  1  0  0  0  0  0  0
  186.7560  177.9700  136.3560 C   0  0  1  0  0  3  0  0  0  0  0  0
  185.7160  177.1010  137.0800 C   0  0  1  0  0  3  0  0  0  0  0  0
  184.6200  177.8610  137.7710 C   0  0  0  0  0  0  0  0  0  0  0  0
  183.9550  179.4710  139.4590 C   0  0  0  0  0  3  0  0  0  0  0  0
  182.2690  178.3450  138.1370 C   0  0  0  0  0  3  0  0  0  0  0  0
  182.6110  179.2590  139.1370 C   0  0  0  0  0  3  0  0  0  0  0  0
  183.2700  177.6470  137.4570 C   0  0  0  0  0  3  0  0  0  0  0  0
  184.9560  178.7710  138.7790 C   0  0  0  0  0  3  0  0  0  0  0  0
  185.2570  175.8280  136.3470 C   0  0  0  0  0  2  0  0  0  0  0  0
  185.4870  174.5670  137.1160 C   0  0  0  0  0  0  0  0  0  0  0  0
  184.4800  173.9520  137.6510 N   0  0  0  0  0  2  0  0  0  0  0  0
  187.6850  174.0120  136.1420 C   0  0  0  0  0  1  0  0  0  0  0  0
  186.7830  174.0610  137.2360 O   0  0  0  0  0  0  0  0  0  0  0  0
  1  3  2  0  0  0  0
  2 28  1  6  0  0  0
  2  5  1  0  0  0  0
  3  2  1  0  0  0  0
  3  9  1  0  0  0  0
  4  7  1  0  0  0  0
  4 19  1  0  0  0  0
  5  8  1  0  0  0  0
  7  6  1  6  0  0  0
  7 14  1  0  0  0  0
  8  4  1  0  0  0  0
  9  6  1  0  0  0  0
 10 13  1  1  0  0  0
 11 15  1  0  0  0  0
 12 10  1  0  0  0  0
 14 16  1  1  0  0  0
 14 11  1  0  0  0  0
 15 10  1  0  0  0  0
 16 12  1  0  0  0  0
 17 18  1  0  0  0  0
 17 11  1  0  0  0  0
 18 11  1  0  0  0  0
 21 20  1  0  0  0  0
 21 27  1  1  0  0  0
 22 24  1  0  0  0  0
 22 25  1  0  0  0  0
 23 20  1  0  0  0  0
 24 19  1  6  0  0  0
 24 23  1  0  0  0  0
 25 21  1  0  0  0  0
 26 27  1  0  0  0  0
 29 28  1  0  0  0  0
 31 30  1  6  0  0  0
 31 29  1  0  0  0  0
 31 32  1  0  0  0  0
 32 39  1  6  0  0  0
 32 33  1  0  0  0  0
 33 38  1  0  0  0  0
 35 36  2  0  0  0  0
 36 34  1  0  0  0  0
 37 33  2  0  0  0  0
 37 35  1  0  0  0  0
 38 34  2  0  0  0  0
 39 40  1  0  0  0  0
 40 43  1  0  0  0  0
 40 41  2  0  0  0  0
 42 43  1  0  0  0  0
M  END
>  <MODEL>
1

>  <REMARK>
 VINA RESULT:      -8.5      0.000      0.000
  Name = 
  12 active torsions:
  status: ('A' for Active; 'I' for Inactive)
    1  A    between atoms: C_1  and  N_8
    2  A    between atoms: C_1  and  C_35
    3  A    between atoms: C_4  and  C_12
    4  A    between atoms: C_4  and  C_14
    5  A    between atoms: C_6  and  C_17
    6  A    between atoms: C_10  and  C_41
    7  A    between atoms: C_10  and  O_42
    8  A    between atoms: C_11  and  C_14
    9  A    between atoms: C_12  and  C_17
   10  A    between atoms: C_14  and  C_41
   11  A    between atoms: C_19  and  C_37
   12  A    between atoms: C_21  and  C_30
                            x       y       z     vdW  Elec       q    Type
                         _______ _______ _______ _____ _____    ______ ____

>  <TORSDO>
F 12

$$$$
=
 OpenBabel10272414153D

 43 47  0  0  1  0  0  0  0  0999 V2000
  190.3180  175.9620  138.4480 N   0  0  0  0  0  2  0  0  0  0  0  0
  189.4490  178.1680  138.9770 C   0  0  2  0  0  3  0  0  0  0  0  0
  190.5380  177.1340  138.9230 C   0  0  0  0  0  0  0  0  0  0  0  0
  189.6540  176.7860  141.7830 N   0  0  0  0  0  0  0  0  0  0  0  0
  188.3580  177.8210  139.9850 C   0  0  0  0  0  2  0  0  0  0  0  0
  191.9580  176.6610  140.9120 C   0  0  0  0  0  2  0  0  0  0  0  0
  191.0500  177.2340  141.9980 C   0  0  2  0  0  3  0  0  0  0  0  0
  188.8730  177.9600  141.4120 C   0  0  0  0  0  2  0  0  0  0  0  0
  191.8340  177.4310  139.6040 C   0  0  0  0  0  2  0  0  0  0  0  0
  191.3860  176.6550  146.1980 C   0  0  1  0  0  3  0  0  0  0  0  0
  191.4990  178.0950  144.4460 C   0  0  0  0  0  0  0  0  0  0  0  0
  191.9160  175.4700  145.3940 C   0  0  0  0  0  2  0  0  0  0  0  0
  191.7150  176.4540  147.6610 C   0  0  0  0  0  1  0  0  0  0  0  0
  191.6930  176.9860  143.3880 C   0  0  1  0  0  3  0  0  0  0  0  0
  191.9790  177.8480  145.7460 O   0  0  0  0  0  0  0  0  0  0  0  0
  191.4220  175.5880  143.9580 C   0  0  0  0  0  2  0  0  0  0  0  0
  191.9760  179.4460  143.9560 C   0  0  0  0  0  2  0  0  0  0  0  0
  190.5100  179.2330  144.2930 C   0  0  0  0  0  2  0  0  0  0  0  0
  189.0070  176.1990  142.9560 C   0  0  0  0  0  2  0  0  0  0  0  0
  187.1590  178.0810  145.7860 C   0  0  0  0  0  2  0  0  0  0  0  0
  185.7310  177.8630  145.2820 C   0  0  2  0  0  3  0  0  0  0  0  0
  186.6180  176.9850  143.1160 C   0  0  0  0  0  2  0  0  0  0  0  0
  188.1060  177.0710  145.1460 C   0  0  0  0  0  2  0  0  0  0  0  0
  188.0470  177.1810  143.6210 C   0  0  1  0  0  3  0  0  0  0  0  0
  185.6890  178.0060  143.7640 C   0  0  0  0  0  2  0  0  0  0  0  0
  183.5680  179.0700  145.0370 C   0  0  0  0  0  1  0  0  0  0  0  0
  184.7940  178.8770  145.9090 C   0  0  0  0  0  2  0  0  0  0  0  0
  188.9000  178.5490  137.5990 C   0  0  0  0  0  2  0  0  0  0  0  0
  188.1290  177.4280  136.9020 C   0  0  0  0  0  2  0  0  0  0  0  0
  187.0700  178.2560  134.7860 C   0  0  0  0  0  1  0  0  0  0  0  0
  186.8460  177.9350  136.2570 C   0  0  1  0  0  3  0  0  0  0  0  0
  185.6990  176.9380  136.4850 C   0  0  1  0  0  3  0  0  0  0  0  0
  186.0530  175.4970  136.2520 C   0  0  0  0  0  0  0  0  0  0  0  0
  186.3990  173.6680  134.6970 C   0  0  0  0  0  3  0  0  0  0  0  0
  186.5890  173.2770  137.0780 C   0  0  0  0  0  3  0  0  0  0  0  0
  186.6440  172.8010  135.7650 C   0  0  0  0  0  3  0  0  0  0  0  0
  186.2930  174.6210  137.3210 C   0  0  0  0  0  3  0  0  0  0  0  0
  186.1010  175.0130  134.9410 C   0  0  0  0  0  3  0  0  0  0  0  0
  184.8010  177.1950  137.7070 C   0  0  0  0  0  2  0  0  0  0  0  0
  183.4160  177.6400  137.3610 C   0  0  0  0  0  0  0  0  0  0  0  0
  182.9290  177.3650  136.1930 N   0  0  0  0  0  2  0  0  0  0  0  0
  181.3260  178.7480  138.0620 C   0  0  0  0  0  1  0  0  0  0  0  0
  182.6610  178.3360  138.3080 O   0  0  0  0  0  0  0  0  0  0  0  0
  1  3  2  0  0  0  0
  2 28  1  6  0  0  0
  2  5  1  0  0  0  0
  3  2  1  0  0  0  0
  3  9  1  0  0  0  0
  4  7  1  0  0  0  0
  4 19  1  0  0  0  0
  5  8  1  0  0  0  0
  7  6  1  6  0  0  0
  7 14  1  0  0  0  0
  8  4  1  0  0  0  0
  9  6  1  0  0  0  0
 10 13  1  1  0  0  0
 11 15  1  0  0  0  0
 12 10  1  0  0  0  0
 14 16  1  1  0  0  0
 14 11  1  0  0  0  0
 15 10  1  0  0  0  0
 16 12  1  0  0  0  0
 17 18  1  0  0  0  0
 17 11  1  0  0  0  0
 18 11  1  0  0  0  0
 21 20  1  0  0  0  0
 21 27  1  1  0  0  0
 22 24  1  0  0  0  0
 22 25  1  0  0  0  0
 23 20  1  0  0  0  0
 24 19  1  6  0  0  0
 24 23  1  0  0  0  0
 25 21  1  0  0  0  0
 26 27  1  0  0  0  0
 29 28  1  0  0  0  0
 31 30  1  6  0  0  0
 31 32  1  0  0  0  0
 31 29  1  0  0  0  0
 32 39  1  1  0  0  0
 33 32  1  0  0  0  0
 33 37  1  0  0  0  0
 34 38  1  0  0  0  0
 34 36  2  0  0  0  0
 35 37  2  0  0  0  0
 36 35  1  0  0  0  0
 38 33  2  0  0  0  0
 40 39  1  0  0  0  0
 40 43  1  0  0  0  0
 41 40  2  0  0  0  0
 42 43  1  0  0  0  0
M  END
>  <MODEL>
2

>  <REMARK>
 VINA RESULT:      -7.5      1.315      2.948
  Name = 
  12 active torsions:
  status: ('A' for Active; 'I' for Inactive)
    1  A    between atoms: C_1  and  N_8
    2  A    between atoms: C_1  and  C_35
    3  A    between atoms: C_4  and  C_12
    4  A    between atoms: C_4  and  C_14
    5  A    between atoms: C_6  and  C_17
    6  A    between atoms: C_10  and  C_41
    7  A    between atoms: C_10  and  O_42
    8  A    between atoms: C_11  and  C_14
    9  A    between atoms: C_12  and  C_17
   10  A    between atoms: C_14  and  C_41
   11  A    between atoms: C_19  and  C_37
   12  A    between atoms: C_21  and  C_30
                            x       y       z     vdW  Elec       q    Type
                         _______ _______ _______ _____ _____    ______ ____

>  <TORSDO>
F 12

$$$$
=
 OpenBabel10272414153D

 43 47  0  0  1  0  0  0  0  0999 V2000
  185.0620  180.2530  144.3640 N   0  0  0  0  0  2  0  0  0  0  0  0
  184.8680  177.9760  143.5390 C   0  0  2  0  0  3  0  0  0  0  0  0
  185.1340  178.9950  144.6110 C   0  0  0  0  0  0  0  0  0  0  0  0
  187.9660  178.3920  143.7770 N   0  0  0  0  0  0  0  0  0  0  0  0
  185.9480  177.9600  142.4620 C   0  0  0  0  0  2  0  0  0  0  0  0
  187.1510  178.8360  146.0610 C   0  0  0  0  0  2  0  0  0  0  0  0
  188.0080  177.9280  145.1830 C   0  0  2  0  0  3  0  0  0  0  0  0
  187.2500  177.3830  143.0060 C   0  0  0  0  0  2  0  0  0  0  0  0
  185.6670  178.5230  145.9240 C   0  0  0  0  0  2  0  0  0  0  0  0
  191.2390  176.0320  147.1960 C   0  0  1  0  0  3  0  0  0  0  0  0
  189.3940  177.3470  147.3460 C   0  0  0  0  0  0  0  0  0  0  0  0
  191.6280  176.5550  145.8160 C   0  0  0  0  0  2  0  0  0  0  0  0
  192.4790  175.5490  147.9170 C   0  0  0  0  0  1  0  0  0  0  0  0
  189.3950  177.7310  145.8490 C   0  0  1  0  0  3  0  0  0  0  0  0
  190.6330  177.0570  147.9460 O   0  0  0  0  0  0  0  0  0  0  0  0
  190.3600  176.8650  145.0300 C   0  0  0  0  0  2  0  0  0  0  0  0
  188.6160  178.3340  148.1910 C   0  0  0  0  0  2  0  0  0  0  0  0
  188.1550  176.8900  148.0900 C   0  0  0  0  0  2  0  0  0  0  0  0
  189.2740  178.5600  143.1430 C   0  0  0  0  0  2  0  0  0  0  0  0
  190.7980  176.5540  140.2070 C   0  0  0  0  0  2  0  0  0  0  0  0
  190.3440  177.4720  139.0710 C   0  0  2  0  0  3  0  0  0  0  0  0
  188.8830  178.7330  140.6600 C   0  0  0  0  0  2  0  0  0  0  0  0
  190.7580  177.2990  141.5370 C   0  0  0  0  0  2  0  0  0  0  0  0
  189.3480  177.8330  141.8030 C   0  0  1  0  0  3  0  0  0  0  0  0
  188.9260  177.9700  139.3400 C   0  0  0  0  0  2  0  0  0  0  0  0
  191.7940  176.3380  137.3940 C   0  0  0  0  0  1  0  0  0  0  0  0
  190.3710  176.7250  137.7510 C   0  0  0  0  0  2  0  0  0  0  0  0
  183.4480  178.0450  142.9700 C   0  0  0  0  0  2  0  0  0  0  0  0
  183.3550  178.7210  141.6030 C   0  0  0  0  0  2  0  0  0  0  0  0
  181.3310  177.6490  140.5830 C   0  0  0  0  0  1  0  0  0  0  0  0
  182.8480  177.7680  140.5290 C   0  0  1  0  0  3  0  0  0  0  0  0
  183.3660  178.1920  139.1460 C   0  0  1  0  0  3  0  0  0  0  0  0
  182.4470  179.0930  138.3710 C   0  0  0  0  0  0  0  0  0  0  0  0
  180.9390  179.4070  136.4970 C   0  0  0  0  0  3  0  0  0  0  0  0
  181.4460  181.2670  137.9600 C   0  0  0  0  0  3  0  0  0  0  0  0
  180.7730  180.7490  136.8510 C   0  0  0  0  0  3  0  0  0  0  0  0
  182.2830  180.4420  138.7170 C   0  0  0  0  0  3  0  0  0  0  0  0
  181.7770  178.5820  137.2540 C   0  0  0  0  0  3  0  0  0  0  0  0
  184.8580  178.5550  139.0540 C   0  0  0  0  0  2  0  0  0  0  0  0
  185.5280  178.0660  137.8110 C   0  0  0  0  0  0  0  0  0  0  0  0
  185.2070  176.9100  137.3250 N   0  0  0  0  0  2  0  0  0  0  0  0
  187.3130  178.3870  136.1380 C   0  0  0  0  0  1  0  0  0  0  0  0
  186.4840  178.8680  137.1840 O   0  0  0  0  0  0  0  0  0  0  0  0
  1  3  2  0  0  0  0
  2 28  1  6  0  0  0
  2  3  1  0  0  0  0
  3  9  1  0  0  0  0
  4  7  1  0  0  0  0
  5  8  1  0  0  0  0
  5  2  1  0  0  0  0
  7 14  1  0  0  0  0
  7  6  1  1  0  0  0
  8  4  1  0  0  0  0
  9  6  1  0  0  0  0
 10 13  1  1  0  0  0
 10 15  1  0  0  0  0
 11 15  1  0  0  0  0
 11 18  1  0  0  0  0
 11 17  1  0  0  0  0
 12 10  1  0  0  0  0
 14 16  1  6  0  0  0
 14 11  1  0  0  0  0
 16 12  1  0  0  0  0
 18 17  1  0  0  0  0
 19  4  1  0  0  0  0
 20 23  1  0  0  0  0
 21 27  1  6  0  0  0
 21 25  1  0  0  0  0
 21 20  1  0  0  0  0
 22 24  1  0  0  0  0
 23 24  1  0  0  0  0
 24 19  1  1  0  0  0
 25 22  1  0  0  0  0
 26 27  1  0  0  0  0
 29 28  1  0  0  0  0
 31 30  1  6  0  0  0
 31 29  1  0  0  0  0
 32 39  1  1  0  0  0
 32 31  1  0  0  0  0
 33 37  1  0  0  0  0
 33 32  1  0  0  0  0
 34 36  2  0  0  0  0
 34 38  1  0  0  0  0
 35 37  2  0  0  0  0
 36 35  1  0  0  0  0
 38 33  2  0  0  0  0
 40 39  1  0  0  0  0
 41 40  2  0  0  0  0
 42 43  1  0  0  0  0
 43 40  1  0  0  0  0
M  END
>  <MODEL>
3

>  <REMARK>
 VINA RESULT:      -7.2      2.090      5.358
  Name = 
  12 active torsions:
  status: ('A' for Active; 'I' for Inactive)
    1  A    between atoms: C_1  and  N_8
    2  A    between atoms: C_1  and  C_35
    3  A    between atoms: C_4  and  C_12
    4  A    between atoms: C_4  and  C_14
    5  A    between atoms: C_6  and  C_17
    6  A    between atoms: C_10  and  C_41
    7  A    between atoms: C_10  and  O_42
    8  A    between atoms: C_11  and  C_14
    9  A    between atoms: C_12  and  C_17
   10  A    between atoms: C_14  and  C_41
   11  A    between atoms: C_19  and  C_37
   12  A    between atoms: C_21  and  C_30
                            x       y       z     vdW  Elec       q    Type
                         _______ _______ _______ _____ _____    ______ ____

>  <TORSDO>
F 12

$$$$
=
 OpenBabel10272414153D

 43 47  0  0  1  0  0  0  0  0999 V2000
  185.0940  180.2980  144.5020 N   0  0  0  0  0  2  0  0  0  0  0  0
  184.8260  178.0220  143.6970 C   0  0  2  0  0  3  0  0  0  0  0  0
  185.1520  179.0400  144.7530 C   0  0  0  0  0  0  0  0  0  0  0  0
  187.9390  178.3800  143.8130 N   0  0  0  0  0  0  0  0  0  0  0  0
  185.8630  177.9800  142.5790 C   0  0  0  0  0  2  0  0  0  0  0  0
  187.2200  178.8490  146.1250 C   0  0  0  0  0  2  0  0  0  0  0  0
  188.0260  177.9210  145.2180 C   0  0  2  0  0  3  0  0  0  0  0  0
  187.1740  177.3810  143.0760 C   0  0  0  0  0  2  0  0  0  0  0  0
  185.7270  178.5640  146.0470 C   0  0  0  0  0  2  0  0  0  0  0  0
  191.2980  175.9720  147.1110 C   0  0  1  0  0  3  0  0  0  0  0  0
  189.4830  177.3190  147.3280 C   0  0  0  0  0  0  0  0  0  0  0  0
  191.6440  176.4870  145.7150 C   0  0  0  0  0  2  0  0  0  0  0  0
  192.5560  175.4690  147.7840 C   0  0  0  0  0  1  0  0  0  0  0  0
  189.4340  177.7020  145.8320 C   0  0  1  0  0  3  0  0  0  0  0  0
  190.7390  177.0080  147.8820 O   0  0  0  0  0  0  0  0  0  0  0  0
  190.3520  176.8180  144.9780 C   0  0  0  0  0  2  0  0  0  0  0  0
  188.7550  178.3200  148.2000 C   0  0  0  0  0  2  0  0  0  0  0  0
  188.2660  176.8840  148.1200 C   0  0  0  0  0  2  0  0  0  0  0  0
  189.2240  178.5210  143.1280 C   0  0  0  0  0  2  0  0  0  0  0  0
  190.5120  176.6170  140.0160 C   0  0  0  0  0  2  0  0  0  0  0  0
  190.0520  177.6190  138.9560 C   0  0  2  0  0  3  0  0  0  0  0  0
  188.7280  178.8530  140.6800 C   0  0  0  0  0  2  0  0  0  0  0  0
  190.5690  177.2860  141.3860 C   0  0  0  0  0  2  0  0  0  0  0  0
  189.2010  177.8680  141.7490 C   0  0  1  0  0  3  0  0  0  0  0  0
  188.6740  178.1650  139.3200 C   0  0  0  0  0  2  0  0  0  0  0  0
  189.2680  177.8440  136.6030 C   0  0  0  0  0  1  0  0  0  0  0  0
  189.9820  176.9480  137.5970 C   0  0  0  0  0  2  0  0  0  0  0  0
  183.3870  178.1140  143.1830 C   0  0  0  0  0  2  0  0  0  0  0  0
  183.2260  178.9710  141.9270 C   0  0  0  0  0  2  0  0  0  0  0  0
  180.8520  178.4140  141.3450 C   0  0  0  0  0  1  0  0  0  0  0  0
  182.3060  178.3170  140.9050 C   0  0  1  0  0  3  0  0  0  0  0  0
  182.5490  178.9080  139.5080 C   0  0  1  0  0  3  0  0  0  0  0  0
  183.5010  178.1290  138.6440 C   0  0  0  0  0  0  0  0  0  0  0  0
  185.7250  177.8760  137.7110 C   0  0  0  0  0  3  0  0  0  0  0  0
  183.9770  176.3190  137.0980 C   0  0  0  0  0  3  0  0  0  0  0  0
  185.3010  176.7530  136.9960 C   0  0  0  0  0  3  0  0  0  0  0  0
  183.0790  177.0060  137.9190 C   0  0  0  0  0  3  0  0  0  0  0  0
  184.8260  178.5650  138.5310 C   0  0  0  0  0  3  0  0  0  0  0  0
  181.3160  179.4620  138.7740 C   0  0  0  0  0  2  0  0  0  0  0  0
  181.4970  180.8460  138.2400 C   0  0  0  0  0  0  0  0  0  0  0  0
  182.4500  181.5900  138.7030 N   0  0  0  0  0  2  0  0  0  0  0  0
  180.7270  182.6330  136.7230 C   0  0  0  0  0  1  0  0  0  0  0  0
  180.6420  181.3150  137.2400 O   0  0  0  0  0  0  0  0  0  0  0  0
  1  3  2  0  0  0  0
  2 28  1  6  0  0  0
  2  3  1  0  0  0  0
  3  9  1  0  0  0  0
  4  7  1  0  0  0  0
  5  8  1  0  0  0  0
  5  2  1  0  0  0  0
  7 14  1  0  0  0  0
  7  6  1  1  0  0  0
  8  4  1  0  0  0  0
  9  6  1  0  0  0  0
 10 13  1  1  0  0  0
 10 15  1  0  0  0  0
 11 15  1  0  0  0  0
 11 18  1  0  0  0  0
 11 17  1  0  0  0  0
 12 10  1  0  0  0  0
 14 16  1  6  0  0  0
 14 11  1  0  0  0  0
 16 12  1  0  0  0  0
 18 17  1  0  0  0  0
 19  4  1  0  0  0  0
 20 23  1  0  0  0  0
 21 27  1  6  0  0  0
 21 25  1  0  0  0  0
 21 20  1  0  0  0  0
 22 24  1  0  0  0  0
 23 24  1  0  0  0  0
 24 19  1  1  0  0  0
 25 22  1  0  0  0  0
 26 27  1  0  0  0  0
 29 28  1  0  0  0  0
 31 30  1  1  0  0  0
 31 29  1  0  0  0  0
 32 39  1  6  0  0  0
 32 31  1  0  0  0  0
 33 32  1  0  0  0  0
 34 38  2  0  0  0  0
 35 37  1  0  0  0  0
 36 35  2  0  0  0  0
 36 34  1  0  0  0  0
 37 33  2  0  0  0  0
 38 33  1  0  0  0  0
 40 41  2  0  0  0  0
 40 39  1  0  0  0  0
 42 43  1  0  0  0  0
 43 40  1  0  0  0  0
M  END
>  <MODEL>
4

>  <REMARK>
 VINA RESULT:      -7.1      2.707      5.911
  Name = 
  12 active torsions:
  status: ('A' for Active; 'I' for Inactive)
    1  A    between atoms: C_1  and  N_8
    2  A    between atoms: C_1  and  C_35
    3  A    between atoms: C_4  and  C_12
    4  A    between atoms: C_4  and  C_14
    5  A    between atoms: C_6  and  C_17
    6  A    between atoms: C_10  and  C_41
    7  A    between atoms: C_10  and  O_42
    8  A    between atoms: C_11  and  C_14
    9  A    between atoms: C_12  and  C_17
   10  A    between atoms: C_14  and  C_41
   11  A    between atoms: C_19  and  C_37
   12  A    between atoms: C_21  and  C_30
                            x       y       z     vdW  Elec       q    Type
                         _______ _______ _______ _____ _____    ______ ____

>  <TORSDO>
F 12

$$$$
=
 OpenBabel10272414153D

 43 47  0  0  1  0  0  0  0  0999 V2000
  181.0370  177.8710  143.7510 N   0  0  0  0  0  2  0  0  0  0  0  0
  183.0110  179.1560  143.1580 C   0  0  2  0  0  3  0  0  0  0  0  0
  181.5250  178.9410  143.2380 C   0  0  0  0  0  0  0  0  0  0  0  0
  182.0110  178.0630  140.3960 N   0  0  0  0  0  0  0  0  0  0  0  0
  183.6890  178.2140  142.1700 C   0  0  0  0  0  2  0  0  0  0  0  0
  180.0670  179.3140  141.2550 C   0  0  0  0  0  2  0  0  0  0  0  0
  181.1250  179.2260  140.1580 C   0  0  2  0  0  3  0  0  0  0  0  0
  183.3300  178.5820  140.7350 C   0  0  0  0  0  2  0  0  0  0  0  0
  180.6280  179.9100  142.5390 C   0  0  0  0  0  2  0  0  0  0  0  0
  180.6670  179.5550  135.9420 C   0  0  1  0  0  3  0  0  0  0  0  0
  180.7780  180.6150  137.9470 C   0  0  0  0  0  0  0  0  0  0  0  0
  179.9820  178.3170  136.5160 C   0  0  0  0  0  2  0  0  0  0  0  0
  180.2980  179.7000  134.4820 C   0  0  0  0  0  1  0  0  0  0  0  0
  180.4390  179.3530  138.7730 C   0  0  1  0  0  3  0  0  0  0  0  0
  180.2540  180.7030  136.6440 O   0  0  0  0  0  0  0  0  0  0  0  0
  180.5040  178.0750  137.9280 C   0  0  0  0  0  2  0  0  0  0  0  0
  180.5020  181.8920  138.7130 C   0  0  0  0  0  2  0  0  0  0  0  0
  181.9200  181.5530  138.2850 C   0  0  0  0  0  2  0  0  0  0  0  0
  182.1860  177.1740  139.2470 C   0  0  0  0  0  2  0  0  0  0  0  0
  185.6420  178.2910  137.9150 C   0  0  0  0  0  2  0  0  0  0  0  0
  185.8330  177.1830  136.8780 C   0  0  2  0  0  3  0  0  0  0  0  0
  183.8590  175.9610  137.8060 C   0  0  0  0  0  2  0  0  0  0  0  0
  184.1700  178.4110  138.2970 C   0  0  0  0  0  2  0  0  0  0  0  0
  183.6510  177.0740  138.8320 C   0  0  1  0  0  3  0  0  0  0  0  0
  185.3360  175.8550  137.4400 C   0  0  0  0  0  2  0  0  0  0  0  0
  187.6240  177.9480  135.3270 C   0  0  0  0  0  1  0  0  0  0  0  0
  187.2990  177.0570  136.5100 C   0  0  0  0  0  2  0  0  0  0  0  0
  183.6960  179.1920  144.5270 C   0  0  0  0  0  2  0  0  0  0  0  0
  185.2200  179.2900  144.4600 C   0  0  0  0  0  2  0  0  0  0  0  0
  184.9150  177.7750  146.4350 C   0  0  0  0  0  1  0  0  0  0  0  0
  185.8840  178.6810  145.6870 C   0  0  1  0  0  3  0  0  0  0  0  0
  187.1880  177.9680  145.2950 C   0  0  1  0  0  3  0  0  0  0  0  0
  188.2130  177.8690  146.3880 C   0  0  0  0  0  0  0  0  0  0  0  0
  190.3990  177.1180  147.1240 C   0  0  0  0  0  3  0  0  0  0  0  0
  188.9100  178.2090  148.6890 C   0  0  0  0  0  3  0  0  0  0  0  0
  190.1350  177.5990  148.4090 C   0  0  0  0  0  3  0  0  0  0  0  0
  187.9510  178.3420  147.6820 C   0  0  0  0  0  3  0  0  0  0  0  0
  189.4380  177.2510  146.1160 C   0  0  0  0  0  3  0  0  0  0  0  0
  187.0440  176.7070  144.4270 C   0  0  0  0  0  2  0  0  0  0  0  0
  187.8830  176.7200  143.1900 C   0  0  0  0  0  0  0  0  0  0  0  0
  187.7170  177.6600  142.3150 N   0  0  0  0  0  2  0  0  0  0  0  0
  190.1810  176.0220  142.6240 C   0  0  0  0  0  1  0  0  0  0  0  0
  188.8460  175.7260  143.0010 O   0  0  0  0  0  0  0  0  0  0  0  0
  2  3  1  0  0  0  0
  2 28  1  1  0  0  0
  3  1  2  0  0  0  0
  4  8  1  0  0  0  0
  5  2  1  0  0  0  0
  6  9  1  0  0  0  0
  7  4  1  0  0  0  0
  7  6  1  1  0  0  0
  8  5  1  0  0  0  0
  9  3  1  0  0  0  0
 10 13  1  6  0  0  0
 10 12  1  0  0  0  0
 10 15  1  0  0  0  0
 11 18  1  0  0  0  0
 11 17  1  0  0  0  0
 11 14  1  0  0  0  0
 12 16  1  0  0  0  0
 14 16  1  6  0  0  0
 14  7  1  0  0  0  0
 15 11  1  0  0  0  0
 18 17  1  0  0  0  0
 19  4  1  0  0  0  0
 20 23  1  0  0  0  0
 21 27  1  1  0  0  0
 21 25  1  0  0  0  0
 21 20  1  0  0  0  0
 22 24  1  0  0  0  0
 23 24  1  0  0  0  0
 24 19  1  6  0  0  0
 25 22  1  0  0  0  0
 26 27  1  0  0  0  0
 29 28  1  0  0  0  0
 29 31  1  0  0  0  0
 31 30  1  6  0  0  0
 32 39  1  1  0  0  0
 32 31  1  0  0  0  0
 32 33  1  0  0  0  0
 33 37  1  0  0  0  0
 34 36  2  0  0  0  0
 36 35  1  0  0  0  0
 37 35  2  0  0  0  0
 38 33  2  0  0  0  0
 38 34  1  0  0  0  0
 40 39  1  0  0  0  0
 41 40  2  0  0  0  0
 42 43  1  0  0  0  0
 43 40  1  0  0  0  0
M  END
>  <MODEL>
5

>  <REMARK>
 VINA RESULT:      -6.7      2.957     10.248
  Name = 
  12 active torsions:
  status: ('A' for Active; 'I' for Inactive)
    1  A    between atoms: C_1  and  N_8
    2  A    between atoms: C_1  and  C_35
    3  A    between atoms: C_4  and  C_12
    4  A    between atoms: C_4  and  C_14
    5  A    between atoms: C_6  and  C_17
    6  A    between atoms: C_10  and  C_41
    7  A    between atoms: C_10  and  O_42
    8  A    between atoms: C_11  and  C_14
    9  A    between atoms: C_12  and  C_17
   10  A    between atoms: C_14  and  C_41
   11  A    between atoms: C_19  and  C_37
   12  A    between atoms: C_21  and  C_30
                            x       y       z     vdW  Elec       q    Type
                         _______ _______ _______ _____ _____    ______ ____

>  <TORSDO>
F 12

$$$$
=
 OpenBabel10272414153D

 43 47  0  0  1  0  0  0  0  0999 V2000
  188.4010  178.3090  135.9460 N   0  0  0  0  0  2  0  0  0  0  0  0
  187.9420  177.6000  138.2230 C   0  0  2  0  0  3  0  0  0  0  0  0
  188.2490  177.3410  136.7750 C   0  0  0  0  0  0  0  0  0  0  0  0
  185.2560  176.9880  136.7270 N   0  0  0  0  0  0  0  0  0  0  0  0
  186.5450  178.1750  138.4350 C   0  0  0  0  0  2  0  0  0  0  0  0
  186.9280  175.6920  135.4580 C   0  0  0  0  0  2  0  0  0  0  0  0
  185.6820  175.6230  136.3390 C   0  0  2  0  0  3  0  0  0  0  0  0
  185.4770  177.1220  138.1610 C   0  0  0  0  0  2  0  0  0  0  0  0
  188.1900  175.9340  136.2760 C   0  0  0  0  0  2  0  0  0  0  0  0
  181.9660  173.7120  135.5490 C   0  0  1  0  0  3  0  0  0  0  0  0
  183.9850  173.6250  136.5860 C   0  0  0  0  0  0  0  0  0  0  0  0
  182.5000  174.4860  134.3460 C   0  0  0  0  0  2  0  0  0  0  0  0
  180.7520  172.9120  135.1310 C   0  0  0  0  0  1  0  0  0  0  0  0
  184.6370  174.6900  135.6750 C   0  0  1  0  0  3  0  0  0  0  0  0
  182.9560  172.8370  136.0360 O   0  0  0  0  0  0  0  0  0  0  0  0
  183.6030  175.4270  134.8160 C   0  0  0  0  0  2  0  0  0  0  0  0
  185.0120  172.7480  137.2690 C   0  0  0  0  0  2  0  0  0  0  0  0
  184.0990  173.6350  138.0970 C   0  0  0  0  0  2  0  0  0  0  0  0
  183.8440  177.2860  136.4850 C   0  0  0  0  0  2  0  0  0  0  0  0
  180.9400  176.7480  138.9830 C   0  0  0  0  0  2  0  0  0  0  0  0
  180.7670  178.2050  139.4170 C   0  0  2  0  0  3  0  0  0  0  0  0
  182.8880  178.8170  138.2430 C   0  0  0  0  0  2  0  0  0  0  0  0
  181.6960  176.6760  137.6610 C   0  0  0  0  0  2  0  0  0  0  0  0
  183.0550  177.3670  137.7890 C   0  0  1  0  0  3  0  0  0  0  0  0
  182.1340  178.8670  139.5680 C   0  0  0  0  0  2  0  0  0  0  0  0
  181.0040  178.5050  141.8770 C   0  0  0  0  0  1  0  0  0  0  0  0
  180.0280  178.2730  140.7400 C   0  0  0  0  0  2  0  0  0  0  0  0
  189.0370  178.3890  138.9470 C   0  0  0  0  0  2  0  0  0  0  0  0
  188.7050  178.7270  140.4000 C   0  0  0  0  0  2  0  0  0  0  0  0
  189.6780  176.5050  141.0360 C   0  0  0  0  0  1  0  0  0  0  0  0
  188.5240  177.4760  141.2490 C   0  0  1  0  0  3  0  0  0  0  0  0
  188.3250  177.8520  142.7260 C   0  0  1  0  0  3  0  0  0  0  0  0
  186.8950  178.0370  143.1480 C   0  0  0  0  0  0  0  0  0  0  0  0
  184.5800  178.4180  142.5320 C   0  0  0  0  0  3  0  0  0  0  0  0
  185.1990  178.2830  144.8680 C   0  0  0  0  0  3  0  0  0  0  0  0
  184.2230  178.4500  143.8830 C   0  0  0  0  0  3  0  0  0  0  0  0
  186.5320  178.0780  144.5020 C   0  0  0  0  0  3  0  0  0  0  0  0
  185.9150  178.2140  142.1660 C   0  0  0  0  0  3  0  0  0  0  0  0
  189.2110  177.1170  143.7460 C   0  0  0  0  0  2  0  0  0  0  0  0
  190.2190  177.9920  144.4190 C   0  0  0  0  0  0  0  0  0  0  0  0
  190.8800  178.8590  143.7200 N   0  0  0  0  0  2  0  0  0  0  0  0
  191.1740  176.8080  146.3620 C   0  0  0  0  0  1  0  0  0  0  0  0
  190.4250  177.8720  145.7950 O   0  0  0  0  0  0  0  0  0  0  0  0
  1  3  2  0  0  0  0
  2  5  1  0  0  0  0
  2 28  1  6  0  0  0
  3  2  1  0  0  0  0
  4  8  1  0  0  0  0
  6  9  1  0  0  0  0
  7  6  1  6  0  0  0
  7  4  1  0  0  0  0
  8  5  1  0  0  0  0
  9  3  1  0  0  0  0
 10 13  1  6  0  0  0
 10 15  1  0  0  0  0
 11 17  1  0  0  0  0
 11 18  1  0  0  0  0
 12 16  1  0  0  0  0
 12 10  1  0  0  0  0
 14 16  1  1  0  0  0
 14  7  1  0  0  0  0
 14 11  1  0  0  0  0
 15 11  1  0  0  0  0
 17 18  1  0  0  0  0
 19  4  1  0  0  0  0
 20 21  1  0  0  0  0
 21 25  1  0  0  0  0
 21 27  1  1  0  0  0
 22 25  1  0  0  0  0
 23 24  1  0  0  0  0
 23 20  1  0  0  0  0
 24 19  1  6  0  0  0
 24 22  1  0  0  0  0
 27 26  1  0  0  0  0
 28 29  1  0  0  0  0
 29 31  1  0  0  0  0
 31 30  1  1  0  0  0
 31 32  1  0  0  0  0
 32 33  1  0  0  0  0
 32 39  1  1  0  0  0
 33 37  1  0  0  0  0
 34 36  2  0  0  0  0
 36 35  1  0  0  0  0
 37 35  2  0  0  0  0
 38 34  1  0  0  0  0
 38 33  2  0  0  0  0
 39 40  1  0  0  0  0
 40 43  1  0  0  0  0
 41 40  2  0  0  0  0
 43 42  1  0  0  0  0
M  END
>  <MODEL>
6

>  <REMARK>
 VINA RESULT:      -6.7      2.150      8.496
  Name = 
  12 active torsions:
  status: ('A' for Active; 'I' for Inactive)
    1  A    between atoms: C_1  and  N_8
    2  A    between atoms: C_1  and  C_35
    3  A    between atoms: C_4  and  C_12
    4  A    between atoms: C_4  and  C_14
    5  A    between atoms: C_6  and  C_17
    6  A    between atoms: C_10  and  C_41
    7  A    between atoms: C_10  and  O_42
    8  A    between atoms: C_11  and  C_14
    9  A    between atoms: C_12  and  C_17
   10  A    between atoms: C_14  and  C_41
   11  A    between atoms: C_19  and  C_37
   12  A    between atoms: C_21  and  C_30
                            x       y       z     vdW  Elec       q    Type
                         _______ _______ _______ _____ _____    ______ ____

>  <TORSDO>
F 12

$$$$
=
 OpenBabel10272414153D

 43 47  0  0  1  0  0  0  0  0999 V2000
  180.9790  177.8220  143.8570 N   0  0  0  0  0  2  0  0  0  0  0  0
  183.0410  178.9930  143.3330 C   0  0  2  0  0  3  0  0  0  0  0  0
  181.5440  178.8730  143.3850 C   0  0  0  0  0  0  0  0  0  0  0  0
  182.0150  178.0560  140.5230 N   0  0  0  0  0  0  0  0  0  0  0  0
  183.6720  178.0400  142.3230 C   0  0  0  0  0  2  0  0  0  0  0  0
  180.1440  179.4040  141.3970 C   0  0  0  0  0  2  0  0  0  0  0  0
  181.2110  179.2810  140.3110 C   0  0  2  0  0  3  0  0  0  0  0  0
  183.3600  178.4760  140.8960 C   0  0  0  0  0  2  0  0  0  0  0  0
  180.7230  179.9210  142.7070 C   0  0  0  0  0  2  0  0  0  0  0  0
  180.8290  179.6850  136.0940 C   0  0  1  0  0  3  0  0  0  0  0  0
  181.0500  180.7140  138.1070 C   0  0  0  0  0  0  0  0  0  0  0  0
  179.9950  178.5350  136.6560 C   0  0  0  0  0  2  0  0  0  0  0  0
  180.4910  179.8810  134.6330 C   0  0  0  0  0  1  0  0  0  0  0  0
  180.5560  179.4980  138.9220 C   0  0  1  0  0  3  0  0  0  0  0  0
  180.5510  180.8710  136.8000 O   0  0  0  0  0  0  0  0  0  0  0  0
  180.4730  178.2250  138.0700 C   0  0  0  0  0  2  0  0  0  0  0  0
  180.9240  182.0110  138.8780 C   0  0  0  0  0  2  0  0  0  0  0  0
  182.2940  181.5060  138.4580 C   0  0  0  0  0  2  0  0  0  0  0  0
  182.1500  177.1950  139.3470 C   0  0  0  0  0  2  0  0  0  0  0  0
  185.5690  178.3240  137.9340 C   0  0  0  0  0  2  0  0  0  0  0  0
  185.7220  177.2370  136.8680 C   0  0  2  0  0  3  0  0  0  0  0  0
  183.7710  176.0040  137.8310 C   0  0  0  0  0  2  0  0  0  0  0  0
  184.1100  178.4420  138.3630 C   0  0  0  0  0  2  0  0  0  0  0  0
  183.6010  177.0970  138.8850 C   0  0  1  0  0  3  0  0  0  0  0  0
  185.2360  175.8990  137.4180 C   0  0  0  0  0  2  0  0  0  0  0  0
  188.0860  177.5200  137.5960 C   0  0  0  0  0  1  0  0  0  0  0  0
  187.1750  177.1110  136.4530 C   0  0  0  0  0  2  0  0  0  0  0  0
  183.7060  178.9400  144.7110 C   0  0  0  0  0  2  0  0  0  0  0  0
  184.9510  178.0560  144.7700 C   0  0  0  0  0  2  0  0  0  0  0  0
  185.7610  179.2060  146.8450 C   0  0  0  0  0  1  0  0  0  0  0  0
  186.1230  178.7660  145.4340 C   0  0  1  0  0  3  0  0  0  0  0  0
  187.3820  177.8850  145.3860 C   0  0  1  0  0  3  0  0  0  0  0  0
  187.9150  177.6100  144.0090 C   0  0  0  0  0  0  0  0  0  0  0  0
  189.5590  176.5200  142.5970 C   0  0  0  0  0  3  0  0  0  0  0  0
  187.8870  177.9630  141.6070 C   0  0  0  0  0  3  0  0  0  0  0  0
  188.9890  177.1150  141.4680 C   0  0  0  0  0  3  0  0  0  0  0  0
  187.3520  178.2110  142.8730 C   0  0  0  0  0  3  0  0  0  0  0  0
  189.0240  176.7700  143.8650 C   0  0  0  0  0  3  0  0  0  0  0  0
  188.4560  178.1670  146.4510 C   0  0  0  0  0  2  0  0  0  0  0  0
  188.6250  177.0700  147.4510 C   0  0  0  0  0  0  0  0  0  0  0  0
  187.6950  176.8540  148.3260 N   0  0  0  0  0  2  0  0  0  0  0  0
  191.0000  176.7440  146.8660 C   0  0  0  0  0  1  0  0  0  0  0  0
  189.7780  176.2820  147.4200 O   0  0  0  0  0  0  0  0  0  0  0  0
  2  3  1  0  0  0  0
  2 28  1  1  0  0  0
  3  1  2  0  0  0  0
  4  8  1  0  0  0  0
  5  2  1  0  0  0  0
  6  9  1  0  0  0  0
  7  4  1  0  0  0  0
  7  6  1  1  0  0  0
  8  5  1  0  0  0  0
  9  3  1  0  0  0  0
 10 13  1  6  0  0  0
 10 12  1  0  0  0  0
 10 15  1  0  0  0  0
 11 18  1  0  0  0  0
 11 17  1  0  0  0  0
 11 14  1  0  0  0  0
 12 16  1  0  0  0  0
 14 16  1  6  0  0  0
 14  7  1  0  0  0  0
 15 11  1  0  0  0  0
 18 17  1  0  0  0  0
 19  4  1  0  0  0  0
 20 23  1  0  0  0  0
 21 27  1  1  0  0  0
 21 25  1  0  0  0  0
 21 20  1  0  0  0  0
 22 24  1  0  0  0  0
 23 24  1  0  0  0  0
 24 19  1  6  0  0  0
 25 22  1  0  0  0  0
 27 26  1  0  0  0  0
 28 29  1  0  0  0  0
 29 31  1  0  0  0  0
 31 30  1  1  0  0  0
 32 31  1  0  0  0  0
 32 39  1  1  0  0  0
 33 32  1  0  0  0  0
 34 38  2  0  0  0  0
 35 37  1  0  0  0  0
 36 35  2  0  0  0  0
 36 34  1  0  0  0  0
 37 33  2  0  0  0  0
 38 33  1  0  0  0  0
 39 40  1  0  0  0  0
 40 41  2  0  0  0  0
 42 43  1  0  0  0  0
 43 40  1  0  0  0  0
M  END
>  <MODEL>
7

>  <REMARK>
 VINA RESULT:      -6.5      2.973     10.116
  Name = 
  12 active torsions:
  status: ('A' for Active; 'I' for Inactive)
    1  A    between atoms: C_1  and  N_8
    2  A    between atoms: C_1  and  C_35
    3  A    between atoms: C_4  and  C_12
    4  A    between atoms: C_4  and  C_14
    5  A    between atoms: C_6  and  C_17
    6  A    between atoms: C_10  and  C_41
    7  A    between atoms: C_10  and  O_42
    8  A    between atoms: C_11  and  C_14
    9  A    between atoms: C_12  and  C_17
   10  A    between atoms: C_14  and  C_41
   11  A    between atoms: C_19  and  C_37
   12  A    between atoms: C_21  and  C_30
                            x       y       z     vdW  Elec       q    Type
                         _______ _______ _______ _____ _____    ______ ____

>  <TORSDO>
F 12

$$$$
=
 OpenBabel10272414153D

 43 47  0  0  1  0  0  0  0  0999 V2000
  188.8110  176.1200  139.3280 N   0  0  0  0  0  2  0  0  0  0  0  0
  188.8150  178.5350  139.5830 C   0  0  2  0  0  3  0  0  0  0  0  0
  189.3520  177.1580  139.8550 C   0  0  0  0  0  0  0  0  0  0  0  0
  187.6440  177.5270  142.3110 N   0  0  0  0  0  0  0  0  0  0  0  0
  187.4440  178.7670  140.2110 C   0  0  0  0  0  2  0  0  0  0  0  0
  189.8360  176.4050  142.1780 C   0  0  0  0  0  2  0  0  0  0  0  0
  188.9790  177.4120  142.9410 C   0  0  2  0  0  3  0  0  0  0  0  0
  187.5500  178.8600  141.7290 C   0  0  0  0  0  2  0  0  0  0  0  0
  190.4090  177.0000  140.8990 C   0  0  0  0  0  2  0  0  0  0  0  0
  189.2730  178.0310  147.1390 C   0  0  1  0  0  3  0  0  0  0  0  0
  190.3360  177.5330  145.1950 C   0  0  0  0  0  0  0  0  0  0  0  0
  187.9800  177.3260  146.7340 C   0  0  0  0  0  2  0  0  0  0  0  0
  189.3870  178.0400  148.6470 C   0  0  0  0  0  1  0  0  0  0  0  0
  189.0490  177.0980  144.4590 C   0  0  1  0  0  3  0  0  0  0  0  0
  190.3800  177.3570  146.5910 O   0  0  0  0  0  0  0  0  0  0  0  0
  187.7820  177.4840  145.2320 C   0  0  0  0  0  2  0  0  0  0  0  0
  191.5840  176.9640  144.5530 C   0  0  0  0  0  2  0  0  0  0  0  0
  191.3670  178.4680  144.5950 C   0  0  0  0  0  2  0  0  0  0  0  0
  186.5130  177.3850  143.2290 C   0  0  0  0  0  2  0  0  0  0  0  0
  183.2520  179.4450  143.5200 C   0  0  0  0  0  2  0  0  0  0  0  0
  182.4610  178.7370  142.4190 C   0  0  2  0  0  3  0  0  0  0  0  0
  184.5320  177.5460  141.6810 C   0  0  0  0  0  2  0  0  0  0  0  0
  184.4170  178.5740  143.9780 C   0  0  0  0  0  2  0  0  0  0  0  0
  185.3240  178.2350  142.7920 C   0  0  1  0  0  3  0  0  0  0  0  0
  183.3750  178.4350  141.2350 C   0  0  0  0  0  2  0  0  0  0  0  0
  181.1040  179.4600  140.4600 C   0  0  0  0  0  1  0  0  0  0  0  0
  181.3110  179.6120  141.9550 C   0  0  0  0  0  2  0  0  0  0  0  0
  188.8790  178.9350  138.1060 C   0  0  0  0  0  2  0  0  0  0  0  0
  189.3740  177.8250  137.1800 C   0  0  0  0  0  2  0  0  0  0  0  0
  189.1950  177.3300  134.7290 C   0  0  0  0  0  1  0  0  0  0  0  0
  188.4220  177.5900  136.0150 C   0  0  1  0  0  3  0  0  0  0  0  0
  187.4270  176.4690  136.3510 C   0  0  1  0  0  3  0  0  0  0  0  0
  185.9870  176.8940  136.4160 C   0  0  0  0  0  0  0  0  0  0  0  0
  184.1540  177.8260  137.7020 C   0  0  0  0  0  3  0  0  0  0  0  0
  183.7770  177.0830  135.4300 C   0  0  0  0  0  3  0  0  0  0  0  0
  183.2950  177.6450  136.6150 C   0  0  0  0  0  3  0  0  0  0  0  0
  185.1190  176.7070  135.3310 C   0  0  0  0  0  3  0  0  0  0  0  0
  185.4970  177.4490  137.6040 C   0  0  0  0  0  3  0  0  0  0  0  0
  187.6690  175.1100  135.6710 C   0  0  0  0  0  2  0  0  0  0  0  0
  187.5920  173.9420  136.6010 C   0  0  0  0  0  0  0  0  0  0  0  0
  188.6200  173.1670  136.7390 N   0  0  0  0  0  2  0  0  0  0  0  0
  185.4720  172.7240  136.9330 C   0  0  0  0  0  1  0  0  0  0  0  0
  186.4160  173.7110  137.3180 O   0  0  0  0  0  0  0  0  0  0  0  0
  1  3  2  0  0  0  0
  2 28  1  6  0  0  0
  2  3  1  0  0  0  0
  2  5  1  0  0  0  0
  3  9  1  0  0  0  0
  4  7  1  0  0  0  0
  4 19  1  0  0  0  0
  5  8  1  0  0  0  0
  7  6  1  6  0  0  0
  7 14  1  0  0  0  0
  8  4  1  0  0  0  0
  9  6  1  0  0  0  0
 10 13  1  1  0  0  0
 11 15  1  0  0  0  0
 12 10  1  0  0  0  0
 14 11  1  0  0  0  0
 14 16  1  1  0  0  0
 15 10  1  0  0  0  0
 16 12  1  0  0  0  0
 17 18  1  0  0  0  0
 17 11  1  0  0  0  0
 18 11  1  0  0  0  0
 20 23  1  0  0  0  0
 21 27  1  6  0  0  0
 21 20  1  0  0  0  0
 22 24  1  0  0  0  0
 24 19  1  1  0  0  0
 24 23  1  0  0  0  0
 25 22  1  0  0  0  0
 25 21  1  0  0  0  0
 26 27  1  0  0  0  0
 29 28  1  0  0  0  0
 31 30  1  6  0  0  0
 31 32  1  0  0  0  0
 31 29  1  0  0  0  0
 32 39  1  6  0  0  0
 32 33  1  0  0  0  0
 33 38  1  0  0  0  0
 35 36  2  0  0  0  0
 36 34  1  0  0  0  0
 37 35  1  0  0  0  0
 37 33  2  0  0  0  0
 38 34  2  0  0  0  0
 39 40  1  0  0  0  0
 40 41  2  0  0  0  0
 40 43  1  0  0  0  0
 42 43  1  0  0  0  0
M  END
>  <MODEL>
8

>  <REMARK>
 VINA RESULT:      -6.4      1.668      2.843
  Name = 
  12 active torsions:
  status: ('A' for Active; 'I' for Inactive)
    1  A    between atoms: C_1  and  N_8
    2  A    between atoms: C_1  and  C_35
    3  A    between atoms: C_4  and  C_12
    4  A    between atoms: C_4  and  C_14
    5  A    between atoms: C_6  and  C_17
    6  A    between atoms: C_10  and  C_41
    7  A    between atoms: C_10  and  O_42
    8  A    between atoms: C_11  and  C_14
    9  A    between atoms: C_12  and  C_17
   10  A    between atoms: C_14  and  C_41
   11  A    between atoms: C_19  and  C_37
   12  A    between atoms: C_21  and  C_30
                            x       y       z     vdW  Elec       q    Type
                         _______ _______ _______ _____ _____    ______ ____

>  <TORSDO>
F 12

$$$$
=
 OpenBabel10272414153D

 43 47  0  0  1  0  0  0  0  0999 V2000
  189.8770  176.0090  138.3880 N   0  0  0  0  0  2  0  0  0  0  0  0
  189.3060  178.3120  138.9080 C   0  0  2  0  0  3  0  0  0  0  0  0
  190.2600  177.1540  138.8240 C   0  0  0  0  0  0  0  0  0  0  0  0
  189.4920  176.9640  141.7320 N   0  0  0  0  0  0  0  0  0  0  0  0
  188.2350  178.1160  139.9760 C   0  0  0  0  0  2  0  0  0  0  0  0
  191.7160  176.5480  140.7500 C   0  0  0  0  0  2  0  0  0  0  0  0
  190.9400  177.2440  141.8660 C   0  0  2  0  0  3  0  0  0  0  0  0
  188.8370  178.2160  141.3730 C   0  0  0  0  0  2  0  0  0  0  0  0
  191.6160  177.3040  139.4320 C   0  0  0  0  0  2  0  0  0  0  0  0
  191.3920  176.5180  146.0330 C   0  0  1  0  0  3  0  0  0  0  0  0
  191.4650  178.0180  144.3290 C   0  0  0  0  0  0  0  0  0  0  0  0
  191.8900  175.3590  145.1730 C   0  0  0  0  0  2  0  0  0  0  0  0
  191.7610  176.2660  147.4780 C   0  0  0  0  0  1  0  0  0  0  0  0
  191.6210  176.9440  143.2270 C   0  0  1  0  0  3  0  0  0  0  0  0
  191.9810  177.7230  145.6050 O   0  0  0  0  0  0  0  0  0  0  0  0
  191.3560  175.5300  143.7570 C   0  0  0  0  0  2  0  0  0  0  0  0
  191.9380  179.3820  143.8710 C   0  0  0  0  0  2  0  0  0  0  0  0
  190.4800  179.1670  144.2430 C   0  0  0  0  0  2  0  0  0  0  0  0
  188.8410  176.4780  142.9490 C   0  0  0  0  0  2  0  0  0  0  0  0
  186.5200  178.2740  145.4700 C   0  0  0  0  0  2  0  0  0  0  0  0
  185.2310  178.2060  144.6490 C   0  0  2  0  0  3  0  0  0  0  0  0
  186.5280  177.4320  142.6560 C   0  0  0  0  0  2  0  0  0  0  0  0
  187.5260  177.2460  144.9610 C   0  0  0  0  0  2  0  0  0  0  0  0
  187.8160  177.4780  143.4760 C   0  0  1  0  0  3  0  0  0  0  0  0
  185.5380  178.4690  143.1770 C   0  0  0  0  0  2  0  0  0  0  0  0
  182.8190  178.7890  144.8560 C   0  0  0  0  0  1  0  0  0  0  0  0
  184.2380  179.2390  145.1470 C   0  0  0  0  0  2  0  0  0  0  0  0
  188.7350  178.7320  137.5500 C   0  0  0  0  0  2  0  0  0  0  0  0
  189.0010  177.7330  136.4250 C   0  0  0  0  0  2  0  0  0  0  0  0
  186.8040  178.0670  135.2650 C   0  0  0  0  0  1  0  0  0  0  0  0
  187.7210  177.0610  135.9460 C   0  0  1  0  0  3  0  0  0  0  0  0
  188.0490  175.8530  135.0560 C   0  0  1  0  0  3  0  0  0  0  0  0
  189.4970  175.4520  135.0340 C   0  0  0  0  0  0  0  0  0  0  0  0
  191.7740  175.9300  134.3470 C   0  0  0  0  0  3  0  0  0  0  0  0
  191.2760  173.8750  135.5260 C   0  0  0  0  0  3  0  0  0  0  0  0
  192.2000  174.7220  134.9070 C   0  0  0  0  0  3  0  0  0  0  0  0
  189.9280  174.2380  135.5880 C   0  0  0  0  0  3  0  0  0  0  0  0
  190.4250  176.2920  134.4080 C   0  0  0  0  0  3  0  0  0  0  0  0
  187.0540  174.6800  135.0990 C   0  0  0  0  0  2  0  0  0  0  0  0
  186.4440  174.4490  136.4430 C   0  0  0  0  0  0  0  0  0  0  0  0
  186.9150  173.5150  137.2070 N   0  0  0  0  0  2  0  0  0  0  0  0
  184.0900  175.1700  136.2830 C   0  0  0  0  0  1  0  0  0  0  0  0
  185.3820  175.2520  136.8640 O   0  0  0  0  0  0  0  0  0  0  0  0
  1  3  2  0  0  0  0
  2 28  1  6  0  0  0
  2  5  1  0  0  0  0
  3  2  1  0  0  0  0
  3  9  1  0  0  0  0
  4  7  1  0  0  0  0
  4 19  1  0  0  0  0
  5  8  1  0  0  0  0
  7  6  1  6  0  0  0
  7 14  1  0  0  0  0
  8  4  1  0  0  0  0
  9  6  1  0  0  0  0
 10 13  1  1  0  0  0
 11 15  1  0  0  0  0
 12 10  1  0  0  0  0
 14 16  1  1  0  0  0
 14 11  1  0  0  0  0
 15 10  1  0  0  0  0
 16 12  1  0  0  0  0
 17 18  1  0  0  0  0
 17 11  1  0  0  0  0
 18 11  1  0  0  0  0
 21 27  1  1  0  0  0
 21 20  1  0  0  0  0
 22 25  1  0  0  0  0
 22 24  1  0  0  0  0
 23 20  1  0  0  0  0
 24 19  1  6  0  0  0
 24 23  1  0  0  0  0
 25 21  1  0  0  0  0
 26 27  1  0  0  0  0
 29 28  1  0  0  0  0
 31 30  1  6  0  0  0
 31 29  1  0  0  0  0
 32 39  1  1  0  0  0
 32 31  1  0  0  0  0
 33 32  1  0  0  0  0
 33 37  1  0  0  0  0
 34 38  1  0  0  0  0
 34 36  2  0  0  0  0
 35 37  2  0  0  0  0
 36 35  1  0  0  0  0
 38 33  2  0  0  0  0
 39 40  1  0  0  0  0
 40 43  1  0  0  0  0
 40 41  2  0  0  0  0
 42 43  1  0  0  0  0
M  END
>  <MODEL>
9

>  <REMARK>
 VINA RESULT:      -6.3      1.648      3.543
  Name = 
  12 active torsions:
  status: ('A' for Active; 'I' for Inactive)
    1  A    between atoms: C_1  and  N_8
    2  A    between atoms: C_1  and  C_35
    3  A    between atoms: C_4  and  C_12
    4  A    between atoms: C_4  and  C_14
    5  A    between atoms: C_6  and  C_17
    6  A    between atoms: C_10  and  C_41
    7  A    between atoms: C_10  and  O_42
    8  A    between atoms: C_11  and  C_14
    9  A    between atoms: C_12  and  C_17
   10  A    between atoms: C_14  and  C_41
   11  A    between atoms: C_19  and  C_37
   12  A    between atoms: C_21  and  C_30
                            x       y       z     vdW  Elec       q    Type
                         _______ _______ _______ _____ _____    ______ ____

>  <TORSDO>
F 12

$$$$
