=
 OpenBabel10272400443D

 25 27  0  0  1  0  0  0  0  0999 V2000
  188.6670  177.0810  145.5280 C   0  0  2  0  0  3  0  0  0  0  0  0
  187.6150  178.0780  145.4890 N   0  0  1  0  0  0  0  0  0  0  0  0
  187.9290  177.9050  149.0460 O   0  0  0  0  0  1  0  0  0  0  0  0
  188.2420  178.3470  147.7620 C   0  0  1  0  0  3  0  0  0  0  0  0
  185.9370  179.0590  146.8640 C   0  0  0  0  0  0  0  0  0  0  0  0
  185.6850  179.7620  147.8780 O   0  0  0  0  0  0  0  0  0  0  0  0
  186.6000  177.6940  144.6290 O   0  0  0  0  0  0  0  0  0  0  0  0
  189.6030  177.3380  147.0820 S   0  0  0  0  0  0  0  0  0  0  0  0
  185.0700  179.0880  145.7200 N   0  0  0  0  0  0  0  0  0  0  0  0
  185.3830  178.3940  144.6620 C   0  0  0  0  0  0  0  0  0  0  0  0
  187.0810  178.0910  146.8350 C   0  0  1  0  0  3  0  0  0  0  0  0
  189.5570  177.1820  144.3230 C   0  0  0  0  0  0  0  0  0  0  0  0
  191.3040  177.4450  142.1440 C   0  0  0  0  0  3  0  0  0  0  0  0
  189.3820  176.3810  143.1720 C   0  0  0  0  0  0  0  0  0  0  0  0
  190.2590  176.5190  142.0910 C   0  0  0  0  0  3  0  0  0  0  0  0
  191.4760  178.2400  143.2790 C   0  0  0  0  0  3  0  0  0  0  0  0
  188.3290  175.4270  143.0900 N   0  0  0  0  0  1  0  0  0  0  0  0
  190.6050  178.1070  144.3640 C   0  0  0  0  0  3  0  0  0  0  0  0
  184.4700  178.3600  143.4790 C   0  0  0  0  0  2  0  0  0  0  0  0
  185.1410  178.8590  142.1950 C   0  0  1  0  0  3  0  0  0  0  0  0
  186.6080  178.4700  142.1580 C   0  0  0  0  0  1  0  0  0  0  0  0
  184.4400  178.3750  140.9290 C   0  0  0  0  0  2  0  0  0  0  0  0
  185.9680  178.5910  138.9690 O   0  0  0  0  0  0  0  0  0  0  0  0
  184.3860  180.1960  139.3890 O   0  0  0  0  0  1  0  0  0  0  0  0
  184.9280  179.1130  139.7280 C   0  0  0  0  0  0  0  0  0  0  0  0
  1 12  1  6  0  0  0
  1  8  1  0  0  0  0
  2  7  1  6  0  0  0
  2  1  1  0  0  0  0
  2 11  1  0  0  0  0
  4  3  1  1  0  0  0
  5  6  2  0  0  0  0
  7 10  1  0  0  0  0
  8  4  1  0  0  0  0
  9  5  1  0  0  0  0
 10  9  2  0  0  0  0
 11  5  1  6  0  0  0
 11  4  1  0  0  0  0
 12 18  1  0  0  0  0
 13 16  1  0  0  0  0
 14 12  2  0  0  0  0
 15 13  2  0  0  0  0
 15 14  1  0  0  0  0
 16 18  2  0  0  0  0
 17 14  1  0  0  0  0
 19 10  1  0  0  0  0
 20 21  1  6  0  0  0
 20 19  1  0  0  0  0
 22 20  1  0  0  0  0
 23 25  2  0  0  0  0
 24 25  1  0  0  0  0
 25 22  1  0  0  0  0
M  END
>  <MODEL>
1

>  <REMARK>
 VINA RESULT:      -8.6      0.000      0.000
  Name = 
  5 active torsions:
  status: ('A' for Active; 'I' for Inactive)
    1  A    between atoms: C_1  and  C_5
    2  A    between atoms: C_2  and  C_15
    3  A    between atoms: C_2  and  C_21
    4  A    between atoms: C_6  and  C_15
    5  A    between atoms: C_6  and  C_23
                            x       y       z     vdW  Elec       q    Type
                         _______ _______ _______ _____ _____    ______ ____

>  <TORSDO>
F 5

$$$$
=
 OpenBabel10272400443D

 25 27  0  0  1  0  0  0  0  0999 V2000
  186.2510  177.7230  143.2390 C   0  0  2  0  0  3  0  0  0  0  0  0
  187.5670  178.0090  142.7020 N   0  0  1  0  0  0  0  0  0  0  0  0
  185.7110  178.7020  139.7250 O   0  0  0  0  0  1  0  0  0  0  0  0
  186.2790  178.9880  140.9660 C   0  0  1  0  0  3  0  0  0  0  0  0
  188.7160  178.2290  140.6280 C   0  0  0  0  0  0  0  0  0  0  0  0
  188.8400  178.8810  139.5570 O   0  0  0  0  0  0  0  0  0  0  0  0
  188.4620  177.0030  143.0210 O   0  0  0  0  0  0  0  0  0  0  0  0
  185.0430  178.7140  142.2810 S   0  0  0  0  0  0  0  0  0  0  0  0
  189.8510  177.5910  141.2320 N   0  0  0  0  0  0  0  0  0  0  0  0
  189.7050  176.9700  142.3680 C   0  0  0  0  0  0  0  0  0  0  0  0
  187.3790  178.0020  141.2660 C   0  0  1  0  0  3  0  0  0  0  0  0
  186.1830  178.0350  144.7060 C   0  0  0  0  0  0  0  0  0  0  0  0
  186.1900  178.6100  147.4520 C   0  0  0  0  0  3  0  0  0  0  0  0
  185.0090  178.5050  145.3360 C   0  0  0  0  0  0  0  0  0  0  0  0
  185.0230  178.7900  146.7060 C   0  0  0  0  0  3  0  0  0  0  0  0
  187.3500  178.1420  146.8320 C   0  0  0  0  0  3  0  0  0  0  0  0
  183.8050  178.7000  144.6020 N   0  0  0  0  0  1  0  0  0  0  0  0
  187.3450  177.8570  145.4640 C   0  0  0  0  0  3  0  0  0  0  0  0
  190.8570  176.2470  142.9910 C   0  0  0  0  0  2  0  0  0  0  0  0
  191.4870  177.0230  144.1540 C   0  0  1  0  0  3  0  0  0  0  0  0
  191.5280  178.5110  143.8600 C   0  0  0  0  0  1  0  0  0  0  0  0
  190.7860  176.7720  145.4860 C   0  0  0  0  0  2  0  0  0  0  0  0
  191.9120  176.9920  147.7010 O   0  0  0  0  0  1  0  0  0  0  0  0
  192.3960  175.2240  146.3240 O   0  0  0  0  0  0  0  0  0  0  0  0
  191.7480  176.2860  146.5160 C   0  0  0  0  0  0  0  0  0  0  0  0
  1 12  1  1  0  0  0
  2  7  1  6  0  0  0
  2  1  1  0  0  0  0
  4  3  1  6  0  0  0
  4 11  1  0  0  0  0
  4  8  1  0  0  0  0
  5  9  1  0  0  0  0
  6  5  2  0  0  0  0
  8  1  1  0  0  0  0
  9 10  2  0  0  0  0
 10 19  1  0  0  0  0
 10  7  1  0  0  0  0
 11  5  1  6  0  0  0
 11  2  1  0  0  0  0
 12 14  2  0  0  0  0
 12 18  1  0  0  0  0
 14 15  1  0  0  0  0
 15 13  2  0  0  0  0
 16 13  1  0  0  0  0
 17 14  1  0  0  0  0
 18 16  2  0  0  0  0
 19 20  1  0  0  0  0
 20 21  1  6  0  0  0
 20 22  1  0  0  0  0
 22 25  1  0  0  0  0
 24 25  2  0  0  0  0
 25 23  1  0  0  0  0
M  END
>  <MODEL>
2

>  <REMARK>
 VINA RESULT:      -8.2      2.601      6.941
  Name = 
  5 active torsions:
  status: ('A' for Active; 'I' for Inactive)
    1  A    between atoms: C_1  and  C_5
    2  A    between atoms: C_2  and  C_15
    3  A    between atoms: C_2  and  C_21
    4  A    between atoms: C_6  and  C_15
    5  A    between atoms: C_6  and  C_23
                            x       y       z     vdW  Elec       q    Type
                         _______ _______ _______ _____ _____    ______ ____

>  <TORSDO>
F 5

$$$$
=
 OpenBabel10272400443D

 25 27  0  0  1  0  0  0  0  0999 V2000
  188.3560  178.4020  142.2700 C   0  0  2  0  0  3  0  0  0  0  0  0
  187.0700  177.9350  142.7500 N   0  0  1  0  0  0  0  0  0  0  0  0
  185.9520  179.1100  139.5640 O   0  0  0  0  0  1  0  0  0  0  0  0
  186.4950  178.1930  140.4620 C   0  0  1  0  0  3  0  0  0  0  0  0
  184.7370  178.1800  142.3430 C   0  0  0  0  0  0  0  0  0  0  0  0
  183.7830  177.9970  141.5410 O   0  0  0  0  0  0  0  0  0  0  0  0
  186.8310  178.3830  144.0380 O   0  0  0  0  0  0  0  0  0  0  0  0
  188.3160  178.3190  140.4390 S   0  0  0  0  0  0  0  0  0  0  0  0
  184.5220  178.1210  143.7610 N   0  0  0  0  0  0  0  0  0  0  0  0
  185.5350  178.2600  144.5690 C   0  0  0  0  0  0  0  0  0  0  0  0
  186.1060  178.5640  141.8710 C   0  0  1  0  0  3  0  0  0  0  0  0
  189.4780  177.5820  142.8360 C   0  0  0  0  0  0  0  0  0  0  0  0
  191.5300  175.9450  143.8270 C   0  0  0  0  0  3  0  0  0  0  0  0
  190.5730  178.1530  143.5240 C   0  0  0  0  0  0  0  0  0  0  0  0
  191.5920  177.3280  144.0130 C   0  0  0  0  0  3  0  0  0  0  0  0
  190.4480  175.3790  143.1510 C   0  0  0  0  0  3  0  0  0  0  0  0
  190.6650  179.5590  143.7270 N   0  0  0  0  0  1  0  0  0  0  0  0
  189.4270  176.1960  142.6570 C   0  0  0  0  0  3  0  0  0  0  0  0
  185.3320  178.2610  146.0490 C   0  0  0  0  0  2  0  0  0  0  0  0
  186.5700  178.7310  146.8200 C   0  0  1  0  0  3  0  0  0  0  0  0
  186.2500  179.9360  147.6870 C   0  0  0  0  0  1  0  0  0  0  0  0
  187.1990  177.6290  147.6690 C   0  0  0  0  0  2  0  0  0  0  0  0
  189.6240  177.8730  148.1960 O   0  0  0  0  0  1  0  0  0  0  0  0
  188.9560  176.8630  146.2490 O   0  0  0  0  0  0  0  0  0  0  0  0
  188.6360  177.4370  147.3220 C   0  0  0  0  0  0  0  0  0  0  0  0
  1  2  1  0  0  0  0
  1 12  1  1  0  0  0
  2  7  1  1  0  0  0
  4  3  1  6  0  0  0
  4 11  1  0  0  0  0
  5  9  1  0  0  0  0
  6  5  2  0  0  0  0
  7 10  1  0  0  0  0
  8  4  1  0  0  0  0
  8  1  1  0  0  0  0
  9 10  2  0  0  0  0
 10 19  1  0  0  0  0
 11  5  1  1  0  0  0
 11  2  1  0  0  0  0
 12 14  1  0  0  0  0
 13 15  1  0  0  0  0
 14 17  1  0  0  0  0
 14 15  2  0  0  0  0
 16 13  2  0  0  0  0
 18 12  2  0  0  0  0
 18 16  1  0  0  0  0
 19 20  1  0  0  0  0
 20 22  1  0  0  0  0
 20 21  1  1  0  0  0
 24 25  2  0  0  0  0
 25 22  1  0  0  0  0
 25 23  1  0  0  0  0
M  END
>  <MODEL>
3

>  <REMARK>
 VINA RESULT:      -7.9      2.209      5.470
  Name = 
  5 active torsions:
  status: ('A' for Active; 'I' for Inactive)
    1  A    between atoms: C_1  and  C_5
    2  A    between atoms: C_2  and  C_15
    3  A    between atoms: C_2  and  C_21
    4  A    between atoms: C_6  and  C_15
    5  A    between atoms: C_6  and  C_23
                            x       y       z     vdW  Elec       q    Type
                         _______ _______ _______ _____ _____    ______ ____

>  <TORSDO>
F 5

$$$$
=
 OpenBabel10272400443D

 25 27  0  0  1  0  0  0  0  0999 V2000
  187.8700  176.8930  143.7970 C   0  0  2  0  0  3  0  0  0  0  0  0
  187.8640  177.8230  142.6850 N   0  0  1  0  0  0  0  0  0  0  0  0
  184.3960  178.0950  143.5090 O   0  0  0  0  0  1  0  0  0  0  0  0
  185.7540  178.3950  143.6070 C   0  0  1  0  0  3  0  0  0  0  0  0
  186.3740  178.8750  141.1540 C   0  0  0  0  0  0  0  0  0  0  0  0
  185.4180  179.6810  141.0010 O   0  0  0  0  0  0  0  0  0  0  0  0
  188.5160  177.2870  141.5870 O   0  0  0  0  0  0  0  0  0  0  0  0
  186.5110  177.3820  144.9240 S   0  0  0  0  0  0  0  0  0  0  0  0
  187.3730  178.7220  140.1350 N   0  0  0  0  0  0  0  0  0  0  0  0
  188.3810  177.9230  140.3420 C   0  0  0  0  0  0  0  0  0  0  0  0
  186.4640  177.9710  142.3460 C   0  0  1  0  0  3  0  0  0  0  0  0
  189.1970  176.8940  144.4980 C   0  0  0  0  0  0  0  0  0  0  0  0
  191.6180  176.9480  145.9170 C   0  0  0  0  0  3  0  0  0  0  0  0
  190.3270  176.2050  144.0030 C   0  0  0  0  0  0  0  0  0  0  0  0
  191.5290  176.2370  144.7180 C   0  0  0  0  0  3  0  0  0  0  0  0
  190.5040  177.6330  146.4060 C   0  0  0  0  0  3  0  0  0  0  0  0
  190.2670  175.4690  142.7850 N   0  0  0  0  0  1  0  0  0  0  0  0
  189.2990  177.6040  145.6990 C   0  0  0  0  0  3  0  0  0  0  0  0
  189.4040  177.7000  139.2750 C   0  0  0  0  0  2  0  0  0  0  0  0
  188.7840  177.5080  137.8860 C   0  0  1  0  0  3  0  0  0  0  0  0
  189.0710  178.6990  136.9900 C   0  0  0  0  0  1  0  0  0  0  0  0
  189.2370  176.2200  137.2040 C   0  0  0  0  0  2  0  0  0  0  0  0
  191.7000  176.6130  137.1820 O   0  0  0  0  0  0  0  0  0  0  0  0
  190.8140  174.8660  138.3730 O   0  0  0  0  0  1  0  0  0  0  0  0
  190.6220  175.8520  137.6160 C   0  0  0  0  0  0  0  0  0  0  0  0
  1 12  1  1  0  0  0
  1  8  1  0  0  0  0
  2  7  1  6  0  0  0
  2  1  1  0  0  0  0
  4  3  1  6  0  0  0
  4  8  1  0  0  0  0
  6  5  2  0  0  0  0
  9 10  2  0  0  0  0
  9  5  1  0  0  0  0
 10  7  1  0  0  0  0
 11  5  1  6  0  0  0
 11  2  1  0  0  0  0
 11  4  1  0  0  0  0
 12 18  1  0  0  0  0
 13 16  1  0  0  0  0
 14 12  2  0  0  0  0
 14 15  1  0  0  0  0
 15 13  2  0  0  0  0
 17 14  1  0  0  0  0
 18 16  2  0  0  0  0
 19 10  1  0  0  0  0
 20 21  1  6  0  0  0
 20 19  1  0  0  0  0
 22 25  1  0  0  0  0
 22 20  1  0  0  0  0
 23 25  2  0  0  0  0
 25 24  1  0  0  0  0
M  END
>  <MODEL>
4

>  <REMARK>
 VINA RESULT:      -7.8      3.321      4.993
  Name = 
  5 active torsions:
  status: ('A' for Active; 'I' for Inactive)
    1  A    between atoms: C_1  and  C_5
    2  A    between atoms: C_2  and  C_15
    3  A    between atoms: C_2  and  C_21
    4  A    between atoms: C_6  and  C_15
    5  A    between atoms: C_6  and  C_23
                            x       y       z     vdW  Elec       q    Type
                         _______ _______ _______ _____ _____    ______ ____

>  <TORSDO>
F 5

$$$$
=
 OpenBabel10272400443D

 25 27  0  0  1  0  0  0  0  0999 V2000
  189.1710  177.9280  145.9380 C   0  0  2  0  0  3  0  0  0  0  0  0
  189.6130  177.1250  144.8140 N   0  0  1  0  0  0  0  0  0  0  0  0
  192.2010  176.1710  147.0880 O   0  0  0  0  0  1  0  0  0  0  0  0
  190.9420  176.1050  146.4950 C   0  0  1  0  0  3  0  0  0  0  0  0
  191.5340  175.9840  143.9920 C   0  0  0  0  0  0  0  0  0  0  0  0
  192.3530  175.0430  144.1630 O   0  0  0  0  0  0  0  0  0  0  0  0
  189.6330  177.8720  143.6490 O   0  0  0  0  0  0  0  0  0  0  0  0
  189.7570  177.1000  147.4640 S   0  0  0  0  0  0  0  0  0  0  0  0
  191.1730  176.4090  142.6690 N   0  0  0  0  0  0  0  0  0  0  0  0
  190.2830  177.3490  142.5190 C   0  0  0  0  0  0  0  0  0  0  0  0
  190.9780  176.7690  145.1410 C   0  0  1  0  0  3  0  0  0  0  0  0
  187.6780  178.0910  145.9350 C   0  0  0  0  0  0  0  0  0  0  0  0
  184.8860  178.3370  145.8100 C   0  0  0  0  0  3  0  0  0  0  0  0
  186.9440  178.4500  147.0880 C   0  0  0  0  0  0  0  0  0  0  0  0
  185.5520  178.5690  147.0160 C   0  0  0  0  0  3  0  0  0  0  0  0
  185.6100  177.9850  144.6690 C   0  0  0  0  0  3  0  0  0  0  0  0
  187.5950  178.6900  148.3310 N   0  0  0  0  0  1  0  0  0  0  0  0
  187.0000  177.8620  144.7330 C   0  0  0  0  0  3  0  0  0  0  0  0
  189.9310  177.8500  141.1560 C   0  0  0  0  0  2  0  0  0  0  0  0
  188.4780  177.5520  140.7680 C   0  0  1  0  0  3  0  0  0  0  0  0
  187.5530  178.6690  141.2150 C   0  0  0  0  0  1  0  0  0  0  0  0
  188.3010  177.2930  139.2750 C   0  0  0  0  0  2  0  0  0  0  0  0
  190.3620  177.5220  137.8890 O   0  0  0  0  0  0  0  0  0  0  0  0
  189.0310  179.3430  138.2990 O   0  0  0  0  0  1  0  0  0  0  0  0
  189.2490  178.1160  138.4700 C   0  0  0  0  0  0  0  0  0  0  0  0
  1 12  1  1  0  0  0
  1  8  1  0  0  0  0
  2  7  1  6  0  0  0
  2 11  1  0  0  0  0
  2  1  1  0  0  0  0
  4  3  1  1  0  0  0
  4  8  1  0  0  0  0
  5  6  2  0  0  0  0
  9  5  1  0  0  0  0
 10  9  2  0  0  0  0
 10  7  1  0  0  0  0
 11  5  1  6  0  0  0
 11  4  1  0  0  0  0
 12 14  1  0  0  0  0
 13 15  1  0  0  0  0
 14 17  1  0  0  0  0
 15 14  2  0  0  0  0
 16 18  1  0  0  0  0
 16 13  2  0  0  0  0
 18 12  2  0  0  0  0
 19 10  1  0  0  0  0
 20 19  1  0  0  0  0
 20 21  1  6  0  0  0
 22 20  1  0  0  0  0
 23 25  2  0  0  0  0
 24 25  1  0  0  0  0
 25 22  1  0  0  0  0
M  END
>  <MODEL>
5

>  <REMARK>
 VINA RESULT:      -7.6      2.786      5.110
  Name = 
  5 active torsions:
  status: ('A' for Active; 'I' for Inactive)
    1  A    between atoms: C_1  and  C_5
    2  A    between atoms: C_2  and  C_15
    3  A    between atoms: C_2  and  C_21
    4  A    between atoms: C_6  and  C_15
    5  A    between atoms: C_6  and  C_23
                            x       y       z     vdW  Elec       q    Type
                         _______ _______ _______ _____ _____    ______ ____

>  <TORSDO>
F 5

$$$$
=
 OpenBabel10272400443D

 25 27  0  0  1  0  0  0  0  0999 V2000
  189.0710  178.1830  141.4440 C   0  0  2  0  0  3  0  0  0  0  0  0
  187.9380  177.8390  140.6060 N   0  0  1  0  0  0  0  0  0  0  0  0
  190.4880  177.2510  138.1690 O   0  0  0  0  0  1  0  0  0  0  0  0
  189.6510  176.9310  139.2380 C   0  0  1  0  0  3  0  0  0  0  0  0
  187.3360  177.5780  138.3180 C   0  0  0  0  0  0  0  0  0  0  0  0
  187.5040  176.9280  137.2520 O   0  0  0  0  0  0  0  0  0  0  0  0
  186.9460  178.8000  140.6950 O   0  0  0  0  0  0  0  0  0  0  0  0
  190.5180  177.2550  140.8110 S   0  0  0  0  0  0  0  0  0  0  0  0
  186.0600  178.1590  138.6270 N   0  0  0  0  0  0  0  0  0  0  0  0
  185.8970  178.7790  139.7610 C   0  0  0  0  0  0  0  0  0  0  0  0
  188.4670  177.8630  139.2580 C   0  0  1  0  0  3  0  0  0  0  0  0
  188.7970  177.8650  142.8850 C   0  0  0  0  0  0  0  0  0  0  0  0
  188.1910  177.1850  145.5390 C   0  0  0  0  0  3  0  0  0  0  0  0
  189.6470  178.2760  143.9360 C   0  0  0  0  0  0  0  0  0  0  0  0
  189.3370  177.9310  145.2560 C   0  0  0  0  0  3  0  0  0  0  0  0
  187.3470  176.7800  144.5030 C   0  0  0  0  0  3  0  0  0  0  0  0
  190.8240  179.0350  143.6780 N   0  0  0  0  0  1  0  0  0  0  0  0
  187.6510  177.1190  143.1810 C   0  0  0  0  0  3  0  0  0  0  0  0
  184.5970  179.4430  140.0840 C   0  0  0  0  0  2  0  0  0  0  0  0
  183.6820  178.5710  140.9510 C   0  0  1  0  0  3  0  0  0  0  0  0
  183.1420  177.3920  140.1610 C   0  0  0  0  0  1  0  0  0  0  0  0
  184.3620  178.0790  142.2260 C   0  0  0  0  0  2  0  0  0  0  0  0
  182.8990  178.7120  144.1440 O   0  0  0  0  0  1  0  0  0  0  0  0
  184.7960  179.9140  143.6860 O   0  0  0  0  0  0  0  0  0  0  0  0
  184.0340  178.9600  143.3830 C   0  0  0  0  0  0  0  0  0  0  0  0
  1 12  1  1  0  0  0
  2  7  1  6  0  0  0
  2  1  1  0  0  0  0
  4  3  1  6  0  0  0
  4 11  1  0  0  0  0
  4  8  1  0  0  0  0
  5  9  1  0  0  0  0
  6  5  2  0  0  0  0
  8  1  1  0  0  0  0
  9 10  2  0  0  0  0
 10 19  1  0  0  0  0
 10  7  1  0  0  0  0
 11  5  1  6  0  0  0
 11  2  1  0  0  0  0
 12 18  2  0  0  0  0
 12 14  1  0  0  0  0
 14 15  2  0  0  0  0
 15 13  1  0  0  0  0
 16 13  2  0  0  0  0
 17 14  1  0  0  0  0
 18 16  1  0  0  0  0
 19 20  1  0  0  0  0
 20 21  1  6  0  0  0
 20 22  1  0  0  0  0
 22 25  1  0  0  0  0
 25 24  2  0  0  0  0
 25 23  1  0  0  0  0
M  END
>  <MODEL>
6

>  <REMARK>
 VINA RESULT:      -7.6      3.083      5.782
  Name = 
  5 active torsions:
  status: ('A' for Active; 'I' for Inactive)
    1  A    between atoms: C_1  and  C_5
    2  A    between atoms: C_2  and  C_15
    3  A    between atoms: C_2  and  C_21
    4  A    between atoms: C_6  and  C_15
    5  A    between atoms: C_6  and  C_23
                            x       y       z     vdW  Elec       q    Type
                         _______ _______ _______ _____ _____    ______ ____

>  <TORSDO>
F 5

$$$$
=
 OpenBabel10272400443D

 25 27  0  0  1  0  0  0  0  0999 V2000
  189.9440  178.0890  143.5010 C   0  0  2  0  0  3  0  0  0  0  0  0
  188.9340  177.7830  142.5070 N   0  0  1  0  0  0  0  0  0  0  0  0
  191.7870  177.2350  140.4230 O   0  0  0  0  0  1  0  0  0  0  0  0
  190.8100  176.8940  141.3570 C   0  0  1  0  0  3  0  0  0  0  0  0
  188.6470  177.5980  140.1500 C   0  0  0  0  0  0  0  0  0  0  0  0
  188.9540  176.9770  139.0980 O   0  0  0  0  0  0  0  0  0  0  0  0
  187.9470  178.7550  142.4890 O   0  0  0  0  0  0  0  0  0  0  0  0
  191.4560  177.1610  143.0440 S   0  0  0  0  0  0  0  0  0  0  0  0
  187.3460  178.1860  140.3000 N   0  0  0  0  0  0  0  0  0  0  0  0
  187.0350  178.7750  141.4200 C   0  0  0  0  0  0  0  0  0  0  0  0
  189.6410  177.8410  141.2450 C   0  0  1  0  0  3  0  0  0  0  0  0
  189.4720  177.7320  144.8810 C   0  0  0  0  0  0  0  0  0  0  0  0
  188.4660  177.0630  147.4140 C   0  0  0  0  0  3  0  0  0  0  0  0
  190.3530  177.3470  145.9170 C   0  0  0  0  0  0  0  0  0  0  0  0
  189.8420  177.0140  147.1750 C   0  0  0  0  0  3  0  0  0  0  0  0
  187.5950  177.4470  146.3930 C   0  0  0  0  0  3  0  0  0  0  0  0
  191.7600  177.2850  145.7030 N   0  0  0  0  0  1  0  0  0  0  0  0
  188.0970  177.7790  145.1320 C   0  0  0  0  0  3  0  0  0  0  0  0
  185.7100  179.4460  141.5820 C   0  0  0  0  0  2  0  0  0  0  0  0
  184.8470  178.8030  142.6740 C   0  0  1  0  0  3  0  0  0  0  0  0
  185.4100  177.4580  143.0950 C   0  0  0  0  0  1  0  0  0  0  0  0
  184.6660  179.6990  143.8960 C   0  0  0  0  0  2  0  0  0  0  0  0
  184.1380  178.8920  146.1970 O   0  0  0  0  0  1  0  0  0  0  0  0
  182.5710  178.7520  144.5300 O   0  0  0  0  0  0  0  0  0  0  0  0
  183.7330  179.0820  144.8820 C   0  0  0  0  0  0  0  0  0  0  0  0
  1 12  1  1  0  0  0
  2  7  1  6  0  0  0
  2  1  1  0  0  0  0
  4  3  1  6  0  0  0
  4  8  1  0  0  0  0
  5  9  1  0  0  0  0
  6  5  2  0  0  0  0
  8  1  1  0  0  0  0
  9 10  2  0  0  0  0
 10 19  1  0  0  0  0
 10  7  1  0  0  0  0
 11  5  1  6  0  0  0
 11  4  1  0  0  0  0
 11  2  1  0  0  0  0
 12 18  2  0  0  0  0
 12 14  1  0  0  0  0
 14 15  2  0  0  0  0
 15 13  1  0  0  0  0
 16 13  2  0  0  0  0
 17 14  1  0  0  0  0
 18 16  1  0  0  0  0
 19 20  1  0  0  0  0
 20 21  1  1  0  0  0
 20 22  1  0  0  0  0
 22 25  1  0  0  0  0
 24 25  2  0  0  0  0
 25 23  1  0  0  0  0
M  END
>  <MODEL>
7

>  <REMARK>
 VINA RESULT:      -7.6      2.635      5.229
  Name = 
  5 active torsions:
  status: ('A' for Active; 'I' for Inactive)
    1  A    between atoms: C_1  and  C_5
    2  A    between atoms: C_2  and  C_15
    3  A    between atoms: C_2  and  C_21
    4  A    between atoms: C_6  and  C_15
    5  A    between atoms: C_6  and  C_23
                            x       y       z     vdW  Elec       q    Type
                         _______ _______ _______ _____ _____    ______ ____

>  <TORSDO>
F 5

$$$$
=
 OpenBabel10272400443D

 25 27  0  0  1  0  0  0  0  0999 V2000
  186.3350  177.6630  144.8590 C   0  0  2  0  0  3  0  0  0  0  0  0
  186.9660  178.1370  143.6420 N   0  0  1  0  0  0  0  0  0  0  0  0
  183.6170  179.0550  142.7920 O   0  0  0  0  0  1  0  0  0  0  0  0
  184.8720  179.2220  143.3750 C   0  0  1  0  0  3  0  0  0  0  0  0
  186.4480  178.7380  141.3970 C   0  0  0  0  0  0  0  0  0  0  0  0
  185.8430  179.5370  140.6340 O   0  0  0  0  0  0  0  0  0  0  0  0
  187.8240  177.1820  143.1250 O   0  0  0  0  0  0  0  0  0  0  0  0
  184.8200  178.6620  145.1120 S   0  0  0  0  0  0  0  0  0  0  0  0
  187.6830  178.1290  140.9890 N   0  0  0  0  0  0  0  0  0  0  0  0
  188.3160  177.3490  141.8190 C   0  0  0  0  0  0  0  0  0  0  0  0
  185.8700  178.3070  142.7110 C   0  0  1  0  0  3  0  0  0  0  0  0
  187.2680  177.7670  146.0300 C   0  0  0  0  0  0  0  0  0  0  0  0
  189.1130  177.9290  148.1390 C   0  0  0  0  0  3  0  0  0  0  0  0
  186.8860  178.3350  147.2670 C   0  0  0  0  0  0  0  0  0  0  0  0
  187.8130  178.4130  148.3110 C   0  0  0  0  0  3  0  0  0  0  0  0
  189.4910  177.3650  146.9190 C   0  0  0  0  0  3  0  0  0  0  0  0
  185.5700  178.8380  147.4720 N   0  0  0  0  0  1  0  0  0  0  0  0
  188.5720  177.2860  145.8700 C   0  0  0  0  0  3  0  0  0  0  0  0
  189.5730  176.6570  141.4010 C   0  0  0  0  0  2  0  0  0  0  0  0
  190.7590  177.6160  141.2490 C   0  0  1  0  0  3  0  0  0  0  0  0
  191.5920  177.6590  142.5170 C   0  0  0  0  0  1  0  0  0  0  0  0
  191.6450  177.2830  140.0520 C   0  0  0  0  0  2  0  0  0  0  0  0
  190.8560  175.4390  138.5710 O   0  0  0  0  0  1  0  0  0  0  0  0
  190.1130  177.5840  138.2500 O   0  0  0  0  0  0  0  0  0  0  0  0
  190.8340  176.7870  138.9040 C   0  0  0  0  0  0  0  0  0  0  0  0
  1  8  1  0  0  0  0
  1 12  1  1  0  0  0
  2  7  1  6  0  0  0
  2  1  1  0  0  0  0
  4  3  1  6  0  0  0
  4  8  1  0  0  0  0
  6  5  2  0  0  0  0
  9  5  1  0  0  0  0
  9 10  2  0  0  0  0
 10  7  1  0  0  0  0
 11  5  1  6  0  0  0
 11  4  1  0  0  0  0
 11  2  1  0  0  0  0
 12 14  1  0  0  0  0
 13 15  1  0  0  0  0
 14 17  1  0  0  0  0
 14 15  2  0  0  0  0
 16 13  2  0  0  0  0
 18 12  2  0  0  0  0
 18 16  1  0  0  0  0
 19 10  1  0  0  0  0
 20 19  1  0  0  0  0
 20 21  1  1  0  0  0
 22 20  1  0  0  0  0
 23 25  1  0  0  0  0
 24 25  2  0  0  0  0
 25 22  1  0  0  0  0
M  END
>  <MODEL>
8

>  <REMARK>
 VINA RESULT:      -7.5      2.474      5.414
  Name = 
  5 active torsions:
  status: ('A' for Active; 'I' for Inactive)
    1  A    between atoms: C_1  and  C_5
    2  A    between atoms: C_2  and  C_15
    3  A    between atoms: C_2  and  C_21
    4  A    between atoms: C_6  and  C_15
    5  A    between atoms: C_6  and  C_23
                            x       y       z     vdW  Elec       q    Type
                         _______ _______ _______ _____ _____    ______ ____

>  <TORSDO>
F 5

$$$$
=
 OpenBabel10272400443D

 25 27  0  0  1  0  0  0  0  0999 V2000
  190.0080  178.0500  143.8150 C   0  0  2  0  0  3  0  0  0  0  0  0
  189.0820  177.7600  142.7380 N   0  0  1  0  0  0  0  0  0  0  0  0
  192.0960  177.2840  140.8750 O   0  0  0  0  0  1  0  0  0  0  0  0
  191.0520  176.9140  141.7200 C   0  0  1  0  0  3  0  0  0  0  0  0
  188.9850  177.6280  140.3620 C   0  0  0  0  0  0  0  0  0  0  0  0
  189.3790  177.0340  139.3240 O   0  0  0  0  0  0  0  0  0  0  0  0
  188.0910  178.7230  142.6640 O   0  0  0  0  0  0  0  0  0  0  0  0
  191.5610  177.1460  143.4580 S   0  0  0  0  0  0  0  0  0  0  0  0
  187.6700  178.2010  140.4220 N   0  0  0  0  0  0  0  0  0  0  0  0
  187.2660  178.7620  141.5270 C   0  0  0  0  0  0  0  0  0  0  0  0
  189.8870  177.8530  141.5370 C   0  0  1  0  0  3  0  0  0  0  0  0
  189.4330  177.6580  145.1460 C   0  0  0  0  0  0  0  0  0  0  0  0
  188.2370  176.9180  147.5740 C   0  0  0  0  0  3  0  0  0  0  0  0
  190.2340  177.2860  146.2480 C   0  0  0  0  0  0  0  0  0  0  0  0
  189.6290  176.9180  147.4540 C   0  0  0  0  0  3  0  0  0  0  0  0
  187.4430  177.2880  146.4870 C   0  0  0  0  0  3  0  0  0  0  0  0
  191.6550  177.2730  146.1560 N   0  0  0  0  0  1  0  0  0  0  0  0
  188.0400  177.6560  145.2780 C   0  0  0  0  0  3  0  0  0  0  0  0
  185.9250  179.4180  141.5990 C   0  0  0  0  0  2  0  0  0  0  0  0
  184.7790  178.4130  141.7610 C   0  0  1  0  0  3  0  0  0  0  0  0
  184.2470  178.4140  143.1830 C   0  0  0  0  0  1  0  0  0  0  0  0
  183.6370  178.6470  140.7760 C   0  0  0  0  0  2  0  0  0  0  0  0
  184.6950  178.1430  138.5740 O   0  0  0  0  0  0  0  0  0  0  0  0
  184.0840  180.2880  139.1040 O   0  0  0  0  0  1  0  0  0  0  0  0
  184.1550  179.0790  139.4460 C   0  0  0  0  0  0  0  0  0  0  0  0
  1 12  1  1  0  0  0
  2  7  1  6  0  0  0
  2  1  1  0  0  0  0
  4  3  1  6  0  0  0
  4  8  1  0  0  0  0
  5  9  1  0  0  0  0
  6  5  2  0  0  0  0
  8  1  1  0  0  0  0
  9 10  2  0  0  0  0
 10 19  1  0  0  0  0
 10  7  1  0  0  0  0
 11  5  1  6  0  0  0
 11  4  1  0  0  0  0
 11  2  1  0  0  0  0
 12 18  2  0  0  0  0
 12 14  1  0  0  0  0
 14 15  2  0  0  0  0
 15 13  1  0  0  0  0
 16 13  2  0  0  0  0
 17 14  1  0  0  0  0
 18 16  1  0  0  0  0
 19 20  1  0  0  0  0
 20 21  1  1  0  0  0
 22 20  1  0  0  0  0
 23 25  2  0  0  0  0
 24 25  1  0  0  0  0
 25 22  1  0  0  0  0
M  END
>  <MODEL>
9

>  <REMARK>
 VINA RESULT:      -7.5      2.603      4.735
  Name = 
  5 active torsions:
  status: ('A' for Active; 'I' for Inactive)
    1  A    between atoms: C_1  and  C_5
    2  A    between atoms: C_2  and  C_15
    3  A    between atoms: C_2  and  C_21
    4  A    between atoms: C_6  and  C_15
    5  A    between atoms: C_6  and  C_23
                            x       y       z     vdW  Elec       q    Type
                         _______ _______ _______ _____ _____    ______ ____

>  <TORSDO>
F 5

$$$$
