=
 OpenBabel10272401453D

 28 32  0  0  1  0  0  0  0  0999 V2000
  185.5230  177.1590  136.5690 N   0  0  0  0  0  0  0  0  0  0  0  0
  186.9540  177.1460  136.8620 C   0  0  1  0  0  3  0  0  0  0  0  0
  187.3600  178.2290  137.8830 C   0  0  1  0  0  3  0  0  0  0  0  0
  181.6800  175.2150  138.6370 O   0  0  0  0  0  0  0  0  0  0  0  0
  187.5760  178.4820  140.4350 C   0  0  2  0  0  3  0  0  0  0  0  0
  185.3610  178.8210  139.3280 C   0  0  1  0  0  3  0  0  0  0  0  0
  189.5760  177.8820  139.0620 C   0  0  0  0  0  0  0  0  0  0  0  0
  186.6870  178.0470  139.2570 C   0  0  1  0  0  3  0  0  0  0  0  0
  185.8380  179.0920  141.7490 C   0  0  0  0  0  2  0  0  0  0  0  0
  188.9100  177.7460  140.3990 C   0  0  0  0  0  2  0  0  0  0  0  0
  183.2310  176.5350  137.1180 C   0  0  0  0  0  0  0  0  0  0  0  0
  184.3150  178.4400  138.2730 C   0  0  0  0  0  2  0  0  0  0  0  0
  186.9250  178.2030  141.6500 O   0  0  0  0  0  0  0  0  0  0  0  0
  183.8520  177.1830  134.8160 C   0  0  0  0  0  3  0  0  0  0  0  0
  182.4340  175.8580  137.8970 C   0  0  0  0  0  0  0  0  0  0  0  0
  182.7300  177.0470  135.8050 C   0  0  0  0  0  2  0  0  0  0  0  0
  190.7270  177.5030  138.9280 O   0  0  0  0  0  0  0  0  0  0  0  0
  188.8690  178.5170  137.8980 C   0  0  0  0  0  2  0  0  0  0  0  0
  184.7630  178.7210  140.7270 C   0  0  0  0  0  2  0  0  0  0  0  0
  185.1320  177.2500  135.1890 C   0  0  0  0  0  3  0  0  0  0  0  0
  184.5280  177.0610  137.6490 C   0  0  2  0  0  3  0  0  0  0  0  0
  187.4800  175.7100  137.0560 C   0  0  1  0  0  3  0  0  0  0  0  0
  188.0950  173.6570  135.9140 C   0  0  1  0  0  3  0  0  0  0  0  0
  186.3400  174.7240  137.2450 C   0  0  0  0  0  2  0  0  0  0  0  0
  189.8020  175.5560  136.0710 C   0  0  0  0  0  1  0  0  0  0  0  0
  188.3380  175.1640  135.9280 C   0  0  2  0  0  3  0  0  0  0  0  0
  189.0240  172.8900  136.8490 C   0  0  0  0  0  1  0  0  0  0  0  0
  186.6740  173.4910  136.4160 C   0  0  0  0  0  2  0  0  0  0  0  0
  1 21  1  0  0  0  0
  2  1  1  1  0  0  0
  2 22  1  0  0  0  0
  2  3  1  0  0  0  0
  3 18  1  1  0  0  0
  3  8  1  0  0  0  0
  5 10  1  1  0  0  0
  5 13  1  0  0  0  0
  6 12  1  6  0  0  0
  6 19  1  0  0  0  0
  7 10  1  0  0  0  0
  8  6  1  0  0  0  0
  8  5  1  0  0  0  0
 11 21  1  0  0  0  0
 11 15  2  0  0  0  0
 13  9  1  0  0  0  0
 14 20  2  0  0  0  0
 14 16  1  0  0  0  0
 15  4  2  0  0  0  0
 16 11  1  0  0  0  0
 17  7  2  0  0  0  0
 18  7  1  0  0  0  0
 19  9  1  0  0  0  0
 20  1  1  0  0  0  0
 21 12  1  0  0  0  0
 22 24  1  0  0  0  0
 23 26  1  0  0  0  0
 23 28  1  0  0  0  0
 23 27  1  0  0  0  0
 26 25  1  0  0  0  0
 26 22  1  0  0  0  0
 28 24  1  0  0  0  0
M  END
>  <MODEL>
1

>  <REMARK>
 VINA RESULT:      -5.9      0.000      0.000
  Name = 
  1 active torsions:
  status: ('A' for Active; 'I' for Inactive)
    1  A    between atoms: C_2  and  C_3
                            x       y       z     vdW  Elec       q    Type
                         _______ _______ _______ _____ _____    ______ ____

>  <TORSDO>
F 1

$$$$
=
 OpenBabel10272401453D

 28 32  0  0  1  0  0  0  0  0999 V2000
  185.9040  176.6280  136.2930 N   0  0  0  0  0  0  0  0  0  0  0  0
  187.2960  176.2170  136.1350 C   0  0  1  0  0  3  0  0  0  0  0  0
  188.2780  177.1550  136.8670 C   0  0  1  0  0  3  0  0  0  0  0  0
  182.5630  175.8710  139.6240 O   0  0  0  0  0  0  0  0  0  0  0  0
  189.3620  177.3720  139.1900 C   0  0  2  0  0  3  0  0  0  0  0  0
  187.0790  178.3050  138.7830 C   0  0  1  0  0  3  0  0  0  0  0  0
  190.5830  176.2160  137.3420 C   0  0  0  0  0  0  0  0  0  0  0  0
  188.0600  177.1890  138.3910 C   0  0  1  0  0  3  0  0  0  0  0  0
  188.3630  178.4640  140.9020 C   0  0  0  0  0  2  0  0  0  0  0  0
  190.3710  176.2900  138.8250 C   0  0  0  0  0  2  0  0  0  0  0  0
  183.8310  176.6810  137.5760 C   0  0  0  0  0  0  0  0  0  0  0  0
  185.6890  178.2190  138.1430 C   0  0  0  0  0  2  0  0  0  0  0  0
  189.0870  177.3040  140.5680 O   0  0  0  0  0  0  0  0  0  0  0  0
  183.8250  177.0970  135.1400 C   0  0  0  0  0  3  0  0  0  0  0  0
  183.1800  176.2650  138.6260 C   0  0  0  0  0  0  0  0  0  0  0  0
  183.0880  177.2950  136.4330 C   0  0  0  0  0  2  0  0  0  0  0  0
  191.4880  175.5260  136.9030 O   0  0  0  0  0  0  0  0  0  0  0  0
  189.7320  177.0070  136.3900 C   0  0  0  0  0  2  0  0  0  0  0  0
  186.9590  178.3960  140.3010 C   0  0  0  0  0  2  0  0  0  0  0  0
  185.1280  176.8060  135.0960 C   0  0  0  0  0  3  0  0  0  0  0  0
  185.3200  176.8280  137.6290 C   0  0  2  0  0  3  0  0  0  0  0  0
  187.4610  174.6930  136.3060 C   0  0  1  0  0  3  0  0  0  0  0  0
  186.8720  172.5240  135.3860 C   0  0  1  0  0  3  0  0  0  0  0  0
  186.3610  174.1120  137.1760 C   0  0  0  0  0  2  0  0  0  0  0  0
  188.8490  173.8060  134.3890 C   0  0  0  0  0  1  0  0  0  0  0  0
  187.4660  173.8830  135.0220 C   0  0  2  0  0  3  0  0  0  0  0  0
  187.9120  171.5300  135.8920 C   0  0  0  0  0  1  0  0  0  0  0  0
  185.9060  172.8170  136.5160 C   0  0  0  0  0  2  0  0  0  0  0  0
  1 21  1  0  0  0  0
  2  1  1  1  0  0  0
  2 22  1  0  0  0  0
  2  3  1  0  0  0  0
  3 18  1  1  0  0  0
  3  8  1  0  0  0  0
  5 10  1  6  0  0  0
  5 13  1  0  0  0  0
  6 12  1  6  0  0  0
  6 19  1  0  0  0  0
  7 10  1  0  0  0  0
  8  6  1  0  0  0  0
  8  5  1  0  0  0  0
 11 21  1  0  0  0  0
 11 15  2  0  0  0  0
 13  9  1  0  0  0  0
 14 16  1  0  0  0  0
 15  4  2  0  0  0  0
 16 11  1  0  0  0  0
 17  7  2  0  0  0  0
 18  7  1  0  0  0  0
 19  9  1  0  0  0  0
 20 14  2  0  0  0  0
 20  1  1  0  0  0  0
 21 12  1  0  0  0  0
 22 24  1  0  0  0  0
 23 27  1  0  0  0  0
 23 28  1  0  0  0  0
 25 26  1  0  0  0  0
 26 23  1  0  0  0  0
 26 22  1  0  0  0  0
 28 24  1  0  0  0  0
M  END
>  <MODEL>
2

>  <REMARK>
 VINA RESULT:      -5.7      1.331      1.815
  Name = 
  1 active torsions:
  status: ('A' for Active; 'I' for Inactive)
    1  A    between atoms: C_2  and  C_3
                            x       y       z     vdW  Elec       q    Type
                         _______ _______ _______ _____ _____    ______ ____

>  <TORSDO>
F 1

$$$$
=
 OpenBabel10272401453D

 28 32  0  0  1  0  0  0  0  0999 V2000
  184.7720  176.6120  136.1440 N   0  0  0  0  0  0  0  0  0  0  0  0
  185.8130  175.7930  135.5280 C   0  0  1  0  0  3  0  0  0  0  0  0
  187.2210  176.4030  135.6920 C   0  0  1  0  0  3  0  0  0  0  0  0
  182.9960  176.9730  140.5650 O   0  0  0  0  0  0  0  0  0  0  0  0
  189.1670  176.3240  137.3750 C   0  0  2  0  0  3  0  0  0  0  0  0
  187.2610  177.9000  137.7390 C   0  0  1  0  0  3  0  0  0  0  0  0
  189.1720  174.8160  135.3830 C   0  0  0  0  0  0  0  0  0  0  0  0
  187.6560  176.5310  137.1640 C   0  0  1  0  0  3  0  0  0  0  0  0
  189.2820  177.7030  139.1670 C   0  0  0  0  0  2  0  0  0  0  0  0
  189.6070  174.9800  136.8100 C   0  0  0  0  0  2  0  0  0  0  0  0
  183.4950  177.3180  138.0970 C   0  0  0  0  0  0  0  0  0  0  0  0
  185.7630  178.2290  137.6940 C   0  0  0  0  0  2  0  0  0  0  0  0
  189.4660  176.3710  138.7490 O   0  0  0  0  0  0  0  0  0  0  0  0
  182.6170  177.6680  135.8140 C   0  0  0  0  0  3  0  0  0  0  0  0
  183.2380  177.1420  139.3630 C   0  0  0  0  0  0  0  0  0  0  0  0
  182.5500  178.1070  137.2490 C   0  0  0  0  0  2  0  0  0  0  0  0
  189.5980  173.8750  134.7350 O   0  0  0  0  0  0  0  0  0  0  0  0
  188.2580  175.8100  134.7260 C   0  0  0  0  0  2  0  0  0  0  0  0
  187.7940  178.0540  139.1600 C   0  0  0  0  0  2  0  0  0  0  0  0
  183.6580  176.9940  135.3200 C   0  0  0  0  0  3  0  0  0  0  0  0
  184.8570  177.0060  137.5590 C   0  0  2  0  0  3  0  0  0  0  0  0
  185.6140  174.2950  135.8360 C   0  0  1  0  0  3  0  0  0  0  0  0
  184.0880  172.6550  136.7750 C   0  0  1  0  0  3  0  0  0  0  0  0
  186.1210  173.9430  137.2240 C   0  0  0  0  0  2  0  0  0  0  0  0
  183.7800  173.3990  134.3460 C   0  0  0  0  0  1  0  0  0  0  0  0
  184.1830  173.7930  135.7600 C   0  0  2  0  0  3  0  0  0  0  0  0
  184.4830  171.3010  136.1960 C   0  0  0  0  0  1  0  0  0  0  0  0
  185.0880  173.0190  137.8550 C   0  0  0  0  0  2  0  0  0  0  0  0
  1 21  1  0  0  0  0
  2  3  1  0  0  0  0
  2 22  1  0  0  0  0
  2  1  1  1  0  0  0
  3 18  1  6  0  0  0
  3  8  1  0  0  0  0
  5 10  1  1  0  0  0
  5 13  1  0  0  0  0
  6 12  1  1  0  0  0
  6 19  1  0  0  0  0
  7 10  1  0  0  0  0
  8  5  1  0  0  0  0
  8  6  1  0  0  0  0
 11 15  2  0  0  0  0
 13  9  1  0  0  0  0
 14 16  1  0  0  0  0
 15  4  2  0  0  0  0
 16 11  1  0  0  0  0
 17  7  2  0  0  0  0
 18  7  1  0  0  0  0
 19  9  1  0  0  0  0
 20 14  2  0  0  0  0
 20  1  1  0  0  0  0
 21 12  1  0  0  0  0
 21 11  1  0  0  0  0
 22 24  1  0  0  0  0
 23 28  1  0  0  0  0
 24 28  1  0  0  0  0
 25 26  1  0  0  0  0
 26 22  1  0  0  0  0
 26 23  1  0  0  0  0
 27 23  1  0  0  0  0
M  END
>  <MODEL>
3

>  <REMARK>
 VINA RESULT:      -5.4      2.016      3.445
  Name = 
  1 active torsions:
  status: ('A' for Active; 'I' for Inactive)
    1  A    between atoms: C_2  and  C_3
                            x       y       z     vdW  Elec       q    Type
                         _______ _______ _______ _____ _____    ______ ____

>  <TORSDO>
F 1

$$$$
=
 OpenBabel10272401453D

 28 32  0  0  1  0  0  0  0  0999 V2000
  183.1700  175.4890  135.9140 N   0  0  0  0  0  0  0  0  0  0  0  0
  184.6070  175.7290  135.8110 C   0  0  1  0  0  3  0  0  0  0  0  0
  184.9910  177.1830  136.1580 C   0  0  1  0  0  3  0  0  0  0  0  0
  180.2280  174.3430  139.5010 O   0  0  0  0  0  0  0  0  0  0  0  0
  185.6430  178.5570  138.2340 C   0  0  2  0  0  3  0  0  0  0  0  0
  183.2320  178.1810  137.6890 C   0  0  1  0  0  3  0  0  0  0  0  0
  187.4170  177.5840  136.7690 C   0  0  0  0  0  0  0  0  0  0  0  0
  184.6410  177.5710  137.6070 C   0  0  1  0  0  3  0  0  0  0  0  0
  184.1060  179.5360  139.5770 C   0  0  0  0  0  2  0  0  0  0  0  0
  187.0580  177.9980  138.1660 C   0  0  0  0  0  2  0  0  0  0  0  0
  181.1840  174.9800  137.2330 C   0  0  0  0  0  0  0  0  0  0  0  0
  182.0940  177.2840  137.1870 C   0  0  0  0  0  2  0  0  0  0  0  0
  185.3000  178.7920  139.5780 O   0  0  0  0  0  0  0  0  0  0  0  0
  181.2180  174.5920  134.7940 C   0  0  0  0  0  3  0  0  0  0  0  0
  180.6930  174.6530  138.3960 C   0  0  0  0  0  0  0  0  0  0  0  0
  180.3530  174.8130  136.0010 C   0  0  0  0  0  2  0  0  0  0  0  0
  188.5720  177.2850  136.5150 O   0  0  0  0  0  0  0  0  0  0  0  0
  186.3940  177.5750  135.6690 C   0  0  0  0  0  2  0  0  0  0  0  0
  182.9430  178.6600  139.1070 C   0  0  0  0  0  2  0  0  0  0  0  0
  182.5110  174.9260  134.7670 C   0  0  0  0  0  3  0  0  0  0  0  0
  182.4370  175.7960  137.1530 C   0  0  2  0  0  3  0  0  0  0  0  0
  185.4200  174.5780  136.4380 C   0  0  1  0  0  3  0  0  0  0  0  0
  186.0800  172.2550  136.1810 C   0  0  1  0  0  3  0  0  0  0  0  0
  184.5710  173.7550  137.3900 C   0  0  0  0  0  2  0  0  0  0  0  0
  187.3900  174.0680  134.9390 C   0  0  0  0  0  1  0  0  0  0  0  0
  186.0370  173.5980  135.4560 C   0  0  2  0  0  3  0  0  0  0  0  0
  187.3460  172.0600  137.0080 C   0  0  0  0  0  1  0  0  0  0  0  0
  184.8960  172.2910  137.1270 C   0  0  0  0  0  2  0  0  0  0  0  0
  1 21  1  0  0  0  0
  2  1  1  1  0  0  0
  2  3  1  0  0  0  0
  2 22  1  0  0  0  0
  3 18  1  1  0  0  0
  3  8  1  0  0  0  0
  5 10  1  1  0  0  0
  5 13  1  0  0  0  0
  6 12  1  1  0  0  0
  6 19  1  0  0  0  0
  7 10  1  0  0  0  0
  8  6  1  0  0  0  0
  8  5  1  0  0  0  0
  9 13  1  0  0  0  0
 11 15  2  0  0  0  0
 14 16  1  0  0  0  0
 15  4  2  0  0  0  0
 16 11  1  0  0  0  0
 17  7  2  0  0  0  0
 18  7  1  0  0  0  0
 19  9  1  0  0  0  0
 20 14  2  0  0  0  0
 20  1  1  0  0  0  0
 21 12  1  0  0  0  0
 21 11  1  0  0  0  0
 22 24  1  0  0  0  0
 23 27  1  0  0  0  0
 23 28  1  0  0  0  0
 25 26  1  0  0  0  0
 26 23  1  0  0  0  0
 26 22  1  0  0  0  0
 28 24  1  0  0  0  0
M  END
>  <MODEL>
4

>  <REMARK>
 VINA RESULT:      -5.0      1.913      2.803
  Name = 
  1 active torsions:
  status: ('A' for Active; 'I' for Inactive)
    1  A    between atoms: C_2  and  C_3
                            x       y       z     vdW  Elec       q    Type
                         _______ _______ _______ _____ _____    ______ ____

>  <TORSDO>
F 1

$$$$
=
 OpenBabel10272401453D

 28 32  0  0  1  0  0  0  0  0999 V2000
  182.9200  177.7880  137.5220 N   0  0  0  0  0  0  0  0  0  0  0  0
  182.8130  176.5880  136.6970 C   0  0  1  0  0  3  0  0  0  0  0  0
  184.1140  176.2790  135.9280 C   0  0  1  0  0  3  0  0  0  0  0  0
  184.5400  178.6680  141.9310 O   0  0  0  0  0  0  0  0  0  0  0  0
  186.2930  174.9590  136.2880 C   0  0  2  0  0  3  0  0  0  0  0  0
  186.0850  177.2920  137.1610 C   0  0  1  0  0  3  0  0  0  0  0  0
  184.3770  173.9060  135.0790 C   0  0  0  0  0  0  0  0  0  0  0  0
  185.3120  175.9990  136.8550 C   0  0  1  0  0  3  0  0  0  0  0  0
  188.1050  175.8550  137.3070 C   0  0  0  0  0  2  0  0  0  0  0  0
  185.5660  173.6610  135.9600 C   0  0  0  0  0  2  0  0  0  0  0  0
  183.5980  178.9030  139.5820 C   0  0  0  0  0  0  0  0  0  0  0  0
  185.2710  178.4100  137.8220 C   0  0  0  0  0  2  0  0  0  0  0  0
  187.3060  174.6980  137.2290 O   0  0  0  0  0  0  0  0  0  0  0  0
  181.8880  179.9010  138.1040 C   0  0  0  0  0  3  0  0  0  0  0  0
  184.0810  178.7830  140.7870 C   0  0  0  0  0  0  0  0  0  0  0  0
  182.9000  180.1640  139.1810 C   0  0  0  0  0  2  0  0  0  0  0  0
  183.7970  172.9550  134.5830 O   0  0  0  0  0  0  0  0  0  0  0  0
  183.9140  175.2990  134.7610 C   0  0  0  0  0  2  0  0  0  0  0  0
  187.3290  176.9830  137.9880 C   0  0  0  0  0  2  0  0  0  0  0  0
  181.9240  178.8080  137.3380 C   0  0  0  0  0  3  0  0  0  0  0  0
  183.9960  177.9300  138.5160 C   0  0  2  0  0  3  0  0  0  0  0  0
  182.1070  175.4420  137.4510 C   0  0  1  0  0  3  0  0  0  0  0  0
  179.9830  174.6750  138.3450 C   0  0  1  0  0  3  0  0  0  0  0  0
  182.1370  175.6680  138.9520 C   0  0  0  0  0  2  0  0  0  0  0  0
  180.5040  174.2960  135.8690 C   0  0  0  0  0  1  0  0  0  0  0  0
  180.6540  175.2060  137.0800 C   0  0  2  0  0  3  0  0  0  0  0  0
  180.0830  173.1600  138.4860 C   0  0  0  0  0  1  0  0  0  0  0  0
  180.7550  175.3100  139.4850 C   0  0  0  0  0  2  0  0  0  0  0  0
  1 21  1  0  0  0  0
  2 22  1  0  0  0  0
  2  1  1  1  0  0  0
  3 18  1  1  0  0  0
  3  2  1  0  0  0  0
  3  8  1  0  0  0  0
  5 10  1  1  0  0  0
  5  8  1  0  0  0  0
  5 13  1  0  0  0  0
  6 12  1  1  0  0  0
  6 19  1  0  0  0  0
  7 10  1  0  0  0  0
  8  6  1  0  0  0  0
  9 19  1  0  0  0  0
 11 15  2  0  0  0  0
 12 21  1  0  0  0  0
 13  9  1  0  0  0  0
 14 16  1  0  0  0  0
 15  4  2  0  0  0  0
 16 11  1  0  0  0  0
 17  7  2  0  0  0  0
 18  7  1  0  0  0  0
 20  1  1  0  0  0  0
 20 14  2  0  0  0  0
 21 11  1  0  0  0  0
 22 24  1  0  0  0  0
 23 27  1  0  0  0  0
 23 28  1  0  0  0  0
 24 28  1  0  0  0  0
 25 26  1  0  0  0  0
 26 22  1  0  0  0  0
 26 23  1  0  0  0  0
M  END
>  <MODEL>
5

>  <REMARK>
 VINA RESULT:      -4.7      2.318      5.811
  Name = 
  1 active torsions:
  status: ('A' for Active; 'I' for Inactive)
    1  A    between atoms: C_2  and  C_3
                            x       y       z     vdW  Elec       q    Type
                         _______ _______ _______ _____ _____    ______ ____

>  <TORSDO>
F 1

$$$$
=
 OpenBabel10272401453D

 28 32  0  0  1  0  0  0  0  0999 V2000
  186.6250  177.6710  137.0660 N   0  0  0  0  0  0  0  0  0  0  0  0
  185.1940  177.4070  136.9370 C   0  0  1  0  0  3  0  0  0  0  0  0
  184.8990  176.0870  136.1950 C   0  0  1  0  0  3  0  0  0  0  0  0
  189.9920  176.3420  140.1840 O   0  0  0  0  0  0  0  0  0  0  0  0
  184.5710  173.5970  136.7550 C   0  0  2  0  0  3  0  0  0  0  0  0
  186.8750  174.5170  136.4450 C   0  0  1  0  0  3  0  0  0  0  0  0
  182.5890  175.1020  136.5360 C   0  0  0  0  0  0  0  0  0  0  0  0
  185.4520  174.8480  136.9230 C   0  0  1  0  0  3  0  0  0  0  0  0
  186.3010  172.1450  136.9020 C   0  0  0  0  0  2  0  0  0  0  0  0
  183.1450  173.8820  137.2090 C   0  0  0  0  0  2  0  0  0  0  0  0
  188.7560  177.3470  138.2040 C   0  0  0  0  0  0  0  0  0  0  0  0
  187.9110  175.6320  136.6280 C   0  0  0  0  0  2  0  0  0  0  0  0
  185.0980  172.5390  137.5180 O   0  0  0  0  0  0  0  0  0  0  0  0
  188.3820  179.3080  136.7480 C   0  0  0  0  0  3  0  0  0  0  0  0
  189.3910  176.8320  139.2200 C   0  0  0  0  0  0  0  0  0  0  0  0
  189.4080  178.4130  137.3820 C   0  0  0  0  0  2  0  0  0  0  0  0
  181.4040  175.3600  136.6550 O   0  0  0  0  0  0  0  0  0  0  0  0
  183.4540  175.9860  135.6830 C   0  0  0  0  0  2  0  0  0  0  0  0
  187.3660  173.2260  137.0920 C   0  0  0  0  0  2  0  0  0  0  0  0
  187.1070  178.9410  136.5960 C   0  0  0  0  0  3  0  0  0  0  0  0
  187.5260  176.6790  137.6730 C   0  0  2  0  0  3  0  0  0  0  0  0
  184.4420  177.7020  138.2510 C   0  0  1  0  0  3  0  0  0  0  0  0
  183.4720  179.4550  139.6240 C   0  0  1  0  0  3  0  0  0  0  0  0
  185.4070  177.9750  139.3910 C   0  0  0  0  0  2  0  0  0  0  0  0
  182.1060  178.4860  137.6900 C   0  0  0  0  0  1  0  0  0  0  0  0
  183.4820  178.8780  138.2100 C   0  0  2  0  0  3  0  0  0  0  0  0
  182.4500  178.7880  140.5370 C   0  0  0  0  0  1  0  0  0  0  0  0
  184.8570  179.1630  140.1680 C   0  0  0  0  0  2  0  0  0  0  0  0
  1 21  1  0  0  0  0
  2  1  1  1  0  0  0
  2 22  1  0  0  0  0
  3 18  1  1  0  0  0
  3  8  1  0  0  0  0
  3  2  1  0  0  0  0
  5  8  1  0  0  0  0
  5 10  1  1  0  0  0
  5 13  1  0  0  0  0
  6 12  1  1  0  0  0
  6  8  1  0  0  0  0
  6 19  1  0  0  0  0
  7 17  2  0  0  0  0
  7 10  1  0  0  0  0
  9 19  1  0  0  0  0
  9 13  1  0  0  0  0
 11 15  2  0  0  0  0
 12 21  1  0  0  0  0
 14 16  1  0  0  0  0
 15  4  2  0  0  0  0
 16 11  1  0  0  0  0
 18  7  1  0  0  0  0
 20 14  2  0  0  0  0
 20  1  1  0  0  0  0
 21 11  1  0  0  0  0
 22 24  1  0  0  0  0
 23 28  1  0  0  0  0
 23 27  1  0  0  0  0
 24 28  1  0  0  0  0
 25 26  1  0  0  0  0
 26 22  1  0  0  0  0
 26 23  1  0  0  0  0
M  END
>  <MODEL>
6

>  <REMARK>
 VINA RESULT:      -4.7      1.662      6.473
  Name = 
  1 active torsions:
  status: ('A' for Active; 'I' for Inactive)
    1  A    between atoms: C_2  and  C_3
                            x       y       z     vdW  Elec       q    Type
                         _______ _______ _______ _____ _____    ______ ____

>  <TORSDO>
F 1

$$$$
=
 OpenBabel10272401453D

 28 32  0  0  1  0  0  0  0  0999 V2000
  190.6130  175.3920  135.3890 N   0  0  0  0  0  0  0  0  0  0  0  0
  189.3480  175.9040  135.9120 C   0  0  1  0  0  3  0  0  0  0  0  0
  188.1250  175.1580  135.3400 C   0  0  1  0  0  3  0  0  0  0  0  0
  193.5090  171.7920  136.6070 O   0  0  0  0  0  0  0  0  0  0  0  0
  186.6910  173.0980  135.9060 C   0  0  2  0  0  3  0  0  0  0  0  0
  188.8170  172.8270  134.6190 C   0  0  1  0  0  3  0  0  0  0  0  0
  185.9690  175.3690  136.6540 C   0  0  0  0  0  0  0  0  0  0  0  0
  188.1080  173.6600  135.6990 C   0  0  1  0  0  3  0  0  0  0  0  0
  187.2290  171.0120  135.2090 C   0  0  0  0  0  2  0  0  0  0  0  0
  185.9460  173.9020  136.9640 C   0  0  0  0  0  2  0  0  0  0  0  0
  192.4350  173.7730  135.4310 C   0  0  0  0  0  0  0  0  0  0  0  0
  190.2810  173.1980  134.3520 C   0  0  0  0  0  2  0  0  0  0  0  0
  186.7690  171.7530  136.3140 O   0  0  0  0  0  0  0  0  0  0  0  0
  192.7280  175.9830  134.3660 C   0  0  0  0  0  3  0  0  0  0  0  0
  192.9870  172.7570  136.0340 C   0  0  0  0  0  0  0  0  0  0  0  0
  193.2230  174.5680  134.4390 C   0  0  0  0  0  2  0  0  0  0  0  0
  185.2690  176.1270  137.3040 O   0  0  0  0  0  0  0  0  0  0  0  0
  186.8040  175.9180  135.5320 C   0  0  0  0  0  2  0  0  0  0  0  0
  188.6970  171.3390  134.9330 C   0  0  0  0  0  2  0  0  0  0  0  0
  191.5140  176.3410  134.7940 C   0  0  0  0  0  3  0  0  0  0  0  0
  190.9510  173.9640  135.4910 C   0  0  2  0  0  3  0  0  0  0  0  0
  189.4220  176.1510  137.4320 C   0  0  1  0  0  3  0  0  0  0  0  0
  190.2410  177.6550  139.1540 C   0  0  1  0  0  3  0  0  0  0  0  0
  190.6630  175.5190  138.0360 C   0  0  0  0  0  2  0  0  0  0  0  0
  188.0230  178.1810  137.9920 C   0  0  0  0  0  1  0  0  0  0  0  0
  189.4280  177.6070  137.8630 C   0  0  2  0  0  3  0  0  0  0  0  0
  189.4020  177.3990  140.4020 C   0  0  0  0  0  1  0  0  0  0  0  0
  191.2450  176.5270  139.0190 C   0  0  0  0  0  2  0  0  0  0  0  0
  1 21  1  0  0  0  0
  2  1  1  1  0  0  0
  2 22  1  0  0  0  0
  3 18  1  1  0  0  0
  3  8  1  0  0  0  0
  3  2  1  0  0  0  0
  5 13  1  0  0  0  0
  5 10  1  1  0  0  0
  6 12  1  1  0  0  0
  6 19  1  0  0  0  0
  6  8  1  0  0  0  0
  7 10  1  0  0  0  0
  7 17  2  0  0  0  0
  8  5  1  0  0  0  0
  9 13  1  0  0  0  0
 11 21  1  0  0  0  0
 11 15  2  0  0  0  0
 12 21  1  0  0  0  0
 14 16  1  0  0  0  0
 14 20  2  0  0  0  0
 15  4  2  0  0  0  0
 16 11  1  0  0  0  0
 18  7  1  0  0  0  0
 19  9  1  0  0  0  0
 20  1  1  0  0  0  0
 22 26  1  0  0  0  0
 22 24  1  0  0  0  0
 23 27  1  0  0  0  0
 24 28  1  0  0  0  0
 26 25  1  0  0  0  0
 26 23  1  0  0  0  0
 28 23  1  0  0  0  0
M  END
>  <MODEL>
7

>  <REMARK>
 VINA RESULT:      -4.6      2.956      7.328
  Name = 
  1 active torsions:
  status: ('A' for Active; 'I' for Inactive)
    1  A    between atoms: C_2  and  C_3
                            x       y       z     vdW  Elec       q    Type
                         _______ _______ _______ _____ _____    ______ ____

>  <TORSDO>
F 1

$$$$
=
 OpenBabel10272401453D

 28 32  0  0  1  0  0  0  0  0999 V2000
  188.3200  176.2120  135.6760 N   0  0  0  0  0  0  0  0  0  0  0  0
  187.0920  176.5690  136.3830 C   0  0  1  0  0  3  0  0  0  0  0  0
  185.8870  175.7090  135.9490 C   0  0  1  0  0  3  0  0  0  0  0  0
  191.7160  172.9200  136.3490 O   0  0  0  0  0  0  0  0  0  0  0  0
  184.7680  173.4900  136.6170 C   0  0  2  0  0  3  0  0  0  0  0  0
  186.7150  173.4870  135.0480 C   0  0  1  0  0  3  0  0  0  0  0  0
  183.9210  175.6490  137.5460 C   0  0  0  0  0  0  0  0  0  0  0  0
  186.0770  174.2090  136.2450 C   0  0  1  0  0  3  0  0  0  0  0  0
  185.4200  171.4950  135.7700 C   0  0  0  0  0  2  0  0  0  0  0  0
  184.0940  174.1800  137.7960 C   0  0  0  0  0  2  0  0  0  0  0  0
  190.2900  174.8020  135.4090 C   0  0  0  0  0  0  0  0  0  0  0  0
  188.0810  174.0230  134.6030 C   0  0  0  0  0  2  0  0  0  0  0  0
  185.0410  172.1520  136.9550 O   0  0  0  0  0  0  0  0  0  0  0  0
  190.2010  177.0580  134.4060 C   0  0  0  0  0  3  0  0  0  0  0  0
  191.0230  173.8360  135.8910 C   0  0  0  0  0  0  0  0  0  0  0  0
  190.8480  175.7030  134.3540 C   0  0  0  0  0  2  0  0  0  0  0  0
  183.2410  176.3080  138.3140 O   0  0  0  0  0  0  0  0  0  0  0  0
  184.5320  176.3150  136.3460 C   0  0  0  0  0  2  0  0  0  0  0  0
  186.7950  171.9880  135.3140 C   0  0  0  0  0  2  0  0  0  0  0  0
  189.0270  177.2690  135.0050 C   0  0  0  0  0  3  0  0  0  0  0  0
  188.8170  174.8270  135.6740 C   0  0  2  0  0  3  0  0  0  0  0  0
  187.3470  176.7830  137.8890 C   0  0  1  0  0  3  0  0  0  0  0  0
  188.2010  178.3350  139.5500 C   0  0  1  0  0  3  0  0  0  0  0  0
  188.7310  176.3050  138.2890 C   0  0  0  0  0  2  0  0  0  0  0  0
  185.7930  178.5930  138.7250 C   0  0  0  0  0  1  0  0  0  0  0  0
  187.2270  178.2140  138.3800 C   0  0  2  0  0  3  0  0  0  0  0  0
  187.5850  177.9370  140.8870 C   0  0  0  0  0  1  0  0  0  0  0  0
  189.3120  177.3540  139.2280 C   0  0  0  0  0  2  0  0  0  0  0  0
  2  1  1  1  0  0  0
  2 22  1  0  0  0  0
  3  8  1  0  0  0  0
  3 18  1  1  0  0  0
  3  2  1  0  0  0  0
  5 13  1  0  0  0  0
  5 10  1  1  0  0  0
  6 12  1  1  0  0  0
  6 19  1  0  0  0  0
  6  8  1  0  0  0  0
  7 10  1  0  0  0  0
  7 17  2  0  0  0  0
  8  5  1  0  0  0  0
  9 13  1  0  0  0  0
 11 21  1  0  0  0  0
 11 15  2  0  0  0  0
 12 21  1  0  0  0  0
 14 20  2  0  0  0  0
 15  4  2  0  0  0  0
 16 14  1  0  0  0  0
 16 11  1  0  0  0  0
 18  7  1  0  0  0  0
 19  9  1  0  0  0  0
 20  1  1  0  0  0  0
 21  1  1  0  0  0  0
 22 24  1  0  0  0  0
 22 26  1  0  0  0  0
 23 27  1  0  0  0  0
 24 28  1  0  0  0  0
 26 25  1  0  0  0  0
 26 23  1  0  0  0  0
 28 23  1  0  0  0  0
M  END
>  <MODEL>
8

>  <REMARK>
 VINA RESULT:      -4.4      2.101      6.438
  Name = 
  1 active torsions:
  status: ('A' for Active; 'I' for Inactive)
    1  A    between atoms: C_2  and  C_3
                            x       y       z     vdW  Elec       q    Type
                         _______ _______ _______ _____ _____    ______ ____

>  <TORSDO>
F 1

$$$$
=
 OpenBabel10272401453D

 28 32  0  0  1  0  0  0  0  0999 V2000
  186.9550  177.9150  137.5280 N   0  0  0  0  0  0  0  0  0  0  0  0
  185.5740  177.9860  137.9980 C   0  0  1  0  0  3  0  0  0  0  0  0
  184.6300  177.0550  137.2090 C   0  0  1  0  0  3  0  0  0  0  0  0
  190.6520  175.0380  138.4710 O   0  0  0  0  0  0  0  0  0  0  0  0
  183.7820  174.6280  137.3260 C   0  0  2  0  0  3  0  0  0  0  0  0
  185.9660  175.1380  136.2210 C   0  0  1  0  0  3  0  0  0  0  0  0
  182.4330  176.4760  138.3290 C   0  0  0  0  0  0  0  0  0  0  0  0
  185.0020  175.5660  137.3400 C   0  0  1  0  0  3  0  0  0  0  0  0
  184.9010  172.9010  136.3830 C   0  0  0  0  0  2  0  0  0  0  0  0
  182.7920  175.0220  138.4150 C   0  0  0  0  0  2  0  0  0  0  0  0
  189.1440  176.8410  137.5040 C   0  0  0  0  0  0  0  0  0  0  0  0
  187.2860  175.9160  136.1520 C   0  0  0  0  0  2  0  0  0  0  0  0
  184.2000  173.3010  137.5370 O   0  0  0  0  0  0  0  0  0  0  0  0
  188.8800  179.1970  136.8090 C   0  0  0  0  0  3  0  0  0  0  0  0
  189.9180  175.9170  138.0000 C   0  0  0  0  0  0  0  0  0  0  0  0
  189.7370  177.9680  136.7190 C   0  0  0  0  0  2  0  0  0  0  0  0
  181.5200  176.9060  139.0140 O   0  0  0  0  0  0  0  0  0  0  0  0
  183.1440  177.4030  137.3850 C   0  0  0  0  0  2  0  0  0  0  0  0
  186.2370  173.6390  136.2990 C   0  0  0  0  0  2  0  0  0  0  0  0
  187.5950  179.1510  137.1680 C   0  0  0  0  0  3  0  0  0  0  0  0
  187.6630  176.6270  137.4500 C   0  0  2  0  0  3  0  0  0  0  0  0
  185.4980  177.9860  139.5380 C   0  0  1  0  0  3  0  0  0  0  0  0
  185.5830  179.3820  141.5240 C   0  0  1  0  0  3  0  0  0  0  0  0
  186.8730  177.8110  140.1600 C   0  0  0  0  0  2  0  0  0  0  0  0
  183.3770  179.1630  140.2470 C   0  0  0  0  0  1  0  0  0  0  0  0
  184.8960  179.2290  140.1680 C   0  0  2  0  0  3  0  0  0  0  0  0
  184.8880  178.6090  142.6400 C   0  0  0  0  0  1  0  0  0  0  0  0
  186.9640  178.7880  141.3240 C   0  0  0  0  0  2  0  0  0  0  0  0
  2  1  1  1  0  0  0
  2 22  1  0  0  0  0
  3  8  1  0  0  0  0
  3 18  1  1  0  0  0
  3  2  1  0  0  0  0
  5  8  1  0  0  0  0
  5 13  1  0  0  0  0
  5 10  1  1  0  0  0
  6 12  1  1  0  0  0
  6 19  1  0  0  0  0
  6  8  1  0  0  0  0
  7 10  1  0  0  0  0
  7 17  2  0  0  0  0
  9 13  1  0  0  0  0
 11 15  2  0  0  0  0
 12 21  1  0  0  0  0
 14 20  2  0  0  0  0
 15  4  2  0  0  0  0
 16 14  1  0  0  0  0
 16 11  1  0  0  0  0
 18  7  1  0  0  0  0
 19  9  1  0  0  0  0
 20  1  1  0  0  0  0
 21 11  1  0  0  0  0
 21  1  1  0  0  0  0
 22 24  1  0  0  0  0
 22 26  1  0  0  0  0
 23 27  1  0  0  0  0
 24 28  1  0  0  0  0
 26 25  1  0  0  0  0
 26 23  1  0  0  0  0
 28 23  1  0  0  0  0
M  END
>  <MODEL>
9

>  <REMARK>
 VINA RESULT:      -4.4      1.887      6.366
  Name = 
  1 active torsions:
  status: ('A' for Active; 'I' for Inactive)
    1  A    between atoms: C_2  and  C_3
                            x       y       z     vdW  Elec       q    Type
                         _______ _______ _______ _____ _____    ______ ____

>  <TORSDO>
F 1

$$$$
