=
 OpenBabel10272415003D

 37 41  0  0  1  0  0  0  0  0999 V2000
  184.2160  176.7370  137.4870 S   0  0  0  0  0  0  0  0  0  0  0  0
  184.8480  178.2470  141.8900 C   0  0  2  0  0  3  0  0  0  0  0  0
  185.4590  175.9060  136.4790 C   0  0  2  0  0  3  0  0  0  0  0  0
  188.3320  178.4680  139.9930 C   0  0  0  0  0  2  0  0  0  0  0  0
  185.9630  178.0010  140.8590 C   0  0  2  0  0  3  0  0  0  0  0  0
  183.7830  179.0660  141.1900 C   0  0  1  0  0  3  0  0  0  0  0  0
  187.3220  178.7130  141.1250 C   0  0  1  0  0  3  0  0  0  0  0  0
  186.5570  176.7620  136.3040 O   0  0  0  0  0  0  0  0  0  0  0  0
  183.9320  178.7490  139.7170 C   0  0  2  0  0  3  0  0  0  0  0  0
  185.8490  177.9300  143.8800 C   0  0  0  0  0  2  0  0  0  0  0  0
  186.8270  177.4130  137.5300 C   0  0  2  0  0  0  0  0  0  0  0  0
  188.3810  176.9990  139.5980 C   0  0  0  0  0  2  0  0  0  0  0  0
  185.3010  178.9120  143.0380 O   0  0  0  0  0  0  0  0  0  0  0  0
  185.3910  178.3680  139.4960 C   0  0  2  0  0  3  0  0  0  0  0  0
  187.9160  178.5300  142.5590 C   0  0  1  0  0  3  0  0  0  0  0  0
  188.1300  176.8060  138.1000 C   0  0  0  0  0  2  0  0  0  0  0  0
  185.6320  177.2100  138.4940 C   0  0  1  0  0  3  0  0  0  0  0  0
  187.2250  177.4550  143.3920 C   0  0  0  0  0  2  0  0  0  0  0  0
  187.0300  178.9060  137.2170 C   0  0  0  0  0  2  0  0  0  0  0  0
  188.3960  179.2020  136.6140 C   0  0  0  0  0  1  0  0  0  0  0  0
  184.5290  176.7940  134.3460 C   0  0  0  0  0  1  0  0  0  0  0  0
  184.8810  175.5410  135.1250 C   0  0  0  0  0  2  0  0  0  0  0  0
  183.5710  179.9360  138.8860 C   0  0  0  0  0  0  0  0  0  0  0  0
  184.3940  180.8830  138.7710 O   0  0  0  0  0  0  0  0  0  0  0  0
  182.3310  179.9850  138.2410 O   0  0  0  0  0  0  0  0  0  0  0  0
  181.2770  180.8290  138.6820 C   0  0  0  0  0  2  0  0  0  0  0  0
  181.4320  182.1040  138.1370 O   0  0  0  0  0  1  0  0  0  0  0  0
  189.4310  178.3630  142.6340 C   0  0  0  0  0  2  0  0  0  0  0  0
  190.3370  177.7930  144.8660 C   0  0  0  0  0  2  0  0  0  0  0  0
  190.7840  176.4070  142.9900 O   0  0  0  0  0  0  0  0  0  0  0  0
  191.8840  174.7570  144.1410 O   0  0  0  0  0  1  0  0  0  0  0  0
  191.3200  176.7570  145.2900 C   0  0  0  0  0  2  0  0  0  0  0  0
  191.7450  176.1360  143.9830 C   0  0  2  0  0  3  0  0  0  0  0  0
  189.8030  177.2290  143.5760 C   0  0  2  0  0  3  0  0  0  0  0  0
  182.3970  178.6690  141.6670 C   0  0  0  0  0  2  0  0  0  0  0  0
  181.8040  177.6130  140.7540 C   0  0  0  0  0  2  0  0  0  0  0  0
  180.4670  177.9130  140.5010 O   0  0  0  0  0  1  0  0  0  0  0  0
  1 17  1  0  0  0  0
  2 13  1  1  0  0  0
  3 22  1  6  0  0  0
  3  1  1  0  0  0  0
  4  7  1  0  0  0  0
  5  7  1  0  0  0  0
  5  2  1  0  0  0  0
  6 35  1  0  0  0  0
  6  2  1  0  0  0  0
  7 15  1  0  0  0  0
  8  3  1  0  0  0  0
  8 11  1  0  0  0  0
  9  6  1  0  0  0  0
 11 16  1  0  0  0  0
 11 17  1  0  0  0  0
 12  4  1  0  0  0  0
 13 10  1  0  0  0  0
 14  9  1  0  0  0  0
 14  5  1  0  0  0  0
 15 28  1  0  0  0  0
 15 18  1  0  0  0  0
 16 12  1  0  0  0  0
 17 14  1  0  0  0  0
 18 10  1  0  0  0  0
 19 11  1  0  0  0  0
 20 19  1  0  0  0  0
 21 22  1  0  0  0  0
 23  9  1  0  0  0  0
 24 23  2  0  0  0  0
 25 26  1  0  0  0  0
 25 23  1  0  0  0  0
 27 26  1  0  0  0  0
 28 34  1  0  0  0  0
 29 32  1  0  0  0  0
 30 34  1  0  0  0  0
 30 33  1  0  0  0  0
 33 31  1  0  0  0  0
 33 32  1  0  0  0  0
 34 29  1  0  0  0  0
 36 35  1  0  0  0  0
 37 36  1  0  0  0  0
M  END
>  <MODEL>
1

>  <REMARK>
 VINA RESULT:      -5.3      0.000      0.000
  Name = 
  9 active torsions:
  status: ('A' for Active; 'I' for Inactive)
    1  A    between atoms: C_3  and  O_32
    2  A    between atoms: C_5  and  C_23
    3  A    between atoms: C_6  and  C_31
    4  A    between atoms: C_6  and  C_35
    5  A    between atoms: C_9  and  C_13
    6  A    between atoms: C_9  and  C_16
    7  A    between atoms: C_11  and  C_26
    8  A    between atoms: C_20  and  C_21
    9  A    between atoms: C_21  and  O_32
                            x       y       z     vdW  Elec       q    Type
                         _______ _______ _______ _____ _____    ______ ____

>  <TORSDO>
F 9

$$$$
=
 OpenBabel10272415003D

 37 41  0  0  1  0  0  0  0  0999 V2000
  182.4910  176.0690  138.9240 S   0  0  0  0  0  0  0  0  0  0  0  0
  186.3360  178.3120  140.4230 C   0  0  2  0  0  3  0  0  0  0  0  0
  182.4520  174.8070  137.6370 C   0  0  2  0  0  3  0  0  0  0  0  0
  186.8450  177.4070  136.5880 C   0  0  0  0  0  2  0  0  0  0  0  0
  186.1730  177.6300  139.0530 C   0  0  2  0  0  3  0  0  0  0  0  0
  185.1010  179.1650  140.6310 C   0  0  1  0  0  3  0  0  0  0  0  0
  187.1510  178.0880  137.9310 C   0  0  1  0  0  3  0  0  0  0  0  0
  182.9130  175.3620  136.4340 O   0  0  0  0  0  0  0  0  0  0  0  0
  184.0180  178.5210  139.7940 C   0  0  2  0  0  3  0  0  0  0  0  0
  188.5470  178.2240  140.8310 C   0  0  0  0  0  2  0  0  0  0  0  0
  184.0270  176.1880  136.7110 C   0  0  2  0  0  0  0  0  0  0  0  0
  186.6320  175.9100  136.7570 C   0  0  0  0  0  2  0  0  0  0  0  0
  187.4940  179.0980  140.5100 O   0  0  0  0  0  0  0  0  0  0  0  0
  184.7180  177.8100  138.6410 C   0  0  2  0  0  3  0  0  0  0  0  0
  188.6670  178.0940  138.3110 C   0  0  1  0  0  3  0  0  0  0  0  0
  185.2860  175.4620  136.1830 C   0  0  0  0  0  2  0  0  0  0  0  0
  184.1120  176.4430  138.2360 C   0  0  1  0  0  3  0  0  0  0  0  0
  188.9880  177.3850  139.6230 C   0  0  0  0  0  2  0  0  0  0  0  0
  183.8170  177.5070  135.9460 C   0  0  0  0  0  2  0  0  0  0  0  0
  182.3480  177.8290  135.7170 C   0  0  0  0  0  1  0  0  0  0  0  0
  180.4230  174.8850  136.1950 C   0  0  0  0  0  1  0  0  0  0  0  0
  181.0380  174.2900  137.4470 C   0  0  0  0  0  2  0  0  0  0  0  0
  183.0730  179.5540  139.2730 C   0  0  0  0  0  0  0  0  0  0  0  0
  183.5280  180.6500  138.8510 O   0  0  0  0  0  0  0  0  0  0  0  0
  181.6990  179.2960  139.2530 O   0  0  0  0  0  0  0  0  0  0  0  0
  180.8620  179.5440  140.3750 C   0  0  0  0  0  2  0  0  0  0  0  0
  180.8450  178.4250  141.2090 O   0  0  0  0  0  1  0  0  0  0  0  0
  189.6280  177.6400  137.2170 C   0  0  0  0  0  2  0  0  0  0  0  0
  191.7910  176.5400  137.7080 C   0  0  0  0  0  2  0  0  0  0  0  0
  190.0440  175.3450  136.6320 O   0  0  0  0  0  0  0  0  0  0  0  0
  191.0960  173.3080  136.6070 O   0  0  0  0  0  1  0  0  0  0  0  0
  192.3330  175.2150  137.2950 C   0  0  0  0  0  2  0  0  0  0  0  0
  191.2580  174.6750  136.3850 C   0  0  2  0  0  3  0  0  0  0  0  0
  190.3030  176.3320  137.6000 C   0  0  2  0  0  3  0  0  0  0  0  0
  184.6900  179.1710  142.0940 C   0  0  0  0  0  2  0  0  0  0  0  0
  185.3850  178.0510  142.8440 C   0  0  0  0  0  2  0  0  0  0  0  0
  185.2900  178.2800  144.2160 O   0  0  0  0  0  1  0  0  0  0  0  0
  2 13  1  6  0  0  0
  2  6  1  0  0  0  0
  3 22  1  6  0  0  0
  3  1  1  0  0  0  0
  4 12  1  0  0  0  0
  4  7  1  0  0  0  0
  5  2  1  0  0  0  0
  6 35  1  0  0  0  0
  7 15  1  0  0  0  0
  7  5  1  0  0  0  0
  8 11  1  0  0  0  0
  8  3  1  0  0  0  0
  9  6  1  0  0  0  0
 11 17  1  0  0  0  0
 13 10  1  0  0  0  0
 14  5  1  0  0  0  0
 14  9  1  0  0  0  0
 15 18  1  0  0  0  0
 16 11  1  0  0  0  0
 16 12  1  0  0  0  0
 17 14  1  0  0  0  0
 17  1  1  0  0  0  0
 18 10  1  0  0  0  0
 19 11  1  0  0  0  0
 20 19  1  0  0  0  0
 21 22  1  0  0  0  0
 23  9  1  0  0  0  0
 24 23  2  0  0  0  0
 25 23  1  0  0  0  0
 25 26  1  0  0  0  0
 26 27  1  0  0  0  0
 28 34  1  0  0  0  0
 28 15  1  0  0  0  0
 30 34  1  0  0  0  0
 32 29  1  0  0  0  0
 33 31  1  0  0  0  0
 33 30  1  0  0  0  0
 33 32  1  0  0  0  0
 34 29  1  0  0  0  0
 35 36  1  0  0  0  0
 36 37  1  0  0  0  0
M  END
>  <MODEL>
2

>  <REMARK>
 VINA RESULT:      -5.0      2.551      4.390
  Name = 
  9 active torsions:
  status: ('A' for Active; 'I' for Inactive)
    1  A    between atoms: C_3  and  O_32
    2  A    between atoms: C_5  and  C_23
    3  A    between atoms: C_6  and  C_31
    4  A    between atoms: C_6  and  C_35
    5  A    between atoms: C_9  and  C_13
    6  A    between atoms: C_9  and  C_16
    7  A    between atoms: C_11  and  C_26
    8  A    between atoms: C_20  and  C_21
    9  A    between atoms: C_21  and  O_32
                            x       y       z     vdW  Elec       q    Type
                         _______ _______ _______ _____ _____    ______ ____

>  <TORSDO>
F 9

$$$$
=
 OpenBabel10272415003D

 37 41  0  0  1  0  0  0  0  0999 V2000
  187.4860  174.9780  136.3400 S   0  0  0  0  0  0  0  0  0  0  0  0
  186.2980  177.9830  139.7500 C   0  0  2  0  0  3  0  0  0  0  0  0
  188.9510  173.9270  136.3380 C   0  0  2  0  0  3  0  0  0  0  0  0
  190.2630  177.7450  139.6330 C   0  0  0  0  0  2  0  0  0  0  0  0
  187.7190  177.4620  139.4700 C   0  0  2  0  0  3  0  0  0  0  0  0
  185.7310  178.4310  138.4180 C   0  0  1  0  0  3  0  0  0  0  0  0
  188.8930  178.3090  140.0430 C   0  0  1  0  0  3  0  0  0  0  0  0
  190.0970  174.7350  136.3810 O   0  0  0  0  0  0  0  0  0  0  0  0
  186.4700  177.6250  137.3720 C   0  0  2  0  0  3  0  0  0  0  0  0
  186.3010  178.4550  141.9500 C   0  0  0  0  0  2  0  0  0  0  0  0
  189.8740  175.7930  137.2920 C   0  0  2  0  0  0  0  0  0  0  0  0
  190.3280  176.2380  139.8330 C   0  0  0  0  0  2  0  0  0  0  0  0
  186.2740  179.0390  140.6710 O   0  0  0  0  0  0  0  0  0  0  0  0
  187.8340  177.2850  137.9610 C   0  0  2  0  0  3  0  0  0  0  0  0
  188.7850  178.6830  141.5560 C   0  0  1  0  0  3  0  0  0  0  0  0
  190.7320  175.5130  138.5470 C   0  0  0  0  0  2  0  0  0  0  0  0
  188.3660  175.8670  137.6360 C   0  0  1  0  0  3  0  0  0  0  0  0
  187.6960  177.9290  142.3140 C   0  0  0  0  0  2  0  0  0  0  0  0
  190.3430  177.0900  136.6080 C   0  0  0  0  0  2  0  0  0  0  0  0
  190.3770  176.9770  135.0910 C   0  0  0  0  0  1  0  0  0  0  0  0
  188.4640  171.6770  135.3870 C   0  0  0  0  0  1  0  0  0  0  0  0
  188.9830  173.0700  135.0860 C   0  0  0  0  0  2  0  0  0  0  0  0
  186.6270  178.4150  136.1140 C   0  0  0  0  0  0  0  0  0  0  0  0
  187.1030  179.5800  136.1730 O   0  0  0  0  0  0  0  0  0  0  0  0
  186.2520  177.8590  134.8880 O   0  0  0  0  0  0  0  0  0  0  0  0
  184.9040  177.5210  134.5860 C   0  0  0  0  0  2  0  0  0  0  0  0
  184.8010  176.1510  134.3470 O   0  0  0  0  0  1  0  0  0  0  0  0
  190.0930  178.6520  142.3440 C   0  0  0  0  0  2  0  0  0  0  0  0
  190.2170  177.8920  144.6960 C   0  0  0  0  0  2  0  0  0  0  0  0
  191.2670  176.6480  142.9670 O   0  0  0  0  0  0  0  0  0  0  0  0
  191.9390  174.8920  144.2790 O   0  0  0  0  0  1  0  0  0  0  0  0
  191.0130  176.8070  145.3350 C   0  0  0  0  0  2  0  0  0  0  0  0
  191.8490  176.2820  144.1950 C   0  0  2  0  0  3  0  0  0  0  0  0
  190.1420  177.4410  143.2610 C   0  0  2  0  0  3  0  0  0  0  0  0
  184.2420  178.1390  138.3410 C   0  0  0  0  0  2  0  0  0  0  0  0
  183.4510  179.2340  139.0280 C   0  0  0  0  0  2  0  0  0  0  0  0
  184.1030  180.4550  138.8620 O   0  0  0  0  0  1  0  0  0  0  0  0
  1 17  1  0  0  0  0
  2 13  1  1  0  0  0
  3 22  1  6  0  0  0
  3  1  1  0  0  0  0
  3  8  1  0  0  0  0
  4 12  1  0  0  0  0
  4  7  1  0  0  0  0
  5  2  1  0  0  0  0
  5  7  1  0  0  0  0
  6  2  1  0  0  0  0
  7 15  1  0  0  0  0
  8 11  1  0  0  0  0
  9 14  1  0  0  0  0
  9  6  1  0  0  0  0
 10 18  1  0  0  0  0
 11 17  1  0  0  0  0
 11 16  1  0  0  0  0
 13 10  1  0  0  0  0
 14  5  1  0  0  0  0
 15 18  1  0  0  0  0
 15 28  1  0  0  0  0
 16 12  1  0  0  0  0
 17 14  1  0  0  0  0
 19 11  1  0  0  0  0
 20 19  1  0  0  0  0
 22 21  1  0  0  0  0
 23 24  2  0  0  0  0
 23  9  1  0  0  0  0
 25 23  1  0  0  0  0
 26 25  1  0  0  0  0
 27 26  1  0  0  0  0
 28 34  1  0  0  0  0
 29 32  1  0  0  0  0
 30 34  1  0  0  0  0
 30 33  1  0  0  0  0
 33 31  1  0  0  0  0
 33 32  1  0  0  0  0
 34 29  1  0  0  0  0
 35  6  1  0  0  0  0
 35 36  1  0  0  0  0
 37 36  1  0  0  0  0
M  END
>  <MODEL>
3

>  <REMARK>
 VINA RESULT:      -4.9      2.177      3.521
  Name = 
  9 active torsions:
  status: ('A' for Active; 'I' for Inactive)
    1  A    between atoms: C_3  and  O_32
    2  A    between atoms: C_5  and  C_23
    3  A    between atoms: C_6  and  C_31
    4  A    between atoms: C_6  and  C_35
    5  A    between atoms: C_9  and  C_13
    6  A    between atoms: C_9  and  C_16
    7  A    between atoms: C_11  and  C_26
    8  A    between atoms: C_20  and  C_21
    9  A    between atoms: C_21  and  O_32
                            x       y       z     vdW  Elec       q    Type
                         _______ _______ _______ _____ _____    ______ ____

>  <TORSDO>
F 9

$$$$
=
 OpenBabel10272415003D

 37 41  0  0  1  0  0  0  0  0999 V2000
  181.1820  175.5110  138.4700 S   0  0  0  0  0  0  0  0  0  0  0  0
  184.4250  178.4960  140.0930 C   0  0  2  0  0  3  0  0  0  0  0  0
  181.5040  174.1050  137.3890 C   0  0  2  0  0  3  0  0  0  0  0  0
  185.6080  177.2000  136.5280 C   0  0  0  0  0  2  0  0  0  0  0  0
  184.5590  177.6290  138.8290 C   0  0  2  0  0  3  0  0  0  0  0  0
  183.0690  179.1680  140.0160 C   0  0  1  0  0  3  0  0  0  0  0  0
  185.6190  178.0860  137.7840 C   0  0  1  0  0  3  0  0  0  0  0  0
  182.0560  174.5660  136.1850 O   0  0  0  0  0  0  0  0  0  0  0  0
  182.2180  178.2610  139.1530 C   0  0  2  0  0  3  0  0  0  0  0  0
  186.5450  178.8060  140.7840 C   0  0  0  0  0  2  0  0  0  0  0  0
  182.9940  175.5830  136.4750 C   0  0  2  0  0  0  0  0  0  0  0  0
  185.5780  175.7210  136.8890 C   0  0  0  0  0  2  0  0  0  0  0  0
  185.4400  179.4570  140.2080 O   0  0  0  0  0  0  0  0  0  0  0  0
  183.1690  177.5260  138.2160 C   0  0  2  0  0  3  0  0  0  0  0  0
  187.0470  178.3750  138.3470 C   0  0  1  0  0  3  0  0  0  0  0  0
  184.4040  175.0000  136.2220 C   0  0  0  0  0  2  0  0  0  0  0  0
  182.8200  176.0420  137.9440 C   0  0  1  0  0  3  0  0  0  0  0  0
  187.2670  177.8980  139.7790 C   0  0  0  0  0  2  0  0  0  0  0  0
  182.7210  176.7460  135.5030 C   0  0  0  0  0  2  0  0  0  0  0  0
  181.6800  176.4010  134.4480 C   0  0  0  0  0  1  0  0  0  0  0  0
  180.4230  171.8630  137.2840 C   0  0  0  0  0  1  0  0  0  0  0  0
  180.2170  173.3550  137.1020 C   0  0  0  0  0  2  0  0  0  0  0  0
  181.2270  179.0600  138.3710 C   0  0  0  0  0  0  0  0  0  0  0  0
  180.1640  179.4420  138.9290 O   0  0  0  0  0  0  0  0  0  0  0  0
  181.4870  179.3800  137.0360 O   0  0  0  0  0  0  0  0  0  0  0  0
  180.5120  179.9820  136.1930 C   0  0  0  0  0  2  0  0  0  0  0  0
  181.0930  180.3350  134.9750 O   0  0  0  0  0  1  0  0  0  0  0  0
  188.2120  177.9400  137.4610 C   0  0  0  0  0  2  0  0  0  0  0  0
  190.3870  177.1860  138.3710 C   0  0  0  0  0  2  0  0  0  0  0  0
  188.9640  175.6680  137.2280 O   0  0  0  0  0  0  0  0  0  0  0  0
  190.2300  173.7920  137.6000 O   0  0  0  0  0  1  0  0  0  0  0  0
  191.1290  175.9060  138.2040 C   0  0  0  0  0  2  0  0  0  0  0  0
  190.2680  175.1380  137.2320 C   0  0  2  0  0  3  0  0  0  0  0  0
  188.9640  176.7780  138.0910 C   0  0  2  0  0  3  0  0  0  0  0  0
  182.4520  179.2960  141.3980 C   0  0  0  0  0  2  0  0  0  0  0  0
  183.1980  178.4290  142.3940 C   0  0  0  0  0  2  0  0  0  0  0  0
  183.6650  179.2200  143.4430 O   0  0  0  0  0  1  0  0  0  0  0  0
  2 13  1  6  0  0  0
  3 22  1  6  0  0  0
  3  1  1  0  0  0  0
  4 12  1  0  0  0  0
  4  7  1  0  0  0  0
  5  2  1  0  0  0  0
  6  2  1  0  0  0  0
  6 35  1  0  0  0  0
  7 15  1  0  0  0  0
  7  5  1  0  0  0  0
  8 11  1  0  0  0  0
  8  3  1  0  0  0  0
  9  6  1  0  0  0  0
 11 17  1  0  0  0  0
 13 10  1  0  0  0  0
 14  5  1  0  0  0  0
 14  9  1  0  0  0  0
 15 18  1  0  0  0  0
 16 11  1  0  0  0  0
 16 12  1  0  0  0  0
 17 14  1  0  0  0  0
 17  1  1  0  0  0  0
 18 10  1  0  0  0  0
 19 11  1  0  0  0  0
 20 19  1  0  0  0  0
 22 21  1  0  0  0  0
 23 24  2  0  0  0  0
 23  9  1  0  0  0  0
 25 23  1  0  0  0  0
 26 25  1  0  0  0  0
 27 26  1  0  0  0  0
 28 34  1  0  0  0  0
 28 15  1  0  0  0  0
 30 33  1  0  0  0  0
 30 34  1  0  0  0  0
 32 29  1  0  0  0  0
 33 31  1  0  0  0  0
 33 32  1  0  0  0  0
 34 29  1  0  0  0  0
 35 36  1  0  0  0  0
 36 37  1  0  0  0  0
M  END
>  <MODEL>
4

>  <REMARK>
 VINA RESULT:      -4.6      2.991      4.523
  Name = 
  9 active torsions:
  status: ('A' for Active; 'I' for Inactive)
    1  A    between atoms: C_3  and  O_32
    2  A    between atoms: C_5  and  C_23
    3  A    between atoms: C_6  and  C_31
    4  A    between atoms: C_6  and  C_35
    5  A    between atoms: C_9  and  C_13
    6  A    between atoms: C_9  and  C_16
    7  A    between atoms: C_11  and  C_26
    8  A    between atoms: C_20  and  C_21
    9  A    between atoms: C_21  and  O_32
                            x       y       z     vdW  Elec       q    Type
                         _______ _______ _______ _____ _____    ______ ____

>  <TORSDO>
F 9

$$$$
=
 OpenBabel10272415003D

 37 41  0  0  1  0  0  0  0  0999 V2000
  183.4410  176.8010  135.1210 S   0  0  0  0  0  0  0  0  0  0  0  0
  187.9130  176.5590  136.5340 C   0  0  2  0  0  3  0  0  0  0  0  0
  182.2150  177.9760  135.7270 C   0  0  2  0  0  3  0  0  0  0  0  0
  185.7180  177.8490  139.5840 C   0  0  0  0  0  2  0  0  0  0  0  0
  186.7520  177.1710  137.3370 C   0  0  2  0  0  3  0  0  0  0  0  0
  187.4340  175.2100  136.0380 C   0  0  1  0  0  3  0  0  0  0  0  0
  186.9680  177.3070  138.8730 C   0  0  1  0  0  3  0  0  0  0  0  0
  182.0400  177.7880  137.1070 O   0  0  0  0  0  0  0  0  0  0  0  0
  185.9250  175.3170  135.9710 C   0  0  2  0  0  3  0  0  0  0  0  0
  189.7360  177.6590  137.2640 C   0  0  0  0  0  2  0  0  0  0  0  0
  183.3050  177.5730  137.7000 C   0  0  2  0  0  0  0  0  0  0  0  0
  185.1370  179.0510  138.8530 C   0  0  0  0  0  2  0  0  0  0  0  0
  189.0850  176.4130  137.2900 O   0  0  0  0  0  0  0  0  0  0  0  0
  185.5110  176.3490  137.0130 C   0  0  2  0  0  3  0  0  0  0  0  0
  188.3000  177.9960  139.3130 C   0  0  1  0  0  3  0  0  0  0  0  0
  183.6600  178.8430  138.5080 C   0  0  0  0  0  2  0  0  0  0  0  0
  184.3520  177.2880  136.5950 C   0  0  1  0  0  3  0  0  0  0  0  0
  189.0550  178.6840  138.1810 C   0  0  0  0  0  2  0  0  0  0  0  0
  183.1660  176.3660  138.6460 C   0  0  0  0  0  2  0  0  0  0  0  0
  182.0880  176.5650  139.7020 C   0  0  0  0  0  1  0  0  0  0  0  0
  180.0660  176.7170  135.7310 C   0  0  0  0  0  1  0  0  0  0  0  0
  180.8900  177.7710  135.0160 C   0  0  0  0  0  2  0  0  0  0  0  0
  185.2920  173.9960  136.2640 C   0  0  0  0  0  0  0  0  0  0  0  0
  185.1580  173.6280  137.4610 O   0  0  0  0  0  0  0  0  0  0  0  0
  184.8510  173.1850  135.2140 O   0  0  0  0  0  0  0  0  0  0  0  0
  185.5840  172.0530  134.7670 C   0  0  0  0  0  2  0  0  0  0  0  0
  185.0120  170.8870  135.2750 O   0  0  0  0  0  1  0  0  0  0  0  0
  188.2000  178.9240  140.5210 C   0  0  0  0  0  2  0  0  0  0  0  0
  189.6630  177.0950  141.3230 C   0  0  0  0  0  2  0  0  0  0  0  0
  187.8720  177.8880  142.6660 O   0  0  0  0  0  0  0  0  0  0  0  0
  188.3440  176.6110  144.5120 O   0  0  0  0  0  1  0  0  0  0  0  0
  189.5540  176.2010  142.5090 C   0  0  0  0  0  2  0  0  0  0  0  0
  188.2360  176.6060  143.1210 C   0  0  2  0  0  3  0  0  0  0  0  0
  188.8530  178.2940  141.7420 C   0  0  2  0  0  3  0  0  0  0  0  0
  187.9940  174.9130  134.6580 C   0  0  0  0  0  2  0  0  0  0  0  0
  189.1180  173.9000  134.7490 C   0  0  0  0  0  2  0  0  0  0  0  0
  188.8270  172.9690  135.7450 O   0  0  0  0  0  1  0  0  0  0  0  0
  1  3  1  0  0  0  0
  1 17  1  0  0  0  0
  2 13  1  1  0  0  0
  2  5  1  0  0  0  0
  3 22  1  6  0  0  0
  3  8  1  0  0  0  0
  5  7  1  0  0  0  0
  6  2  1  0  0  0  0
  7 15  1  0  0  0  0
  7  4  1  0  0  0  0
  8 11  1  0  0  0  0
  9  6  1  0  0  0  0
  9 23  1  0  0  0  0
  9 14  1  0  0  0  0
 10 13  1  0  0  0  0
 10 18  1  0  0  0  0
 11 16  1  0  0  0  0
 11 19  1  0  0  0  0
 12  4  1  0  0  0  0
 14  5  1  0  0  0  0
 15 28  1  0  0  0  0
 16 12  1  0  0  0  0
 17 14  1  0  0  0  0
 17 11  1  0  0  0  0
 18 15  1  0  0  0  0
 19 20  1  0  0  0  0
 22 21  1  0  0  0  0
 23 24  2  0  0  0  0
 25 23  1  0  0  0  0
 26 25  1  0  0  0  0
 26 27  1  0  0  0  0
 28 34  1  0  0  0  0
 29 34  1  0  0  0  0
 29 32  1  0  0  0  0
 30 33  1  0  0  0  0
 32 33  1  0  0  0  0
 33 31  1  0  0  0  0
 34 30  1  0  0  0  0
 35 36  1  0  0  0  0
 35  6  1  0  0  0  0
 36 37  1  0  0  0  0
M  END
>  <MODEL>
5

>  <REMARK>
 VINA RESULT:      -4.5      2.673      6.049
  Name = 
  9 active torsions:
  status: ('A' for Active; 'I' for Inactive)
    1  A    between atoms: C_3  and  O_32
    2  A    between atoms: C_5  and  C_23
    3  A    between atoms: C_6  and  C_31
    4  A    between atoms: C_6  and  C_35
    5  A    between atoms: C_9  and  C_13
    6  A    between atoms: C_9  and  C_16
    7  A    between atoms: C_11  and  C_26
    8  A    between atoms: C_20  and  C_21
    9  A    between atoms: C_21  and  O_32
                            x       y       z     vdW  Elec       q    Type
                         _______ _______ _______ _____ _____    ______ ____

>  <TORSDO>
F 9

$$$$
=
 OpenBabel10272415003D

 37 41  0  0  1  0  0  0  0  0999 V2000
  193.8600  176.4290  135.4850 S   0  0  0  0  0  0  0  0  0  0  0  0
  189.2070  176.1210  136.0420 C   0  0  2  0  0  3  0  0  0  0  0  0
  194.8790  175.2740  134.5470 C   0  0  2  0  0  3  0  0  0  0  0  0
  190.6590  172.4390  135.6950 C   0  0  0  0  0  2  0  0  0  0  0  0
  190.1470  174.9520  135.6990 C   0  0  2  0  0  3  0  0  0  0  0  0
  189.8390  176.8580  137.2050 C   0  0  1  0  0  3  0  0  0  0  0  0
  189.6100  173.5210  135.9960 C   0  0  1  0  0  3  0  0  0  0  0  0
  194.7710  173.9970  135.1180 O   0  0  0  0  0  0  0  0  0  0  0  0
  191.3220  176.5720  137.1090 C   0  0  2  0  0  3  0  0  0  0  0  0
  187.2250  175.5200  135.1620 C   0  0  0  0  0  2  0  0  0  0  0  0
  193.4210  173.7690  135.4700 C   0  0  2  0  0  0  0  0  0  0  0  0
  191.3260  172.6680  134.3460 C   0  0  0  0  0  2  0  0  0  0  0  0
  187.9110  175.7020  136.3760 O   0  0  0  0  0  0  0  0  0  0  0  0
  191.4640  175.2210  136.4160 C   0  0  2  0  0  3  0  0  0  0  0  0
  188.1870  173.2010  135.4360 C   0  0  1  0  0  3  0  0  0  0  0  0
  192.8500  172.7350  134.4720 C   0  0  0  0  0  2  0  0  0  0  0  0
  192.6410  175.1060  135.4170 C   0  0  1  0  0  3  0  0  0  0  0  0
  187.6540  174.2320  134.4460 C   0  0  0  0  0  2  0  0  0  0  0  0
  193.4140  173.1880  136.8960 C   0  0  0  0  0  2  0  0  0  0  0  0
  194.5860  173.6720  137.7360 C   0  0  0  0  0  1  0  0  0  0  0  0
  196.9620  175.3970  135.9090 C   0  0  0  0  0  1  0  0  0  0  0  0
  196.3310  175.7160  134.5660 C   0  0  0  0  0  2  0  0  0  0  0  0
  191.9380  176.5290  138.4680 C   0  0  0  0  0  0  0  0  0  0  0  0
  193.1600  176.8080  138.6010 O   0  0  0  0  0  0  0  0  0  0  0  0
  191.1590  176.1870  139.5770 O   0  0  0  0  0  0  0  0  0  0  0  0
  190.9250  177.0900  140.6510 C   0  0  0  0  0  2  0  0  0  0  0  0
  189.9810  176.5510  141.5250 O   0  0  0  0  0  1  0  0  0  0  0  0
  187.9910  171.7900  134.8860 C   0  0  0  0  0  2  0  0  0  0  0  0
  185.7900  170.7950  134.3460 C   0  0  0  0  0  2  0  0  0  0  0  0
  186.0930  172.0490  136.3390 O   0  0  0  0  0  0  0  0  0  0  0  0
  184.0050  171.6670  137.2080 O   0  0  0  0  0  1  0  0  0  0  0  0
  184.4550  170.9610  134.9860 C   0  0  0  0  0  2  0  0  0  0  0  0
  184.7150  171.9950  136.0530 C   0  0  2  0  0  3  0  0  0  0  0  0
  186.7340  171.1560  135.4620 C   0  0  2  0  0  3  0  0  0  0  0  0
  189.5920  178.3530  137.0940 C   0  0  0  0  0  2  0  0  0  0  0  0
  188.5820  178.8030  138.1320 C   0  0  0  0  0  2  0  0  0  0  0  0
  187.3040  178.7850  137.5770 O   0  0  0  0  0  1  0  0  0  0  0  0
  2 13  1  1  0  0  0
  2  6  1  0  0  0  0
  3 22  1  1  0  0  0
  3  8  1  0  0  0  0
  3  1  1  0  0  0  0
  4  7  1  0  0  0  0
  5  7  1  0  0  0  0
  5  2  1  0  0  0  0
  5 14  1  0  0  0  0
  8 11  1  0  0  0  0
  9  6  1  0  0  0  0
  9 23  1  0  0  0  0
 10 13  1  0  0  0  0
 11 19  1  0  0  0  0
 12 16  1  0  0  0  0
 12  4  1  0  0  0  0
 14  9  1  0  0  0  0
 15  7  1  0  0  0  0
 16 11  1  0  0  0  0
 17 11  1  0  0  0  0
 17  1  1  0  0  0  0
 17 14  1  0  0  0  0
 18 10  1  0  0  0  0
 18 15  1  0  0  0  0
 19 20  1  0  0  0  0
 22 21  1  0  0  0  0
 23 24  2  0  0  0  0
 23 25  1  0  0  0  0
 25 26  1  0  0  0  0
 26 27  1  0  0  0  0
 28 15  1  0  0  0  0
 28 34  1  0  0  0  0
 29 32  1  0  0  0  0
 29 34  1  0  0  0  0
 32 33  1  0  0  0  0
 33 30  1  0  0  0  0
 33 31  1  0  0  0  0
 34 30  1  0  0  0  0
 35  6  1  0  0  0  0
 35 36  1  0  0  0  0
 37 36  1  0  0  0  0
M  END
>  <MODEL>
6

>  <REMARK>
 VINA RESULT:      -4.4      5.268      9.378
  Name = 
  9 active torsions:
  status: ('A' for Active; 'I' for Inactive)
    1  A    between atoms: C_3  and  O_32
    2  A    between atoms: C_5  and  C_23
    3  A    between atoms: C_6  and  C_31
    4  A    between atoms: C_6  and  C_35
    5  A    between atoms: C_9  and  C_13
    6  A    between atoms: C_9  and  C_16
    7  A    between atoms: C_11  and  C_26
    8  A    between atoms: C_20  and  C_21
    9  A    between atoms: C_21  and  O_32
                            x       y       z     vdW  Elec       q    Type
                         _______ _______ _______ _____ _____    ______ ____

>  <TORSDO>
F 9

$$$$
=
 OpenBabel10272415003D

 37 41  0  0  1  0  0  0  0  0999 V2000
  195.1520  175.9630  134.7200 S   0  0  0  0  0  0  0  0  0  0  0  0
  192.8070  171.9040  135.0150 C   0  0  2  0  0  3  0  0  0  0  0  0
  196.9400  176.1490  134.8570 C   0  0  2  0  0  3  0  0  0  0  0  0
  196.0470  171.6320  137.2980 C   0  0  0  0  0  2  0  0  0  0  0  0
  194.2050  172.1760  135.5990 C   0  0  2  0  0  3  0  0  0  0  0  0
  191.9280  173.0640  135.4370 C   0  0  1  0  0  3  0  0  0  0  0  0
  194.6800  171.2180  136.7310 C   0  0  1  0  0  3  0  0  0  0  0  0
  197.3540  175.7030  136.1220 O   0  0  0  0  0  0  0  0  0  0  0  0
  192.8710  174.2270  135.6590 C   0  0  2  0  0  3  0  0  0  0  0  0
  192.7890  169.6890  134.6190 C   0  0  0  0  0  2  0  0  0  0  0  0
  196.6460  174.5220  136.4410 C   0  0  2  0  0  0  0  0  0  0  0  0
  197.0400  171.9450  136.1870 C   0  0  0  0  0  2  0  0  0  0  0  0
  192.2580  170.6900  135.4500 O   0  0  0  0  0  0  0  0  0  0  0  0
  194.2190  173.6310  136.0480 C   0  0  2  0  0  3  0  0  0  0  0  0
  194.5520  169.6910  136.4270 C   0  0  1  0  0  3  0  0  0  0  0  0
  197.6410  173.3430  136.3430 C   0  0  0  0  0  2  0  0  0  0  0  0
  195.4590  174.3510  135.4610 C   0  0  1  0  0  3  0  0  0  0  0  0
  194.2480  169.3640  134.9690 C   0  0  0  0  0  2  0  0  0  0  0  0
  196.1420  174.6700  137.8890 C   0  0  0  0  0  2  0  0  0  0  0  0
  197.2710  174.6690  138.9090 C   0  0  0  0  0  1  0  0  0  0  0  0
  196.1160  178.4990  134.8050 C   0  0  0  0  0  1  0  0  0  0  0  0
  197.3350  177.6040  134.6800 C   0  0  0  0  0  2  0  0  0  0  0  0
  192.3610  175.1170  136.7430 C   0  0  0  0  0  0  0  0  0  0  0  0
  192.8200  174.9950  137.9100 O   0  0  0  0  0  0  0  0  0  0  0  0
  191.3860  176.0780  136.4570 O   0  0  0  0  0  0  0  0  0  0  0  0
  190.8090  176.9000  137.4640 C   0  0  0  0  0  2  0  0  0  0  0  0
  189.7620  177.6460  136.9220 O   0  0  0  0  0  1  0  0  0  0  0  0
  195.6920  168.8140  136.9380 C   0  0  0  0  0  2  0  0  0  0  0  0
  193.7620  167.9340  138.2150 C   0  0  0  0  0  2  0  0  0  0  0  0
  195.7120  168.6890  139.3400 O   0  0  0  0  0  0  0  0  0  0  0  0
  195.0530  168.0760  141.4480 O   0  0  0  0  0  1  0  0  0  0  0  0
  193.4780  167.9200  139.6770 C   0  0  0  0  0  2  0  0  0  0  0  0
  194.6450  168.6790  140.2580 C   0  0  2  0  0  3  0  0  0  0  0  0
  195.2640  168.0390  138.1750 C   0  0  2  0  0  3  0  0  0  0  0  0
  190.9280  173.4080  134.3460 C   0  0  0  0  0  2  0  0  0  0  0  0
  189.5290  172.9950  134.7600 C   0  0  0  0  0  2  0  0  0  0  0  0
  189.0160  173.9270  135.6600 O   0  0  0  0  0  1  0  0  0  0  0  0
  1  3  1  0  0  0  0
  1 17  1  0  0  0  0
  2  6  1  0  0  0  0
  2 13  1  1  0  0  0
  2  5  1  0  0  0  0
  3 22  1  1  0  0  0
  3  8  1  0  0  0  0
  5 14  1  0  0  0  0
  5  7  1  0  0  0  0
  6  9  1  0  0  0  0
  7  4  1  0  0  0  0
  8 11  1  0  0  0  0
  9 14  1  0  0  0  0
  9 23  1  0  0  0  0
 10 18  1  0  0  0  0
 10 13  1  0  0  0  0
 11 19  1  0  0  0  0
 12 16  1  0  0  0  0
 12  4  1  0  0  0  0
 15  7  1  0  0  0  0
 15 28  1  0  0  0  0
 16 11  1  0  0  0  0
 17 14  1  0  0  0  0
 17 11  1  0  0  0  0
 18 15  1  0  0  0  0
 19 20  1  0  0  0  0
 22 21  1  0  0  0  0
 23 24  2  0  0  0  0
 25 23  1  0  0  0  0
 25 26  1  0  0  0  0
 27 26  1  0  0  0  0
 28 34  1  0  0  0  0
 29 32  1  0  0  0  0
 30 33  1  0  0  0  0
 32 33  1  0  0  0  0
 33 31  1  0  0  0  0
 34 29  1  0  0  0  0
 34 30  1  0  0  0  0
 35 36  1  0  0  0  0
 35  6  1  0  0  0  0
 36 37  1  0  0  0  0
M  END
>  <MODEL>
7

>  <REMARK>
 VINA RESULT:      -4.4      8.204     11.191
  Name = 
  9 active torsions:
  status: ('A' for Active; 'I' for Inactive)
    1  A    between atoms: C_3  and  O_32
    2  A    between atoms: C_5  and  C_23
    3  A    between atoms: C_6  and  C_31
    4  A    between atoms: C_6  and  C_35
    5  A    between atoms: C_9  and  C_13
    6  A    between atoms: C_9  and  C_16
    7  A    between atoms: C_11  and  C_26
    8  A    between atoms: C_20  and  C_21
    9  A    between atoms: C_21  and  O_32
                            x       y       z     vdW  Elec       q    Type
                         _______ _______ _______ _____ _____    ______ ____

>  <TORSDO>
F 9

$$$$
=
 OpenBabel10272415003D

 37 41  0  0  1  0  0  0  0  0999 V2000
  189.3950  176.6990  139.1990 S   0  0  0  0  0  0  0  0  0  0  0  0
  188.1990  173.5500  135.9260 C   0  0  2  0  0  3  0  0  0  0  0  0
  188.2540  177.8070  140.0500 C   0  0  2  0  0  3  0  0  0  0  0  0
  185.6770  176.6100  135.6810 C   0  0  0  0  0  2  0  0  0  0  0  0
  187.3900  174.8040  136.3000 C   0  0  2  0  0  3  0  0  0  0  0  0
  189.6340  173.9990  135.7400 C   0  0  1  0  0  3  0  0  0  0  0  0
  186.3640  175.3070  135.2420 C   0  0  1  0  0  3  0  0  0  0  0  0
  187.6310  178.6380  139.1070 O   0  0  0  0  0  0  0  0  0  0  0  0
  189.7800  175.2470  136.5840 C   0  0  2  0  0  3  0  0  0  0  0  0
  186.6570  172.1010  135.1590 C   0  0  0  0  0  2  0  0  0  0  0  0
  187.2980  177.8670  137.9700 C   0  0  2  0  0  0  0  0  0  0  0  0
  185.2060  176.5330  137.1270 C   0  0  0  0  0  2  0  0  0  0  0  0
  187.7290  172.9210  134.7650 O   0  0  0  0  0  0  0  0  0  0  0  0
  188.3990  175.8860  136.6660 C   0  0  2  0  0  3  0  0  0  0  0  0
  185.3840  174.2280  134.6800 C   0  0  1  0  0  3  0  0  0  0  0  0
  185.7620  177.6860  137.9650 C   0  0  0  0  0  2  0  0  0  0  0  0
  188.0330  176.5050  138.0380 C   0  0  1  0  0  3  0  0  0  0  0  0
  185.3880  172.9130  135.4520 C   0  0  0  0  0  2  0  0  0  0  0  0
  187.7410  178.6660  136.7310 C   0  0  0  0  0  2  0  0  0  0  0  0
  188.9810  179.5100  136.9870 C   0  0  0  0  0  1  0  0  0  0  0  0
  189.0330  177.9680  142.4110 C   0  0  0  0  0  1  0  0  0  0  0  0
  189.0010  178.6580  141.0600 C   0  0  0  0  0  2  0  0  0  0  0  0
  190.7560  176.1900  135.9600 C   0  0  0  0  0  0  0  0  0  0  0  0
  190.3600  176.9880  135.0690 O   0  0  0  0  0  0  0  0  0  0  0  0
  192.0920  176.1860  136.3720 O   0  0  0  0  0  0  0  0  0  0  0  0
  192.4710  175.9560  137.7220 C   0  0  0  0  0  2  0  0  0  0  0  0
  193.8570  176.0540  137.8470 O   0  0  0  0  0  1  0  0  0  0  0  0
  183.9500  174.6940  134.4390 C   0  0  0  0  0  2  0  0  0  0  0  0
  181.8510  173.3840  134.3480 C   0  0  0  0  0  2  0  0  0  0  0  0
  182.4270  174.6110  136.2980 O   0  0  0  0  0  0  0  0  0  0  0  0
  180.6780  173.8840  137.5900 O   0  0  0  0  0  1  0  0  0  0  0  0
  180.6930  173.3220  135.2820 C   0  0  0  0  0  2  0  0  0  0  0  0
  181.0430  174.3520  136.3270 C   0  0  2  0  0  3  0  0  0  0  0  0
  182.9680  173.8550  135.2420 C   0  0  2  0  0  3  0  0  0  0  0  0
  190.6000  172.9310  136.2240 C   0  0  0  0  0  2  0  0  0  0  0  0
  191.4600  172.4350  135.0770 C   0  0  0  0  0  2  0  0  0  0  0  0
  192.5750  173.2600  134.9400 O   0  0  0  0  0  1  0  0  0  0  0  0
  1  3  1  0  0  0  0
  2 13  1  6  0  0  0
  2  5  1  0  0  0  0
  3 22  1  1  0  0  0
  4 12  1  0  0  0  0
  5 14  1  0  0  0  0
  6  2  1  0  0  0  0
  6 35  1  0  0  0  0
  6  9  1  0  0  0  0
  7  4  1  0  0  0  0
  7  5  1  0  0  0  0
  8  3  1  0  0  0  0
  9 14  1  0  0  0  0
 10 18  1  0  0  0  0
 11 17  1  0  0  0  0
 11  8  1  0  0  0  0
 12 16  1  0  0  0  0
 13 10  1  0  0  0  0
 14 17  1  0  0  0  0
 15  7  1  0  0  0  0
 15 18  1  0  0  0  0
 16 11  1  0  0  0  0
 17  1  1  0  0  0  0
 19 20  1  0  0  0  0
 19 11  1  0  0  0  0
 22 21  1  0  0  0  0
 23 25  1  0  0  0  0
 23  9  1  0  0  0  0
 24 23  2  0  0  0  0
 25 26  1  0  0  0  0
 26 27  1  0  0  0  0
 28 15  1  0  0  0  0
 28 34  1  0  0  0  0
 29 34  1  0  0  0  0
 29 32  1  0  0  0  0
 30 33  1  0  0  0  0
 32 33  1  0  0  0  0
 33 31  1  0  0  0  0
 34 30  1  0  0  0  0
 36 35  1  0  0  0  0
 37 36  1  0  0  0  0
M  END
>  <MODEL>
8

>  <REMARK>
 VINA RESULT:      -4.3      3.592      9.287
  Name = 
  9 active torsions:
  status: ('A' for Active; 'I' for Inactive)
    1  A    between atoms: C_3  and  O_32
    2  A    between atoms: C_5  and  C_23
    3  A    between atoms: C_6  and  C_31
    4  A    between atoms: C_6  and  C_35
    5  A    between atoms: C_9  and  C_13
    6  A    between atoms: C_9  and  C_16
    7  A    between atoms: C_11  and  C_26
    8  A    between atoms: C_20  and  C_21
    9  A    between atoms: C_21  and  O_32
                            x       y       z     vdW  Elec       q    Type
                         _______ _______ _______ _____ _____    ______ ____

>  <TORSDO>
F 9

$$$$
=
 OpenBabel10272415003D

 37 41  0  0  1  0  0  0  0  0999 V2000
  191.2270  176.8580  135.5510 S   0  0  0  0  0  0  0  0  0  0  0  0
  186.7230  176.0230  136.5870 C   0  0  2  0  0  3  0  0  0  0  0  0
  192.2550  175.8470  134.4680 C   0  0  2  0  0  3  0  0  0  0  0  0
  188.5150  172.5350  135.9500 C   0  0  0  0  0  2  0  0  0  0  0  0
  187.7400  174.9750  136.1020 C   0  0  2  0  0  3  0  0  0  0  0  0
  187.3960  176.7950  137.7030 C   0  0  1  0  0  3  0  0  0  0  0  0
  187.3950  173.4860  136.4000 C   0  0  1  0  0  3  0  0  0  0  0  0
  192.3480  174.5520  134.9990 O   0  0  0  0  0  0  0  0  0  0  0  0
  188.8810  176.6770  137.4390 C   0  0  2  0  0  3  0  0  0  0  0  0
  184.7320  175.2280  135.9000 C   0  0  0  0  0  2  0  0  0  0  0  0
  191.0770  174.1670  135.4830 C   0  0  2  0  0  0  0  0  0  0  0  0
  189.0020  172.8700  134.5480 C   0  0  0  0  0  2  0  0  0  0  0  0
  185.5240  175.4540  137.0400 O   0  0  0  0  0  0  0  0  0  0  0  0
  189.0910  175.3690  136.6850 C   0  0  2  0  0  3  0  0  0  0  0  0
  185.9620  173.0240  135.9840 C   0  0  1  0  0  3  0  0  0  0  0  0
  190.5140  173.1020  134.5140 C   0  0  0  0  0  2  0  0  0  0  0  0
  190.1570  175.4100  135.5630 C   0  0  1  0  0  3  0  0  0  0  0  0
  185.2160  174.0140  135.0950 C   0  0  0  0  0  2  0  0  0  0  0  0
  191.2880  173.5530  136.8790 C   0  0  0  0  0  2  0  0  0  0  0  0
  192.7350  173.6300  137.3440 C   0  0  0  0  0  1  0  0  0  0  0  0
  194.3520  176.4070  135.6900 C   0  0  0  0  0  1  0  0  0  0  0  0
  193.6440  176.4470  134.3490 C   0  0  0  0  0  2  0  0  0  0  0  0
  189.6440  176.6690  138.7220 C   0  0  0  0  0  0  0  0  0  0  0  0
  190.3710  175.6780  139.0020 O   0  0  0  0  0  0  0  0  0  0  0  0
  189.5500  177.7550  139.5970 O   0  0  0  0  0  0  0  0  0  0  0  0
  189.0100  177.6330  140.9070 C   0  0  0  0  0  2  0  0  0  0  0  0
  188.0560  178.6290  141.1180 O   0  0  0  0  0  1  0  0  0  0  0  0
  185.8590  171.6150  135.4050 C   0  0  0  0  0  2  0  0  0  0  0  0
  183.6730  170.7200  134.6670 C   0  0  0  0  0  2  0  0  0  0  0  0
  183.9040  171.7380  136.8000 O   0  0  0  0  0  0  0  0  0  0  0  0
  181.7780  171.2940  137.5340 O   0  0  0  0  0  1  0  0  0  0  0  0
  182.3140  170.8340  135.2660 C   0  0  0  0  0  2  0  0  0  0  0  0
  182.5400  171.7370  136.4530 C   0  0  2  0  0  3  0  0  0  0  0  0
  184.5730  170.9390  135.8540 C   0  0  2  0  0  3  0  0  0  0  0  0
  186.9790  178.2560  137.6740 C   0  0  0  0  0  2  0  0  0  0  0  0
  187.8120  179.0250  136.6680 C   0  0  0  0  0  2  0  0  0  0  0  0
  188.7010  179.8630  137.3410 O   0  0  0  0  0  1  0  0  0  0  0  0
  1 17  1  0  0  0  0
  2 13  1  1  0  0  0
  2  6  1  0  0  0  0
  3 22  1  1  0  0  0
  3  8  1  0  0  0  0
  3  1  1  0  0  0  0
  4  7  1  0  0  0  0
  5  7  1  0  0  0  0
  5  2  1  0  0  0  0
  5 14  1  0  0  0  0
  8 11  1  0  0  0  0
  9  6  1  0  0  0  0
  9 23  1  0  0  0  0
 10 13  1  0  0  0  0
 11 17  1  0  0  0  0
 11 19  1  0  0  0  0
 12  4  1  0  0  0  0
 14  9  1  0  0  0  0
 15  7  1  0  0  0  0
 16 12  1  0  0  0  0
 16 11  1  0  0  0  0
 17 14  1  0  0  0  0
 18 10  1  0  0  0  0
 18 15  1  0  0  0  0
 19 20  1  0  0  0  0
 22 21  1  0  0  0  0
 23 24  2  0  0  0  0
 23 25  1  0  0  0  0
 25 26  1  0  0  0  0
 26 27  1  0  0  0  0
 28 34  1  0  0  0  0
 28 15  1  0  0  0  0
 29 32  1  0  0  0  0
 29 34  1  0  0  0  0
 32 33  1  0  0  0  0
 33 30  1  0  0  0  0
 33 31  1  0  0  0  0
 34 30  1  0  0  0  0
 35  6  1  0  0  0  0
 36 37  1  0  0  0  0
 36 35  1  0  0  0  0
M  END
>  <MODEL>
9

>  <REMARK>
 VINA RESULT:      -4.2      4.280      8.492
  Name = 
  9 active torsions:
  status: ('A' for Active; 'I' for Inactive)
    1  A    between atoms: C_3  and  O_32
    2  A    between atoms: C_5  and  C_23
    3  A    between atoms: C_6  and  C_31
    4  A    between atoms: C_6  and  C_35
    5  A    between atoms: C_9  and  C_13
    6  A    between atoms: C_9  and  C_16
    7  A    between atoms: C_11  and  C_26
    8  A    between atoms: C_20  and  C_21
    9  A    between atoms: C_21  and  O_32
                            x       y       z     vdW  Elec       q    Type
                         _______ _______ _______ _____ _____    ______ ____

>  <TORSDO>
F 9

$$$$
