=
 OpenBabel10272401093D

 27 31  0  0  1  0  0  0  0  0999 V2000
  190.2890  178.1770  142.8920 C   0  0  0  0  0  0  0  0  0  0  0  0
  190.2410  177.1830  138.6560 S   0  0  0  0  0  0  0  0  0  0  0  0
  187.7190  177.2420  137.5640 N   0  0  0  0  0  1  0  0  0  0  0  0
  191.5660  177.8700  142.2500 C   0  0  0  0  0  0  0  0  0  0  0  0
  188.1400  177.7580  139.9690 C   0  0  0  0  0  0  0  0  0  0  0  0
  186.4490  178.0840  140.3360 Cl  0  0  0  0  0  0  0  0  0  0  0  0
  189.1970  177.8410  140.8930 C   0  0  0  0  0  0  0  0  0  0  0  0
  191.4990  178.2010  143.6180 C   0  0  2  0  0  3  0  0  0  0  0  0
  188.5710  177.4020  138.6930 C   0  0  0  0  0  0  0  0  0  0  0  0
  190.4900  177.5360  140.2780 C   0  0  0  0  0  0  0  0  0  0  0  0
  189.0640  178.1800  142.2880 C   0  0  0  0  0  0  0  0  0  0  0  0
  191.7660  177.5340  140.9400 C   0  0  0  0  0  3  0  0  0  0  0  0
  192.0420  174.7260  146.0420 N   0  0  0  0  0  0  0  0  0  0  0  0
  191.6420  176.9750  144.4750 C   0  0  0  0  0  0  0  0  0  0  0  0
  191.8170  175.7190  143.8820 C   0  0  0  0  0  3  0  0  0  0  0  0
  192.0080  174.5960  144.6890 C   0  0  0  0  0  3  0  0  0  0  0  0
  191.8910  175.9350  146.6440 C   0  0  0  0  0  3  0  0  0  0  0  0
  191.6970  177.0820  145.8730 C   0  0  0  0  0  3  0  0  0  0  0  0
  187.8550  178.4560  142.9290 O   0  0  0  0  0  0  0  0  0  0  0  0
  184.8360  178.2510  142.9160 O   0  0  0  0  0  1  0  0  0  0  0  0
  188.5610  177.5370  147.1630 C   0  0  0  0  0  1  0  0  0  0  0  0
  187.7390  177.9920  145.9760 C   0  0  1  0  0  3  0  0  0  0  0  0
  185.7360  178.0210  143.9470 C   0  0  0  0  0  0  0  0  0  0  0  0
  187.8620  176.9750  144.8490 C   0  0  0  0  0  2  0  0  0  0  0  0
  186.2730  178.0950  146.3820 C   0  0  0  0  0  2  0  0  0  0  0  0
  185.3880  178.3560  145.1950 C   0  0  0  0  0  3  0  0  0  0  0  0
  187.0980  177.4630  143.6120 C   0  0  2  0  0  3  0  0  0  0  0  0
  1  8  1  0  0  0  0
  2  9  1  0  0  0  0
  2 10  1  0  0  0  0
  3  9  1  0  0  0  0
  4  1  2  0  0  0  0
  4  8  1  0  0  0  0
  5  6  1  0  0  0  0
  5  7  1  0  0  0  0
  7 11  2  0  0  0  0
  8 14  1  1  0  0  0
  9  5  2  0  0  0  0
 10  7  1  0  0  0  0
 10 12  2  0  0  0  0
 11  1  1  0  0  0  0
 11 19  1  0  0  0  0
 12  4  1  0  0  0  0
 13 17  1  0  0  0  0
 14 18  1  0  0  0  0
 15 14  2  0  0  0  0
 15 16  1  0  0  0  0
 16 13  2  0  0  0  0
 18 17  2  0  0  0  0
 20 23  1  0  0  0  0
 22 25  1  0  0  0  0
 22 21  1  1  0  0  0
 23 26  2  0  0  0  0
 24 22  1  0  0  0  0
 26 25  1  0  0  0  0
 27 19  1  1  0  0  0
 27 23  1  0  0  0  0
 27 24  1  0  0  0  0
M  END
>  <MODEL>
1

>  <REMARK>
 VINA RESULT:      -8.4      0.000      0.000
  Name = 
  3 active torsions:
  status: ('A' for Active; 'I' for Inactive)
    1  A    between atoms: O_3  and  C_19
    2  A    between atoms: O_3  and  C_26
    3  A    between atoms: C_9  and  C_15
                            x       y       z     vdW  Elec       q    Type
                         _______ _______ _______ _____ _____    ______ ____

>  <TORSDO>
F 3

$$$$
=
 OpenBabel10272401093D

 27 31  0  0  1  0  0  0  0  0999 V2000
  184.9450  178.7570  142.3240 C   0  0  0  0  0  0  0  0  0  0  0  0
  185.1290  178.4150  146.6580 S   0  0  0  0  0  0  0  0  0  0  0  0
  187.4700  177.2850  147.5500 N   0  0  0  0  0  1  0  0  0  0  0  0
  183.8020  179.2420  143.0940 C   0  0  0  0  0  0  0  0  0  0  0  0
  187.0070  177.6440  145.1250 C   0  0  0  0  0  0  0  0  0  0  0  0
  188.5540  176.9930  144.5930 Cl  0  0  0  0  0  0  0  0  0  0  0  0
  186.0090  178.1510  144.2730 C   0  0  0  0  0  0  0  0  0  0  0  0
  183.8170  179.3180  141.6870 C   0  0  2  0  0  3  0  0  0  0  0  0
  186.6550  177.7250  146.4700 C   0  0  0  0  0  0  0  0  0  0  0  0
  184.8490  178.6430  145.0180 C   0  0  0  0  0  0  0  0  0  0  0  0
  186.0800  178.1960  142.8340 C   0  0  0  0  0  0  0  0  0  0  0  0
  183.6610  179.2240  144.4540 C   0  0  0  0  0  3  0  0  0  0  0  0
  181.3250  176.3690  139.8590 N   0  0  0  0  0  0  0  0  0  0  0  0
  182.9490  178.2510  141.0810 C   0  0  0  0  0  0  0  0  0  0  0  0
  181.5610  178.2910  141.2590 C   0  0  0  0  0  3  0  0  0  0  0  0
  180.7590  177.3280  140.6420 C   0  0  0  0  0  3  0  0  0  0  0  0
  182.6670  176.3180  139.6560 C   0  0  0  0  0  3  0  0  0  0  0  0
  183.5030  177.2620  140.2560 C   0  0  0  0  0  3  0  0  0  0  0  0
  187.1510  177.7200  142.0750 O   0  0  0  0  0  0  0  0  0  0  0  0
  186.7480  178.4420  139.1630 O   0  0  0  0  0  1  0  0  0  0  0  0
  191.5060  177.1700  142.0210 C   0  0  0  0  0  1  0  0  0  0  0  0
  190.1250  177.2490  141.4060 C   0  0  1  0  0  3  0  0  0  0  0  0
  187.9210  178.1870  139.8600 C   0  0  0  0  0  0  0  0  0  0  0  0
  189.4310  178.5220  141.8690 C   0  0  0  0  0  2  0  0  0  0  0  0
  190.2460  177.2830  139.8870 C   0  0  0  0  0  2  0  0  0  0  0  0
  188.9200  177.5550  139.2330 C   0  0  0  0  0  3  0  0  0  0  0  0
  188.0000  178.5750  141.3170 C   0  0  2  0  0  3  0  0  0  0  0  0
  1 11  2  0  0  0  0
  1  4  1  0  0  0  0
  4 12  2  0  0  0  0
  5  9  2  0  0  0  0
  6  5  1  0  0  0  0
  7 10  2  0  0  0  0
  7  5  1  0  0  0  0
  8 14  1  6  0  0  0
  8  1  1  0  0  0  0
  8  4  1  0  0  0  0
  9  2  1  0  0  0  0
  9  3  1  0  0  0  0
 10  2  1  0  0  0  0
 11  7  1  0  0  0  0
 12 10  1  0  0  0  0
 13 16  1  0  0  0  0
 14 15  1  0  0  0  0
 16 15  2  0  0  0  0
 17 13  2  0  0  0  0
 17 18  1  0  0  0  0
 18 14  2  0  0  0  0
 19 11  1  0  0  0  0
 20 23  1  0  0  0  0
 22 24  1  0  0  0  0
 22 21  1  1  0  0  0
 23 27  1  0  0  0  0
 25 22  1  0  0  0  0
 26 23  2  0  0  0  0
 26 25  1  0  0  0  0
 27 24  1  0  0  0  0
 27 19  1  1  0  0  0
M  END
>  <MODEL>
2

>  <REMARK>
 VINA RESULT:      -8.3      3.700      7.719
  Name = 
  3 active torsions:
  status: ('A' for Active; 'I' for Inactive)
    1  A    between atoms: O_3  and  C_19
    2  A    between atoms: O_3  and  C_26
    3  A    between atoms: C_9  and  C_15
                            x       y       z     vdW  Elec       q    Type
                         _______ _______ _______ _____ _____    ______ ____

>  <TORSDO>
F 3

$$$$
=
 OpenBabel10272401093D

 27 31  0  0  1  0  0  0  0  0999 V2000
  187.5720  178.9180  141.8480 C   0  0  0  0  0  0  0  0  0  0  0  0
  184.9450  177.8970  138.5320 S   0  0  0  0  0  0  0  0  0  0  0  0
  182.2890  177.8560  139.2350 N   0  0  0  0  0  1  0  0  0  0  0  0
  188.1860  178.6550  140.5480 C   0  0  0  0  0  0  0  0  0  0  0  0
  184.0900  178.4020  140.8730 C   0  0  0  0  0  0  0  0  0  0  0  0
  182.9790  178.6690  142.2140 Cl  0  0  0  0  0  0  0  0  0  0  0  0
  185.4890  178.5300  140.9470 C   0  0  0  0  0  0  0  0  0  0  0  0
  188.9690  178.9910  141.6700 C   0  0  2  0  0  3  0  0  0  0  0  0
  183.6500  178.0540  139.5980 C   0  0  0  0  0  0  0  0  0  0  0  0
  186.1330  178.2690  139.6590 C   0  0  0  0  0  0  0  0  0  0  0  0
  186.2370  178.8720  142.1310 C   0  0  0  0  0  0  0  0  0  0  0  0
  187.5440  178.3180  139.3890 C   0  0  0  0  0  3  0  0  0  0  0  0
  190.8670  175.5740  143.3950 N   0  0  0  0  0  0  0  0  0  0  0  0
  189.6520  177.7760  142.2330 C   0  0  0  0  0  0  0  0  0  0  0  0
  190.9250  177.8880  142.8060 C   0  0  0  0  0  3  0  0  0  0  0  0
  191.5240  176.7640  143.3790 C   0  0  0  0  0  3  0  0  0  0  0  0
  189.6240  175.4410  142.8610 C   0  0  0  0  0  3  0  0  0  0  0  0
  188.9900  176.5410  142.2790 C   0  0  0  0  0  3  0  0  0  0  0  0
  185.6750  179.1080  143.3870 O   0  0  0  0  0  0  0  0  0  0  0  0
  183.4410  179.1570  145.4280 O   0  0  0  0  0  1  0  0  0  0  0  0
  188.8120  177.3230  145.8860 C   0  0  0  0  0  1  0  0  0  0  0  0
  187.5180  178.0670  145.6300 C   0  0  1  0  0  3  0  0  0  0  0  0
  184.7310  178.6570  145.5370 C   0  0  0  0  0  0  0  0  0  0  0  0
  186.6650  177.2840  144.6420 C   0  0  0  0  0  2  0  0  0  0  0  0
  186.7460  178.2080  146.9370 C   0  0  0  0  0  2  0  0  0  0  0  0
  185.3700  178.7680  146.7070 C   0  0  0  0  0  3  0  0  0  0  0  0
  185.3870  178.0660  144.3130 C   0  0  2  0  0  3  0  0  0  0  0  0
  1 11  1  0  0  0  0
  2  9  1  0  0  0  0
  2 10  1  0  0  0  0
  3  9  1  0  0  0  0
  4  8  1  0  0  0  0
  4  1  2  0  0  0  0
  5  7  1  0  0  0  0
  5  6  1  0  0  0  0
  7 11  2  0  0  0  0
  8  1  1  0  0  0  0
  8 14  1  1  0  0  0
  9  5  2  0  0  0  0
 10  7  1  0  0  0  0
 11 19  1  0  0  0  0
 12 10  2  0  0  0  0
 12  4  1  0  0  0  0
 14 18  2  0  0  0  0
 14 15  1  0  0  0  0
 15 16  2  0  0  0  0
 16 13  1  0  0  0  0
 17 13  2  0  0  0  0
 18 17  1  0  0  0  0
 20 23  1  0  0  0  0
 22 21  1  1  0  0  0
 22 25  1  0  0  0  0
 23 26  2  0  0  0  0
 24 22  1  0  0  0  0
 26 25  1  0  0  0  0
 27 19  1  6  0  0  0
 27 24  1  0  0  0  0
 27 23  1  0  0  0  0
M  END
>  <MODEL>
3

>  <REMARK>
 VINA RESULT:      -8.1      2.508      3.440
  Name = 
  3 active torsions:
  status: ('A' for Active; 'I' for Inactive)
    1  A    between atoms: O_3  and  C_19
    2  A    between atoms: O_3  and  C_26
    3  A    between atoms: C_9  and  C_15
                            x       y       z     vdW  Elec       q    Type
                         _______ _______ _______ _____ _____    ______ ____

>  <TORSDO>
F 3

$$$$
=
 OpenBabel10272401093D

 27 31  0  0  1  0  0  0  0  0999 V2000
  188.7790  177.9550  140.6230 C   0  0  0  0  0  0  0  0  0  0  0  0
  184.5380  178.8560  140.9840 S   0  0  0  0  0  0  0  0  0  0  0  0
  183.5610  178.4450  143.5200 N   0  0  0  0  0  1  0  0  0  0  0  0
  188.0790  178.4250  139.4300 C   0  0  0  0  0  0  0  0  0  0  0  0
  185.9510  178.0350  142.9320 C   0  0  0  0  0  0  0  0  0  0  0  0
  186.4090  177.5450  144.5610 Cl  0  0  0  0  0  0  0  0  0  0  0  0
  186.8270  178.1050  141.8340 C   0  0  0  0  0  0  0  0  0  0  0  0
  189.4530  178.1120  139.3940 C   0  0  2  0  0  3  0  0  0  0  0  0
  184.6520  178.4200  142.6070 C   0  0  0  0  0  0  0  0  0  0  0  0
  186.1520  178.5710  140.6220 C   0  0  0  0  0  0  0  0  0  0  0  0
  188.2270  177.7640  141.8580 C   0  0  0  0  0  0  0  0  0  0  0  0
  186.7570  178.7570  139.3310 C   0  0  0  0  0  3  0  0  0  0  0  0
  190.1430  174.4060  137.3860 N   0  0  0  0  0  0  0  0  0  0  0  0
  189.6850  176.7850  138.7280 C   0  0  0  0  0  0  0  0  0  0  0  0
  188.6730  176.1980  137.9580 C   0  0  0  0  0  3  0  0  0  0  0  0
  188.9210  174.9940  137.2960 C   0  0  0  0  0  3  0  0  0  0  0  0
  191.1490  174.9610  138.1120 C   0  0  0  0  0  3  0  0  0  0  0  0
  190.9410  176.1650  138.7890 C   0  0  0  0  0  3  0  0  0  0  0  0
  188.9140  177.2940  142.9790 O   0  0  0  0  0  0  0  0  0  0  0  0
  191.8280  177.0760  142.1920 O   0  0  0  0  0  1  0  0  0  0  0  0
  189.4140  177.4080  147.3390 C   0  0  0  0  0  1  0  0  0  0  0  0
  189.8330  177.0980  145.9170 C   0  0  1  0  0  3  0  0  0  0  0  0
  191.2560  177.2110  143.4490 C   0  0  0  0  0  0  0  0  0  0  0  0
  189.6390  178.3320  145.0470 C   0  0  0  0  0  2  0  0  0  0  0  0
  191.3070  176.7110  145.8930 C   0  0  0  0  0  2  0  0  0  0  0  0
  191.8210  176.5810  144.4860 C   0  0  0  0  0  3  0  0  0  0  0  0
  189.9830  178.0100  143.5870 C   0  0  2  0  0  3  0  0  0  0  0  0
  1 11  1  0  0  0  0
  2  9  1  0  0  0  0
  4  1  2  0  0  0  0
  5  6  1  0  0  0  0
  7 11  2  0  0  0  0
  7  5  1  0  0  0  0
  8 14  1  6  0  0  0
  8  4  1  0  0  0  0
  8  1  1  0  0  0  0
  9  5  2  0  0  0  0
  9  3  1  0  0  0  0
 10  2  1  0  0  0  0
 10  7  1  0  0  0  0
 11 19  1  0  0  0  0
 12  4  1  0  0  0  0
 12 10  2  0  0  0  0
 13 17  1  0  0  0  0
 14 18  1  0  0  0  0
 15 14  2  0  0  0  0
 16 13  2  0  0  0  0
 16 15  1  0  0  0  0
 17 18  2  0  0  0  0
 20 23  1  0  0  0  0
 22 21  1  1  0  0  0
 23 27  1  0  0  0  0
 23 26  2  0  0  0  0
 24 22  1  0  0  0  0
 25 22  1  0  0  0  0
 26 25  1  0  0  0  0
 27 19  1  1  0  0  0
 27 24  1  0  0  0  0
M  END
>  <MODEL>
4

>  <REMARK>
 VINA RESULT:      -8.0      2.888      5.419
  Name = 
  3 active torsions:
  status: ('A' for Active; 'I' for Inactive)
    1  A    between atoms: O_3  and  C_19
    2  A    between atoms: O_3  and  C_26
    3  A    between atoms: C_9  and  C_15
                            x       y       z     vdW  Elec       q    Type
                         _______ _______ _______ _____ _____    ______ ____

>  <TORSDO>
F 3

$$$$
=
 OpenBabel10272401093D

 27 31  0  0  1  0  0  0  0  0999 V2000
  188.5300  178.3390  139.3780 C   0  0  0  0  0  0  0  0  0  0  0  0
  184.1910  178.4410  139.0680 S   0  0  0  0  0  0  0  0  0  0  0  0
  182.9400  178.6230  141.5100 N   0  0  0  0  0  1  0  0  0  0  0  0
  187.9410  178.2810  138.0420 C   0  0  0  0  0  0  0  0  0  0  0  0
  185.4250  178.5420  141.2900 C   0  0  0  0  0  0  0  0  0  0  0  0
  185.7180  178.6650  143.0220 Cl  0  0  0  0  0  0  0  0  0  0  0  0
  186.4260  178.4530  140.3060 C   0  0  0  0  0  0  0  0  0  0  0  0
  189.3380  178.2520  138.2250 C   0  0  2  0  0  3  0  0  0  0  0  0
  184.1410  178.5440  140.7500 C   0  0  0  0  0  0  0  0  0  0  0  0
  185.8650  178.3900  138.9560 C   0  0  0  0  0  0  0  0  0  0  0  0
  187.8450  178.4220  140.5570 C   0  0  0  0  0  0  0  0  0  0  0  0
  186.6100  178.2970  137.7300 C   0  0  0  0  0  3  0  0  0  0  0  0
  190.8950  174.3280  137.5780 N   0  0  0  0  0  0  0  0  0  0  0  0
  189.8760  176.8610  138.0430 C   0  0  0  0  0  0  0  0  0  0  0  0
  189.0650  175.8600  137.4940 C   0  0  0  0  0  3  0  0  0  0  0  0
  189.5950  174.5860  137.2760 C   0  0  0  0  0  3  0  0  0  0  0  0
  191.7090  175.2850  138.0950 C   0  0  0  0  0  3  0  0  0  0  0  0
  191.2180  176.5700  138.3300 C   0  0  0  0  0  3  0  0  0  0  0  0
  188.4310  178.4560  141.8240 O   0  0  0  0  0  0  0  0  0  0  0  0
  187.6500  175.8810  143.2100 O   0  0  0  0  0  1  0  0  0  0  0  0
  191.9220  179.4920  144.2750 C   0  0  0  0  0  1  0  0  0  0  0  0
  190.6090  178.7970  143.9800 C   0  0  1  0  0  3  0  0  0  0  0  0
  188.7270  176.7250  143.4450 C   0  0  0  0  0  0  0  0  0  0  0  0
  190.6910  178.1030  142.6280 C   0  0  0  0  0  2  0  0  0  0  0  0
  190.3370  177.7490  145.0520 C   0  0  0  0  0  2  0  0  0  0  0  0
  189.1460  176.9000  144.7040 C   0  0  0  0  0  3  0  0  0  0  0  0
  189.3420  177.4620  142.2810 C   0  0  2  0  0  3  0  0  0  0  0  0
  1 11  1  0  0  0  0
  2  9  1  0  0  0  0
  4  8  1  0  0  0  0
  4  1  2  0  0  0  0
  5  6  1  0  0  0  0
  7 11  2  0  0  0  0
  7  5  1  0  0  0  0
  8 14  1  1  0  0  0
  8  1  1  0  0  0  0
  9  5  2  0  0  0  0
  9  3  1  0  0  0  0
 10  2  1  0  0  0  0
 10  7  1  0  0  0  0
 11 19  1  0  0  0  0
 12  4  1  0  0  0  0
 12 10  2  0  0  0  0
 13 17  1  0  0  0  0
 14 18  1  0  0  0  0
 15 14  2  0  0  0  0
 16 15  1  0  0  0  0
 16 13  2  0  0  0  0
 17 18  2  0  0  0  0
 20 23  1  0  0  0  0
 22 21  1  1  0  0  0
 22 25  1  0  0  0  0
 23 26  2  0  0  0  0
 24 22  1  0  0  0  0
 26 25  1  0  0  0  0
 27 19  1  1  0  0  0
 27 24  1  0  0  0  0
 27 23  1  0  0  0  0
M  END
>  <MODEL>
5

>  <REMARK>
 VINA RESULT:      -7.8      3.081      5.278
  Name = 
  3 active torsions:
  status: ('A' for Active; 'I' for Inactive)
    1  A    between atoms: O_3  and  C_19
    2  A    between atoms: O_3  and  C_26
    3  A    between atoms: C_9  and  C_15
                            x       y       z     vdW  Elec       q    Type
                         _______ _______ _______ _____ _____    ______ ____

>  <TORSDO>
F 3

$$$$
=
 OpenBabel10272401093D

 27 31  0  0  1  0  0  0  0  0999 V2000
  190.2730  176.8740  140.1080 C   0  0  0  0  0  0  0  0  0  0  0  0
  186.4670  178.7710  141.0300 S   0  0  0  0  0  0  0  0  0  0  0  0
  185.6190  178.2910  143.6010 N   0  0  0  0  0  1  0  0  0  0  0  0
  189.6310  177.6600  139.0560 C   0  0  0  0  0  0  0  0  0  0  0  0
  187.7600  177.3670  142.7120 C   0  0  0  0  0  0  0  0  0  0  0  0
  188.1990  176.5670  144.2180 Cl  0  0  0  0  0  0  0  0  0  0  0  0
  188.5330  177.3560  141.5370 C   0  0  0  0  0  0  0  0  0  0  0  0
  190.8640  177.0150  138.8350 C   0  0  2  0  0  3  0  0  0  0  0  0
  186.5890  178.1090  142.5750 C   0  0  0  0  0  0  0  0  0  0  0  0
  187.9130  178.1340  140.4640 C   0  0  0  0  0  0  0  0  0  0  0  0
  189.7900  176.6690  141.3690 C   0  0  0  0  0  0  0  0  0  0  0  0
  188.4410  178.3280  139.1410 C   0  0  0  0  0  3  0  0  0  0  0  0
  190.3580  173.5580  136.3770 N   0  0  0  0  0  0  0  0  0  0  0  0
  190.6810  175.7720  138.0100 C   0  0  0  0  0  0  0  0  0  0  0  0
  189.4250  175.4640  137.4740 C   0  0  0  0  0  3  0  0  0  0  0  0
  189.2810  174.3380  136.6600 C   0  0  0  0  0  3  0  0  0  0  0  0
  191.5920  173.8440  136.8700 C   0  0  0  0  0  3  0  0  0  0  0  0
  191.7790  174.9600  137.6880 C   0  0  0  0  0  3  0  0  0  0  0  0
  190.4120  175.8960  142.3500 O   0  0  0  0  0  0  0  0  0  0  0  0
  191.9770  174.1700  144.2820 O   0  0  0  0  0  1  0  0  0  0  0  0
  191.0890  179.7950  144.2510 C   0  0  0  0  0  1  0  0  0  0  0  0
  191.0100  178.2830  144.2090 C   0  0  1  0  0  3  0  0  0  0  0  0
  191.8130  175.5480  144.2560 C   0  0  0  0  0  0  0  0  0  0  0  0
  191.8070  177.7620  143.0220 C   0  0  0  0  0  2  0  0  0  0  0  0
  191.6080  177.7070  145.4880 C   0  0  0  0  0  2  0  0  0  0  0  0
  191.7300  176.2110  145.4150 C   0  0  0  0  0  3  0  0  0  0  0  0
  191.6710  176.2380  142.9210 C   0  0  2  0  0  3  0  0  0  0  0  0
  1 11  1  0  0  0  0
  2  9  1  0  0  0  0
  4 12  1  0  0  0  0
  4  1  2  0  0  0  0
  5  6  1  0  0  0  0
  7  5  1  0  0  0  0
  8 14  1  6  0  0  0
  8  4  1  0  0  0  0
  8  1  1  0  0  0  0
  9  5  2  0  0  0  0
  9  3  1  0  0  0  0
 10  2  1  0  0  0  0
 10  7  1  0  0  0  0
 11  7  2  0  0  0  0
 11 19  1  0  0  0  0
 12 10  2  0  0  0  0
 13 16  2  0  0  0  0
 13 17  1  0  0  0  0
 15 14  2  0  0  0  0
 16 15  1  0  0  0  0
 17 18  2  0  0  0  0
 18 14  1  0  0  0  0
 22 21  1  1  0  0  0
 22 25  1  0  0  0  0
 23 20  1  0  0  0  0
 23 26  2  0  0  0  0
 24 22  1  0  0  0  0
 26 25  1  0  0  0  0
 27 19  1  1  0  0  0
 27 24  1  0  0  0  0
 27 23  1  0  0  0  0
M  END
>  <MODEL>
6

>  <REMARK>
 VINA RESULT:      -7.7      3.020      5.760
  Name = 
  3 active torsions:
  status: ('A' for Active; 'I' for Inactive)
    1  A    between atoms: O_3  and  C_19
    2  A    between atoms: O_3  and  C_26
    3  A    between atoms: C_9  and  C_15
                            x       y       z     vdW  Elec       q    Type
                         _______ _______ _______ _____ _____    ______ ____

>  <TORSDO>
F 3

$$$$
=
 OpenBabel10272401093D

 27 31  0  0  1  0  0  0  0  0999 V2000
  185.0680  178.5430  141.0710 C   0  0  0  0  0  0  0  0  0  0  0  0
  183.3470  179.0050  145.0400 S   0  0  0  0  0  0  0  0  0  0  0  0
  185.1060  178.3760  147.0570 N   0  0  0  0  0  1  0  0  0  0  0  0
  183.6830  179.0010  141.1640 C   0  0  0  0  0  0  0  0  0  0  0  0
  185.7380  178.2330  144.6470 C   0  0  0  0  0  0  0  0  0  0  0  0
  187.3890  177.7120  144.9700 Cl  0  0  0  0  0  0  0  0  0  0  0  0
  185.1940  178.4420  143.3670 C   0  0  0  0  0  0  0  0  0  0  0  0
  184.3110  178.8260  139.9140 C   0  0  2  0  0  3  0  0  0  0  0  0
  184.8290  178.5040  145.6670 C   0  0  0  0  0  0  0  0  0  0  0  0
  183.8050  178.8990  143.4290 C   0  0  0  0  0  0  0  0  0  0  0  0
  185.8880  178.2400  142.1200 C   0  0  0  0  0  0  0  0  0  0  0  0
  182.9610  179.2050  142.3060 C   0  0  0  0  0  3  0  0  0  0  0  0
  182.8750  175.3020  137.9730 N   0  0  0  0  0  0  0  0  0  0  0  0
  183.8440  177.5620  139.2490 C   0  0  0  0  0  0  0  0  0  0  0  0
  182.8760  176.7600  139.8650 C   0  0  0  0  0  3  0  0  0  0  0  0
  182.4070  175.6200  139.2100 C   0  0  0  0  0  3  0  0  0  0  0  0
  183.8020  176.0720  137.3450 C   0  0  0  0  0  3  0  0  0  0  0  0
  184.2970  177.2200  137.9660 C   0  0  0  0  0  3  0  0  0  0  0  0
  187.2030  177.7850  142.0040 O   0  0  0  0  0  0  0  0  0  0  0  0
  187.7330  178.4200  139.0930 O   0  0  0  0  0  1  0  0  0  0  0  0
  191.3480  177.1700  143.3110 C   0  0  0  0  0  1  0  0  0  0  0  0
  190.2260  177.2490  142.2970 C   0  0  1  0  0  3  0  0  0  0  0  0
  188.6280  178.1700  140.1240 C   0  0  0  0  0  0  0  0  0  0  0  0
  189.4530  178.5460  142.4910 C   0  0  0  0  0  2  0  0  0  0  0  0
  190.8100  177.2340  140.8890 C   0  0  0  0  0  2  0  0  0  0  0  0
  189.7560  177.5040  139.8520 C   0  0  0  0  0  3  0  0  0  0  0  0
  188.2640  178.6020  141.5240 C   0  0  2  0  0  3  0  0  0  0  0  0
  1  4  2  0  0  0  0
  1 11  1  0  0  0  0
  2  9  1  0  0  0  0
  4 12  1  0  0  0  0
  5  6  1  0  0  0  0
  5  9  2  0  0  0  0
  7 10  1  0  0  0  0
  7  5  1  0  0  0  0
  8 14  1  6  0  0  0
  8  1  1  0  0  0  0
  8  4  1  0  0  0  0
  9  3  1  0  0  0  0
 10  2  1  0  0  0  0
 11  7  2  0  0  0  0
 12 10  2  0  0  0  0
 13 16  1  0  0  0  0
 14 15  1  0  0  0  0
 16 15  2  0  0  0  0
 17 18  1  0  0  0  0
 17 13  2  0  0  0  0
 18 14  2  0  0  0  0
 19 11  1  0  0  0  0
 20 23  1  0  0  0  0
 22 24  1  0  0  0  0
 22 21  1  1  0  0  0
 23 27  1  0  0  0  0
 25 22  1  0  0  0  0
 26 23  2  0  0  0  0
 26 25  1  0  0  0  0
 27 19  1  1  0  0  0
 27 24  1  0  0  0  0
M  END
>  <MODEL>
7

>  <REMARK>
 VINA RESULT:      -7.7      3.918      7.631
  Name = 
  3 active torsions:
  status: ('A' for Active; 'I' for Inactive)
    1  A    between atoms: O_3  and  C_19
    2  A    between atoms: O_3  and  C_26
    3  A    between atoms: C_9  and  C_15
                            x       y       z     vdW  Elec       q    Type
                         _______ _______ _______ _____ _____    ______ ____

>  <TORSDO>
F 3

$$$$
=
 OpenBabel10272401093D

 27 31  0  0  1  0  0  0  0  0999 V2000
  188.2370  176.4920  143.6080 C   0  0  0  0  0  0  0  0  0  0  0  0
  190.6390  177.4040  147.1200 S   0  0  0  0  0  0  0  0  0  0  0  0
  189.1760  178.5090  149.1670 N   0  0  0  0  0  1  0  0  0  0  0  0
  189.6640  176.1810  143.5570 C   0  0  0  0  0  0  0  0  0  0  0  0
  188.1380  177.8540  146.9950 C   0  0  0  0  0  0  0  0  0  0  0  0
  186.5130  178.3380  147.4690 Cl  0  0  0  0  0  0  0  0  0  0  0  0
  188.4830  177.2940  145.7520 C   0  0  0  0  0  0  0  0  0  0  0  0
  188.8200  175.9150  142.4600 C   0  0  2  0  0  3  0  0  0  0  0  0
  189.2310  177.9750  147.8500 C   0  0  0  0  0  0  0  0  0  0  0  0
  189.9090  176.9740  145.6700 C   0  0  0  0  0  0  0  0  0  0  0  0
  187.5720  177.0510  144.6610 C   0  0  0  0  0  0  0  0  0  0  0  0
  190.5860  176.3900  144.5440 C   0  0  0  0  0  3  0  0  0  0  0  0
  189.3020  178.7350  139.2870 N   0  0  0  0  0  0  0  0  0  0  0  0
  189.0090  176.9380  141.3750 C   0  0  0  0  0  0  0  0  0  0  0  0
  190.1210  176.8640  140.5270 C   0  0  0  0  0  3  0  0  0  0  0  0
  190.2550  177.7850  139.4850 C   0  0  0  0  0  3  0  0  0  0  0  0
  188.2050  178.8190  140.0850 C   0  0  0  0  0  3  0  0  0  0  0  0
  188.0340  177.9170  141.1370 C   0  0  0  0  0  3  0  0  0  0  0  0
  186.2100  177.3590  144.6780 O   0  0  0  0  0  0  0  0  0  0  0  0
  184.2740  178.9270  146.3960 O   0  0  0  0  0  1  0  0  0  0  0  0
  184.5020  178.2880  140.7430 C   0  0  0  0  0  1  0  0  0  0  0  0
  184.4780  178.1410  142.2500 C   0  0  1  0  0  3  0  0  0  0  0  0
  184.3510  178.8240  145.0150 C   0  0  0  0  0  0  0  0  0  0  0  0
  185.6750  178.8630  142.8530 C   0  0  0  0  0  2  0  0  0  0  0  0
  183.2020  178.7670  142.8010 C   0  0  0  0  0  2  0  0  0  0  0  0
  183.2180  178.8200  144.3030 C   0  0  0  0  0  3  0  0  0  0  0  0
  185.7070  178.6540  144.3720 C   0  0  2  0  0  3  0  0  0  0  0  0
  1 11  1  0  0  0  0
  2  9  1  0  0  0  0
  4  1  2  0  0  0  0
  4 12  1  0  0  0  0
  5  6  1  0  0  0  0
  5  9  2  0  0  0  0
  7  5  1  0  0  0  0
  8 14  1  6  0  0  0
  8  4  1  0  0  0  0
  8  1  1  0  0  0  0
  9  3  1  0  0  0  0
 10  7  1  0  0  0  0
 10  2  1  0  0  0  0
 11 19  1  0  0  0  0
 11  7  2  0  0  0  0
 12 10  2  0  0  0  0
 13 16  2  0  0  0  0
 13 17  1  0  0  0  0
 15 14  2  0  0  0  0
 16 15  1  0  0  0  0
 17 18  2  0  0  0  0
 18 14  1  0  0  0  0
 22 21  1  6  0  0  0
 22 25  1  0  0  0  0
 22 24  1  0  0  0  0
 23 20  1  0  0  0  0
 24 27  1  0  0  0  0
 25 26  1  0  0  0  0
 26 23  2  0  0  0  0
 27 19  1  6  0  0  0
 27 23  1  0  0  0  0
M  END
>  <MODEL>
8

>  <REMARK>
 VINA RESULT:      -7.6      2.981      5.766
  Name = 
  3 active torsions:
  status: ('A' for Active; 'I' for Inactive)
    1  A    between atoms: O_3  and  C_19
    2  A    between atoms: O_3  and  C_26
    3  A    between atoms: C_9  and  C_15
                            x       y       z     vdW  Elec       q    Type
                         _______ _______ _______ _____ _____    ______ ____

>  <TORSDO>
F 3

$$$$
=
 OpenBabel10272401093D

 27 31  0  0  1  0  0  0  0  0999 V2000
  187.5590  178.9820  141.4610 C   0  0  0  0  0  0  0  0  0  0  0  0
  186.1410  177.7860  137.5250 S   0  0  0  0  0  0  0  0  0  0  0  0
  183.3990  177.6790  137.3540 N   0  0  0  0  0  1  0  0  0  0  0  0
  188.5590  178.7030  140.4320 C   0  0  0  0  0  0  0  0  0  0  0  0
  184.5770  178.3280  139.4560 C   0  0  0  0  0  0  0  0  0  0  0  0
  183.0930  178.5960  140.3660 Cl  0  0  0  0  0  0  0  0  0  0  0  0
  185.8770  178.5030  139.9630 C   0  0  0  0  0  0  0  0  0  0  0  0
  188.9390  179.0950  141.7320 C   0  0  2  0  0  3  0  0  0  0  0  0
  184.5710  177.9310  138.1210 C   0  0  0  0  0  0  0  0  0  0  0  0
  186.9020  178.2270  138.9550 C   0  0  0  0  0  0  0  0  0  0  0  0
  186.2040  178.9020  141.3090 C   0  0  0  0  0  0  0  0  0  0  0  0
  188.3240  178.3130  139.1430 C   0  0  0  0  0  3  0  0  0  0  0  0
  190.4640  175.7560  143.9160 N   0  0  0  0  0  0  0  0  0  0  0  0
  189.4340  177.9190  142.5260 C   0  0  0  0  0  0  0  0  0  0  0  0
  189.3120  176.6230  142.0110 C   0  0  0  0  0  3  0  0  0  0  0  0
  189.8300  175.5440  142.7320 C   0  0  0  0  0  3  0  0  0  0  0  0
  190.6120  177.0050  144.4300 C   0  0  0  0  0  3  0  0  0  0  0  0
  190.1080  178.1100  143.7410 C   0  0  0  0  0  3  0  0  0  0  0  0
  185.2680  179.1540  142.3150 O   0  0  0  0  0  0  0  0  0  0  0  0
  182.4570  178.9520  143.4160 O   0  0  0  0  0  1  0  0  0  0  0  0
  187.4840  178.1640  145.9730 C   0  0  0  0  0  1  0  0  0  0  0  0
  186.2830  178.6400  145.1810 C   0  0  1  0  0  3  0  0  0  0  0  0
  183.6730  178.7040  144.0370 C   0  0  0  0  0  0  0  0  0  0  0  0
  185.9750  177.6420  144.0740 C   0  0  0  0  0  2  0  0  0  0  0  0
  185.0730  178.7370  146.1020 C   0  0  0  0  0  2  0  0  0  0  0  0
  183.8140  179.0180  145.3300 C   0  0  0  0  0  3  0  0  0  0  0  0
  184.8110  178.1500  143.2140 C   0  0  2  0  0  3  0  0  0  0  0  0
  1  8  1  0  0  0  0
  2  9  1  0  0  0  0
  2 10  1  0  0  0  0
  3  9  1  0  0  0  0
  4  1  2  0  0  0  0
  4  8  1  0  0  0  0
  5  7  1  0  0  0  0
  5  6  1  0  0  0  0
  7 11  2  0  0  0  0
  8 14  1  1  0  0  0
  9  5  2  0  0  0  0
 10 12  2  0  0  0  0
 10  7  1  0  0  0  0
 11  1  1  0  0  0  0
 11 19  1  0  0  0  0
 12  4  1  0  0  0  0
 13 17  1  0  0  0  0
 14 18  1  0  0  0  0
 15 14  2  0  0  0  0
 15 16  1  0  0  0  0
 16 13  2  0  0  0  0
 18 17  2  0  0  0  0
 20 23  1  0  0  0  0
 22 21  1  1  0  0  0
 22 25  1  0  0  0  0
 23 26  2  0  0  0  0
 24 22  1  0  0  0  0
 26 25  1  0  0  0  0
 27 19  1  6  0  0  0
 27 23  1  0  0  0  0
 27 24  1  0  0  0  0
M  END
>  <MODEL>
9

>  <REMARK>
 VINA RESULT:      -7.4      2.257      3.099
  Name = 
  3 active torsions:
  status: ('A' for Active; 'I' for Inactive)
    1  A    between atoms: O_3  and  C_19
    2  A    between atoms: O_3  and  C_26
    3  A    between atoms: C_9  and  C_15
                            x       y       z     vdW  Elec       q    Type
                         _______ _______ _______ _____ _____    ______ ____

>  <TORSDO>
F 3

$$$$
