=
 OpenBabel10262423433D

 34 38  0  0  1  0  0  0  0  0999 V2000
  185.5540  178.1250  143.7570 C   0  0  0  0  0  0  0  0  0  0  0  0
  186.6860  178.6200  141.6320 C   0  0  0  0  0  0  0  0  0  0  0  0
  187.9950  177.9710  143.7400 C   0  0  0  0  0  0  0  0  0  0  0  0
  190.6000  177.9210  143.4190 C   0  0  2  0  0  0  0  0  0  0  0  0
  184.3240  178.2950  141.5650 C   0  0  0  0  0  3  0  0  0  0  0  0
  192.0030  175.3730  146.8910 C   0  0  0  0  0  3  0  0  0  0  0  0
  191.5740  176.7130  146.6320 N   0  0  0  0  0  0  0  0  0  0  0  0
  185.4450  178.4750  140.9370 N   0  0  0  0  0  0  0  0  0  0  0  0
  189.1920  176.9370  141.7380 C   0  0  0  0  0  2  0  0  0  0  0  0
  189.3050  177.4050  147.2730 C   0  0  0  0  0  2  0  0  0  0  0  0
  186.7710  178.2160  143.0540 C   0  0  0  0  0  0  0  0  0  0  0  0
  191.9560  177.3490  145.4370 N   0  0  0  0  0  2  0  0  0  0  0  0
  191.4140  177.8400  142.1450 C   0  0  0  0  0  2  0  0  0  0  0  0
  184.2320  178.3310  143.0670 C   0  0  0  0  0  2  0  0  0  0  0  0
  187.9440  177.8890  145.1540 C   0  0  0  0  0  0  0  0  0  0  0  0
  190.7880  177.4500  147.6220 C   0  0  0  0  0  2  0  0  0  0  0  0
  185.5570  177.9450  145.1010 N   0  0  0  0  0  0  0  0  0  0  0  0
  187.6630  179.1500  141.0420 O   0  0  0  0  0  0  0  0  0  0  0  0
  190.7100  179.2030  143.9670 O   0  0  0  0  0  1  0  0  0  0  0  0
  191.1120  176.8190  144.3670 C   0  0  0  0  0  2  0  0  0  0  0  0
  189.1390  177.9020  145.9210 N   0  0  0  0  0  2  0  0  0  0  0  0
  190.6290  176.8960  141.2460 C   0  0  2  0  0  3  0  0  0  0  0  0
  191.6900  174.7880  147.9620 O   0  0  0  0  0  0  0  0  0  0  0  0
  189.2180  177.6500  143.0090 N   0  0  0  0  0  0  0  0  0  0  0  0
  186.7090  177.8510  145.8060 C   0  0  0  0  0  3  0  0  0  0  0  0
  190.7480  177.2590  139.7680 C   0  0  0  0  0  2  0  0  0  0  0  0
  189.9740  176.3050  138.8660 C   0  0  0  0  0  2  0  0  0  0  0  0
  187.7170  175.1010  137.5950 F   0  0  0  0  0  0  0  0  0  0  0  0
  189.0290  177.0670  138.0020 C   0  0  0  0  0  0  0  0  0  0  0  0
  187.9390  176.4240  137.3940 C   0  0  0  0  0  0  0  0  0  0  0  0
  187.2870  178.5140  136.3550 C   0  0  0  0  0  3  0  0  0  0  0  0
  188.3750  179.1540  136.9570 C   0  0  0  0  0  3  0  0  0  0  0  0
  189.2450  178.4300  137.7770 C   0  0  0  0  0  3  0  0  0  0  0  0
  187.0700  177.1500  136.5730 C   0  0  0  0  0  3  0  0  0  0  0  0
  1 17  1  0  0  0  0
  2 11  1  0  0  0  0
  3 15  2  0  0  0  0
  4 19  1  1  0  0  0
  4 20  1  0  0  0  0
  5 14  1  0  0  0  0
  6 23  2  0  0  0  0
  7  6  1  0  0  0  0
  7 16  1  0  0  0  0
  8  5  2  0  0  0  0
  8  2  1  0  0  0  0
  9 24  1  0  0  0  0
 10 16  1  0  0  0  0
 11  3  1  0  0  0  0
 11  1  2  0  0  0  0
 12  7  1  0  0  0  0
 13  4  1  0  0  0  0
 14  1  1  0  0  0  0
 15 25  1  0  0  0  0
 15 21  1  0  0  0  0
 17 25  2  0  0  0  0
 18  2  2  0  0  0  0
 20 12  1  0  0  0  0
 21 10  1  0  0  0  0
 22 26  1  6  0  0  0
 22  9  1  0  0  0  0
 22 13  1  0  0  0  0
 24  4  1  0  0  0  0
 24  3  1  0  0  0  0
 27 26  1  0  0  0  0
 29 27  1  0  0  0  0
 30 28  1  0  0  0  0
 30 29  2  0  0  0  0
 31 34  2  0  0  0  0
 31 32  1  0  0  0  0
 32 33  2  0  0  0  0
 33 29  1  0  0  0  0
 34 30  1  0  0  0  0
M  END
>  <MODEL>
1

>  <REMARK>
 VINA RESULT:      -9.8      0.000      0.000
  Name = 
  3 active torsions:
  status: ('A' for Active; 'I' for Inactive)
    1  A    between atoms: C_3  and  C_13
    2  A    between atoms: C_3  and  C_17
    3  A    between atoms: C_17  and  C_29
                            x       y       z     vdW  Elec       q    Type
                         _______ _______ _______ _____ _____    ______ ____

>  <TORSDO>
F 3

$$$$
=
 OpenBabel10262423433D

 34 38  0  0  1  0  0  0  0  0999 V2000
  189.4600  177.6450  139.2890 C   0  0  0  0  0  0  0  0  0  0  0  0
  189.9400  177.9490  141.6810 C   0  0  0  0  0  0  0  0  0  0  0  0
  187.5570  178.1270  140.7480 C   0  0  0  0  0  0  0  0  0  0  0  0
  185.7320  178.6850  142.5510 C   0  0  2  0  0  0  0  0  0  0  0  0
  191.6690  177.0180  140.3250 C   0  0  0  0  0  3  0  0  0  0  0  0
  181.8860  177.3910  140.5400 C   0  0  0  0  0  3  0  0  0  0  0  0
  182.8060  178.4870  140.5200 N   0  0  0  0  0  0  0  0  0  0  0  0
  191.2220  177.3430  141.5000 N   0  0  0  0  0  0  0  0  0  0  0  0
  187.4080  177.0350  143.0480 C   0  0  0  0  0  2  0  0  0  0  0  0
  184.4120  178.6890  138.6710 C   0  0  0  0  0  2  0  0  0  0  0  0
  188.9520  177.8950  140.5780 C   0  0  0  0  0  0  0  0  0  0  0  0
  183.3900  178.9280  141.7210 N   0  0  0  0  0  2  0  0  0  0  0  0
  185.7910  178.5470  144.0570 C   0  0  0  0  0  2  0  0  0  0  0  0
  190.9190  177.3500  139.0630 C   0  0  0  0  0  2  0  0  0  0  0  0
  186.7860  178.3400  139.5780 C   0  0  0  0  0  0  0  0  0  0  0  0
  183.1030  179.1890  139.2720 C   0  0  0  0  0  2  0  0  0  0  0  0
  188.6530  177.7640  138.2050 N   0  0  0  0  0  0  0  0  0  0  0  0
  189.6990  178.5750  142.7450 O   0  0  0  0  0  0  0  0  0  0  0  0
  185.7750  180.0390  142.2010 O   0  0  0  0  0  1  0  0  0  0  0  0
  184.4490  177.9820  142.0710 C   0  0  0  0  0  2  0  0  0  0  0  0
  185.4540  178.8250  139.6710 N   0  0  0  0  0  2  0  0  0  0  0  0
  186.5710  177.2620  144.2960 C   0  0  2  0  0  3  0  0  0  0  0  0
  181.3360  176.9870  139.4800 O   0  0  0  0  0  0  0  0  0  0  0  0
  186.9230  177.9850  142.0560 N   0  0  0  0  0  0  0  0  0  0  0  0
  187.3530  178.1240  138.3200 C   0  0  0  0  0  3  0  0  0  0  0  0
  187.4200  177.3180  145.5640 C   0  0  0  0  0  2  0  0  0  0  0  0
  188.7060  178.1140  145.3730 C   0  0  0  0  0  2  0  0  0  0  0  0
  189.2900  177.9530  148.1650 F   0  0  0  0  0  0  0  0  0  0  0  0
  189.8670  177.3530  145.9160 C   0  0  0  0  0  0  0  0  0  0  0  0
  190.1130  177.3130  147.2970 C   0  0  0  0  0  0  0  0  0  0  0  0
  192.0750  175.9450  146.9070 C   0  0  0  0  0  3  0  0  0  0  0  0
  191.8330  175.9880  145.5310 C   0  0  0  0  0  3  0  0  0  0  0  0
  190.7320  176.6930  145.0360 C   0  0  0  0  0  3  0  0  0  0  0  0
  191.2160  176.6070  147.7890 C   0  0  0  0  0  3  0  0  0  0  0  0
  1 11  1  0  0  0  0
  2 18  2  0  0  0  0
  3 24  1  0  0  0  0
  4 19  1  6  0  0  0
  4 13  1  0  0  0  0
  5  8  2  0  0  0  0
  7  6  1  0  0  0  0
  7 12  1  0  0  0  0
  8  2  1  0  0  0  0
  9 22  1  0  0  0  0
 10 16  1  0  0  0  0
 10 21  1  0  0  0  0
 11  3  2  0  0  0  0
 11  2  1  0  0  0  0
 12 20  1  0  0  0  0
 13 22  1  0  0  0  0
 14  1  1  0  0  0  0
 14  5  1  0  0  0  0
 15 21  1  0  0  0  0
 15  3  1  0  0  0  0
 16  7  1  0  0  0  0
 17 25  1  0  0  0  0
 17  1  2  0  0  0  0
 20  4  1  0  0  0  0
 22 26  1  1  0  0  0
 23  6  2  0  0  0  0
 24  4  1  0  0  0  0
 24  9  1  0  0  0  0
 25 15  2  0  0  0  0
 27 26  1  0  0  0  0
 27 29  1  0  0  0  0
 29 30  1  0  0  0  0
 30 34  2  0  0  0  0
 30 28  1  0  0  0  0
 31 34  1  0  0  0  0
 32 31  2  0  0  0  0
 33 32  1  0  0  0  0
 33 29  2  0  0  0  0
M  END
>  <MODEL>
2

>  <REMARK>
 VINA RESULT:      -9.6      2.980      8.031
  Name = 
  3 active torsions:
  status: ('A' for Active; 'I' for Inactive)
    1  A    between atoms: C_3  and  C_13
    2  A    between atoms: C_3  and  C_17
    3  A    between atoms: C_17  and  C_29
                            x       y       z     vdW  Elec       q    Type
                         _______ _______ _______ _____ _____    ______ ____

>  <TORSDO>
F 3

$$$$
=
 OpenBabel10262423433D

 34 38  0  0  1  0  0  0  0  0999 V2000
  192.6460  175.6390  136.4430 C   0  0  0  0  0  0  0  0  0  0  0  0
  192.9710  176.5650  138.6970 C   0  0  0  0  0  0  0  0  0  0  0  0
  190.7470  176.8120  137.4420 C   0  0  0  0  0  0  0  0  0  0  0  0
  188.9090  178.1470  138.7590 C   0  0  2  0  0  0  0  0  0  0  0  0
  194.6090  175.0260  137.8980 C   0  0  0  0  0  3  0  0  0  0  0  0
  185.0750  176.9050  136.6930 C   0  0  0  0  0  3  0  0  0  0  0  0
  186.1770  177.7950  136.4920 N   0  0  0  0  0  0  0  0  0  0  0  0
  194.1320  175.7480  138.8650 N   0  0  0  0  0  0  0  0  0  0  0  0
  190.2090  176.4880  139.9150 C   0  0  0  0  0  2  0  0  0  0  0  0
  187.9430  177.1960  134.8910 C   0  0  0  0  0  2  0  0  0  0  0  0
  192.0860  176.3340  137.5320 C   0  0  0  0  0  0  0  0  0  0  0  0
  186.7290  178.4800  137.5890 N   0  0  0  0  0  2  0  0  0  0  0  0
  188.8150  178.4560  140.2380 C   0  0  0  0  0  2  0  0  0  0  0  0
  194.0410  175.0750  136.5050 C   0  0  0  0  0  2  0  0  0  0  0  0
  190.1290  176.7800  136.1680 C   0  0  0  0  0  0  0  0  0  0  0  0
  186.7010  178.0420  135.1490 C   0  0  0  0  0  2  0  0  0  0  0  0
  191.9690  175.5500  135.2710 N   0  0  0  0  0  0  0  0  0  0  0  0
  192.7600  177.5070  139.5030 O   0  0  0  0  0  0  0  0  0  0  0  0
  189.2280  179.3130  138.0540 O   0  0  0  0  0  1  0  0  0  0  0  0
  187.5640  177.5340  138.3260 C   0  0  0  0  0  2  0  0  0  0  0  0
  188.9040  177.4650  135.9430 N   0  0  0  0  0  2  0  0  0  0  0  0
  189.3250  177.1990  140.9270 C   0  0  2  0  0  3  0  0  0  0  0  0
  184.5520  176.2920  135.7250 O   0  0  0  0  0  0  0  0  0  0  0  0
  189.9900  177.1620  138.6410 N   0  0  0  0  0  0  0  0  0  0  0  0
  190.7510  176.1180  135.1070 C   0  0  0  0  0  3  0  0  0  0  0  0
  190.0620  177.5010  142.2300 C   0  0  0  0  0  2  0  0  0  0  0  0
  189.8450  176.4270  143.2890 C   0  0  0  0  0  2  0  0  0  0  0  0
  190.5580  177.1320  145.9640 F   0  0  0  0  0  0  0  0  0  0  0  0
  188.8500  176.8920  144.2970 C   0  0  0  0  0  0  0  0  0  0  0  0
  189.2540  177.2190  145.6010 C   0  0  0  0  0  0  0  0  0  0  0  0
  186.9570  177.7310  146.1820 C   0  0  0  0  0  3  0  0  0  0  0  0
  186.5550  177.4010  144.8850 C   0  0  0  0  0  3  0  0  0  0  0  0
  187.5000  176.9810  143.9440 C   0  0  0  0  0  3  0  0  0  0  0  0
  188.3050  177.6380  146.5400 C   0  0  0  0  0  3  0  0  0  0  0  0
  1 14  1  0  0  0  0
  1 11  1  0  0  0  0
  2  8  1  0  0  0  0
  2 18  2  0  0  0  0
  3 11  2  0  0  0  0
  3 24  1  0  0  0  0
  4 19  1  6  0  0  0
  4 13  1  0  0  0  0
  5  8  2  0  0  0  0
  7  6  1  0  0  0  0
  7 12  1  0  0  0  0
  9 22  1  0  0  0  0
 10 16  1  0  0  0  0
 10 21  1  0  0  0  0
 11  2  1  0  0  0  0
 12 20  1  0  0  0  0
 13 22  1  0  0  0  0
 14  5  1  0  0  0  0
 15  3  1  0  0  0  0
 16  7  1  0  0  0  0
 17  1  2  0  0  0  0
 20  4  1  0  0  0  0
 21 15  1  0  0  0  0
 22 26  1  1  0  0  0
 23  6  2  0  0  0  0
 24  4  1  0  0  0  0
 24  9  1  0  0  0  0
 25 17  1  0  0  0  0
 25 15  2  0  0  0  0
 26 27  1  0  0  0  0
 27 29  1  0  0  0  0
 29 30  1  0  0  0  0
 30 28  1  0  0  0  0
 30 34  2  0  0  0  0
 31 34  1  0  0  0  0
 32 31  2  0  0  0  0
 33 29  2  0  0  0  0
 33 32  1  0  0  0  0
M  END
>  <MODEL>
3

>  <REMARK>
 VINA RESULT:      -9.6      4.026      8.945
  Name = 
  3 active torsions:
  status: ('A' for Active; 'I' for Inactive)
    1  A    between atoms: C_3  and  C_13
    2  A    between atoms: C_3  and  C_17
    3  A    between atoms: C_17  and  C_29
                            x       y       z     vdW  Elec       q    Type
                         _______ _______ _______ _____ _____    ______ ____

>  <TORSDO>
F 3

$$$$
=
 OpenBabel10262423433D

 34 38  0  0  1  0  0  0  0  0999 V2000
  185.5110  178.1730  143.9250 C   0  0  0  0  0  0  0  0  0  0  0  0
  186.5770  178.6870  141.7710 C   0  0  0  0  0  0  0  0  0  0  0  0
  187.9470  177.9800  143.8210 C   0  0  0  0  0  0  0  0  0  0  0  0
  190.5390  177.8940  143.4080 C   0  0  2  0  0  0  0  0  0  0  0  0
  184.2080  178.4020  141.7820 C   0  0  0  0  0  3  0  0  0  0  0  0
  192.0190  175.2630  146.7840 C   0  0  0  0  0  3  0  0  0  0  0  0
  191.6030  176.6140  146.5630 N   0  0  0  0  0  0  0  0  0  0  0  0
  185.3100  178.5750  141.1170 N   0  0  0  0  0  0  0  0  0  0  0  0
  189.0560  176.9640  141.7600 C   0  0  0  0  0  2  0  0  0  0  0  0
  189.3690  177.3310  147.2960 C   0  0  0  0  0  2  0  0  0  0  0  0
  186.7040  178.2570  143.1820 C   0  0  0  0  0  0  0  0  0  0  0  0
  191.9540  177.2640  145.3670 N   0  0  0  0  0  2  0  0  0  0  0  0
  191.3060  177.8230  142.1050 C   0  0  0  0  0  2  0  0  0  0  0  0
  184.1690  178.4120  143.2860 C   0  0  0  0  0  2  0  0  0  0  0  0
  187.9440  177.8740  145.2340 C   0  0  0  0  0  0  0  0  0  0  0  0
  190.8640  177.3450  147.5930 C   0  0  0  0  0  2  0  0  0  0  0  0
  185.5570  177.9700  145.2660 N   0  0  0  0  0  0  0  0  0  0  0  0
  187.5420  179.2120  141.1570 O   0  0  0  0  0  0  0  0  0  0  0  0
  190.6880  179.1650  143.9730 O   0  0  0  0  0  1  0  0  0  0  0  0
  191.0640  176.7680  144.3180 C   0  0  0  0  0  2  0  0  0  0  0  0
  189.1650  177.8540  145.9580 N   0  0  0  0  0  2  0  0  0  0  0  0
  190.4750  176.9080  141.2180 C   0  0  2  0  0  3  0  0  0  0  0  0
  191.7330  174.6640  147.8550 O   0  0  0  0  0  0  0  0  0  0  0  0
  189.1380  177.6530  143.0410 N   0  0  0  0  0  0  0  0  0  0  0  0
  186.7320  177.8440  145.9280 C   0  0  0  0  0  3  0  0  0  0  0  0
  190.5480  177.2950  139.7430 C   0  0  0  0  0  2  0  0  0  0  0  0
  190.1170  176.1640  138.8170 C   0  0  0  0  0  2  0  0  0  0  0  0
  190.0410  173.7170  137.3440 F   0  0  0  0  0  0  0  0  0  0  0  0
  191.2940  175.6260  138.0790 C   0  0  0  0  0  0  0  0  0  0  0  0
  191.2040  174.4130  137.3760 C   0  0  0  0  0  0  0  0  0  0  0  0
  193.5300  174.6190  136.7280 C   0  0  0  0  0  3  0  0  0  0  0  0
  193.6210  175.8240  137.4300 C   0  0  0  0  0  3  0  0  0  0  0  0
  192.5050  176.3250  138.1060 C   0  0  0  0  0  3  0  0  0  0  0  0
  192.3230  173.9140  136.7020 C   0  0  0  0  0  3  0  0  0  0  0  0
  1 17  1  0  0  0  0
  2 11  1  0  0  0  0
  3 15  2  0  0  0  0
  4 19  1  1  0  0  0
  4 20  1  0  0  0  0
  5 14  1  0  0  0  0
  6 23  2  0  0  0  0
  7  6  1  0  0  0  0
  7 16  1  0  0  0  0
  8  2  1  0  0  0  0
  8  5  2  0  0  0  0
  9 24  1  0  0  0  0
 10 16  1  0  0  0  0
 11  3  1  0  0  0  0
 11  1  2  0  0  0  0
 12  7  1  0  0  0  0
 13  4  1  0  0  0  0
 14  1  1  0  0  0  0
 15 25  1  0  0  0  0
 15 21  1  0  0  0  0
 17 25  2  0  0  0  0
 18  2  2  0  0  0  0
 20 12  1  0  0  0  0
 21 10  1  0  0  0  0
 22 26  1  6  0  0  0
 22  9  1  0  0  0  0
 22 13  1  0  0  0  0
 24  4  1  0  0  0  0
 24  3  1  0  0  0  0
 27 26  1  0  0  0  0
 28 30  1  0  0  0  0
 29 33  1  0  0  0  0
 29 27  1  0  0  0  0
 30 29  2  0  0  0  0
 31 32  1  0  0  0  0
 32 33  2  0  0  0  0
 34 31  2  0  0  0  0
 34 30  1  0  0  0  0
M  END
>  <MODEL>
4

>  <REMARK>
 VINA RESULT:      -9.5      1.499      2.277
  Name = 
  3 active torsions:
  status: ('A' for Active; 'I' for Inactive)
    1  A    between atoms: C_3  and  C_13
    2  A    between atoms: C_3  and  C_17
    3  A    between atoms: C_17  and  C_29
                            x       y       z     vdW  Elec       q    Type
                         _______ _______ _______ _____ _____    ______ ____

>  <TORSDO>
F 3

$$$$
=
 OpenBabel10262423433D

 34 38  0  0  1  0  0  0  0  0999 V2000
  191.0800  176.6090  144.7680 C   0  0  0  0  0  0  0  0  0  0  0  0
  189.0940  177.7290  145.6850 C   0  0  0  0  0  0  0  0  0  0  0  0
  189.4420  177.4510  143.1580 C   0  0  0  0  0  0  0  0  0  0  0  0
  187.5300  178.4850  141.6860 C   0  0  2  0  0  0  0  0  0  0  0  0
  190.4530  176.4900  147.2040 C   0  0  0  0  0  3  0  0  0  0  0  0
  188.0560  176.3800  137.7110 C   0  0  0  0  0  3  0  0  0  0  0  0
  188.6390  177.4530  138.4570 N   0  0  0  0  0  0  0  0  0  0  0  0
  189.3710  177.1680  146.9700 N   0  0  0  0  0  0  0  0  0  0  0  0
  186.9480  177.1940  143.6290 C   0  0  0  0  0  2  0  0  0  0  0  0
  190.7820  177.1060  139.6080 C   0  0  0  0  0  2  0  0  0  0  0  0
  189.8550  177.2510  144.5070 C   0  0  0  0  0  0  0  0  0  0  0  0
  187.8140  178.3050  139.2120 N   0  0  0  0  0  2  0  0  0  0  0  0
  186.1170  178.8680  142.0710 C   0  0  0  0  0  2  0  0  0  0  0  0
  191.5400  176.3340  146.1750 C   0  0  0  0  0  2  0  0  0  0  0  0
  190.4010  177.2130  142.1430 C   0  0  0  0  0  0  0  0  0  0  0  0
  190.0790  177.7070  138.3970 C   0  0  0  0  0  2  0  0  0  0  0  0
  191.9220  176.3100  143.7470 N   0  0  0  0  0  0  0  0  0  0  0  0
  188.2570  178.6640  145.5890 O   0  0  0  0  0  0  0  0  0  0  0  0
  188.2900  179.6410  141.4800 O   0  0  0  0  0  1  0  0  0  0  0  0
  187.4450  177.5920  140.4340 C   0  0  0  0  0  2  0  0  0  0  0  0
  190.1540  177.6280  140.8070 N   0  0  0  0  0  2  0  0  0  0  0  0
  185.6750  177.7840  143.0430 C   0  0  2  0  0  3  0  0  0  0  0  0
  188.7710  175.6120  137.0130 O   0  0  0  0  0  0  0  0  0  0  0  0
  188.0460  177.7250  142.8310 N   0  0  0  0  0  0  0  0  0  0  0  0
  191.6220  176.6160  142.4630 C   0  0  0  0  0  3  0  0  0  0  0  0
  184.7300  178.3110  144.1200 C   0  0  0  0  0  2  0  0  0  0  0  0
  183.8820  179.4810  143.6360 C   0  0  0  0  0  2  0  0  0  0  0  0
  183.1750  179.0080  140.9090 F   0  0  0  0  0  0  0  0  0  0  0  0
  182.5340  179.0020  143.2200 C   0  0  0  0  0  0  0  0  0  0  0  0
  182.2360  178.7920  141.8640 C   0  0  0  0  0  0  0  0  0  0  0  0
  179.9820  178.1340  142.4620 C   0  0  0  0  0  3  0  0  0  0  0  0
  180.2770  178.3460  143.8120 C   0  0  0  0  0  3  0  0  0  0  0  0
  181.5510  178.7810  144.1900 C   0  0  0  0  0  3  0  0  0  0  0  0
  180.9610  178.3570  141.4890 C   0  0  0  0  0  3  0  0  0  0  0  0
  1 14  1  0  0  0  0
  2  8  1  0  0  0  0
  3 11  2  0  0  0  0
  4 19  1  6  0  0  0
  4 13  1  0  0  0  0
  4 24  1  0  0  0  0
  6  7  1  0  0  0  0
  7 12  1  0  0  0  0
  8  5  2  0  0  0  0
 10 21  1  0  0  0  0
 11  1  1  0  0  0  0
 11  2  1  0  0  0  0
 12 20  1  0  0  0  0
 13 22  1  0  0  0  0
 14  5  1  0  0  0  0
 15 25  2  0  0  0  0
 15  3  1  0  0  0  0
 16  7  1  0  0  0  0
 16 10  1  0  0  0  0
 17  1  2  0  0  0  0
 18  2  2  0  0  0  0
 20  4  1  0  0  0  0
 21 15  1  0  0  0  0
 22  9  1  0  0  0  0
 22 26  1  1  0  0  0
 23  6  2  0  0  0  0
 24  3  1  0  0  0  0
 24  9  1  0  0  0  0
 25 17  1  0  0  0  0
 27 26  1  0  0  0  0
 28 30  1  0  0  0  0
 29 27  1  0  0  0  0
 29 33  1  0  0  0  0
 30 29  2  0  0  0  0
 31 32  1  0  0  0  0
 32 33  2  0  0  0  0
 34 30  1  0  0  0  0
 34 31  2  0  0  0  0
M  END
>  <MODEL>
5

>  <REMARK>
 VINA RESULT:      -8.9      2.483      7.102
  Name = 
  3 active torsions:
  status: ('A' for Active; 'I' for Inactive)
    1  A    between atoms: C_3  and  C_13
    2  A    between atoms: C_3  and  C_17
    3  A    between atoms: C_17  and  C_29
                            x       y       z     vdW  Elec       q    Type
                         _______ _______ _______ _____ _____    ______ ____

>  <TORSDO>
F 3

$$$$
=
 OpenBabel10262423433D

 34 38  0  0  1  0  0  0  0  0999 V2000
  189.4140  175.5100  136.7190 C   0  0  0  0  0  0  0  0  0  0  0  0
  191.2160  176.0560  138.3000 C   0  0  0  0  0  0  0  0  0  0  0  0
  188.8200  176.9070  138.6370 C   0  0  0  0  0  0  0  0  0  0  0  0
  188.4990  178.4090  140.7670 C   0  0  2  0  0  0  0  0  0  0  0  0
  191.6400  174.3300  136.7080 C   0  0  0  0  0  3  0  0  0  0  0  0
  184.0270  178.2450  141.4610 C   0  0  0  0  0  3  0  0  0  0  0  0
  184.9700  178.9100  140.6160 N   0  0  0  0  0  0  0  0  0  0  0  0
  192.0160  175.0050  137.7520 N   0  0  0  0  0  0  0  0  0  0  0  0
  189.7870  176.3870  140.9390 C   0  0  0  0  0  2  0  0  0  0  0  0
  185.2430  178.1740  138.2880 C   0  0  0  0  0  2  0  0  0  0  0  0
  189.7910  176.1600  137.9110 C   0  0  0  0  0  0  0  0  0  0  0  0
  186.2060  179.3240  141.1430 N   0  0  0  0  0  2  0  0  0  0  0  0
  189.3730  178.5390  141.9950 C   0  0  0  0  0  2  0  0  0  0  0  0
  190.3910  174.6710  135.9400 C   0  0  0  0  0  2  0  0  0  0  0  0
  187.5830  177.1640  137.9950 C   0  0  0  0  0  0  0  0  0  0  0  0
  184.6400  179.2150  139.2240 C   0  0  0  0  0  2  0  0  0  0  0  0
  188.1790  175.7100  136.1970 N   0  0  0  0  0  0  0  0  0  0  0  0
  191.7540  176.9110  139.0500 O   0  0  0  0  0  0  0  0  0  0  0  0
  188.6070  179.5660  139.9880 O   0  0  0  0  0  1  0  0  0  0  0  0
  187.0600  178.1420  141.2470 C   0  0  0  0  0  2  0  0  0  0  0  0
  186.6700  178.1060  138.5400 N   0  0  0  0  0  2  0  0  0  0  0  0
  189.8730  177.1280  142.2640 C   0  0  2  0  0  3  0  0  0  0  0  0
  182.9050  177.8790  141.0180 O   0  0  0  0  0  0  0  0  0  0  0  0
  189.0280  177.2480  140.0420 N   0  0  0  0  0  0  0  0  0  0  0  0
  187.2790  176.5300  136.7890 C   0  0  0  0  0  3  0  0  0  0  0  0
  191.2820  177.1060  142.8520 C   0  0  0  0  0  2  0  0  0  0  0  0
  191.4450  178.0680  144.0230 C   0  0  0  0  0  2  0  0  0  0  0  0
  188.8740  178.4130  145.2200 F   0  0  0  0  0  0  0  0  0  0  0  0
  191.0470  177.4010  145.2950 C   0  0  0  0  0  0  0  0  0  0  0  0
  189.7720  177.6120  145.8450 C   0  0  0  0  0  0  0  0  0  0  0  0
  190.3370  176.1640  147.7050 C   0  0  0  0  0  3  0  0  0  0  0  0
  191.6080  175.9580  147.1600 C   0  0  0  0  0  3  0  0  0  0  0  0
  191.9620  176.5770  145.9580 C   0  0  0  0  0  3  0  0  0  0  0  0
  189.4210  176.9910  147.0480 C   0  0  0  0  0  3  0  0  0  0  0  0
  1 11  1  0  0  0  0
  2 18  2  0  0  0  0
  3 24  1  0  0  0  0
  4 19  1  6  0  0  0
  4 20  1  0  0  0  0
  4 13  1  0  0  0  0
  5  8  2  0  0  0  0
  7 12  1  0  0  0  0
  7  6  1  0  0  0  0
  8  2  1  0  0  0  0
  9 22  1  0  0  0  0
 10 21  1  0  0  0  0
 10 16  1  0  0  0  0
 11  2  1  0  0  0  0
 11  3  2  0  0  0  0
 12 20  1  0  0  0  0
 13 22  1  0  0  0  0
 14  5  1  0  0  0  0
 14  1  1  0  0  0  0
 15 21  1  0  0  0  0
 15  3  1  0  0  0  0
 16  7  1  0  0  0  0
 17  1  2  0  0  0  0
 17 25  1  0  0  0  0
 22 26  1  6  0  0  0
 23  6  2  0  0  0  0
 24  4  1  0  0  0  0
 24  9  1  0  0  0  0
 25 15  2  0  0  0  0
 26 27  1  0  0  0  0
 27 29  1  0  0  0  0
 28 30  1  0  0  0  0
 29 30  2  0  0  0  0
 29 33  1  0  0  0  0
 30 34  1  0  0  0  0
 32 31  1  0  0  0  0
 33 32  2  0  0  0  0
 34 31  2  0  0  0  0
M  END
>  <MODEL>
6

>  <REMARK>
 VINA RESULT:      -8.7      3.366      7.895
  Name = 
  3 active torsions:
  status: ('A' for Active; 'I' for Inactive)
    1  A    between atoms: C_3  and  C_13
    2  A    between atoms: C_3  and  C_17
    3  A    between atoms: C_17  and  C_29
                            x       y       z     vdW  Elec       q    Type
                         _______ _______ _______ _____ _____    ______ ____

>  <TORSDO>
F 3

$$$$
=
 OpenBabel10262423433D

 34 38  0  0  1  0  0  0  0  0999 V2000
  189.6260  177.2560  139.4770 C   0  0  0  0  0  0  0  0  0  0  0  0
  189.4260  178.3530  141.6670 C   0  0  0  0  0  0  0  0  0  0  0  0
  187.3780  177.9060  140.1880 C   0  0  0  0  0  0  0  0  0  0  0  0
  185.1090  178.7460  141.2060 C   0  0  2  0  0  0  0  0  0  0  0  0
  191.5000  177.2890  141.1600 C   0  0  0  0  0  3  0  0  0  0  0  0
  182.0180  176.3800  138.8910 C   0  0  0  0  0  3  0  0  0  0  0  0
  182.8540  177.5290  138.7240 N   0  0  0  0  0  0  0  0  0  0  0  0
  190.7370  177.9010  142.0140 N   0  0  0  0  0  0  0  0  0  0  0  0
  186.6660  177.5770  142.6150 C   0  0  0  0  0  2  0  0  0  0  0  0
  184.8890  177.3600  137.3560 C   0  0  0  0  0  2  0  0  0  0  0  0
  188.7770  177.8240  140.4460 C   0  0  0  0  0  0  0  0  0  0  0  0
  183.0690  178.3980  139.8080 N   0  0  0  0  0  2  0  0  0  0  0  0
  184.7650  179.0940  142.6390 C   0  0  0  0  0  2  0  0  0  0  0  0
  191.1040  177.1050  139.7190 C   0  0  0  0  0  2  0  0  0  0  0  0
  186.9430  177.6360  138.8670 C   0  0  0  0  0  0  0  0  0  0  0  0
  183.4440  177.8400  137.4210 C   0  0  0  0  0  2  0  0  0  0  0  0
  189.1380  176.9200  138.2570 N   0  0  0  0  0  0  0  0  0  0  0  0
  188.8760  179.2410  142.3690 O   0  0  0  0  0  0  0  0  0  0  0  0
  185.1790  179.9160  140.4420 O   0  0  0  0  0  1  0  0  0  0  0  0
  184.0390  177.7610  140.6980 C   0  0  0  0  0  2  0  0  0  0  0  0
  185.6130  177.9410  138.4700 N   0  0  0  0  0  2  0  0  0  0  0  0
  185.5120  178.0670  143.4750 C   0  0  2  0  0  3  0  0  0  0  0  0
  181.7960  175.5950  137.9300 O   0  0  0  0  0  0  0  0  0  0  0  0
  186.4220  178.0950  141.2750 N   0  0  0  0  0  0  0  0  0  0  0  0
  187.8390  177.1180  137.9300 C   0  0  0  0  0  3  0  0  0  0  0  0
  185.9840  178.6300  144.8140 C   0  0  0  0  0  2  0  0  0  0  0  0
  186.0590  177.5670  145.9040 C   0  0  0  0  0  2  0  0  0  0  0  0
  188.4770  176.7580  144.6140 F   0  0  0  0  0  0  0  0  0  0  0  0
  187.3900  177.6120  146.5740 C   0  0  0  0  0  0  0  0  0  0  0  0
  188.5460  177.1940  145.8960 C   0  0  0  0  0  0  0  0  0  0  0  0
  189.8720  177.6730  147.8680 C   0  0  0  0  0  3  0  0  0  0  0  0
  188.7200  178.0840  148.5440 C   0  0  0  0  0  3  0  0  0  0  0  0
  187.4810  178.0520  147.8980 C   0  0  0  0  0  3  0  0  0  0  0  0
  189.7850  177.2280  146.5460 C   0  0  0  0  0  3  0  0  0  0  0  0
  1 14  1  0  0  0  0
  1 11  1  0  0  0  0
  2  8  1  0  0  0  0
  2 18  2  0  0  0  0
  3 11  2  0  0  0  0
  3 24  1  0  0  0  0
  4 19  1  6  0  0  0
  4 24  1  0  0  0  0
  4 13  1  0  0  0  0
  5  8  2  0  0  0  0
  7  6  1  0  0  0  0
  7 12  1  0  0  0  0
  9 22  1  0  0  0  0
 10 16  1  0  0  0  0
 10 21  1  0  0  0  0
 11  2  1  0  0  0  0
 12 20  1  0  0  0  0
 13 22  1  0  0  0  0
 14  5  1  0  0  0  0
 15  3  1  0  0  0  0
 16  7  1  0  0  0  0
 17  1  2  0  0  0  0
 20  4  1  0  0  0  0
 21 15  1  0  0  0  0
 22 26  1  1  0  0  0
 23  6  2  0  0  0  0
 24  9  1  0  0  0  0
 25 17  1  0  0  0  0
 25 15  2  0  0  0  0
 26 27  1  0  0  0  0
 27 29  1  0  0  0  0
 28 30  1  0  0  0  0
 29 33  1  0  0  0  0
 30 34  1  0  0  0  0
 30 29  2  0  0  0  0
 31 32  1  0  0  0  0
 33 32  2  0  0  0  0
 34 31  2  0  0  0  0
M  END
>  <MODEL>
7

>  <REMARK>
 VINA RESULT:      -8.4      2.718      8.374
  Name = 
  3 active torsions:
  status: ('A' for Active; 'I' for Inactive)
    1  A    between atoms: C_3  and  C_13
    2  A    between atoms: C_3  and  C_17
    3  A    between atoms: C_17  and  C_29
                            x       y       z     vdW  Elec       q    Type
                         _______ _______ _______ _____ _____    ______ ____

>  <TORSDO>
F 3

$$$$
=
 OpenBabel10262423433D

 34 38  0  0  1  0  0  0  0  0999 V2000
  189.8890  177.0350  146.2750 C   0  0  0  0  0  0  0  0  0  0  0  0
  187.6810  178.1000  146.0870 C   0  0  0  0  0  0  0  0  0  0  0  0
  189.1370  177.6360  144.0260 C   0  0  0  0  0  0  0  0  0  0  0  0
  188.0760  178.4230  141.7570 C   0  0  2  0  0  0  0  0  0  0  0  0
  188.2320  177.0800  148.1720 C   0  0  0  0  0  3  0  0  0  0  0  0
  190.3780  176.0320  138.6760 C   0  0  0  0  0  3  0  0  0  0  0  0
  190.5420  177.1980  139.4890 N   0  0  0  0  0  0  0  0  0  0  0  0
  187.3590  177.6670  147.4110 N   0  0  0  0  0  0  0  0  0  0  0  0
  186.7040  177.2630  143.3550 C   0  0  0  0  0  2  0  0  0  0  0  0
  191.9410  177.0830  141.5060 C   0  0  0  0  0  2  0  0  0  0  0  0
  188.9000  177.5760  145.4300 C   0  0  0  0  0  0  0  0  0  0  0  0
  189.4490  178.0570  139.7040 N   0  0  0  0  0  2  0  0  0  0  0  0
  186.6340  178.7460  141.4280 C   0  0  0  0  0  2  0  0  0  0  0  0
  189.6690  176.9070  147.7590 C   0  0  0  0  0  2  0  0  0  0  0  0
  190.4550  177.3760  143.5770 C   0  0  0  0  0  0  0  0  0  0  0  0
  191.8480  177.5360  140.0540 C   0  0  0  0  0  2  0  0  0  0  0  0
  191.1060  176.7060  145.7750 N   0  0  0  0  0  0  0  0  0  0  0  0
  186.9610  178.9700  145.5320 O   0  0  0  0  0  0  0  0  0  0  0  0
  188.8260  179.6030  141.7960 O   0  0  0  0  0  1  0  0  0  0  0  0
  188.5810  177.4260  140.6980 C   0  0  0  0  0  2  0  0  0  0  0  0
  190.8300  177.6620  142.2370 N   0  0  0  0  0  2  0  0  0  0  0  0
  185.8220  177.7220  142.2050 C   0  0  2  0  0  3  0  0  0  0  0  0
  191.3450  175.2560  138.4530 O   0  0  0  0  0  0  0  0  0  0  0  0
  188.0340  177.7940  143.0830 N   0  0  0  0  0  0  0  0  0  0  0  0
  191.4120  176.8850  144.4680 C   0  0  0  0  0  3  0  0  0  0  0  0
  184.4830  178.2760  142.6860 C   0  0  0  0  0  2  0  0  0  0  0  0
  183.7500  179.0600  141.6050 C   0  0  0  0  0  2  0  0  0  0  0  0
  181.0280  179.5170  142.3410 F   0  0  0  0  0  0  0  0  0  0  0  0
  182.6180  178.2550  141.0640 C   0  0  0  0  0  0  0  0  0  0  0  0
  181.2980  178.5170  141.4660 C   0  0  0  0  0  0  0  0  0  0  0  0
  180.5120  176.7060  140.0590 C   0  0  0  0  0  3  0  0  0  0  0  0
  181.8270  176.4430  139.6620 C   0  0  0  0  0  3  0  0  0  0  0  0
  182.8780  177.2150  140.1650 C   0  0  0  0  0  3  0  0  0  0  0  0
  180.2490  177.7420  140.9610 C   0  0  0  0  0  3  0  0  0  0  0  0
  1 14  1  0  0  0  0
  2  8  1  0  0  0  0
  3 11  1  0  0  0  0
  4 19  1  1  0  0  0
  4 24  1  0  0  0  0
  6  7  1  0  0  0  0
  7 12  1  0  0  0  0
  7 16  1  0  0  0  0
  8  5  2  0  0  0  0
 10 21  1  0  0  0  0
 11  2  1  0  0  0  0
 11  1  2  0  0  0  0
 12 20  1  0  0  0  0
 13  4  1  0  0  0  0
 13 22  1  0  0  0  0
 14  5  1  0  0  0  0
 15  3  2  0  0  0  0
 15 25  1  0  0  0  0
 16 10  1  0  0  0  0
 17  1  1  0  0  0  0
 18  2  2  0  0  0  0
 20  4  1  0  0  0  0
 21 15  1  0  0  0  0
 22 26  1  1  0  0  0
 22  9  1  0  0  0  0
 23  6  2  0  0  0  0
 24  9  1  0  0  0  0
 24  3  1  0  0  0  0
 25 17  2  0  0  0  0
 27 26  1  0  0  0  0
 29 30  1  0  0  0  0
 29 27  1  0  0  0  0
 30 28  1  0  0  0  0
 31 34  1  0  0  0  0
 32 31  2  0  0  0  0
 32 33  1  0  0  0  0
 33 29  2  0  0  0  0
 34 30  2  0  0  0  0
M  END
>  <MODEL>
8

>  <REMARK>
 VINA RESULT:      -8.4      2.820      6.215
  Name = 
  3 active torsions:
  status: ('A' for Active; 'I' for Inactive)
    1  A    between atoms: C_3  and  C_13
    2  A    between atoms: C_3  and  C_17
    3  A    between atoms: C_17  and  C_29
                            x       y       z     vdW  Elec       q    Type
                         _______ _______ _______ _____ _____    ______ ____

>  <TORSDO>
F 3

$$$$
=
 OpenBabel10262423433D

 34 38  0  0  1  0  0  0  0  0999 V2000
  185.3090  178.2980  145.1900 C   0  0  0  0  0  0  0  0  0  0  0  0
  185.3820  179.1260  142.8770 C   0  0  0  0  0  0  0  0  0  0  0  0
  187.4390  178.0890  144.0060 C   0  0  0  0  0  0  0  0  0  0  0  0
  189.5850  178.0330  142.4950 C   0  0  2  0  0  0  0  0  0  0  0  0
  183.2340  178.8750  143.8830 C   0  0  0  0  0  3  0  0  0  0  0  0
  192.1570  174.8890  144.4990 C   0  0  0  0  0  3  0  0  0  0  0  0
  191.7960  176.2640  144.6650 N   0  0  0  0  0  0  0  0  0  0  0  0
  183.9530  179.1330  142.8340 N   0  0  0  0  0  0  0  0  0  0  0  0
  187.4690  177.3910  141.5530 C   0  0  0  0  0  2  0  0  0  0  0  0
  190.1590  176.8890  146.3890 C   0  0  0  0  0  2  0  0  0  0  0  0
  186.0690  178.4790  144.0190 C   0  0  0  0  0  0  0  0  0  0  0  0
  191.6490  177.0870  143.5350 N   0  0  0  0  0  2  0  0  0  0  0  0
  189.7090  178.1550  140.9920 C   0  0  0  0  0  2  0  0  0  0  0  0
  183.8460  178.6510  145.2400 C   0  0  0  0  0  2  0  0  0  0  0  0
  188.0350  177.7660  145.2510 C   0  0  0  0  0  0  0  0  0  0  0  0
  191.6330  176.8360  146.0020 C   0  0  0  0  0  2  0  0  0  0  0  0
  185.9100  177.8880  146.3340 N   0  0  0  0  0  0  0  0  0  0  0  0
  186.0280  179.7260  141.9790 O   0  0  0  0  0  0  0  0  0  0  0  0
  190.0640  179.1980  143.1030 O   0  0  0  0  0  1  0  0  0  0  0  0
  190.3590  176.7720  142.9240 C   0  0  0  0  0  2  0  0  0  0  0  0
  189.4430  177.6160  145.3590 N   0  0  0  0  0  2  0  0  0  0  0  0
  188.5080  177.4000  140.4430 C   0  0  2  0  0  3  0  0  0  0  0  0
  192.3110  174.1350  145.4960 O   0  0  0  0  0  0  0  0  0  0  0  0
  188.1490  177.8720  142.7490 N   0  0  0  0  0  0  0  0  0  0  0  0
  187.2400  177.6450  146.3930 C   0  0  0  0  0  3  0  0  0  0  0  0
  187.9710  178.0110  139.1510 C   0  0  0  0  0  2  0  0  0  0  0  0
  189.0590  178.6810  138.3220 C   0  0  0  0  0  2  0  0  0  0  0  0
  187.6520  178.5580  135.8390 F   0  0  0  0  0  0  0  0  0  0  0  0
  189.4720  177.7920  137.2000 C   0  0  0  0  0  0  0  0  0  0  0  0
  188.7400  177.7640  136.0020 C   0  0  0  0  0  0  0  0  0  0  0  0
  190.2490  176.0860  135.1190 C   0  0  0  0  0  3  0  0  0  0  0  0
  190.9760  176.1100  136.3130 C   0  0  0  0  0  3  0  0  0  0  0  0
  190.5870  176.9610  137.3520 C   0  0  0  0  0  3  0  0  0  0  0  0
  189.1320  176.9120  134.9650 C   0  0  0  0  0  3  0  0  0  0  0  0
  1 14  1  0  0  0  0
  1 17  1  0  0  0  0
  2 11  1  0  0  0  0
  3 11  1  0  0  0  0
  3 15  2  0  0  0  0
  4 24  1  0  0  0  0
  4 20  1  0  0  0  0
  4 19  1  1  0  0  0
  5 14  1  0  0  0  0
  6  7  1  0  0  0  0
  6 23  2  0  0  0  0
  7 16  1  0  0  0  0
  8  2  1  0  0  0  0
  8  5  2  0  0  0  0
  9 24  1  0  0  0  0
 11  1  2  0  0  0  0
 12  7  1  0  0  0  0
 13  4  1  0  0  0  0
 15 21  1  0  0  0  0
 15 25  1  0  0  0  0
 16 10  1  0  0  0  0
 17 25  2  0  0  0  0
 18  2  2  0  0  0  0
 20 12  1  0  0  0  0
 21 10  1  0  0  0  0
 22 26  1  6  0  0  0
 22 13  1  0  0  0  0
 22  9  1  0  0  0  0
 24  3  1  0  0  0  0
 27 26  1  0  0  0  0
 28 30  1  0  0  0  0
 29 33  1  0  0  0  0
 29 27  1  0  0  0  0
 30 29  2  0  0  0  0
 31 32  1  0  0  0  0
 32 33  2  0  0  0  0
 34 31  2  0  0  0  0
 34 30  1  0  0  0  0
M  END
>  <MODEL>
9

>  <REMARK>
 VINA RESULT:      -8.4      1.797      2.159
  Name = 
  3 active torsions:
  status: ('A' for Active; 'I' for Inactive)
    1  A    between atoms: C_3  and  C_13
    2  A    between atoms: C_3  and  C_17
    3  A    between atoms: C_17  and  C_29
                            x       y       z     vdW  Elec       q    Type
                         _______ _______ _______ _____ _____    ______ ____

>  <TORSDO>
F 3

$$$$
