=
 OpenBabel10272400053D

 34 40  0  0  1  0  0  0  0  0999 V2000
  188.9960  177.1230  146.4470 C   0  0  0  0  0  0  0  0  0  0  0  0
  190.8110  176.7640  144.8580 C   0  0  0  0  0  0  0  0  0  0  0  0
  188.5110  176.9160  143.9960 C   0  0  1  0  0  3  0  0  0  0  0  0
  188.3850  178.4020  141.9130 C   0  0  1  0  0  3  0  0  0  0  0  0
  191.2730  176.8160  147.2340 C   0  0  0  0  0  3  0  0  0  0  0  0
  191.7280  176.6990  145.9100 C   0  0  0  0  0  3  0  0  0  0  0  0
  190.4000  177.5440  142.6570 C   0  0  0  0  0  0  0  0  0  0  0  0
  189.4350  176.8460  145.1570 C   0  0  0  0  0  0  0  0  0  0  0  0
  189.2740  178.0550  140.6940 C   0  0  0  0  0  2  0  0  0  0  0  0
  189.9160  177.0740  147.5000 C   0  0  0  0  0  3  0  0  0  0  0  0
  187.0320  177.1710  144.3060 C   0  0  2  0  0  3  0  0  0  0  0  0
  187.6510  177.7030  146.6210 C   0  0  0  0  0  3  0  0  0  0  0  0
  191.2420  176.9790  143.4890 N   0  0  0  0  0  0  0  0  0  0  0  0
  186.9590  177.8580  141.8570 C   0  0  0  0  0  2  0  0  0  0  0  0
  186.3500  177.8860  143.2020 N   0  0  0  0  0  0  0  0  0  0  0  0
  190.5750  177.6800  141.2570 N   0  0  0  0  0  0  0  0  0  0  0  0
  189.0870  177.8550  143.0560 N   0  0  0  0  0  0  0  0  0  0  0  0
  186.8110  177.7870  145.6250 N   0  0  0  0  0  0  0  0  0  0  0  0
  182.7920  178.7120  142.3140 C   0  0  0  0  0  0  0  0  0  0  0  0
  182.2930  179.1190  143.5530 C   0  0  0  0  0  3  0  0  0  0  0  0
  184.9730  178.2980  143.3160 C   0  0  0  0  0  0  0  0  0  0  0  0
  183.1260  179.1210  144.6740 C   0  0  0  0  0  3  0  0  0  0  0  0
  184.1240  178.3060  142.1960 C   0  0  0  0  0  3  0  0  0  0  0  0
  184.4580  178.7150  144.5560 C   0  0  0  0  0  3  0  0  0  0  0  0
  181.9070  178.7100  141.1200 C   0  0  0  0  0  1  0  0  0  0  0  0
  191.5840  176.9220  139.2000 C   0  0  0  0  0  3  0  0  0  0  0  0
  191.7060  177.3090  140.4630 C   0  0  0  0  0  3  0  0  0  0  0  0
  192.7910  176.5540  138.4120 C   0  0  0  0  0  2  0  0  0  0  0  0
  192.3840  175.7980  137.1480 C   0  0  2  0  0  3  0  0  0  0  0  0
  192.4050  174.2800  137.3550 C   0  0  0  0  0  2  0  0  0  0  0  0
  194.4950  174.2700  136.0930 N   0  0  0  0  0  2  0  0  0  0  0  0
  194.4610  175.7290  136.1460 C   0  0  0  0  0  2  0  0  0  0  0  0
  193.1340  176.1910  136.0100 O   0  0  0  0  0  0  0  0  0  0  0  0
  193.8420  173.7740  137.2990 C   0  0  0  0  0  2  0  0  0  0  0  0
  1 12  1  0  0  0  0
  1 10  1  0  0  0  0
  2  8  1  0  0  0  0
  2  6  2  0  0  0  0
  3 11  1  0  0  0  0
  3  8  1  1  0  0  0
  4  9  1  6  0  0  0
  4 17  1  0  0  0  0
  5 10  2  0  0  0  0
  6  5  1  0  0  0  0
  7 17  1  0  0  0  0
  7 13  2  0  0  0  0
  8  1  2  0  0  0  0
  9 16  1  0  0  0  0
 11 18  1  1  0  0  0
 13  2  1  0  0  0  0
 14  4  1  0  0  0  0
 14 15  1  0  0  0  0
 15 21  1  0  0  0  0
 15 11  1  0  0  0  0
 16  7  1  0  0  0  0
 17  3  1  0  0  0  0
 18 12  2  0  0  0  0
 19 20  1  0  0  0  0
 20 22  2  0  0  0  0
 21 24  2  0  0  0  0
 23 19  2  0  0  0  0
 23 21  1  0  0  0  0
 24 22  1  0  0  0  0
 25 19  1  0  0  0  0
 26 27  2  0  0  0  0
 27 16  1  0  0  0  0
 28 26  1  0  0  0  0
 29 30  1  0  0  0  0
 29 28  1  1  0  0  0
 31 32  1  0  0  0  0
 31 34  1  0  0  0  0
 33 32  1  0  0  0  0
 33 29  1  0  0  0  0
 34 30  1  0  0  0  0
M  END
>  <MODEL>
1

>  <REMARK>
 VINA RESULT:     -10.8      0.000      0.000
  Name = 
  4 active torsions:
  status: ('A' for Active; 'I' for Inactive)
    1  A    between atoms: C_3  and  C_13
    2  A    between atoms: C_11  and  C_13
    3  A    between atoms: C_12  and  N_28
    4  A    between atoms: C_17  and  N_29
                            x       y       z     vdW  Elec       q    Type
                         _______ _______ _______ _____ _____    ______ ____

>  <TORSDO>
F 4

$$$$
=
 OpenBabel10272400053D

 34 40  0  0  1  0  0  0  0  0999 V2000
  190.6220  177.1620  140.8070 C   0  0  0  0  0  0  0  0  0  0  0  0
  188.8140  177.5380  139.2140 C   0  0  0  0  0  0  0  0  0  0  0  0
  188.2370  177.1730  141.5780 C   0  0  1  0  0  3  0  0  0  0  0  0
  186.4680  178.8420  142.3820 C   0  0  1  0  0  3  0  0  0  0  0  0
  191.1010  177.3840  138.4360 C   0  0  0  0  0  3  0  0  0  0  0  0
  189.7370  177.5810  138.1660 C   0  0  0  0  0  3  0  0  0  0  0  0
  186.8370  178.4750  140.1280 C   0  0  0  0  0  0  0  0  0  0  0  0
  189.2650  177.1980  140.5070 C   0  0  0  0  0  0  0  0  0  0  0  0
  185.1210  178.9260  141.6230 C   0  0  0  0  0  2  0  0  0  0  0  0
  191.5490  177.2210  139.7600 C   0  0  0  0  0  3  0  0  0  0  0  0
  188.7390  176.9680  143.0110 C   0  0  2  0  0  3  0  0  0  0  0  0
  191.0330  177.3210  142.2140 C   0  0  0  0  0  3  0  0  0  0  0  0
  187.4650  178.0520  139.0580 N   0  0  0  0  0  0  0  0  0  0  0  0
  186.4670  177.9420  143.6160 C   0  0  0  0  0  2  0  0  0  0  0  0
  187.8540  177.6150  144.0070 N   0  0  0  0  0  0  0  0  0  0  0  0
  185.4710  178.8470  140.2010 N   0  0  0  0  0  0  0  0  0  0  0  0
  187.4190  178.3560  141.4040 N   0  0  0  0  0  0  0  0  0  0  0  0
  190.1610  177.3090  143.1850 N   0  0  0  0  0  0  0  0  0  0  0  0
  189.7610  177.2210  147.2220 C   0  0  0  0  0  0  0  0  0  0  0  0
  188.7950  177.6010  148.1560 C   0  0  0  0  0  3  0  0  0  0  0  0
  188.1800  177.6140  145.4110 C   0  0  0  0  0  0  0  0  0  0  0  0
  187.5220  177.9840  147.7270 C   0  0  0  0  0  3  0  0  0  0  0  0
  189.4550  177.2260  145.8580 C   0  0  0  0  0  3  0  0  0  0  0  0
  187.2170  177.9890  146.3640 C   0  0  0  0  0  3  0  0  0  0  0  0
  191.1160  176.8120  147.6780 C   0  0  0  0  0  1  0  0  0  0  0  0
  183.4140  179.6560  139.2320 C   0  0  0  0  0  3  0  0  0  0  0  0
  184.5110  178.9150  139.1430 C   0  0  0  0  0  3  0  0  0  0  0  0
  182.4490  179.7000  138.1010 C   0  0  0  0  0  2  0  0  0  0  0  0
  181.0880  180.1930  138.5890 C   0  0  2  0  0  3  0  0  0  0  0  0
  179.9850  179.9520  137.5530 C   0  0  0  0  0  2  0  0  0  0  0  0
  180.1170  182.3380  137.0520 N   0  0  0  0  0  2  0  0  0  0  0  0
  181.2940  182.3900  137.9150 C   0  0  0  0  0  2  0  0  0  0  0  0
  181.1190  181.5410  139.0290 O   0  0  0  0  0  0  0  0  0  0  0  0
  180.0710  181.0080  136.4560 C   0  0  0  0  0  2  0  0  0  0  0  0
  1 12  1  0  0  0  0
  2  8  2  0  0  0  0
  3  8  1  6  0  0  0
  3 11  1  0  0  0  0
  4  9  1  6  0  0  0
  4 14  1  0  0  0  0
  5 10  1  0  0  0  0
  6  5  2  0  0  0  0
  6  2  1  0  0  0  0
  7 16  1  0  0  0  0
  7 17  1  0  0  0  0
  8  1  1  0  0  0  0
 10  1  2  0  0  0  0
 11 18  1  6  0  0  0
 11 15  1  0  0  0  0
 12 18  2  0  0  0  0
 13  2  1  0  0  0  0
 13  7  2  0  0  0  0
 14 15  1  0  0  0  0
 15 21  1  0  0  0  0
 16  9  1  0  0  0  0
 17  3  1  0  0  0  0
 17  4  1  0  0  0  0
 19 25  1  0  0  0  0
 19 20  1  0  0  0  0
 21 23  1  0  0  0  0
 21 24  2  0  0  0  0
 22 20  2  0  0  0  0
 23 19  2  0  0  0  0
 24 22  1  0  0  0  0
 27 26  2  0  0  0  0
 27 16  1  0  0  0  0
 28 26  1  0  0  0  0
 29 28  1  6  0  0  0
 29 33  1  0  0  0  0
 30 29  1  0  0  0  0
 31 32  1  0  0  0  0
 32 33  1  0  0  0  0
 34 31  1  0  0  0  0
 34 30  1  0  0  0  0
M  END
>  <MODEL>
2

>  <REMARK>
 VINA RESULT:      -9.4      3.637      8.310
  Name = 
  4 active torsions:
  status: ('A' for Active; 'I' for Inactive)
    1  A    between atoms: C_3  and  C_13
    2  A    between atoms: C_11  and  C_13
    3  A    between atoms: C_12  and  N_28
    4  A    between atoms: C_17  and  N_29
                            x       y       z     vdW  Elec       q    Type
                         _______ _______ _______ _____ _____    ______ ____

>  <TORSDO>
F 4

$$$$
=
 OpenBabel10272400053D

 34 40  0  0  1  0  0  0  0  0999 V2000
  190.8700  176.9180  145.5970 C   0  0  0  0  0  0  0  0  0  0  0  0
  188.6110  177.6830  146.1080 C   0  0  0  0  0  0  0  0  0  0  0  0
  189.4580  177.9770  143.8170 C   0  0  1  0  0  3  0  0  0  0  0  0
  187.7070  177.3010  142.0740 C   0  0  1  0  0  3  0  0  0  0  0  0
  190.0170  176.7960  147.8680 C   0  0  0  0  0  3  0  0  0  0  0  0
  188.7870  177.3290  147.4480 C   0  0  0  0  0  3  0  0  0  0  0  0
  187.1150  177.7260  144.2690 C   0  0  0  0  0  0  0  0  0  0  0  0
  189.7100  177.5900  145.2280 C   0  0  0  0  0  0  0  0  0  0  0  0
  186.3190  177.9860  142.1050 C   0  0  0  0  0  2  0  0  0  0  0  0
  191.0410  176.5480  146.9360 C   0  0  0  0  0  3  0  0  0  0  0  0
  190.5940  177.7240  142.8190 C   0  0  2  0  0  3  0  0  0  0  0  0
  191.7480  176.3990  144.5320 C   0  0  0  0  0  3  0  0  0  0  0  0
  187.2910  177.9210  145.5540 N   0  0  0  0  0  0  0  0  0  0  0  0
  188.7180  177.9190  141.1110 C   0  0  0  0  0  2  0  0  0  0  0  0
  190.0840  177.4720  141.4510 N   0  0  0  0  0  0  0  0  0  0  0  0
  185.9570  178.0650  143.5250 N   0  0  0  0  0  0  0  0  0  0  0  0
  188.1950  177.3800  143.4350 N   0  0  0  0  0  0  0  0  0  0  0  0
  191.5590  176.7110  143.2790 N   0  0  0  0  0  0  0  0  0  0  0  0
  191.4070  176.0440  138.2350 C   0  0  0  0  0  0  0  0  0  0  0  0
  192.7360  176.4670  138.2810 C   0  0  0  0  0  3  0  0  0  0  0  0
  190.9770  177.1330  140.3710 C   0  0  0  0  0  0  0  0  0  0  0  0
  193.1940  177.2170  139.3660 C   0  0  0  0  0  3  0  0  0  0  0  0
  190.5330  176.3740  139.2750 C   0  0  0  0  0  3  0  0  0  0  0  0
  192.3200  177.5470  140.4050 C   0  0  0  0  0  3  0  0  0  0  0  0
  190.9190  175.2440  137.0810 C   0  0  0  0  0  1  0  0  0  0  0  0
  183.6690  178.7640  143.2100 C   0  0  0  0  0  3  0  0  0  0  0  0
  184.7240  178.6130  144.0000 C   0  0  0  0  0  3  0  0  0  0  0  0
  182.4060  179.3310  143.7530 C   0  0  0  0  0  2  0  0  0  0  0  0
  181.2010  178.6160  143.1420 C   0  0  2  0  0  3  0  0  0  0  0  0
  181.4370  178.2480  141.6740 C   0  0  0  0  0  2  0  0  0  0  0  0
  179.9820  180.1260  141.1090 N   0  0  0  0  0  2  0  0  0  0  0  0
  180.0080  180.4900  142.5240 C   0  0  0  0  0  2  0  0  0  0  0  0
  179.9890  179.3290  143.3260 O   0  0  0  0  0  0  0  0  0  0  0  0
  181.2540  179.4850  140.8000 C   0  0  0  0  0  2  0  0  0  0  0  0
  1 10  1  0  0  0  0
  2  6  2  0  0  0  0
  3  8  1  1  0  0  0
  4 14  1  6  0  0  0
  4  9  1  0  0  0  0
  4 17  1  0  0  0  0
  6  5  1  0  0  0  0
  7 13  2  0  0  0  0
  8  1  2  0  0  0  0
  8  2  1  0  0  0  0
  9 16  1  0  0  0  0
 10  5  2  0  0  0  0
 11 18  1  1  0  0  0
 11  3  1  0  0  0  0
 12  1  1  0  0  0  0
 13  2  1  0  0  0  0
 14 15  1  0  0  0  0
 15 11  1  0  0  0  0
 16 27  1  0  0  0  0
 16  7  1  0  0  0  0
 17  3  1  0  0  0  0
 17  7  1  0  0  0  0
 18 12  2  0  0  0  0
 19 20  2  0  0  0  0
 19 23  1  0  0  0  0
 20 22  1  0  0  0  0
 21 24  1  0  0  0  0
 21 15  1  0  0  0  0
 22 24  2  0  0  0  0
 23 21  2  0  0  0  0
 25 19  1  0  0  0  0
 26 28  1  0  0  0  0
 26 27  2  0  0  0  0
 29 33  1  0  0  0  0
 29 28  1  6  0  0  0
 30 29  1  0  0  0  0
 31 32  1  0  0  0  0
 32 33  1  0  0  0  0
 34 31  1  0  0  0  0
 34 30  1  0  0  0  0
M  END
>  <MODEL>
3

>  <REMARK>
 VINA RESULT:      -9.4      3.145      8.490
  Name = 
  4 active torsions:
  status: ('A' for Active; 'I' for Inactive)
    1  A    between atoms: C_3  and  C_13
    2  A    between atoms: C_11  and  C_13
    3  A    between atoms: C_12  and  N_28
    4  A    between atoms: C_17  and  N_29
                            x       y       z     vdW  Elec       q    Type
                         _______ _______ _______ _____ _____    ______ ____

>  <TORSDO>
F 4

$$$$
=
 OpenBabel10272400053D

 34 40  0  0  1  0  0  0  0  0999 V2000
  187.9450  178.0330  139.1060 C   0  0  0  0  0  0  0  0  0  0  0  0
  188.9900  177.9510  141.3080 C   0  0  0  0  0  0  0  0  0  0  0  0
  186.6900  178.8060  141.1350 C   0  0  1  0  0  3  0  0  0  0  0  0
  185.1870  177.8380  142.9690 C   0  0  1  0  0  3  0  0  0  0  0  0
  190.2610  177.3410  139.3400 C   0  0  0  0  0  3  0  0  0  0  0  0
  190.1810  177.4980  140.7340 C   0  0  0  0  0  3  0  0  0  0  0  0
  187.4930  177.7520  143.1350 C   0  0  0  0  0  0  0  0  0  0  0  0
  187.9280  178.3360  140.4640 C   0  0  0  0  0  0  0  0  0  0  0  0
  185.6000  178.0260  144.4490 C   0  0  0  0  0  2  0  0  0  0  0  0
  189.1320  177.5640  138.5320 C   0  0  0  0  0  3  0  0  0  0  0  0
  185.4760  179.0690  140.2360 C   0  0  2  0  0  3  0  0  0  0  0  0
  186.6590  177.9730  138.3870 C   0  0  0  0  0  3  0  0  0  0  0  0
  188.7380  177.8200  142.7320 N   0  0  0  0  0  0  0  0  0  0  0  0
  184.2010  178.8720  142.4300 C   0  0  0  0  0  2  0  0  0  0  0  0
  184.1990  178.8500  140.9530 N   0  0  0  0  0  0  0  0  0  0  0  0
  187.0470  177.7940  144.4810 N   0  0  0  0  0  0  0  0  0  0  0  0
  186.4280  177.8890  142.2240 N   0  0  0  0  0  0  0  0  0  0  0  0
  185.5470  178.3710  138.9420 N   0  0  0  0  0  0  0  0  0  0  0  0
  181.4860  180.0600  138.6480 C   0  0  0  0  0  0  0  0  0  0  0  0
  180.4480  179.1860  138.9730 C   0  0  0  0  0  3  0  0  0  0  0  0
  182.9310  178.9650  140.2740 C   0  0  0  0  0  0  0  0  0  0  0  0
  180.6410  178.2040  139.9470 C   0  0  0  0  0  3  0  0  0  0  0  0
  182.7200  179.9520  139.2960 C   0  0  0  0  0  3  0  0  0  0  0  0
  181.8740  178.0960  140.5950 C   0  0  0  0  0  3  0  0  0  0  0  0
  181.2820  181.1060  137.6120 C   0  0  0  0  0  1  0  0  0  0  0  0
  188.7770  176.9490  145.9370 C   0  0  0  0  0  3  0  0  0  0  0  0
  187.8340  177.8450  145.6750 C   0  0  0  0  0  3  0  0  0  0  0  0
  189.5740  177.0490  147.1890 C   0  0  0  0  0  2  0  0  0  0  0  0
  191.0110  177.4560  146.8670 C   0  0  2  0  0  3  0  0  0  0  0  0
  191.4420  176.9880  145.4740 C   0  0  0  0  0  2  0  0  0  0  0  0
  192.7150  175.2370  146.6020 N   0  0  0  0  0  2  0  0  0  0  0  0
  192.0700  175.6550  147.8440 C   0  0  0  0  0  2  0  0  0  0  0  0
  191.9310  177.0590  147.8720 O   0  0  0  0  0  0  0  0  0  0  0  0
  191.7810  175.5020  145.5140 C   0  0  0  0  0  2  0  0  0  0  0  0
  1  8  1  0  0  0  0
  2 13  1  0  0  0  0
  3  8  1  6  0  0  0
  3 17  1  0  0  0  0
  4 14  1  6  0  0  0
  4  9  1  0  0  0  0
  5  6  2  0  0  0  0
  6  2  1  0  0  0  0
  7 16  1  0  0  0  0
  8  2  2  0  0  0  0
  9 16  1  0  0  0  0
 10  1  2  0  0  0  0
 10  5  1  0  0  0  0
 11 18  1  6  0  0  0
 11 15  1  0  0  0  0
 11  3  1  0  0  0  0
 12 18  2  0  0  0  0
 12  1  1  0  0  0  0
 13  7  2  0  0  0  0
 15 14  1  0  0  0  0
 16 27  1  0  0  0  0
 17  4  1  0  0  0  0
 17  7  1  0  0  0  0
 19 20  2  0  0  0  0
 19 23  1  0  0  0  0
 20 22  1  0  0  0  0
 21 24  1  0  0  0  0
 21 15  1  0  0  0  0
 22 24  2  0  0  0  0
 23 21  2  0  0  0  0
 25 19  1  0  0  0  0
 26 28  1  0  0  0  0
 27 26  2  0  0  0  0
 29 28  1  1  0  0  0
 29 33  1  0  0  0  0
 30 34  1  0  0  0  0
 30 29  1  0  0  0  0
 31 32  1  0  0  0  0
 32 33  1  0  0  0  0
 34 31  1  0  0  0  0
M  END
>  <MODEL>
4

>  <REMARK>
 VINA RESULT:      -9.3      3.353      6.650
  Name = 
  4 active torsions:
  status: ('A' for Active; 'I' for Inactive)
    1  A    between atoms: C_3  and  C_13
    2  A    between atoms: C_11  and  C_13
    3  A    between atoms: C_12  and  N_28
    4  A    between atoms: C_17  and  N_29
                            x       y       z     vdW  Elec       q    Type
                         _______ _______ _______ _____ _____    ______ ____

>  <TORSDO>
F 4

$$$$
=
 OpenBabel10272400053D

 34 40  0  0  1  0  0  0  0  0999 V2000
  190.3520  177.2330  140.7830 C   0  0  0  0  0  0  0  0  0  0  0  0
  188.4730  177.6680  139.2910 C   0  0  0  0  0  0  0  0  0  0  0  0
  188.0100  177.2820  141.6760 C   0  0  1  0  0  3  0  0  0  0  0  0
  186.3200  178.9740  142.5920 C   0  0  1  0  0  3  0  0  0  0  0  0
  190.7140  177.4800  138.3940 C   0  0  0  0  0  3  0  0  0  0  0  0
  189.3410  177.7080  138.1970 C   0  0  0  0  0  3  0  0  0  0  0  0
  186.5650  178.6310  140.3170 C   0  0  0  0  0  0  0  0  0  0  0  0
  188.9820  177.3010  140.5540 C   0  0  0  0  0  0  0  0  0  0  0  0
  184.9370  179.0950  141.9050 C   0  0  0  0  0  2  0  0  0  0  0  0
  191.2250  177.2880  139.6900 C   0  0  0  0  0  3  0  0  0  0  0  0
  188.5810  177.0460  143.0790 C   0  0  2  0  0  3  0  0  0  0  0  0
  190.8380  177.3650  142.1690 C   0  0  0  0  0  3  0  0  0  0  0  0
  187.1290  178.2110  139.2110 N   0  0  0  0  0  0  0  0  0  0  0  0
  186.3640  178.0570  143.8120 C   0  0  0  0  0  2  0  0  0  0  0  0
  187.7610  177.6970  144.1270 N   0  0  0  0  0  0  0  0  0  0  0  0
  185.2130  179.0300  140.4660 N   0  0  0  0  0  0  0  0  0  0  0  0
  187.2090  178.4820  141.5600 N   0  0  0  0  0  0  0  0  0  0  0  0
  190.0170  177.3570  143.1840 N   0  0  0  0  0  0  0  0  0  0  0  0
  189.8260  177.2300  147.2340 C   0  0  0  0  0  0  0  0  0  0  0  0
  188.9140  177.6050  148.2210 C   0  0  0  0  0  3  0  0  0  0  0  0
  188.1600  177.6690  145.5130 C   0  0  0  0  0  0  0  0  0  0  0  0
  187.6250  178.0080  147.8640 C   0  0  0  0  0  3  0  0  0  0  0  0
  189.4510  177.2600  145.8870 C   0  0  0  0  0  3  0  0  0  0  0  0
  187.2500  178.0380  146.5190 C   0  0  0  0  0  3  0  0  0  0  0  0
  191.1980  176.8000  147.6120 C   0  0  0  0  0  1  0  0  0  0  0  0
  183.5710  178.0650  138.9830 C   0  0  0  0  0  3  0  0  0  0  0  0
  184.2010  179.1310  139.4590 C   0  0  0  0  0  3  0  0  0  0  0  0
  182.5200  178.2220  137.9420 C   0  0  0  0  0  2  0  0  0  0  0  0
  181.1340  178.0600  138.5640 C   0  0  2  0  0  3  0  0  0  0  0  0
  181.1070  176.9590  139.6290 C   0  0  0  0  0  2  0  0  0  0  0  0
  179.9820  175.5660  137.9690 N   0  0  0  0  0  2  0  0  0  0  0  0
  180.2550  176.6180  136.9930 C   0  0  0  0  0  2  0  0  0  0  0  0
  180.1140  177.8880  137.5930 O   0  0  0  0  0  0  0  0  0  0  0  0
  181.0580  175.5930  138.9520 C   0  0  0  0  0  2  0  0  0  0  0  0
  1 12  1  0  0  0  0
  2  8  2  0  0  0  0
  3  8  1  6  0  0  0
  3 11  1  0  0  0  0
  4  9  1  6  0  0  0
  4 14  1  0  0  0  0
  5 10  1  0  0  0  0
  6  5  2  0  0  0  0
  6  2  1  0  0  0  0
  7 16  1  0  0  0  0
  7 17  1  0  0  0  0
  8  1  1  0  0  0  0
 10  1  2  0  0  0  0
 11 18  1  6  0  0  0
 11 15  1  0  0  0  0
 12 18  2  0  0  0  0
 13  2  1  0  0  0  0
 13  7  2  0  0  0  0
 14 15  1  0  0  0  0
 15 21  1  0  0  0  0
 16  9  1  0  0  0  0
 17  3  1  0  0  0  0
 17  4  1  0  0  0  0
 19 25  1  0  0  0  0
 19 20  1  0  0  0  0
 21 23  1  0  0  0  0
 21 24  2  0  0  0  0
 22 20  2  0  0  0  0
 23 19  2  0  0  0  0
 24 22  1  0  0  0  0
 26 27  2  0  0  0  0
 27 16  1  0  0  0  0
 28 26  1  0  0  0  0
 29 28  1  6  0  0  0
 29 30  1  0  0  0  0
 31 34  1  0  0  0  0
 32 33  1  0  0  0  0
 32 31  1  0  0  0  0
 33 29  1  0  0  0  0
 34 30  1  0  0  0  0
M  END
>  <MODEL>
5

>  <REMARK>
 VINA RESULT:      -9.2      3.412      7.926
  Name = 
  4 active torsions:
  status: ('A' for Active; 'I' for Inactive)
    1  A    between atoms: C_3  and  C_13
    2  A    between atoms: C_11  and  C_13
    3  A    between atoms: C_12  and  N_28
    4  A    between atoms: C_17  and  N_29
                            x       y       z     vdW  Elec       q    Type
                         _______ _______ _______ _____ _____    ______ ____

>  <TORSDO>
F 4

$$$$
=
 OpenBabel10272400053D

 34 40  0  0  1  0  0  0  0  0999 V2000
  187.1370  177.8100  145.9660 C   0  0  0  0  0  0  0  0  0  0  0  0
  189.0590  177.4000  144.5210 C   0  0  0  0  0  0  0  0  0  0  0  0
  186.8190  177.4510  143.5050 C   0  0  1  0  0  3  0  0  0  0  0  0
  186.8020  178.8100  141.3340 C   0  0  1  0  0  3  0  0  0  0  0  0
  189.3630  177.6000  146.9150 C   0  0  0  0  0  3  0  0  0  0  0  0
  189.9060  177.4160  145.6330 C   0  0  0  0  0  3  0  0  0  0  0  0
  188.7800  178.0430  142.2570 C   0  0  0  0  0  0  0  0  0  0  0  0
  187.6650  177.4690  144.7250 C   0  0  0  0  0  0  0  0  0  0  0  0
  187.7760  178.4140  140.1980 C   0  0  0  0  0  2  0  0  0  0  0  0
  187.9870  177.8430  147.0780 C   0  0  0  0  0  3  0  0  0  0  0  0
  185.3180  177.6900  143.7030 C   0  0  2  0  0  3  0  0  0  0  0  0
  185.7730  178.3690  146.0170 C   0  0  0  0  0  3  0  0  0  0  0  0
  189.5750  177.5450  143.1730 N   0  0  0  0  0  0  0  0  0  0  0  0
  185.3940  178.2320  141.2180 C   0  0  0  0  0  2  0  0  0  0  0  0
  184.6970  178.3250  142.5170 N   0  0  0  0  0  0  0  0  0  0  0  0
  189.0440  178.1010  140.8650 N   0  0  0  0  0  0  0  0  0  0  0  0
  187.4380  178.3470  142.5500 N   0  0  0  0  0  0  0  0  0  0  0  0
  184.9990  178.3760  144.9660 N   0  0  0  0  0  0  0  0  0  0  0  0
  181.2300  179.1620  141.3280 C   0  0  0  0  0  0  0  0  0  0  0  0
  180.6040  179.4840  142.5330 C   0  0  0  0  0  3  0  0  0  0  0  0
  183.3080  178.7120  142.5170 C   0  0  0  0  0  0  0  0  0  0  0  0
  181.3210  179.4250  143.7310 C   0  0  0  0  0  3  0  0  0  0  0  0
  182.5750  178.7800  141.3200 C   0  0  0  0  0  3  0  0  0  0  0  0
  182.6640  179.0440  143.7220 C   0  0  0  0  0  3  0  0  0  0  0  0
  180.4690  179.2250  140.0540 C   0  0  0  0  0  1  0  0  0  0  0  0
  190.3520  176.5220  139.5920 C   0  0  0  0  0  3  0  0  0  0  0  0
  190.2320  177.7100  140.1690 C   0  0  0  0  0  3  0  0  0  0  0  0
  191.6030  176.1640  138.8730 C   0  0  0  0  0  2  0  0  0  0  0  0
  191.3950  176.2770  137.3630 C   0  0  2  0  0  3  0  0  0  0  0  0
  190.2910  175.3390  136.8650 C   0  0  0  0  0  2  0  0  0  0  0  0
  192.0770  173.9090  136.0110 N   0  0  0  0  0  2  0  0  0  0  0  0
  193.0210  174.7770  136.7110 C   0  0  0  0  0  2  0  0  0  0  0  0
  192.5990  176.1220  136.6310 O   0  0  0  0  0  0  0  0  0  0  0  0
  190.8320  173.9160  136.7690 C   0  0  0  0  0  2  0  0  0  0  0  0
  1 12  1  0  0  0  0
  1 10  1  0  0  0  0
  2  8  1  0  0  0  0
  2  6  2  0  0  0  0
  3 11  1  0  0  0  0
  3  8  1  1  0  0  0
  4  9  1  6  0  0  0
  4 17  1  0  0  0  0
  5 10  2  0  0  0  0
  6  5  1  0  0  0  0
  7 17  1  0  0  0  0
  7 13  2  0  0  0  0
  8  1  2  0  0  0  0
  9 16  1  0  0  0  0
 11 18  1  1  0  0  0
 13  2  1  0  0  0  0
 14  4  1  0  0  0  0
 14 15  1  0  0  0  0
 15 21  1  0  0  0  0
 15 11  1  0  0  0  0
 16  7  1  0  0  0  0
 17  3  1  0  0  0  0
 18 12  2  0  0  0  0
 19 20  1  0  0  0  0
 20 22  2  0  0  0  0
 21 24  2  0  0  0  0
 23 19  2  0  0  0  0
 23 21  1  0  0  0  0
 24 22  1  0  0  0  0
 25 19  1  0  0  0  0
 26 27  2  0  0  0  0
 27 16  1  0  0  0  0
 28 26  1  0  0  0  0
 29 28  1  1  0  0  0
 30 29  1  0  0  0  0
 31 32  1  0  0  0  0
 31 34  1  0  0  0  0
 33 32  1  0  0  0  0
 33 29  1  0  0  0  0
 34 30  1  0  0  0  0
M  END
>  <MODEL>
6

>  <REMARK>
 VINA RESULT:      -9.2      1.317      1.898
  Name = 
  4 active torsions:
  status: ('A' for Active; 'I' for Inactive)
    1  A    between atoms: C_3  and  C_13
    2  A    between atoms: C_11  and  C_13
    3  A    between atoms: C_12  and  N_28
    4  A    between atoms: C_17  and  N_29
                            x       y       z     vdW  Elec       q    Type
                         _______ _______ _______ _____ _____    ______ ____

>  <TORSDO>
F 4

$$$$
=
 OpenBabel10272400053D

 34 40  0  0  1  0  0  0  0  0999 V2000
  185.8340  178.5330  142.1100 C   0  0  0  0  0  0  0  0  0  0  0  0
  186.7590  178.4130  139.8570 C   0  0  0  0  0  0  0  0  0  0  0  0
  188.3130  178.3920  141.7640 C   0  0  1  0  0  3  0  0  0  0  0  0
  190.1320  176.6120  141.4750 C   0  0  1  0  0  3  0  0  0  0  0  0
  184.3760  178.6950  140.1750 C   0  0  0  0  0  3  0  0  0  0  0  0
  185.4770  178.5420  139.3160 C   0  0  0  0  0  3  0  0  0  0  0  0
  188.8650  177.3380  139.6810 C   0  0  0  0  0  0  0  0  0  0  0  0
  186.9280  178.5420  141.2510 C   0  0  0  0  0  0  0  0  0  0  0  0
  191.0180  176.6490  140.2050 C   0  0  0  0  0  2  0  0  0  0  0  0
  184.5480  178.6450  141.5700 C   0  0  0  0  0  3  0  0  0  0  0  0
  188.4860  178.3660  143.2870 C   0  0  2  0  0  3  0  0  0  0  0  0
  186.0520  178.1500  143.5170 C   0  0  0  0  0  3  0  0  0  0  0  0
  187.8720  177.9290  139.0610 N   0  0  0  0  0  0  0  0  0  0  0  0
  190.7230  177.3020  142.7020 C   0  0  0  0  0  2  0  0  0  0  0  0
  189.6620  177.5650  143.6970 N   0  0  0  0  0  0  0  0  0  0  0  0
  190.1010  176.9560  139.1020 N   0  0  0  0  0  0  0  0  0  0  0  0
  188.8920  177.2520  141.0850 N   0  0  0  0  0  0  0  0  0  0  0  0
  187.2540  178.0030  144.0070 N   0  0  0  0  0  0  0  0  0  0  0  0
  189.3690  177.5020  147.4440 C   0  0  0  0  0  0  0  0  0  0  0  0
  190.5830  176.9120  147.7990 C   0  0  0  0  0  3  0  0  0  0  0  0
  189.9670  177.3410  145.0890 C   0  0  0  0  0  0  0  0  0  0  0  0
  191.4940  176.5380  146.8080 C   0  0  0  0  0  3  0  0  0  0  0  0
  189.0630  177.7170  146.0970 C   0  0  0  0  0  3  0  0  0  0  0  0
  191.1880  176.7530  145.4620 C   0  0  0  0  0  3  0  0  0  0  0  0
  188.4000  177.9010  148.4980 C   0  0  0  0  0  1  0  0  0  0  0  0
  190.9500  176.0090  137.0510 C   0  0  0  0  0  3  0  0  0  0  0  0
  190.5110  177.0580  137.7350 C   0  0  0  0  0  3  0  0  0  0  0  0
  191.3570  176.1630  135.6280 C   0  0  0  0  0  2  0  0  0  0  0  0
  192.4150  175.1210  135.2670 C   0  0  2  0  0  3  0  0  0  0  0  0
  192.9800  174.4240  136.5080 C   0  0  0  0  0  2  0  0  0  0  0  0
  194.9660  175.8150  136.2210 N   0  0  0  0  0  2  0  0  0  0  0  0
  194.2320  176.5380  135.1860 C   0  0  0  0  0  2  0  0  0  0  0  0
  193.4380  175.6450  134.4360 O   0  0  0  0  0  0  0  0  0  0  0  0
  193.9910  175.3370  137.1940 C   0  0  0  0  0  2  0  0  0  0  0  0
  1 12  1  0  0  0  0
  2  8  1  0  0  0  0
  3  8  1  1  0  0  0
  3 11  1  0  0  0  0
  4  9  1  6  0  0  0
  4 14  1  0  0  0  0
  5 10  2  0  0  0  0
  6  2  2  0  0  0  0
  6  5  1  0  0  0  0
  7 17  1  0  0  0  0
  8  1  2  0  0  0  0
 10  1  1  0  0  0  0
 11 15  1  0  0  0  0
 11 18  1  1  0  0  0
 12 18  2  0  0  0  0
 13  7  2  0  0  0  0
 13  2  1  0  0  0  0
 14 15  1  0  0  0  0
 15 21  1  0  0  0  0
 16  7  1  0  0  0  0
 16  9  1  0  0  0  0
 17  4  1  0  0  0  0
 17  3  1  0  0  0  0
 19 20  1  0  0  0  0
 19 25  1  0  0  0  0
 21 24  2  0  0  0  0
 21 23  1  0  0  0  0
 22 20  2  0  0  0  0
 23 19  2  0  0  0  0
 24 22  1  0  0  0  0
 26 27  2  0  0  0  0
 27 16  1  0  0  0  0
 28 26  1  0  0  0  0
 29 28  1  1  0  0  0
 29 30  1  0  0  0  0
 30 34  1  0  0  0  0
 31 34  1  0  0  0  0
 32 31  1  0  0  0  0
 33 32  1  0  0  0  0
 33 29  1  0  0  0  0
M  END
>  <MODEL>
7

>  <REMARK>
 VINA RESULT:      -9.1      1.551      5.342
  Name = 
  4 active torsions:
  status: ('A' for Active; 'I' for Inactive)
    1  A    between atoms: C_3  and  C_13
    2  A    between atoms: C_11  and  C_13
    3  A    between atoms: C_12  and  N_28
    4  A    between atoms: C_17  and  N_29
                            x       y       z     vdW  Elec       q    Type
                         _______ _______ _______ _____ _____    ______ ____

>  <TORSDO>
F 4

$$$$
=
 OpenBabel10272400053D

 34 40  0  0  1  0  0  0  0  0999 V2000
  191.0870  177.3140  141.9370 C   0  0  0  0  0  0  0  0  0  0  0  0
  190.0690  177.3170  139.7210 C   0  0  0  0  0  0  0  0  0  0  0  0
  188.5950  177.1940  141.6870 C   0  0  1  0  0  3  0  0  0  0  0  0
  186.5920  178.7730  141.4600 C   0  0  1  0  0  3  0  0  0  0  0  0
  192.4790  177.2860  139.9470 C   0  0  0  0  0  3  0  0  0  0  0  0
  191.3360  177.3170  139.1310 C   0  0  0  0  0  3  0  0  0  0  0  0
  187.8580  178.1660  139.6210 C   0  0  0  0  0  0  0  0  0  0  0  0
  189.9680  177.1840  141.1210 C   0  0  0  0  0  0  0  0  0  0  0  0
  185.6670  178.6330  140.2260 C   0  0  0  0  0  2  0  0  0  0  0  0
  192.3560  177.3310  141.3470 C   0  0  0  0  0  3  0  0  0  0  0  0
  188.4790  177.2160  143.2150 C   0  0  2  0  0  3  0  0  0  0  0  0
  190.8850  177.6850  143.3500 C   0  0  0  0  0  3  0  0  0  0  0  0
  188.8820  177.6760  138.9660 N   0  0  0  0  0  0  0  0  0  0  0  0
  186.1230  178.0370  142.7130 C   0  0  0  0  0  2  0  0  0  0  0  0
  187.2420  177.8950  143.6670 N   0  0  0  0  0  0  0  0  0  0  0  0
  186.5670  178.4130  139.0890 N   0  0  0  0  0  0  0  0  0  0  0  0
  187.8750  178.2620  141.0260 N   0  0  0  0  0  0  0  0  0  0  0  0
  189.6940  177.7110  143.8850 N   0  0  0  0  0  0  0  0  0  0  0  0
  187.6580  177.9870  147.4020 C   0  0  0  0  0  0  0  0  0  0  0  0
  186.4160  178.4860  147.7980 C   0  0  0  0  0  3  0  0  0  0  0  0
  186.9700  178.0980  145.0680 C   0  0  0  0  0  0  0  0  0  0  0  0
  185.4470  178.7900  146.8390 C   0  0  0  0  0  3  0  0  0  0  0  0
  187.9330  177.7930  146.0450 C   0  0  0  0  0  3  0  0  0  0  0  0
  185.7220  178.5950  145.4830 C   0  0  0  0  0  3  0  0  0  0  0  0
  188.6900  177.6630  148.4220 C   0  0  0  0  0  1  0  0  0  0  0  0
  185.4190  177.2000  137.3480 C   0  0  0  0  0  3  0  0  0  0  0  0
  186.1180  178.2570  137.7400 C   0  0  0  0  0  3  0  0  0  0  0  0
  184.9670  177.0860  135.9350 C   0  0  0  0  0  2  0  0  0  0  0  0
  183.6940  176.2450  135.8550 C   0  0  2  0  0  3  0  0  0  0  0  0
  183.5040  175.3730  137.1000 C   0  0  0  0  0  2  0  0  0  0  0  0
  184.2420  173.4900  135.7320 N   0  0  0  0  0  2  0  0  0  0  0  0
  184.5750  174.4590  134.6910 C   0  0  0  0  0  2  0  0  0  0  0  0
  183.6110  175.4890  134.6570 O   0  0  0  0  0  0  0  0  0  0  0  0
  184.4170  174.1550  137.0180 C   0  0  0  0  0  2  0  0  0  0  0  0
  1 12  1  0  0  0  0
  2  8  1  0  0  0  0
  3  8  1  1  0  0  0
  3 11  1  0  0  0  0
  4  9  1  6  0  0  0
  4 14  1  0  0  0  0
  5 10  2  0  0  0  0
  6  2  2  0  0  0  0
  6  5  1  0  0  0  0
  7 17  1  0  0  0  0
  8  1  2  0  0  0  0
 10  1  1  0  0  0  0
 11 15  1  0  0  0  0
 11 18  1  1  0  0  0
 12 18  2  0  0  0  0
 13  7  2  0  0  0  0
 13  2  1  0  0  0  0
 14 15  1  0  0  0  0
 15 21  1  0  0  0  0
 16  7  1  0  0  0  0
 16  9  1  0  0  0  0
 17  4  1  0  0  0  0
 17  3  1  0  0  0  0
 19 20  1  0  0  0  0
 19 25  1  0  0  0  0
 21 24  2  0  0  0  0
 21 23  1  0  0  0  0
 22 20  2  0  0  0  0
 23 19  2  0  0  0  0
 24 22  1  0  0  0  0
 26 27  2  0  0  0  0
 27 16  1  0  0  0  0
 28 26  1  0  0  0  0
 29 28  1  1  0  0  0
 29 30  1  0  0  0  0
 31 34  1  0  0  0  0
 32 31  1  0  0  0  0
 33 32  1  0  0  0  0
 33 29  1  0  0  0  0
 34 30  1  0  0  0  0
M  END
>  <MODEL>
8

>  <REMARK>
 VINA RESULT:      -8.9      3.837      6.125
  Name = 
  4 active torsions:
  status: ('A' for Active; 'I' for Inactive)
    1  A    between atoms: C_3  and  C_13
    2  A    between atoms: C_11  and  C_13
    3  A    between atoms: C_12  and  N_28
    4  A    between atoms: C_17  and  N_29
                            x       y       z     vdW  Elec       q    Type
                         _______ _______ _______ _____ _____    ______ ____

>  <TORSDO>
F 4

$$$$
=
 OpenBabel10272400053D

 34 40  0  0  1  0  0  0  0  0999 V2000
  182.1700  178.6990  142.4060 C   0  0  0  0  0  0  0  0  0  0  0  0
  184.5640  178.5800  142.8550 C   0  0  0  0  0  0  0  0  0  0  0  0
  183.7450  177.8310  140.6590 C   0  0  1  0  0  3  0  0  0  0  0  0
  185.2090  178.7220  138.7560 C   0  0  1  0  0  3  0  0  0  0  0  0
  183.0370  179.2810  144.5980 C   0  0  0  0  0  3  0  0  0  0  0  0
  184.3480  179.0270  144.1620 C   0  0  0  0  0  3  0  0  0  0  0  0
  185.9610  178.7050  140.9440 C   0  0  0  0  0  0  0  0  0  0  0  0
  183.4500  178.2990  142.0370 C   0  0  0  0  0  0  0  0  0  0  0  0
  186.7260  178.4110  138.7730 C   0  0  0  0  0  2  0  0  0  0  0  0
  181.9540  179.1620  143.7090 C   0  0  0  0  0  3  0  0  0  0  0  0
  182.5500  177.6810  139.7110 C   0  0  2  0  0  3  0  0  0  0  0  0
  181.1550  178.8620  141.3490 C   0  0  0  0  0  3  0  0  0  0  0  0
  185.8820  178.6170  142.2500 N   0  0  0  0  0  0  0  0  0  0  0  0
  184.3570  177.7690  137.9220 C   0  0  0  0  0  2  0  0  0  0  0  0
  182.9340  177.8980  138.2970 N   0  0  0  0  0  0  0  0  0  0  0  0
  187.1420  178.5830  140.1690 N   0  0  0  0  0  0  0  0  0  0  0  0
  184.8020  178.6760  140.1450 N   0  0  0  0  0  0  0  0  0  0  0  0
  181.3760  178.4680  140.1240 N   0  0  0  0  0  0  0  0  0  0  0  0
  180.5020  176.6640  135.7100 C   0  0  0  0  0  0  0  0  0  0  0  0
  180.0420  177.8690  135.1770 C   0  0  0  0  0  3  0  0  0  0  0  0
  181.9500  177.8820  137.2440 C   0  0  0  0  0  0  0  0  0  0  0  0
  180.5320  179.0820  135.6680 C   0  0  0  0  0  3  0  0  0  0  0  0
  181.4510  176.6700  136.7360 C   0  0  0  0  0  3  0  0  0  0  0  0
  181.4810  179.0880  136.6930 C   0  0  0  0  0  3  0  0  0  0  0  0
  179.9820  175.3730  135.1880 C   0  0  0  0  0  1  0  0  0  0  0  0
  188.9760  177.2280  140.9590 C   0  0  0  0  0  3  0  0  0  0  0  0
  188.4890  178.4150  140.6220 C   0  0  0  0  0  3  0  0  0  0  0  0
  190.3850  177.1020  141.4170 C   0  0  0  0  0  2  0  0  0  0  0  0
  190.4570  176.2270  142.6680 C   0  0  2  0  0  3  0  0  0  0  0  0
  189.2050  176.3690  143.5390 C   0  0  0  0  0  2  0  0  0  0  0  0
  190.5610  177.7480  145.0300 N   0  0  0  0  0  2  0  0  0  0  0  0
  191.6100  177.7030  144.0140 C   0  0  0  0  0  2  0  0  0  0  0  0
  191.6490  176.4280  143.4100 O   0  0  0  0  0  0  0  0  0  0  0  0
  189.2800  177.6660  144.3380 C   0  0  0  0  0  2  0  0  0  0  0  0
  1 10  1  0  0  0  0
  2  6  2  0  0  0  0
  3  8  1  1  0  0  0
  4 14  1  6  0  0  0
  4  9  1  0  0  0  0
  4 17  1  0  0  0  0
  6  5  1  0  0  0  0
  7 13  2  0  0  0  0
  8  1  2  0  0  0  0
  8  2  1  0  0  0  0
  9 16  1  0  0  0  0
 10  5  2  0  0  0  0
 11 18  1  1  0  0  0
 11  3  1  0  0  0  0
 12  1  1  0  0  0  0
 13  2  1  0  0  0  0
 14 15  1  0  0  0  0
 15 11  1  0  0  0  0
 16 27  1  0  0  0  0
 16  7  1  0  0  0  0
 17  3  1  0  0  0  0
 17  7  1  0  0  0  0
 18 12  2  0  0  0  0
 19 23  1  0  0  0  0
 20 22  1  0  0  0  0
 20 19  2  0  0  0  0
 21 15  1  0  0  0  0
 22 24  2  0  0  0  0
 23 21  2  0  0  0  0
 24 21  1  0  0  0  0
 25 19  1  0  0  0  0
 26 28  1  0  0  0  0
 27 26  2  0  0  0  0
 29 28  1  6  0  0  0
 29 33  1  0  0  0  0
 29 30  1  0  0  0  0
 30 34  1  0  0  0  0
 32 31  1  0  0  0  0
 33 32  1  0  0  0  0
 34 31  1  0  0  0  0
M  END
>  <MODEL>
9

>  <REMARK>
 VINA RESULT:      -8.6      3.564      6.970
  Name = 
  4 active torsions:
  status: ('A' for Active; 'I' for Inactive)
    1  A    between atoms: C_3  and  C_13
    2  A    between atoms: C_11  and  C_13
    3  A    between atoms: C_12  and  N_28
    4  A    between atoms: C_17  and  N_29
                            x       y       z     vdW  Elec       q    Type
                         _______ _______ _______ _____ _____    ______ ____

>  <TORSDO>
F 4

$$$$
