=
 OpenBabel10272414323D

 43 49  0  0  1  0  0  0  0  0999 V2000
  191.1400  176.5570  146.7880 C   0  0  0  0  0  0  0  0  0  0  0  0
  188.9100  177.8590  142.4550 C   0  0  0  0  0  0  0  0  0  0  0  0
  186.1650  178.1900  142.9820 C   0  0  0  0  0  0  0  0  0  0  0  0
  190.6760  177.1330  144.4810 C   0  0  0  0  0  0  0  0  0  0  0  0
  189.7840  176.6990  147.0990 C   0  0  0  0  0  3  0  0  0  0  0  0
  192.1090  176.1770  147.8480 C   0  0  0  0  0  1  0  0  0  0  0  0
  189.3040  177.2810  144.7860 C   0  0  0  0  0  0  0  0  0  0  0  0
  191.5850  176.7730  145.4810 C   0  0  0  0  0  3  0  0  0  0  0  0
  188.8700  177.0590  146.1050 C   0  0  0  0  0  3  0  0  0  0  0  0
  187.0390  177.8160  144.0100 C   0  0  0  0  0  3  0  0  0  0  0  0
  188.4080  177.6480  143.7640 C   0  0  0  0  0  0  0  0  0  0  0  0
  190.2400  177.7030  142.2060 N   0  0  0  0  0  0  0  0  0  0  0  0
  188.0300  178.2310  141.4220 C   0  0  0  0  0  0  0  0  0  0  0  0
  186.6690  178.3970  141.6940 C   0  0  0  0  0  3  0  0  0  0  0  0
  191.1200  177.3500  143.1780 C   0  0  0  0  0  3  0  0  0  0  0  0
  184.7280  178.3830  143.2460 C   0  0  0  0  0  0  0  0  0  0  0  0
  183.9060  178.5770  142.2570 N   0  0  0  0  0  0  0  0  0  0  0  0
  184.2790  178.3480  144.5290 F   0  0  0  0  0  0  0  0  0  0  0  0
  182.4890  178.7590  142.3760 C   0  0  0  0  0  0  0  0  0  0  0  0
  181.9840  179.3530  143.3660 O   0  0  0  0  0  0  0  0  0  0  0  0
  181.5900  178.2140  141.3200 C   0  0  0  0  0  2  0  0  0  0  0  0
  181.5300  179.1540  140.1260 C   0  0  2  0  0  3  0  0  0  0  0  0
  180.2060  179.5160  137.7670 S   0  0  0  0  0  0  0  0  0  0  0  0
  180.4920  180.2310  140.3510 C   0  0  0  0  0  2  0  0  0  0  0  0
  181.1090  178.3910  138.8840 C   0  0  1  0  0  3  0  0  0  0  0  0
  180.2140  180.8490  139.0010 C   0  0  0  0  0  2  0  0  0  0  0  0
  182.2370  176.4630  137.6670 N   0  0  0  0  0  0  0  0  0  0  0  0
  182.2990  177.7930  138.1960 C   0  0  0  0  0  0  0  0  0  0  0  0
  183.8520  174.6360  137.8210 C   0  0  0  0  0  2  0  0  0  0  0  0
  181.4620  174.2920  137.1630 C   0  0  0  0  0  3  0  0  0  0  0  0
  182.9000  174.4260  136.6570 C   0  0  1  0  0  3  0  0  0  0  0  0
  181.0460  175.6400  137.7210 C   0  0  0  0  0  3  0  0  0  0  0  0
  183.3660  175.8270  137.0130 C   0  0  1  0  0  3  0  0  0  0  0  0
  183.3670  178.4590  138.1040 O   0  0  0  0  0  0  0  0  0  0  0  0
  188.5290  178.4850  140.0350 C   0  0  0  0  0  2  0  0  0  0  0  0
  186.7780  176.9370  137.1290 C   0  0  0  0  0  2  0  0  0  0  0  0
  187.5640  175.6260  137.2150 C   0  0  2  0  0  3  0  0  0  0  0  0
  189.3320  176.8180  138.5980 C   0  0  0  0  0  2  0  0  0  0  0  0
  187.3510  178.0190  138.0530 C   0  0  0  0  0  2  0  0  0  0  0  0
  188.1090  177.4120  139.1460 N   0  0  0  0  0  0  0  0  0  0  0  0
  189.0590  175.8940  137.3970 C   0  0  0  0  0  2  0  0  0  0  0  0
  186.3960  175.4440  135.1400 O   0  0  0  0  0  1  0  0  0  0  0  0
  187.3150  174.7960  135.9670 C   0  0  0  0  0  2  0  0  0  0  0  0
  1  5  1  0  0  0  0
  1  6  1  0  0  0  0
  2 11  1  0  0  0  0
  3 16  1  0  0  0  0
  3 10  1  0  0  0  0
  4  7  2  0  0  0  0
  4  8  1  0  0  0  0
  7  9  1  0  0  0  0
  8  1  2  0  0  0  0
  9  5  2  0  0  0  0
 11 10  2  0  0  0  0
 11  7  1  0  0  0  0
 12  2  1  0  0  0  0
 12 15  2  0  0  0  0
 13 14  1  0  0  0  0
 13  2  2  0  0  0  0
 14  3  2  0  0  0  0
 15  4  1  0  0  0  0
 16 18  1  0  0  0  0
 17 19  1  0  0  0  0
 17 16  2  0  0  0  0
 19 20  2  0  0  0  0
 21 19  1  0  0  0  0
 22 24  1  0  0  0  0
 22 21  1  1  0  0  0
 23 25  1  0  0  0  0
 23 26  1  0  0  0  0
 25 28  1  6  0  0  0
 25 22  1  0  0  0  0
 26 24  1  0  0  0  0
 27 32  1  0  0  0  0
 27 28  1  0  0  0  0
 30 32  2  0  0  0  0
 31 33  1  0  0  0  0
 31 30  1  1  0  0  0
 31 29  1  0  0  0  0
 33 27  1  0  0  0  0
 33 29  1  1  0  0  0
 34 28  2  0  0  0  0
 35 13  1  0  0  0  0
 36 37  1  0  0  0  0
 36 39  1  0  0  0  0
 37 43  1  6  0  0  0
 37 41  1  0  0  0  0
 38 40  1  0  0  0  0
 39 40  1  0  0  0  0
 40 35  1  0  0  0  0
 41 38  1  0  0  0  0
 42 43  1  0  0  0  0
M  END
>  <MODEL>
1

>  <REMARK>
 VINA RESULT:      -9.6      0.000      0.000
  Name = 
  8 active torsions:
  status: ('A' for Active; 'I' for Inactive)
    1  A    between atoms: C_1  and  C_34
    2  A    between atoms: C_1  and  N_35
    3  A    between atoms: C_2  and  C_13
    4  A    between atoms: C_3  and  C_4
    5  A    between atoms: C_3  and  C_12
    6  A    between atoms: N_6  and  C_12
    7  A    between atoms: C_14  and  C_22
    8  A    between atoms: C_19  and  C_37
                            x       y       z     vdW  Elec       q    Type
                         _______ _______ _______ _____ _____    ______ ____

>  <TORSDO>
F 8

$$$$
=
 OpenBabel10272414323D

 43 49  0  0  1  0  0  0  0  0999 V2000
  191.2050  176.5320  146.8010 C   0  0  0  0  0  0  0  0  0  0  0  0
  187.0950  177.9950  144.2710 C   0  0  0  0  0  0  0  0  0  0  0  0
  187.7850  178.1440  141.5460 C   0  0  0  0  0  0  0  0  0  0  0  0
  188.9710  177.2330  146.1810 C   0  0  0  0  0  0  0  0  0  0  0  0
  191.6010  176.6000  145.4610 C   0  0  0  0  0  3  0  0  0  0  0  0
  192.1810  176.1220  147.8430 C   0  0  0  0  0  1  0  0  0  0  0  0
  189.3610  177.3030  144.8240 C   0  0  0  0  0  0  0  0  0  0  0  0
  189.8920  176.8490  147.1600 C   0  0  0  0  0  3  0  0  0  0  0  0
  190.6850  176.9820  144.4780 C   0  0  0  0  0  3  0  0  0  0  0  0
  188.7430  177.7670  142.4960 C   0  0  0  0  0  3  0  0  0  0  0  0
  188.4140  177.6880  143.8560 C   0  0  0  0  0  0  0  0  0  0  0  0
  186.7640  177.9170  145.5900 N   0  0  0  0  0  0  0  0  0  0  0  0
  186.1350  178.3780  143.3170 C   0  0  0  0  0  0  0  0  0  0  0  0
  186.4850  178.4450  141.9650 C   0  0  0  0  0  3  0  0  0  0  0  0
  187.6620  177.5470  146.5390 C   0  0  0  0  0  3  0  0  0  0  0  0
  188.1270  178.2110  140.1150 C   0  0  0  0  0  0  0  0  0  0  0  0
  187.1830  178.2640  139.2220 N   0  0  0  0  0  0  0  0  0  0  0  0
  189.4370  178.2220  139.7470 F   0  0  0  0  0  0  0  0  0  0  0  0
  187.3800  178.3500  137.8050 C   0  0  0  0  0  0  0  0  0  0  0  0
  187.9440  179.3480  137.2810 O   0  0  0  0  0  0  0  0  0  0  0  0
  186.8870  177.2500  136.9300 C   0  0  0  0  0  2  0  0  0  0  0  0
  187.5870  175.9410  137.2650 C   0  0  2  0  0  3  0  0  0  0  0  0
  188.3840  173.5990  136.1130 S   0  0  0  0  0  0  0  0  0  0  0  0
  189.0720  176.0510  137.0000 C   0  0  0  0  0  2  0  0  0  0  0  0
  187.0630  174.8290  136.3760 C   0  0  1  0  0  3  0  0  0  0  0  0
  189.6080  174.6390  136.9630 C   0  0  0  0  0  2  0  0  0  0  0  0
  184.5380  174.5670  136.5390 N   0  0  0  0  0  0  0  0  0  0  0  0
  185.8480  174.1910  136.9790 C   0  0  0  0  0  0  0  0  0  0  0  0
  182.5280  175.0640  137.8360 C   0  0  0  0  0  2  0  0  0  0  0  0
  182.7930  175.7090  135.4330 C   0  0  0  0  0  3  0  0  0  0  0  0
  182.1770  174.7000  136.4040 C   0  0  1  0  0  3  0  0  0  0  0  0
  184.3000  175.5310  135.4840 C   0  0  0  0  0  3  0  0  0  0  0  0
  183.3280  174.0000  137.1050 C   0  0  1  0  0  3  0  0  0  0  0  0
  185.9830  173.3350  137.8960 O   0  0  0  0  0  0  0  0  0  0  0  0
  184.7270  178.6860  143.7160 C   0  0  0  0  0  2  0  0  0  0  0  0
  183.2000  177.7870  140.4350 C   0  0  0  0  0  2  0  0  0  0  0  0
  182.1410  178.8900  140.5020 C   0  0  2  0  0  3  0  0  0  0  0  0
  182.5230  179.0560  143.0090 C   0  0  0  0  0  2  0  0  0  0  0  0
  183.9620  177.6330  141.7570 C   0  0  0  0  0  2  0  0  0  0  0  0
  183.8980  178.8690  142.5340 N   0  0  0  0  0  0  0  0  0  0  0  0
  181.4820  178.9340  141.8820 C   0  0  0  0  0  2  0  0  0  0  0  0
  181.7260  178.5550  138.1740 O   0  0  0  0  0  1  0  0  0  0  0  0
  181.1010  178.6690  139.4170 C   0  0  0  0  0  2  0  0  0  0  0  0
  1  8  1  0  0  0  0
  1  6  1  0  0  0  0
  2 12  1  0  0  0  0
  3 14  2  0  0  0  0
  3 10  1  0  0  0  0
  4 15  1  0  0  0  0
  4  8  2  0  0  0  0
  5  1  2  0  0  0  0
  7  4  1  0  0  0  0
  9  7  2  0  0  0  0
  9  5  1  0  0  0  0
 10 11  2  0  0  0  0
 11  2  1  0  0  0  0
 11  7  1  0  0  0  0
 12 15  2  0  0  0  0
 13 35  1  0  0  0  0
 13  2  2  0  0  0  0
 14 13  1  0  0  0  0
 16  3  1  0  0  0  0
 17 16  2  0  0  0  0
 18 16  1  0  0  0  0
 19 17  1  0  0  0  0
 20 19  2  0  0  0  0
 21 19  1  0  0  0  0
 22 21  1  6  0  0  0
 23 25  1  0  0  0  0
 23 26  1  0  0  0  0
 24 22  1  0  0  0  0
 25 28  1  1  0  0  0
 25 22  1  0  0  0  0
 26 24  1  0  0  0  0
 27 28  1  0  0  0  0
 27 33  1  0  0  0  0
 28 34  2  0  0  0  0
 30 32  2  0  0  0  0
 31 30  1  6  0  0  0
 31 33  1  0  0  0  0
 31 29  1  0  0  0  0
 32 27  1  0  0  0  0
 33 29  1  1  0  0  0
 36 37  1  0  0  0  0
 36 39  1  0  0  0  0
 37 43  1  6  0  0  0
 37 41  1  0  0  0  0
 39 40  1  0  0  0  0
 40 38  1  0  0  0  0
 40 35  1  0  0  0  0
 41 38  1  0  0  0  0
 42 43  1  0  0  0  0
M  END
>  <MODEL>
2

>  <REMARK>
 VINA RESULT:      -9.2      2.446      5.543
  Name = 
  8 active torsions:
  status: ('A' for Active; 'I' for Inactive)
    1  A    between atoms: C_1  and  C_34
    2  A    between atoms: C_1  and  N_35
    3  A    between atoms: C_2  and  C_13
    4  A    between atoms: C_3  and  C_4
    5  A    between atoms: C_3  and  C_12
    6  A    between atoms: N_6  and  C_12
    7  A    between atoms: C_14  and  C_22
    8  A    between atoms: C_19  and  C_37
                            x       y       z     vdW  Elec       q    Type
                         _______ _______ _______ _____ _____    ______ ____

>  <TORSDO>
F 8

$$$$
=
 OpenBabel10272414323D

 43 49  0  0  1  0  0  0  0  0999 V2000
  188.3930  177.5330  147.0460 C   0  0  0  0  0  0  0  0  0  0  0  0
  190.1540  177.4800  142.3200 C   0  0  0  0  0  0  0  0  0  0  0  0
  187.9990  178.0660  140.6070 C   0  0  0  0  0  0  0  0  0  0  0  0
  189.7960  177.3660  145.0790 C   0  0  0  0  0  0  0  0  0  0  0  0
  187.2890  177.8190  146.2380 C   0  0  0  0  0  3  0  0  0  0  0  0
  188.2360  177.4720  148.5220 C   0  0  0  0  0  1  0  0  0  0  0  0
  188.6860  177.6550  144.2530 C   0  0  0  0  0  0  0  0  0  0  0  0
  189.6450  177.3070  146.4670 C   0  0  0  0  0  3  0  0  0  0  0  0
  187.4330  177.8800  144.8490 C   0  0  0  0  0  3  0  0  0  0  0  0
  187.8010  178.0040  141.9920 C   0  0  0  0  0  3  0  0  0  0  0  0
  188.8640  177.7140  142.8580 C   0  0  0  0  0  0  0  0  0  0  0  0
  191.1950  177.2020  143.1530 N   0  0  0  0  0  0  0  0  0  0  0  0
  190.3510  177.5380  140.9290 C   0  0  0  0  0  0  0  0  0  0  0  0
  189.2760  177.8350  140.0850 C   0  0  0  0  0  3  0  0  0  0  0  0
  191.0440  177.1410  144.5020 C   0  0  0  0  0  3  0  0  0  0  0  0
  186.8840  178.3870  139.6990 C   0  0  0  0  0  0  0  0  0  0  0  0
  185.7360  178.7560  140.1840 N   0  0  0  0  0  0  0  0  0  0  0  0
  187.0780  178.2990  138.3550 F   0  0  0  0  0  0  0  0  0  0  0  0
  184.5810  179.1120  139.4130 C   0  0  0  0  0  0  0  0  0  0  0  0
  184.4380  180.2740  138.9450 O   0  0  0  0  0  0  0  0  0  0  0  0
  183.5160  178.0980  139.1800 C   0  0  0  0  0  2  0  0  0  0  0  0
  182.9530  178.2230  137.7720 C   0  0  2  0  0  3  0  0  0  0  0  0
  181.4450  176.8550  135.9540 S   0  0  0  0  0  0  0  0  0  0  0  0
  181.5590  178.8100  137.8080 C   0  0  0  0  0  2  0  0  0  0  0  0
  182.8350  176.8500  137.1350 C   0  0  1  0  0  3  0  0  0  0  0  0
  180.9370  178.5250  136.4620 C   0  0  0  0  0  2  0  0  0  0  0  0
  184.7360  175.2070  136.7410 N   0  0  0  0  0  0  0  0  0  0  0  0
  184.1140  176.4660  136.4550 C   0  0  0  0  0  0  0  0  0  0  0  0
  187.0810  174.6780  137.1770 C   0  0  0  0  0  2  0  0  0  0  0  0
  185.2040  173.1210  137.7400 C   0  0  0  0  0  3  0  0  0  0  0  0
  186.3150  173.4420  136.7390 C   0  0  1  0  0  3  0  0  0  0  0  0
  184.1710  174.2290  137.6480 C   0  0  0  0  0  3  0  0  0  0  0  0
  185.9870  174.7950  136.1310 C   0  0  1  0  0  3  0  0  0  0  0  0
  184.6560  177.2670  135.6450 O   0  0  0  0  0  0  0  0  0  0  0  0
  191.7040  177.3200  140.3290 C   0  0  0  0  0  2  0  0  0  0  0  0
  192.8810  176.3330  136.9310 C   0  0  0  0  0  2  0  0  0  0  0  0
  191.4860  175.9280  136.4460 C   0  0  2  0  0  3  0  0  0  0  0  0
  190.7300  175.7690  138.8670 C   0  0  0  0  0  2  0  0  0  0  0  0
  192.9120  176.6140  138.4380 C   0  0  0  0  0  2  0  0  0  0  0  0
  191.5780  176.9640  138.9240 N   0  0  0  0  0  0  0  0  0  0  0  0
  190.7680  175.0750  137.4930 C   0  0  0  0  0  2  0  0  0  0  0  0
  190.4940  174.3430  134.9610 O   0  0  0  0  0  1  0  0  0  0  0  0
  191.5980  175.1810  135.1290 C   0  0  0  0  0  2  0  0  0  0  0  0
  1  6  1  0  0  0  0
  2 11  1  0  0  0  0
  2 12  1  0  0  0  0
  3 10  1  0  0  0  0
  4  8  2  0  0  0  0
  5  1  2  0  0  0  0
  7  9  2  0  0  0  0
  7  4  1  0  0  0  0
  8  1  1  0  0  0  0
  9  5  1  0  0  0  0
 10 11  2  0  0  0  0
 11  7  1  0  0  0  0
 12 15  2  0  0  0  0
 13  2  2  0  0  0  0
 14  3  2  0  0  0  0
 14 13  1  0  0  0  0
 15  4  1  0  0  0  0
 16 17  2  0  0  0  0
 16  3  1  0  0  0  0
 18 16  1  0  0  0  0
 19 17  1  0  0  0  0
 20 19  2  0  0  0  0
 21 19  1  0  0  0  0
 22 24  1  0  0  0  0
 22 21  1  1  0  0  0
 23 26  1  0  0  0  0
 23 25  1  0  0  0  0
 25 28  1  6  0  0  0
 25 22  1  0  0  0  0
 26 24  1  0  0  0  0
 27 32  1  0  0  0  0
 28 27  1  0  0  0  0
 31 29  1  1  0  0  0
 31 30  1  0  0  0  0
 32 30  2  0  0  0  0
 33 31  1  0  0  0  0
 33 27  1  0  0  0  0
 33 29  1  1  0  0  0
 34 28  2  0  0  0  0
 35 13  1  0  0  0  0
 36 39  1  0  0  0  0
 37 43  1  6  0  0  0
 37 36  1  0  0  0  0
 37 41  1  0  0  0  0
 38 40  1  0  0  0  0
 39 40  1  0  0  0  0
 40 35  1  0  0  0  0
 41 38  1  0  0  0  0
 42 43  1  0  0  0  0
M  END
>  <MODEL>
3

>  <REMARK>
 VINA RESULT:      -9.1      2.350      3.379
  Name = 
  8 active torsions:
  status: ('A' for Active; 'I' for Inactive)
    1  A    between atoms: C_1  and  C_34
    2  A    between atoms: C_1  and  N_35
    3  A    between atoms: C_2  and  C_13
    4  A    between atoms: C_3  and  C_4
    5  A    between atoms: C_3  and  C_12
    6  A    between atoms: N_6  and  C_12
    7  A    between atoms: C_14  and  C_22
    8  A    between atoms: C_19  and  C_37
                            x       y       z     vdW  Elec       q    Type
                         _______ _______ _______ _____ _____    ______ ____

>  <TORSDO>
F 8

$$$$
=
 OpenBabel10272414323D

 43 49  0  0  1  0  0  0  0  0999 V2000
  191.2860  176.4330  146.9200 C   0  0  0  0  0  0  0  0  0  0  0  0
  187.0050  177.9390  144.7180 C   0  0  0  0  0  0  0  0  0  0  0  0
  187.5120  178.1850  141.9610 C   0  0  0  0  0  0  0  0  0  0  0  0
  189.0100  177.1320  146.4740 C   0  0  0  0  0  0  0  0  0  0  0  0
  191.5910  176.5490  145.5610 C   0  0  0  0  0  3  0  0  0  0  0  0
  192.3310  175.9980  147.8810 C   0  0  0  0  0  1  0  0  0  0  0  0
  189.3080  177.2510  145.0970 C   0  0  0  0  0  0  0  0  0  0  0  0
  189.9970  176.7240  147.3760 C   0  0  0  0  0  3  0  0  0  0  0  0
  190.6090  176.9550  144.6530 C   0  0  0  0  0  3  0  0  0  0  0  0
  188.5340  177.7860  142.8320 C   0  0  0  0  0  3  0  0  0  0  0  0
  188.2960  177.6580  144.2070 C   0  0  0  0  0  0  0  0  0  0  0  0
  186.7630  177.8130  146.0530 N   0  0  0  0  0  0  0  0  0  0  0  0
  185.9810  178.3440  143.8430 C   0  0  0  0  0  0  0  0  0  0  0  0
  186.2410  178.4590  142.4740 C   0  0  0  0  0  3  0  0  0  0  0  0
  187.7250  177.4210  146.9280 C   0  0  0  0  0  3  0  0  0  0  0  0
  187.7590  178.3030  140.5130 C   0  0  0  0  0  0  0  0  0  0  0  0
  188.9780  178.3180  140.0600 N   0  0  0  0  0  0  0  0  0  0  0  0
  186.6980  178.3890  139.6650 F   0  0  0  0  0  0  0  0  0  0  0  0
  189.3520  178.4100  138.6790 C   0  0  0  0  0  0  0  0  0  0  0  0
  189.0130  179.3970  137.9720 O   0  0  0  0  0  0  0  0  0  0  0  0
  190.1340  177.3050  138.0580 C   0  0  0  0  0  2  0  0  0  0  0  0
  189.3990  176.7350  136.8540 C   0  0  2  0  0  3  0  0  0  0  0  0
  188.7140  174.3530  135.7110 S   0  0  0  0  0  0  0  0  0  0  0  0
  187.9490  176.4710  137.1950 C   0  0  0  0  0  2  0  0  0  0  0  0
  190.0070  175.4030  136.4560 C   0  0  1  0  0  3  0  0  0  0  0  0
  187.4140  175.5550  136.1200 C   0  0  0  0  0  2  0  0  0  0  0  0
  192.4920  175.3160  135.9220 N   0  0  0  0  0  0  0  0  0  0  0  0
  191.1500  175.6000  135.5070 C   0  0  0  0  0  0  0  0  0  0  0  0
  194.5420  176.6040  135.5960 C   0  0  0  0  0  2  0  0  0  0  0  0
  194.3430  174.7600  137.2760 C   0  0  0  0  0  3  0  0  0  0  0  0
  194.8540  175.1470  135.8870 C   0  0  1  0  0  3  0  0  0  0  0  0
  192.8260  174.7950  137.2310 C   0  0  0  0  0  3  0  0  0  0  0  0
  193.6380  175.5120  135.0530 C   0  0  1  0  0  3  0  0  0  0  0  0
  190.9290  176.0410  134.3460 O   0  0  0  0  0  0  0  0  0  0  0  0
  184.6000  178.6250  144.3450 C   0  0  0  0  0  2  0  0  0  0  0  0
  182.9820  178.1340  141.0210 C   0  0  0  0  0  2  0  0  0  0  0  0
  181.8750  179.1580  141.2870 C   0  0  2  0  0  3  0  0  0  0  0  0
  182.3540  178.9770  143.7770 C   0  0  0  0  0  2  0  0  0  0  0  0
  183.8050  177.8300  142.2790 C   0  0  0  0  0  2  0  0  0  0  0  0
  183.7150  178.9350  143.2320 N   0  0  0  0  0  0  0  0  0  0  0  0
  181.2730  178.9660  142.6800 C   0  0  0  0  0  2  0  0  0  0  0  0
  180.3930  177.7150  140.0940 O   0  0  0  0  0  1  0  0  0  0  0  0
  180.8030  179.0440  140.2180 C   0  0  0  0  0  2  0  0  0  0  0  0
  1  8  1  0  0  0  0
  1  6  1  0  0  0  0
  2 12  1  0  0  0  0
  3 14  2  0  0  0  0
  3 10  1  0  0  0  0
  4 15  1  0  0  0  0
  4  8  2  0  0  0  0
  5  1  2  0  0  0  0
  7  4  1  0  0  0  0
  9  7  2  0  0  0  0
  9  5  1  0  0  0  0
 10 11  2  0  0  0  0
 11  2  1  0  0  0  0
 11  7  1  0  0  0  0
 12 15  2  0  0  0  0
 13 35  1  0  0  0  0
 13  2  2  0  0  0  0
 14 13  1  0  0  0  0
 16  3  1  0  0  0  0
 17 16  2  0  0  0  0
 18 16  1  0  0  0  0
 19 17  1  0  0  0  0
 20 19  2  0  0  0  0
 21 19  1  0  0  0  0
 22 24  1  0  0  0  0
 22 21  1  1  0  0  0
 23 26  1  0  0  0  0
 23 25  1  0  0  0  0
 25 28  1  6  0  0  0
 25 22  1  0  0  0  0
 26 24  1  0  0  0  0
 27 32  1  0  0  0  0
 28 27  1  0  0  0  0
 31 29  1  1  0  0  0
 31 30  1  0  0  0  0
 32 30  2  0  0  0  0
 33 29  1  1  0  0  0
 33 31  1  0  0  0  0
 33 27  1  0  0  0  0
 34 28  2  0  0  0  0
 36 37  1  0  0  0  0
 36 39  1  0  0  0  0
 37 43  1  6  0  0  0
 37 41  1  0  0  0  0
 39 40  1  0  0  0  0
 40 38  1  0  0  0  0
 40 35  1  0  0  0  0
 41 38  1  0  0  0  0
 42 43  1  0  0  0  0
M  END
>  <MODEL>
4

>  <REMARK>
 VINA RESULT:      -9.1      3.175      7.352
  Name = 
  8 active torsions:
  status: ('A' for Active; 'I' for Inactive)
    1  A    between atoms: C_1  and  C_34
    2  A    between atoms: C_1  and  N_35
    3  A    between atoms: C_2  and  C_13
    4  A    between atoms: C_3  and  C_4
    5  A    between atoms: C_3  and  C_12
    6  A    between atoms: N_6  and  C_12
    7  A    between atoms: C_14  and  C_22
    8  A    between atoms: C_19  and  C_37
                            x       y       z     vdW  Elec       q    Type
                         _______ _______ _______ _____ _____    ______ ____

>  <TORSDO>
F 8

$$$$
=
 OpenBabel10272414323D

 43 49  0  0  1  0  0  0  0  0999 V2000
  188.7530  177.3690  146.4250 C   0  0  0  0  0  0  0  0  0  0  0  0
  190.3980  177.3990  141.6570 C   0  0  0  0  0  0  0  0  0  0  0  0
  188.1960  177.9880  140.0060 C   0  0  0  0  0  0  0  0  0  0  0  0
  190.1090  177.2430  144.4230 C   0  0  0  0  0  0  0  0  0  0  0  0
  187.6270  177.6550  145.6480 C   0  0  0  0  0  3  0  0  0  0  0  0
  188.6330  177.2860  147.9040 C   0  0  0  0  0  1  0  0  0  0  0  0
  188.9760  177.5330  143.6280 C   0  0  0  0  0  0  0  0  0  0  0  0
  189.9930  177.1630  145.8130 C   0  0  0  0  0  3  0  0  0  0  0  0
  187.7360  177.7380  144.2580 C   0  0  0  0  0  3  0  0  0  0  0  0
  188.0320  177.9050  141.3950 C   0  0  0  0  0  3  0  0  0  0  0  0
  189.1200  177.6130  142.2300 C   0  0  0  0  0  0  0  0  0  0  0  0
  191.4610  177.1200  142.4610 N   0  0  0  0  0  0  0  0  0  0  0  0
  190.5600  177.4790  140.2630 C   0  0  0  0  0  0  0  0  0  0  0  0
  189.4620  177.7770  139.4500 C   0  0  0  0  0  3  0  0  0  0  0  0
  191.3450  177.0390  143.8120 C   0  0  0  0  0  3  0  0  0  0  0  0
  187.0570  178.3110  139.1300 C   0  0  0  0  0  0  0  0  0  0  0  0
  185.9590  178.7870  139.6400 N   0  0  0  0  0  0  0  0  0  0  0  0
  187.1740  178.1120  137.7900 F   0  0  0  0  0  0  0  0  0  0  0  0
  184.7890  179.1580  138.9000 C   0  0  0  0  0  0  0  0  0  0  0  0
  184.3770  180.3490  138.8760 O   0  0  0  0  0  0  0  0  0  0  0  0
  184.0280  178.1110  138.1630 C   0  0  0  0  0  2  0  0  0  0  0  0
  182.8730  177.5910  139.0060 C   0  0  2  0  0  3  0  0  0  0  0  0
  180.3190  176.6570  138.7730 S   0  0  0  0  0  0  0  0  0  0  0  0
  182.9320  176.0840  139.1150 C   0  0  0  0  0  2  0  0  0  0  0  0
  181.5500  177.9320  138.3450 C   0  0  1  0  0  3  0  0  0  0  0  0
  181.5740  175.6330  139.5980 C   0  0  0  0  0  2  0  0  0  0  0  0
  180.7960  180.2950  137.7790 N   0  0  0  0  0  0  0  0  0  0  0  0
  181.0800  179.2930  138.7630 C   0  0  0  0  0  0  0  0  0  0  0  0
  181.4070  182.6590  137.7240 C   0  0  0  0  0  2  0  0  0  0  0  0
  180.6290  181.4050  135.7030 C   0  0  0  0  0  3  0  0  0  0  0  0
  180.2260  182.3800  136.8110 C   0  0  1  0  0  3  0  0  0  0  0  0
  180.9000  180.0610  136.3530 C   0  0  0  0  0  3  0  0  0  0  0  0
  180.3620  181.6350  138.1280 C   0  0  1  0  0  3  0  0  0  0  0  0
  180.9580  179.5610  139.9890 O   0  0  0  0  0  0  0  0  0  0  0  0
  191.9000  177.2830  139.6270 C   0  0  0  0  0  2  0  0  0  0  0  0
  193.0100  175.9560  136.3230 C   0  0  0  0  0  2  0  0  0  0  0  0
  191.6610  175.3010  136.0110 C   0  0  2  0  0  3  0  0  0  0  0  0
  191.0750  175.4120  138.4820 C   0  0  0  0  0  2  0  0  0  0  0  0
  193.0860  176.4640  137.7680 C   0  0  0  0  0  2  0  0  0  0  0  0
  191.7460  176.7030  138.3010 N   0  0  0  0  0  0  0  0  0  0  0  0
  191.1330  174.5290  137.2220 C   0  0  0  0  0  2  0  0  0  0  0  0
  193.0520  173.7610  134.8290 O   0  0  0  0  0  1  0  0  0  0  0  0
  191.8020  174.3830  134.8090 C   0  0  0  0  0  2  0  0  0  0  0  0
  1  6  1  0  0  0  0
  2 11  1  0  0  0  0
  2 12  1  0  0  0  0
  3 10  1  0  0  0  0
  4  8  2  0  0  0  0
  5  1  2  0  0  0  0
  7  9  2  0  0  0  0
  7  4  1  0  0  0  0
  8  1  1  0  0  0  0
  9  5  1  0  0  0  0
 10 11  2  0  0  0  0
 11  7  1  0  0  0  0
 12 15  2  0  0  0  0
 13  2  2  0  0  0  0
 14  3  2  0  0  0  0
 14 13  1  0  0  0  0
 15  4  1  0  0  0  0
 16 17  2  0  0  0  0
 16  3  1  0  0  0  0
 18 16  1  0  0  0  0
 19 17  1  0  0  0  0
 20 19  2  0  0  0  0
 21 19  1  0  0  0  0
 22 21  1  6  0  0  0
 22 24  1  0  0  0  0
 23 26  1  0  0  0  0
 24 26  1  0  0  0  0
 25 28  1  1  0  0  0
 25 23  1  0  0  0  0
 25 22  1  0  0  0  0
 27 33  1  0  0  0  0
 27 28  1  0  0  0  0
 28 34  2  0  0  0  0
 30 32  2  0  0  0  0
 31 30  1  6  0  0  0
 31 29  1  0  0  0  0
 31 33  1  0  0  0  0
 32 27  1  0  0  0  0
 33 29  1  1  0  0  0
 35 13  1  0  0  0  0
 36 39  1  0  0  0  0
 37 43  1  6  0  0  0
 37 36  1  0  0  0  0
 37 41  1  0  0  0  0
 39 40  1  0  0  0  0
 40 38  1  0  0  0  0
 40 35  1  0  0  0  0
 41 38  1  0  0  0  0
 43 42  1  0  0  0  0
M  END
>  <MODEL>
5

>  <REMARK>
 VINA RESULT:      -8.8      2.718      4.308
  Name = 
  8 active torsions:
  status: ('A' for Active; 'I' for Inactive)
    1  A    between atoms: C_1  and  C_34
    2  A    between atoms: C_1  and  N_35
    3  A    between atoms: C_2  and  C_13
    4  A    between atoms: C_3  and  C_4
    5  A    between atoms: C_3  and  C_12
    6  A    between atoms: N_6  and  C_12
    7  A    between atoms: C_14  and  C_22
    8  A    between atoms: C_19  and  C_37
                            x       y       z     vdW  Elec       q    Type
                         _______ _______ _______ _____ _____    ______ ____

>  <TORSDO>
F 8

$$$$
=
 OpenBabel10272414323D

 43 49  0  0  1  0  0  0  0  0999 V2000
  190.9110  176.8350  146.5670 C   0  0  0  0  0  0  0  0  0  0  0  0
  189.6860  177.6080  141.7360 C   0  0  0  0  0  0  0  0  0  0  0  0
  186.9790  178.3760  141.6610 C   0  0  0  0  0  0  0  0  0  0  0  0
  190.9440  177.0400  144.1540 C   0  0  0  0  0  0  0  0  0  0  0  0
  189.5630  177.2030  146.5830 C   0  0  0  0  0  3  0  0  0  0  0  0
  191.6130  176.5330  147.8410 C   0  0  0  0  0  1  0  0  0  0  0  0
  189.5810  177.4140  144.1590 C   0  0  0  0  0  0  0  0  0  0  0  0
  191.6010  176.7530  145.3540 C   0  0  0  0  0  3  0  0  0  0  0  0
  188.9000  177.4920  145.3870 C   0  0  0  0  0  3  0  0  0  0  0  0
  187.5950  178.0850  142.8850 C   0  0  0  0  0  3  0  0  0  0  0  0
  188.9430  177.7030  142.9380 C   0  0  0  0  0  0  0  0  0  0  0  0
  190.9970  177.2410  141.7780 N   0  0  0  0  0  0  0  0  0  0  0  0
  189.0650  177.8960  140.5070 C   0  0  0  0  0  0  0  0  0  0  0  0
  187.7220  178.2810  140.4800 C   0  0  0  0  0  3  0  0  0  0  0  0
  191.6320  176.9600  142.9450 C   0  0  0  0  0  3  0  0  0  0  0  0
  185.5680  178.7950  141.6080 C   0  0  0  0  0  0  0  0  0  0  0  0
  184.6600  178.1010  142.2290 N   0  0  0  0  0  0  0  0  0  0  0  0
  185.2350  179.9140  140.9090 F   0  0  0  0  0  0  0  0  0  0  0  0
  183.2600  178.4090  142.2710 C   0  0  0  0  0  0  0  0  0  0  0  0
  182.7800  179.1590  143.1630 O   0  0  0  0  0  0  0  0  0  0  0  0
  182.3490  177.8120  141.2550 C   0  0  0  0  0  2  0  0  0  0  0  0
  182.1700  178.7540  140.0730 C   0  0  2  0  0  3  0  0  0  0  0  0
  180.9270  178.9130  137.6490 S   0  0  0  0  0  0  0  0  0  0  0  0
  180.9330  179.6040  140.2560 C   0  0  0  0  0  2  0  0  0  0  0  0
  181.9710  177.9560  138.7980 C   0  0  1  0  0  3  0  0  0  0  0  0
  180.6110  180.1910  138.9020 C   0  0  0  0  0  2  0  0  0  0  0  0
  183.4230  176.4430  137.3580 N   0  0  0  0  0  0  0  0  0  0  0  0
  183.2880  177.6170  138.1690 C   0  0  0  0  0  0  0  0  0  0  0  0
  185.1800  174.7460  137.3320 C   0  0  0  0  0  2  0  0  0  0  0  0
  182.9330  174.3980  136.2860 C   0  0  0  0  0  3  0  0  0  0  0  0
  184.4010  174.7440  136.0280 C   0  0  1  0  0  3  0  0  0  0  0  0
  182.3210  175.5500  137.0630 C   0  0  0  0  0  3  0  0  0  0  0  0
  184.6800  176.0540  136.7450 C   0  0  1  0  0  3  0  0  0  0  0  0
  184.2880  178.3580  138.3760 O   0  0  0  0  0  0  0  0  0  0  0  0
  189.8260  177.8300  139.2210 C   0  0  0  0  0  2  0  0  0  0  0  0
  188.4040  176.0810  136.2500 C   0  0  0  0  0  2  0  0  0  0  0  0
  188.8620  174.6950  136.7110 C   0  0  2  0  0  3  0  0  0  0  0  0
  190.5300  175.8050  138.2750 C   0  0  0  0  0  2  0  0  0  0  0  0
  188.9970  177.2040  137.1110 C   0  0  0  0  0  2  0  0  0  0  0  0
  189.3760  176.6960  138.4290 N   0  0  0  0  0  0  0  0  0  0  0  0
  190.3130  174.7300  137.1950 C   0  0  0  0  0  2  0  0  0  0  0  0
  188.4540  172.4240  136.0940 O   0  0  0  0  0  1  0  0  0  0  0  0
  188.6970  173.6970  135.5770 C   0  0  0  0  0  2  0  0  0  0  0  0
  1  5  1  0  0  0  0
  1  6  1  0  0  0  0
  2 12  1  0  0  0  0
  2 11  1  0  0  0  0
  3 10  1  0  0  0  0
  4  7  2  0  0  0  0
  4  8  1  0  0  0  0
  7  9  1  0  0  0  0
  8  1  2  0  0  0  0
  9  5  2  0  0  0  0
 10 11  2  0  0  0  0
 11  7  1  0  0  0  0
 12 15  2  0  0  0  0
 13  2  2  0  0  0  0
 14 13  1  0  0  0  0
 14  3  2  0  0  0  0
 15  4  1  0  0  0  0
 16  3  1  0  0  0  0
 16 17  2  0  0  0  0
 17 19  1  0  0  0  0
 18 16  1  0  0  0  0
 19 20  2  0  0  0  0
 21 19  1  0  0  0  0
 22 24  1  0  0  0  0
 22 21  1  1  0  0  0
 23 25  1  0  0  0  0
 23 26  1  0  0  0  0
 25 28  1  6  0  0  0
 25 22  1  0  0  0  0
 26 24  1  0  0  0  0
 27 28  1  0  0  0  0
 28 34  2  0  0  0  0
 30 32  2  0  0  0  0
 31 30  1  1  0  0  0
 31 33  1  0  0  0  0
 31 29  1  0  0  0  0
 32 27  1  0  0  0  0
 33 29  1  1  0  0  0
 33 27  1  0  0  0  0
 35 13  1  0  0  0  0
 36 37  1  0  0  0  0
 36 39  1  0  0  0  0
 37 43  1  6  0  0  0
 37 41  1  0  0  0  0
 38 40  1  0  0  0  0
 39 40  1  0  0  0  0
 40 35  1  0  0  0  0
 41 38  1  0  0  0  0
 43 42  1  0  0  0  0
M  END
>  <MODEL>
6

>  <REMARK>
 VINA RESULT:      -8.7      1.374      1.496
  Name = 
  8 active torsions:
  status: ('A' for Active; 'I' for Inactive)
    1  A    between atoms: C_1  and  C_34
    2  A    between atoms: C_1  and  N_35
    3  A    between atoms: C_2  and  C_13
    4  A    between atoms: C_3  and  C_4
    5  A    between atoms: C_3  and  C_12
    6  A    between atoms: N_6  and  C_12
    7  A    between atoms: C_14  and  C_22
    8  A    between atoms: C_19  and  C_37
                            x       y       z     vdW  Elec       q    Type
                         _______ _______ _______ _____ _____    ______ ____

>  <TORSDO>
F 8

$$$$
=
 OpenBabel10272414323D

 43 49  0  0  1  0  0  0  0  0999 V2000
  181.3850  179.2400  141.2110 C   0  0  0  0  0  0  0  0  0  0  0  0
  185.6570  178.3320  143.7340 C   0  0  0  0  0  0  0  0  0  0  0  0
  187.7130  178.0240  141.8360 C   0  0  0  0  0  0  0  0  0  0  0  0
  183.0420  178.8570  142.9360 C   0  0  0  0  0  0  0  0  0  0  0  0
  182.3680  179.0860  140.2290 C   0  0  0  0  0  3  0  0  0  0  0  0
  179.9820  179.5280  140.8180 C   0  0  0  0  0  1  0  0  0  0  0  0
  184.0430  178.7010  141.9510 C   0  0  0  0  0  0  0  0  0  0  0  0
  181.7210  179.1260  142.5630 C   0  0  0  0  0  3  0  0  0  0  0  0
  183.6900  178.8190  140.5950 C   0  0  0  0  0  3  0  0  0  0  0  0
  186.4000  178.2790  141.4180 C   0  0  0  0  0  3  0  0  0  0  0  0
  185.3670  178.4360  142.3510 C   0  0  0  0  0  0  0  0  0  0  0  0
  184.6600  178.4880  144.6490 N   0  0  0  0  0  0  0  0  0  0  0  0
  186.9740  178.0710  144.1530 C   0  0  0  0  0  0  0  0  0  0  0  0
  187.9900  177.9240  143.2030 C   0  0  0  0  0  3  0  0  0  0  0  0
  183.3780  178.7440  144.2840 C   0  0  0  0  0  3  0  0  0  0  0  0
  188.8020  177.8760  140.8550 C   0  0  0  0  0  0  0  0  0  0  0  0
  189.8540  177.1730  141.1530 N   0  0  0  0  0  0  0  0  0  0  0  0
  188.6850  178.4770  139.6400 F   0  0  0  0  0  0  0  0  0  0  0  0
  190.9710  176.9370  140.2860 C   0  0  0  0  0  0  0  0  0  0  0  0
  192.0430  177.5890  140.4050 O   0  0  0  0  0  0  0  0  0  0  0  0
  190.8550  175.9190  139.2050 C   0  0  0  0  0  2  0  0  0  0  0  0
  191.0200  176.5650  137.8370 C   0  0  2  0  0  3  0  0  0  0  0  0
  191.1280  175.9340  135.1840 S   0  0  0  0  0  0  0  0  0  0  0  0
  189.6700  176.8940  137.2400 C   0  0  0  0  0  2  0  0  0  0  0  0
  191.6990  175.5990  136.8840 C   0  0  1  0  0  3  0  0  0  0  0  0
  189.8990  177.1390  135.7670 C   0  0  0  0  0  2  0  0  0  0  0  0
  194.0140  174.5450  136.8850 N   0  0  0  0  0  0  0  0  0  0  0  0
  193.1900  175.7140  136.9800 C   0  0  0  0  0  0  0  0  0  0  0  0
  195.9290  173.8600  138.2390 C   0  0  0  0  0  2  0  0  0  0  0  0
  194.6810  172.2860  136.7460 C   0  0  0  0  0  3  0  0  0  0  0  0
  195.9320  173.1550  136.8930 C   0  0  1  0  0  3  0  0  0  0  0  0
  193.4850  173.2160  136.6550 C   0  0  0  0  0  3  0  0  0  0  0  0
  195.4600  174.5960  136.9960 C   0  0  1  0  0  3  0  0  0  0  0  0
  193.7190  176.8440  137.1690 O   0  0  0  0  0  0  0  0  0  0  0  0
  187.3210  177.9790  145.6050 C   0  0  0  0  0  2  0  0  0  0  0  0
  190.9750  177.2820  145.3430 C   0  0  0  0  0  2  0  0  0  0  0  0
  190.9400  176.1370  146.3590 C   0  0  2  0  0  3  0  0  0  0  0  0
  188.7180  177.0180  147.2220 C   0  0  0  0  0  2  0  0  0  0  0  0
  189.6520  178.0560  145.2950 C   0  0  0  0  0  2  0  0  0  0  0  0
  188.5520  177.2230  145.7800 N   0  0  0  0  0  0  0  0  0  0  0  0
  190.1280  176.5260  147.5960 C   0  0  0  0  0  2  0  0  0  0  0  0
  192.5720  176.0220  148.0990 O   0  0  0  0  0  1  0  0  0  0  0  0
  192.3570  175.7510  146.7470 C   0  0  0  0  0  2  0  0  0  0  0  0
  1  8  1  0  0  0  0
  2 13  1  0  0  0  0
  2 12  1  0  0  0  0
  3 14  1  0  0  0  0
  4 15  1  0  0  0  0
  5  9  1  0  0  0  0
  5  1  2  0  0  0  0
  6  1  1  0  0  0  0
  7 11  1  0  0  0  0
  7  4  1  0  0  0  0
  8  4  2  0  0  0  0
  9  7  2  0  0  0  0
 10  3  2  0  0  0  0
 10 11  1  0  0  0  0
 11  2  2  0  0  0  0
 13 35  1  0  0  0  0
 14 13  2  0  0  0  0
 15 12  2  0  0  0  0
 16 17  2  0  0  0  0
 16  3  1  0  0  0  0
 18 16  1  0  0  0  0
 19 20  2  0  0  0  0
 19 17  1  0  0  0  0
 21 19  1  0  0  0  0
 22 21  1  1  0  0  0
 23 26  1  0  0  0  0
 23 25  1  0  0  0  0
 24 22  1  0  0  0  0
 25 28  1  6  0  0  0
 25 22  1  0  0  0  0
 26 24  1  0  0  0  0
 27 28  1  0  0  0  0
 27 33  1  0  0  0  0
 28 34  2  0  0  0  0
 31 30  1  1  0  0  0
 31 33  1  0  0  0  0
 31 29  1  0  0  0  0
 32 30  2  0  0  0  0
 32 27  1  0  0  0  0
 33 29  1  1  0  0  0
 35 40  1  0  0  0  0
 36 37  1  0  0  0  0
 37 43  1  1  0  0  0
 37 41  1  0  0  0  0
 38 41  1  0  0  0  0
 39 36  1  0  0  0  0
 39 40  1  0  0  0  0
 40 38  1  0  0  0  0
 43 42  1  0  0  0  0
M  END
>  <MODEL>
7

>  <REMARK>
 VINA RESULT:      -8.6      4.354      9.500
  Name = 
  8 active torsions:
  status: ('A' for Active; 'I' for Inactive)
    1  A    between atoms: C_1  and  C_34
    2  A    between atoms: C_1  and  N_35
    3  A    between atoms: C_2  and  C_13
    4  A    between atoms: C_3  and  C_4
    5  A    between atoms: C_3  and  C_12
    6  A    between atoms: N_6  and  C_12
    7  A    between atoms: C_14  and  C_22
    8  A    between atoms: C_19  and  C_37
                            x       y       z     vdW  Elec       q    Type
                         _______ _______ _______ _____ _____    ______ ____

>  <TORSDO>
F 8

$$$$
=
 OpenBabel10272414323D

 43 49  0  0  1  0  0  0  0  0999 V2000
  191.2140  176.5210  146.8260 C   0  0  0  0  0  0  0  0  0  0  0  0
  186.7800  177.9980  144.9290 C   0  0  0  0  0  0  0  0  0  0  0  0
  187.1050  178.2960  142.1500 C   0  0  0  0  0  0  0  0  0  0  0  0
  188.9050  177.1920  146.5390 C   0  0  0  0  0  0  0  0  0  0  0  0
  191.4290  176.6640  145.4520 C   0  0  0  0  0  3  0  0  0  0  0  0
  192.3250  176.0860  147.7100 C   0  0  0  0  0  1  0  0  0  0  0  0
  189.1120  177.3380  145.1480 C   0  0  0  0  0  0  0  0  0  0  0  0
  189.9530  176.7850  147.3690 C   0  0  0  0  0  3  0  0  0  0  0  0
  190.3860  177.0690  144.6170 C   0  0  0  0  0  3  0  0  0  0  0  0
  188.1860  177.8990  142.9460 C   0  0  0  0  0  3  0  0  0  0  0  0
  188.0390  177.7450  144.3320 C   0  0  0  0  0  0  0  0  0  0  0  0
  186.6260  177.8460  146.2740 N   0  0  0  0  0  0  0  0  0  0  0  0
  185.6960  178.4010  144.1290 C   0  0  0  0  0  0  0  0  0  0  0  0
  185.8650  178.5430  142.7480 C   0  0  0  0  0  3  0  0  0  0  0  0
  187.6470  177.4540  147.0790 C   0  0  0  0  0  3  0  0  0  0  0  0
  187.2560  178.4420  140.6910 C   0  0  0  0  0  0  0  0  0  0  0  0
  188.4110  178.2280  140.1330 N   0  0  0  0  0  0  0  0  0  0  0  0
  186.1740  178.7940  139.9450 F   0  0  0  0  0  0  0  0  0  0  0  0
  188.6860  178.3170  138.7280 C   0  0  0  0  0  0  0  0  0  0  0  0
  188.9820  179.4160  138.1870 O   0  0  0  0  0  0  0  0  0  0  0  0
  188.5950  177.0920  137.8860 C   0  0  0  0  0  2  0  0  0  0  0  0
  189.8370  176.2300  138.0550 C   0  0  2  0  0  3  0  0  0  0  0  0
  191.9200  175.1950  136.6260 S   0  0  0  0  0  0  0  0  0  0  0  0
  191.0480  177.0920  138.3330 C   0  0  0  0  0  2  0  0  0  0  0  0
  190.1230  175.4720  136.7710 C   0  0  1  0  0  3  0  0  0  0  0  0
  192.2600  176.2260  138.0840 C   0  0  0  0  0  2  0  0  0  0  0  0
  188.1230  174.0730  136.0520 N   0  0  0  0  0  0  0  0  0  0  0  0
  189.3760  174.1720  136.7410 C   0  0  0  0  0  0  0  0  0  0  0  0
  186.0300  173.0230  136.7460 C   0  0  0  0  0  2  0  0  0  0  0  0
  186.1730  174.6650  134.8640 C   0  0  0  0  0  3  0  0  0  0  0  0
  186.0850  173.1840  135.2370 C   0  0  1  0  0  3  0  0  0  0  0  0
  187.5270  175.1740  135.3240 C   0  0  0  0  0  3  0  0  0  0  0  0
  187.3470  172.8470  136.0120 C   0  0  1  0  0  3  0  0  0  0  0  0
  189.8440  173.1690  137.3470 O   0  0  0  0  0  0  0  0  0  0  0  0
  184.3470  178.6530  144.7230 C   0  0  0  0  0  2  0  0  0  0  0  0
  182.6460  178.4150  141.4120 C   0  0  0  0  0  2  0  0  0  0  0  0
  181.4740  179.3090  141.8280 C   0  0  2  0  0  3  0  0  0  0  0  0
  182.0600  178.8830  144.2640 C   0  0  0  0  0  2  0  0  0  0  0  0
  183.5370  178.0370  142.6020 C   0  0  0  0  0  2  0  0  0  0  0  0
  183.3990  179.0140  143.6800 N   0  0  0  0  0  0  0  0  0  0  0  0
  180.9420  178.9090  143.2060 C   0  0  0  0  0  2  0  0  0  0  0  0
  180.8530  179.6770  139.5520 O   0  0  0  0  0  1  0  0  0  0  0  0
  180.3740  179.2300  140.7840 C   0  0  0  0  0  2  0  0  0  0  0  0
  1  8  1  0  0  0  0
  1  6  1  0  0  0  0
  2 12  1  0  0  0  0
  3 14  2  0  0  0  0
  3 10  1  0  0  0  0
  4 15  1  0  0  0  0
  4  8  2  0  0  0  0
  5  1  2  0  0  0  0
  7  4  1  0  0  0  0
  9  7  2  0  0  0  0
  9  5  1  0  0  0  0
 10 11  2  0  0  0  0
 11  2  1  0  0  0  0
 11  7  1  0  0  0  0
 12 15  2  0  0  0  0
 13 35  1  0  0  0  0
 13  2  2  0  0  0  0
 14 13  1  0  0  0  0
 16  3  1  0  0  0  0
 17 16  2  0  0  0  0
 18 16  1  0  0  0  0
 19 17  1  0  0  0  0
 20 19  2  0  0  0  0
 21 19  1  0  0  0  0
 22 21  1  6  0  0  0
 22 24  1  0  0  0  0
 23 25  1  0  0  0  0
 23 26  1  0  0  0  0
 25 28  1  1  0  0  0
 25 22  1  0  0  0  0
 26 24  1  0  0  0  0
 27 28  1  0  0  0  0
 28 34  2  0  0  0  0
 30 32  2  0  0  0  0
 31 30  1  1  0  0  0
 31 33  1  0  0  0  0
 31 29  1  0  0  0  0
 32 27  1  0  0  0  0
 33 27  1  0  0  0  0
 33 29  1  1  0  0  0
 36 37  1  0  0  0  0
 36 39  1  0  0  0  0
 37 43  1  6  0  0  0
 37 41  1  0  0  0  0
 39 40  1  0  0  0  0
 40 38  1  0  0  0  0
 40 35  1  0  0  0  0
 41 38  1  0  0  0  0
 42 43  1  0  0  0  0
M  END
>  <MODEL>
8

>  <REMARK>
 VINA RESULT:      -8.6      3.104      6.608
  Name = 
  8 active torsions:
  status: ('A' for Active; 'I' for Inactive)
    1  A    between atoms: C_1  and  C_34
    2  A    between atoms: C_1  and  N_35
    3  A    between atoms: C_2  and  C_13
    4  A    between atoms: C_3  and  C_4
    5  A    between atoms: C_3  and  C_12
    6  A    between atoms: N_6  and  C_12
    7  A    between atoms: C_14  and  C_22
    8  A    between atoms: C_19  and  C_37
                            x       y       z     vdW  Elec       q    Type
                         _______ _______ _______ _____ _____    ______ ____

>  <TORSDO>
F 8

$$$$
=
 OpenBabel10272414323D

 43 49  0  0  1  0  0  0  0  0999 V2000
  187.9550  177.5590  146.9000 C   0  0  0  0  0  0  0  0  0  0  0  0
  188.3340  178.0930  141.8990 C   0  0  0  0  0  0  0  0  0  0  0  0
  185.7280  178.4080  140.8810 C   0  0  0  0  0  0  0  0  0  0  0  0
  188.7700  177.7520  144.6280 C   0  0  0  0  0  0  0  0  0  0  0  0
  186.6410  177.7020  146.4440 C   0  0  0  0  0  3  0  0  0  0  0  0
  188.2210  177.3820  148.3510 C   0  0  0  0  0  1  0  0  0  0  0  0
  187.4460  177.8990  144.1570 C   0  0  0  0  0  0  0  0  0  0  0  0
  189.0180  177.5840  145.9940 C   0  0  0  0  0  3  0  0  0  0  0  0
  186.3860  177.8710  145.0810 C   0  0  0  0  0  3  0  0  0  0  0  0
  185.9300  178.2290  142.2560 C   0  0  0  0  0  3  0  0  0  0  0  0
  187.2220  178.0720  142.7780 C   0  0  0  0  0  0  0  0  0  0  0  0
  189.5930  177.9460  142.3970 N   0  0  0  0  0  0  0  0  0  0  0  0
  188.1290  178.2690  140.5190 C   0  0  0  0  0  0  0  0  0  0  0  0
  186.8320  178.4290  140.0220 C   0  0  0  0  0  3  0  0  0  0  0  0
  189.8300  177.7790  143.7240 C   0  0  0  0  0  3  0  0  0  0  0  0
  184.3720  178.5900  140.3360 C   0  0  0  0  0  0  0  0  0  0  0  0
  183.4750  177.6630  140.5020 N   0  0  0  0  0  0  0  0  0  0  0  0
  184.0750  179.7370  139.6670 F   0  0  0  0  0  0  0  0  0  0  0  0
  182.1190  177.7240  140.0390 C   0  0  0  0  0  0  0  0  0  0  0  0
  181.3520  178.6640  140.3770 O   0  0  0  0  0  0  0  0  0  0  0  0
  181.5980  176.6400  139.1590 C   0  0  0  0  0  2  0  0  0  0  0  0
  182.3610  176.6010  137.8430 C   0  0  2  0  0  3  0  0  0  0  0  0
  182.0090  176.0400  135.1960 S   0  0  0  0  0  0  0  0  0  0  0  0
  182.2320  177.9200  137.1160 C   0  0  0  0  0  2  0  0  0  0  0  0
  181.7740  175.5380  136.9330 C   0  0  1  0  0  3  0  0  0  0  0  0
  182.6520  177.6670  135.6880 C   0  0  0  0  0  2  0  0  0  0  0  0
  183.8300  174.0680  137.2210 N   0  0  0  0  0  0  0  0  0  0  0  0
  182.4040  174.2030  137.1960 C   0  0  0  0  0  0  0  0  0  0  0  0
  185.2630  172.3680  136.2100 C   0  0  0  0  0  2  0  0  0  0  0  0
  186.1270  174.5720  137.0210 C   0  0  0  0  0  3  0  0  0  0  0  0
  185.9810  173.0830  137.3420 C   0  0  1  0  0  3  0  0  0  0  0  0
  184.7380  175.1830  137.0400 C   0  0  0  0  0  3  0  0  0  0  0  0
  184.4930  172.7970  137.4460 C   0  0  1  0  0  3  0  0  0  0  0  0
  181.6720  173.1910  137.3730 O   0  0  0  0  0  0  0  0  0  0  0  0
  189.2810  178.3210  139.5660 C   0  0  0  0  0  2  0  0  0  0  0  0
  189.2180  176.0940  136.5760 C   0  0  0  0  0  2  0  0  0  0  0  0
  189.9040  174.9280  137.2940 C   0  0  2  0  0  3  0  0  0  0  0  0
  190.7350  176.5540  139.0620 C   0  0  0  0  0  2  0  0  0  0  0  0
  189.2350  177.3800  137.4110 C   0  0  0  0  0  2  0  0  0  0  0  0
  189.3820  177.0690  138.8320 N   0  0  0  0  0  0  0  0  0  0  0  0
  191.1120  175.4140  138.0980 C   0  0  0  0  0  2  0  0  0  0  0  0
  189.3790  173.8030  135.2540 O   0  0  0  0  0  1  0  0  0  0  0  0
  190.3210  173.8760  136.2810 C   0  0  0  0  0  2  0  0  0  0  0  0
  1  6  1  0  0  0  0
  2 12  1  0  0  0  0
  2 11  1  0  0  0  0
  3 10  1  0  0  0  0
  4  8  1  0  0  0  0
  5  1  1  0  0  0  0
  7  4  2  0  0  0  0
  7  9  1  0  0  0  0
  8  1  2  0  0  0  0
  9  5  2  0  0  0  0
 10 11  2  0  0  0  0
 11  7  1  0  0  0  0
 12 15  2  0  0  0  0
 13  2  2  0  0  0  0
 14 13  1  0  0  0  0
 14  3  2  0  0  0  0
 15  4  1  0  0  0  0
 16 17  2  0  0  0  0
 16  3  1  0  0  0  0
 18 16  1  0  0  0  0
 19 20  2  0  0  0  0
 19 17  1  0  0  0  0
 21 19  1  0  0  0  0
 22 21  1  1  0  0  0
 23 26  1  0  0  0  0
 23 25  1  0  0  0  0
 24 22  1  0  0  0  0
 25 28  1  6  0  0  0
 25 22  1  0  0  0  0
 26 24  1  0  0  0  0
 27 33  1  0  0  0  0
 28 27  1  0  0  0  0
 28 34  2  0  0  0  0
 30 32  2  0  0  0  0
 30 31  1  0  0  0  0
 31 29  1  6  0  0  0
 31 33  1  0  0  0  0
 32 27  1  0  0  0  0
 33 29  1  6  0  0  0
 35 13  1  0  0  0  0
 36 37  1  0  0  0  0
 36 39  1  0  0  0  0
 37 43  1  6  0  0  0
 37 41  1  0  0  0  0
 39 40  1  0  0  0  0
 40 38  1  0  0  0  0
 40 35  1  0  0  0  0
 41 38  1  0  0  0  0
 42 43  1  0  0  0  0
M  END
>  <MODEL>
9

>  <REMARK>
 VINA RESULT:      -8.4      2.174      3.076
  Name = 
  8 active torsions:
  status: ('A' for Active; 'I' for Inactive)
    1  A    between atoms: C_1  and  C_34
    2  A    between atoms: C_1  and  N_35
    3  A    between atoms: C_2  and  C_13
    4  A    between atoms: C_3  and  C_4
    5  A    between atoms: C_3  and  C_12
    6  A    between atoms: N_6  and  C_12
    7  A    between atoms: C_14  and  C_22
    8  A    between atoms: C_19  and  C_37
                            x       y       z     vdW  Elec       q    Type
                         _______ _______ _______ _____ _____    ______ ____

>  <TORSDO>
F 8

$$$$
