=
 OpenBabel10272401513D

 28 31  0  0  1  0  0  0  0  0999 V2000
  187.1470  177.5730  145.0370 C   0  0  1  0  0  3  0  0  0  0  0  0
  183.3350  179.0630  145.6830 O   0  0  0  0  0  0  0  0  0  0  0  0
  186.2290  178.7970  141.4870 C   0  0  2  0  0  3  0  0  0  0  0  0
  185.0600  178.6210  144.0960 C   0  0  0  0  0  0  0  0  0  0  0  0
  186.9380  177.9520  142.5390 C   0  0  0  0  0  2  0  0  0  0  0  0
  185.4230  178.4520  146.6040 C   0  0  0  0  0  3  0  0  0  0  0  0
  184.2470  178.7770  143.0410 C   0  0  0  0  0  3  0  0  0  0  0  0
  184.5310  178.7300  145.4700 C   0  0  0  0  0  0  0  0  0  0  0  0
  184.7130  178.6330  141.6180 C   0  0  0  0  0  2  0  0  0  0  0  0
  186.6460  177.9490  146.4110 C   0  0  0  0  0  3  0  0  0  0  0  0
  186.5600  178.4650  143.9290 C   0  0  2  0  0  3  0  0  0  0  0  0
  185.8080  178.3690  139.1090 C   0  0  0  0  0  3  0  0  0  0  0  0
  188.7230  177.4220  139.0590 C   0  0  0  0  0  3  0  0  0  0  0  0
  186.8550  176.8070  137.5240 C   0  0  0  0  0  0  0  0  0  0  0  0
  186.7030  178.4650  140.1030 C   0  0  0  0  0  0  0  0  0  0  0  0
  188.9970  178.9760  140.7350 F   0  0  0  0  0  0  0  0  0  0  0  0
  188.0270  176.5430  138.0990 C   0  0  0  0  0  3  0  0  0  0  0  0
  188.1640  178.3010  139.9030 C   0  0  0  0  0  0  0  0  0  0  0  0
  186.2710  175.8090  136.5890 C   0  0  0  0  0  1  0  0  0  0  0  0
  186.1750  178.1240  137.6840 C   0  0  0  0  0  2  0  0  0  0  0  0
  188.6490  177.5360  145.0140 C   0  0  0  0  0  0  0  0  0  0  0  0
  189.3030  178.0340  143.8820 C   0  0  0  0  0  3  0  0  0  0  0  0
  190.8090  177.0260  146.0140 C   0  0  0  0  0  0  0  0  0  0  0  0
  190.6980  178.0290  143.8120 C   0  0  0  0  0  3  0  0  0  0  0  0
  188.7750  176.5270  147.2230 O   0  0  0  0  0  1  0  0  0  0  0  0
  189.4080  177.0280  146.0890 C   0  0  0  0  0  0  0  0  0  0  0  0
  191.7810  176.4040  147.3350 Cl  0  0  0  0  0  0  0  0  0  0  0  0
  191.4500  177.5270  144.8760 C   0  0  0  0  0  3  0  0  0  0  0  0
  1 21  1  1  0  0  0
  1 10  1  0  0  0  0
  3 15  1  6  0  0  0
  3  9  1  0  0  0  0
  3  5  1  0  0  0  0
  4  8  1  0  0  0  0
  7  4  2  0  0  0  0
  8  2  2  0  0  0  0
  8  6  1  0  0  0  0
  9  7  1  0  0  0  0
 10  6  2  0  0  0  0
 11  5  1  6  0  0  0
 11  4  1  0  0  0  0
 11  1  1  0  0  0  0
 12 15  2  0  0  0  0
 13 18  2  0  0  0  0
 14 20  1  0  0  0  0
 14 17  2  0  0  0  0
 17 13  1  0  0  0  0
 18 15  1  0  0  0  0
 18 16  1  0  0  0  0
 19 14  1  0  0  0  0
 20 12  1  0  0  0  0
 21 26  1  0  0  0  0
 22 21  2  0  0  0  0
 23 26  2  0  0  0  0
 23 27  1  0  0  0  0
 24 22  1  0  0  0  0
 24 28  2  0  0  0  0
 26 25  1  0  0  0  0
 28 23  1  0  0  0  0
M  END
>  <MODEL>
1

>  <REMARK>
 VINA RESULT:     -11.0      0.000      0.000
  Name = 
  2 active torsions:
  status: ('A' for Active; 'I' for Inactive)
    1  A    between atoms: C_1  and  C_2
    2  A    between atoms: C_10  and  C_13
                            x       y       z     vdW  Elec       q    Type
                         _______ _______ _______ _____ _____    ______ ____

>  <TORSDO>
F 2

$$$$
=
 OpenBabel10272401513D

 28 31  0  0  1  0  0  0  0  0999 V2000
  188.7190  177.1930  145.4430 C   0  0  1  0  0  3  0  0  0  0  0  0
  187.0330  177.7000  149.1940 O   0  0  0  0  0  0  0  0  0  0  0  0
  185.4000  178.9490  144.5210 C   0  0  2  0  0  3  0  0  0  0  0  0
  186.7740  177.9750  146.8380 C   0  0  0  0  0  0  0  0  0  0  0  0
  186.6180  178.0570  144.3150 C   0  0  0  0  0  2  0  0  0  0  0  0
  188.9860  177.3400  147.9130 C   0  0  0  0  0  3  0  0  0  0  0  0
  185.4530  178.1890  146.9220 C   0  0  0  0  0  3  0  0  0  0  0  0
  187.5610  177.6720  148.0500 C   0  0  0  0  0  0  0  0  0  0  0  0
  184.5880  178.4560  145.7210 C   0  0  0  0  0  2  0  0  0  0  0  0
  189.5360  177.1510  146.7110 C   0  0  0  0  0  3  0  0  0  0  0  0
  187.5310  178.1670  145.5370 C   0  0  2  0  0  3  0  0  0  0  0  0
  183.2270  178.9340  143.3850 C   0  0  0  0  0  3  0  0  0  0  0  0
  184.8930  178.7270  140.8200 C   0  0  0  0  0  3  0  0  0  0  0  0
  182.5310  178.0220  141.2090 C   0  0  0  0  0  0  0  0  0  0  0  0
  184.5600  179.0300  143.2810 C   0  0  0  0  0  0  0  0  0  0  0  0
  186.4450  179.9220  142.0270 F   0  0  0  0  0  0  0  0  0  0  0  0
  183.6830  177.9270  140.5470 C   0  0  0  0  0  3  0  0  0  0  0  0
  185.2630  179.2570  141.9940 C   0  0  0  0  0  0  0  0  0  0  0  0
  181.4050  177.1300  140.8270 C   0  0  0  0  0  1  0  0  0  0  0  0
  182.2930  179.0810  142.2310 C   0  0  0  0  0  2  0  0  0  0  0  0
  189.5980  177.4680  144.2550 C   0  0  0  0  0  0  0  0  0  0  0  0
  190.6120  178.4220  144.3910 C   0  0  0  0  0  3  0  0  0  0  0  0
  190.2930  177.0870  141.9540 C   0  0  0  0  0  0  0  0  0  0  0  0
  191.4610  178.7090  143.3200 C   0  0  0  0  0  3  0  0  0  0  0  0
  188.4330  175.8430  142.8700 O   0  0  0  0  0  1  0  0  0  0  0  0
  189.4370  176.7940  143.0260 C   0  0  0  0  0  0  0  0  0  0  0  0
  190.1200  176.2650  140.4130 Cl  0  0  0  0  0  0  0  0  0  0  0  0
  191.3020  178.0430  142.1040 C   0  0  0  0  0  3  0  0  0  0  0  0
  1 21  1  6  0  0  0
  1 11  1  0  0  0  0
  1 10  1  0  0  0  0
  3 15  1  6  0  0  0
  3  9  1  0  0  0  0
  4  7  2  0  0  0  0
  4  8  1  0  0  0  0
  5  3  1  0  0  0  0
  6  8  1  0  0  0  0
  8  2  2  0  0  0  0
  9  7  1  0  0  0  0
 10  6  2  0  0  0  0
 11  5  1  6  0  0  0
 11  4  1  0  0  0  0
 13 18  2  0  0  0  0
 14 20  1  0  0  0  0
 15 12  2  0  0  0  0
 17 13  1  0  0  0  0
 17 14  2  0  0  0  0
 18 16  1  0  0  0  0
 18 15  1  0  0  0  0
 19 14  1  0  0  0  0
 20 12  1  0  0  0  0
 21 22  1  0  0  0  0
 23 28  2  0  0  0  0
 23 26  1  0  0  0  0
 24 22  2  0  0  0  0
 25 26  1  0  0  0  0
 26 21  2  0  0  0  0
 27 23  1  0  0  0  0
 28 24  1  0  0  0  0
M  END
>  <MODEL>
2

>  <REMARK>
 VINA RESULT:     -10.9      2.774      4.080
  Name = 
  2 active torsions:
  status: ('A' for Active; 'I' for Inactive)
    1  A    between atoms: C_1  and  C_2
    2  A    between atoms: C_10  and  C_13
                            x       y       z     vdW  Elec       q    Type
                         _______ _______ _______ _____ _____    ______ ____

>  <TORSDO>
F 2

$$$$
=
 OpenBabel10272401513D

 28 31  0  0  1  0  0  0  0  0999 V2000
  185.8760  177.7790  145.3340 C   0  0  1  0  0  3  0  0  0  0  0  0
  182.3790  179.1520  143.5870 O   0  0  0  0  0  0  0  0  0  0  0  0
  187.1630  178.8140  141.8390 C   0  0  2  0  0  3  0  0  0  0  0  0
  184.7050  178.7070  143.3070 C   0  0  0  0  0  0  0  0  0  0  0  0
  187.1410  178.0420  143.1530 C   0  0  0  0  0  2  0  0  0  0  0  0
  183.5600  178.6600  145.5730 C   0  0  0  0  0  3  0  0  0  0  0  0
  184.6470  178.7870  141.9700 C   0  0  0  0  0  3  0  0  0  0  0  0
  183.4820  178.8550  144.1180 C   0  0  0  0  0  0  0  0  0  0  0  0
  185.8490  178.5990  141.0840 C   0  0  0  0  0  2  0  0  0  0  0  0
  184.6730  178.1960  146.1460 C   0  0  0  0  0  3  0  0  0  0  0  0
  186.0290  178.6000  144.0420 C   0  0  2  0  0  3  0  0  0  0  0  0
  188.2260  178.4130  139.6650 C   0  0  0  0  0  3  0  0  0  0  0  0
  190.5180  177.2350  141.3270 C   0  0  0  0  0  3  0  0  0  0  0  0
  189.9090  176.7660  138.9530 C   0  0  0  0  0  0  0  0  0  0  0  0
  188.3490  178.4400  141.0000 C   0  0  0  0  0  0  0  0  0  0  0  0
  189.8330  178.7680  142.9010 F   0  0  0  0  0  0  0  0  0  0  0  0
  190.4800  176.4110  140.1030 C   0  0  0  0  0  3  0  0  0  0  0  0
  189.6230  178.1590  141.7070 C   0  0  0  0  0  0  0  0  0  0  0  0
  189.9380  175.8150  137.8110 C   0  0  0  0  0  1  0  0  0  0  0  0
  189.3570  178.1340  138.7340 C   0  0  0  0  0  2  0  0  0  0  0  0
  187.1180  177.7970  146.1810 C   0  0  0  0  0  0  0  0  0  0  0  0
  187.0610  178.4400  147.4220 C   0  0  0  0  0  3  0  0  0  0  0  0
  189.4460  177.2280  146.6040 C   0  0  0  0  0  0  0  0  0  0  0  0
  188.1850  178.4790  148.2500 C   0  0  0  0  0  3  0  0  0  0  0  0
  188.3970  176.5430  144.5360 O   0  0  0  0  0  1  0  0  0  0  0  0
  188.3200  177.1860  145.7680 C   0  0  0  0  0  0  0  0  0  0  0  0
  190.9550  176.4750  146.1210 Cl  0  0  0  0  0  0  0  0  0  0  0  0
  189.3750  177.8740  147.8420 C   0  0  0  0  0  3  0  0  0  0  0  0
  1 10  1  0  0  0  0
  1 21  1  1  0  0  0
  2  8  2  0  0  0  0
  3 15  1  6  0  0  0
  3  5  1  0  0  0  0
  4 11  1  0  0  0  0
  4  8  1  0  0  0  0
  6 10  2  0  0  0  0
  7  4  2  0  0  0  0
  8  6  1  0  0  0  0
  9  3  1  0  0  0  0
  9  7  1  0  0  0  0
 11  5  1  6  0  0  0
 11  1  1  0  0  0  0
 12 15  2  0  0  0  0
 13 18  2  0  0  0  0
 14 17  2  0  0  0  0
 15 18  1  0  0  0  0
 17 13  1  0  0  0  0
 18 16  1  0  0  0  0
 19 14  1  0  0  0  0
 20 14  1  0  0  0  0
 20 12  1  0  0  0  0
 21 22  1  0  0  0  0
 22 24  2  0  0  0  0
 23 28  2  0  0  0  0
 25 26  1  0  0  0  0
 26 21  2  0  0  0  0
 26 23  1  0  0  0  0
 27 23  1  0  0  0  0
 28 24  1  0  0  0  0
M  END
>  <MODEL>
3

>  <REMARK>
 VINA RESULT:     -10.4      1.792      2.496
  Name = 
  2 active torsions:
  status: ('A' for Active; 'I' for Inactive)
    1  A    between atoms: C_1  and  C_2
    2  A    between atoms: C_10  and  C_13
                            x       y       z     vdW  Elec       q    Type
                         _______ _______ _______ _____ _____    ______ ____

>  <TORSDO>
F 2

$$$$
=
 OpenBabel10272401513D

 28 31  0  0  1  0  0  0  0  0999 V2000
  182.7050  178.6710  140.8200 C   0  0  1  0  0  3  0  0  0  0  0  0
  180.2080  179.4090  144.0440 O   0  0  0  0  0  0  0  0  0  0  0  0
  185.1100  178.0080  143.7740 C   0  0  2  0  0  3  0  0  0  0  0  0
  182.4070  178.8410  143.3150 C   0  0  0  0  0  0  0  0  0  0  0  0
  184.7040  178.3880  142.3550 C   0  0  0  0  0  2  0  0  0  0  0  0
  180.4060  178.8650  141.7530 C   0  0  0  0  0  3  0  0  0  0  0  0
  182.9630  179.1030  144.5070 C   0  0  0  0  0  3  0  0  0  0  0  0
  180.9650  179.0630  143.0970 C   0  0  0  0  0  0  0  0  0  0  0  0
  184.4340  178.9430  144.7790 C   0  0  0  0  0  2  0  0  0  0  0  0
  181.2010  178.6490  140.7010 C   0  0  0  0  0  3  0  0  0  0  0  0
  183.1960  178.1860  142.1960 C   0  0  2  0  0  3  0  0  0  0  0  0
  187.3800  177.9190  142.8510 C   0  0  0  0  0  3  0  0  0  0  0  0
  188.2420  177.5370  145.7670 C   0  0  0  0  0  3  0  0  0  0  0  0
  189.4390  176.8620  143.6840 C   0  0  0  0  0  0  0  0  0  0  0  0
  186.6010  178.0060  143.9380 C   0  0  0  0  0  0  0  0  0  0  0  0
  186.3800  178.8080  146.2250 F   0  0  0  0  0  0  0  0  0  0  0  0
  189.1920  176.7210  144.9860 C   0  0  0  0  0  3  0  0  0  0  0  0
  187.1360  178.1450  145.3150 C   0  0  0  0  0  0  0  0  0  0  0  0
  190.4130  175.9480  143.0320 C   0  0  0  0  0  1  0  0  0  0  0  0
  188.8690  177.9890  142.8900 C   0  0  0  0  0  2  0  0  0  0  0  0
  183.3370  177.9180  139.6830 C   0  0  0  0  0  0  0  0  0  0  0  0
  182.8260  176.6550  139.3640 C   0  0  0  0  0  3  0  0  0  0  0  0
  184.9550  177.6980  137.8780 C   0  0  0  0  0  0  0  0  0  0  0  0
  183.3720  175.9170  138.3120 C   0  0  0  0  0  3  0  0  0  0  0  0
  184.9340  179.6970  139.2380 O   0  0  0  0  0  1  0  0  0  0  0  0
  184.4110  178.4440  138.9340 C   0  0  0  0  0  0  0  0  0  0  0  0
  186.2890  178.3250  136.9270 Cl  0  0  0  0  0  0  0  0  0  0  0  0
  184.4340  176.4370  137.5700 C   0  0  0  0  0  3  0  0  0  0  0  0
  1 21  1  6  0  0  0
  1 11  1  0  0  0  0
  3 15  1  6  0  0  0
  3  9  1  0  0  0  0
  4  7  2  0  0  0  0
  5  3  1  0  0  0  0
  6  8  1  0  0  0  0
  7  9  1  0  0  0  0
  8  4  1  0  0  0  0
  8  2  2  0  0  0  0
 10  1  1  0  0  0  0
 10  6  2  0  0  0  0
 11  5  1  1  0  0  0
 11  4  1  0  0  0  0
 12 20  1  0  0  0  0
 12 15  2  0  0  0  0
 14 17  2  0  0  0  0
 15 18  1  0  0  0  0
 17 13  1  0  0  0  0
 18 13  2  0  0  0  0
 18 16  1  0  0  0  0
 19 14  1  0  0  0  0
 20 14  1  0  0  0  0
 22 21  1  0  0  0  0
 23 26  1  0  0  0  0
 24 22  2  0  0  0  0
 26 25  1  0  0  0  0
 26 21  2  0  0  0  0
 27 23  1  0  0  0  0
 28 23  2  0  0  0  0
 28 24  1  0  0  0  0
M  END
>  <MODEL>
4

>  <REMARK>
 VINA RESULT:     -10.4      3.604      6.771
  Name = 
  2 active torsions:
  status: ('A' for Active; 'I' for Inactive)
    1  A    between atoms: C_1  and  C_2
    2  A    between atoms: C_10  and  C_13
                            x       y       z     vdW  Elec       q    Type
                         _______ _______ _______ _____ _____    ______ ____

>  <TORSDO>
F 2

$$$$
=
 OpenBabel10272401513D

 28 31  0  0  1  0  0  0  0  0999 V2000
  188.3300  177.0070  144.5270 C   0  0  1  0  0  3  0  0  0  0  0  0
  187.6650  177.6590  148.5640 O   0  0  0  0  0  0  0  0  0  0  0  0
  185.0090  178.9830  144.4110 C   0  0  2  0  0  3  0  0  0  0  0  0
  186.8480  177.9330  146.3400 C   0  0  0  0  0  0  0  0  0  0  0  0
  186.0760  178.0070  143.9320 C   0  0  0  0  0  2  0  0  0  0  0  0
  189.2110  177.1540  146.8500 C   0  0  0  0  0  3  0  0  0  0  0  0
  185.6060  178.2390  146.7420 C   0  0  0  0  0  3  0  0  0  0  0  0
  187.8890  177.5850  147.3260 C   0  0  0  0  0  0  0  0  0  0  0  0
  184.4890  178.5570  145.7860 C   0  0  0  0  0  2  0  0  0  0  0  0
  189.4320  176.9180  145.5540 C   0  0  0  0  0  3  0  0  0  0  0  0
  187.2690  178.0620  144.8880 C   0  0  2  0  0  3  0  0  0  0  0  0
  182.6310  179.2040  143.8540 C   0  0  0  0  0  3  0  0  0  0  0  0
  183.5460  178.6420  140.9830 C   0  0  0  0  0  3  0  0  0  0  0  0
  181.2980  178.2830  142.0030 C   0  0  0  0  0  0  0  0  0  0  0  0
  183.8950  179.1130  143.4150 C   0  0  0  0  0  0  0  0  0  0  0  0
  185.4870  179.6760  141.6630 F   0  0  0  0  0  0  0  0  0  0  0  0
  182.2220  177.9990  141.0860 C   0  0  0  0  0  3  0  0  0  0  0  0
  184.2650  179.1770  141.9800 C   0  0  0  0  0  0  0  0  0  0  0  0
  180.0140  177.5330  141.9880 C   0  0  0  0  0  1  0  0  0  0  0  0
  181.4560  179.4160  142.9600 C   0  0  0  0  0  2  0  0  0  0  0  0
  188.9020  177.2110  143.1520 C   0  0  0  0  0  0  0  0  0  0  0  0
  188.0190  177.4920  142.1050 C   0  0  0  0  0  3  0  0  0  0  0  0
  190.7650  177.3430  141.5900 C   0  0  0  0  0  0  0  0  0  0  0  0
  188.5000  177.6970  140.8100 C   0  0  0  0  0  3  0  0  0  0  0  0
  191.1820  176.8560  143.9220 O   0  0  0  0  0  1  0  0  0  0  0  0
  190.2870  177.1360  142.8930 C   0  0  0  0  0  0  0  0  0  0  0  0
  192.4810  177.2590  141.2370 Cl  0  0  0  0  0  0  0  0  0  0  0  0
  189.8700  177.6240  140.5530 C   0  0  0  0  0  3  0  0  0  0  0  0
  1 21  1  6  0  0  0
  1 11  1  0  0  0  0
  1 10  1  0  0  0  0
  3 15  1  6  0  0  0
  3  9  1  0  0  0  0
  4  7  2  0  0  0  0
  4  8  1  0  0  0  0
  5  3  1  0  0  0  0
  6  8  1  0  0  0  0
  8  2  2  0  0  0  0
  9  7  1  0  0  0  0
 10  6  2  0  0  0  0
 11  5  1  6  0  0  0
 11  4  1  0  0  0  0
 13 17  1  0  0  0  0
 13 18  2  0  0  0  0
 14 20  1  0  0  0  0
 15 12  2  0  0  0  0
 16 18  1  0  0  0  0
 17 14  2  0  0  0  0
 18 15  1  0  0  0  0
 19 14  1  0  0  0  0
 20 12  1  0  0  0  0
 22 21  2  0  0  0  0
 23 26  2  0  0  0  0
 24 22  1  0  0  0  0
 26 21  1  0  0  0  0
 26 25  1  0  0  0  0
 27 23  1  0  0  0  0
 28 24  2  0  0  0  0
 28 23  1  0  0  0  0
M  END
>  <MODEL>
5

>  <REMARK>
 VINA RESULT:     -10.4      2.584      4.622
  Name = 
  2 active torsions:
  status: ('A' for Active; 'I' for Inactive)
    1  A    between atoms: C_1  and  C_2
    2  A    between atoms: C_10  and  C_13
                            x       y       z     vdW  Elec       q    Type
                         _______ _______ _______ _____ _____    ______ ____

>  <TORSDO>
F 2

$$$$
=
 OpenBabel10272401513D

 28 31  0  0  1  0  0  0  0  0999 V2000
  186.3520  178.4340  144.6460 C   0  0  1  0  0  3  0  0  0  0  0  0
  189.1610  177.0020  147.3350 O   0  0  0  0  0  0  0  0  0  0  0  0
  189.1590  177.3040  142.2390 C   0  0  2  0  0  3  0  0  0  0  0  0
  188.6320  177.4460  145.0520 C   0  0  0  0  0  0  0  0  0  0  0  0
  187.9550  178.1130  142.7070 C   0  0  0  0  0  2  0  0  0  0  0  0
  186.9030  177.5540  146.9080 C   0  0  0  0  0  3  0  0  0  0  0  0
  189.9050  177.3280  144.6450 C   0  0  0  0  0  3  0  0  0  0  0  0
  188.2900  177.3170  146.4810 C   0  0  0  0  0  0  0  0  0  0  0  0
  190.3260  177.4940  143.2110 C   0  0  0  0  0  2  0  0  0  0  0  0
  185.9940  178.0370  146.0580 C   0  0  0  0  0  3  0  0  0  0  0  0
  187.4890  177.5770  144.0620 C   0  0  2  0  0  3  0  0  0  0  0  0
  188.6730  178.3170  140.0590 C   0  0  0  0  0  3  0  0  0  0  0  0
  191.2290  176.8900  139.1490 C   0  0  0  0  0  3  0  0  0  0  0  0
  189.2870  177.6410  137.7750 C   0  0  0  0  0  0  0  0  0  0  0  0
  189.5470  177.6580  140.8340 C   0  0  0  0  0  0  0  0  0  0  0  0
  191.8840  177.2010  141.3330 F   0  0  0  0  0  0  0  0  0  0  0  0
  190.3370  176.8460  137.9740 C   0  0  0  0  0  3  0  0  0  0  0  0
  190.9130  177.2880  140.3890 C   0  0  0  0  0  0  0  0  0  0  0  0
  188.4710  177.4620  136.5450 C   0  0  0  0  0  1  0  0  0  0  0  0
  188.9820  178.7880  138.6780 C   0  0  0  0  0  2  0  0  0  0  0  0
  185.1290  178.4440  143.7720 C   0  0  0  0  0  0  0  0  0  0  0  0
  185.2750  178.0790  142.4300 C   0  0  0  0  0  3  0  0  0  0  0  0
  182.7470  178.7790  143.4020 C   0  0  0  0  0  0  0  0  0  0  0  0
  184.1690  178.0640  141.5770 C   0  0  0  0  0  3  0  0  0  0  0  0
  183.6900  179.1630  145.5960 O   0  0  0  0  0  1  0  0  0  0  0  0
  183.8550  178.7970  144.2630 C   0  0  0  0  0  0  0  0  0  0  0  0
  181.1490  179.2110  143.9820 Cl  0  0  0  0  0  0  0  0  0  0  0  0
  182.9080  178.4130  142.0620 C   0  0  0  0  0  3  0  0  0  0  0  0
  1 21  1  6  0  0  0
  1 10  1  0  0  0  0
  3 15  1  6  0  0  0
  3  5  1  0  0  0  0
  3  9  1  0  0  0  0
  4  8  1  0  0  0  0
  7  4  2  0  0  0  0
  8  6  1  0  0  0  0
  8  2  2  0  0  0  0
  9  7  1  0  0  0  0
 10  6  2  0  0  0  0
 11  5  1  6  0  0  0
 11  1  1  0  0  0  0
 11  4  1  0  0  0  0
 12 15  2  0  0  0  0
 13 18  2  0  0  0  0
 14 17  2  0  0  0  0
 14 20  1  0  0  0  0
 17 13  1  0  0  0  0
 18 15  1  0  0  0  0
 18 16  1  0  0  0  0
 19 14  1  0  0  0  0
 20 12  1  0  0  0  0
 21 26  1  0  0  0  0
 22 21  2  0  0  0  0
 23 27  1  0  0  0  0
 23 26  2  0  0  0  0
 24 28  2  0  0  0  0
 24 22  1  0  0  0  0
 26 25  1  0  0  0  0
 28 23  1  0  0  0  0
M  END
>  <MODEL>
6

>  <REMARK>
 VINA RESULT:     -10.1      2.674      4.933
  Name = 
  2 active torsions:
  status: ('A' for Active; 'I' for Inactive)
    1  A    between atoms: C_1  and  C_2
    2  A    between atoms: C_10  and  C_13
                            x       y       z     vdW  Elec       q    Type
                         _______ _______ _______ _____ _____    ______ ____

>  <TORSDO>
F 2

$$$$
=
 OpenBabel10272401513D

 28 31  0  0  1  0  0  0  0  0999 V2000
  187.7370  177.5180  144.8150 C   0  0  1  0  0  3  0  0  0  0  0  0
  184.5570  178.4130  147.3150 O   0  0  0  0  0  0  0  0  0  0  0  0
  185.2720  179.1310  142.3120 C   0  0  2  0  0  3  0  0  0  0  0  0
  185.4050  178.4280  145.0860 C   0  0  0  0  0  0  0  0  0  0  0  0
  186.4140  178.2330  142.7730 C   0  0  0  0  0  2  0  0  0  0  0  0
  186.8610  177.9350  147.1070 C   0  0  0  0  0  3  0  0  0  0  0  0
  184.2000  178.6360  144.5370 C   0  0  0  0  0  3  0  0  0  0  0  0
  185.5440  178.2660  146.5460 C   0  0  0  0  0  0  0  0  0  0  0  0
  183.9850  178.7630  143.0530 C   0  0  0  0  0  2  0  0  0  0  0  0
  187.8890  177.6220  146.3130 C   0  0  0  0  0  3  0  0  0  0  0  0
  186.6770  178.4840  144.2590 C   0  0  2  0  0  3  0  0  0  0  0  0
  183.8820  179.3220  140.3000 C   0  0  0  0  0  3  0  0  0  0  0  0
  186.2730  178.0380  138.8750 C   0  0  0  0  0  3  0  0  0  0  0  0
  183.8710  178.0450  138.1980 C   0  0  0  0  0  0  0  0  0  0  0  0
  185.0900  179.0680  140.8240 C   0  0  0  0  0  0  0  0  0  0  0  0
  187.5010  179.1130  140.4970 F   0  0  0  0  0  0  0  0  0  0  0  0
  185.0890  177.5040  138.1750 C   0  0  0  0  0  3  0  0  0  0  0  0
  186.2870  178.7640  140.0020 C   0  0  0  0  0  0  0  0  0  0  0  0
  182.7720  177.3750  137.4550 C   0  0  0  0  0  1  0  0  0  0  0  0
  183.6070  179.3670  138.8350 C   0  0  0  0  0  2  0  0  0  0  0  0
  189.0700  177.6700  144.1360 C   0  0  0  0  0  0  0  0  0  0  0  0
  190.0600  178.4140  144.7860 C   0  0  0  0  0  3  0  0  0  0  0  0
  190.6150  177.2550  142.3020 C   0  0  0  0  0  0  0  0  0  0  0  0
  191.3170  178.5800  144.2030 C   0  0  0  0  0  3  0  0  0  0  0  0
  188.3770  176.3420  142.2200 O   0  0  0  0  0  1  0  0  0  0  0  0
  189.3490  177.0850  142.8830 C   0  0  0  0  0  0  0  0  0  0  0  0
  190.9940  176.5380  140.7460 Cl  0  0  0  0  0  0  0  0  0  0  0  0
  191.5950  178.0010  142.9630 C   0  0  0  0  0  3  0  0  0  0  0  0
  1 21  1  6  0  0  0
  1 10  1  0  0  0  0
  3 15  1  6  0  0  0
  3  5  1  0  0  0  0
  3  9  1  0  0  0  0
  4  8  1  0  0  0  0
  7  4  2  0  0  0  0
  8  6  1  0  0  0  0
  8  2  2  0  0  0  0
  9  7  1  0  0  0  0
 10  6  2  0  0  0  0
 11  5  1  6  0  0  0
 11  1  1  0  0  0  0
 11  4  1  0  0  0  0
 12 15  2  0  0  0  0
 13 18  2  0  0  0  0
 14 20  1  0  0  0  0
 17 14  2  0  0  0  0
 17 13  1  0  0  0  0
 18 16  1  0  0  0  0
 18 15  1  0  0  0  0
 19 14  1  0  0  0  0
 20 12  1  0  0  0  0
 21 22  1  0  0  0  0
 23 26  1  0  0  0  0
 23 28  2  0  0  0  0
 24 22  2  0  0  0  0
 25 26  1  0  0  0  0
 26 21  2  0  0  0  0
 27 23  1  0  0  0  0
 28 24  1  0  0  0  0
M  END
>  <MODEL>
7

>  <REMARK>
 VINA RESULT:     -10.0      2.074      2.591
  Name = 
  2 active torsions:
  status: ('A' for Active; 'I' for Inactive)
    1  A    between atoms: C_1  and  C_2
    2  A    between atoms: C_10  and  C_13
                            x       y       z     vdW  Elec       q    Type
                         _______ _______ _______ _____ _____    ______ ____

>  <TORSDO>
F 2

$$$$
=
 OpenBabel10272401513D

 28 31  0  0  1  0  0  0  0  0999 V2000
  190.7040  176.0960  138.2850 C   0  0  1  0  0  3  0  0  0  0  0  0
  194.1220  177.4400  140.2030 O   0  0  0  0  0  0  0  0  0  0  0  0
  189.1720  177.8010  141.3980 C   0  0  2  0  0  3  0  0  0  0  0  0
  191.7450  177.2460  140.2680 C   0  0  0  0  0  0  0  0  0  0  0  0
  189.2510  176.8230  140.2320 C   0  0  0  0  0  2  0  0  0  0  0  0
  193.1100  176.7260  138.1910 C   0  0  0  0  0  3  0  0  0  0  0  0
  191.6710  177.5410  141.5750 C   0  0  0  0  0  3  0  0  0  0  0  0
  193.0560  177.1530  139.5960 C   0  0  0  0  0  0  0  0  0  0  0  0
  190.3710  177.6050  142.3280 C   0  0  0  0  0  2  0  0  0  0  0  0
  192.0210  176.2690  137.5680 C   0  0  0  0  0  3  0  0  0  0  0  0
  190.5020  177.1300  139.4060 C   0  0  2  0  0  3  0  0  0  0  0  0
  186.8160  178.3960  141.7360 C   0  0  0  0  0  3  0  0  0  0  0  0
  187.1140  176.8850  144.3870 C   0  0  0  0  0  3  0  0  0  0  0  0
  185.4830  178.6760  143.7840 C   0  0  0  0  0  0  0  0  0  0  0  0
  187.8730  177.6730  142.1360 C   0  0  0  0  0  0  0  0  0  0  0  0
  188.6540  175.6380  143.2170 F   0  0  0  0  0  0  0  0  0  0  0  0
  186.1830  177.9910  144.6870 C   0  0  0  0  0  3  0  0  0  0  0  0
  187.8190  176.7060  143.2610 C   0  0  0  0  0  0  0  0  0  0  0  0
  184.5980  179.7780  144.2430 C   0  0  0  0  0  1  0  0  0  0  0  0
  185.4590  178.2880  142.3440 C   0  0  0  0  0  2  0  0  0  0  0  0
  189.5650  176.0780  137.3040 C   0  0  0  0  0  0  0  0  0  0  0  0
  189.1100  177.3000  136.8000 C   0  0  0  0  0  3  0  0  0  0  0  0
  187.9030  174.9230  135.9520 C   0  0  0  0  0  0  0  0  0  0  0  0
  188.0600  177.3380  135.8800 C   0  0  0  0  0  3  0  0  0  0  0  0
  189.3950  173.6520  137.3680 O   0  0  0  0  0  1  0  0  0  0  0  0
  188.9570  174.8780  136.8770 C   0  0  0  0  0  0  0  0  0  0  0  0
  187.1270  173.4500  135.4000 Cl  0  0  0  0  0  0  0  0  0  0  0  0
  187.4580  176.1520  135.4570 C   0  0  0  0  0  3  0  0  0  0  0  0
  1 21  1  6  0  0  0
  1 11  1  0  0  0  0
  3 15  1  1  0  0  0
  3  9  1  0  0  0  0
  4  7  2  0  0  0  0
  5  3  1  0  0  0  0
  6  8  1  0  0  0  0
  7  9  1  0  0  0  0
  8  2  2  0  0  0  0
  8  4  1  0  0  0  0
 10  6  2  0  0  0  0
 10  1  1  0  0  0  0
 11  5  1  1  0  0  0
 11  4  1  0  0  0  0
 12 15  2  0  0  0  0
 12 20  1  0  0  0  0
 13 17  1  0  0  0  0
 14 19  1  0  0  0  0
 14 17  2  0  0  0  0
 15 18  1  0  0  0  0
 16 18  1  0  0  0  0
 18 13  2  0  0  0  0
 20 14  1  0  0  0  0
 22 21  2  0  0  0  0
 23 26  2  0  0  0  0
 24 22  1  0  0  0  0
 26 21  1  0  0  0  0
 26 25  1  0  0  0  0
 27 23  1  0  0  0  0
 28 24  2  0  0  0  0
 28 23  1  0  0  0  0
M  END
>  <MODEL>
8

>  <REMARK>
 VINA RESULT:      -9.9      4.207      8.055
  Name = 
  2 active torsions:
  status: ('A' for Active; 'I' for Inactive)
    1  A    between atoms: C_1  and  C_2
    2  A    between atoms: C_10  and  C_13
                            x       y       z     vdW  Elec       q    Type
                         _______ _______ _______ _____ _____    ______ ____

>  <TORSDO>
F 2

$$$$
=
 OpenBabel10272401513D

 28 31  0  0  1  0  0  0  0  0999 V2000
  187.0830  177.3570  144.4740 C   0  0  1  0  0  3  0  0  0  0  0  0
  183.4530  179.1900  143.6780 O   0  0  0  0  0  0  0  0  0  0  0  0
  187.6530  178.5640  140.8450 C   0  0  2  0  0  3  0  0  0  0  0  0
  185.5940  178.5580  142.8370 C   0  0  0  0  0  0  0  0  0  0  0  0
  187.8450  177.6880  142.0780 C   0  0  0  0  0  2  0  0  0  0  0  0
  184.9910  178.4230  145.3000 C   0  0  0  0  0  3  0  0  0  0  0  0
  185.2450  178.7570  141.5570 C   0  0  0  0  0  3  0  0  0  0  0  0
  184.6080  178.7480  143.9190 C   0  0  0  0  0  0  0  0  0  0  0  0
  186.1870  178.5350  140.4060 C   0  0  0  0  0  2  0  0  0  0  0  0
  186.1480  177.8120  145.5680 C   0  0  0  0  0  3  0  0  0  0  0  0
  187.0290  178.2680  143.2350 C   0  0  2  0  0  3  0  0  0  0  0  0
  188.1900  178.3520  138.4610 C   0  0  0  0  0  3  0  0  0  0  0  0
  190.5190  176.6130  139.4350 C   0  0  0  0  0  3  0  0  0  0  0  0
  189.3910  176.6080  137.2090 C   0  0  0  0  0  0  0  0  0  0  0  0
  188.5710  178.1550  139.7320 C   0  0  0  0  0  0  0  0  0  0  0  0
  190.4290  177.9680  141.2930 F   0  0  0  0  0  0  0  0  0  0  0  0
  190.1030  176.0010  138.1580 C   0  0  0  0  0  3  0  0  0  0  0  0
  189.8900  177.5870  140.1070 C   0  0  0  0  0  0  0  0  0  0  0  0
  189.0330  175.8500  135.9820 C   0  0  0  0  0  1  0  0  0  0  0  0
  189.0530  178.0590  137.2810 C   0  0  0  0  0  2  0  0  0  0  0  0
  188.4790  177.1890  145.0060 C   0  0  0  0  0  0  0  0  0  0  0  0
  188.8050  177.8190  146.2120 C   0  0  0  0  0  3  0  0  0  0  0  0
  190.7370  176.2890  144.8880 C   0  0  0  0  0  0  0  0  0  0  0  0
  190.0850  177.6880  146.7540 C   0  0  0  0  0  3  0  0  0  0  0  0
  189.1470  175.7830  143.1380 O   0  0  0  0  0  1  0  0  0  0  0  0
  189.4520  176.4170  144.3390 C   0  0  0  0  0  0  0  0  0  0  0  0
  191.9700  175.3340  144.0830 Cl  0  0  0  0  0  0  0  0  0  0  0  0
  191.0500  176.9240  146.0930 C   0  0  0  0  0  3  0  0  0  0  0  0
  1 21  1  1  0  0  0
  1 10  1  0  0  0  0
  2  8  2  0  0  0  0
  3 15  1  6  0  0  0
  3  5  1  0  0  0  0
  4 11  1  0  0  0  0
  4  8  1  0  0  0  0
  6 10  2  0  0  0  0
  7  4  2  0  0  0  0
  8  6  1  0  0  0  0
  9  3  1  0  0  0  0
  9  7  1  0  0  0  0
 11  5  1  6  0  0  0
 11  1  1  0  0  0  0
 12 15  2  0  0  0  0
 13 18  2  0  0  0  0
 14 20  1  0  0  0  0
 14 17  2  0  0  0  0
 15 18  1  0  0  0  0
 17 13  1  0  0  0  0
 18 16  1  0  0  0  0
 19 14  1  0  0  0  0
 20 12  1  0  0  0  0
 21 22  1  0  0  0  0
 22 24  2  0  0  0  0
 23 28  2  0  0  0  0
 25 26  1  0  0  0  0
 26 23  1  0  0  0  0
 26 21  2  0  0  0  0
 27 23  1  0  0  0  0
 28 24  1  0  0  0  0
M  END
>  <MODEL>
9

>  <REMARK>
 VINA RESULT:      -9.9      1.667      2.092
  Name = 
  2 active torsions:
  status: ('A' for Active; 'I' for Inactive)
    1  A    between atoms: C_1  and  C_2
    2  A    between atoms: C_10  and  C_13
                            x       y       z     vdW  Elec       q    Type
                         _______ _______ _______ _____ _____    ______ ____

>  <TORSDO>
F 2

$$$$
