=
 OpenBabel10272400393D

 31 34  0  0  1  0  0  0  0  0999 V2000
  184.1570  178.9270  144.7320 C   0  0  0  0  0  0  0  0  0  0  0  0
  187.6840  177.6530  144.4960 C   0  0  0  0  0  0  0  0  0  0  0  0
  188.1910  177.6810  145.8220 C   0  0  0  0  0  0  0  0  0  0  0  0
  187.9590  178.1650  148.1980 C   0  0  0  0  0  3  0  0  0  0  0  0
  186.2910  178.0510  144.1330 C   0  0  0  0  0  0  0  0  0  0  0  0
  183.6540  178.6460  143.4610 C   0  0  0  0  0  3  0  0  0  0  0  0
  187.4340  178.1520  146.9050 C   0  0  0  0  0  3  0  0  0  0  0  0
  188.0890  177.2130  142.0240 C   0  0  2  0  0  3  0  0  0  0  0  0
  183.4140  179.4580  145.5980 O   0  0  0  0  0  0  0  0  0  0  0  0
  190.2610  176.7350  145.0410 N   0  0  0  0  0  0  0  0  0  0  0  0
  189.2550  177.7040  148.4290 C   0  0  0  0  0  3  0  0  0  0  0  0
  186.6680  177.2300  141.8740 O   0  0  0  0  0  0  0  0  0  0  0  0
  188.5200  177.1700  143.4670 C   0  0  0  0  0  0  0  0  0  0  0  0
  185.4460  178.6210  145.0390 N   0  0  0  0  0  0  0  0  0  0  0  0
  191.6560  176.6530  147.7100 Cl  0  0  0  0  0  0  0  0  0  0  0  0
  185.8200  177.7820  142.8370 C   0  0  1  0  0  3  0  0  0  0  0  0
  184.4940  178.0660  142.5120 C   0  0  0  0  0  3  0  0  0  0  0  0
  189.8020  176.7100  143.7660 C   0  0  0  0  0  3  0  0  0  0  0  0
  189.5070  177.2090  146.0680 C   0  0  0  0  0  0  0  0  0  0  0  0
  190.0300  177.2250  147.3720 C   0  0  0  0  0  0  0  0  0  0  0  0
  188.7390  178.3690  141.2520 C   0  0  0  0  0  2  0  0  0  0  0  0
  190.8110  177.2990  138.4240 O   0  0  0  0  0  0  0  0  0  0  0  0
  192.8590  177.2580  140.3790 C   0  0  0  0  0  1  0  0  0  0  0  0
  191.4680  177.5890  140.6390 N   0  0  0  0  0  2  0  0  0  0  0  0
  190.4860  177.6150  139.6010 C   0  0  0  0  0  0  0  0  0  0  0  0
  189.1270  177.9870  139.8970 N   0  0  0  0  0  0  0  0  0  0  0  0
  188.0590  177.6870  138.9510 C   0  0  0  0  0  2  0  0  0  0  0  0
  185.6820  178.4200  138.5490 C   0  0  0  0  0  0  0  0  0  0  0  0
  184.6900  179.3780  138.7070 O   0  0  0  0  0  1  0  0  0  0  0  0
  185.4260  177.3530  137.9290 O   0  0  0  0  0  0  0  0  0  0  0  0
  186.9810  178.6530  139.0910 N   0  0  0  0  0  2  0  0  0  0  0  0
  1 14  1  0  0  0  0
  1  9  2  0  0  0  0
  2  3  1  0  0  0  0
  3 19  2  0  0  0  0
  3  7  1  0  0  0  0
  4 11  1  0  0  0  0
  5  2  1  0  0  0  0
  5 14  2  0  0  0  0
  6  1  1  0  0  0  0
  7  4  2  0  0  0  0
  8 21  1  1  0  0  0
  8 13  1  0  0  0  0
 10 19  1  0  0  0  0
 12  8  1  0  0  0  0
 12 16  1  0  0  0  0
 13 18  1  0  0  0  0
 13  2  2  0  0  0  0
 16 17  1  1  0  0  0
 16  5  1  0  0  0  0
 17  6  2  0  0  0  0
 18 10  2  0  0  0  0
 19 20  1  0  0  0  0
 20 15  1  0  0  0  0
 20 11  2  0  0  0  0
 22 25  2  0  0  0  0
 23 24  1  0  0  0  0
 25 26  1  0  0  0  0
 25 24  1  0  0  0  0
 26 21  1  0  0  0  0
 27 31  1  0  0  0  0
 27 26  1  0  0  0  0
 28 29  1  0  0  0  0
 28 31  1  0  0  0  0
 30 28  2  0  0  0  0
M  END
>  <MODEL>
1

>  <REMARK>
 VINA RESULT:      -9.5      0.000      0.000
  Name = 
  4 active torsions:
  status: ('A' for Active; 'I' for Inactive)
    1  A    between atoms: C_6  and  N_22
    2  A    between atoms: C_6  and  N_24
    3  A    between atoms: C_15  and  C_23
    4  A    between atoms: N_22  and  C_23
                            x       y       z     vdW  Elec       q    Type
                         _______ _______ _______ _____ _____    ______ ____

>  <TORSDO>
F 4

$$$$
=
 OpenBabel10272400393D

 31 34  0  0  1  0  0  0  0  0999 V2000
  184.1440  178.9730  144.7510 C   0  0  0  0  0  0  0  0  0  0  0  0
  187.6580  177.6560  144.5750 C   0  0  0  0  0  0  0  0  0  0  0  0
  188.1600  177.7200  145.9020 C   0  0  0  0  0  0  0  0  0  0  0  0
  187.9200  178.2820  148.2610 C   0  0  0  0  0  3  0  0  0  0  0  0
  186.2720  178.0570  144.1920 C   0  0  0  0  0  0  0  0  0  0  0  0
  183.6450  178.6570  143.4870 C   0  0  0  0  0  3  0  0  0  0  0  0
  187.4010  178.2330  146.9660 C   0  0  0  0  0  3  0  0  0  0  0  0
  188.0730  177.1330  142.1210 C   0  0  2  0  0  3  0  0  0  0  0  0
  183.4020  179.5380  145.5960 O   0  0  0  0  0  0  0  0  0  0  0  0
  190.2230  176.7290  145.1630 N   0  0  0  0  0  0  0  0  0  0  0  0
  189.2100  177.8160  148.5130 C   0  0  0  0  0  3  0  0  0  0  0  0
  186.6530  177.1610  141.9620 O   0  0  0  0  0  0  0  0  0  0  0  0
  188.4950  177.1320  143.5660 C   0  0  0  0  0  0  0  0  0  0  0  0
  185.4280  178.6640  145.0740 N   0  0  0  0  0  0  0  0  0  0  0  0
  191.6040  176.7180  147.8410 Cl  0  0  0  0  0  0  0  0  0  0  0  0
  185.8050  177.7510  142.9020 C   0  0  1  0  0  3  0  0  0  0  0  0
  184.4830  178.0390  142.5610 C   0  0  0  0  0  3  0  0  0  0  0  0
  189.7710  176.6690  143.8870 C   0  0  0  0  0  3  0  0  0  0  0  0
  189.4690  177.2430  146.1710 C   0  0  0  0  0  0  0  0  0  0  0  0
  189.9850  177.2960  147.4760 C   0  0  0  0  0  0  0  0  0  0  0  0
  188.7380  178.2580  141.3160 C   0  0  0  0  0  2  0  0  0  0  0  0
  188.4560  177.5310  137.7340 O   0  0  0  0  0  0  0  0  0  0  0  0
  185.8090  178.4640  138.0990 C   0  0  0  0  0  1  0  0  0  0  0  0
  186.8230  178.4130  139.1390 N   0  0  0  0  0  2  0  0  0  0  0  0
  188.1370  177.9070  138.8950 C   0  0  0  0  0  0  0  0  0  0  0  0
  189.0980  177.8390  139.9640 N   0  0  0  0  0  0  0  0  0  0  0  0
  190.5150  177.6640  139.6700 C   0  0  0  0  0  2  0  0  0  0  0  0
  191.3620  175.7690  138.2410 C   0  0  0  0  0  0  0  0  0  0  0  0
  191.6240  174.4140  138.0960 O   0  0  0  0  0  1  0  0  0  0  0  0
  191.6120  176.5570  137.2900 O   0  0  0  0  0  0  0  0  0  0  0  0
  190.8130  176.2550  139.4640 N   0  0  0  0  0  2  0  0  0  0  0  0
  1 14  1  0  0  0  0
  1  9  2  0  0  0  0
  2  3  1  0  0  0  0
  3 19  2  0  0  0  0
  3  7  1  0  0  0  0
  4 11  1  0  0  0  0
  5  2  1  0  0  0  0
  5 14  2  0  0  0  0
  6  1  1  0  0  0  0
  7  4  2  0  0  0  0
  8 21  1  6  0  0  0
  8 13  1  0  0  0  0
 10 19  1  0  0  0  0
 12  8  1  0  0  0  0
 12 16  1  0  0  0  0
 13 18  1  0  0  0  0
 13  2  2  0  0  0  0
 16 17  1  1  0  0  0
 16  5  1  0  0  0  0
 17  6  2  0  0  0  0
 18 10  2  0  0  0  0
 19 20  1  0  0  0  0
 20 15  1  0  0  0  0
 20 11  2  0  0  0  0
 22 25  2  0  0  0  0
 23 24  1  0  0  0  0
 25 24  1  0  0  0  0
 25 26  1  0  0  0  0
 26 21  1  0  0  0  0
 27 26  1  0  0  0  0
 28 31  1  0  0  0  0
 29 28  1  0  0  0  0
 30 28  2  0  0  0  0
 31 27  1  0  0  0  0
M  END
>  <MODEL>
2

>  <REMARK>
 VINA RESULT:      -9.4      1.145      2.963
  Name = 
  4 active torsions:
  status: ('A' for Active; 'I' for Inactive)
    1  A    between atoms: C_6  and  N_22
    2  A    between atoms: C_6  and  N_24
    3  A    between atoms: C_15  and  C_23
    4  A    between atoms: N_22  and  C_23
                            x       y       z     vdW  Elec       q    Type
                         _______ _______ _______ _____ _____    ______ ____

>  <TORSDO>
F 4

$$$$
=
 OpenBabel10272400393D

 31 34  0  0  1  0  0  0  0  0999 V2000
  190.4600  176.9220  146.0100 C   0  0  0  0  0  0  0  0  0  0  0  0
  187.8060  178.0240  143.5880 C   0  0  0  0  0  0  0  0  0  0  0  0
  186.6180  178.1560  144.3550 C   0  0  0  0  0  0  0  0  0  0  0  0
  185.3920  178.0030  146.4540 C   0  0  0  0  0  3  0  0  0  0  0  0
  189.1260  177.6310  144.1660 C   0  0  0  0  0  0  0  0  0  0  0  0
  191.6240  177.0490  145.2510 C   0  0  0  0  0  3  0  0  0  0  0  0
  186.5740  177.8620  145.7270 C   0  0  0  0  0  3  0  0  0  0  0  0
  188.9460  178.1140  141.3170 C   0  0  2  0  0  3  0  0  0  0  0  0
  190.5280  176.5400  147.2070 O   0  0  0  0  0  0  0  0  0  0  0  0
  185.4470  178.9120  142.3950 N   0  0  0  0  0  0  0  0  0  0  0  0
  184.2310  178.4430  145.8200 C   0  0  0  0  0  3  0  0  0  0  0  0
  190.1830  178.1270  142.0320 O   0  0  0  0  0  0  0  0  0  0  0  0
  187.7550  178.3340  142.2120 C   0  0  0  0  0  0  0  0  0  0  0  0
  189.2520  177.2190  145.4600 N   0  0  0  0  0  0  0  0  0  0  0  0
  182.7590  179.3000  143.7010 Cl  0  0  0  0  0  0  0  0  0  0  0  0
  190.2790  177.7410  143.3700 C   0  0  1  0  0  3  0  0  0  0  0  0
  191.5290  177.4650  143.9250 C   0  0  0  0  0  3  0  0  0  0  0  0
  186.5650  178.7830  141.6410 C   0  0  0  0  0  3  0  0  0  0  0  0
  185.4330  178.6080  143.7200 C   0  0  0  0  0  0  0  0  0  0  0  0
  184.2450  178.7470  144.4580 C   0  0  0  0  0  0  0  0  0  0  0  0
  188.8150  176.8410  140.4690 C   0  0  0  0  0  2  0  0  0  0  0  0
  190.4080  177.2710  137.1950 O   0  0  0  0  0  0  0  0  0  0  0  0
  192.7590  176.6300  138.6350 C   0  0  0  0  0  1  0  0  0  0  0  0
  191.4230  176.6760  139.2040 N   0  0  0  0  0  2  0  0  0  0  0  0
  190.2780  177.0310  138.4260 C   0  0  0  0  0  0  0  0  0  0  0  0
  188.9780  177.1020  139.0410 N   0  0  0  0  0  0  0  0  0  0  0  0
  187.7750  177.1160  138.2180 C   0  0  0  0  0  2  0  0  0  0  0  0
  185.5720  178.3350  138.3330 C   0  0  0  0  0  0  0  0  0  0  0  0
  184.8700  179.4990  138.6130 O   0  0  0  0  0  1  0  0  0  0  0  0
  184.9510  177.3130  137.9350 O   0  0  0  0  0  0  0  0  0  0  0  0
  186.9880  178.3060  138.5000 N   0  0  0  0  0  2  0  0  0  0  0  0
  1  9  2  0  0  0  0
  2  5  1  0  0  0  0
  2  3  1  0  0  0  0
  3  7  1  0  0  0  0
  5 14  2  0  0  0  0
  6  1  1  0  0  0  0
  7  4  2  0  0  0  0
  8 21  1  1  0  0  0
  8 12  1  0  0  0  0
  8 13  1  0  0  0  0
 10 19  1  0  0  0  0
 11  4  1  0  0  0  0
 12 16  1  0  0  0  0
 13  2  2  0  0  0  0
 14  1  1  0  0  0  0
 15 20  1  0  0  0  0
 16 17  1  1  0  0  0
 16  5  1  0  0  0  0
 17  6  2  0  0  0  0
 18 13  1  0  0  0  0
 18 10  2  0  0  0  0
 19  3  2  0  0  0  0
 19 20  1  0  0  0  0
 20 11  2  0  0  0  0
 22 25  2  0  0  0  0
 23 24  1  0  0  0  0
 25 26  1  0  0  0  0
 25 24  1  0  0  0  0
 26 21  1  0  0  0  0
 27 31  1  0  0  0  0
 27 26  1  0  0  0  0
 28 31  1  0  0  0  0
 28 29  1  0  0  0  0
 30 28  2  0  0  0  0
M  END
>  <MODEL>
3

>  <REMARK>
 VINA RESULT:      -9.3      2.681      4.337
  Name = 
  4 active torsions:
  status: ('A' for Active; 'I' for Inactive)
    1  A    between atoms: C_6  and  N_22
    2  A    between atoms: C_6  and  N_24
    3  A    between atoms: C_15  and  C_23
    4  A    between atoms: N_22  and  C_23
                            x       y       z     vdW  Elec       q    Type
                         _______ _______ _______ _____ _____    ______ ____

>  <TORSDO>
F 4

$$$$
=
 OpenBabel10272400393D

 31 34  0  0  1  0  0  0  0  0999 V2000
  190.3140  176.9150  146.2540 C   0  0  0  0  0  0  0  0  0  0  0  0
  187.8070  178.0100  143.6780 C   0  0  0  0  0  0  0  0  0  0  0  0
  186.5800  178.1630  144.3770 C   0  0  0  0  0  0  0  0  0  0  0  0
  185.2400  178.0490  146.4090 C   0  0  0  0  0  3  0  0  0  0  0  0
  189.0890  177.6130  144.3320 C   0  0  0  0  0  0  0  0  0  0  0  0
  191.5190  177.0210  145.5590 C   0  0  0  0  0  3  0  0  0  0  0  0
  186.4590  177.8880  145.7490 C   0  0  0  0  0  3  0  0  0  0  0  0
  189.0680  178.0590  141.4710 C   0  0  2  0  0  3  0  0  0  0  0  0
  190.3130  176.5480  147.4580 O   0  0  0  0  0  0  0  0  0  0  0  0
  185.5240  178.9050  142.3480 N   0  0  0  0  0  0  0  0  0  0  0  0
  184.1200  178.4920  145.7070 C   0  0  0  0  0  3  0  0  0  0  0  0
  190.2650  178.0710  142.2520 O   0  0  0  0  0  0  0  0  0  0  0  0
  187.8340  178.3020  142.2980 C   0  0  0  0  0  0  0  0  0  0  0  0
  189.1410  177.2160  145.6350 N   0  0  0  0  0  0  0  0  0  0  0  0
  182.7740  179.3350  143.5000 Cl  0  0  0  0  0  0  0  0  0  0  0  0
  190.2850  177.7020  143.5990 C   0  0  1  0  0  3  0  0  0  0  0  0
  191.5000  177.4210  144.2240 C   0  0  0  0  0  3  0  0  0  0  0  0
  186.6800  178.7550  141.6570 C   0  0  0  0  0  3  0  0  0  0  0  0
  185.4350  178.6180  143.6730 C   0  0  0  0  0  0  0  0  0  0  0  0
  184.2110  178.7780  144.3440 C   0  0  0  0  0  0  0  0  0  0  0  0
  188.9710  176.7770  140.6330 C   0  0  0  0  0  2  0  0  0  0  0  0
  189.1100  177.5140  137.0450 O   0  0  0  0  0  0  0  0  0  0  0  0
  186.3560  178.0650  137.3970 C   0  0  0  0  0  1  0  0  0  0  0  0
  187.2660  177.6670  138.4580 N   0  0  0  0  0  2  0  0  0  0  0  0
  188.6440  177.3790  138.2090 C   0  0  0  0  0  0  0  0  0  0  0  0
  189.5000  176.9510  139.2830 N   0  0  0  0  0  0  0  0  0  0  0  0
  190.9490  176.9910  139.1300 C   0  0  0  0  0  2  0  0  0  0  0  0
  192.6950  175.5710  137.9960 C   0  0  0  0  0  0  0  0  0  0  0  0
  193.1130  174.3210  137.5620 O   0  0  0  0  0  0  0  0  0  0  0  0
  193.4290  176.5770  137.8000 O   0  0  0  0  0  1  0  0  0  0  0  0
  191.4400  175.7050  138.6580 N   0  0  0  0  0  2  0  0  0  0  0  0
  1  9  2  0  0  0  0
  2  5  1  0  0  0  0
  2  3  1  0  0  0  0
  3  7  1  0  0  0  0
  5 14  2  0  0  0  0
  6  1  1  0  0  0  0
  7  4  2  0  0  0  0
  8 21  1  1  0  0  0
  8 12  1  0  0  0  0
  8 13  1  0  0  0  0
 10 19  1  0  0  0  0
 11  4  1  0  0  0  0
 12 16  1  0  0  0  0
 13  2  2  0  0  0  0
 14  1  1  0  0  0  0
 15 20  1  0  0  0  0
 16 17  1  1  0  0  0
 16  5  1  0  0  0  0
 17  6  2  0  0  0  0
 18 13  1  0  0  0  0
 18 10  2  0  0  0  0
 19 20  1  0  0  0  0
 19  3  2  0  0  0  0
 20 11  2  0  0  0  0
 22 25  2  0  0  0  0
 23 24  1  0  0  0  0
 25 24  1  0  0  0  0
 25 26  1  0  0  0  0
 26 21  1  0  0  0  0
 27 26  1  0  0  0  0
 28 31  1  0  0  0  0
 29 28  2  0  0  0  0
 30 28  1  0  0  0  0
 31 27  1  0  0  0  0
M  END
>  <MODEL>
4

>  <REMARK>
 VINA RESULT:      -9.3      3.017      5.432
  Name = 
  4 active torsions:
  status: ('A' for Active; 'I' for Inactive)
    1  A    between atoms: C_6  and  N_22
    2  A    between atoms: C_6  and  N_24
    3  A    between atoms: C_15  and  C_23
    4  A    between atoms: N_22  and  C_23
                            x       y       z     vdW  Elec       q    Type
                         _______ _______ _______ _____ _____    ______ ____

>  <TORSDO>
F 4

$$$$
=
 OpenBabel10272400393D

 31 34  0  0  1  0  0  0  0  0999 V2000
  190.4570  176.9300  145.6290 C   0  0  0  0  0  0  0  0  0  0  0  0
  187.7570  178.0500  143.2690 C   0  0  0  0  0  0  0  0  0  0  0  0
  186.5800  178.1620  144.0570 C   0  0  0  0  0  0  0  0  0  0  0  0
  185.3900  177.9690  146.1740 C   0  0  0  0  0  3  0  0  0  0  0  0
  189.0880  177.6580  143.8190 C   0  0  0  0  0  0  0  0  0  0  0  0
  191.6080  177.0770  144.8540 C   0  0  0  0  0  3  0  0  0  0  0  0
  186.5610  177.8470  145.4250 C   0  0  0  0  0  3  0  0  0  0  0  0
  188.8570  178.1810  140.9800 C   0  0  2  0  0  3  0  0  0  0  0  0
  190.5480  176.5310  146.8190 O   0  0  0  0  0  0  0  0  0  0  0  0
  185.3710  178.9390  142.1280 N   0  0  0  0  0  0  0  0  0  0  0  0
  184.2160  178.4110  145.5650 C   0  0  0  0  0  3  0  0  0  0  0  0
  190.1060  178.1930  141.6750 O   0  0  0  0  0  0  0  0  0  0  0  0
  187.6800  178.3800  141.8990 C   0  0  0  0  0  0  0  0  0  0  0  0
  189.2390  177.2270  145.1040 N   0  0  0  0  0  0  0  0  0  0  0  0
  182.7040  179.2890  143.4840 Cl  0  0  0  0  0  0  0  0  0  0  0  0
  190.2270  177.7880  143.0050 C   0  0  1  0  0  3  0  0  0  0  0  0
  191.4880  177.5120  143.5350 C   0  0  0  0  0  3  0  0  0  0  0  0
  186.4780  178.8290  141.3540 C   0  0  0  0  0  3  0  0  0  0  0  0
  185.3810  178.6150  143.4480 C   0  0  0  0  0  0  0  0  0  0  0  0
  184.2050  178.7350  144.2080 C   0  0  0  0  0  0  0  0  0  0  0  0
  188.7210  176.9210  140.1160 C   0  0  0  0  0  2  0  0  0  0  0  0
  189.9320  176.7190  136.6610 O   0  0  0  0  0  0  0  0  0  0  0  0
  191.5650  174.6600  137.7140 C   0  0  0  0  0  1  0  0  0  0  0  0
  190.5810  175.4110  138.4750 N   0  0  0  0  0  2  0  0  0  0  0  0
  189.8040  176.4580  137.8890 C   0  0  0  0  0  0  0  0  0  0  0  0
  188.8690  177.2030  138.6900 N   0  0  0  0  0  0  0  0  0  0  0  0
  187.8380  178.0140  138.0550 C   0  0  0  0  0  2  0  0  0  0  0  0
  186.2330  177.0390  136.3750 C   0  0  0  0  0  0  0  0  0  0  0  0
  185.1280  176.2430  136.1090 O   0  0  0  0  0  1  0  0  0  0  0  0
  186.8250  177.6200  135.4260 O   0  0  0  0  0  0  0  0  0  0  0  0
  186.6880  177.1900  137.7180 N   0  0  0  0  0  2  0  0  0  0  0  0
  1  9  2  0  0  0  0
  2  5  1  0  0  0  0
  2  3  1  0  0  0  0
  3  7  1  0  0  0  0
  5 14  2  0  0  0  0
  6  1  1  0  0  0  0
  7  4  2  0  0  0  0
  8 21  1  1  0  0  0
  8 12  1  0  0  0  0
  8 13  1  0  0  0  0
 10 19  1  0  0  0  0
 11  4  1  0  0  0  0
 12 16  1  0  0  0  0
 13  2  2  0  0  0  0
 14  1  1  0  0  0  0
 15 20  1  0  0  0  0
 16 17  1  1  0  0  0
 16  5  1  0  0  0  0
 17  6  2  0  0  0  0
 18 13  1  0  0  0  0
 18 10  2  0  0  0  0
 19  3  2  0  0  0  0
 19 20  1  0  0  0  0
 20 11  2  0  0  0  0
 22 25  2  0  0  0  0
 23 24  1  0  0  0  0
 25 24  1  0  0  0  0
 25 26  1  0  0  0  0
 26 21  1  0  0  0  0
 27 26  1  0  0  0  0
 28 31  1  0  0  0  0
 29 28  1  0  0  0  0
 30 28  2  0  0  0  0
 31 27  1  0  0  0  0
M  END
>  <MODEL>
5

>  <REMARK>
 VINA RESULT:      -8.8      3.071      4.599
  Name = 
  4 active torsions:
  status: ('A' for Active; 'I' for Inactive)
    1  A    between atoms: C_6  and  N_22
    2  A    between atoms: C_6  and  N_24
    3  A    between atoms: C_15  and  C_23
    4  A    between atoms: N_22  and  C_23
                            x       y       z     vdW  Elec       q    Type
                         _______ _______ _______ _____ _____    ______ ____

>  <TORSDO>
F 4

$$$$
=
 OpenBabel10272400393D

 31 34  0  0  1  0  0  0  0  0999 V2000
  189.4740  177.1000  140.2160 C   0  0  0  0  0  0  0  0  0  0  0  0
  186.6430  178.2520  142.4010 C   0  0  0  0  0  0  0  0  0  0  0  0
  187.0740  178.0320  143.7360 C   0  0  0  0  0  0  0  0  0  0  0  0
  188.7160  177.2540  145.3590 C   0  0  0  0  0  3  0  0  0  0  0  0
  187.4810  177.9600  141.2010 C   0  0  0  0  0  0  0  0  0  0  0  0
  189.0850  177.5640  138.9580 C   0  0  0  0  0  3  0  0  0  0  0  0
  188.3180  177.4550  144.0370 C   0  0  0  0  0  3  0  0  0  0  0  0
  184.8040  178.9920  140.8080 C   0  0  2  0  0  3  0  0  0  0  0  0
  190.5670  176.4920  140.3510 O   0  0  0  0  0  0  0  0  0  0  0  0
  185.0220  178.9880  144.5490 N   0  0  0  0  0  0  0  0  0  0  0  0
  187.8740  177.6290  146.4060 C   0  0  0  0  0  3  0  0  0  0  0  0
  185.8160  179.0500  139.8010 O   0  0  0  0  0  0  0  0  0  0  0  0
  185.3720  178.8300  142.1930 C   0  0  0  0  0  0  0  0  0  0  0  0
  188.6760  177.3120  141.2970 N   0  0  0  0  0  0  0  0  0  0  0  0
  185.6070  178.6670  147.4870 Cl  0  0  0  0  0  0  0  0  0  0  0  0
  187.0510  178.4140  139.9420 C   0  0  1  0  0  3  0  0  0  0  0  0
  187.8670  178.2270  138.8260 C   0  0  0  0  0  3  0  0  0  0  0  0
  184.5840  179.1960  143.2840 C   0  0  0  0  0  3  0  0  0  0  0  0
  186.2270  178.4150  144.8080 C   0  0  0  0  0  0  0  0  0  0  0  0
  186.6340  178.2090  146.1380 C   0  0  0  0  0  0  0  0  0  0  0  0
  183.7570  177.9200  140.4740 C   0  0  0  0  0  2  0  0  0  0  0  0
  181.7070  178.6980  137.5360 O   0  0  0  0  0  0  0  0  0  0  0  0
  183.7400  177.2810  136.1660 C   0  0  0  0  0  1  0  0  0  0  0  0
  183.6940  177.4840  137.6040 N   0  0  0  0  0  2  0  0  0  0  0  0
  182.6500  178.2320  138.2330 C   0  0  0  0  0  0  0  0  0  0  0  0
  182.6650  178.4410  139.6570 N   0  0  0  0  0  0  0  0  0  0  0  0
  181.4610  178.8850  140.3480 C   0  0  0  0  0  2  0  0  0  0  0  0
  180.8990  179.1740  142.7880 C   0  0  0  0  0  0  0  0  0  0  0  0
  180.9410  178.6800  144.0840 O   0  0  0  0  0  1  0  0  0  0  0  0
  180.3570  180.2890  142.5620 O   0  0  0  0  0  0  0  0  0  0  0  0
  181.4710  178.4150  141.7250 N   0  0  0  0  0  2  0  0  0  0  0  0
  1  9  2  0  0  0  0
  1 14  1  0  0  0  0
  2  3  1  0  0  0  0
  3  7  2  0  0  0  0
  3 19  1  0  0  0  0
  4 11  2  0  0  0  0
  5 14  2  0  0  0  0
  5  2  1  0  0  0  0
  6  1  1  0  0  0  0
  7  4  1  0  0  0  0
  8 21  1  6  0  0  0
  8 13  1  0  0  0  0
 10 19  1  0  0  0  0
 12 16  1  0  0  0  0
 12  8  1  0  0  0  0
 13  2  2  0  0  0  0
 13 18  1  0  0  0  0
 16 17  1  1  0  0  0
 16  5  1  0  0  0  0
 17  6  2  0  0  0  0
 18 10  2  0  0  0  0
 19 20  2  0  0  0  0
 20 11  1  0  0  0  0
 20 15  1  0  0  0  0
 22 25  2  0  0  0  0
 23 24  1  0  0  0  0
 24 25  1  0  0  0  0
 25 26  1  0  0  0  0
 26 27  1  0  0  0  0
 26 21  1  0  0  0  0
 27 31  1  0  0  0  0
 28 29  1  0  0  0  0
 30 28  2  0  0  0  0
 31 28  1  0  0  0  0
M  END
>  <MODEL>
6

>  <REMARK>
 VINA RESULT:      -8.8      2.644      5.913
  Name = 
  4 active torsions:
  status: ('A' for Active; 'I' for Inactive)
    1  A    between atoms: C_6  and  N_22
    2  A    between atoms: C_6  and  N_24
    3  A    between atoms: C_15  and  C_23
    4  A    between atoms: N_22  and  C_23
                            x       y       z     vdW  Elec       q    Type
                         _______ _______ _______ _____ _____    ______ ____

>  <TORSDO>
F 4

$$$$
=
 OpenBabel10272400393D

 31 34  0  0  1  0  0  0  0  0999 V2000
  189.9080  177.0730  145.1370 C   0  0  0  0  0  0  0  0  0  0  0  0
  188.5260  177.8850  141.7390 C   0  0  0  0  0  0  0  0  0  0  0  0
  187.1530  178.1860  141.9440 C   0  0  0  0  0  0  0  0  0  0  0  0
  185.2010  178.4200  143.3830 C   0  0  0  0  0  3  0  0  0  0  0  0
  189.4720  177.5350  142.8400 C   0  0  0  0  0  0  0  0  0  0  0  0
  191.2820  177.0290  144.8950 C   0  0  0  0  0  3  0  0  0  0  0  0
  186.5520  178.1160  143.2110 C   0  0  0  0  0  3  0  0  0  0  0  0
  190.4590  177.5660  140.1170 C   0  0  2  0  0  3  0  0  0  0  0  0
  189.4690  176.8830  146.3000 O   0  0  0  0  0  0  0  0  0  0  0  0
  186.9150  178.6700  139.6000 N   0  0  0  0  0  0  0  0  0  0  0  0
  184.4270  178.8010  142.2870 C   0  0  0  0  0  3  0  0  0  0  0  0
  191.3170  177.6420  141.2570 O   0  0  0  0  0  0  0  0  0  0  0  0
  189.0430  177.9740  140.4280 C   0  0  0  0  0  0  0  0  0  0  0  0
  189.0450  177.3290  144.1180 N   0  0  0  0  0  0  0  0  0  0  0  0
  183.9860  179.3710  139.6660 Cl  0  0  0  0  0  0  0  0  0  0  0  0
  190.8480  177.4700  142.5610 C   0  0  1  0  0  3  0  0  0  0  0  0
  191.7510  177.2330  143.5980 C   0  0  0  0  0  3  0  0  0  0  0  0
  188.2190  178.3760  139.3770 C   0  0  0  0  0  3  0  0  0  0  0  0
  186.3580  178.5800  140.8370 C   0  0  0  0  0  0  0  0  0  0  0  0
  184.9980  178.8840  141.0170 C   0  0  0  0  0  0  0  0  0  0  0  0
  190.5390  176.1810  139.4600 C   0  0  0  0  0  2  0  0  0  0  0  0
  191.1590  176.2180  135.8470 O   0  0  0  0  0  0  0  0  0  0  0  0
  188.3320  176.1650  135.7050 C   0  0  0  0  0  1  0  0  0  0  0  0
  189.1020  176.2070  136.9370 N   0  0  0  0  0  2  0  0  0  0  0  0
  190.5310  176.2070  136.9410 C   0  0  0  0  0  0  0  0  0  0  0  0
  191.2530  176.2090  138.1860 N   0  0  0  0  0  0  0  0  0  0  0  0
  192.6680  176.5570  138.2160 C   0  0  0  0  0  2  0  0  0  0  0  0
  194.4720  175.3690  136.9190 C   0  0  0  0  0  0  0  0  0  0  0  0
  195.2160  174.2180  136.6970 O   0  0  0  0  0  1  0  0  0  0  0  0
  194.6810  176.3920  136.2130 O   0  0  0  0  0  0  0  0  0  0  0  0
  193.4800  175.3820  137.9430 N   0  0  0  0  0  2  0  0  0  0  0  0
  1  9  2  0  0  0  0
  2  3  1  0  0  0  0
  2  5  1  0  0  0  0
  3  7  1  0  0  0  0
  5 14  2  0  0  0  0
  6  1  1  0  0  0  0
  7  4  2  0  0  0  0
  8 21  1  1  0  0  0
  8 13  1  0  0  0  0
  8 12  1  0  0  0  0
 10 19  1  0  0  0  0
 11  4  1  0  0  0  0
 12 16  1  0  0  0  0
 13  2  2  0  0  0  0
 14  1  1  0  0  0  0
 15 20  1  0  0  0  0
 16  5  1  0  0  0  0
 16 17  1  1  0  0  0
 17  6  2  0  0  0  0
 18 10  2  0  0  0  0
 18 13  1  0  0  0  0
 19 20  1  0  0  0  0
 19  3  2  0  0  0  0
 20 11  2  0  0  0  0
 22 25  2  0  0  0  0
 23 24  1  0  0  0  0
 24 25  1  0  0  0  0
 25 26  1  0  0  0  0
 26 27  1  0  0  0  0
 26 21  1  0  0  0  0
 28 31  1  0  0  0  0
 29 28  1  0  0  0  0
 30 28  2  0  0  0  0
 31 27  1  0  0  0  0
M  END
>  <MODEL>
7

>  <REMARK>
 VINA RESULT:      -8.6      3.600      6.308
  Name = 
  4 active torsions:
  status: ('A' for Active; 'I' for Inactive)
    1  A    between atoms: C_6  and  N_22
    2  A    between atoms: C_6  and  N_24
    3  A    between atoms: C_15  and  C_23
    4  A    between atoms: N_22  and  C_23
                            x       y       z     vdW  Elec       q    Type
                         _______ _______ _______ _____ _____    ______ ____

>  <TORSDO>
F 4

$$$$
=
 OpenBabel10272400393D

 31 34  0  0  1  0  0  0  0  0999 V2000
  185.6680  177.9350  146.4140 C   0  0  0  0  0  0  0  0  0  0  0  0
  186.1320  178.3500  142.7080 C   0  0  0  0  0  0  0  0  0  0  0  0
  184.8280  178.5330  142.1760 C   0  0  0  0  0  0  0  0  0  0  0  0
  182.4100  178.6890  142.4300 C   0  0  0  0  0  3  0  0  0  0  0  0
  186.4160  178.1770  144.1630 C   0  0  0  0  0  0  0  0  0  0  0  0
  186.9790  178.0050  146.8860 C   0  0  0  0  0  3  0  0  0  0  0  0
  183.6780  178.5030  142.9810 C   0  0  0  0  0  3  0  0  0  0  0  0
  188.6280  178.0940  142.2960 C   0  0  2  0  0  3  0  0  0  0  0  0
  184.7160  177.7940  147.2230 O   0  0  0  0  0  0  0  0  0  0  0  0
  185.7700  178.8120  139.9810 N   0  0  0  0  0  0  0  0  0  0  0  0
  182.2700  178.9100  141.0610 C   0  0  0  0  0  3  0  0  0  0  0  0
  188.7980  178.3380  143.6940 O   0  0  0  0  0  0  0  0  0  0  0  0
  187.2290  178.3880  141.8210 C   0  0  0  0  0  0  0  0  0  0  0  0
  185.4180  178.0290  145.0800 N   0  0  0  0  0  0  0  0  0  0  0  0
  183.1710  179.2330  138.5170 Cl  0  0  0  0  0  0  0  0  0  0  0  0
  187.7490  178.2220  144.6080 C   0  0  1  0  0  3  0  0  0  0  0  0
  188.0230  178.1520  145.9740 C   0  0  0  0  0  3  0  0  0  0  0  0
  187.0230  178.6270  140.4630 C   0  0  0  0  0  3  0  0  0  0  0  0
  184.6750  178.7640  140.7840 C   0  0  0  0  0  0  0  0  0  0  0  0
  183.3940  178.9500  140.2360 C   0  0  0  0  0  0  0  0  0  0  0  0
  189.0870  176.6770  141.9260 C   0  0  0  0  0  2  0  0  0  0  0  0
  191.6370  176.6020  139.2930 O   0  0  0  0  0  0  0  0  0  0  0  0
  189.3820  176.5370  137.5820 C   0  0  0  0  0  1  0  0  0  0  0  0
  189.3240  176.6190  139.0320 N   0  0  0  0  0  2  0  0  0  0  0  0
  190.5020  176.6240  139.8420 C   0  0  0  0  0  0  0  0  0  0  0  0
  190.3950  176.6660  141.2760 N   0  0  0  0  0  0  0  0  0  0  0  0
  191.5520  177.0200  142.0900 C   0  0  0  0  0  2  0  0  0  0  0  0
  191.6470  176.9670  144.6080 C   0  0  0  0  0  0  0  0  0  0  0  0
  191.6090  176.2310  145.7840 O   0  0  0  0  0  1  0  0  0  0  0  0
  191.7990  178.2160  144.6580 O   0  0  0  0  0  0  0  0  0  0  0  0
  191.5150  176.3000  143.3530 N   0  0  0  0  0  2  0  0  0  0  0  0
  1  6  1  0  0  0  0
  1  9  2  0  0  0  0
  2  5  1  0  0  0  0
  3  2  1  0  0  0  0
  3  7  1  0  0  0  0
  4  7  2  0  0  0  0
  5 16  1  0  0  0  0
  5 14  2  0  0  0  0
  8 21  1  1  0  0  0
  8 12  1  0  0  0  0
 10 18  2  0  0  0  0
 10 19  1  0  0  0  0
 11  4  1  0  0  0  0
 12 16  1  0  0  0  0
 13  8  1  0  0  0  0
 13  2  2  0  0  0  0
 14  1  1  0  0  0  0
 15 20  1  0  0  0  0
 16 17  1  1  0  0  0
 17  6  2  0  0  0  0
 18 13  1  0  0  0  0
 19  3  2  0  0  0  0
 20 19  1  0  0  0  0
 20 11  2  0  0  0  0
 22 25  2  0  0  0  0
 23 24  1  0  0  0  0
 24 25  1  0  0  0  0
 25 26  1  0  0  0  0
 26 21  1  0  0  0  0
 26 27  1  0  0  0  0
 27 31  1  0  0  0  0
 28 30  2  0  0  0  0
 28 29  1  0  0  0  0
 31 28  1  0  0  0  0
M  END
>  <MODEL>
8

>  <REMARK>
 VINA RESULT:      -8.6      3.248      5.895
  Name = 
  4 active torsions:
  status: ('A' for Active; 'I' for Inactive)
    1  A    between atoms: C_6  and  N_22
    2  A    between atoms: C_6  and  N_24
    3  A    between atoms: C_15  and  C_23
    4  A    between atoms: N_22  and  C_23
                            x       y       z     vdW  Elec       q    Type
                         _______ _______ _______ _____ _____    ______ ____

>  <TORSDO>
F 4

$$$$
=
 OpenBabel10272400393D

 31 34  0  0  1  0  0  0  0  0999 V2000
  191.0810  176.6970  143.7010 C   0  0  0  0  0  0  0  0  0  0  0  0
  187.8550  177.9370  142.2270 C   0  0  0  0  0  0  0  0  0  0  0  0
  186.9350  177.9920  143.3080 C   0  0  0  0  0  0  0  0  0  0  0  0
  186.3570  177.6630  145.6520 C   0  0  0  0  0  3  0  0  0  0  0  0
  189.2820  177.5230  142.3730 C   0  0  0  0  0  0  0  0  0  0  0  0
  191.9820  176.8980  142.6540 C   0  0  0  0  0  3  0  0  0  0  0  0
  187.2830  177.5960  144.6090 C   0  0  0  0  0  3  0  0  0  0  0  0
  188.2990  178.2150  139.7390 C   0  0  2  0  0  3  0  0  0  0  0  0
  191.4850  176.2270  144.7950 O   0  0  0  0  0  0  0  0  0  0  0  0
  185.2590  178.8770  141.8270 N   0  0  0  0  0  0  0  0  0  0  0  0
  185.0670  178.1320  145.4100 C   0  0  0  0  0  3  0  0  0  0  0  0
  189.6890  178.1940  140.0700 O   0  0  0  0  0  0  0  0  0  0  0  0
  187.4150  178.3490  140.9500 C   0  0  0  0  0  0  0  0  0  0  0  0
  189.7680  177.0160  143.5410 N   0  0  0  0  0  0  0  0  0  0  0  0
  183.0580  179.1240  143.8700 Cl  0  0  0  0  0  0  0  0  0  0  0  0
  190.1610  177.7100  141.2920 C   0  0  1  0  0  3  0  0  0  0  0  0
  191.5150  177.4120  141.4450 C   0  0  0  0  0  3  0  0  0  0  0  0
  186.1150  178.8210  140.7780 C   0  0  0  0  0  3  0  0  0  0  0  0
  185.6210  178.4730  143.0730 C   0  0  0  0  0  0  0  0  0  0  0  0
  184.6940  178.5380  144.1280 C   0  0  0  0  0  0  0  0  0  0  0  0
  187.9240  177.0090  138.8680 C   0  0  0  0  0  2  0  0  0  0  0  0
  186.3640  177.7520  135.6350 O   0  0  0  0  0  0  0  0  0  0  0  0
  183.9670  177.2880  137.0690 C   0  0  0  0  0  1  0  0  0  0  0  0
  185.3010  177.2390  137.6430 N   0  0  0  0  0  2  0  0  0  0  0  0
  186.4750  177.4590  136.8570 C   0  0  0  0  0  0  0  0  0  0  0  0
  187.7790  177.3610  137.4580 N   0  0  0  0  0  0  0  0  0  0  0  0
  188.9450  177.9130  136.7810 C   0  0  0  0  0  2  0  0  0  0  0  0
  190.8770  176.3020  136.6270 C   0  0  0  0  0  0  0  0  0  0  0  0
  191.5360  175.2980  135.9310 O   0  0  0  0  0  0  0  0  0  0  0  0
  191.3470  176.7140  137.7210 O   0  0  0  0  0  1  0  0  0  0  0  0
  189.6750  176.8570  136.0970 N   0  0  0  0  0  2  0  0  0  0  0  0
  1  9  2  0  0  0  0
  2  5  1  0  0  0  0
  2  3  1  0  0  0  0
  3  7  1  0  0  0  0
  5 14  2  0  0  0  0
  6  1  1  0  0  0  0
  7  4  2  0  0  0  0
  8 21  1  1  0  0  0
  8 12  1  0  0  0  0
  8 13  1  0  0  0  0
 10 19  1  0  0  0  0
 11  4  1  0  0  0  0
 12 16  1  0  0  0  0
 13  2  2  0  0  0  0
 14  1  1  0  0  0  0
 15 20  1  0  0  0  0
 16 17  1  1  0  0  0
 16  5  1  0  0  0  0
 17  6  2  0  0  0  0
 18 13  1  0  0  0  0
 18 10  2  0  0  0  0
 19  3  2  0  0  0  0
 19 20  1  0  0  0  0
 20 11  2  0  0  0  0
 22 25  2  0  0  0  0
 23 24  1  0  0  0  0
 25 26  1  0  0  0  0
 25 24  1  0  0  0  0
 26 21  1  0  0  0  0
 27 26  1  0  0  0  0
 28 30  1  0  0  0  0
 29 28  2  0  0  0  0
 31 28  1  0  0  0  0
 31 27  1  0  0  0  0
M  END
>  <MODEL>
9

>  <REMARK>
 VINA RESULT:      -8.5      3.189      5.664
  Name = 
  4 active torsions:
  status: ('A' for Active; 'I' for Inactive)
    1  A    between atoms: C_6  and  N_22
    2  A    between atoms: C_6  and  N_24
    3  A    between atoms: C_15  and  C_23
    4  A    between atoms: N_22  and  C_23
                            x       y       z     vdW  Elec       q    Type
                         _______ _______ _______ _____ _____    ______ ____

>  <TORSDO>
F 4

$$$$
