=
 OpenBabel10272413393D

 32 32  0  0  1  0  0  0  0  0999 V2000
  185.4270  179.1580  141.1160 C   0  0  2  0  0  3  0  0  0  0  0  0
  184.9440  179.0340  139.6670 C   0  0  1  0  0  3  0  0  0  0  0  0
  184.2990  180.2040  139.2550 O   0  0  0  0  0  0  0  0  0  0  0  0
  183.1630  179.7680  138.5710 C   0  0  0  0  0  2  0  0  0  0  0  0
  182.1320  180.8770  138.5520 C   0  0  0  0  0  1  0  0  0  0  0  0
  186.0770  178.7670  138.7940 N   0  0  0  0  0  2  0  0  0  0  0  0
  185.7140  177.6520  137.9330 C   0  0  0  0  0  2  0  0  0  0  0  0
  188.1800  177.7290  137.6860 C   0  0  1  0  0  3  0  0  0  0  0  0
  188.5120  176.3470  137.9870 N   0  0  0  0  0  2  0  0  0  0  0  0
  187.3060  175.8890  137.4170 N   0  0  0  0  0  2  0  0  0  0  0  0
  189.1030  178.2480  136.6010 C   0  0  0  0  0  1  0  0  0  0  0  0
  186.9030  177.2430  137.0760 C   0  0  1  0  0  3  0  0  0  0  0  0
  186.9400  178.9400  141.2930 C   0  0  0  0  0  2  0  0  0  0  0  0
  187.2270  177.8170  142.1710 N   0  0  0  0  0  2  0  0  0  0  0  0
  188.5280  177.3050  141.7820 C   0  0  0  0  0  2  0  0  0  0  0  0
  188.8800  176.2480  142.6200 O   0  0  0  0  0  0  0  0  0  0  0  0
  190.2610  176.1280  142.4710 C   0  0  0  0  0  1  0  0  0  0  0  0
  184.5520  178.4480  142.0710 N   0  0  0  0  0  0  0  0  0  0  0  0
  183.3050  178.0250  141.4240 C   0  0  0  0  0  2  0  0  0  0  0  0
  182.0750  178.7720  141.9340 C   0  0  0  0  0  1  0  0  0  0  0  0
  184.2920  179.1960  143.3030 C   0  0  0  0  0  2  0  0  0  0  0  0
  184.3970  178.2840  144.5200 C   0  0  0  0  0  2  0  0  0  0  0  0
  185.5060  178.7370  145.4560 C   0  0  0  0  0  2  0  0  0  0  0  0
  186.1790  177.5380  146.1040 C   0  0  0  0  0  2  0  0  0  0  0  0
  187.2000  177.9870  147.0960 C   0  0  0  0  0  0  0  0  0  0  0  0
  186.9980  178.9770  147.7820 O   0  0  0  0  0  0  0  0  0  0  0  0
  188.4720  177.2220  147.2490 C   0  0  0  0  0  2  0  0  0  0  0  0
  189.3130  177.3560  146.0180 C   0  0  0  0  0  0  0  0  0  0  0  0
  189.0330  178.2530  145.1810 O   0  0  0  0  0  0  0  0  0  0  0  0
  190.4150  176.5290  145.7880 O   0  0  0  0  0  0  0  0  0  0  0  0
  191.7200  176.8590  146.2380 C   0  0  0  0  0  2  0  0  0  0  0  0
  192.2170  175.7110  147.5500 S   0  0  0  0  0  1  0  0  0  0  0  0
  1 13  1  6  0  0  0
  1 18  1  0  0  0  0
  2  6  1  6  0  0  0
  2  1  1  0  0  0  0
  3  2  1  0  0  0  0
  4  3  1  0  0  0  0
  5  4  1  0  0  0  0
  7  6  1  0  0  0  0
  8 11  1  6  0  0  0
  8  9  1  0  0  0  0
 10  9  1  0  0  0  0
 12 10  1  0  0  0  0
 12  8  1  0  0  0  0
 12  7  1  1  0  0  0
 13 14  1  0  0  0  0
 15 14  1  0  0  0  0
 15 16  1  0  0  0  0
 17 16  1  0  0  0  0
 18 21  1  0  0  0  0
 19 20  1  0  0  0  0
 19 18  1  0  0  0  0
 21 22  1  0  0  0  0
 22 23  1  0  0  0  0
 23 24  1  0  0  0  0
 24 25  1  0  0  0  0
 25 27  1  0  0  0  0
 25 26  2  0  0  0  0
 28 27  1  0  0  0  0
 29 28  2  0  0  0  0
 30 28  1  0  0  0  0
 30 31  1  0  0  0  0
 31 32  1  0  0  0  0
M  END
>  <MODEL>
1

>  <REMARK>
 VINA RESULT:      -5.6      0.000      0.000
  Name = 
  21 active torsions:
  status: ('A' for Active; 'I' for Inactive)
    1  A    between atoms: C_1  and  O_20
    2  A    between atoms: C_2  and  C_9
    3  A    between atoms: C_2  and  C_23
    4  A    between atoms: C_3  and  N_14
    5  A    between atoms: C_4  and  O_5
    6  A    between atoms: C_4  and  N_13
    7  A    between atoms: C_6  and  O_31
    8  A    between atoms: C_7  and  N_27
    9  A    between atoms: C_7  and  C_32
   10  A    between atoms: C_8  and  C_23
   11  A    between atoms: C_8  and  C_28
   12  A    between atoms: C_9  and  C_10
   13  A    between atoms: C_10  and  C_19
   14  A    between atoms: N_13  and  C_15
   15  A    between atoms: N_14  and  C_26
   16  A    between atoms: N_14  and  C_28
   17  A    between atoms: C_15  and  C_26
   18  A    between atoms: C_16  and  C_26
   19  A    between atoms: C_16  and  N_27
   20  A    between atoms: C_16  and  O_31
   21  A    between atoms: C_19  and  O_20
                            x       y       z     vdW  Elec       q    Type
                         _______ _______ _______ _____ _____    ______ ____

>  <TORSDO>
F 21

$$$$
=
 OpenBabel10272413393D

 32 32  0  0  1  0  0  0  0  0999 V2000
  188.6860  177.7790  140.8080 C   0  0  2  0  0  3  0  0  0  0  0  0
  189.3510  177.8010  139.4270 C   0  0  1  0  0  3  0  0  0  0  0  0
  189.0460  176.6420  138.7080 O   0  0  0  0  0  0  0  0  0  0  0  0
  190.2780  176.0340  138.4620 C   0  0  0  0  0  2  0  0  0  0  0  0
  190.1150  174.9850  137.3830 C   0  0  0  0  0  1  0  0  0  0  0  0
  188.9000  178.9700  138.6850 N   0  0  0  0  0  2  0  0  0  0  0  0
  189.0120  178.6590  137.2680 C   0  0  0  0  0  2  0  0  0  0  0  0
  187.2010  177.6490  135.9100 C   0  0  1  0  0  3  0  0  0  0  0  0
  186.1430  177.5800  136.9030 N   0  0  0  0  0  2  0  0  0  0  0  0
  186.5980  178.7580  137.5310 N   0  0  0  0  0  2  0  0  0  0  0  0
  186.6060  177.9800  134.5550 C   0  0  0  0  0  1  0  0  0  0  0  0
  187.6800  178.9020  136.5720 C   0  0  1  0  0  3  0  0  0  0  0  0
  187.6030  178.8550  140.9990 C   0  0  0  0  0  2  0  0  0  0  0  0
  186.4620  178.3490  141.7460 N   0  0  0  0  0  2  0  0  0  0  0  0
  185.2730  178.8340  141.0720 C   0  0  0  0  0  2  0  0  0  0  0  0
  184.1480  178.5280  141.8360 O   0  0  0  0  0  0  0  0  0  0  0  0
  183.0950  178.5240  140.9230 C   0  0  0  0  0  1  0  0  0  0  0  0
  189.6600  177.6350  141.9080 N   0  0  0  0  0  0  0  0  0  0  0  0
  191.0340  177.6300  141.3920 C   0  0  0  0  0  2  0  0  0  0  0  0
  192.0360  176.9790  142.3440 C   0  0  0  0  0  1  0  0  0  0  0  0
  189.4070  176.4820  142.7750 C   0  0  0  0  0  2  0  0  0  0  0  0
  188.7310  176.9190  144.0690 C   0  0  0  0  0  2  0  0  0  0  0  0
  189.6560  177.7850  144.9100 C   0  0  0  0  0  2  0  0  0  0  0  0
  190.5300  176.9190  145.8020 C   0  0  0  0  0  2  0  0  0  0  0  0
  190.0860  177.0200  147.2240 C   0  0  0  0  0  0  0  0  0  0  0  0
  190.8450  177.4560  148.0760 O   0  0  0  0  0  0  0  0  0  0  0  0
  188.7090  176.5860  147.6030 C   0  0  0  0  0  2  0  0  0  0  0  0
  187.8620  177.7720  147.9440 C   0  0  0  0  0  0  0  0  0  0  0  0
  187.8550  178.1980  149.1280 O   0  0  0  0  0  0  0  0  0  0  0  0
  187.1010  178.4330  146.9780 O   0  0  0  0  0  0  0  0  0  0  0  0
  185.6830  178.3740  146.9560 C   0  0  0  0  0  2  0  0  0  0  0  0
  185.0750  178.9950  145.3650 S   0  0  0  0  0  1  0  0  0  0  0  0
  1 13  1  1  0  0  0
  1 18  1  0  0  0  0
  2  6  1  6  0  0  0
  2  1  1  0  0  0  0
  3  2  1  0  0  0  0
  4  3  1  0  0  0  0
  5  4  1  0  0  0  0
  7  6  1  0  0  0  0
  8 11  1  6  0  0  0
  8 12  1  0  0  0  0
  8  9  1  0  0  0  0
  9 10  1  0  0  0  0
 12  7  1  1  0  0  0
 12 10  1  0  0  0  0
 13 14  1  0  0  0  0
 15 14  1  0  0  0  0
 15 16  1  0  0  0  0
 17 16  1  0  0  0  0
 18 21  1  0  0  0  0
 19 18  1  0  0  0  0
 19 20  1  0  0  0  0
 21 22  1  0  0  0  0
 22 23  1  0  0  0  0
 23 24  1  0  0  0  0
 24 25  1  0  0  0  0
 25 27  1  0  0  0  0
 25 26  2  0  0  0  0
 27 28  1  0  0  0  0
 28 29  2  0  0  0  0
 30 28  1  0  0  0  0
 31 30  1  0  0  0  0
 32 31  1  0  0  0  0
M  END
>  <MODEL>
2

>  <REMARK>
 VINA RESULT:      -5.4      2.399      5.140
  Name = 
  21 active torsions:
  status: ('A' for Active; 'I' for Inactive)
    1  A    between atoms: C_1  and  O_20
    2  A    between atoms: C_2  and  C_9
    3  A    between atoms: C_2  and  C_23
    4  A    between atoms: C_3  and  N_14
    5  A    between atoms: C_4  and  O_5
    6  A    between atoms: C_4  and  N_13
    7  A    between atoms: C_6  and  O_31
    8  A    between atoms: C_7  and  N_27
    9  A    between atoms: C_7  and  C_32
   10  A    between atoms: C_8  and  C_23
   11  A    between atoms: C_8  and  C_28
   12  A    between atoms: C_9  and  C_10
   13  A    between atoms: C_10  and  C_19
   14  A    between atoms: N_13  and  C_15
   15  A    between atoms: N_14  and  C_26
   16  A    between atoms: N_14  and  C_28
   17  A    between atoms: C_15  and  C_26
   18  A    between atoms: C_16  and  C_26
   19  A    between atoms: C_16  and  N_27
   20  A    between atoms: C_16  and  O_31
   21  A    between atoms: C_19  and  O_20
                            x       y       z     vdW  Elec       q    Type
                         _______ _______ _______ _____ _____    ______ ____

>  <TORSDO>
F 21

$$$$
=
 OpenBabel10272413393D

 32 32  0  0  1  0  0  0  0  0999 V2000
  187.4270  178.2900  140.8780 C   0  0  2  0  0  3  0  0  0  0  0  0
  187.7430  177.7370  139.4840 C   0  0  1  0  0  3  0  0  0  0  0  0
  187.9780  178.7740  138.5760 O   0  0  0  0  0  0  0  0  0  0  0  0
  187.2000  178.4600  137.4600 C   0  0  0  0  0  2  0  0  0  0  0  0
  187.9960  178.7330  136.2010 C   0  0  0  0  0  1  0  0  0  0  0  0
  188.9130  176.8740  139.5530 N   0  0  0  0  0  2  0  0  0  0  0  0
  190.0340  177.6090  138.9890 C   0  0  0  0  0  2  0  0  0  0  0  0
  191.9130  176.1540  138.2810 C   0  0  1  0  0  3  0  0  0  0  0  0
  191.2220  174.8800  138.1700 N   0  0  0  0  0  2  0  0  0  0  0  0
  190.0310  175.5130  137.7590 N   0  0  0  0  0  2  0  0  0  0  0  0
  192.9590  176.2610  137.1890 C   0  0  0  0  0  1  0  0  0  0  0  0
  190.6500  176.8250  137.8390 C   0  0  1  0  0  3  0  0  0  0  0  0
  188.2640  177.6630  142.0060 C   0  0  0  0  0  2  0  0  0  0  0  0
  189.3690  178.5220  142.4020 N   0  0  0  0  0  2  0  0  0  0  0  0
  190.4980  177.6510  142.6740 C   0  0  0  0  0  2  0  0  0  0  0  0
  191.5420  178.4000  143.2140 O   0  0  0  0  0  0  0  0  0  0  0  0
  190.9110  179.3750  143.9850 C   0  0  0  0  0  1  0  0  0  0  0  0
  185.9760  178.4030  141.1310 N   0  0  0  0  0  0  0  0  0  0  0  0
  185.3040  179.0940  140.0240 C   0  0  0  0  0  2  0  0  0  0  0  0
  184.1160  178.3190  139.4580 C   0  0  0  0  0  1  0  0  0  0  0  0
  185.6470  179.0100  142.4220 C   0  0  0  0  0  2  0  0  0  0  0  0
  184.4310  178.3310  143.0410 C   0  0  0  0  0  2  0  0  0  0  0  0
  184.0660  178.9630  144.3760 C   0  0  0  0  0  2  0  0  0  0  0  0
  185.3190  179.3290  145.1530 C   0  0  0  0  0  2  0  0  0  0  0  0
  185.5350  178.3690  146.2760 C   0  0  0  0  0  0  0  0  0  0  0  0
  184.7610  178.3430  147.2200 O   0  0  0  0  0  0  0  0  0  0  0  0
  186.7030  177.4410  146.2440 C   0  0  0  0  0  2  0  0  0  0  0  0
  187.7970  177.9460  147.1320 C   0  0  0  0  0  0  0  0  0  0  0  0
  187.5090  178.3410  148.2920 O   0  0  0  0  0  0  0  0  0  0  0  0
  189.1300  177.9650  146.7170 O   0  0  0  0  0  0  0  0  0  0  0  0
  189.7930  176.8060  146.2350 C   0  0  0  0  0  2  0  0  0  0  0  0
  191.3480  176.5770  147.1400 S   0  0  0  0  0  1  0  0  0  0  0  0
  1 18  1  0  0  0  0
  1 13  1  1  0  0  0
  2  3  1  6  0  0  0
  2  6  1  0  0  0  0
  2  1  1  0  0  0  0
  4  3  1  0  0  0  0
  5  4  1  0  0  0  0
  7  6  1  0  0  0  0
  8 11  1  6  0  0  0
  9  8  1  0  0  0  0
 10 12  1  0  0  0  0
 10  9  1  0  0  0  0
 12  8  1  0  0  0  0
 12  7  1  1  0  0  0
 13 14  1  0  0  0  0
 14 15  1  0  0  0  0
 15 16  1  0  0  0  0
 16 17  1  0  0  0  0
 18 21  1  0  0  0  0
 19 18  1  0  0  0  0
 20 19  1  0  0  0  0
 21 22  1  0  0  0  0
 22 23  1  0  0  0  0
 23 24  1  0  0  0  0
 24 25  1  0  0  0  0
 25 26  2  0  0  0  0
 27 25  1  0  0  0  0
 27 28  1  0  0  0  0
 28 29  2  0  0  0  0
 30 28  1  0  0  0  0
 31 30  1  0  0  0  0
 31 32  1  0  0  0  0
M  END
>  <MODEL>
3

>  <REMARK>
 VINA RESULT:      -5.1      2.046      3.093
  Name = 
  21 active torsions:
  status: ('A' for Active; 'I' for Inactive)
    1  A    between atoms: C_1  and  O_20
    2  A    between atoms: C_2  and  C_9
    3  A    between atoms: C_2  and  C_23
    4  A    between atoms: C_3  and  N_14
    5  A    between atoms: C_4  and  O_5
    6  A    between atoms: C_4  and  N_13
    7  A    between atoms: C_6  and  O_31
    8  A    between atoms: C_7  and  N_27
    9  A    between atoms: C_7  and  C_32
   10  A    between atoms: C_8  and  C_23
   11  A    between atoms: C_8  and  C_28
   12  A    between atoms: C_9  and  C_10
   13  A    between atoms: C_10  and  C_19
   14  A    between atoms: N_13  and  C_15
   15  A    between atoms: N_14  and  C_26
   16  A    between atoms: N_14  and  C_28
   17  A    between atoms: C_15  and  C_26
   18  A    between atoms: C_16  and  C_26
   19  A    between atoms: C_16  and  N_27
   20  A    between atoms: C_16  and  O_31
   21  A    between atoms: C_19  and  O_20
                            x       y       z     vdW  Elec       q    Type
                         _______ _______ _______ _____ _____    ______ ____

>  <TORSDO>
F 21

$$$$
=
 OpenBabel10272413393D

 32 32  0  0  1  0  0  0  0  0999 V2000
  185.3540  178.3860  138.2380 C   0  0  2  0  0  3  0  0  0  0  0  0
  184.6410  179.2520  139.2820 C   0  0  1  0  0  3  0  0  0  0  0  0
  183.4690  179.8040  138.7580 O   0  0  0  0  0  0  0  0  0  0  0  0
  182.4320  179.1130  139.3860 C   0  0  0  0  0  2  0  0  0  0  0  0
  181.2150  180.0090  139.4820 C   0  0  0  0  0  1  0  0  0  0  0  0
  184.3220  178.4470  140.4520 N   0  0  0  0  0  2  0  0  0  0  0  0
  185.0890  178.9740  141.5700 C   0  0  0  0  0  2  0  0  0  0  0  0
  184.7800  179.4290  143.9870 C   0  0  1  0  0  3  0  0  0  0  0  0
  183.3520  179.6980  144.0170 N   0  0  0  0  0  2  0  0  0  0  0  0
  183.1150  178.7790  142.9730 N   0  0  0  0  0  2  0  0  0  0  0  0
  185.1840  178.6880  145.2470 C   0  0  0  0  0  1  0  0  0  0  0  0
  184.5270  178.4500  142.8840 C   0  0  1  0  0  3  0  0  0  0  0  0
  184.9490  176.9020  138.2730 C   0  0  0  0  0  2  0  0  0  0  0  0
  183.8970  176.6040  137.3140 N   0  0  0  0  0  2  0  0  0  0  0  0
  183.0970  175.5390  137.8890 C   0  0  0  0  0  2  0  0  0  0  0  0
  183.7940  174.3350  137.8000 O   0  0  0  0  0  0  0  0  0  0  0  0
  183.2800  173.7170  136.6600 C   0  0  0  0  0  1  0  0  0  0  0  0
  186.8020  178.6630  138.1590 N   0  0  0  0  0  0  0  0  0  0  0  0
  187.2440  178.7450  136.7620 C   0  0  0  0  0  2  0  0  0  0  0  0
  188.6840  178.2820  136.5530 C   0  0  0  0  0  1  0  0  0  0  0  0
  187.6260  177.7290  138.9290 C   0  0  0  0  0  2  0  0  0  0  0  0
  188.4350  178.4700  139.9860 C   0  0  0  0  0  2  0  0  0  0  0  0
  189.0650  177.5030  140.9770 C   0  0  0  0  0  2  0  0  0  0  0  0
  188.1090  177.2170  142.1230 C   0  0  0  0  0  2  0  0  0  0  0  0
  188.8470  176.6430  143.2870 C   0  0  0  0  0  0  0  0  0  0  0  0
  189.7160  175.8040  143.1110 O   0  0  0  0  0  0  0  0  0  0  0  0
  188.5190  177.0980  144.6700 C   0  0  0  0  0  2  0  0  0  0  0  0
  189.6420  177.9120  145.2330 C   0  0  0  0  0  0  0  0  0  0  0  0
  190.1870  178.7850  144.5090 O   0  0  0  0  0  0  0  0  0  0  0  0
  190.0820  177.7460  146.5470 O   0  0  0  0  0  0  0  0  0  0  0  0
  190.1690  176.4700  147.1640 C   0  0  0  0  0  2  0  0  0  0  0  0
  191.9110  176.0090  147.3630 S   0  0  0  0  0  1  0  0  0  0  0  0
  1 13  1  1  0  0  0
  1  2  1  0  0  0  0
  2  3  1  6  0  0  0
  2  6  1  0  0  0  0
  3  4  1  0  0  0  0
  4  5  1  0  0  0  0
  6  7  1  0  0  0  0
  8  9  1  0  0  0  0
  8 11  1  1  0  0  0
 10  9  1  0  0  0  0
 12  7  1  6  0  0  0
 12 10  1  0  0  0  0
 12  8  1  0  0  0  0
 14 15  1  0  0  0  0
 14 13  1  0  0  0  0
 16 15  1  0  0  0  0
 17 16  1  0  0  0  0
 18  1  1  0  0  0  0
 18 21  1  0  0  0  0
 19 18  1  0  0  0  0
 20 19  1  0  0  0  0
 21 22  1  0  0  0  0
 22 23  1  0  0  0  0
 23 24  1  0  0  0  0
 24 25  1  0  0  0  0
 25 27  1  0  0  0  0
 26 25  2  0  0  0  0
 27 28  1  0  0  0  0
 28 30  1  0  0  0  0
 29 28  2  0  0  0  0
 30 31  1  0  0  0  0
 31 32  1  0  0  0  0
M  END
>  <MODEL>
4

>  <REMARK>
 VINA RESULT:      -5.0      2.019      5.369
  Name = 
  21 active torsions:
  status: ('A' for Active; 'I' for Inactive)
    1  A    between atoms: C_1  and  O_20
    2  A    between atoms: C_2  and  C_9
    3  A    between atoms: C_2  and  C_23
    4  A    between atoms: C_3  and  N_14
    5  A    between atoms: C_4  and  O_5
    6  A    between atoms: C_4  and  N_13
    7  A    between atoms: C_6  and  O_31
    8  A    between atoms: C_7  and  N_27
    9  A    between atoms: C_7  and  C_32
   10  A    between atoms: C_8  and  C_23
   11  A    between atoms: C_8  and  C_28
   12  A    between atoms: C_9  and  C_10
   13  A    between atoms: C_10  and  C_19
   14  A    between atoms: N_13  and  C_15
   15  A    between atoms: N_14  and  C_26
   16  A    between atoms: N_14  and  C_28
   17  A    between atoms: C_15  and  C_26
   18  A    between atoms: C_16  and  C_26
   19  A    between atoms: C_16  and  N_27
   20  A    between atoms: C_16  and  O_31
   21  A    between atoms: C_19  and  O_20
                            x       y       z     vdW  Elec       q    Type
                         _______ _______ _______ _____ _____    ______ ____

>  <TORSDO>
F 21

$$$$
=
 OpenBabel10272413393D

 32 32  0  0  1  0  0  0  0  0999 V2000
  190.2430  177.2640  138.8350 C   0  0  2  0  0  3  0  0  0  0  0  0
  189.1820  176.9830  137.7660 C   0  0  1  0  0  3  0  0  0  0  0  0
  189.4920  177.6390  136.5710 O   0  0  0  0  0  0  0  0  0  0  0  0
  188.9050  178.9000  136.6870 C   0  0  0  0  0  2  0  0  0  0  0  0
  187.4010  178.7660  136.5830 C   0  0  0  0  0  1  0  0  0  0  0  0
  189.0920  175.5500  137.5270 N   0  0  0  0  0  2  0  0  0  0  0  0
  188.8470  175.3560  136.1070 C   0  0  0  0  0  2  0  0  0  0  0  0
  186.6820  174.4550  136.9100 C   0  0  1  0  0  3  0  0  0  0  0  0
  185.8080  174.8880  135.8320 N   0  0  0  0  0  2  0  0  0  0  0  0
  186.8400  174.7440  134.8810 N   0  0  0  0  0  2  0  0  0  0  0  0
  186.2390  173.0920  137.4060 C   0  0  0  0  0  1  0  0  0  0  0  0
  187.7740  174.2960  135.9000 C   0  0  1  0  0  3  0  0  0  0  0  0
  191.3280  176.1780  138.9410 C   0  0  0  0  0  2  0  0  0  0  0  0
  192.6440  176.6910  138.5930 N   0  0  0  0  0  2  0  0  0  0  0  0
  192.9220  176.2450  137.2410 C   0  0  0  0  0  2  0  0  0  0  0  0
  194.3000  176.1350  137.0630 O   0  0  0  0  0  0  0  0  0  0  0  0
  194.6010  174.8330  137.4600 C   0  0  0  0  0  1  0  0  0  0  0  0
  189.6590  177.7250  140.1100 N   0  0  0  0  0  0  0  0  0  0  0  0
  190.0370  176.8330  141.2120 C   0  0  0  0  0  2  0  0  0  0  0  0
  191.0890  177.4300  142.1430 C   0  0  0  0  0  1  0  0  0  0  0  0
  188.2110  177.9310  140.0570 C   0  0  0  0  0  2  0  0  0  0  0  0
  187.6900  178.4470  141.3940 C   0  0  0  0  0  2  0  0  0  0  0  0
  186.1780  178.6060  141.3740 C   0  0  0  0  0  2  0  0  0  0  0  0
  185.7290  179.5680  142.4610 C   0  0  0  0  0  2  0  0  0  0  0  0
  184.6500  178.9520  143.2880 C   0  0  0  0  0  0  0  0  0  0  0  0
  183.9400  178.0750  142.8200 O   0  0  0  0  0  0  0  0  0  0  0  0
  184.4370  179.4130  144.6920 C   0  0  0  0  0  2  0  0  0  0  0  0
  185.1390  178.5040  145.6520 C   0  0  0  0  0  0  0  0  0  0  0  0
  184.8130  178.5290  146.8670 O   0  0  0  0  0  0  0  0  0  0  0  0
  186.1270  177.6130  145.2300 O   0  0  0  0  0  0  0  0  0  0  0  0
  187.5120  177.8980  145.3540 C   0  0  0  0  0  2  0  0  0  0  0  0
  188.0420  177.6010  147.0630 S   0  0  0  0  0  1  0  0  0  0  0  0
  1 13  1  1  0  0  0
  1 18  1  0  0  0  0
  2  3  1  6  0  0  0
  2  1  1  0  0  0  0
  3  4  1  0  0  0  0
  5  4  1  0  0  0  0
  6  2  1  0  0  0  0
  7  6  1  0  0  0  0
  8 11  1  6  0  0  0
  9  8  1  0  0  0  0
 10  9  1  0  0  0  0
 10 12  1  0  0  0  0
 12  7  1  1  0  0  0
 12  8  1  0  0  0  0
 14 13  1  0  0  0  0
 15 14  1  0  0  0  0
 16 15  1  0  0  0  0
 16 17  1  0  0  0  0
 18 19  1  0  0  0  0
 19 20  1  0  0  0  0
 21 18  1  0  0  0  0
 21 22  1  0  0  0  0
 23 22  1  0  0  0  0
 23 24  1  0  0  0  0
 24 25  1  0  0  0  0
 25 27  1  0  0  0  0
 26 25  2  0  0  0  0
 27 28  1  0  0  0  0
 28 29  2  0  0  0  0
 30 31  1  0  0  0  0
 30 28  1  0  0  0  0
 31 32  1  0  0  0  0
M  END
>  <MODEL>
5

>  <REMARK>
 VINA RESULT:      -4.9      3.255      5.431
  Name = 
  21 active torsions:
  status: ('A' for Active; 'I' for Inactive)
    1  A    between atoms: C_1  and  O_20
    2  A    between atoms: C_2  and  C_9
    3  A    between atoms: C_2  and  C_23
    4  A    between atoms: C_3  and  N_14
    5  A    between atoms: C_4  and  O_5
    6  A    between atoms: C_4  and  N_13
    7  A    between atoms: C_6  and  O_31
    8  A    between atoms: C_7  and  N_27
    9  A    between atoms: C_7  and  C_32
   10  A    between atoms: C_8  and  C_23
   11  A    between atoms: C_8  and  C_28
   12  A    between atoms: C_9  and  C_10
   13  A    between atoms: C_10  and  C_19
   14  A    between atoms: N_13  and  C_15
   15  A    between atoms: N_14  and  C_26
   16  A    between atoms: N_14  and  C_28
   17  A    between atoms: C_15  and  C_26
   18  A    between atoms: C_16  and  C_26
   19  A    between atoms: C_16  and  N_27
   20  A    between atoms: C_16  and  O_31
   21  A    between atoms: C_19  and  O_20
                            x       y       z     vdW  Elec       q    Type
                         _______ _______ _______ _____ _____    ______ ____

>  <TORSDO>
F 21

$$$$
=
 OpenBabel10272413393D

 32 32  0  0  1  0  0  0  0  0999 V2000
  184.1510  178.6270  141.2370 C   0  0  2  0  0  3  0  0  0  0  0  0
  182.8180  177.9430  140.9170 C   0  0  1  0  0  3  0  0  0  0  0  0
  181.9570  178.8170  140.2470 O   0  0  0  0  0  0  0  0  0  0  0  0
  181.0930  179.3000  141.2300 C   0  0  0  0  0  2  0  0  0  0  0  0
  180.1610  180.3270  140.6220 C   0  0  0  0  0  1  0  0  0  0  0  0
  183.0550  176.7650  140.0960 N   0  0  0  0  0  2  0  0  0  0  0  0
  181.7630  176.2880  139.6290 C   0  0  0  0  0  2  0  0  0  0  0  0
  180.6820  174.8180  137.9510 C   0  0  1  0  0  3  0  0  0  0  0  0
  180.4010  175.7860  136.9050 N   0  0  0  0  0  2  0  0  0  0  0  0
  181.5600  176.5260  137.2190 N   0  0  0  0  0  2  0  0  0  0  0  0
  181.0680  173.4920  137.3250 C   0  0  0  0  0  1  0  0  0  0  0  0
  181.9150  175.5990  138.2800 C   0  0  1  0  0  3  0  0  0  0  0  0
  185.2100  178.4840  140.1310 C   0  0  0  0  0  2  0  0  0  0  0  0
  184.9030  179.3130  138.9760 N   0  0  0  0  0  2  0  0  0  0  0  0
  185.5020  178.6640  137.8250 C   0  0  0  0  0  2  0  0  0  0  0  0
  184.8980  177.4240  137.6240 O   0  0  0  0  0  0  0  0  0  0  0  0
  185.1840  177.1060  136.2960 C   0  0  0  0  0  1  0  0  0  0  0  0
  184.6110  178.3630  142.6160 N   0  0  0  0  0  0  0  0  0  0  0  0
  184.1030  179.3810  143.5420 C   0  0  0  0  0  2  0  0  0  0  0  0
  183.0220  178.8580  144.4850 C   0  0  0  0  0  1  0  0  0  0  0  0
  186.0620  178.2050  142.7340 C   0  0  0  0  0  2  0  0  0  0  0  0
  186.4350  177.6710  144.1120 C   0  0  0  0  0  2  0  0  0  0  0  0
  187.6400  176.7460  144.0390 C   0  0  0  0  0  2  0  0  0  0  0  0
  188.7210  177.3480  143.1560 C   0  0  0  0  0  2  0  0  0  0  0  0
  189.9900  176.5730  143.2850 C   0  0  0  0  0  0  0  0  0  0  0  0
  190.0660  175.4380  142.8420 O   0  0  0  0  0  0  0  0  0  0  0  0
  191.1700  177.1900  143.9600 C   0  0  0  0  0  2  0  0  0  0  0  0
  191.1490  176.8910  145.4270 C   0  0  0  0  0  0  0  0  0  0  0  0
  191.9800  176.0710  145.8950 O   0  0  0  0  0  0  0  0  0  0  0  0
  190.2480  177.5170  146.2900 O   0  0  0  0  0  0  0  0  0  0  0  0
  189.5080  176.8000  147.2680 C   0  0  0  0  0  2  0  0  0  0  0  0
  188.4160  177.9410  148.1580 S   0  0  0  0  0  1  0  0  0  0  0  0
  1 13  1  6  0  0  0
  1 18  1  0  0  0  0
  2  6  1  6  0  0  0
  2  1  1  0  0  0  0
  3  2  1  0  0  0  0
  3  4  1  0  0  0  0
  5  4  1  0  0  0  0
  7  6  1  0  0  0  0
  8 11  1  6  0  0  0
  8 12  1  0  0  0  0
  9 10  1  0  0  0  0
  9  8  1  0  0  0  0
 10 12  1  0  0  0  0
 12  7  1  1  0  0  0
 14 13  1  0  0  0  0
 15 14  1  0  0  0  0
 16 15  1  0  0  0  0
 17 16  1  0  0  0  0
 18 21  1  0  0  0  0
 18 19  1  0  0  0  0
 19 20  1  0  0  0  0
 21 22  1  0  0  0  0
 23 22  1  0  0  0  0
 24 25  1  0  0  0  0
 24 23  1  0  0  0  0
 25 27  1  0  0  0  0
 26 25  2  0  0  0  0
 27 28  1  0  0  0  0
 28 29  2  0  0  0  0
 28 30  1  0  0  0  0
 30 31  1  0  0  0  0
 31 32  1  0  0  0  0
M  END
>  <MODEL>
6

>  <REMARK>
 VINA RESULT:      -4.9      2.875      4.658
  Name = 
  21 active torsions:
  status: ('A' for Active; 'I' for Inactive)
    1  A    between atoms: C_1  and  O_20
    2  A    between atoms: C_2  and  C_9
    3  A    between atoms: C_2  and  C_23
    4  A    between atoms: C_3  and  N_14
    5  A    between atoms: C_4  and  O_5
    6  A    between atoms: C_4  and  N_13
    7  A    between atoms: C_6  and  O_31
    8  A    between atoms: C_7  and  N_27
    9  A    between atoms: C_7  and  C_32
   10  A    between atoms: C_8  and  C_23
   11  A    between atoms: C_8  and  C_28
   12  A    between atoms: C_9  and  C_10
   13  A    between atoms: C_10  and  C_19
   14  A    between atoms: N_13  and  C_15
   15  A    between atoms: N_14  and  C_26
   16  A    between atoms: N_14  and  C_28
   17  A    between atoms: C_15  and  C_26
   18  A    between atoms: C_16  and  C_26
   19  A    between atoms: C_16  and  N_27
   20  A    between atoms: C_16  and  O_31
   21  A    between atoms: C_19  and  O_20
                            x       y       z     vdW  Elec       q    Type
                         _______ _______ _______ _____ _____    ______ ____

>  <TORSDO>
F 21

$$$$
=
 OpenBabel10272413393D

 32 32  0  0  1  0  0  0  0  0999 V2000
  187.1720  176.4380  136.6530 C   0  0  2  0  0  3  0  0  0  0  0  0
  185.7780  177.0260  136.4110 C   0  0  1  0  0  3  0  0  0  0  0  0
  184.7990  176.0300  136.4740 O   0  0  0  0  0  0  0  0  0  0  0  0
  184.1280  176.1030  135.2530 C   0  0  0  0  0  2  0  0  0  0  0  0
  184.4570  174.8780  134.4250 C   0  0  0  0  0  1  0  0  0  0  0  0
  185.4980  178.0510  137.4050 N   0  0  0  0  0  2  0  0  0  0  0  0
  184.4920  177.5200  138.3120 C   0  0  0  0  0  2  0  0  0  0  0  0
  184.0020  178.4350  140.5630 C   0  0  1  0  0  3  0  0  0  0  0  0
  184.9140  179.5660  140.5840 N   0  0  0  0  0  2  0  0  0  0  0  0
  184.7650  179.7670  139.1960 N   0  0  0  0  0  2  0  0  0  0  0  0
  182.7190  178.8040  141.2810 C   0  0  0  0  0  1  0  0  0  0  0  0
  183.8390  178.6520  139.0920 C   0  0  1  0  0  3  0  0  0  0  0  0
  187.1660  174.9510  137.0460 C   0  0  0  0  0  2  0  0  0  0  0  0
  187.7670  174.1160  136.0180 N   0  0  0  0  0  2  0  0  0  0  0  0
  188.4760  173.0520  136.7040 C   0  0  0  0  0  2  0  0  0  0  0  0
  189.6370  173.5640  137.2810 O   0  0  0  0  0  0  0  0  0  0  0  0
  190.5620  173.5940  136.2390 C   0  0  0  0  0  1  0  0  0  0  0  0
  188.0290  177.3220  137.4690 N   0  0  0  0  0  0  0  0  0  0  0  0
  188.9250  178.1140  136.6180 C   0  0  0  0  0  2  0  0  0  0  0  0
  189.3090  177.4080  135.3200 C   0  0  0  0  0  1  0  0  0  0  0  0
  188.7680  176.6220  138.5220 C   0  0  0  0  0  2  0  0  0  0  0  0
  189.2300  177.5980  139.5970 C   0  0  0  0  0  2  0  0  0  0  0  0
  188.0660  178.0610  140.4600 C   0  0  0  0  0  2  0  0  0  0  0  0
  188.5580  178.4920  141.8310 C   0  0  0  0  0  2  0  0  0  0  0  0
  188.0320  177.5750  142.8860 C   0  0  0  0  0  0  0  0  0  0  0  0
  186.8600  177.6360  143.2250 O   0  0  0  0  0  0  0  0  0  0  0  0
  188.9430  176.5820  143.5270 C   0  0  0  0  0  2  0  0  0  0  0  0
  189.6360  177.1930  144.7050 C   0  0  0  0  0  0  0  0  0  0  0  0
  189.8920  178.4250  144.6920 O   0  0  0  0  0  0  0  0  0  0  0  0
  189.9810  176.4370  145.8270 O   0  0  0  0  0  0  0  0  0  0  0  0
  190.6430  177.0010  146.9490 C   0  0  0  0  0  2  0  0  0  0  0  0
  191.9870  175.9040  147.4750 S   0  0  0  0  0  1  0  0  0  0  0  0
  1 13  1  1  0  0  0
  1 18  1  0  0  0  0
  2  3  1  1  0  0  0
  2  1  1  0  0  0  0
  2  6  1  0  0  0  0
  4  3  1  0  0  0  0
  5  4  1  0  0  0  0
  6  7  1  0  0  0  0
  8  9  1  0  0  0  0
  8 11  1  1  0  0  0
 10  9  1  0  0  0  0
 12  7  1  6  0  0  0
 12 10  1  0  0  0  0
 12  8  1  0  0  0  0
 14 15  1  0  0  0  0
 14 13  1  0  0  0  0
 15 16  1  0  0  0  0
 17 16  1  0  0  0  0
 18 21  1  0  0  0  0
 19 18  1  0  0  0  0
 20 19  1  0  0  0  0
 21 22  1  0  0  0  0
 22 23  1  0  0  0  0
 23 24  1  0  0  0  0
 24 25  1  0  0  0  0
 25 26  2  0  0  0  0
 25 27  1  0  0  0  0
 27 28  1  0  0  0  0
 28 30  1  0  0  0  0
 29 28  2  0  0  0  0
 30 31  1  0  0  0  0
 31 32  1  0  0  0  0
M  END
>  <MODEL>
7

>  <REMARK>
 VINA RESULT:      -4.6      2.470      5.397
  Name = 
  21 active torsions:
  status: ('A' for Active; 'I' for Inactive)
    1  A    between atoms: C_1  and  O_20
    2  A    between atoms: C_2  and  C_9
    3  A    between atoms: C_2  and  C_23
    4  A    between atoms: C_3  and  N_14
    5  A    between atoms: C_4  and  O_5
    6  A    between atoms: C_4  and  N_13
    7  A    between atoms: C_6  and  O_31
    8  A    between atoms: C_7  and  N_27
    9  A    between atoms: C_7  and  C_32
   10  A    between atoms: C_8  and  C_23
   11  A    between atoms: C_8  and  C_28
   12  A    between atoms: C_9  and  C_10
   13  A    between atoms: C_10  and  C_19
   14  A    between atoms: N_13  and  C_15
   15  A    between atoms: N_14  and  C_26
   16  A    between atoms: N_14  and  C_28
   17  A    between atoms: C_15  and  C_26
   18  A    between atoms: C_16  and  C_26
   19  A    between atoms: C_16  and  N_27
   20  A    between atoms: C_16  and  O_31
   21  A    between atoms: C_19  and  O_20
                            x       y       z     vdW  Elec       q    Type
                         _______ _______ _______ _____ _____    ______ ____

>  <TORSDO>
F 21

$$$$
=
 OpenBabel10272413393D

 32 32  0  0  1  0  0  0  0  0999 V2000
  186.4130  176.3440  136.7460 C   0  0  2  0  0  3  0  0  0  0  0  0
  184.9320  176.2960  137.1350 C   0  0  1  0  0  3  0  0  0  0  0  0
  184.5280  174.9850  137.4040 O   0  0  0  0  0  0  0  0  0  0  0  0
  183.5050  174.7280  136.4900 C   0  0  0  0  0  2  0  0  0  0  0  0
  182.2040  174.5220  137.2360 C   0  0  0  0  0  1  0  0  0  0  0  0
  184.7070  177.1270  138.3090 N   0  0  0  0  0  2  0  0  0  0  0  0
  183.6250  178.0470  137.9940 C   0  0  0  0  0  2  0  0  0  0  0  0
  184.0180  178.4420  140.4100 C   0  0  1  0  0  3  0  0  0  0  0  0
  184.9570  179.5490  140.3400 N   0  0  0  0  0  2  0  0  0  0  0  0
  184.3460  180.0480  139.1700 N   0  0  0  0  0  2  0  0  0  0  0  0
  183.0960  178.6330  141.5980 C   0  0  0  0  0  1  0  0  0  0  0  0
  183.3670  178.9750  139.1730 C   0  0  1  0  0  3  0  0  0  0  0  0
  187.1620  175.0180  136.9670 C   0  0  0  0  0  2  0  0  0  0  0  0
  187.8390  174.5700  135.7600 N   0  0  0  0  0  2  0  0  0  0  0  0
  186.8360  173.9220  134.9350 C   0  0  0  0  0  2  0  0  0  0  0  0
  187.0670  172.5470  134.9180 O   0  0  0  0  0  0  0  0  0  0  0  0
  185.8410  171.9820  135.2660 C   0  0  0  0  0  1  0  0  0  0  0  0
  187.0920  177.5620  137.2310 N   0  0  0  0  0  0  0  0  0  0  0  0
  187.3730  178.4820  136.1220 C   0  0  0  0  0  2  0  0  0  0  0  0
  186.7810  178.0250  134.7910 C   0  0  0  0  0  1  0  0  0  0  0  0
  188.2930  177.2940  138.0240 C   0  0  0  0  0  2  0  0  0  0  0  0
  188.2010  177.9670  139.3880 C   0  0  0  0  0  2  0  0  0  0  0  0
  189.1890  177.3610  140.3720 C   0  0  0  0  0  2  0  0  0  0  0  0
  188.9170  177.8660  141.7790 C   0  0  0  0  0  2  0  0  0  0  0  0
  190.0520  177.5180  142.6850 C   0  0  0  0  0  0  0  0  0  0  0  0
  190.7600  176.5540  142.4420 O   0  0  0  0  0  0  0  0  0  0  0  0
  190.3180  178.3530  143.8940 C   0  0  0  0  0  2  0  0  0  0  0  0
  190.3590  177.4970  145.1220 C   0  0  0  0  0  0  0  0  0  0  0  0
  191.4600  177.3130  145.7010 O   0  0  0  0  0  0  0  0  0  0  0  0
  189.2040  176.9210  145.6540 O   0  0  0  0  0  0  0  0  0  0  0  0
  188.2310  177.6790  146.3570 C   0  0  0  0  0  2  0  0  0  0  0  0
  186.6680  177.6630  145.4370 S   0  0  0  0  0  1  0  0  0  0  0  0
  1 13  1  1  0  0  0
  1  2  1  0  0  0  0
  1 18  1  0  0  0  0
  2  3  1  1  0  0  0
  2  6  1  0  0  0  0
  4  5  1  0  0  0  0
  4  3  1  0  0  0  0
  7  6  1  0  0  0  0
  8 11  1  1  0  0  0
  9  8  1  0  0  0  0
 10 12  1  0  0  0  0
 10  9  1  0  0  0  0
 12  7  1  6  0  0  0
 12  8  1  0  0  0  0
 14 13  1  0  0  0  0
 15 14  1  0  0  0  0
 16 15  1  0  0  0  0
 16 17  1  0  0  0  0
 18 21  1  0  0  0  0
 19 18  1  0  0  0  0
 20 19  1  0  0  0  0
 21 22  1  0  0  0  0
 22 23  1  0  0  0  0
 23 24  1  0  0  0  0
 24 25  1  0  0  0  0
 25 27  1  0  0  0  0
 26 25  2  0  0  0  0
 27 28  1  0  0  0  0
 28 30  1  0  0  0  0
 28 29  2  0  0  0  0
 30 31  1  0  0  0  0
 32 31  1  0  0  0  0
M  END
>  <MODEL>
8

>  <REMARK>
 VINA RESULT:      -4.6      3.075      5.837
  Name = 
  21 active torsions:
  status: ('A' for Active; 'I' for Inactive)
    1  A    between atoms: C_1  and  O_20
    2  A    between atoms: C_2  and  C_9
    3  A    between atoms: C_2  and  C_23
    4  A    between atoms: C_3  and  N_14
    5  A    between atoms: C_4  and  O_5
    6  A    between atoms: C_4  and  N_13
    7  A    between atoms: C_6  and  O_31
    8  A    between atoms: C_7  and  N_27
    9  A    between atoms: C_7  and  C_32
   10  A    between atoms: C_8  and  C_23
   11  A    between atoms: C_8  and  C_28
   12  A    between atoms: C_9  and  C_10
   13  A    between atoms: C_10  and  C_19
   14  A    between atoms: N_13  and  C_15
   15  A    between atoms: N_14  and  C_26
   16  A    between atoms: N_14  and  C_28
   17  A    between atoms: C_15  and  C_26
   18  A    between atoms: C_16  and  C_26
   19  A    between atoms: C_16  and  N_27
   20  A    between atoms: C_16  and  O_31
   21  A    between atoms: C_19  and  O_20
                            x       y       z     vdW  Elec       q    Type
                         _______ _______ _______ _____ _____    ______ ____

>  <TORSDO>
F 21

$$$$
=
 OpenBabel10272413393D

 32 32  0  0  1  0  0  0  0  0999 V2000
  183.8440  178.8110  139.6800 C   0  0  2  0  0  3  0  0  0  0  0  0
  184.2990  177.6610  138.7750 C   0  0  1  0  0  3  0  0  0  0  0  0
  183.2080  177.0740  138.1270 O   0  0  0  0  0  0  0  0  0  0  0  0
  182.9710  175.8860  138.8200 C   0  0  0  0  0  2  0  0  0  0  0  0
  181.6770  176.0070  139.5970 C   0  0  0  0  0  1  0  0  0  0  0  0
  185.2440  178.1590  137.7860 N   0  0  0  0  0  2  0  0  0  0  0  0
  185.4950  177.0840  136.8390 C   0  0  0  0  0  2  0  0  0  0  0  0
  187.7510  177.9450  137.3970 C   0  0  1  0  0  3  0  0  0  0  0  0
  188.2240  176.8830  138.2690 N   0  0  0  0  0  2  0  0  0  0  0  0
  187.5030  175.9100  137.5440 N   0  0  0  0  0  2  0  0  0  0  0  0
  188.9040  178.4660  136.5610 C   0  0  0  0  0  1  0  0  0  0  0  0
  186.9920  176.9130  136.6250 C   0  0  1  0  0  3  0  0  0  0  0  0
  183.5630  180.1250  138.9300 C   0  0  0  0  0  2  0  0  0  0  0  0
  182.2120  180.1630  138.3920 N   0  0  0  0  0  2  0  0  0  0  0  0
  181.3120  179.9500  139.5100 C   0  0  0  0  0  2  0  0  0  0  0  0
  179.9930  180.0310  139.0660 O   0  0  0  0  0  0  0  0  0  0  0  0
  180.0350  180.9440  138.0120 C   0  0  0  0  0  1  0  0  0  0  0  0
  184.6560  178.9240  140.9080 N   0  0  0  0  0  0  0  0  0  0  0  0
  186.0790  178.7170  140.6170 C   0  0  0  0  0  2  0  0  0  0  0  0
  186.9900  179.0090  141.8060 C   0  0  0  0  0  1  0  0  0  0  0  0
  184.2000  178.0610  142.0000 C   0  0  0  0  0  2  0  0  0  0  0  0
  183.1860  178.7880  142.8750 C   0  0  0  0  0  2  0  0  0  0  0  0
  183.6850  178.9210  144.3050 C   0  0  0  0  0  2  0  0  0  0  0  0
  185.0500  178.2720  144.4550 C   0  0  0  0  0  2  0  0  0  0  0  0
  185.5490  178.4250  145.8540 C   0  0  0  0  0  0  0  0  0  0  0  0
  185.2580  179.4150  146.5060 O   0  0  0  0  0  0  0  0  0  0  0  0
  186.4060  177.3610  146.4560 C   0  0  0  0  0  2  0  0  0  0  0  0
  187.8520  177.7300  146.3450 C   0  0  0  0  0  0  0  0  0  0  0  0
  188.5570  177.7640  147.3870 O   0  0  0  0  0  0  0  0  0  0  0  0
  188.4450  178.0120  145.1120 O   0  0  0  0  0  0  0  0  0  0  0  0
  189.2450  177.0660  144.4200 C   0  0  0  0  0  2  0  0  0  0  0  0
  190.8700  177.7900  144.0660 S   0  0  0  0  0  1  0  0  0  0  0  0
  1 13  1  6  0  0  0
  1 18  1  0  0  0  0
  2  6  1  6  0  0  0
  2  1  1  0  0  0  0
  3  2  1  0  0  0  0
  3  4  1  0  0  0  0
  4  5  1  0  0  0  0
  7  6  1  0  0  0  0
  8 11  1  6  0  0  0
  8  9  1  0  0  0  0
 10  9  1  0  0  0  0
 12  7  1  1  0  0  0
 12  8  1  0  0  0  0
 12 10  1  0  0  0  0
 14 13  1  0  0  0  0
 14 15  1  0  0  0  0
 16 15  1  0  0  0  0
 17 16  1  0  0  0  0
 18 21  1  0  0  0  0
 19 18  1  0  0  0  0
 19 20  1  0  0  0  0
 21 22  1  0  0  0  0
 22 23  1  0  0  0  0
 23 24  1  0  0  0  0
 24 25  1  0  0  0  0
 25 27  1  0  0  0  0
 25 26  2  0  0  0  0
 28 27  1  0  0  0  0
 28 29  2  0  0  0  0
 30 28  1  0  0  0  0
 31 30  1  0  0  0  0
 32 31  1  0  0  0  0
M  END
>  <MODEL>
9

>  <REMARK>
 VINA RESULT:      -4.6      1.972      4.160
  Name = 
  21 active torsions:
  status: ('A' for Active; 'I' for Inactive)
    1  A    between atoms: C_1  and  O_20
    2  A    between atoms: C_2  and  C_9
    3  A    between atoms: C_2  and  C_23
    4  A    between atoms: C_3  and  N_14
    5  A    between atoms: C_4  and  O_5
    6  A    between atoms: C_4  and  N_13
    7  A    between atoms: C_6  and  O_31
    8  A    between atoms: C_7  and  N_27
    9  A    between atoms: C_7  and  C_32
   10  A    between atoms: C_8  and  C_23
   11  A    between atoms: C_8  and  C_28
   12  A    between atoms: C_9  and  C_10
   13  A    between atoms: C_10  and  C_19
   14  A    between atoms: N_13  and  C_15
   15  A    between atoms: N_14  and  C_26
   16  A    between atoms: N_14  and  C_28
   17  A    between atoms: C_15  and  C_26
   18  A    between atoms: C_16  and  C_26
   19  A    between atoms: C_16  and  N_27
   20  A    between atoms: C_16  and  O_31
   21  A    between atoms: C_19  and  O_20
                            x       y       z     vdW  Elec       q    Type
                         _______ _______ _______ _____ _____    ______ ____

>  <TORSDO>
F 21

$$$$
