=
 OpenBabel10272415063D

 37 41  0  0  1  0  0  0  0  0999 V2000
  188.0170  177.8280  142.9020 C   0  0  2  0  0  3  0  0  0  0  0  0
  187.4880  177.6400  145.2900 C   0  0  1  0  0  3  0  0  0  0  0  0
  187.0780  178.3280  143.9970 C   0  0  2  0  0  3  0  0  0  0  0  0
  189.1170  176.9800  143.5520 C   0  0  1  0  0  0  0  0  0  0  0  0
  190.3860  177.5520  143.4150 O   0  0  0  0  0  1  0  0  0  0  0  0
  188.7640  176.8500  145.0320 C   0  0  1  0  0  3  0  0  0  0  0  0
  188.8250  178.1870  145.7560 C   0  0  2  0  0  3  0  0  0  0  0  0
  185.2260  178.7430  142.5520 O   0  0  0  0  0  0  0  0  0  0  0  0
  184.7810  179.1620  143.8190 C   0  0  2  0  0  3  0  0  0  0  0  0
  185.6450  177.9730  143.6530 C   0  0  2  0  0  3  0  0  0  0  0  0
  183.3450  178.7240  144.0110 C   0  0  0  0  0  2  0  0  0  0  0  0
  182.4600  179.6640  143.3480 N   0  0  0  0  0  2  0  0  0  0  0  0
  181.3040  178.9090  142.9010 C   0  0  0  0  0  3  0  0  0  0  0  0
  180.2250  179.8730  142.4510 C   0  0  0  0  0  2  0  0  0  0  0  0
  181.0830  179.1670  141.4240 C   0  0  0  0  0  2  0  0  0  0  0  0
  189.1220  175.5890  142.9340 C   0  0  0  0  0  2  0  0  0  0  0  0
  190.4180  175.0690  142.8990 O   0  0  0  0  0  1  0  0  0  0  0  0
  188.9830  177.9420  147.2440 C   0  0  0  0  0  2  0  0  0  0  0  0
  189.7650  176.7340  147.4670 N   0  0  0  0  0  2  0  0  0  0  0  0
  191.1510  176.6390  147.1330 C   0  0  0  0  0  0  0  0  0  0  0  0
  191.7510  177.6080  146.5930 O   0  0  0  0  0  0  0  0  0  0  0  0
  191.8990  175.3920  147.4470 C   0  0  0  0  0  2  0  0  0  0  0  0
  193.0240  175.6940  148.4170 C   0  0  0  0  0  1  0  0  0  0  0  0
  188.4690  178.8140  141.9890 O   0  0  0  0  0  0  0  0  0  0  0  0
  188.1700  178.4140  140.6750 C   0  0  0  0  0  2  0  0  0  0  0  0
  188.2880  176.0460  136.6020 C   0  0  0  0  0  2  0  0  0  0  0  0
  189.5140  177.5380  138.7750 C   0  0  0  0  0  0  0  0  0  0  0  0
  189.3290  177.6760  140.0920 C   0  0  0  0  0  3  0  0  0  0  0  0
  188.9570  179.5550  137.6440 O   0  0  0  0  0  1  0  0  0  0  0  0
  191.8010  176.9520  138.9650 O   0  0  0  0  0  0  0  0  0  0  0  0
  190.7490  176.0910  137.0880 N   0  0  0  0  0  2  0  0  0  0  0  0
  190.7330  176.8470  138.3040 C   0  0  0  0  0  0  0  0  0  0  0  0
  188.4510  177.5490  136.4360 C   0  0  2  0  0  3  0  0  0  0  0  0
  188.5730  178.2220  137.8040 C   0  0  1  0  0  3  0  0  0  0  0  0
  189.6290  175.3160  136.5510 C   0  0  0  0  0  2  0  0  0  0  0  0
  187.2480  178.1140  135.7000 C   0  0  0  0  0  2  0  0  0  0  0  0
  186.0970  177.9520  136.4720 O   0  0  0  0  0  1  0  0  0  0  0  0
  1 24  1  1  0  0  0
  1  4  1  0  0  0  0
  1  3  1  0  0  0  0
  2  7  1  0  0  0  0
  3  2  1  0  0  0  0
  4  6  1  0  0  0  0
  5  4  1  0  0  0  0
  6  2  1  0  0  0  0
  6  7  1  0  0  0  0
  7 18  1  0  0  0  0
  8 10  1  0  0  0  0
  8  9  1  0  0  0  0
  9 11  1  0  0  0  0
 10  9  1  0  0  0  0
 10  3  1  0  0  0  0
 12 11  1  0  0  0  0
 13 12  1  0  0  0  0
 14 13  1  0  0  0  0
 15 14  1  0  0  0  0
 15 13  1  0  0  0  0
 16  4  1  0  0  0  0
 17 16  1  0  0  0  0
 18 19  1  0  0  0  0
 20 22  1  0  0  0  0
 20 19  1  0  0  0  0
 21 20  2  0  0  0  0
 22 23  1  0  0  0  0
 25 24  1  0  0  0  0
 27 28  2  0  0  0  0
 28 25  1  0  0  0  0
 29 34  1  0  0  0  0
 31 32  1  0  0  0  0
 32 27  1  0  0  0  0
 32 30  2  0  0  0  0
 33 26  1  0  0  0  0
 33 34  1  0  0  0  0
 34 27  1  0  0  0  0
 35 26  1  0  0  0  0
 35 31  1  0  0  0  0
 36 33  1  0  0  0  0
 36 37  1  0  0  0  0
M  END
>  <MODEL>
1

>  <REMARK>
 VINA RESULT:      -7.5      0.000      0.000
  Name = 
  12 active torsions:
  status: ('A' for Active; 'I' for Inactive)
    1  A    between atoms: C_1  and  N_5
    2  A    between atoms: C_1  and  C_36
    3  A    between atoms: C_3  and  N_32
    4  A    between atoms: C_4  and  C_22
    5  A    between atoms: C_7  and  C_33
    6  A    between atoms: C_8  and  C_31
    7  A    between atoms: C_10  and  O_14
    8  A    between atoms: C_12  and  C_17
    9  A    between atoms: O_14  and  C_31
   10  A    between atoms: C_16  and  C_30
   11  A    between atoms: C_20  and  C_24
   12  A    between atoms: C_30  and  N_32
                            x       y       z     vdW  Elec       q    Type
                         _______ _______ _______ _____ _____    ______ ____

>  <TORSDO>
F 12

$$$$
=
 OpenBabel10272415063D

 37 41  0  0  1  0  0  0  0  0999 V2000
  188.8800  178.0720  139.7160 C   0  0  2  0  0  3  0  0  0  0  0  0
  188.6660  177.6180  142.1180 C   0  0  1  0  0  3  0  0  0  0  0  0
  188.0890  178.4340  140.9710 C   0  0  2  0  0  3  0  0  0  0  0  0
  190.0590  177.1790  140.1230 C   0  0  1  0  0  0  0  0  0  0  0  0
  191.2970  177.7870  139.8880 O   0  0  0  0  0  1  0  0  0  0  0  0
  189.9010  176.8840  141.6130 C   0  0  1  0  0  3  0  0  0  0  0  0
  190.0490  178.1370  142.4650 C   0  0  2  0  0  3  0  0  0  0  0  0
  186.0060  179.1040  140.0190 O   0  0  0  0  0  0  0  0  0  0  0  0
  185.7810  179.1280  141.4070 C   0  0  2  0  0  3  0  0  0  0  0  0
  186.6250  178.0920  140.7770 C   0  0  2  0  0  3  0  0  0  0  0  0
  184.4080  178.5600  141.6980 C   0  0  0  0  0  2  0  0  0  0  0  0
  183.8960  179.1340  142.9280 N   0  0  0  0  0  2  0  0  0  0  0  0
  184.4670  178.3660  144.0190 C   0  0  0  0  0  3  0  0  0  0  0  0
  185.1380  179.3120  144.9940 C   0  0  0  0  0  2  0  0  0  0  0  0
  183.7710  178.7440  145.3110 C   0  0  0  0  0  2  0  0  0  0  0  0
  189.9910  175.8640  139.3620 C   0  0  0  0  0  2  0  0  0  0  0  0
  191.1180  175.7010  138.5540 O   0  0  0  0  0  1  0  0  0  0  0  0
  190.4000  177.7360  143.8850 C   0  0  0  0  0  2  0  0  0  0  0  0
  189.2270  177.8570  144.7380 N   0  0  0  0  0  2  0  0  0  0  0  0
  189.2370  177.4940  146.1210 C   0  0  0  0  0  0  0  0  0  0  0  0
  190.2750  177.0160  146.6530 O   0  0  0  0  0  0  0  0  0  0  0  0
  188.0160  177.7020  146.9450 C   0  0  0  0  0  2  0  0  0  0  0  0
  188.4060  178.0720  148.3610 C   0  0  0  0  0  1  0  0  0  0  0  0
  189.2060  179.1590  138.8660 O   0  0  0  0  0  0  0  0  0  0  0  0
  188.5000  179.0400  137.6560 C   0  0  0  0  0  2  0  0  0  0  0  0
  187.7170  174.4710  136.8030 C   0  0  0  0  0  2  0  0  0  0  0  0
  188.6850  177.1180  136.0880 C   0  0  0  0  0  0  0  0  0  0  0  0
  189.2500  178.1540  136.7160 C   0  0  0  0  0  3  0  0  0  0  0  0
  186.4860  177.6800  135.3750 O   0  0  0  0  0  1  0  0  0  0  0  0
  190.3850  176.9390  134.4490 O   0  0  0  0  0  0  0  0  0  0  0  0
  189.2870  174.9500  134.9040 N   0  0  0  0  0  2  0  0  0  0  0  0
  189.5010  176.3480  135.1250 C   0  0  0  0  0  0  0  0  0  0  0  0
  186.7740  175.4000  136.0520 C   0  0  2  0  0  3  0  0  0  0  0  0
  187.2010  176.8560  136.2470 C   0  0  1  0  0  3  0  0  0  0  0  0
  188.8620  173.9820  135.9170 C   0  0  0  0  0  2  0  0  0  0  0  0
  185.3580  175.2140  136.5690 C   0  0  0  0  0  2  0  0  0  0  0  0
  184.7440  174.1510  135.9080 O   0  0  0  0  0  1  0  0  0  0  0  0
  1 24  1  1  0  0  0
  1  4  1  0  0  0  0
  1  3  1  0  0  0  0
  2  7  1  0  0  0  0
  3  2  1  0  0  0  0
  4  6  1  0  0  0  0
  5  4  1  0  0  0  0
  6  2  1  0  0  0  0
  6  7  1  0  0  0  0
  7 18  1  0  0  0  0
  8 10  1  0  0  0  0
  8  9  1  0  0  0  0
  9 11  1  0  0  0  0
 10  3  1  0  0  0  0
 10  9  1  0  0  0  0
 11 12  1  0  0  0  0
 12 13  1  0  0  0  0
 13 14  1  0  0  0  0
 13 15  1  0  0  0  0
 14 15  1  0  0  0  0
 16  4  1  0  0  0  0
 17 16  1  0  0  0  0
 18 19  1  0  0  0  0
 19 20  1  0  0  0  0
 20 21  2  0  0  0  0
 20 22  1  0  0  0  0
 22 23  1  0  0  0  0
 25 24  1  0  0  0  0
 27 34  1  0  0  0  0
 27 28  2  0  0  0  0
 28 25  1  0  0  0  0
 29 34  1  0  0  0  0
 30 32  2  0  0  0  0
 31 32  1  0  0  0  0
 31 35  1  0  0  0  0
 32 27  1  0  0  0  0
 33 34  1  0  0  0  0
 33 36  1  0  0  0  0
 33 26  1  0  0  0  0
 35 26  1  0  0  0  0
 37 36  1  0  0  0  0
M  END
>  <MODEL>
2

>  <REMARK>
 VINA RESULT:      -7.2      2.279      3.441
  Name = 
  12 active torsions:
  status: ('A' for Active; 'I' for Inactive)
    1  A    between atoms: C_1  and  N_5
    2  A    between atoms: C_1  and  C_36
    3  A    between atoms: C_3  and  N_32
    4  A    between atoms: C_4  and  C_22
    5  A    between atoms: C_7  and  C_33
    6  A    between atoms: C_8  and  C_31
    7  A    between atoms: C_10  and  O_14
    8  A    between atoms: C_12  and  C_17
    9  A    between atoms: O_14  and  C_31
   10  A    between atoms: C_16  and  C_30
   11  A    between atoms: C_20  and  C_24
   12  A    between atoms: C_30  and  N_32
                            x       y       z     vdW  Elec       q    Type
                         _______ _______ _______ _____ _____    ______ ____

>  <TORSDO>
F 12

$$$$
=
 OpenBabel10272415063D

 37 41  0  0  1  0  0  0  0  0999 V2000
  185.3870  178.3840  142.6580 C   0  0  2  0  0  3  0  0  0  0  0  0
  187.4220  178.2070  144.0160 C   0  0  1  0  0  3  0  0  0  0  0  0
  186.8430  177.9260  142.6380 C   0  0  2  0  0  3  0  0  0  0  0  0
  185.0170  178.7730  144.0940 C   0  0  1  0  0  0  0  0  0  0  0  0
  184.0370  177.9370  144.6400 O   0  0  0  0  0  1  0  0  0  0  0  0
  186.2960  178.6830  144.9240 C   0  0  1  0  0  3  0  0  0  0  0  0
  186.8130  177.2550  145.0280 C   0  0  2  0  0  3  0  0  0  0  0  0
  186.9040  178.6640  140.3700 O   0  0  0  0  0  0  0  0  0  0  0  0
  187.9990  177.7890  140.4820 C   0  0  2  0  0  3  0  0  0  0  0  0
  187.6140  178.6960  141.5840 C   0  0  2  0  0  3  0  0  0  0  0  0
  189.1790  178.3700  139.7320 C   0  0  0  0  0  2  0  0  0  0  0  0
  189.2940  177.7260  138.4370 N   0  0  0  0  0  2  0  0  0  0  0  0
  188.9940  178.7340  137.4380 C   0  0  0  0  0  3  0  0  0  0  0  0
  188.9420  178.0800  136.0720 C   0  0  0  0  0  2  0  0  0  0  0  0
  187.6580  178.4190  136.7980 C   0  0  0  0  0  2  0  0  0  0  0  0
  184.5240  180.2120  144.1230 C   0  0  0  0  0  2  0  0  0  0  0  0
  183.1310  180.2590  144.0390 O   0  0  0  0  0  1  0  0  0  0  0  0
  187.7260  177.1420  146.2330 C   0  0  0  0  0  2  0  0  0  0  0  0
  189.0950  176.9040  145.7970 N   0  0  0  0  0  2  0  0  0  0  0  0
  190.2170  177.0290  146.6730 C   0  0  0  0  0  0  0  0  0  0  0  0
  190.0610  177.3870  147.8720 O   0  0  0  0  0  0  0  0  0  0  0  0
  191.5810  176.7110  146.1710 C   0  0  0  0  0  2  0  0  0  0  0  0
  192.2460  175.7020  147.0860 C   0  0  0  0  0  1  0  0  0  0  0  0
  184.4680  177.5230  142.0050 O   0  0  0  0  0  0  0  0  0  0  0  0
  183.5730  178.2860  141.2340 C   0  0  0  0  0  2  0  0  0  0  0  0
  180.5930  179.5840  137.8210 C   0  0  0  0  0  2  0  0  0  0  0  0
  183.0690  178.4180  138.8030 C   0  0  0  0  0  0  0  0  0  0  0  0
  183.4600  177.7050  139.8630 C   0  0  0  0  0  3  0  0  0  0  0  0
  184.0140  180.6000  138.8760 O   0  0  0  0  0  1  0  0  0  0  0  0
  183.9200  176.8790  137.2160 O   0  0  0  0  0  0  0  0  0  0  0  0
  182.1200  178.1300  136.4610 N   0  0  0  0  0  2  0  0  0  0  0  0
  183.0590  177.7620  137.4780 C   0  0  0  0  0  0  0  0  0  0  0  0
  181.8120  180.4860  137.9390 C   0  0  2  0  0  3  0  0  0  0  0  0
  182.8060  179.9040  138.9460 C   0  0  1  0  0  3  0  0  0  0  0  0
  180.7420  178.5670  136.6910 C   0  0  0  0  0  2  0  0  0  0  0  0
  181.3800  181.8690  138.3980 C   0  0  0  0  0  2  0  0  0  0  0  0
  180.2710  181.7680  139.2390 O   0  0  0  0  0  1  0  0  0  0  0  0
  1 24  1  1  0  0  0
  1  4  1  0  0  0  0
  2  6  1  0  0  0  0
  2  7  1  0  0  0  0
  3  1  1  0  0  0  0
  3  2  1  0  0  0  0
  4 16  1  0  0  0  0
  4  5  1  0  0  0  0
  4  6  1  0  0  0  0
  6  7  1  0  0  0  0
  7 18  1  0  0  0  0
  8  9  1  0  0  0  0
  8 10  1  0  0  0  0
  9 10  1  0  0  0  0
 10  3  1  0  0  0  0
 11  9  1  0  0  0  0
 12 11  1  0  0  0  0
 13 12  1  0  0  0  0
 14 15  1  0  0  0  0
 14 13  1  0  0  0  0
 15 13  1  0  0  0  0
 17 16  1  0  0  0  0
 19 18  1  0  0  0  0
 19 20  1  0  0  0  0
 20 21  2  0  0  0  0
 22 20  1  0  0  0  0
 22 23  1  0  0  0  0
 25 24  1  0  0  0  0
 26 33  1  0  0  0  0
 27 34  1  0  0  0  0
 27 28  2  0  0  0  0
 28 25  1  0  0  0  0
 29 34  1  0  0  0  0
 30 32  2  0  0  0  0
 31 35  1  0  0  0  0
 31 32  1  0  0  0  0
 32 27  1  0  0  0  0
 33 36  1  0  0  0  0
 33 34  1  0  0  0  0
 35 26  1  0  0  0  0
 36 37  1  0  0  0  0
M  END
>  <MODEL>
3

>  <REMARK>
 VINA RESULT:      -7.1      2.834      6.124
  Name = 
  12 active torsions:
  status: ('A' for Active; 'I' for Inactive)
    1  A    between atoms: C_1  and  N_5
    2  A    between atoms: C_1  and  C_36
    3  A    between atoms: C_3  and  N_32
    4  A    between atoms: C_4  and  C_22
    5  A    between atoms: C_7  and  C_33
    6  A    between atoms: C_8  and  C_31
    7  A    between atoms: C_10  and  O_14
    8  A    between atoms: C_12  and  C_17
    9  A    between atoms: O_14  and  C_31
   10  A    between atoms: C_16  and  C_30
   11  A    between atoms: C_20  and  C_24
   12  A    between atoms: C_30  and  N_32
                            x       y       z     vdW  Elec       q    Type
                         _______ _______ _______ _____ _____    ______ ____

>  <TORSDO>
F 12

$$$$
=
 OpenBabel10272415063D

 37 41  0  0  1  0  0  0  0  0999 V2000
  185.4290  178.3670  142.9430 C   0  0  2  0  0  3  0  0  0  0  0  0
  187.3580  178.1020  144.4350 C   0  0  1  0  0  3  0  0  0  0  0  0
  186.8450  177.8060  143.0340 C   0  0  2  0  0  3  0  0  0  0  0  0
  185.0010  178.8400  144.3380 C   0  0  1  0  0  0  0  0  0  0  0  0
  183.9300  178.0990  144.8500 O   0  0  0  0  0  1  0  0  0  0  0  0
  186.2160  178.6930  145.2510 C   0  0  1  0  0  3  0  0  0  0  0  0
  186.6190  177.2380  145.4400 C   0  0  2  0  0  3  0  0  0  0  0  0
  187.2760  178.1550  140.7130 O   0  0  0  0  0  0  0  0  0  0  0  0
  188.4020  177.4500  141.1760 C   0  0  2  0  0  3  0  0  0  0  0  0
  187.7350  178.4760  142.0050 C   0  0  2  0  0  3  0  0  0  0  0  0
  189.6480  178.0350  140.5460 C   0  0  0  0  0  2  0  0  0  0  0  0
  190.8230  177.4530  141.1670 N   0  0  0  0  0  2  0  0  0  0  0  0
  190.5560  177.3860  142.5920 C   0  0  0  0  0  3  0  0  0  0  0  0
  191.3740  176.2640  143.1990 C   0  0  0  0  0  2  0  0  0  0  0  0
  191.8280  177.6990  143.3520 C   0  0  0  0  0  2  0  0  0  0  0  0
  184.6140  180.3110  144.2830 C   0  0  0  0  0  2  0  0  0  0  0  0
  183.2520  180.4540  144.0080 O   0  0  0  0  0  1  0  0  0  0  0  0
  187.4460  177.1100  146.7040 C   0  0  0  0  0  2  0  0  0  0  0  0
  188.8430  176.8790  146.3620 N   0  0  0  0  0  2  0  0  0  0  0  0
  189.9210  177.2740  147.2120 C   0  0  0  0  0  0  0  0  0  0  0  0
  189.6990  177.8790  148.2960 O   0  0  0  0  0  0  0  0  0  0  0  0
  191.3210  176.9500  146.8240 C   0  0  0  0  0  2  0  0  0  0  0  0
  191.7690  175.6820  147.5220 C   0  0  0  0  0  1  0  0  0  0  0  0
  184.4910  177.5480  142.2650 O   0  0  0  0  0  0  0  0  0  0  0  0
  183.7390  178.3320  141.3720 C   0  0  0  0  0  2  0  0  0  0  0  0
  180.7480  179.2050  137.8350 C   0  0  0  0  0  2  0  0  0  0  0  0
  183.2940  178.3210  138.9250 C   0  0  0  0  0  0  0  0  0  0  0  0
  183.7210  177.6900  140.0240 C   0  0  0  0  0  3  0  0  0  0  0  0
  184.0260  180.5840  138.9320 O   0  0  0  0  0  1  0  0  0  0  0  0
  184.3310  176.8090  137.4250 O   0  0  0  0  0  0  0  0  0  0  0  0
  182.4440  177.8520  136.5750 N   0  0  0  0  0  2  0  0  0  0  0  0
  183.3840  177.6150  137.6290 C   0  0  0  0  0  0  0  0  0  0  0  0
  181.8730  180.2240  137.9460 C   0  0  2  0  0  3  0  0  0  0  0  0
  182.8880  179.7780  139.0010 C   0  0  1  0  0  3  0  0  0  0  0  0
  181.0240  178.1640  136.7520 C   0  0  0  0  0  2  0  0  0  0  0  0
  181.2990  181.5760  138.3370 C   0  0  0  0  0  2  0  0  0  0  0  0
  180.5760  181.4630  139.5250 O   0  0  0  0  0  1  0  0  0  0  0  0
  1 24  1  1  0  0  0
  1  3  1  0  0  0  0
  1  4  1  0  0  0  0
  2  6  1  0  0  0  0
  2  7  1  0  0  0  0
  3  2  1  0  0  0  0
  4  5  1  0  0  0  0
  4  6  1  0  0  0  0
  6  7  1  0  0  0  0
  7 18  1  0  0  0  0
  8  9  1  0  0  0  0
  8 10  1  0  0  0  0
  9 10  1  0  0  0  0
 10  3  1  0  0  0  0
 11 12  1  0  0  0  0
 11  9  1  0  0  0  0
 12 13  1  0  0  0  0
 13 14  1  0  0  0  0
 13 15  1  0  0  0  0
 14 15  1  0  0  0  0
 16  4  1  0  0  0  0
 17 16  1  0  0  0  0
 19 18  1  0  0  0  0
 19 20  1  0  0  0  0
 20 21  2  0  0  0  0
 22 20  1  0  0  0  0
 22 23  1  0  0  0  0
 25 24  1  0  0  0  0
 26 33  1  0  0  0  0
 27 34  1  0  0  0  0
 27 28  2  0  0  0  0
 28 25  1  0  0  0  0
 29 34  1  0  0  0  0
 30 32  2  0  0  0  0
 31 35  1  0  0  0  0
 31 32  1  0  0  0  0
 32 27  1  0  0  0  0
 33 36  1  0  0  0  0
 33 34  1  0  0  0  0
 35 26  1  0  0  0  0
 36 37  1  0  0  0  0
M  END
>  <MODEL>
4

>  <REMARK>
 VINA RESULT:      -6.8      2.992      6.196
  Name = 
  12 active torsions:
  status: ('A' for Active; 'I' for Inactive)
    1  A    between atoms: C_1  and  N_5
    2  A    between atoms: C_1  and  C_36
    3  A    between atoms: C_3  and  N_32
    4  A    between atoms: C_4  and  C_22
    5  A    between atoms: C_7  and  C_33
    6  A    between atoms: C_8  and  C_31
    7  A    between atoms: C_10  and  O_14
    8  A    between atoms: C_12  and  C_17
    9  A    between atoms: O_14  and  C_31
   10  A    between atoms: C_16  and  C_30
   11  A    between atoms: C_20  and  C_24
   12  A    between atoms: C_30  and  N_32
                            x       y       z     vdW  Elec       q    Type
                         _______ _______ _______ _____ _____    ______ ____

>  <TORSDO>
F 12

$$$$
=
 OpenBabel10272415063D

 37 41  0  0  1  0  0  0  0  0999 V2000
  189.4500  176.8300  138.3030 C   0  0  2  0  0  3  0  0  0  0  0  0
  191.7740  176.0620  138.4620 C   0  0  1  0  0  3  0  0  0  0  0  0
  190.7460  176.9890  139.0930 C   0  0  2  0  0  3  0  0  0  0  0  0
  189.7300  175.9510  137.0780 C   0  0  1  0  0  0  0  0  0  0  0  0
  189.5650  176.6430  135.8730 O   0  0  0  0  0  1  0  0  0  0  0  0
  191.1700  175.4600  137.2010 C   0  0  1  0  0  3  0  0  0  0  0  0
  192.1750  176.5990  137.1010 C   0  0  2  0  0  3  0  0  0  0  0  0
  189.8940  177.6690  141.2160 O   0  0  0  0  0  0  0  0  0  0  0  0
  191.2760  177.5160  141.4260 C   0  0  2  0  0  3  0  0  0  0  0  0
  190.5210  176.6040  140.5420 C   0  0  2  0  0  3  0  0  0  0  0  0
  191.5040  176.8530  142.7680 C   0  0  0  0  0  2  0  0  0  0  0  0
  191.0060  177.7140  143.8250 N   0  0  0  0  0  2  0  0  0  0  0  0
  190.1350  176.9010  144.6530 C   0  0  0  0  0  3  0  0  0  0  0  0
  189.6450  177.7310  145.8220 C   0  0  0  0  0  2  0  0  0  0  0  0
  188.7390  177.4900  144.6340 C   0  0  0  0  0  2  0  0  0  0  0  0
  188.8050  174.7420  137.0940 C   0  0  0  0  0  2  0  0  0  0  0  0
  188.0800  174.6580  135.9040 O   0  0  0  0  0  1  0  0  0  0  0  0
  193.5280  176.0370  136.7120 C   0  0  0  0  0  2  0  0  0  0  0  0
  194.2080  175.5200  137.8910 N   0  0  0  0  0  2  0  0  0  0  0  0
  195.0800  174.3880  137.8460 C   0  0  0  0  0  0  0  0  0  0  0  0
  195.2700  173.7650  136.7660 O   0  0  0  0  0  0  0  0  0  0  0  0
  195.7870  173.9550  139.0810 C   0  0  0  0  0  2  0  0  0  0  0  0
  195.9230  175.1240  140.0350 C   0  0  0  0  0  1  0  0  0  0  0  0
  188.7440  178.0320  138.0410 O   0  0  0  0  0  0  0  0  0  0  0  0
  187.5000  178.0010  138.6960 C   0  0  0  0  0  2  0  0  0  0  0  0
  183.1190  176.6260  139.7600 C   0  0  0  0  0  2  0  0  0  0  0  0
  185.1330  177.7370  137.9810 C   0  0  0  0  0  0  0  0  0  0  0  0
  186.4370  177.5570  137.7460 C   0  0  0  0  0  3  0  0  0  0  0  0
  184.7550  179.8720  138.9600 O   0  0  0  0  0  1  0  0  0  0  0  0
  184.4880  177.4060  135.7260 O   0  0  0  0  0  0  0  0  0  0  0  0
  182.8520  176.8610  137.2750 N   0  0  0  0  0  2  0  0  0  0  0  0
  184.1670  177.3210  136.9420 C   0  0  0  0  0  0  0  0  0  0  0  0
  183.2910  178.1370  139.7270 C   0  0  2  0  0  3  0  0  0  0  0  0
  184.6850  178.5000  139.2110 C   0  0  1  0  0  3  0  0  0  0  0  0
  182.4950  176.0940  138.4700 C   0  0  0  0  0  2  0  0  0  0  0  0
  183.1080  178.7000  141.1270 C   0  0  0  0  0  2  0  0  0  0  0  0
  184.0650  178.1630  141.9870 O   0  0  0  0  0  1  0  0  0  0  0  0
  1 24  1  6  0  0  0
  1  3  1  0  0  0  0
  2  3  1  0  0  0  0
  3 10  1  0  0  0  0
  4 16  1  0  0  0  0
  4  6  1  0  0  0  0
  4  1  1  0  0  0  0
  5  4  1  0  0  0  0
  6  2  1  0  0  0  0
  7  6  1  0  0  0  0
  7  2  1  0  0  0  0
  8  9  1  0  0  0  0
  9 11  1  0  0  0  0
 10  8  1  0  0  0  0
 10  9  1  0  0  0  0
 11 12  1  0  0  0  0
 12 13  1  0  0  0  0
 13 14  1  0  0  0  0
 15 13  1  0  0  0  0
 15 14  1  0  0  0  0
 17 16  1  0  0  0  0
 18  7  1  0  0  0  0
 18 19  1  0  0  0  0
 20 19  1  0  0  0  0
 20 22  1  0  0  0  0
 21 20  2  0  0  0  0
 22 23  1  0  0  0  0
 24 25  1  0  0  0  0
 27 34  1  0  0  0  0
 28 27  2  0  0  0  0
 28 25  1  0  0  0  0
 29 34  1  0  0  0  0
 30 32  2  0  0  0  0
 31 35  1  0  0  0  0
 32 31  1  0  0  0  0
 32 27  1  0  0  0  0
 33 26  1  0  0  0  0
 33 36  1  0  0  0  0
 34 33  1  0  0  0  0
 35 26  1  0  0  0  0
 36 37  1  0  0  0  0
M  END
>  <MODEL>
5

>  <REMARK>
 VINA RESULT:      -6.8      3.180      7.571
  Name = 
  12 active torsions:
  status: ('A' for Active; 'I' for Inactive)
    1  A    between atoms: C_1  and  N_5
    2  A    between atoms: C_1  and  C_36
    3  A    between atoms: C_3  and  N_32
    4  A    between atoms: C_4  and  C_22
    5  A    between atoms: C_7  and  C_33
    6  A    between atoms: C_8  and  C_31
    7  A    between atoms: C_10  and  O_14
    8  A    between atoms: C_12  and  C_17
    9  A    between atoms: O_14  and  C_31
   10  A    between atoms: C_16  and  C_30
   11  A    between atoms: C_20  and  C_24
   12  A    between atoms: C_30  and  N_32
                            x       y       z     vdW  Elec       q    Type
                         _______ _______ _______ _____ _____    ______ ____

>  <TORSDO>
F 12

$$$$
=
 OpenBabel10272415063D

 37 41  0  0  1  0  0  0  0  0999 V2000
  189.3310  176.0420  137.6710 C   0  0  2  0  0  3  0  0  0  0  0  0
  187.9140  177.8770  138.4720 C   0  0  1  0  0  3  0  0  0  0  0  0
  188.7860  176.7170  138.9270 C   0  0  2  0  0  3  0  0  0  0  0  0
  188.6500  176.6670  136.4470 C   0  0  1  0  0  0  0  0  0  0  0  0
  187.8520  175.7510  135.7520 O   0  0  0  0  0  1  0  0  0  0  0  0
  187.7910  177.8210  136.9560 C   0  0  1  0  0  3  0  0  0  0  0  0
  186.6460  177.3410  137.8350 C   0  0  2  0  0  3  0  0  0  0  0  0
  190.5710  176.1450  140.4050 O   0  0  0  0  0  0  0  0  0  0  0  0
  189.6880  176.9010  141.1980 C   0  0  2  0  0  3  0  0  0  0  0  0
  189.9310  177.2310  139.7770 C   0  0  2  0  0  3  0  0  0  0  0  0
  190.4890  177.8330  142.0820 C   0  0  0  0  0  2  0  0  0  0  0  0
  189.6960  178.2030  143.2390 N   0  0  0  0  0  2  0  0  0  0  0  0
  189.2290  176.9670  143.8410 C   0  0  0  0  0  3  0  0  0  0  0  0
  189.1000  177.1620  145.3380 C   0  0  0  0  0  2  0  0  0  0  0  0
  187.8670  177.1990  144.4610 C   0  0  0  0  0  2  0  0  0  0  0  0
  189.7060  177.2290  135.5060 C   0  0  0  0  0  2  0  0  0  0  0  0
  189.9910  176.3210  134.4840 O   0  0  0  0  0  1  0  0  0  0  0  0
  185.5670  178.4060  137.8770 C   0  0  0  0  0  2  0  0  0  0  0  0
  184.5600  178.0540  138.8670 N   0  0  0  0  0  2  0  0  0  0  0  0
  184.4950  178.6700  140.1550 C   0  0  0  0  0  0  0  0  0  0  0  0
  185.3440  179.5370  140.4970 O   0  0  0  0  0  0  0  0  0  0  0  0
  183.4000  178.3020  141.0920 C   0  0  0  0  0  2  0  0  0  0  0  0
  182.0580  178.4650  140.4080 C   0  0  0  0  0  1  0  0  0  0  0  0
  189.3490  174.6240  137.6990 O   0  0  0  0  0  0  0  0  0  0  0  0
  190.5450  174.1560  137.1250 C   0  0  0  0  0  2  0  0  0  0  0  0
  194.8820  172.6510  138.1930 C   0  0  0  0  0  2  0  0  0  0  0  0
  192.9680  174.6680  137.3420 C   0  0  0  0  0  0  0  0  0  0  0  0
  191.6950  174.9800  137.6030 C   0  0  0  0  0  3  0  0  0  0  0  0
  193.1860  173.8690  135.1120 O   0  0  0  0  0  1  0  0  0  0  0  0
  193.7980  176.8290  137.8450 O   0  0  0  0  0  0  0  0  0  0  0  0
  195.3290  175.1210  138.1720 N   0  0  0  0  0  2  0  0  0  0  0  0
  194.0280  175.5910  137.8050 C   0  0  0  0  0  0  0  0  0  0  0  0
  194.6530  172.8380  136.7000 C   0  0  2  0  0  3  0  0  0  0  0  0
  193.2900  173.4860  136.4510 C   0  0  1  0  0  3  0  0  0  0  0  0
  195.6240  173.8360  138.8100 C   0  0  0  0  0  2  0  0  0  0  0  0
  194.7060  171.4880  136.0050 C   0  0  0  0  0  2  0  0  0  0  0  0
  193.6520  170.6840  136.4410 O   0  0  0  0  0  1  0  0  0  0  0  0
  1 24  1  1  0  0  0
  1  3  1  0  0  0  0
  2  3  1  0  0  0  0
  3 10  1  0  0  0  0
  4  6  1  0  0  0  0
  4  1  1  0  0  0  0
  5  4  1  0  0  0  0
  6  7  1  0  0  0  0
  6  2  1  0  0  0  0
  7 18  1  0  0  0  0
  7  2  1  0  0  0  0
  8  9  1  0  0  0  0
  9 11  1  0  0  0  0
 10  8  1  0  0  0  0
 10  9  1  0  0  0  0
 11 12  1  0  0  0  0
 12 13  1  0  0  0  0
 13 15  1  0  0  0  0
 13 14  1  0  0  0  0
 15 14  1  0  0  0  0
 16  4  1  0  0  0  0
 17 16  1  0  0  0  0
 18 19  1  0  0  0  0
 19 20  1  0  0  0  0
 20 21  2  0  0  0  0
 20 22  1  0  0  0  0
 23 22  1  0  0  0  0
 25 28  1  0  0  0  0
 25 24  1  0  0  0  0
 26 35  1  0  0  0  0
 27 28  2  0  0  0  0
 27 32  1  0  0  0  0
 29 34  1  0  0  0  0
 31 35  1  0  0  0  0
 32 30  2  0  0  0  0
 32 31  1  0  0  0  0
 33 26  1  0  0  0  0
 34 33  1  0  0  0  0
 34 27  1  0  0  0  0
 36 37  1  0  0  0  0
 36 33  1  0  0  0  0
M  END
>  <MODEL>
6

>  <REMARK>
 VINA RESULT:      -6.7      3.455      7.817
  Name = 
  12 active torsions:
  status: ('A' for Active; 'I' for Inactive)
    1  A    between atoms: C_1  and  N_5
    2  A    between atoms: C_1  and  C_36
    3  A    between atoms: C_3  and  N_32
    4  A    between atoms: C_4  and  C_22
    5  A    between atoms: C_7  and  C_33
    6  A    between atoms: C_8  and  C_31
    7  A    between atoms: C_10  and  O_14
    8  A    between atoms: C_12  and  C_17
    9  A    between atoms: O_14  and  C_31
   10  A    between atoms: C_16  and  C_30
   11  A    between atoms: C_20  and  C_24
   12  A    between atoms: C_30  and  N_32
                            x       y       z     vdW  Elec       q    Type
                         _______ _______ _______ _____ _____    ______ ____

>  <TORSDO>
F 12

$$$$
=
 OpenBabel10272415063D

 37 41  0  0  1  0  0  0  0  0999 V2000
  191.8890  175.7270  136.5290 C   0  0  2  0  0  3  0  0  0  0  0  0
  193.0800  173.6060  136.8500 C   0  0  1  0  0  3  0  0  0  0  0  0
  191.7150  174.2710  136.9520 C   0  0  2  0  0  3  0  0  0  0  0  0
  193.3860  176.0070  136.3480 C   0  0  1  0  0  0  0  0  0  0  0  0
  193.8720  176.9410  137.2700 O   0  0  0  0  0  1  0  0  0  0  0  0
  194.1130  174.6760  136.5260 C   0  0  1  0  0  3  0  0  0  0  0  0
  193.9870  174.1380  137.9440 C   0  0  2  0  0  3  0  0  0  0  0  0
  189.7120  174.4800  135.6720 O   0  0  0  0  0  0  0  0  0  0  0  0
  189.3960  173.5340  136.6630 C   0  0  2  0  0  3  0  0  0  0  0  0
  190.7310  173.5780  136.0300 C   0  0  2  0  0  3  0  0  0  0  0  0
  188.5750  172.4220  136.0450 C   0  0  0  0  0  2  0  0  0  0  0  0
  187.4120  172.1620  136.8720 N   0  0  0  0  0  2  0  0  0  0  0  0
  186.5840  173.3530  136.8190 C   0  0  0  0  0  3  0  0  0  0  0  0
  185.2380  172.9950  136.2230 C   0  0  0  0  0  2  0  0  0  0  0  0
  185.3810  173.1620  137.7200 C   0  0  0  0  0  2  0  0  0  0  0  0
  193.6450  176.5120  134.9360 C   0  0  0  0  0  2  0  0  0  0  0  0
  194.7980  177.2990  134.8960 O   0  0  0  0  0  1  0  0  0  0  0  0
  195.1040  173.1470  138.2030 C   0  0  0  0  0  2  0  0  0  0  0  0
  196.0070  173.6710  139.2180 N   0  0  0  0  0  2  0  0  0  0  0  0
  197.0440  174.6090  138.9200 C   0  0  0  0  0  0  0  0  0  0  0  0
  197.2380  174.9980  137.7360 O   0  0  0  0  0  0  0  0  0  0  0  0
  197.8880  175.1460  140.0200 C   0  0  0  0  0  2  0  0  0  0  0  0
  199.3530  175.0360  139.6480 C   0  0  0  0  0  1  0  0  0  0  0  0
  191.1840  176.6770  137.3100 O   0  0  0  0  0  0  0  0  0  0  0  0
  190.7940  176.0910  138.5270 C   0  0  0  0  0  2  0  0  0  0  0  0
  189.2270  175.9690  142.9710 C   0  0  0  0  0  2  0  0  0  0  0  0
  189.5640  177.2220  140.3690 C   0  0  0  0  0  0  0  0  0  0  0  0
  189.6240  176.8260  139.0940 C   0  0  0  0  0  3  0  0  0  0  0  0
  191.6820  178.0350  141.0850 O   0  0  0  0  0  1  0  0  0  0  0  0
  187.8270  178.7890  139.9980 O   0  0  0  0  0  0  0  0  0  0  0  0
  187.8900  177.9270  142.1490 N   0  0  0  0  0  2  0  0  0  0  0  0
  188.3880  178.0040  140.8090 C   0  0  0  0  0  0  0  0  0  0  0  0
  190.4170  176.8960  142.7710 C   0  0  2  0  0  3  0  0  0  0  0  0
  190.7540  177.0100  141.2830 C   0  0  1  0  0  3  0  0  0  0  0  0
  187.9040  176.7340  142.9970 C   0  0  0  0  0  2  0  0  0  0  0  0
  191.6200  176.3500  143.5210 C   0  0  0  0  0  2  0  0  0  0  0  0
  191.3830  176.3880  144.8950 O   0  0  0  0  0  1  0  0  0  0  0  0
  1  3  1  0  0  0  0
  1 24  1  1  0  0  0
  2  3  1  0  0  0  0
  2  7  1  0  0  0  0
  4  6  1  0  0  0  0
  4  1  1  0  0  0  0
  4  5  1  0  0  0  0
  6  2  1  0  0  0  0
  6  7  1  0  0  0  0
  7 18  1  0  0  0  0
  8 10  1  0  0  0  0
  8  9  1  0  0  0  0
 10  9  1  0  0  0  0
 10  3  1  0  0  0  0
 11  9  1  0  0  0  0
 11 12  1  0  0  0  0
 13 12  1  0  0  0  0
 13 15  1  0  0  0  0
 14 13  1  0  0  0  0
 14 15  1  0  0  0  0
 16  4  1  0  0  0  0
 17 16  1  0  0  0  0
 18 19  1  0  0  0  0
 20 19  1  0  0  0  0
 20 22  1  0  0  0  0
 21 20  2  0  0  0  0
 23 22  1  0  0  0  0
 24 25  1  0  0  0  0
 25 28  1  0  0  0  0
 26 35  1  0  0  0  0
 27 32  1  0  0  0  0
 27 34  1  0  0  0  0
 28 27  2  0  0  0  0
 29 34  1  0  0  0  0
 30 32  2  0  0  0  0
 31 35  1  0  0  0  0
 32 31  1  0  0  0  0
 33 26  1  0  0  0  0
 33 36  1  0  0  0  0
 34 33  1  0  0  0  0
 36 37  1  0  0  0  0
M  END
>  <MODEL>
7

>  <REMARK>
 VINA RESULT:      -6.7      4.008      8.643
  Name = 
  12 active torsions:
  status: ('A' for Active; 'I' for Inactive)
    1  A    between atoms: C_1  and  N_5
    2  A    between atoms: C_1  and  C_36
    3  A    between atoms: C_3  and  N_32
    4  A    between atoms: C_4  and  C_22
    5  A    between atoms: C_7  and  C_33
    6  A    between atoms: C_8  and  C_31
    7  A    between atoms: C_10  and  O_14
    8  A    between atoms: C_12  and  C_17
    9  A    between atoms: O_14  and  C_31
   10  A    between atoms: C_16  and  C_30
   11  A    between atoms: C_20  and  C_24
   12  A    between atoms: C_30  and  N_32
                            x       y       z     vdW  Elec       q    Type
                         _______ _______ _______ _____ _____    ______ ____

>  <TORSDO>
F 12

$$$$
=
 OpenBabel10272415063D

 37 41  0  0  1  0  0  0  0  0999 V2000
  189.5920  176.8380  137.2440 C   0  0  2  0  0  3  0  0  0  0  0  0
  191.2170  176.2630  138.9880 C   0  0  1  0  0  3  0  0  0  0  0  0
  190.1120  177.2420  138.6210 C   0  0  2  0  0  3  0  0  0  0  0  0
  190.4960  175.7340  136.6840 C   0  0  1  0  0  0  0  0  0  0  0  0
  191.1890  176.1370  135.5380 O   0  0  0  0  0  1  0  0  0  0  0  0
  191.4870  175.3680  137.7870 C   0  0  1  0  0  3  0  0  0  0  0  0
  192.4310  176.5150  138.1140 C   0  0  2  0  0  3  0  0  0  0  0  0
  188.4940  178.4600  139.8820 O   0  0  0  0  0  0  0  0  0  0  0  0
  189.3650  177.9290  140.8510 C   0  0  2  0  0  3  0  0  0  0  0  0
  188.9930  177.1660  139.6400 C   0  0  2  0  0  3  0  0  0  0  0  0
  188.5550  177.4370  142.0320 C   0  0  0  0  0  2  0  0  0  0  0  0
  189.2740  177.7150  143.2610 N   0  0  0  0  0  2  0  0  0  0  0  0
  188.7320  176.8280  144.2740 C   0  0  0  0  0  3  0  0  0  0  0  0
  188.6500  177.5710  145.5920 C   0  0  0  0  0  2  0  0  0  0  0  0
  187.4040  177.3750  144.7560 C   0  0  0  0  0  2  0  0  0  0  0  0
  189.6600  174.5040  136.3600 C   0  0  0  0  0  2  0  0  0  0  0  0
  189.8560  173.5060  137.3180 O   0  0  0  0  0  1  0  0  0  0  0  0
  193.6700  175.9640  138.7930 C   0  0  0  0  0  2  0  0  0  0  0  0
  194.5860  175.4290  137.7960 N   0  0  0  0  0  2  0  0  0  0  0  0
  195.4720  174.3410  138.0680 C   0  0  0  0  0  0  0  0  0  0  0  0
  195.5160  173.8170  139.2130 O   0  0  0  0  0  0  0  0  0  0  0  0
  196.3360  173.8080  136.9800 C   0  0  0  0  0  2  0  0  0  0  0  0
  197.4410  174.7960  136.6670 C   0  0  0  0  0  1  0  0  0  0  0  0
  189.3220  177.9110  136.3560 O   0  0  0  0  0  0  0  0  0  0  0  0
  188.0400  177.7520  135.8000 C   0  0  0  0  0  2  0  0  0  0  0  0
  183.4310  176.7640  135.8190 C   0  0  0  0  0  2  0  0  0  0  0  0
  185.9190  177.5740  137.0870 C   0  0  0  0  0  0  0  0  0  0  0  0
  187.0080  178.2710  136.7470 C   0  0  0  0  0  3  0  0  0  0  0  0
  186.4640  175.2770  137.3810 O   0  0  0  0  0  1  0  0  0  0  0  0
  185.4570  178.8740  139.0120 O   0  0  0  0  0  0  0  0  0  0  0  0
  183.5900  177.8850  138.0580 N   0  0  0  0  0  2  0  0  0  0  0  0
  184.9960  178.1530  138.0860 C   0  0  0  0  0  0  0  0  0  0  0  0
  184.2870  175.6880  136.4710 C   0  0  2  0  0  3  0  0  0  0  0  0
  185.7380  176.1580  136.5770 C   0  0  1  0  0  3  0  0  0  0  0  0
  182.7840  177.6840  136.8530 C   0  0  0  0  0  2  0  0  0  0  0  0
  184.2270  174.4170  135.6400 C   0  0  0  0  0  2  0  0  0  0  0  0
  183.8600  173.3380  136.4440 O   0  0  0  0  0  1  0  0  0  0  0  0
  1 24  1  6  0  0  0
  1  3  1  0  0  0  0
  3  2  1  0  0  0  0
  3 10  1  0  0  0  0
  4  1  1  0  0  0  0
  4  6  1  0  0  0  0
  5  4  1  0  0  0  0
  6  7  1  0  0  0  0
  6  2  1  0  0  0  0
  7 18  1  0  0  0  0
  7  2  1  0  0  0  0
  8  9  1  0  0  0  0
  9 11  1  0  0  0  0
 10  8  1  0  0  0  0
 10  9  1  0  0  0  0
 11 12  1  0  0  0  0
 12 13  1  0  0  0  0
 13 15  1  0  0  0  0
 13 14  1  0  0  0  0
 15 14  1  0  0  0  0
 16  4  1  0  0  0  0
 16 17  1  0  0  0  0
 19 20  1  0  0  0  0
 19 18  1  0  0  0  0
 20 21  2  0  0  0  0
 22 20  1  0  0  0  0
 23 22  1  0  0  0  0
 25 24  1  0  0  0  0
 25 28  1  0  0  0  0
 26 33  1  0  0  0  0
 26 35  1  0  0  0  0
 27 32  1  0  0  0  0
 28 27  2  0  0  0  0
 31 32  1  0  0  0  0
 32 30  2  0  0  0  0
 33 34  1  0  0  0  0
 34 27  1  0  0  0  0
 34 29  1  0  0  0  0
 35 31  1  0  0  0  0
 36 37  1  0  0  0  0
 36 33  1  0  0  0  0
M  END
>  <MODEL>
8

>  <REMARK>
 VINA RESULT:      -6.6      3.405      7.217
  Name = 
  12 active torsions:
  status: ('A' for Active; 'I' for Inactive)
    1  A    between atoms: C_1  and  N_5
    2  A    between atoms: C_1  and  C_36
    3  A    between atoms: C_3  and  N_32
    4  A    between atoms: C_4  and  C_22
    5  A    between atoms: C_7  and  C_33
    6  A    between atoms: C_8  and  C_31
    7  A    between atoms: C_10  and  O_14
    8  A    between atoms: C_12  and  C_17
    9  A    between atoms: O_14  and  C_31
   10  A    between atoms: C_16  and  C_30
   11  A    between atoms: C_20  and  C_24
   12  A    between atoms: C_30  and  N_32
                            x       y       z     vdW  Elec       q    Type
                         _______ _______ _______ _____ _____    ______ ____

>  <TORSDO>
F 12

$$$$
=
 OpenBabel10272415063D

 37 41  0  0  1  0  0  0  0  0999 V2000
  184.7920  178.7350  140.0740 C   0  0  2  0  0  3  0  0  0  0  0  0
  183.4280  178.9850  138.0510 C   0  0  1  0  0  3  0  0  0  0  0  0
  184.8490  179.0700  138.5860 C   0  0  2  0  0  3  0  0  0  0  0  0
  183.3210  178.6270  140.4940 C   0  0  1  0  0  0  0  0  0  0  0  0
  182.9520  179.6160  141.4120 O   0  0  0  0  0  1  0  0  0  0  0  0
  182.4840  178.7600  139.2240 C   0  0  1  0  0  3  0  0  0  0  0  0
  182.6100  180.1410  138.5960 C   0  0  2  0  0  3  0  0  0  0  0  0
  187.0380  178.1390  138.3950 O   0  0  0  0  0  0  0  0  0  0  0  0
  186.8260  178.7890  137.1660 C   0  0  2  0  0  3  0  0  0  0  0  0
  185.7360  178.0750  137.8640 C   0  0  2  0  0  3  0  0  0  0  0  0
  187.3660  177.9240  136.0470 C   0  0  0  0  0  2  0  0  0  0  0  0
  188.8170  177.9230  136.0920 N   0  0  0  0  0  2  0  0  0  0  0  0
  189.2300  176.5490  136.3080 C   0  0  0  0  0  3  0  0  0  0  0  0
  190.4870  176.2770  135.5070 C   0  0  0  0  0  2  0  0  0  0  0  0
  190.5800  176.5370  136.9950 C   0  0  0  0  0  2  0  0  0  0  0  0
  183.0620  177.2550  141.1010 C   0  0  0  0  0  2  0  0  0  0  0  0
  182.5830  176.3690  140.1330 O   0  0  0  0  0  1  0  0  0  0  0  0
  181.4170  180.3880  137.6940 C   0  0  0  0  0  2  0  0  0  0  0  0
  181.0610  181.8000  137.7170 N   0  0  0  0  0  2  0  0  0  0  0  0
  180.7220  182.5310  136.5370 C   0  0  0  0  0  0  0  0  0  0  0  0
  180.7480  181.9750  135.4060 O   0  0  0  0  0  0  0  0  0  0  0  0
  180.3100  183.9560  136.6480 C   0  0  0  0  0  2  0  0  0  0  0  0
  181.4670  184.7890  137.1620 C   0  0  0  0  0  1  0  0  0  0  0  0
  185.6060  179.5390  140.9120 O   0  0  0  0  0  0  0  0  0  0  0  0
  186.2460  178.7280  141.8660 C   0  0  0  0  0  2  0  0  0  0  0  0
  190.1660  178.6410  144.4830 C   0  0  0  0  0  2  0  0  0  0  0  0
  188.5440  177.8390  142.2070 C   0  0  0  0  0  0  0  0  0  0  0  0
  187.6310  178.4030  141.4100 C   0  0  0  0  0  3  0  0  0  0  0  0
  187.5360  176.1700  143.5710 O   0  0  0  0  0  1  0  0  0  0  0  0
  189.9420  177.1410  140.4270 O   0  0  0  0  0  0  0  0  0  0  0  0
  191.0570  177.5170  142.4240 N   0  0  0  0  0  2  0  0  0  0  0  0
  189.8630  177.4970  141.6340 C   0  0  0  0  0  0  0  0  0  0  0  0
  189.3190  177.3840  144.6140 C   0  0  2  0  0  3  0  0  0  0  0  0
  188.1640  177.4170  143.6120 C   0  0  1  0  0  3  0  0  0  0  0  0
  191.3370  178.4440  143.5220 C   0  0  0  0  0  2  0  0  0  0  0  0
  188.7620  177.2900  146.0250 C   0  0  0  0  0  2  0  0  0  0  0  0
  189.7770  176.9450  146.9170 O   0  0  0  0  0  1  0  0  0  0  0  0
  1  4  1  0  0  0  0
  1 24  1  1  0  0  0
  2  3  1  0  0  0  0
  2  7  1  0  0  0  0
  2  6  1  0  0  0  0
  3  1  1  0  0  0  0
  4 16  1  0  0  0  0
  4  5  1  0  0  0  0
  6  4  1  0  0  0  0
  7  6  1  0  0  0  0
  9 10  1  0  0  0  0
  9  8  1  0  0  0  0
 10  8  1  0  0  0  0
 10  3  1  0  0  0  0
 11 12  1  0  0  0  0
 11  9  1  0  0  0  0
 12 13  1  0  0  0  0
 13 15  1  0  0  0  0
 14 13  1  0  0  0  0
 14 15  1  0  0  0  0
 17 16  1  0  0  0  0
 18 19  1  0  0  0  0
 18  7  1  0  0  0  0
 20 22  1  0  0  0  0
 20 19  1  0  0  0  0
 21 20  2  0  0  0  0
 22 23  1  0  0  0  0
 24 25  1  0  0  0  0
 26 33  1  0  0  0  0
 27 34  1  0  0  0  0
 28 25  1  0  0  0  0
 28 27  2  0  0  0  0
 29 34  1  0  0  0  0
 30 32  2  0  0  0  0
 31 35  1  0  0  0  0
 32 27  1  0  0  0  0
 32 31  1  0  0  0  0
 33 36  1  0  0  0  0
 34 33  1  0  0  0  0
 35 26  1  0  0  0  0
 36 37  1  0  0  0  0
M  END
>  <MODEL>
9

>  <REMARK>
 VINA RESULT:      -6.5      3.425      9.488
  Name = 
  12 active torsions:
  status: ('A' for Active; 'I' for Inactive)
    1  A    between atoms: C_1  and  N_5
    2  A    between atoms: C_1  and  C_36
    3  A    between atoms: C_3  and  N_32
    4  A    between atoms: C_4  and  C_22
    5  A    between atoms: C_7  and  C_33
    6  A    between atoms: C_8  and  C_31
    7  A    between atoms: C_10  and  O_14
    8  A    between atoms: C_12  and  C_17
    9  A    between atoms: O_14  and  C_31
   10  A    between atoms: C_16  and  C_30
   11  A    between atoms: C_20  and  C_24
   12  A    between atoms: C_30  and  N_32
                            x       y       z     vdW  Elec       q    Type
                         _______ _______ _______ _____ _____    ______ ____

>  <TORSDO>
F 12

$$$$
