=
 OpenBabel10272400463D

 25 28  0  0  1  0  0  0  0  0999 V2000
  187.2160  177.8640  145.5220 C   0  0  0  0  0  0  0  0  0  0  0  0
  188.4970  177.4180  145.1490 C   0  0  0  0  0  0  0  0  0  0  0  0
  187.8780  177.8370  147.8560 C   0  0  0  0  0  3  0  0  0  0  0  0
  186.1090  178.1590  144.7010 C   0  0  0  0  0  0  0  0  0  0  0  0
  183.7220  178.8330  143.4150 C   0  0  0  0  0  3  0  0  0  0  0  0
  189.1160  177.4060  147.4860 N   0  0  0  0  0  0  0  0  0  0  0  0
  184.9980  178.5790  145.4280 C   0  0  0  0  0  0  0  0  0  0  0  0
  183.7970  178.9200  144.8130 C   0  0  0  0  0  3  0  0  0  0  0  0
  190.7440  176.7460  145.8400 C   0  0  0  0  0  0  0  0  0  0  0  0
  191.7760  176.5010  146.8870 C   0  0  0  0  0  1  0  0  0  0  0  0
  188.8550  177.1930  143.8130 C   0  0  0  0  0  3  0  0  0  0  0  0
  184.8360  178.4110  142.6660 C   0  0  0  0  0  3  0  0  0  0  0  0
  186.9290  178.0660  146.8690 C   0  0  0  0  0  0  0  0  0  0  0  0
  185.3430  178.5990  147.0770 S   0  0  0  0  0  0  0  0  0  0  0  0
  191.0780  176.5310  144.5000 C   0  0  0  0  0  3  0  0  0  0  0  0
  186.0370  178.0710  143.3080 C   0  0  0  0  0  3  0  0  0  0  0  0
  190.1380  176.7470  143.4900 C   0  0  0  0  0  0  0  0  0  0  0  0
  189.4530  177.1900  146.1780 C   0  0  0  0  0  0  0  0  0  0  0  0
  190.5130  176.5320  142.0660 C   0  0  0  0  0  2  0  0  0  0  0  0
  189.3580  176.9170  141.1590 C   0  0  0  0  0  2  0  0  0  0  0  0
  189.8750  177.6540  139.9340 C   0  0  1  0  0  3  0  0  0  0  0  0
  190.3380  176.7420  138.9840 O   0  0  0  0  0  1  0  0  0  0  0  0
  188.7890  178.4920  139.3470 C   0  0  0  0  0  0  0  0  0  0  0  0
  189.0270  179.2040  138.1790 O   0  0  0  0  0  0  0  0  0  0  0  0
  187.6670  178.5750  139.9120 O   0  0  0  0  0  1  0  0  0  0  0  0
  1 13  1  0  0  0  0
  2  1  2  0  0  0  0
  2 18  1  0  0  0  0
  4  7  1  0  0  0  0
  4  1  1  0  0  0  0
  5  8  1  0  0  0  0
  6  3  1  0  0  0  0
  7 14  1  0  0  0  0
  8  7  2  0  0  0  0
  9 18  1  0  0  0  0
  9 10  1  0  0  0  0
 11  2  1  0  0  0  0
 12 16  1  0  0  0  0
 12  5  2  0  0  0  0
 13 14  1  0  0  0  0
 13  3  2  0  0  0  0
 15  9  2  0  0  0  0
 16  4  2  0  0  0  0
 17 11  2  0  0  0  0
 17 15  1  0  0  0  0
 18  6  2  0  0  0  0
 19 17  1  0  0  0  0
 20 19  1  0  0  0  0
 21 22  1  6  0  0  0
 21 20  1  0  0  0  0
 23 25  1  0  0  0  0
 23 21  1  0  0  0  0
 24 23  2  0  0  0  0
M  END
>  <MODEL>
1

>  <REMARK>
 VINA RESULT:     -10.2      0.000      0.000
  Name = 
  4 active torsions:
  status: ('A' for Active; 'I' for Inactive)
    1  A    between atoms: C_2  and  C_21
    2  A    between atoms: C_6  and  C_15
    3  A    between atoms: C_6  and  C_23
    4  A    between atoms: C_15  and  C_21
                            x       y       z     vdW  Elec       q    Type
                         _______ _______ _______ _____ _____    ______ ____

>  <TORSDO>
F 4

$$$$
=
 OpenBabel10272400463D

 25 28  0  0  1  0  0  0  0  0999 V2000
  187.5140  177.8580  145.8110 C   0  0  0  0  0  0  0  0  0  0  0  0
  186.6950  178.1410  144.7020 C   0  0  0  0  0  0  0  0  0  0  0  0
  185.6720  178.3590  147.3090 C   0  0  0  0  0  3  0  0  0  0  0  0
  188.8620  177.4510  145.8310 C   0  0  0  0  0  0  0  0  0  0  0  0
  191.5000  176.6420  146.2730 C   0  0  0  0  0  3  0  0  0  0  0  0
  184.8860  178.6310  146.2310 N   0  0  0  0  0  0  0  0  0  0  0  0
  189.3460  177.2610  147.1240 C   0  0  0  0  0  0  0  0  0  0  0  0
  190.6560  176.8590  147.3720 C   0  0  0  0  0  3  0  0  0  0  0  0
  184.5030  178.8240  143.8620 C   0  0  0  0  0  0  0  0  0  0  0  0
  183.0860  179.2360  144.0750 C   0  0  0  0  0  1  0  0  0  0  0  0
  187.1570  178.0480  143.3830 C   0  0  0  0  0  3  0  0  0  0  0  0
  191.0260  176.8290  144.9620 C   0  0  0  0  0  3  0  0  0  0  0  0
  186.9880  177.9710  147.0940 C   0  0  0  0  0  0  0  0  0  0  0  0
  188.1440  177.5840  148.2590 S   0  0  0  0  0  0  0  0  0  0  0  0
  184.9860  178.7220  142.5550 C   0  0  0  0  0  3  0  0  0  0  0  0
  189.7020  177.2350  144.7340 C   0  0  0  0  0  3  0  0  0  0  0  0
  186.3080  178.3420  142.3130 C   0  0  0  0  0  0  0  0  0  0  0  0
  185.3490  178.5360  144.9470 C   0  0  0  0  0  0  0  0  0  0  0  0
  186.8040  178.2190  140.9160 C   0  0  0  0  0  2  0  0  0  0  0  0
  188.2990  178.4800  140.8690 C   0  0  0  0  0  2  0  0  0  0  0  0
  188.9200  177.7620  139.6810 C   0  0  1  0  0  3  0  0  0  0  0  0
  189.2770  178.6840  138.6960 O   0  0  0  0  0  1  0  0  0  0  0  0
  190.1240  176.9970  140.1190 C   0  0  0  0  0  0  0  0  0  0  0  0
  190.6340  175.9940  139.3050 O   0  0  0  0  0  0  0  0  0  0  0  0
  190.6680  177.2390  141.2290 O   0  0  0  0  0  1  0  0  0  0  0  0
  1  4  1  0  0  0  0
  1 13  2  0  0  0  0
  2 18  1  0  0  0  0
  2  1  1  0  0  0  0
  4  7  1  0  0  0  0
  5  8  1  0  0  0  0
  6  3  2  0  0  0  0
  7  8  2  0  0  0  0
  7 14  1  0  0  0  0
  9 10  1  0  0  0  0
  9 18  2  0  0  0  0
 11  2  2  0  0  0  0
 12  5  2  0  0  0  0
 13  3  1  0  0  0  0
 13 14  1  0  0  0  0
 15  9  1  0  0  0  0
 16 12  1  0  0  0  0
 16  4  2  0  0  0  0
 17 15  2  0  0  0  0
 17 11  1  0  0  0  0
 18  6  1  0  0  0  0
 19 17  1  0  0  0  0
 20 19  1  0  0  0  0
 21 22  1  6  0  0  0
 21 23  1  0  0  0  0
 21 20  1  0  0  0  0
 23 25  1  0  0  0  0
 24 23  2  0  0  0  0
M  END
>  <MODEL>
2

>  <REMARK>
 VINA RESULT:     -10.0      1.557      4.701
  Name = 
  4 active torsions:
  status: ('A' for Active; 'I' for Inactive)
    1  A    between atoms: C_2  and  C_21
    2  A    between atoms: C_6  and  C_15
    3  A    between atoms: C_6  and  C_23
    4  A    between atoms: C_15  and  C_21
                            x       y       z     vdW  Elec       q    Type
                         _______ _______ _______ _____ _____    ______ ____

>  <TORSDO>
F 4

$$$$
=
 OpenBabel10272400463D

 25 28  0  0  1  0  0  0  0  0999 V2000
  189.3450  177.4860  144.0630 C   0  0  0  0  0  0  0  0  0  0  0  0
  188.3680  177.7560  145.0390 C   0  0  0  0  0  0  0  0  0  0  0  0
  190.9500  176.9580  145.8050 C   0  0  0  0  0  3  0  0  0  0  0  0
  189.2350  177.5530  142.6600 C   0  0  0  0  0  0  0  0  0  0  0  0
  189.4000  177.5720  139.8710 C   0  0  0  0  0  3  0  0  0  0  0  0
  189.9980  177.2200  146.7430 N   0  0  0  0  0  0  0  0  0  0  0  0
  190.4190  177.2120  142.0110 C   0  0  0  0  0  0  0  0  0  0  0  0
  190.5290  177.2140  140.6230 C   0  0  0  0  0  3  0  0  0  0  0  0
  187.7770  177.8700  147.4090 C   0  0  0  0  0  0  0  0  0  0  0  0
  188.1150  177.7270  148.8530 C   0  0  0  0  0  1  0  0  0  0  0  0
  187.0670  178.1570  144.7080 C   0  0  0  0  0  3  0  0  0  0  0  0
  188.1970  177.9190  140.5120 C   0  0  0  0  0  3  0  0  0  0  0  0
  190.6180  177.0920  144.4630 C   0  0  0  0  0  0  0  0  0  0  0  0
  191.6160  176.8240  143.1310 S   0  0  0  0  0  0  0  0  0  0  0  0
  186.4850  178.2680  147.0550 C   0  0  0  0  0  3  0  0  0  0  0  0
  188.1080  177.9110  141.9120 C   0  0  0  0  0  3  0  0  0  0  0  0
  186.1300  178.4170  145.7110 C   0  0  0  0  0  0  0  0  0  0  0  0
  188.7300  177.6120  146.4080 C   0  0  0  0  0  0  0  0  0  0  0  0
  184.7450  178.8220  145.3480 C   0  0  0  0  0  2  0  0  0  0  0  0
  184.7170  179.3670  143.9310 C   0  0  0  0  0  2  0  0  0  0  0  0
  183.7290  178.5800  143.0860 C   0  0  1  0  0  3  0  0  0  0  0  0
  182.4620  179.1620  143.1600 O   0  0  0  0  0  1  0  0  0  0  0  0
  184.1880  178.5420  141.6670 C   0  0  0  0  0  0  0  0  0  0  0  0
  185.0780  179.5030  141.2060 O   0  0  0  0  0  1  0  0  0  0  0  0
  183.7600  177.6580  140.8780 O   0  0  0  0  0  0  0  0  0  0  0  0
  1 13  1  0  0  0  0
  1  2  2  0  0  0  0
  2 18  1  0  0  0  0
  3  6  1  0  0  0  0
  4  1  1  0  0  0  0
  5 12  2  0  0  0  0
  5  8  1  0  0  0  0
  7  4  1  0  0  0  0
  7 14  1  0  0  0  0
  8  7  2  0  0  0  0
  9 10  1  0  0  0  0
 11  2  1  0  0  0  0
 11 17  2  0  0  0  0
 12 16  1  0  0  0  0
 13  3  2  0  0  0  0
 14 13  1  0  0  0  0
 15  9  2  0  0  0  0
 16  4  2  0  0  0  0
 17 15  1  0  0  0  0
 18  6  2  0  0  0  0
 18  9  1  0  0  0  0
 19 17  1  0  0  0  0
 20 19  1  0  0  0  0
 21 22  1  6  0  0  0
 21 20  1  0  0  0  0
 23 21  1  0  0  0  0
 24 23  1  0  0  0  0
 25 23  2  0  0  0  0
M  END
>  <MODEL>
3

>  <REMARK>
 VINA RESULT:      -9.8      2.458      5.182
  Name = 
  4 active torsions:
  status: ('A' for Active; 'I' for Inactive)
    1  A    between atoms: C_2  and  C_21
    2  A    between atoms: C_6  and  C_15
    3  A    between atoms: C_6  and  C_23
    4  A    between atoms: C_15  and  C_21
                            x       y       z     vdW  Elec       q    Type
                         _______ _______ _______ _____ _____    ______ ____

>  <TORSDO>
F 4

$$$$
=
 OpenBabel10272400463D

 25 28  0  0  1  0  0  0  0  0999 V2000
  189.5600  177.4710  144.1550 C   0  0  0  0  0  0  0  0  0  0  0  0
  188.9240  177.7400  142.9300 C   0  0  0  0  0  0  0  0  0  0  0  0
  191.6340  177.0020  142.9850 C   0  0  0  0  0  3  0  0  0  0  0  0
  189.0250  177.5160  145.4570 C   0  0  0  0  0  0  0  0  0  0  0  0
  188.3280  177.4950  148.1630 C   0  0  0  0  0  3  0  0  0  0  0  0
  191.0100  177.2640  141.8030 N   0  0  0  0  0  0  0  0  0  0  0  0
  189.9600  177.1860  146.4350 C   0  0  0  0  0  0  0  0  0  0  0  0
  189.6400  177.1680  147.7900 C   0  0  0  0  0  3  0  0  0  0  0  0
  189.0880  177.8890  140.4950 C   0  0  0  0  0  0  0  0  0  0  0  0
  189.8580  177.7860  139.2230 C   0  0  0  0  0  1  0  0  0  0  0  0
  187.5760  178.1100  142.8490 C   0  0  0  0  0  3  0  0  0  0  0  0
  187.3710  177.8300  147.1880 C   0  0  0  0  0  3  0  0  0  0  0  0
  190.9040  177.1080  144.1610 C   0  0  0  0  0  0  0  0  0  0  0  0
  191.4510  176.8370  145.7330 S   0  0  0  0  0  0  0  0  0  0  0  0
  187.7410  178.2590  140.4390 C   0  0  0  0  0  3  0  0  0  0  0  0
  187.7160  177.8420  145.8270 C   0  0  0  0  0  3  0  0  0  0  0  0
  186.9850  178.3650  141.6090 C   0  0  0  0  0  0  0  0  0  0  0  0
  189.6920  177.6250  141.7370 C   0  0  0  0  0  0  0  0  0  0  0  0
  185.5570  178.7780  141.5370 C   0  0  0  0  0  2  0  0  0  0  0  0
  184.8980  178.6140  142.8950 C   0  0  0  0  0  2  0  0  0  0  0  0
  183.4730  179.1410  142.8540 C   0  0  1  0  0  3  0  0  0  0  0  0
  182.7450  178.4820  141.8610 O   0  0  0  0  0  1  0  0  0  0  0  0
  182.8170  178.9440  144.1800 C   0  0  0  0  0  0  0  0  0  0  0  0
  183.5590  179.0990  145.3430 O   0  0  0  0  0  1  0  0  0  0  0  0
  181.6020  178.6200  144.2510 O   0  0  0  0  0  0  0  0  0  0  0  0
  1 13  2  0  0  0  0
  1  4  1  0  0  0  0
  2  1  1  0  0  0  0
  3 13  1  0  0  0  0
  4 16  2  0  0  0  0
  4  7  1  0  0  0  0
  6  3  2  0  0  0  0
  7  8  2  0  0  0  0
  8  5  1  0  0  0  0
  9 18  1  0  0  0  0
 10  9  1  0  0  0  0
 11  2  1  0  0  0  0
 12  5  2  0  0  0  0
 13 14  1  0  0  0  0
 14  7  1  0  0  0  0
 15  9  2  0  0  0  0
 15 17  1  0  0  0  0
 16 12  1  0  0  0  0
 17 11  2  0  0  0  0
 18  6  1  0  0  0  0
 18  2  2  0  0  0  0
 19 17  1  0  0  0  0
 19 20  1  0  0  0  0
 21 22  1  6  0  0  0
 21 20  1  0  0  0  0
 21 23  1  0  0  0  0
 23 25  2  0  0  0  0
 23 24  1  0  0  0  0
M  END
>  <MODEL>
4

>  <REMARK>
 VINA RESULT:      -9.4      3.207      5.858
  Name = 
  4 active torsions:
  status: ('A' for Active; 'I' for Inactive)
    1  A    between atoms: C_2  and  C_21
    2  A    between atoms: C_6  and  C_15
    3  A    between atoms: C_6  and  C_23
    4  A    between atoms: C_15  and  C_21
                            x       y       z     vdW  Elec       q    Type
                         _______ _______ _______ _____ _____    ______ ____

>  <TORSDO>
F 4

$$$$
=
 OpenBabel10272400463D

 25 28  0  0  1  0  0  0  0  0999 V2000
  185.7270  178.3740  144.3410 C   0  0  0  0  0  0  0  0  0  0  0  0
  186.8990  178.0740  145.0600 C   0  0  0  0  0  0  0  0  0  0  0  0
  184.4870  178.5490  146.4190 C   0  0  0  0  0  3  0  0  0  0  0  0
  185.5510  178.4860  142.9480 C   0  0  0  0  0  0  0  0  0  0  0  0
  184.8160  178.7890  140.2690 C   0  0  0  0  0  3  0  0  0  0  0  0
  185.6250  178.2580  147.1070 N   0  0  0  0  0  0  0  0  0  0  0  0
  184.2400  178.8000  142.5950 C   0  0  0  0  0  0  0  0  0  0  0  0
  183.8470  178.9560  141.2690 C   0  0  0  0  0  3  0  0  0  0  0  0
  187.9700  177.7260  147.2300 C   0  0  0  0  0  0  0  0  0  0  0  0
  187.9280  177.6650  148.7190 C   0  0  0  0  0  1  0  0  0  0  0  0
  188.1250  177.8290  144.4300 C   0  0  0  0  0  3  0  0  0  0  0  0
  186.1440  178.4720  140.6080 C   0  0  0  0  0  3  0  0  0  0  0  0
  184.5420  178.6070  145.0320 C   0  0  0  0  0  0  0  0  0  0  0  0
  183.2780  178.9460  143.9700 S   0  0  0  0  0  0  0  0  0  0  0  0
  189.1830  177.4860  146.5790 C   0  0  0  0  0  3  0  0  0  0  0  0
  186.5180  178.3190  141.9520 C   0  0  0  0  0  3  0  0  0  0  0  0
  189.2620  177.5310  145.1850 C   0  0  0  0  0  0  0  0  0  0  0  0
  186.8170  178.0210  146.4800 C   0  0  0  0  0  0  0  0  0  0  0  0
  190.5640  177.2930  144.5060 C   0  0  0  0  0  2  0  0  0  0  0  0
  190.4950  177.7680  143.0650 C   0  0  0  0  0  2  0  0  0  0  0  0
  190.8590  176.6340  142.1200 C   0  0  1  0  0  3  0  0  0  0  0  0
  190.3430  175.4280  142.5970 O   0  0  0  0  0  1  0  0  0  0  0  0
  190.3210  176.9130  140.7570 C   0  0  0  0  0  0  0  0  0  0  0  0
  189.6020  178.0790  140.5270 O   0  0  0  0  0  1  0  0  0  0  0  0
  190.4980  176.0920  139.8180 O   0  0  0  0  0  0  0  0  0  0  0  0
  1 13  1  0  0  0  0
  1  2  2  0  0  0  0
  2 18  1  0  0  0  0
  3  6  1  0  0  0  0
  4  1  1  0  0  0  0
  5 12  2  0  0  0  0
  5  8  1  0  0  0  0
  7  4  1  0  0  0  0
  7 14  1  0  0  0  0
  8  7  2  0  0  0  0
  9 10  1  0  0  0  0
 11  2  1  0  0  0  0
 11 17  2  0  0  0  0
 12 16  1  0  0  0  0
 13  3  2  0  0  0  0
 14 13  1  0  0  0  0
 15  9  2  0  0  0  0
 16  4  2  0  0  0  0
 17 15  1  0  0  0  0
 18  6  2  0  0  0  0
 18  9  1  0  0  0  0
 19 17  1  0  0  0  0
 20 19  1  0  0  0  0
 21 22  1  1  0  0  0
 21 20  1  0  0  0  0
 23 21  1  0  0  0  0
 24 23  1  0  0  0  0
 25 23  2  0  0  0  0
M  END
>  <MODEL>
5

>  <REMARK>
 VINA RESULT:      -9.3      1.726      2.935
  Name = 
  4 active torsions:
  status: ('A' for Active; 'I' for Inactive)
    1  A    between atoms: C_2  and  C_21
    2  A    between atoms: C_6  and  C_15
    3  A    between atoms: C_6  and  C_23
    4  A    between atoms: C_15  and  C_21
                            x       y       z     vdW  Elec       q    Type
                         _______ _______ _______ _____ _____    ______ ____

>  <TORSDO>
F 4

$$$$
=
 OpenBabel10272400463D

 25 28  0  0  1  0  0  0  0  0999 V2000
  186.8410  177.8940  144.8500 C   0  0  0  0  0  0  0  0  0  0  0  0
  188.0510  177.5420  144.2240 C   0  0  0  0  0  0  0  0  0  0  0  0
  187.8740  177.6050  147.0270 C   0  0  0  0  0  3  0  0  0  0  0  0
  185.6120  178.2490  144.2600 C   0  0  0  0  0  0  0  0  0  0  0  0
  183.0380  178.9930  143.4660 C   0  0  0  0  0  3  0  0  0  0  0  0
  189.0410  177.2650  146.4130 N   0  0  0  0  0  0  0  0  0  0  0  0
  184.6270  178.5380  145.2020 C   0  0  0  0  0  0  0  0  0  0  0  0
  183.3370  178.9110  144.8340 C   0  0  0  0  0  3  0  0  0  0  0  0
  190.3900  176.8690  144.4580 C   0  0  0  0  0  0  0  0  0  0  0  0
  191.5820  176.5330  145.2880 C   0  0  0  0  0  1  0  0  0  0  0  0
  188.1900  177.4950  142.8310 C   0  0  0  0  0  3  0  0  0  0  0  0
  184.0210  178.7040  142.5030 C   0  0  0  0  0  3  0  0  0  0  0  0
  186.7740  177.9200  146.2400 C   0  0  0  0  0  0  0  0  0  0  0  0
  185.2350  178.3680  146.7640 S   0  0  0  0  0  0  0  0  0  0  0  0
  190.5050  176.8310  143.0660 C   0  0  0  0  0  3  0  0  0  0  0  0
  185.3160  178.3300  142.8960 C   0  0  0  0  0  3  0  0  0  0  0  0
  189.4100  177.1360  142.2540 C   0  0  0  0  0  0  0  0  0  0  0  0
  189.1650  177.2230  145.0510 C   0  0  0  0  0  0  0  0  0  0  0  0
  189.5520  177.1100  140.7720 C   0  0  0  0  0  2  0  0  0  0  0  0
  191.0200  177.0350  140.3910 C   0  0  0  0  0  2  0  0  0  0  0  0
  191.1650  176.5610  138.9540 C   0  0  1  0  0  3  0  0  0  0  0  0
  190.3730  177.3400  138.1090 O   0  0  0  0  0  1  0  0  0  0  0  0
  192.5940  176.6440  138.5310 C   0  0  0  0  0  0  0  0  0  0  0  0
  192.9650  176.1850  137.2740 O   0  0  0  0  0  0  0  0  0  0  0  0
  193.4670  177.1070  139.3100 O   0  0  0  0  0  1  0  0  0  0  0  0
  1 13  1  0  0  0  0
  2  1  2  0  0  0  0
  2 18  1  0  0  0  0
  4  1  1  0  0  0  0
  4  7  1  0  0  0  0
  5  8  1  0  0  0  0
  6  3  1  0  0  0  0
  7 14  1  0  0  0  0
  8  7  2  0  0  0  0
  9 18  1  0  0  0  0
  9 10  1  0  0  0  0
 11  2  1  0  0  0  0
 12 16  1  0  0  0  0
 12  5  2  0  0  0  0
 13 14  1  0  0  0  0
 13  3  2  0  0  0  0
 15  9  2  0  0  0  0
 16  4  2  0  0  0  0
 17 11  2  0  0  0  0
 17 15  1  0  0  0  0
 18  6  2  0  0  0  0
 19 17  1  0  0  0  0
 20 19  1  0  0  0  0
 21 22  1  6  0  0  0
 21 20  1  0  0  0  0
 23 21  1  0  0  0  0
 23 25  1  0  0  0  0
 24 23  2  0  0  0  0
M  END
>  <MODEL>
6

>  <REMARK>
 VINA RESULT:      -9.3      1.402      2.104
  Name = 
  4 active torsions:
  status: ('A' for Active; 'I' for Inactive)
    1  A    between atoms: C_2  and  C_21
    2  A    between atoms: C_6  and  C_15
    3  A    between atoms: C_6  and  C_23
    4  A    between atoms: C_15  and  C_21
                            x       y       z     vdW  Elec       q    Type
                         _______ _______ _______ _____ _____    ______ ____

>  <TORSDO>
F 4

$$$$
=
 OpenBabel10272400463D

 25 28  0  0  1  0  0  0  0  0999 V2000
  186.0730  178.5020  142.6350 C   0  0  0  0  0  0  0  0  0  0  0  0
  187.2310  178.2140  141.8890 C   0  0  0  0  0  0  0  0  0  0  0  0
  184.8890  179.0700  140.5950 C   0  0  0  0  0  3  0  0  0  0  0  0
  185.8780  178.4260  144.0280 C   0  0  0  0  0  0  0  0  0  0  0  0
  185.1180  178.3990  146.7170 C   0  0  0  0  0  3  0  0  0  0  0  0
  186.0140  178.7880  139.8800 N   0  0  0  0  0  0  0  0  0  0  0  0
  184.5900  178.7900  144.4120 C   0  0  0  0  0  0  0  0  0  0  0  0
  184.1850  178.7850  145.7440 C   0  0  0  0  0  3  0  0  0  0  0  0
  188.3100  178.0870  139.6990 C   0  0  0  0  0  0  0  0  0  0  0  0
  188.2900  178.2330  138.2160 C   0  0  0  0  0  1  0  0  0  0  0  0
  188.4220  177.7850  142.4870 C   0  0  0  0  0  3  0  0  0  0  0  0
  186.4230  178.0280  146.3460 C   0  0  0  0  0  3  0  0  0  0  0  0
  184.9230  178.9250  141.9750 C   0  0  0  0  0  0  0  0  0  0  0  0
  183.6680  179.2090  143.0650 S   0  0  0  0  0  0  0  0  0  0  0  0
  189.4880  177.6590  140.3180 C   0  0  0  0  0  3  0  0  0  0  0  0
  186.8100  178.0400  144.9970 C   0  0  0  0  0  3  0  0  0  0  0  0
  189.5480  177.5130  141.7060 C   0  0  0  0  0  0  0  0  0  0  0  0
  187.1720  178.3700  140.4760 C   0  0  0  0  0  0  0  0  0  0  0  0
  190.8020  177.0370  142.3510 C   0  0  0  0  0  2  0  0  0  0  0  0
  190.5110  176.5440  143.7570 C   0  0  0  0  0  2  0  0  0  0  0  0
  191.5470  177.0860  144.7280 C   0  0  1  0  0  3  0  0  0  0  0  0
  191.7870  178.4360  144.4710 O   0  0  0  0  0  1  0  0  0  0  0  0
  191.0710  176.9130  146.1320 C   0  0  0  0  0  0  0  0  0  0  0  0
  191.9820  176.6080  147.1340 O   0  0  0  0  0  1  0  0  0  0  0  0
  189.8480  177.0230  146.4110 O   0  0  0  0  0  0  0  0  0  0  0  0
  1  4  1  0  0  0  0
  2 11  1  0  0  0  0
  2  1  1  0  0  0  0
  3 13  1  0  0  0  0
  4  7  2  0  0  0  0
  4 16  1  0  0  0  0
  6 18  1  0  0  0  0
  6  3  2  0  0  0  0
  7  8  1  0  0  0  0
  8  5  2  0  0  0  0
  9 15  2  0  0  0  0
  9 18  1  0  0  0  0
 10  9  1  0  0  0  0
 12  5  1  0  0  0  0
 13  1  2  0  0  0  0
 13 14  1  0  0  0  0
 14  7  1  0  0  0  0
 15 17  1  0  0  0  0
 16 12  2  0  0  0  0
 17 19  1  0  0  0  0
 17 11  2  0  0  0  0
 18  2  2  0  0  0  0
 19 20  1  0  0  0  0
 20 21  1  0  0  0  0
 21 22  1  6  0  0  0
 21 23  1  0  0  0  0
 23 25  2  0  0  0  0
 23 24  1  0  0  0  0
M  END
>  <MODEL>
7

>  <REMARK>
 VINA RESULT:      -9.3      3.271      5.330
  Name = 
  4 active torsions:
  status: ('A' for Active; 'I' for Inactive)
    1  A    between atoms: C_2  and  C_21
    2  A    between atoms: C_6  and  C_15
    3  A    between atoms: C_6  and  C_23
    4  A    between atoms: C_15  and  C_21
                            x       y       z     vdW  Elec       q    Type
                         _______ _______ _______ _____ _____    ______ ____

>  <TORSDO>
F 4

$$$$
=
 OpenBabel10272400463D

 25 28  0  0  1  0  0  0  0  0999 V2000
  187.0000  178.0460  142.8340 C   0  0  0  0  0  0  0  0  0  0  0  0
  188.3210  177.6170  142.6130 C   0  0  0  0  0  0  0  0  0  0  0  0
  186.7110  178.4130  140.4530 C   0  0  0  0  0  3  0  0  0  0  0  0
  186.2960  178.1470  144.0500 C   0  0  0  0  0  0  0  0  0  0  0  0
  184.5940  178.4810  146.2410 C   0  0  0  0  0  3  0  0  0  0  0  0
  187.9910  177.9970  140.2470 N   0  0  0  0  0  0  0  0  0  0  0  0
  184.9940  178.6120  143.8810 C   0  0  0  0  0  0  0  0  0  0  0  0
  184.1250  178.7880  144.9550 C   0  0  0  0  0  3  0  0  0  0  0  0
  190.1210  177.1780  141.0170 C   0  0  0  0  0  0  0  0  0  0  0  0
  190.6640  177.1430  139.6290 C   0  0  0  0  0  1  0  0  0  0  0  0
  189.1640  177.2110  143.6550 C   0  0  0  0  0  3  0  0  0  0  0  0
  185.9060  178.0100  146.4280 C   0  0  0  0  0  3  0  0  0  0  0  0
  186.2180  178.4360  141.7510 C   0  0  0  0  0  0  0  0  0  0  0  0
  184.6780  178.9060  142.2520 S   0  0  0  0  0  0  0  0  0  0  0  0
  190.9420  176.7750  142.0730 C   0  0  0  0  0  3  0  0  0  0  0  0
  186.7650  177.8410  145.3320 C   0  0  0  0  0  3  0  0  0  0  0  0
  190.4710  176.7960  143.3880 C   0  0  0  0  0  0  0  0  0  0  0  0
  188.8050  177.6030  141.2740 C   0  0  0  0  0  0  0  0  0  0  0  0
  191.3500  176.3470  144.5010 C   0  0  0  0  0  2  0  0  0  0  0  0
  191.2870  177.3390  145.6480 C   0  0  0  0  0  2  0  0  0  0  0  0
  190.9970  176.6170  146.9530 C   0  0  1  0  0  3  0  0  0  0  0  0
  191.9810  176.9160  147.8970 O   0  0  0  0  0  1  0  0  0  0  0  0
  189.6570  177.0170  147.4720 C   0  0  0  0  0  0  0  0  0  0  0  0
  189.4270  178.3380  147.8350 O   0  0  0  0  0  1  0  0  0  0  0  0
  188.7400  176.1640  147.6020 O   0  0  0  0  0  0  0  0  0  0  0  0
  1  4  1  0  0  0  0
  2  1  1  0  0  0  0
  2 11  1  0  0  0  0
  3 13  1  0  0  0  0
  4 16  1  0  0  0  0
  5 12  1  0  0  0  0
  6  3  2  0  0  0  0
  6 18  1  0  0  0  0
  7  4  2  0  0  0  0
  7  8  1  0  0  0  0
  8  5  2  0  0  0  0
  9 18  1  0  0  0  0
  9 15  2  0  0  0  0
 10  9  1  0  0  0  0
 13 14  1  0  0  0  0
 13  1  2  0  0  0  0
 14  7  1  0  0  0  0
 15 17  1  0  0  0  0
 16 12  2  0  0  0  0
 17 11  2  0  0  0  0
 17 19  1  0  0  0  0
 18  2  2  0  0  0  0
 19 20  1  0  0  0  0
 20 21  1  0  0  0  0
 21 23  1  0  0  0  0
 21 22  1  1  0  0  0
 23 25  2  0  0  0  0
 23 24  1  0  0  0  0
M  END
>  <MODEL>
8

>  <REMARK>
 VINA RESULT:      -9.3      3.680      5.328
  Name = 
  4 active torsions:
  status: ('A' for Active; 'I' for Inactive)
    1  A    between atoms: C_2  and  C_21
    2  A    between atoms: C_6  and  C_15
    3  A    between atoms: C_6  and  C_23
    4  A    between atoms: C_15  and  C_21
                            x       y       z     vdW  Elec       q    Type
                         _______ _______ _______ _____ _____    ______ ____

>  <TORSDO>
F 4

$$$$
=
 OpenBabel10272400463D

 25 28  0  0  1  0  0  0  0  0999 V2000
  188.8640  177.6610  143.9530 C   0  0  0  0  0  0  0  0  0  0  0  0
  187.4820  177.9020  144.0630 C   0  0  0  0  0  0  0  0  0  0  0  0
  189.0510  177.5770  146.3710 C   0  0  0  0  0  3  0  0  0  0  0  0
  189.6500  177.5440  142.7890 C   0  0  0  0  0  0  0  0  0  0  0  0
  191.5180  177.2540  140.7310 C   0  0  0  0  0  3  0  0  0  0  0  0
  187.7130  177.8110  146.4690 N   0  0  0  0  0  0  0  0  0  0  0  0
  190.9930  177.3010  143.0700 C   0  0  0  0  0  0  0  0  0  0  0  0
  191.9440  177.1530  142.0640 C   0  0  0  0  0  3  0  0  0  0  0  0
  185.5390  178.2130  145.5140 C   0  0  0  0  0  0  0  0  0  0  0  0
  184.9080  178.2910  146.8630 C   0  0  0  0  0  1  0  0  0  0  0  0
  186.6570  178.0720  142.9440 C   0  0  0  0  0  3  0  0  0  0  0  0
  190.1660  177.5000  140.4320 C   0  0  0  0  0  3  0  0  0  0  0  0
  189.6240  177.5020  145.1080 C   0  0  0  0  0  0  0  0  0  0  0  0
  191.2440  177.2230  144.7340 S   0  0  0  0  0  0  0  0  0  0  0  0
  184.7360  178.3770  144.3830 C   0  0  0  0  0  3  0  0  0  0  0  0
  189.2230  177.6460  141.4610 C   0  0  0  0  0  3  0  0  0  0  0  0
  185.2910  178.3130  143.1020 C   0  0  0  0  0  0  0  0  0  0  0  0
  186.9170  177.9750  145.3680 C   0  0  0  0  0  0  0  0  0  0  0  0
  184.4200  178.4710  141.9060 C   0  0  0  0  0  2  0  0  0  0  0  0
  185.2100  179.0870  140.7650 C   0  0  0  0  0  2  0  0  0  0  0  0
  184.3820  179.0820  139.4900 C   0  0  1  0  0  3  0  0  0  0  0  0
  184.1660  180.3900  139.0520 O   0  0  0  0  0  1  0  0  0  0  0  0
  185.0810  178.3000  138.4290 C   0  0  0  0  0  0  0  0  0  0  0  0
  184.4700  177.1770  137.8870 O   0  0  0  0  0  0  0  0  0  0  0  0
  186.2290  178.6390  138.0350 O   0  0  0  0  0  1  0  0  0  0  0  0
  1  2  2  0  0  0  0
  1 13  1  0  0  0  0
  2 18  1  0  0  0  0
  3  6  1  0  0  0  0
  4  7  1  0  0  0  0
  4  1  1  0  0  0  0
  5  8  1  0  0  0  0
  7 14  1  0  0  0  0
  8  7  2  0  0  0  0
  9 10  1  0  0  0  0
 11 17  2  0  0  0  0
 11  2  1  0  0  0  0
 12  5  2  0  0  0  0
 12 16  1  0  0  0  0
 13  3  2  0  0  0  0
 14 13  1  0  0  0  0
 15  9  2  0  0  0  0
 16  4  2  0  0  0  0
 17 15  1  0  0  0  0
 18  9  1  0  0  0  0
 18  6  2  0  0  0  0
 19 17  1  0  0  0  0
 20 19  1  0  0  0  0
 21 22  1  6  0  0  0
 21 20  1  0  0  0  0
 23 21  1  0  0  0  0
 24 23  2  0  0  0  0
 25 23  1  0  0  0  0
M  END
>  <MODEL>
9

>  <REMARK>
 VINA RESULT:      -9.2      2.299      5.208
  Name = 
  4 active torsions:
  status: ('A' for Active; 'I' for Inactive)
    1  A    between atoms: C_2  and  C_21
    2  A    between atoms: C_6  and  C_15
    3  A    between atoms: C_6  and  C_23
    4  A    between atoms: C_15  and  C_21
                            x       y       z     vdW  Elec       q    Type
                         _______ _______ _______ _____ _____    ______ ____

>  <TORSDO>
F 4

$$$$
