=
 OpenBabel10272414363D

 43 48  0  0  1  0  0  0  0  0999 V2000
  187.6140  177.3310  145.2380 C   0  0  0  0  0  0  0  0  0  0  0  0
  190.0260  177.2730  140.7730 C   0  0  1  0  0  3  0  0  0  0  0  0
  188.0000  178.6450  140.2800 C   0  0  0  0  0  2  0  0  0  0  0  0
  189.1700  176.9440  143.4230 C   0  0  0  0  0  0  0  0  0  0  0  0
  186.6600  177.7950  144.3280 C   0  0  0  0  0  3  0  0  0  0  0  0
  187.3160  177.2880  146.5930 O   0  0  0  0  0  1  0  0  0  0  0  0
  188.2250  177.4500  142.5030 C   0  0  0  0  0  0  0  0  0  0  0  0
  188.8660  176.9080  144.7860 C   0  0  0  0  0  3  0  0  0  0  0  0
  186.9620  177.8460  142.9640 C   0  0  0  0  0  3  0  0  0  0  0  0
  188.2970  178.5920  138.8360 N   0  0  0  0  0  0  0  0  0  0  0  0
  188.5250  177.4170  141.0260 C   0  0  2  0  0  3  0  0  0  0  0  0
  190.5280  176.1380  141.5450 N   0  0  0  0  0  2  0  0  0  0  0  0
  190.2570  177.0880  139.2750 C   0  0  1  0  0  3  0  0  0  0  0  0
  189.7080  178.3080  138.5290 C   0  0  0  0  0  2  0  0  0  0  0  0
  190.5380  176.5230  142.9570 C   0  0  0  0  0  2  0  0  0  0  0  0
  187.3730  177.7640  138.0410 C   0  0  1  0  0  3  0  0  0  0  0  0
  187.8060  176.3090  137.9120 C   0  0  0  0  0  1  0  0  0  0  0  0
  185.9570  177.8330  138.5980 C   0  0  0  0  0  2  0  0  0  0  0  0
  184.4080  175.8700  137.6340 O   0  0  0  0  0  0  0  0  0  0  0  0
  184.7560  177.3100  137.3800 S   0  0  0  0  0  0  0  0  0  0  0  0
  185.3510  177.4270  136.0030 O   0  0  0  0  0  0  0  0  0  0  0  0
  183.2980  178.2720  137.4850 N   0  0  0  0  0  0  0  0  0  0  0  0
  181.2230  178.2480  136.2080 C   0  0  0  0  0  2  0  0  0  0  0  0
  182.1490  177.4510  137.1110 C   0  0  0  0  0  3  0  0  0  0  0  0
  182.1560  177.2210  135.6100 C   0  0  0  0  0  2  0  0  0  0  0  0
  183.0700  178.8390  138.8300 C   0  0  1  0  0  3  0  0  0  0  0  0
  182.5360  180.2680  138.8250 C   0  0  0  0  0  1  0  0  0  0  0  0
  182.1930  177.9330  139.6850 C   0  0  0  0  0  2  0  0  0  0  0  0
  182.2330  178.3480  141.1170 C   0  0  0  0  0  0  0  0  0  0  0  0
  181.1010  179.1520  143.1020 C   0  0  0  0  0  3  0  0  0  0  0  0
  183.4960  178.7910  143.1370 C   0  0  0  0  0  3  0  0  0  0  0  0
  182.3200  179.1770  143.7870 C   0  0  0  0  0  3  0  0  0  0  0  0
  183.4530  178.3780  141.8010 C   0  0  0  0  0  3  0  0  0  0  0  0
  181.0570  178.7390  141.7670 C   0  0  0  0  0  3  0  0  0  0  0  0
  191.7410  176.9620  138.9480 C   0  0  0  0  0  2  0  0  0  0  0  0
  193.5690  174.3360  136.9090 C   0  0  0  0  0  3  0  0  0  0  0  0
  192.5090  173.5210  136.5000 C   0  0  0  0  0  0  0  0  0  0  0  0
  190.9550  174.9430  137.6970 C   0  0  0  0  0  3  0  0  0  0  0  0
  193.3210  175.4590  137.7050 C   0  0  0  0  0  3  0  0  0  0  0  0
  192.0120  175.7680  138.0950 C   0  0  0  0  0  0  0  0  0  0  0  0
  191.2010  173.8210  136.9010 C   0  0  0  0  0  3  0  0  0  0  0  0
  191.5430  171.8730  135.0370 N   0  0  0  0  0  1  0  0  0  0  0  0
  192.7740  172.3150  135.6690 C   0  0  0  0  0  2  0  0  0  0  0  0
  1  6  1  0  0  0  0
  2 11  1  0  0  0  0
  2 12  1  1  0  0  0
  4  8  2  0  0  0  0
  5  1  2  0  0  0  0
  7  9  2  0  0  0  0
  7  4  1  0  0  0  0
  8  1  1  0  0  0  0
  9  5  1  0  0  0  0
 10  3  1  0  0  0  0
 11  3  1  6  0  0  0
 11  7  1  0  0  0  0
 12 15  1  0  0  0  0
 13 35  1  1  0  0  0
 13  2  1  0  0  0  0
 14 10  1  0  0  0  0
 14 13  1  0  0  0  0
 15  4  1  0  0  0  0
 16 17  1  1  0  0  0
 16 18  1  0  0  0  0
 16 10  1  0  0  0  0
 20 22  1  0  0  0  0
 20 19  2  0  0  0  0
 20 18  1  0  0  0  0
 21 20  2  0  0  0  0
 22 26  1  0  0  0  0
 23 24  1  0  0  0  0
 24 22  1  0  0  0  0
 25 23  1  0  0  0  0
 25 24  1  0  0  0  0
 26 27  1  6  0  0  0
 26 28  1  0  0  0  0
 28 29  1  0  0  0  0
 29 34  2  0  0  0  0
 29 33  1  0  0  0  0
 30 32  2  0  0  0  0
 31 32  1  0  0  0  0
 33 31  2  0  0  0  0
 34 30  1  0  0  0  0
 36 39  1  0  0  0  0
 37 41  1  0  0  0  0
 37 36  2  0  0  0  0
 38 40  1  0  0  0  0
 39 40  2  0  0  0  0
 40 35  1  0  0  0  0
 41 38  2  0  0  0  0
 42 43  1  0  0  0  0
 43 37  1  0  0  0  0
M  END
>  <MODEL>
1

>  <REMARK>
 VINA RESULT:      -7.9      0.000      0.000
  Name = 
  11 active torsions:
  status: ('A' for Active; 'I' for Inactive)
    1  A    between atoms: C_1  and  C_34
    2  A    between atoms: C_1  and  C_35
    3  A    between atoms: C_2  and  C_6
    4  A    between atoms: C_2  and  N_27
    5  A    between atoms: N_4  and  S_12
    6  A    between atoms: N_4  and  C_15
    7  A    between atoms: N_4  and  C_22
    8  A    between atoms: C_6  and  S_12
    9  A    between atoms: C_11  and  C_14
   10  A    between atoms: C_14  and  C_22
   11  A    between atoms: C_19  and  C_37
                            x       y       z     vdW  Elec       q    Type
                         _______ _______ _______ _____ _____    ______ ____

>  <TORSDO>
F 11

$$$$
=
 OpenBabel10272414363D

 43 48  0  0  1  0  0  0  0  0999 V2000
  192.1610  175.9410  147.4280 C   0  0  0  0  0  0  0  0  0  0  0  0
  187.7680  177.5040  145.4220 C   0  0  1  0  0  3  0  0  0  0  0  0
  188.8620  176.3440  143.5020 C   0  0  0  0  0  2  0  0  0  0  0  0
  189.9820  176.9280  147.0430 C   0  0  0  0  0  0  0  0  0  0  0  0
  192.3410  175.7910  146.0500 C   0  0  0  0  0  3  0  0  0  0  0  0
  193.1540  175.5300  148.3050 O   0  0  0  0  0  1  0  0  0  0  0  0
  190.1410  176.7410  145.6520 C   0  0  0  0  0  0  0  0  0  0  0  0
  190.9840  176.5080  147.9220 C   0  0  0  0  0  3  0  0  0  0  0  0
  191.3380  176.1970  145.1650 C   0  0  0  0  0  3  0  0  0  0  0  0
  187.8400  176.8750  142.5800 N   0  0  0  0  0  0  0  0  0  0  0  0
  189.0940  177.2640  144.7010 C   0  0  2  0  0  3  0  0  0  0  0  0
  188.0160  178.3270  146.6040 N   0  0  0  0  0  2  0  0  0  0  0  0
  186.7970  178.1770  144.4550 C   0  0  1  0  0  3  0  0  0  0  0  0
  186.5850  177.2640  143.2420 C   0  0  0  0  0  2  0  0  0  0  0  0
  188.7030  177.4980  147.5950 C   0  0  0  0  0  2  0  0  0  0  0  0
  188.3220  177.9060  141.6440 C   0  0  1  0  0  3  0  0  0  0  0  0
  189.3920  178.8180  142.2310 C   0  0  0  0  0  1  0  0  0  0  0  0
  188.8310  177.2800  140.3530 C   0  0  0  0  0  2  0  0  0  0  0  0
  188.8270  179.1790  138.4620 O   0  0  0  0  0  0  0  0  0  0  0  0
  188.0250  177.9950  138.9250 S   0  0  0  0  0  0  0  0  0  0  0  0
  186.6480  178.4640  139.3060 O   0  0  0  0  0  0  0  0  0  0  0  0
  187.9220  176.8360  137.6170 N   0  0  0  0  0  0  0  0  0  0  0  0
  186.5880  176.7830  135.5790 C   0  0  0  0  0  2  0  0  0  0  0  0
  187.6430  177.5400  136.3680 C   0  0  0  0  0  3  0  0  0  0  0  0
  186.2020  178.0160  136.3630 C   0  0  0  0  0  2  0  0  0  0  0  0
  189.1480  176.0290  137.4560 C   0  0  1  0  0  3  0  0  0  0  0  0
  188.8950  174.5640  137.1170 C   0  0  0  0  0  1  0  0  0  0  0  0
  190.1130  176.6600  136.4590 C   0  0  0  0  0  2  0  0  0  0  0  0
  191.5100  176.2000  136.7040 C   0  0  0  0  0  0  0  0  0  0  0  0
  193.5010  175.0400  135.9550 C   0  0  0  0  0  3  0  0  0  0  0  0
  193.4220  175.9960  138.1790 C   0  0  0  0  0  3  0  0  0  0  0  0
  194.1120  175.2930  137.1870 C   0  0  0  0  0  3  0  0  0  0  0  0
  192.1200  176.4480  137.9390 C   0  0  0  0  0  3  0  0  0  0  0  0
  192.2000  175.4920  135.7140 C   0  0  0  0  0  3  0  0  0  0  0  0
  185.4400  178.4250  145.1040 C   0  0  0  0  0  2  0  0  0  0  0  0
  183.6790  178.7540  141.7600 C   0  0  0  0  0  3  0  0  0  0  0  0
  182.3540  178.9430  142.1670 C   0  0  0  0  0  0  0  0  0  0  0  0
  183.0420  178.7820  144.4840 C   0  0  0  0  0  3  0  0  0  0  0  0
  184.6860  178.5870  142.7160 C   0  0  0  0  0  3  0  0  0  0  0  0
  184.3700  178.6080  144.0800 C   0  0  0  0  0  0  0  0  0  0  0  0
  182.0350  178.9490  143.5300 C   0  0  0  0  0  3  0  0  0  0  0  0
  180.3480  180.1330  141.5740 N   0  0  0  0  0  1  0  0  0  0  0  0
  181.2780  179.1010  141.1500 C   0  0  0  0  0  2  0  0  0  0  0  0
  1  8  1  0  0  0  0
  1  6  1  0  0  0  0
  2 12  1  1  0  0  0
  4 15  1  0  0  0  0
  4  8  2  0  0  0  0
  5  1  2  0  0  0  0
  7  4  1  0  0  0  0
  9  7  2  0  0  0  0
  9  5  1  0  0  0  0
 10 14  1  0  0  0  0
 10  3  1  0  0  0  0
 11  3  1  6  0  0  0
 11  2  1  0  0  0  0
 11  7  1  0  0  0  0
 12 15  1  0  0  0  0
 13 35  1  1  0  0  0
 13  2  1  0  0  0  0
 14 13  1  0  0  0  0
 16 17  1  1  0  0  0
 16 10  1  0  0  0  0
 18 16  1  0  0  0  0
 19 20  2  0  0  0  0
 20 21  2  0  0  0  0
 20 18  1  0  0  0  0
 22 20  1  0  0  0  0
 23 25  1  0  0  0  0
 23 24  1  0  0  0  0
 24 22  1  0  0  0  0
 25 24  1  0  0  0  0
 26 27  1  6  0  0  0
 26 22  1  0  0  0  0
 28 29  1  0  0  0  0
 28 26  1  0  0  0  0
 29 33  1  0  0  0  0
 30 32  2  0  0  0  0
 32 31  1  0  0  0  0
 33 31  2  0  0  0  0
 34 30  1  0  0  0  0
 34 29  2  0  0  0  0
 36 37  2  0  0  0  0
 36 39  1  0  0  0  0
 37 41  1  0  0  0  0
 39 40  2  0  0  0  0
 40 38  1  0  0  0  0
 40 35  1  0  0  0  0
 41 38  2  0  0  0  0
 43 42  1  0  0  0  0
 43 37  1  0  0  0  0
M  END
>  <MODEL>
2

>  <REMARK>
 VINA RESULT:      -7.8      2.649      8.411
  Name = 
  11 active torsions:
  status: ('A' for Active; 'I' for Inactive)
    1  A    between atoms: C_1  and  C_34
    2  A    between atoms: C_1  and  C_35
    3  A    between atoms: C_2  and  C_6
    4  A    between atoms: C_2  and  N_27
    5  A    between atoms: N_4  and  S_12
    6  A    between atoms: N_4  and  C_15
    7  A    between atoms: N_4  and  C_22
    8  A    between atoms: C_6  and  S_12
    9  A    between atoms: C_11  and  C_14
   10  A    between atoms: C_14  and  C_22
   11  A    between atoms: C_19  and  C_37
                            x       y       z     vdW  Elec       q    Type
                         _______ _______ _______ _____ _____    ______ ____

>  <TORSDO>
F 11

$$$$
=
 OpenBabel10272414363D

 43 48  0  0  1  0  0  0  0  0999 V2000
  191.8860  176.3020  147.4610 C   0  0  0  0  0  0  0  0  0  0  0  0
  187.4270  177.6930  145.4760 C   0  0  1  0  0  3  0  0  0  0  0  0
  188.5850  176.6420  143.5320 C   0  0  0  0  0  2  0  0  0  0  0  0
  189.6620  177.1870  147.0920 C   0  0  0  0  0  0  0  0  0  0  0  0
  192.0790  176.1980  146.0810 C   0  0  0  0  0  3  0  0  0  0  0  0
  192.8960  175.9180  148.3330 O   0  0  0  0  0  1  0  0  0  0  0  0
  189.8350  177.0450  145.6980 C   0  0  0  0  0  0  0  0  0  0  0  0
  190.6800  176.7950  147.9650 C   0  0  0  0  0  3  0  0  0  0  0  0
  191.0600  176.5760  145.2030 C   0  0  0  0  0  3  0  0  0  0  0  0
  187.5410  177.1440  142.6190 N   0  0  0  0  0  0  0  0  0  0  0  0
  188.7660  177.5400  144.7560 C   0  0  2  0  0  3  0  0  0  0  0  0
  187.6280  178.4960  146.6810 N   0  0  0  0  0  2  0  0  0  0  0  0
  186.4260  178.3410  144.5220 C   0  0  1  0  0  3  0  0  0  0  0  0
  186.2650  177.4510  143.2850 C   0  0  0  0  0  2  0  0  0  0  0  0
  188.3530  177.6770  147.6530 C   0  0  0  0  0  2  0  0  0  0  0  0
  187.9730  178.2230  141.7130 C   0  0  1  0  0  3  0  0  0  0  0  0
  189.3630  178.0120  141.1240 C   0  0  0  0  0  1  0  0  0  0  0  0
  186.9650  178.4340  140.5910 C   0  0  0  0  0  2  0  0  0  0  0  0
  188.2980  176.7950  138.9430 O   0  0  0  0  0  0  0  0  0  0  0  0
  187.7170  178.1800  138.9890 S   0  0  0  0  0  0  0  0  0  0  0  0
  188.8270  179.1750  138.7890 O   0  0  0  0  0  0  0  0  0  0  0  0
  186.5330  178.3390  137.7090 N   0  0  0  0  0  0  0  0  0  0  0  0
  186.8230  178.0800  135.3040 C   0  0  0  0  0  2  0  0  0  0  0  0
  186.8330  177.3780  136.6510 C   0  0  0  0  0  3  0  0  0  0  0  0
  188.1380  177.7580  135.9730 C   0  0  0  0  0  2  0  0  0  0  0  0
  185.1450  178.1340  138.1710 C   0  0  1  0  0  3  0  0  0  0  0  0
  184.3650  179.4240  138.4030 C   0  0  0  0  0  1  0  0  0  0  0  0
  184.3770  177.1910  137.2520 C   0  0  0  0  0  2  0  0  0  0  0  0
  183.0540  176.8340  137.8400 C   0  0  0  0  0  0  0  0  0  0  0  0
  181.7480  175.8120  139.6070 C   0  0  0  0  0  3  0  0  0  0  0  0
  180.6360  176.7770  137.6840 C   0  0  0  0  0  3  0  0  0  0  0  0
  180.5720  176.1180  138.9140 C   0  0  0  0  0  3  0  0  0  0  0  0
  181.8770  177.1340  137.1450 C   0  0  0  0  0  3  0  0  0  0  0  0
  182.9890  176.1690  139.0700 C   0  0  0  0  0  3  0  0  0  0  0  0
  185.0560  178.5030  145.1710 C   0  0  0  0  0  2  0  0  0  0  0  0
  183.2860  178.7740  141.8280 C   0  0  0  0  0  3  0  0  0  0  0  0
  181.9510  178.8820  142.2330 C   0  0  0  0  0  0  0  0  0  0  0  0
  182.6430  178.7290  144.5500 C   0  0  0  0  0  3  0  0  0  0  0  0
  184.2990  178.6530  142.7830 C   0  0  0  0  0  3  0  0  0  0  0  0
  183.9800  178.6370  144.1470 C   0  0  0  0  0  0  0  0  0  0  0  0
  181.6300  178.8510  143.5950 C   0  0  0  0  0  3  0  0  0  0  0  0
  181.3970  179.5810  139.9980 N   0  0  0  0  0  1  0  0  0  0  0  0
  180.8700  178.9910  141.2160 C   0  0  0  0  0  2  0  0  0  0  0  0
  1  8  1  0  0  0  0
  1  6  1  0  0  0  0
  2 12  1  1  0  0  0
  4 15  1  0  0  0  0
  4  8  2  0  0  0  0
  5  1  2  0  0  0  0
  7  4  1  0  0  0  0
  9  7  2  0  0  0  0
  9  5  1  0  0  0  0
 10 14  1  0  0  0  0
 10  3  1  0  0  0  0
 11  3  1  6  0  0  0
 11  2  1  0  0  0  0
 11  7  1  0  0  0  0
 12 15  1  0  0  0  0
 13 35  1  1  0  0  0
 13  2  1  0  0  0  0
 14 13  1  0  0  0  0
 16 17  1  6  0  0  0
 16 10  1  0  0  0  0
 18 16  1  0  0  0  0
 19 20  2  0  0  0  0
 20 18  1  0  0  0  0
 21 20  2  0  0  0  0
 22 26  1  0  0  0  0
 22 20  1  0  0  0  0
 23 25  1  0  0  0  0
 23 24  1  0  0  0  0
 24 22  1  0  0  0  0
 25 24  1  0  0  0  0
 26 27  1  6  0  0  0
 28 29  1  0  0  0  0
 28 26  1  0  0  0  0
 29 34  1  0  0  0  0
 31 32  2  0  0  0  0
 32 30  1  0  0  0  0
 33 31  1  0  0  0  0
 33 29  2  0  0  0  0
 34 30  2  0  0  0  0
 36 37  2  0  0  0  0
 36 39  1  0  0  0  0
 37 41  1  0  0  0  0
 39 40  2  0  0  0  0
 40 38  1  0  0  0  0
 40 35  1  0  0  0  0
 41 38  2  0  0  0  0
 42 43  1  0  0  0  0
 43 37  1  0  0  0  0
M  END
>  <MODEL>
3

>  <REMARK>
 VINA RESULT:      -7.8      3.325      6.957
  Name = 
  11 active torsions:
  status: ('A' for Active; 'I' for Inactive)
    1  A    between atoms: C_1  and  C_34
    2  A    between atoms: C_1  and  C_35
    3  A    between atoms: C_2  and  C_6
    4  A    between atoms: C_2  and  N_27
    5  A    between atoms: N_4  and  S_12
    6  A    between atoms: N_4  and  C_15
    7  A    between atoms: N_4  and  C_22
    8  A    between atoms: C_6  and  S_12
    9  A    between atoms: C_11  and  C_14
   10  A    between atoms: C_14  and  C_22
   11  A    between atoms: C_19  and  C_37
                            x       y       z     vdW  Elec       q    Type
                         _______ _______ _______ _____ _____    ______ ____

>  <TORSDO>
F 11

$$$$
=
 OpenBabel10272414363D

 43 48  0  0  1  0  0  0  0  0999 V2000
  191.8000  176.3880  147.4200 C   0  0  0  0  0  0  0  0  0  0  0  0
  187.4010  177.7090  145.2610 C   0  0  1  0  0  3  0  0  0  0  0  0
  188.5660  176.4920  143.4210 C   0  0  0  0  0  2  0  0  0  0  0  0
  189.6000  177.2850  146.9480 C   0  0  0  0  0  0  0  0  0  0  0  0
  192.0110  176.1760  146.0540 C   0  0  0  0  0  3  0  0  0  0  0  0
  192.7880  176.0520  148.3340 O   0  0  0  0  0  1  0  0  0  0  0  0
  189.7910  177.0350  145.5710 C   0  0  0  0  0  0  0  0  0  0  0  0
  190.5970  176.9400  147.8650 C   0  0  0  0  0  3  0  0  0  0  0  0
  191.0130  176.5060  145.1330 C   0  0  0  0  0  3  0  0  0  0  0  0
  187.5460  176.9440  142.4560 N   0  0  0  0  0  0  0  0  0  0  0  0
  188.7470  177.4770  144.5770 C   0  0  2  0  0  3  0  0  0  0  0  0
  187.6000  178.5970  146.4050 N   0  0  0  0  0  2  0  0  0  0  0  0
  186.4280  178.3030  144.2450 C   0  0  1  0  0  3  0  0  0  0  0  0
  186.2670  177.3250  143.0760 C   0  0  0  0  0  2  0  0  0  0  0  0
  188.2930  177.8400  147.4480 C   0  0  0  0  0  2  0  0  0  0  0  0
  188.0140  177.9430  141.4780 C   0  0  1  0  0  3  0  0  0  0  0  0
  188.8930  179.0310  142.0830 C   0  0  0  0  0  1  0  0  0  0  0  0
  188.7430  177.2760  140.3200 C   0  0  0  0  0  2  0  0  0  0  0  0
  189.0690  179.4480  138.7840 O   0  0  0  0  0  0  0  0  0  0  0  0
  188.3960  178.1040  138.7730 S   0  0  0  0  0  0  0  0  0  0  0  0
  186.9120  178.3100  138.6340 O   0  0  0  0  0  0  0  0  0  0  0  0
  189.0020  177.1790  137.4160 N   0  0  0  0  0  0  0  0  0  0  0  0
  191.0920  175.9740  137.0760 C   0  0  0  0  0  2  0  0  0  0  0  0
  189.8270  176.0800  137.9110 C   0  0  0  0  0  3  0  0  0  0  0  0
  191.1420  176.6280  138.4370 C   0  0  0  0  0  2  0  0  0  0  0  0
  187.9300  176.6320  136.5600 C   0  0  1  0  0  3  0  0  0  0  0  0
  188.0060  177.0740  135.1020 C   0  0  0  0  0  1  0  0  0  0  0  0
  187.8420  175.1140  136.6650 C   0  0  0  0  0  2  0  0  0  0  0  0
  186.4560  174.6830  137.0090 C   0  0  0  0  0  0  0  0  0  0  0  0
  184.1090  175.2030  137.3130 C   0  0  0  0  0  3  0  0  0  0  0  0
  184.9200  172.9640  137.7550 C   0  0  0  0  0  3  0  0  0  0  0  0
  183.8680  173.8830  137.7070 C   0  0  0  0  0  3  0  0  0  0  0  0
  186.2140  173.3630  137.4080 C   0  0  0  0  0  3  0  0  0  0  0  0
  185.4030  175.6030  136.9650 C   0  0  0  0  0  3  0  0  0  0  0  0
  185.0510  178.5390  144.8570 C   0  0  0  0  0  2  0  0  0  0  0  0
  183.3570  178.7300  141.4680 C   0  0  0  0  0  3  0  0  0  0  0  0
  182.0140  178.8510  141.8410 C   0  0  0  0  0  0  0  0  0  0  0  0
  182.6540  178.7560  144.1760 C   0  0  0  0  0  3  0  0  0  0  0  0
  184.3480  178.6300  142.4490 C   0  0  0  0  0  3  0  0  0  0  0  0
  183.9990  178.6500  143.8050 C   0  0  0  0  0  0  0  0  0  0  0  0
  181.6620  178.8560  143.1960 C   0  0  0  0  0  3  0  0  0  0  0  0
  180.2750  180.2160  140.8910 N   0  0  0  0  0  1  0  0  0  0  0  0
  180.9560  178.9370  140.7970 C   0  0  0  0  0  2  0  0  0  0  0  0
  1  8  1  0  0  0  0
  1  6  1  0  0  0  0
  2 12  1  1  0  0  0
  4 15  1  0  0  0  0
  4  8  2  0  0  0  0
  5  1  2  0  0  0  0
  7  4  1  0  0  0  0
  9  7  2  0  0  0  0
  9  5  1  0  0  0  0
 10 14  1  0  0  0  0
 10  3  1  0  0  0  0
 11  3  1  6  0  0  0
 11  2  1  0  0  0  0
 11  7  1  0  0  0  0
 12 15  1  0  0  0  0
 13 35  1  1  0  0  0
 13  2  1  0  0  0  0
 14 13  1  0  0  0  0
 16 17  1  1  0  0  0
 16 10  1  0  0  0  0
 18 16  1  0  0  0  0
 20 19  2  0  0  0  0
 20 18  1  0  0  0  0
 21 20  2  0  0  0  0
 22 24  1  0  0  0  0
 22 20  1  0  0  0  0
 23 24  1  0  0  0  0
 23 25  1  0  0  0  0
 24 25  1  0  0  0  0
 26 27  1  6  0  0  0
 26 28  1  0  0  0  0
 26 22  1  0  0  0  0
 28 29  1  0  0  0  0
 29 33  1  0  0  0  0
 30 32  2  0  0  0  0
 32 31  1  0  0  0  0
 33 31  2  0  0  0  0
 34 29  2  0  0  0  0
 34 30  1  0  0  0  0
 36 37  2  0  0  0  0
 36 39  1  0  0  0  0
 37 41  1  0  0  0  0
 39 40  2  0  0  0  0
 40 38  1  0  0  0  0
 40 35  1  0  0  0  0
 41 38  2  0  0  0  0
 43 42  1  0  0  0  0
 43 37  1  0  0  0  0
M  END
>  <MODEL>
4

>  <REMARK>
 VINA RESULT:      -7.7      2.740      7.737
  Name = 
  11 active torsions:
  status: ('A' for Active; 'I' for Inactive)
    1  A    between atoms: C_1  and  C_34
    2  A    between atoms: C_1  and  C_35
    3  A    between atoms: C_2  and  C_6
    4  A    between atoms: C_2  and  N_27
    5  A    between atoms: N_4  and  S_12
    6  A    between atoms: N_4  and  C_15
    7  A    between atoms: N_4  and  C_22
    8  A    between atoms: C_6  and  S_12
    9  A    between atoms: C_11  and  C_14
   10  A    between atoms: C_14  and  C_22
   11  A    between atoms: C_19  and  C_37
                            x       y       z     vdW  Elec       q    Type
                         _______ _______ _______ _____ _____    ______ ____

>  <TORSDO>
F 11

$$$$
=
 OpenBabel10272414363D

 43 48  0  0  1  0  0  0  0  0999 V2000
  191.0890  176.6940  146.8990 C   0  0  0  0  0  0  0  0  0  0  0  0
  189.8440  177.2460  142.0100 C   0  0  1  0  0  3  0  0  0  0  0  0
  188.2260  178.7590  143.1580 C   0  0  0  0  0  2  0  0  0  0  0  0
  190.9520  176.5360  144.4860 C   0  0  0  0  0  0  0  0  0  0  0  0
  189.8470  177.3340  146.9320 C   0  0  0  0  0  3  0  0  0  0  0  0
  191.7740  176.4490  148.0810 O   0  0  0  0  0  1  0  0  0  0  0  0
  189.7170  177.2190  144.5090 C   0  0  0  0  0  0  0  0  0  0  0  0
  191.6400  176.2970  145.6780 C   0  0  0  0  0  3  0  0  0  0  0  0
  189.1590  177.5880  145.7420 C   0  0  0  0  0  3  0  0  0  0  0  0
  187.4670  178.9230  141.9040 N   0  0  0  0  0  0  0  0  0  0  0  0
  188.9400  177.4080  143.2310 C   0  0  2  0  0  3  0  0  0  0  0  0
  190.5720  175.9840  142.1260 N   0  0  0  0  0  2  0  0  0  0  0  0
  188.9830  177.2900  140.7490 C   0  0  1  0  0  3  0  0  0  0  0  0
  188.2500  178.6350  140.6920 C   0  0  0  0  0  2  0  0  0  0  0  0
  191.5790  176.1390  143.1760 C   0  0  0  0  0  2  0  0  0  0  0  0
  186.1460  178.2690  141.8860 C   0  0  1  0  0  3  0  0  0  0  0  0
  185.7560  177.6320  143.2140 C   0  0  0  0  0  1  0  0  0  0  0  0
  185.0600  179.2400  141.4410 C   0  0  0  0  0  2  0  0  0  0  0  0
  185.6680  178.1980  139.0480 O   0  0  0  0  0  0  0  0  0  0  0  0
  184.5550  178.9200  139.7560 S   0  0  0  0  0  0  0  0  0  0  0  0
  184.3010  180.2240  139.0500 O   0  0  0  0  0  0  0  0  0  0  0  0
  183.1160  177.9250  139.7110 N   0  0  0  0  0  0  0  0  0  0  0  0
  180.9430  177.8020  140.8050 C   0  0  0  0  0  2  0  0  0  0  0  0
  181.9690  178.7130  140.1540 C   0  0  0  0  0  3  0  0  0  0  0  0
  181.8560  178.6420  141.6660 C   0  0  0  0  0  2  0  0  0  0  0  0
  182.8340  177.3690  138.3720 C   0  0  1  0  0  3  0  0  0  0  0  0
  182.2820  178.3830  137.3760 C   0  0  0  0  0  1  0  0  0  0  0  0
  184.0440  176.6420  137.7960 C   0  0  0  0  0  2  0  0  0  0  0  0
  183.7310  175.2060  137.5400 C   0  0  0  0  0  0  0  0  0  0  0  0
  184.4580  172.9050  137.3210 C   0  0  0  0  0  3  0  0  0  0  0  0
  182.1330  173.4800  136.9550 C   0  0  0  0  0  3  0  0  0  0  0  0
  183.1500  172.5220  137.0060 C   0  0  0  0  0  3  0  0  0  0  0  0
  182.4230  174.8230  137.2200 C   0  0  0  0  0  3  0  0  0  0  0  0
  184.7490  174.2470  137.5870 C   0  0  0  0  0  3  0  0  0  0  0  0
  189.8280  177.1570  139.4870 C   0  0  0  0  0  2  0  0  0  0  0  0
  188.1940  178.8070  136.4880 C   0  0  0  0  0  3  0  0  0  0  0  0
  187.4730  177.7370  135.9470 C   0  0  0  0  0  0  0  0  0  0  0  0
  188.2990  176.2920  137.7070 C   0  0  0  0  0  3  0  0  0  0  0  0
  188.9600  178.6210  137.6420 C   0  0  0  0  0  3  0  0  0  0  0  0
  189.0090  177.3640  138.2580 C   0  0  0  0  0  0  0  0  0  0  0  0
  187.5330  176.4770  136.5530 C   0  0  0  0  0  3  0  0  0  0  0  0
  185.5720  176.9830  134.6790 N   0  0  0  0  0  1  0  0  0  0  0  0
  186.6730  177.9290  134.7060 C   0  0  0  0  0  2  0  0  0  0  0  0
  1  5  1  0  0  0  0
  1  6  1  0  0  0  0
  2 12  1  1  0  0  0
  2 11  1  0  0  0  0
  4  7  2  0  0  0  0
  4  8  1  0  0  0  0
  7  9  1  0  0  0  0
  8  1  2  0  0  0  0
  9  5  2  0  0  0  0
 10  3  1  0  0  0  0
 11  3  1  1  0  0  0
 11  7  1  0  0  0  0
 12 15  1  0  0  0  0
 13 35  1  6  0  0  0
 13  2  1  0  0  0  0
 14 13  1  0  0  0  0
 14 10  1  0  0  0  0
 15  4  1  0  0  0  0
 16 10  1  0  0  0  0
 16 17  1  1  0  0  0
 18 16  1  0  0  0  0
 19 20  2  0  0  0  0
 20 18  1  0  0  0  0
 21 20  2  0  0  0  0
 22 20  1  0  0  0  0
 22 24  1  0  0  0  0
 23 25  1  0  0  0  0
 24 23  1  0  0  0  0
 24 25  1  0  0  0  0
 26 27  1  6  0  0  0
 26 22  1  0  0  0  0
 28 26  1  0  0  0  0
 29 34  1  0  0  0  0
 29 28  1  0  0  0  0
 30 34  2  0  0  0  0
 31 32  2  0  0  0  0
 31 33  1  0  0  0  0
 32 30  1  0  0  0  0
 33 29  2  0  0  0  0
 36 39  1  0  0  0  0
 37 36  2  0  0  0  0
 37 41  1  0  0  0  0
 38 40  1  0  0  0  0
 39 40  2  0  0  0  0
 40 35  1  0  0  0  0
 41 38  2  0  0  0  0
 42 43  1  0  0  0  0
 43 37  1  0  0  0  0
M  END
>  <MODEL>
5

>  <REMARK>
 VINA RESULT:      -7.5      2.780      4.742
  Name = 
  11 active torsions:
  status: ('A' for Active; 'I' for Inactive)
    1  A    between atoms: C_1  and  C_34
    2  A    between atoms: C_1  and  C_35
    3  A    between atoms: C_2  and  C_6
    4  A    between atoms: C_2  and  N_27
    5  A    between atoms: N_4  and  S_12
    6  A    between atoms: N_4  and  C_15
    7  A    between atoms: N_4  and  C_22
    8  A    between atoms: C_6  and  S_12
    9  A    between atoms: C_11  and  C_14
   10  A    between atoms: C_14  and  C_22
   11  A    between atoms: C_19  and  C_37
                            x       y       z     vdW  Elec       q    Type
                         _______ _______ _______ _____ _____    ______ ____

>  <TORSDO>
F 11

$$$$
=
 OpenBabel10272414363D

 43 48  0  0  1  0  0  0  0  0999 V2000
  188.3780  177.4440  146.7640 C   0  0  0  0  0  0  0  0  0  0  0  0
  187.7400  178.1710  141.7820 C   0  0  1  0  0  3  0  0  0  0  0  0
  185.5800  178.9830  142.7320 C   0  0  0  0  0  2  0  0  0  0  0  0
  188.6460  177.5390  144.3590 C   0  0  0  0  0  0  0  0  0  0  0  0
  187.0060  177.6740  146.6240 C   0  0  0  0  0  3  0  0  0  0  0  0
  188.9270  177.2780  148.0280 O   0  0  0  0  0  1  0  0  0  0  0  0
  187.2690  177.8120  144.2140 C   0  0  0  0  0  0  0  0  0  0  0  0
  189.1960  177.3770  145.6340 C   0  0  0  0  0  3  0  0  0  0  0  0
  186.4530  177.8490  145.3530 C   0  0  0  0  0  3  0  0  0  0  0  0
  184.9970  179.0600  141.3790 N   0  0  0  0  0  0  0  0  0  0  0  0
  186.6650  177.9100  142.8360 C   0  0  2  0  0  3  0  0  0  0  0  0
  188.8030  177.1800  141.9370 N   0  0  0  0  0  2  0  0  0  0  0  0
  187.1000  178.1040  140.3970 C   0  0  1  0  0  3  0  0  0  0  0  0
  185.9970  179.1640  140.3040 C   0  0  0  0  0  2  0  0  0  0  0  0
  189.5480  177.5050  143.1540 C   0  0  0  0  0  2  0  0  0  0  0  0
  183.9660  178.0470  141.0880 C   0  0  1  0  0  3  0  0  0  0  0  0
  182.8180  178.0340  142.0890 C   0  0  0  0  0  1  0  0  0  0  0  0
  183.4180  178.2130  139.6770 C   0  0  0  0  0  2  0  0  0  0  0  0
  180.8180  177.7320  140.1170 O   0  0  0  0  0  0  0  0  0  0  0  0
  182.0060  177.1510  139.4020 S   0  0  0  0  0  0  0  0  0  0  0  0
  182.2860  175.7840  139.9650 O   0  0  0  0  0  0  0  0  0  0  0  0
  181.6350  177.0300  137.6950 N   0  0  0  0  0  0  0  0  0  0  0  0
  181.2840  178.7010  135.9580 C   0  0  0  0  0  2  0  0  0  0  0  0
  182.2550  178.1460  136.9860 C   0  0  0  0  0  3  0  0  0  0  0  0
  181.4820  179.4220  137.2710 C   0  0  0  0  0  2  0  0  0  0  0  0
  182.0870  175.7610  137.0900 C   0  0  1  0  0  3  0  0  0  0  0  0
  181.0740  175.1210  136.1460 C   0  0  0  0  0  1  0  0  0  0  0  0
  183.4440  175.9090  136.4140 C   0  0  0  0  0  2  0  0  0  0  0  0
  184.2050  174.6260  136.4570 C   0  0  0  0  0  0  0  0  0  0  0  0
  185.1640  172.7960  137.7220 C   0  0  0  0  0  3  0  0  0  0  0  0
  185.4570  172.8920  135.3190 C   0  0  0  0  0  3  0  0  0  0  0  0
  185.6770  172.2490  136.5410 C   0  0  0  0  0  3  0  0  0  0  0  0
  184.7230  174.0810  135.2770 C   0  0  0  0  0  3  0  0  0  0  0  0
  184.4290  173.9840  137.6800 C   0  0  0  0  0  3  0  0  0  0  0  0
  188.1160  178.3800  139.2950 C   0  0  0  0  0  2  0  0  0  0  0  0
  187.6490  175.4760  136.9000 C   0  0  0  0  0  3  0  0  0  0  0  0
  188.9070  174.8680  136.9590 C   0  0  0  0  0  0  0  0  0  0  0  0
  189.6490  176.5570  138.5290 C   0  0  0  0  0  3  0  0  0  0  0  0
  187.3880  176.6190  137.6620 C   0  0  0  0  0  3  0  0  0  0  0  0
  188.3860  177.1580  138.4830 C   0  0  0  0  0  0  0  0  0  0  0  0
  189.9100  175.4140  137.7680 C   0  0  0  0  0  3  0  0  0  0  0  0
  190.6070  173.3450  136.1980 N   0  0  0  0  0  1  0  0  0  0  0  0
  189.1920  173.6630  136.1330 C   0  0  0  0  0  2  0  0  0  0  0  0
  1  6  1  0  0  0  0
  2 12  1  6  0  0  0
  2 11  1  0  0  0  0
  4  8  1  0  0  0  0
  5  1  1  0  0  0  0
  7  4  2  0  0  0  0
  7  9  1  0  0  0  0
  8  1  2  0  0  0  0
  9  5  2  0  0  0  0
 10  3  1  0  0  0  0
 11  3  1  1  0  0  0
 11  7  1  0  0  0  0
 12 15  1  0  0  0  0
 13 35  1  6  0  0  0
 13  2  1  0  0  0  0
 14 13  1  0  0  0  0
 14 10  1  0  0  0  0
 15  4  1  0  0  0  0
 16 10  1  0  0  0  0
 16 17  1  1  0  0  0
 18 16  1  0  0  0  0
 20 18  1  0  0  0  0
 20 21  2  0  0  0  0
 20 19  2  0  0  0  0
 22 20  1  0  0  0  0
 23 24  1  0  0  0  0
 23 25  1  0  0  0  0
 24 25  1  0  0  0  0
 24 22  1  0  0  0  0
 26 27  1  6  0  0  0
 26 22  1  0  0  0  0
 28 29  1  0  0  0  0
 28 26  1  0  0  0  0
 29 34  1  0  0  0  0
 31 32  2  0  0  0  0
 32 30  1  0  0  0  0
 33 31  1  0  0  0  0
 33 29  2  0  0  0  0
 34 30  2  0  0  0  0
 36 37  2  0  0  0  0
 36 39  1  0  0  0  0
 37 41  1  0  0  0  0
 39 40  2  0  0  0  0
 40 38  1  0  0  0  0
 40 35  1  0  0  0  0
 41 38  2  0  0  0  0
 43 42  1  0  0  0  0
 43 37  1  0  0  0  0
M  END
>  <MODEL>
6

>  <REMARK>
 VINA RESULT:      -7.5      2.384      4.620
  Name = 
  11 active torsions:
  status: ('A' for Active; 'I' for Inactive)
    1  A    between atoms: C_1  and  C_34
    2  A    between atoms: C_1  and  C_35
    3  A    between atoms: C_2  and  C_6
    4  A    between atoms: C_2  and  N_27
    5  A    between atoms: N_4  and  S_12
    6  A    between atoms: N_4  and  C_15
    7  A    between atoms: N_4  and  C_22
    8  A    between atoms: C_6  and  S_12
    9  A    between atoms: C_11  and  C_14
   10  A    between atoms: C_14  and  C_22
   11  A    between atoms: C_19  and  C_37
                            x       y       z     vdW  Elec       q    Type
                         _______ _______ _______ _____ _____    ______ ____

>  <TORSDO>
F 11

$$$$
=
 OpenBabel10272414363D

 43 48  0  0  1  0  0  0  0  0999 V2000
  187.5600  177.3340  145.5060 C   0  0  0  0  0  0  0  0  0  0  0  0
  189.9530  177.2580  141.0310 C   0  0  1  0  0  3  0  0  0  0  0  0
  187.8750  178.5400  140.5160 C   0  0  0  0  0  2  0  0  0  0  0  0
  189.1210  176.9610  143.6920 C   0  0  0  0  0  0  0  0  0  0  0  0
  186.5860  177.7390  144.5890 C   0  0  0  0  0  3  0  0  0  0  0  0
  187.2690  177.3130  146.8630 O   0  0  0  0  0  1  0  0  0  0  0  0
  188.1550  177.4090  142.7650 C   0  0  0  0  0  0  0  0  0  0  0  0
  188.8250  176.9470  145.0580 C   0  0  0  0  0  3  0  0  0  0  0  0
  186.8790  177.7680  143.2240 C   0  0  0  0  0  3  0  0  0  0  0  0
  188.1680  178.4630  139.0720 N   0  0  0  0  0  0  0  0  0  0  0  0
  188.4500  177.3510  141.2880 C   0  0  2  0  0  3  0  0  0  0  0  0
  190.5010  176.1620  141.8270 N   0  0  0  0  0  2  0  0  0  0  0  0
  190.1850  177.0450  139.5360 C   0  0  1  0  0  3  0  0  0  0  0  0
  189.5870  178.2260  138.7640 C   0  0  0  0  0  2  0  0  0  0  0  0
  190.5030  176.5810  143.2290 C   0  0  0  0  0  2  0  0  0  0  0  0
  187.2720  177.5820  138.3010 C   0  0  1  0  0  3  0  0  0  0  0  0
  185.8230  178.0510  138.2740 C   0  0  0  0  0  1  0  0  0  0  0  0
  187.7800  177.3940  136.8780 C   0  0  0  0  0  2  0  0  0  0  0  0
  187.7930  174.7640  137.3990 O   0  0  0  0  0  0  0  0  0  0  0  0
  187.4700  175.7320  136.2950 S   0  0  0  0  0  0  0  0  0  0  0  0
  188.3600  175.4360  135.1190 O   0  0  0  0  0  0  0  0  0  0  0  0
  185.7910  175.5310  135.8400 N   0  0  0  0  0  0  0  0  0  0  0  0
  184.3040  176.7620  134.3540 C   0  0  0  0  0  2  0  0  0  0  0  0
  185.6060  175.9870  134.4650 C   0  0  0  0  0  3  0  0  0  0  0  0
  185.6180  177.5050  134.4260 C   0  0  0  0  0  2  0  0  0  0  0  0
  185.3200  174.1360  135.9550 C   0  0  1  0  0  3  0  0  0  0  0  0
  186.3760  173.0880  135.6220 C   0  0  0  0  0  1  0  0  0  0  0  0
  184.6920  173.8630  137.3170 C   0  0  0  0  0  2  0  0  0  0  0  0
  183.3790  174.5580  137.4470 C   0  0  0  0  0  0  0  0  0  0  0  0
  181.1330  174.9730  136.6390 C   0  0  0  0  0  3  0  0  0  0  0  0
  181.9600  176.1640  138.5790 C   0  0  0  0  0  3  0  0  0  0  0  0
  180.9350  175.9040  137.6640 C   0  0  0  0  0  3  0  0  0  0  0  0
  183.1820  175.4930  138.4700 C   0  0  0  0  0  3  0  0  0  0  0  0
  182.3540  174.3010  136.5300 C   0  0  0  0  0  3  0  0  0  0  0  0
  191.6720  176.9670  139.2050 C   0  0  0  0  0  2  0  0  0  0  0  0
  191.2550  174.1150  136.7390 C   0  0  0  0  0  3  0  0  0  0  0  0
  192.4260  174.2330  135.9840 C   0  0  0  0  0  0  0  0  0  0  0  0
  193.0960  176.1380  137.3220 C   0  0  0  0  0  3  0  0  0  0  0  0
  191.0070  175.0030  137.7900 C   0  0  0  0  0  3  0  0  0  0  0  0
  191.9320  176.0130  138.0880 C   0  0  0  0  0  0  0  0  0  0  0  0
  193.3430  175.2510  136.2710 C   0  0  0  0  0  3  0  0  0  0  0  0
  192.7460  171.9360  135.3430 N   0  0  0  0  0  1  0  0  0  0  0  0
  192.6800  173.3010  134.8520 C   0  0  0  0  0  2  0  0  0  0  0  0
  1  6  1  0  0  0  0
  2 11  1  0  0  0  0
  2 12  1  1  0  0  0
  4  8  2  0  0  0  0
  5  1  2  0  0  0  0
  7  9  2  0  0  0  0
  7  4  1  0  0  0  0
  8  1  1  0  0  0  0
  9  5  1  0  0  0  0
 10  3  1  0  0  0  0
 11  3  1  6  0  0  0
 11  7  1  0  0  0  0
 12 15  1  0  0  0  0
 13 35  1  1  0  0  0
 13  2  1  0  0  0  0
 14 10  1  0  0  0  0
 14 13  1  0  0  0  0
 15  4  1  0  0  0  0
 16 17  1  6  0  0  0
 16 10  1  0  0  0  0
 18 16  1  0  0  0  0
 20 18  1  0  0  0  0
 20 19  2  0  0  0  0
 21 20  2  0  0  0  0
 22 26  1  0  0  0  0
 22 20  1  0  0  0  0
 23 25  1  0  0  0  0
 23 24  1  0  0  0  0
 24 22  1  0  0  0  0
 25 24  1  0  0  0  0
 26 27  1  1  0  0  0
 26 28  1  0  0  0  0
 28 29  1  0  0  0  0
 29 33  1  0  0  0  0
 30 32  2  0  0  0  0
 32 31  1  0  0  0  0
 33 31  2  0  0  0  0
 34 30  1  0  0  0  0
 34 29  2  0  0  0  0
 36 39  1  0  0  0  0
 37 41  1  0  0  0  0
 37 36  2  0  0  0  0
 38 40  1  0  0  0  0
 39 40  2  0  0  0  0
 40 35  1  0  0  0  0
 41 38  2  0  0  0  0
 43 42  1  0  0  0  0
 43 37  1  0  0  0  0
M  END
>  <MODEL>
7

>  <REMARK>
 VINA RESULT:      -7.4      2.247      3.491
  Name = 
  11 active torsions:
  status: ('A' for Active; 'I' for Inactive)
    1  A    between atoms: C_1  and  C_34
    2  A    between atoms: C_1  and  C_35
    3  A    between atoms: C_2  and  C_6
    4  A    between atoms: C_2  and  N_27
    5  A    between atoms: N_4  and  S_12
    6  A    between atoms: N_4  and  C_15
    7  A    between atoms: N_4  and  C_22
    8  A    between atoms: C_6  and  S_12
    9  A    between atoms: C_11  and  C_14
   10  A    between atoms: C_14  and  C_22
   11  A    between atoms: C_19  and  C_37
                            x       y       z     vdW  Elec       q    Type
                         _______ _______ _______ _____ _____    ______ ____

>  <TORSDO>
F 11

$$$$
=
 OpenBabel10272414363D

 43 48  0  0  1  0  0  0  0  0999 V2000
  187.7210  177.3840  145.7560 C   0  0  0  0  0  0  0  0  0  0  0  0
  189.8060  177.3100  141.1290 C   0  0  1  0  0  3  0  0  0  0  0  0
  187.8390  178.8130  140.8170 C   0  0  0  0  0  2  0  0  0  0  0  0
  189.1190  176.9570  143.8250 C   0  0  0  0  0  0  0  0  0  0  0  0
  186.7360  177.9300  144.9280 C   0  0  0  0  0  3  0  0  0  0  0  0
  187.5160  177.3210  147.1270 O   0  0  0  0  0  1  0  0  0  0  0  0
  188.1450  177.5440  142.9880 C   0  0  0  0  0  0  0  0  0  0  0  0
  188.9100  176.9000  145.2050 C   0  0  0  0  0  3  0  0  0  0  0  0
  186.9440  178.0020  143.5480 C   0  0  0  0  0  3  0  0  0  0  0  0
  188.0300  178.7840  139.3540 N   0  0  0  0  0  0  0  0  0  0  0  0
  188.3390  177.5360  141.4920 C   0  0  2  0  0  3  0  0  0  0  0  0
  190.2900  176.1260  141.8350 N   0  0  0  0  0  2  0  0  0  0  0  0
  189.9200  177.1540  139.6140 C   0  0  1  0  0  3  0  0  0  0  0  0
  189.3960  178.4260  138.9390 C   0  0  0  0  0  2  0  0  0  0  0  0
  190.4230  176.4680  143.2520 C   0  0  0  0  0  2  0  0  0  0  0  0
  187.0030  178.0360  138.6070 C   0  0  1  0  0  3  0  0  0  0  0  0
  187.5430  176.8120  137.8770 C   0  0  0  0  0  1  0  0  0  0  0  0
  185.8520  177.6280  139.5160 C   0  0  0  0  0  2  0  0  0  0  0  0
  184.8400  179.8450  138.3990 O   0  0  0  0  0  0  0  0  0  0  0  0
  184.5300  178.8310  139.4660 S   0  0  0  0  0  0  0  0  0  0  0  0
  184.4400  179.5380  140.7910 O   0  0  0  0  0  0  0  0  0  0  0  0
  183.0000  178.0660  139.0920 N   0  0  0  0  0  0  0  0  0  0  0  0
  180.9430  178.8500  138.0490 C   0  0  0  0  0  2  0  0  0  0  0  0
  182.4420  178.6680  137.8840 C   0  0  0  0  0  3  0  0  0  0  0  0
  181.8670  180.0340  138.2150 C   0  0  0  0  0  2  0  0  0  0  0  0
  183.1120  176.6060  138.8990 C   0  0  1  0  0  3  0  0  0  0  0  0
  182.0160  175.7980  139.5850 C   0  0  0  0  0  1  0  0  0  0  0  0
  183.2180  176.2370  137.4240 C   0  0  0  0  0  2  0  0  0  0  0  0
  183.4980  174.7820  137.2570 C   0  0  0  0  0  0  0  0  0  0  0  0
  182.7640  172.5610  136.6240 C   0  0  0  0  0  3  0  0  0  0  0  0
  184.9980  172.8940  137.5010 C   0  0  0  0  0  3  0  0  0  0  0  0
  184.0090  172.0440  136.9960 C   0  0  0  0  0  3  0  0  0  0  0  0
  184.7420  174.2620  137.6340 C   0  0  0  0  0  3  0  0  0  0  0  0
  182.5080  173.9290  136.7560 C   0  0  0  0  0  3  0  0  0  0  0  0
  191.3670  176.9490  139.1790 C   0  0  0  0  0  2  0  0  0  0  0  0
  192.6470  175.2400  136.0440 C   0  0  0  0  0  3  0  0  0  0  0  0
  191.6210  174.3230  135.7930 C   0  0  0  0  0  0  0  0  0  0  0  0
  190.4390  175.1120  137.7570 C   0  0  0  0  0  3  0  0  0  0  0  0
  192.5660  176.0980  137.1450 C   0  0  0  0  0  3  0  0  0  0  0  0
  191.4580  176.0400  138.0000 C   0  0  0  0  0  0  0  0  0  0  0  0
  190.5200  174.2540  136.6560 C   0  0  0  0  0  3  0  0  0  0  0  0
  191.7430  172.0220  135.1030 N   0  0  0  0  0  1  0  0  0  0  0  0
  191.7160  173.3960  134.6330 C   0  0  0  0  0  2  0  0  0  0  0  0
  1  6  1  0  0  0  0
  2 11  1  0  0  0  0
  2 12  1  1  0  0  0
  4  8  2  0  0  0  0
  5  1  2  0  0  0  0
  7  9  2  0  0  0  0
  7  4  1  0  0  0  0
  8  1  1  0  0  0  0
  9  5  1  0  0  0  0
 10  3  1  0  0  0  0
 11  3  1  1  0  0  0
 11  7  1  0  0  0  0
 12 15  1  0  0  0  0
 13 35  1  1  0  0  0
 13  2  1  0  0  0  0
 14 10  1  0  0  0  0
 14 13  1  0  0  0  0
 15  4  1  0  0  0  0
 16 17  1  1  0  0  0
 16 10  1  0  0  0  0
 16 18  1  0  0  0  0
 19 20  2  0  0  0  0
 20 18  1  0  0  0  0
 20 21  2  0  0  0  0
 22 20  1  0  0  0  0
 23 25  1  0  0  0  0
 24 23  1  0  0  0  0
 24 25  1  0  0  0  0
 24 22  1  0  0  0  0
 26 22  1  0  0  0  0
 26 27  1  6  0  0  0
 28 26  1  0  0  0  0
 29 28  1  0  0  0  0
 29 33  1  0  0  0  0
 30 34  1  0  0  0  0
 30 32  2  0  0  0  0
 31 33  2  0  0  0  0
 32 31  1  0  0  0  0
 34 29  2  0  0  0  0
 36 39  1  0  0  0  0
 37 36  2  0  0  0  0
 37 41  1  0  0  0  0
 38 40  1  0  0  0  0
 39 40  2  0  0  0  0
 40 35  1  0  0  0  0
 41 38  2  0  0  0  0
 43 42  1  0  0  0  0
 43 37  1  0  0  0  0
M  END
>  <MODEL>
8

>  <REMARK>
 VINA RESULT:      -6.9      2.086      3.405
  Name = 
  11 active torsions:
  status: ('A' for Active; 'I' for Inactive)
    1  A    between atoms: C_1  and  C_34
    2  A    between atoms: C_1  and  C_35
    3  A    between atoms: C_2  and  C_6
    4  A    between atoms: C_2  and  N_27
    5  A    between atoms: N_4  and  S_12
    6  A    between atoms: N_4  and  C_15
    7  A    between atoms: N_4  and  C_22
    8  A    between atoms: C_6  and  S_12
    9  A    between atoms: C_11  and  C_14
   10  A    between atoms: C_14  and  C_22
   11  A    between atoms: C_19  and  C_37
                            x       y       z     vdW  Elec       q    Type
                         _______ _______ _______ _____ _____    ______ ____

>  <TORSDO>
F 11

$$$$
=
 OpenBabel10272414363D

 43 48  0  0  1  0  0  0  0  0999 V2000
  191.5620  176.5340  147.3060 C   0  0  0  0  0  0  0  0  0  0  0  0
  187.0670  177.7440  145.2840 C   0  0  1  0  0  3  0  0  0  0  0  0
  188.3450  176.9090  143.3100 C   0  0  0  0  0  2  0  0  0  0  0  0
  189.2910  177.2850  146.9290 C   0  0  0  0  0  0  0  0  0  0  0  0
  191.7960  176.5370  145.9280 C   0  0  0  0  0  3  0  0  0  0  0  0
  192.5750  176.1630  148.1800 O   0  0  0  0  0  1  0  0  0  0  0  0
  189.5080  177.2510  145.5350 C   0  0  0  0  0  0  0  0  0  0  0  0
  190.3120  176.9070  147.8050 C   0  0  0  0  0  3  0  0  0  0  0  0
  190.7760  176.9020  145.0460 C   0  0  0  0  0  3  0  0  0  0  0  0
  187.2910  177.3990  142.4020 N   0  0  0  0  0  0  0  0  0  0  0  0
  188.4310  177.7330  144.5960 C   0  0  2  0  0  3  0  0  0  0  0  0
  187.1800  178.4750  146.5440 N   0  0  0  0  0  2  0  0  0  0  0  0
  186.0470  178.3840  144.3460 C   0  0  1  0  0  3  0  0  0  0  0  0
  185.9800  177.5710  143.0490 C   0  0  0  0  0  2  0  0  0  0  0  0
  187.9370  177.6440  147.4820 C   0  0  0  0  0  2  0  0  0  0  0  0
  187.6680  178.5640  141.5820 C   0  0  1  0  0  3  0  0  0  0  0  0
  189.1520  178.6200  141.2390 C   0  0  0  0  0  1  0  0  0  0  0  0
  186.8410  178.6260  140.3050 C   0  0  0  0  0  2  0  0  0  0  0  0
  188.8530  177.1000  139.4060 O   0  0  0  0  0  0  0  0  0  0  0  0
  187.7650  178.0080  138.9040 S   0  0  0  0  0  0  0  0  0  0  0  0
  188.3980  179.1580  138.1700 O   0  0  0  0  0  0  0  0  0  0  0  0
  186.7300  177.1040  137.8200 N   0  0  0  0  0  0  0  0  0  0  0  0
  184.3340  177.4020  137.4950 C   0  0  0  0  0  2  0  0  0  0  0  0
  185.7130  177.9960  137.2670 C   0  0  0  0  0  3  0  0  0  0  0  0
  184.8300  178.5160  138.3870 C   0  0  0  0  0  2  0  0  0  0  0  0
  187.4660  176.4620  136.7120 C   0  0  1  0  0  3  0  0  0  0  0  0
  188.7870  177.1380  136.3630 C   0  0  0  0  0  1  0  0  0  0  0  0
  187.6640  174.9700  136.9550 C   0  0  0  0  0  2  0  0  0  0  0  0
  186.4440  174.2010  136.5750 C   0  0  0  0  0  0  0  0  0  0  0  0
  184.8940  172.3850  136.9860 C   0  0  0  0  0  3  0  0  0  0  0  0
  184.6090  173.8030  135.0430 C   0  0  0  0  0  3  0  0  0  0  0  0
  184.1860  172.7270  135.8290 C   0  0  0  0  0  3  0  0  0  0  0  0
  185.7390  174.5400  135.4140 C   0  0  0  0  0  3  0  0  0  0  0  0
  186.0230  173.1210  137.3580 C   0  0  0  0  0  3  0  0  0  0  0  0
  184.6530  178.4060  144.9630 C   0  0  0  0  0  2  0  0  0  0  0  0
  182.9370  178.7560  141.5980 C   0  0  0  0  0  3  0  0  0  0  0  0
  181.6160  179.0000  141.9880 C   0  0  0  0  0  0  0  0  0  0  0  0
  182.2760  178.8440  144.3140 C   0  0  0  0  0  3  0  0  0  0  0  0
  183.9280  178.5640  142.5650 C   0  0  0  0  0  3  0  0  0  0  0  0
  183.6010  178.6150  143.9260 C   0  0  0  0  0  0  0  0  0  0  0  0
  181.2850  179.0360  143.3480 C   0  0  0  0  0  3  0  0  0  0  0  0
  180.2930  177.9210  140.2930 N   0  0  0  0  0  1  0  0  0  0  0  0
  180.5570  179.1840  140.9600 C   0  0  0  0  0  2  0  0  0  0  0  0
  1  8  1  0  0  0  0
  1  6  1  0  0  0  0
  2 12  1  1  0  0  0
  4 15  1  0  0  0  0
  4  8  2  0  0  0  0
  5  1  2  0  0  0  0
  7  4  1  0  0  0  0
  9  7  2  0  0  0  0
  9  5  1  0  0  0  0
 10 14  1  0  0  0  0
 10  3  1  0  0  0  0
 11  3  1  6  0  0  0
 11  2  1  0  0  0  0
 11  7  1  0  0  0  0
 12 15  1  0  0  0  0
 13 35  1  1  0  0  0
 13  2  1  0  0  0  0
 14 13  1  0  0  0  0
 16 17  1  6  0  0  0
 16 10  1  0  0  0  0
 18 16  1  0  0  0  0
 20 19  2  0  0  0  0
 20 18  1  0  0  0  0
 21 20  2  0  0  0  0
 22 20  1  0  0  0  0
 23 25  1  0  0  0  0
 24 23  1  0  0  0  0
 24 22  1  0  0  0  0
 24 25  1  0  0  0  0
 26 27  1  1  0  0  0
 26 28  1  0  0  0  0
 26 22  1  0  0  0  0
 29 28  1  0  0  0  0
 29 34  1  0  0  0  0
 30 34  2  0  0  0  0
 31 33  1  0  0  0  0
 31 32  2  0  0  0  0
 32 30  1  0  0  0  0
 33 29  2  0  0  0  0
 36 37  2  0  0  0  0
 36 39  1  0  0  0  0
 37 41  1  0  0  0  0
 39 40  2  0  0  0  0
 40 38  1  0  0  0  0
 40 35  1  0  0  0  0
 41 38  2  0  0  0  0
 42 43  1  0  0  0  0
 43 37  1  0  0  0  0
M  END
>  <MODEL>
9

>  <REMARK>
 VINA RESULT:      -6.8      3.155      7.615
  Name = 
  11 active torsions:
  status: ('A' for Active; 'I' for Inactive)
    1  A    between atoms: C_1  and  C_34
    2  A    between atoms: C_1  and  C_35
    3  A    between atoms: C_2  and  C_6
    4  A    between atoms: C_2  and  N_27
    5  A    between atoms: N_4  and  S_12
    6  A    between atoms: N_4  and  C_15
    7  A    between atoms: N_4  and  C_22
    8  A    between atoms: C_6  and  S_12
    9  A    between atoms: C_11  and  C_14
   10  A    between atoms: C_14  and  C_22
   11  A    between atoms: C_19  and  C_37
                            x       y       z     vdW  Elec       q    Type
                         _______ _______ _______ _____ _____    ______ ____

>  <TORSDO>
F 11

$$$$
