=
 OpenBabel10272413093D

 32 37  0  0  1  0  0  0  0  0999 V2000
  185.9240  178.4940  139.4270 C   0  0  0  0  0  0  0  0  0  0  0  0
  187.4060  178.6190  141.4600 C   0  0  2  0  0  3  0  0  0  0  0  0
  185.7840  178.2890  138.0450 C   0  0  0  0  0  3  0  0  0  0  0  0
  187.1780  178.3110  140.0160 C   0  0  0  0  0  0  0  0  0  0  0  0
  188.0930  177.4070  142.0990 C   0  0  2  0  0  3  0  0  0  0  0  0
  185.0590  178.7340  145.9150 C   0  0  0  0  0  2  0  0  0  0  0  0
  186.1050  179.0340  142.1800 C   0  0  1  0  0  3  0  0  0  0  0  0
  187.2040  177.4900  145.5780 C   0  0  0  0  0  2  0  0  0  0  0  0
  187.0460  177.5980  144.0650 C   0  0  2  0  0  3  0  0  0  0  0  0
  190.5260  176.5500  141.9540 N   0  0  0  0  0  2  0  0  0  0  0  0
  188.2310  177.7350  139.3000 C   0  0  0  0  0  0  0  0  0  0  0  0
  188.3150  177.6590  143.4610 O   0  0  0  0  0  0  0  0  0  0  0  0
  189.3790  177.2480  140.0190 N   0  0  0  0  0  0  0  0  0  0  0  0
  188.0890  177.5130  137.9260 C   0  0  0  0  0  3  0  0  0  0  0  0
  184.9870  178.3620  141.6370 O   0  0  0  0  0  0  0  0  0  0  0  0
  190.5460  176.2250  143.2680 O   0  0  0  0  0  1  0  0  0  0  0  0
  184.7830  178.8960  140.3420 C   0  0  2  0  0  3  0  0  0  0  0  0
  186.2310  178.8580  143.7040 C   0  0  2  0  0  3  0  0  0  0  0  0
  189.3740  177.1120  141.3210 C   0  0  0  0  0  0  0  0  0  0  0  0
  186.8730  177.8160  137.2960 C   0  0  0  0  0  3  0  0  0  0  0  0
  185.8350  177.4650  146.2510 C   0  0  0  0  0  2  0  0  0  0  0  0
  184.8720  178.8580  144.4060 C   0  0  0  0  0  2  0  0  0  0  0  0
  181.3990  178.9550  138.6000 C   0  0  0  0  0  0  0  0  0  0  0  0
  180.6040  179.8380  137.8800 O   0  0  0  0  0  1  0  0  0  0  0  0
  183.4390  178.4690  139.8230 C   0  0  0  0  0  0  0  0  0  0  0  0
  180.9520  177.6530  138.8280 C   0  0  0  0  0  3  0  0  0  0  0  0
  182.9830  177.1600  140.0420 C   0  0  0  0  0  3  0  0  0  0  0  0
  182.6430  179.3670  139.0940 C   0  0  0  0  0  0  0  0  0  0  0  0
  183.0850  180.6660  138.8600 O   0  0  0  0  0  1  0  0  0  0  0  0
  181.7420  176.7460  139.5510 C   0  0  0  0  0  0  0  0  0  0  0  0
  179.9850  175.1120  140.1520 C   0  0  0  0  0  1  0  0  0  0  0  0
  181.3220  175.4360  139.7930 O   0  0  0  0  0  0  0  0  0  0  0  0
  1  4  1  0  0  0  0
  1 17  1  0  0  0  0
  2  4  1  6  0  0  0
  2  5  1  0  0  0  0
  2  7  1  0  0  0  0
  3  1  2  0  0  0  0
  5 19  1  6  0  0  0
  5 12  1  0  0  0  0
  6 21  1  0  0  0  0
  7 15  1  6  0  0  0
  7 18  1  0  0  0  0
  8 21  1  0  0  0  0
  9  8  1  1  0  0  0
 10 16  1  0  0  0  0
 11  4  2  0  0  0  0
 11 13  1  0  0  0  0
 12  9  1  0  0  0  0
 13 19  2  0  0  0  0
 14 11  1  0  0  0  0
 17 25  1  6  0  0  0
 17 15  1  0  0  0  0
 18  9  1  0  0  0  0
 18 22  1  1  0  0  0
 19 10  1  0  0  0  0
 20 14  2  0  0  0  0
 20  3  1  0  0  0  0
 22  6  1  0  0  0  0
 23 26  2  0  0  0  0
 23 28  1  0  0  0  0
 24 23  1  0  0  0  0
 25 27  1  0  0  0  0
 26 30  1  0  0  0  0
 28 25  2  0  0  0  0
 29 28  1  0  0  0  0
 30 32  1  0  0  0  0
 30 27  2  0  0  0  0
 32 31  1  0  0  0  0
M  END
>  <MODEL>
1

>  <REMARK>
 VINA RESULT:      -8.9      0.000      0.000
  Name = 
  2 active torsions:
  status: ('A' for Active; 'I' for Inactive)
    1  A    between atoms: O_15  and  C_26
    2  A    between atoms: C_16  and  C_27
                            x       y       z     vdW  Elec       q    Type
                         _______ _______ _______ _____ _____    ______ ____

>  <TORSDO>
F 2

$$$$
=
 OpenBabel10272413093D

 32 37  0  0  1  0  0  0  0  0999 V2000
  189.9610  177.8720  140.9590 C   0  0  0  0  0  0  0  0  0  0  0  0
  188.1010  178.6600  142.4640 C   0  0  2  0  0  3  0  0  0  0  0  0
  191.2720  177.3920  140.8080 C   0  0  0  0  0  3  0  0  0  0  0  0
  189.4490  178.0520  142.2460 C   0  0  0  0  0  0  0  0  0  0  0  0
  187.3200  177.7470  143.4150 C   0  0  2  0  0  3  0  0  0  0  0  0
  183.5620  179.1240  140.3300 C   0  0  0  0  0  2  0  0  0  0  0  0
  187.3640  178.9330  141.1350 C   0  0  1  0  0  3  0  0  0  0  0  0
  183.8480  178.2900  142.6720 C   0  0  0  0  0  2  0  0  0  0  0  0
  185.3390  178.0840  142.4330 C   0  0  2  0  0  3  0  0  0  0  0  0
  187.5050  177.3780  145.9660 N   0  0  0  0  0  2  0  0  0  0  0  0
  190.1360  177.5750  143.3660 C   0  0  0  0  0  0  0  0  0  0  0  0
  186.0430  178.2840  143.6350 O   0  0  0  0  0  0  0  0  0  0  0  0
  189.4350  177.4660  144.6190 N   0  0  0  0  0  0  0  0  0  0  0  0
  191.4350  177.0800  143.2170 C   0  0  0  0  0  3  0  0  0  0  0  0
  187.6940  177.9650  140.1620 O   0  0  0  0  0  0  0  0  0  0  0  0
  186.1600  177.3100  146.1070 O   0  0  0  0  0  1  0  0  0  0  0  0
  189.0420  178.2000  139.7970 C   0  0  2  0  0  3  0  0  0  0  0  0
  185.8470  179.0690  141.3580 C   0  0  2  0  0  3  0  0  0  0  0  0
  188.1330  177.5740  144.6960 C   0  0  0  0  0  0  0  0  0  0  0  0
  192.0120  177.0160  141.9390 C   0  0  0  0  0  3  0  0  0  0  0  0
  183.0750  178.1180  141.3680 C   0  0  0  0  0  2  0  0  0  0  0  0
  185.0510  178.9290  140.0590 C   0  0  0  0  0  2  0  0  0  0  0  0
  189.5290  177.2890  136.1330 C   0  0  0  0  0  0  0  0  0  0  0  0
  189.3600  177.8600  134.8780 O   0  0  0  0  0  1  0  0  0  0  0  0
  189.3740  177.4270  138.5520 C   0  0  0  0  0  0  0  0  0  0  0  0
  190.0290  175.9900  136.2390 C   0  0  0  0  0  3  0  0  0  0  0  0
  189.8820  176.1230  138.6480 C   0  0  0  0  0  3  0  0  0  0  0  0
  189.2020  178.0120  137.2870 C   0  0  0  0  0  0  0  0  0  0  0  0
  188.7070  179.3080  137.1750 O   0  0  0  0  0  1  0  0  0  0  0  0
  190.2090  175.3980  137.4990 C   0  0  0  0  0  0  0  0  0  0  0  0
  191.4860  173.4680  136.6290 C   0  0  0  0  0  1  0  0  0  0  0  0
  190.7100  174.1020  137.6360 O   0  0  0  0  0  0  0  0  0  0  0  0
  1  4  1  0  0  0  0
  2  4  1  6  0  0  0
  2  5  1  0  0  0  0
  3  1  2  0  0  0  0
  3 20  1  0  0  0  0
  4 11  2  0  0  0  0
  5 12  1  1  0  0  0
  5 19  1  0  0  0  0
  6 21  1  0  0  0  0
  7 15  1  6  0  0  0
  7 18  1  0  0  0  0
  7  2  1  0  0  0  0
  9  8  1  1  0  0  0
  9 12  1  0  0  0  0
 10 16  1  0  0  0  0
 11 13  1  0  0  0  0
 13 19  2  0  0  0  0
 14 11  1  0  0  0  0
 17 25  1  6  0  0  0
 17 15  1  0  0  0  0
 17  1  1  0  0  0  0
 18 22  1  6  0  0  0
 18  9  1  0  0  0  0
 19 10  1  0  0  0  0
 20 14  2  0  0  0  0
 21  8  1  0  0  0  0
 22  6  1  0  0  0  0
 23 26  2  0  0  0  0
 23 28  1  0  0  0  0
 24 23  1  0  0  0  0
 25 27  1  0  0  0  0
 26 30  1  0  0  0  0
 28 25  2  0  0  0  0
 29 28  1  0  0  0  0
 30 32  1  0  0  0  0
 30 27  2  0  0  0  0
 31 32  1  0  0  0  0
M  END
>  <MODEL>
2

>  <REMARK>
 VINA RESULT:      -8.5      3.062      6.049
  Name = 
  2 active torsions:
  status: ('A' for Active; 'I' for Inactive)
    1  A    between atoms: O_15  and  C_26
    2  A    between atoms: C_16  and  C_27
                            x       y       z     vdW  Elec       q    Type
                         _______ _______ _______ _____ _____    ______ ____

>  <TORSDO>
F 2

$$$$
=
 OpenBabel10272413093D

 32 37  0  0  1  0  0  0  0  0999 V2000
  186.0040  178.8130  140.4120 C   0  0  0  0  0  0  0  0  0  0  0  0
  188.4690  178.2980  140.3440 C   0  0  2  0  0  3  0  0  0  0  0  0
  184.7810  178.9580  139.7370 C   0  0  0  0  0  3  0  0  0  0  0  0
  187.1210  178.3670  139.7020 C   0  0  0  0  0  0  0  0  0  0  0  0
  189.0490  176.9050  140.0760 C   0  0  2  0  0  3  0  0  0  0  0  0
  190.7120  177.5910  144.7990 C   0  0  0  0  0  2  0  0  0  0  0  0
  188.4180  178.6610  141.8440 C   0  0  1  0  0  3  0  0  0  0  0  0
  191.3250  176.2490  142.7770 C   0  0  0  0  0  2  0  0  0  0  0  0
  190.0680  176.7290  142.0590 C   0  0  2  0  0  3  0  0  0  0  0  0
  190.0730  175.8610  137.9460 N   0  0  0  0  0  2  0  0  0  0  0  0
  186.9960  177.8730  138.4010 C   0  0  0  0  0  0  0  0  0  0  0  0
  190.3130  176.8020  140.6750 O   0  0  0  0  0  0  0  0  0  0  0  0
  188.0810  177.1140  137.8360 N   0  0  0  0  0  0  0  0  0  0  0  0
  185.7750  178.0000  137.7310 C   0  0  0  0  0  3  0  0  0  0  0  0
  187.1960  178.2560  142.4240 O   0  0  0  0  0  0  0  0  0  0  0  0
  191.0400  175.2330  138.6550 O   0  0  0  0  0  1  0  0  0  0  0  0
  186.1930  179.1010  141.8900 C   0  0  2  0  0  3  0  0  0  0  0  0
  189.6490  178.1160  142.5910 C   0  0  2  0  0  3  0  0  0  0  0  0
  189.0720  176.6730  138.5680 C   0  0  0  0  0  0  0  0  0  0  0  0
  184.6760  178.5680  138.3930 C   0  0  0  0  0  3  0  0  0  0  0  0
  191.0880  176.2050  144.2840 C   0  0  0  0  0  2  0  0  0  0  0  0
  189.4460  178.0880  144.1070 C   0  0  0  0  0  2  0  0  0  0  0  0
  183.7710  178.8440  144.8150 C   0  0  0  0  0  0  0  0  0  0  0  0
  183.7960  178.8610  146.2040 O   0  0  0  0  0  1  0  0  0  0  0  0
  184.9250  178.9500  142.6810 C   0  0  0  0  0  0  0  0  0  0  0  0
  182.5530  178.7030  144.1480 C   0  0  0  0  0  3  0  0  0  0  0  0
  183.6950  178.8130  142.0210 C   0  0  0  0  0  3  0  0  0  0  0  0
  184.9600  178.9700  144.0850 C   0  0  0  0  0  0  0  0  0  0  0  0
  186.1710  179.1140  144.7550 O   0  0  0  0  0  1  0  0  0  0  0  0
  182.5070  178.6870  142.7450 C   0  0  0  0  0  0  0  0  0  0  0  0
  181.0900  179.1130  140.7640 C   0  0  0  0  0  1  0  0  0  0  0  0
  181.3030  178.5500  142.0510 O   0  0  0  0  0  0  0  0  0  0  0  0
  1 17  1  0  0  0  0
  2  4  1  1  0  0  0
  2  7  1  0  0  0  0
  3  1  1  0  0  0  0
  4  1  2  0  0  0  0
  5 19  1  6  0  0  0
  5  2  1  0  0  0  0
  5 12  1  0  0  0  0
  7 15  1  1  0  0  0
  7 18  1  0  0  0  0
  8 21  1  0  0  0  0
  9 18  1  0  0  0  0
  9  8  1  1  0  0  0
 10 19  1  0  0  0  0
 10 16  1  0  0  0  0
 11  4  1  0  0  0  0
 12  9  1  0  0  0  0
 13 11  1  0  0  0  0
 13 19  2  0  0  0  0
 14 20  1  0  0  0  0
 14 11  2  0  0  0  0
 17 15  1  0  0  0  0
 17 25  1  1  0  0  0
 18 22  1  1  0  0  0
 20  3  2  0  0  0  0
 21  6  1  0  0  0  0
 22  6  1  0  0  0  0
 23 24  1  0  0  0  0
 25 28  1  0  0  0  0
 26 23  1  0  0  0  0
 27 25  2  0  0  0  0
 27 30  1  0  0  0  0
 28 29  1  0  0  0  0
 28 23  2  0  0  0  0
 30 26  2  0  0  0  0
 31 32  1  0  0  0  0
 32 30  1  0  0  0  0
M  END
>  <MODEL>
3

>  <REMARK>
 VINA RESULT:      -8.4      2.349      4.149
  Name = 
  2 active torsions:
  status: ('A' for Active; 'I' for Inactive)
    1  A    between atoms: O_15  and  C_26
    2  A    between atoms: C_16  and  C_27
                            x       y       z     vdW  Elec       q    Type
                         _______ _______ _______ _____ _____    ______ ____

>  <TORSDO>
F 2

$$$$
=
 OpenBabel10272413093D

 32 37  0  0  1  0  0  0  0  0999 V2000
  187.2180  178.6080  140.9520 C   0  0  0  0  0  0  0  0  0  0  0  0
  187.9410  178.0880  138.5960 C   0  0  2  0  0  3  0  0  0  0  0  0
  186.2140  179.0140  141.8460 C   0  0  0  0  0  3  0  0  0  0  0  0
  186.8910  178.4130  139.6080 C   0  0  0  0  0  0  0  0  0  0  0  0
  187.4680  176.8640  137.8030 C   0  0  2  0  0  3  0  0  0  0  0  0
  192.3990  175.7970  138.0960 C   0  0  0  0  0  2  0  0  0  0  0  0
  189.3310  177.8990  139.2400 C   0  0  1  0  0  3  0  0  0  0  0  0
  190.4490  175.2390  136.6280 C   0  0  0  0  0  2  0  0  0  0  0  0
  189.5070  175.9730  137.5760 C   0  0  2  0  0  3  0  0  0  0  0  0
  185.6840  176.6140  135.9510 N   0  0  0  0  0  2  0  0  0  0  0  0
  185.5580  178.4130  139.1860 C   0  0  0  0  0  0  0  0  0  0  0  0
  188.4370  176.5240  136.8470 O   0  0  0  0  0  0  0  0  0  0  0  0
  185.2380  177.8750  137.8900 N   0  0  0  0  0  0  0  0  0  0  0  0
  184.5540  178.8000  140.0780 C   0  0  0  0  0  3  0  0  0  0  0  0
  189.2220  177.3470  140.5350 O   0  0  0  0  0  0  0  0  0  0  0  0
  186.4560  175.7510  135.2500 O   0  0  0  0  0  1  0  0  0  0  0  0
  188.6580  178.3510  141.3570 C   0  0  2  0  0  3  0  0  0  0  0  0
  190.2660  177.0930  138.3190 C   0  0  2  0  0  3  0  0  0  0  0  0
  186.1030  177.1790  137.1960 C   0  0  0  0  0  0  0  0  0  0  0  0
  184.8880  179.1260  141.4010 C   0  0  0  0  0  3  0  0  0  0  0  0
  191.6370  174.6720  137.4000 C   0  0  0  0  0  2  0  0  0  0  0  0
  191.4820  176.5380  139.0640 C   0  0  0  0  0  2  0  0  0  0  0  0
  190.1910  177.4820  144.7310 C   0  0  0  0  0  0  0  0  0  0  0  0
  191.4460  177.3460  145.3110 O   0  0  0  0  0  1  0  0  0  0  0  0
  188.7980  177.9630  142.8020 C   0  0  0  0  0  0  0  0  0  0  0  0
  189.0470  177.2730  145.5050 C   0  0  0  0  0  3  0  0  0  0  0  0
  187.6550  177.7560  143.5890 C   0  0  0  0  0  3  0  0  0  0  0  0
  190.0700  177.8290  143.3800 C   0  0  0  0  0  0  0  0  0  0  0  0
  191.2140  178.0400  142.6150 O   0  0  0  0  0  1  0  0  0  0  0  0
  187.7710  177.4090  144.9380 C   0  0  0  0  0  0  0  0  0  0  0  0
  185.9080  178.2740  146.3160 C   0  0  0  0  0  1  0  0  0  0  0  0
  186.6090  177.2090  145.6870 O   0  0  0  0  0  0  0  0  0  0  0  0
  1 17  1  0  0  0  0
  1  3  1  0  0  0  0
  2  7  1  0  0  0  0
  2  4  1  1  0  0  0
  4  1  2  0  0  0  0
  5 12  1  6  0  0  0
  5  2  1  0  0  0  0
  6 22  1  0  0  0  0
  7 15  1  1  0  0  0
  8 21  1  0  0  0  0
  9  8  1  6  0  0  0
  9 18  1  0  0  0  0
 10 19  1  0  0  0  0
 11  4  1  0  0  0  0
 11 14  2  0  0  0  0
 12  9  1  0  0  0  0
 13 11  1  0  0  0  0
 14 20  1  0  0  0  0
 15 17  1  0  0  0  0
 16 10  1  0  0  0  0
 17 25  1  1  0  0  0
 18 22  1  1  0  0  0
 18  7  1  0  0  0  0
 19  5  1  0  0  0  0
 19 13  2  0  0  0  0
 20  3  2  0  0  0  0
 21  6  1  0  0  0  0
 23 24  1  0  0  0  0
 23 26  1  0  0  0  0
 25 28  1  0  0  0  0
 25 27  2  0  0  0  0
 27 30  1  0  0  0  0
 28 23  2  0  0  0  0
 29 28  1  0  0  0  0
 30 26  2  0  0  0  0
 30 32  1  0  0  0  0
 32 31  1  0  0  0  0
M  END
>  <MODEL>
4

>  <REMARK>
 VINA RESULT:      -8.2      3.356      7.419
  Name = 
  2 active torsions:
  status: ('A' for Active; 'I' for Inactive)
    1  A    between atoms: O_15  and  C_26
    2  A    between atoms: C_16  and  C_27
                            x       y       z     vdW  Elec       q    Type
                         _______ _______ _______ _____ _____    ______ ____

>  <TORSDO>
F 2

$$$$
=
 OpenBabel10272413093D

 32 37  0  0  1  0  0  0  0  0999 V2000
  185.1020  178.8780  142.6990 C   0  0  0  0  0  0  0  0  0  0  0  0
  183.8230  178.9450  140.5300 C   0  0  2  0  0  3  0  0  0  0  0  0
  185.1050  178.9340  144.1020 C   0  0  0  0  0  3  0  0  0  0  0  0
  183.8800  178.8930  142.0230 C   0  0  0  0  0  0  0  0  0  0  0  0
  182.8780  177.8360  140.0550 C   0  0  2  0  0  3  0  0  0  0  0  0
  186.3650  177.5570  136.4090 C   0  0  0  0  0  2  0  0  0  0  0  0
  185.2260  178.8670  139.8910 C   0  0  1  0  0  3  0  0  0  0  0  0
  183.9520  176.9780  136.7360 C   0  0  0  0  0  2  0  0  0  0  0  0
  184.0470  177.3520  138.2120 C   0  0  2  0  0  3  0  0  0  0  0  0
  180.3000  177.6550  140.0920 N   0  0  0  0  0  2  0  0  0  0  0  0
  182.6740  178.7550  142.7150 C   0  0  0  0  0  0  0  0  0  0  0  0
  182.8070  177.8480  138.6540 O   0  0  0  0  0  0  0  0  0  0  0  0
  181.4800  178.4300  141.9780 N   0  0  0  0  0  0  0  0  0  0  0  0
  182.6740  178.7930  144.1130 C   0  0  0  0  0  3  0  0  0  0  0  0
  186.0940  178.0670  140.6650 O   0  0  0  0  0  0  0  0  0  0  0  0
  180.2700  177.0810  138.8670 O   0  0  0  0  0  1  0  0  0  0  0  0
  186.3590  178.7880  141.8540 C   0  0  2  0  0  3  0  0  0  0  0  0
  185.1440  178.4180  138.4200 C   0  0  2  0  0  3  0  0  0  0  0  0
  181.5230  178.0320  140.7320 C   0  0  0  0  0  0  0  0  0  0  0  0
  183.8900  178.9090  144.8040 C   0  0  0  0  0  3  0  0  0  0  0  0
  185.3020  176.4770  136.2310 C   0  0  0  0  0  2  0  0  0  0  0  0
  186.4920  177.9380  137.8810 C   0  0  0  0  0  2  0  0  0  0  0  0
  189.8030  177.3600  142.6190 C   0  0  0  0  0  0  0  0  0  0  0  0
  191.0130  177.1310  141.9740 O   0  0  0  0  0  1  0  0  0  0  0  0
  187.5110  178.1590  142.5850 C   0  0  0  0  0  0  0  0  0  0  0  0
  189.6630  177.0170  143.9650 C   0  0  0  0  0  3  0  0  0  0  0  0
  187.3820  177.8150  143.9390 C   0  0  0  0  0  3  0  0  0  0  0  0
  188.7300  177.9330  141.9250 C   0  0  0  0  0  0  0  0  0  0  0  0
  188.8770  178.2760  140.5850 O   0  0  0  0  0  1  0  0  0  0  0  0
  188.4500  177.2430  144.6340 C   0  0  0  0  0  0  0  0  0  0  0  0
  187.4580  177.6670  146.8590 C   0  0  0  0  0  1  0  0  0  0  0  0
  188.2820  176.9120  145.9810 O   0  0  0  0  0  0  0  0  0  0  0  0
  1  3  1  0  0  0  0
  2  4  1  1  0  0  0
  3 20  2  0  0  0  0
  4  1  2  0  0  0  0
  4 11  1  0  0  0  0
  5 12  1  6  0  0  0
  5  2  1  0  0  0  0
  5 19  1  0  0  0  0
  6 22  1  0  0  0  0
  7  2  1  0  0  0  0
  7 15  1  1  0  0  0
  9  8  1  6  0  0  0
  9 18  1  0  0  0  0
  9 12  1  0  0  0  0
 10 19  1  0  0  0  0
 11 14  2  0  0  0  0
 13 11  1  0  0  0  0
 14 20  1  0  0  0  0
 15 17  1  0  0  0  0
 16 10  1  0  0  0  0
 17 25  1  1  0  0  0
 17  1  1  0  0  0  0
 18 22  1  1  0  0  0
 18  7  1  0  0  0  0
 19 13  2  0  0  0  0
 21  6  1  0  0  0  0
 21  8  1  0  0  0  0
 23 26  1  0  0  0  0
 24 23  1  0  0  0  0
 25 27  2  0  0  0  0
 26 30  2  0  0  0  0
 27 30  1  0  0  0  0
 28 25  1  0  0  0  0
 28 23  2  0  0  0  0
 29 28  1  0  0  0  0
 30 32  1  0  0  0  0
 32 31  1  0  0  0  0
M  END
>  <MODEL>
5

>  <REMARK>
 VINA RESULT:      -8.0      2.747      7.633
  Name = 
  2 active torsions:
  status: ('A' for Active; 'I' for Inactive)
    1  A    between atoms: O_15  and  C_26
    2  A    between atoms: C_16  and  C_27
                            x       y       z     vdW  Elec       q    Type
                         _______ _______ _______ _____ _____    ______ ____

>  <TORSDO>
F 2

$$$$
=
 OpenBabel10272413093D

 32 37  0  0  1  0  0  0  0  0999 V2000
  189.0230  177.8210  140.1030 C   0  0  0  0  0  0  0  0  0  0  0  0
  187.4220  178.6770  141.8500 C   0  0  2  0  0  3  0  0  0  0  0  0
  190.2850  177.3030  139.7720 C   0  0  0  0  0  3  0  0  0  0  0  0
  188.7070  178.0290  141.4480 C   0  0  0  0  0  0  0  0  0  0  0  0
  186.7610  177.7960  142.9160 C   0  0  2  0  0  3  0  0  0  0  0  0
  182.6370  179.2500  140.3840 C   0  0  0  0  0  2  0  0  0  0  0  0
  186.5080  178.9580  140.6370 C   0  0  1  0  0  3  0  0  0  0  0  0
  183.2340  178.4310  142.6720 C   0  0  0  0  0  2  0  0  0  0  0  0
  184.6700  178.1800  142.2240 C   0  0  2  0  0  3  0  0  0  0  0  0
  187.3020  177.4460  145.4180 N   0  0  0  0  0  2  0  0  0  0  0  0
  189.5350  177.5430  142.4640 C   0  0  0  0  0  0  0  0  0  0  0  0
  185.5440  178.3710  143.3100 O   0  0  0  0  0  0  0  0  0  0  0  0
  189.0200  177.4670  143.8060 N   0  0  0  0  0  0  0  0  0  0  0  0
  190.7860  177.0100  142.1370 C   0  0  0  0  0  3  0  0  0  0  0  0
  186.6690  177.9720  139.6390 O   0  0  0  0  0  0  0  0  0  0  0  0
  185.9910  177.4190  145.7520 O   0  0  0  0  0  1  0  0  0  0  0  0
  187.9550  178.1650  139.0810 C   0  0  2  0  0  3  0  0  0  0  0  0
  185.0430  179.1390  141.0740 C   0  0  2  0  0  3  0  0  0  0  0  0
  187.7450  177.6120  144.0680 C   0  0  0  0  0  0  0  0  0  0  0  0
  191.1700  176.9170  140.7910 C   0  0  0  0  0  3  0  0  0  0  0  0
  182.2770  178.2680  141.4950 C   0  0  0  0  0  2  0  0  0  0  0  0
  184.0650  179.0090  139.9050 C   0  0  0  0  0  2  0  0  0  0  0  0
  188.9140  177.1410  135.5430 C   0  0  0  0  0  0  0  0  0  0  0  0
  189.6060  177.6530  134.4520 O   0  0  0  0  0  1  0  0  0  0  0  0
  188.0840  177.3700  137.8120 C   0  0  0  0  0  0  0  0  0  0  0  0
  188.3470  175.8670  135.4640 C   0  0  0  0  0  3  0  0  0  0  0  0
  187.5220  176.0870  137.7260 C   0  0  0  0  0  3  0  0  0  0  0  0
  188.7860  177.8950  136.7160 C   0  0  0  0  0  0  0  0  0  0  0  0
  189.3560  179.1630  136.7890 O   0  0  0  0  0  1  0  0  0  0  0  0
  187.6470  175.3320  136.5570 C   0  0  0  0  0  0  0  0  0  0  0  0
  185.9910  173.6740  137.3460 C   0  0  0  0  0  1  0  0  0  0  0  0
  187.0720  174.0600  136.5080 O   0  0  0  0  0  0  0  0  0  0  0  0
  1  4  1  0  0  0  0
  2  4  1  6  0  0  0
  2  5  1  0  0  0  0
  3  1  2  0  0  0  0
  3 20  1  0  0  0  0
  4 11  2  0  0  0  0
  5 12  1  1  0  0  0
  5 19  1  0  0  0  0
  6 21  1  0  0  0  0
  7 15  1  6  0  0  0
  7 18  1  0  0  0  0
  7  2  1  0  0  0  0
  9  8  1  1  0  0  0
  9 12  1  0  0  0  0
 10 16  1  0  0  0  0
 11 13  1  0  0  0  0
 13 19  2  0  0  0  0
 14 11  1  0  0  0  0
 17 25  1  6  0  0  0
 17 15  1  0  0  0  0
 17  1  1  0  0  0  0
 18 22  1  6  0  0  0
 18  9  1  0  0  0  0
 19 10  1  0  0  0  0
 20 14  2  0  0  0  0
 21  8  1  0  0  0  0
 22  6  1  0  0  0  0
 23 28  1  0  0  0  0
 24 23  1  0  0  0  0
 26 23  2  0  0  0  0
 26 30  1  0  0  0  0
 27 25  1  0  0  0  0
 28 29  1  0  0  0  0
 28 25  2  0  0  0  0
 30 27  2  0  0  0  0
 32 30  1  0  0  0  0
 32 31  1  0  0  0  0
M  END
>  <MODEL>
6

>  <REMARK>
 VINA RESULT:      -8.0      2.998      5.221
  Name = 
  2 active torsions:
  status: ('A' for Active; 'I' for Inactive)
    1  A    between atoms: O_15  and  C_26
    2  A    between atoms: C_16  and  C_27
                            x       y       z     vdW  Elec       q    Type
                         _______ _______ _______ _____ _____    ______ ____

>  <TORSDO>
F 2

$$$$
=
 OpenBabel10272413093D

 32 37  0  0  1  0  0  0  0  0999 V2000
  189.6690  177.7590  139.1950 C   0  0  0  0  0  0  0  0  0  0  0  0
  189.2820  178.4270  141.5930 C   0  0  2  0  0  3  0  0  0  0  0  0
  190.5360  177.2830  138.1990 C   0  0  0  0  0  3  0  0  0  0  0  0
  190.1250  177.8280  140.5130 C   0  0  0  0  0  0  0  0  0  0  0  0
  189.2440  177.4400  142.7640 C   0  0  2  0  0  3  0  0  0  0  0  0
  184.4840  179.1250  142.9560 C   0  0  0  0  0  2  0  0  0  0  0  0
  187.8800  178.8250  141.0830 C   0  0  1  0  0  3  0  0  0  0  0  0
  186.1610  178.0810  144.4930 C   0  0  0  0  0  2  0  0  0  0  0  0
  187.1260  177.8830  143.3290 C   0  0  2  0  0  3  0  0  0  0  0  0
  191.0100  176.8410  144.5530 N   0  0  0  0  0  2  0  0  0  0  0  0
  191.3400  177.2450  140.8850 C   0  0  0  0  0  0  0  0  0  0  0  0
  188.4510  177.9670  143.7950 O   0  0  0  0  0  0  0  0  0  0  0  0
  191.6110  177.0320  142.2830 N   0  0  0  0  0  0  0  0  0  0  0  0
  192.1980  176.7540  139.8970 C   0  0  0  0  0  3  0  0  0  0  0  0
  187.4380  177.9460  140.0710 O   0  0  0  0  0  0  0  0  0  0  0  0
  190.0750  176.7740  145.5300 O   0  0  0  0  0  1  0  0  0  0  0  0
  188.2410  178.2000  138.9330 C   0  0  2  0  0  3  0  0  0  0  0  0
  186.8810  178.9560  142.2470 C   0  0  2  0  0  3  0  0  0  0  0  0
  190.6780  177.1440  143.1950 C   0  0  0  0  0  0  0  0  0  0  0  0
  191.8050  176.7990  138.5510 C   0  0  0  0  0  3  0  0  0  0  0  0
  184.7190  178.0340  143.9960 C   0  0  0  0  0  2  0  0  0  0  0  0
  185.4270  178.9400  141.7710 C   0  0  0  0  0  2  0  0  0  0  0  0
  186.7540  177.6720  135.4690 C   0  0  0  0  0  0  0  0  0  0  0  0
  186.4160  178.4170  134.3460 O   0  0  0  0  0  1  0  0  0  0  0  0
  187.6370  177.5380  137.7260 C   0  0  0  0  0  0  0  0  0  0  0  0
  186.5450  176.2910  135.4700 C   0  0  0  0  0  3  0  0  0  0  0  0
  187.4290  176.1510  137.7150 C   0  0  0  0  0  3  0  0  0  0  0  0
  187.3010  178.2990  136.5950 C   0  0  0  0  0  0  0  0  0  0  0  0
  187.5100  179.6750  136.5870 O   0  0  0  0  0  1  0  0  0  0  0  0
  186.8820  175.5210  136.5940 C   0  0  0  0  0  0  0  0  0  0  0  0
  185.4150  173.5470  136.8470 C   0  0  0  0  0  1  0  0  0  0  0  0
  186.6870  174.1380  136.6220 O   0  0  0  0  0  0  0  0  0  0  0  0
  1  4  1  0  0  0  0
  2  4  1  6  0  0  0
  2  5  1  0  0  0  0
  3 20  1  0  0  0  0
  3  1  2  0  0  0  0
  4 11  2  0  0  0  0
  5 19  1  1  0  0  0
  5 12  1  0  0  0  0
  6 21  1  0  0  0  0
  7 15  1  6  0  0  0
  7  2  1  0  0  0  0
  7 18  1  0  0  0  0
  9 12  1  0  0  0  0
  9  8  1  1  0  0  0
 10 16  1  0  0  0  0
 11 13  1  0  0  0  0
 13 19  2  0  0  0  0
 14 11  1  0  0  0  0
 17 25  1  6  0  0  0
 17  1  1  0  0  0  0
 17 15  1  0  0  0  0
 18 22  1  6  0  0  0
 18  9  1  0  0  0  0
 19 10  1  0  0  0  0
 20 14  2  0  0  0  0
 21  8  1  0  0  0  0
 22  6  1  0  0  0  0
 23 26  2  0  0  0  0
 23 28  1  0  0  0  0
 24 23  1  0  0  0  0
 26 30  1  0  0  0  0
 27 25  1  0  0  0  0
 28 25  2  0  0  0  0
 29 28  1  0  0  0  0
 30 32  1  0  0  0  0
 30 27  2  0  0  0  0
 32 31  1  0  0  0  0
M  END
>  <MODEL>
7

>  <REMARK>
 VINA RESULT:      -7.8      3.218      4.165
  Name = 
  2 active torsions:
  status: ('A' for Active; 'I' for Inactive)
    1  A    between atoms: O_15  and  C_26
    2  A    between atoms: C_16  and  C_27
                            x       y       z     vdW  Elec       q    Type
                         _______ _______ _______ _____ _____    ______ ____

>  <TORSDO>
F 2

$$$$
=
 OpenBabel10272413093D

 32 37  0  0  1  0  0  0  0  0999 V2000
  186.5000  178.1180  138.9260 C   0  0  0  0  0  0  0  0  0  0  0  0
  187.1840  178.6540  141.2900 C   0  0  2  0  0  3  0  0  0  0  0  0
  186.8470  177.6840  137.6370 C   0  0  0  0  0  3  0  0  0  0  0  0
  187.4700  178.1030  139.9300 C   0  0  0  0  0  0  0  0  0  0  0  0
  187.6040  177.6010  142.3230 C   0  0  2  0  0  3  0  0  0  0  0  0
  183.4370  179.3530  144.5830 C   0  0  0  0  0  2  0  0  0  0  0  0
  185.7150  179.1040  141.4390 C   0  0  1  0  0  3  0  0  0  0  0  0
  185.5620  178.1950  145.2190 C   0  0  0  0  0  2  0  0  0  0  0  0
  185.9390  178.0470  143.7490 C   0  0  2  0  0  3  0  0  0  0  0  0
  189.9330  176.8710  143.1690 N   0  0  0  0  0  2  0  0  0  0  0  0
  188.7050  177.4790  139.7280 C   0  0  0  0  0  0  0  0  0  0  0  0
  187.3400  178.0820  143.6140 O   0  0  0  0  0  0  0  0  0  0  0  0
  189.5300  177.1810  140.8690 N   0  0  0  0  0  0  0  0  0  0  0  0
  189.0470  177.0310  138.4490 C   0  0  0  0  0  3  0  0  0  0  0  0
  184.8530  178.2920  140.6700 O   0  0  0  0  0  0  0  0  0  0  0  0
  189.4940  176.7640  144.4450 O   0  0  0  0  0  1  0  0  0  0  0  0
  185.1120  178.5970  139.3120 C   0  0  2  0  0  3  0  0  0  0  0  0
  185.3040  179.1840  142.9200 C   0  0  2  0  0  3  0  0  0  0  0  0
  189.0730  177.2570  142.0940 C   0  0  0  0  0  0  0  0  0  0  0  0
  188.1270  177.1590  137.3980 C   0  0  0  0  0  3  0  0  0  0  0  0
  184.0450  178.2010  145.3760 C   0  0  0  0  0  2  0  0  0  0  0  0
  183.7860  179.2210  143.1030 C   0  0  0  0  0  2  0  0  0  0  0  0
  181.9130  178.2410  137.2810 C   0  0  0  0  0  0  0  0  0  0  0  0
  180.7960  178.9940  136.9390 O   0  0  0  0  0  1  0  0  0  0  0  0
  184.0310  178.0160  138.4450 C   0  0  0  0  0  0  0  0  0  0  0  0
  182.0390  176.9360  136.8000 C   0  0  0  0  0  3  0  0  0  0  0  0
  184.1510  176.7080  137.9520 C   0  0  0  0  0  3  0  0  0  0  0  0
  182.9080  178.7850  138.1030 C   0  0  0  0  0  0  0  0  0  0  0  0
  182.7780  180.0880  138.5760 O   0  0  0  0  0  1  0  0  0  0  0  0
  183.1600  176.1610  137.1330 C   0  0  0  0  0  0  0  0  0  0  0  0
  184.5890  174.2650  136.4400 C   0  0  0  0  0  1  0  0  0  0  0  0
  183.3150  174.8540  136.6640 O   0  0  0  0  0  0  0  0  0  0  0  0
  1 17  1  0  0  0  0
  1  4  1  0  0  0  0
  2  4  1  6  0  0  0
  2  7  1  0  0  0  0
  2  5  1  0  0  0  0
  3  1  2  0  0  0  0
  5 19  1  1  0  0  0
  5 12  1  0  0  0  0
  6 21  1  0  0  0  0
  7 15  1  6  0  0  0
  7 18  1  0  0  0  0
  8 21  1  0  0  0  0
  9  8  1  1  0  0  0
 10 16  1  0  0  0  0
 11  4  2  0  0  0  0
 11 13  1  0  0  0  0
 12  9  1  0  0  0  0
 13 19  2  0  0  0  0
 14 11  1  0  0  0  0
 17 25  1  6  0  0  0
 17 15  1  0  0  0  0
 18 22  1  6  0  0  0
 18  9  1  0  0  0  0
 19 10  1  0  0  0  0
 20  3  1  0  0  0  0
 20 14  2  0  0  0  0
 22  6  1  0  0  0  0
 23 28  1  0  0  0  0
 24 23  1  0  0  0  0
 26 30  1  0  0  0  0
 26 23  2  0  0  0  0
 27 25  1  0  0  0  0
 28 25  2  0  0  0  0
 28 29  1  0  0  0  0
 30 27  2  0  0  0  0
 31 32  1  0  0  0  0
 32 30  1  0  0  0  0
M  END
>  <MODEL>
8

>  <REMARK>
 VINA RESULT:      -7.5      1.617      1.888
  Name = 
  2 active torsions:
  status: ('A' for Active; 'I' for Inactive)
    1  A    between atoms: O_15  and  C_26
    2  A    between atoms: C_16  and  C_27
                            x       y       z     vdW  Elec       q    Type
                         _______ _______ _______ _____ _____    ______ ____

>  <TORSDO>
F 2

$$$$
=
 OpenBabel10272413093D

 32 37  0  0  1  0  0  0  0  0999 V2000
  187.3630  178.1770  139.7770 C   0  0  0  0  0  0  0  0  0  0  0  0
  185.3120  179.1580  140.8610 C   0  0  2  0  0  3  0  0  0  0  0  0
  188.6870  177.7240  139.8860 C   0  0  0  0  0  3  0  0  0  0  0  0
  186.6830  178.5670  140.9330 C   0  0  0  0  0  0  0  0  0  0  0  0
  184.4200  178.4020  141.8530 C   0  0  2  0  0  3  0  0  0  0  0  0
  181.0930  179.0780  138.1100 C   0  0  0  0  0  2  0  0  0  0  0  0
  184.7550  179.1630  139.4210 C   0  0  1  0  0  3  0  0  0  0  0  0
  181.0720  178.6850  140.5820 C   0  0  0  0  0  2  0  0  0  0  0  0
  182.5840  178.4910  140.5790 C   0  0  2  0  0  3  0  0  0  0  0  0
  184.2670  178.5010  144.4310 N   0  0  0  0  0  2  0  0  0  0  0  0
  187.2190  178.3200  142.2000 C   0  0  0  0  0  0  0  0  0  0  0  0
  183.1190  178.9260  141.8050 O   0  0  0  0  0  0  0  0  0  0  0  0
  186.3590  178.4130  143.3510 N   0  0  0  0  0  0  0  0  0  0  0  0
  188.5310  177.8520  142.3130 C   0  0  0  0  0  3  0  0  0  0  0  0
  185.2220  178.0490  138.6900 O   0  0  0  0  0  0  0  0  0  0  0  0
  182.9160  178.4130  144.4070 O   0  0  0  0  0  1  0  0  0  0  0  0
  186.6040  178.2620  138.4660 C   0  0  2  0  0  3  0  0  0  0  0  0
  183.2200  179.2850  139.4180 C   0  0  2  0  0  3  0  0  0  0  0  0
  185.0570  178.4880  143.2380 C   0  0  0  0  0  0  0  0  0  0  0  0
  189.2740  177.5800  141.1540 C   0  0  0  0  0  3  0  0  0  0  0  0
  180.4820  178.2560  139.2410 C   0  0  0  0  0  2  0  0  0  0  0  0
  182.6070  178.8880  138.0740 C   0  0  0  0  0  2  0  0  0  0  0  0
  188.6150  176.7420  135.6140 C   0  0  0  0  0  0  0  0  0  0  0  0
  189.6370  177.0980  134.7430 O   0  0  0  0  0  1  0  0  0  0  0  0
  187.1070  177.2900  137.4360 C   0  0  0  0  0  0  0  0  0  0  0  0
  188.0620  175.4620  135.5420 C   0  0  0  0  0  3  0  0  0  0  0  0
  186.5610  176.0000  137.3590 C   0  0  0  0  0  3  0  0  0  0  0  0
  188.1420  177.6590  136.5610 C   0  0  0  0  0  0  0  0  0  0  0  0
  188.6990  178.9320  136.6300 O   0  0  0  0  0  1  0  0  0  0  0  0
  187.0310  175.0830  136.4160 C   0  0  0  0  0  0  0  0  0  0  0  0
  185.8230  173.2110  137.4900 C   0  0  0  0  0  1  0  0  0  0  0  0
  186.4600  173.8080  136.3690 O   0  0  0  0  0  0  0  0  0  0  0  0
  1  3  2  0  0  0  0
  1  4  1  0  0  0  0
  2  4  1  6  0  0  0
  2  5  1  0  0  0  0
  3 20  1  0  0  0  0
  4 11  2  0  0  0  0
  5 12  1  1  0  0  0
  5 19  1  0  0  0  0
  6 21  1  0  0  0  0
  7 15  1  1  0  0  0
  7  2  1  0  0  0  0
  9  8  1  1  0  0  0
  9 12  1  0  0  0  0
 11 14  1  0  0  0  0
 11 13  1  0  0  0  0
 16 10  1  0  0  0  0
 17 25  1  6  0  0  0
 17 15  1  0  0  0  0
 17  1  1  0  0  0  0
 18 22  1  6  0  0  0
 18  7  1  0  0  0  0
 18  9  1  0  0  0  0
 19 13  2  0  0  0  0
 19 10  1  0  0  0  0
 20 14  2  0  0  0  0
 21  8  1  0  0  0  0
 22  6  1  0  0  0  0
 23 28  1  0  0  0  0
 24 23  1  0  0  0  0
 26 23  2  0  0  0  0
 26 30  1  0  0  0  0
 27 25  1  0  0  0  0
 28 29  1  0  0  0  0
 28 25  2  0  0  0  0
 30 27  2  0  0  0  0
 32 30  1  0  0  0  0
 32 31  1  0  0  0  0
M  END
>  <MODEL>
9

>  <REMARK>
 VINA RESULT:      -7.5      3.133      5.874
  Name = 
  2 active torsions:
  status: ('A' for Active; 'I' for Inactive)
    1  A    between atoms: O_15  and  C_26
    2  A    between atoms: C_16  and  C_27
                            x       y       z     vdW  Elec       q    Type
                         _______ _______ _______ _____ _____    ______ ____

>  <TORSDO>
F 2

$$$$
