=
 OpenBabel10272413453D

 30 33  0  0  1  0  0  0  0  0999 V2000
  188.1150  175.8490  136.9090 C   0  0  0  0  0  0  0  0  0  0  0  0
  186.7240  173.9170  137.5320 O   0  0  0  0  0  0  0  0  0  0  0  0
  185.6370  175.7760  136.2260 C   0  0  1  0  0  0  0  0  0  0  0  0
  188.0270  176.8150  138.0580 C   0  0  2  0  0  3  0  0  0  0  0  0
  189.1680  175.8340  136.0840 C   0  0  0  0  0  2  0  0  0  0  0  0
  185.6980  177.3100  135.9870 C   0  0  2  0  0  3  0  0  0  0  0  0
  184.5880  172.8390  137.3600 C   0  0  0  0  0  2  0  0  0  0  0  0
  186.0450  172.8520  136.9160 C   0  0  0  0  0  2  0  0  0  0  0  0
  183.4410  174.8130  135.2570 C   0  0  0  0  0  1  0  0  0  0  0  0
  184.0600  174.2430  137.6650 C   0  0  0  0  0  2  0  0  0  0  0  0
  186.9170  174.9960  136.6260 C   0  0  1  0  0  0  0  0  0  0  0  0
  187.5470  178.1740  137.5710 C   0  0  0  0  0  2  0  0  0  0  0  0
  186.4220  177.7740  134.7260 C   0  0  0  0  0  1  0  0  0  0  0  0
  186.0530  178.1700  137.2110 C   0  0  2  0  0  3  0  0  0  0  0  0
  184.2180  175.2240  136.5020 C   0  0  1  0  0  3  0  0  0  0  0  0
  186.4010  174.9410  135.1860 C   0  0  0  0  0  2  0  0  0  0  0  0
  185.1580  177.8640  138.4090 C   0  0  0  0  0  2  0  0  0  0  0  0
  185.1980  178.9980  139.4340 C   0  0  2  0  0  3  0  0  0  0  0  0
  184.8480  178.5110  140.8340 C   0  0  0  0  0  1  0  0  0  0  0  0
  184.4600  180.1400  139.0440 O   0  0  0  0  0  0  0  0  0  0  0  0
  183.0980  179.8050  138.9640 C   0  0  0  0  0  1  0  0  0  0  0  0
  189.3320  176.9480  138.8320 C   0  0  0  0  0  2  0  0  0  0  0  0
  189.2220  178.0230  139.9060 C   0  0  0  0  0  2  0  0  0  0  0  0
  188.6590  177.4700  141.2150 C   0  0  0  0  0  2  0  0  0  0  0  0
  189.4370  177.6530  143.8610 S   0  0  0  0  0  0  0  0  0  0  0  0
  189.7420  177.0200  142.1930 C   0  0  2  0  0  3  0  0  0  0  0  0
  191.8300  177.2290  142.8350 N   0  0  0  0  0  2  0  0  0  0  0  0
  191.0110  177.4360  141.7710 O   0  0  0  0  0  0  0  0  0  0  0  0
  191.5390  179.2870  143.9890 N   0  0  0  0  0  1  0  0  0  0  0  0
  191.2200  177.8700  143.9910 C   0  0  1  0  0  3  0  0  0  0  0  0
  1  4  1  0  0  0  0
  3 16  1  6  0  0  0
  3 15  1  0  0  0  0
  3 11  1  0  0  0  0
  4 22  1  6  0  0  0
  5  1  2  0  0  0  0
  6 13  1  6  0  0  0
  6  3  1  0  0  0  0
  6 14  1  0  0  0  0
  7 10  1  0  0  0  0
  8  7  1  0  0  0  0
  8  2  1  0  0  0  0
 11 16  1  6  0  0  0
 11  1  1  0  0  0  0
 11  2  1  0  0  0  0
 12  4  1  0  0  0  0
 14 12  1  0  0  0  0
 14 17  1  1  0  0  0
 15  9  1  6  0  0  0
 15 10  1  0  0  0  0
 17 18  1  0  0  0  0
 18 19  1  1  0  0  0
 20 18  1  0  0  0  0
 21 20  1  0  0  0  0
 22 23  1  0  0  0  0
 23 24  1  0  0  0  0
 25 30  1  0  0  0  0
 26 24  1  6  0  0  0
 26 25  1  0  0  0  0
 27 30  1  0  0  0  0
 28 26  1  0  0  0  0
 28 27  1  0  0  0  0
 30 29  1  6  0  0  0
M  END
>  <MODEL>
1

>  <REMARK>
 VINA RESULT:      -6.1      0.000      0.000
  Name = 
  7 active torsions:
  status: ('A' for Active; 'I' for Inactive)
    1  A    between atoms: C_4  and  C_27
    2  A    between atoms: C_7  and  C_10
    3  A    between atoms: C_7  and  O_15
    4  A    between atoms: C_8  and  C_13
    5  A    between atoms: C_10  and  C_25
    6  A    between atoms: C_13  and  C_30
    7  A    between atoms: C_27  and  C_30
                            x       y       z     vdW  Elec       q    Type
                         _______ _______ _______ _____ _____    ______ ____

>  <TORSDO>
F 7

$$$$
=
 OpenBabel10272413453D

 30 33  0  0  1  0  0  0  0  0999 V2000
  188.6750  176.7930  136.3990 C   0  0  0  0  0  0  0  0  0  0  0  0
  188.3980  174.4530  137.1070 O   0  0  0  0  0  0  0  0  0  0  0  0
  186.4850  175.5460  135.8880 C   0  0  1  0  0  0  0  0  0  0  0  0
  188.2150  177.6360  137.5560 C   0  0  2  0  0  3  0  0  0  0  0  0
  189.5570  177.2500  135.5040 C   0  0  0  0  0  2  0  0  0  0  0  0
  185.8020  176.9220  135.6520 C   0  0  2  0  0  3  0  0  0  0  0  0
  187.0120  172.4940  137.0790 C   0  0  0  0  0  2  0  0  0  0  0  0
  188.2610  173.1770  136.5350 C   0  0  0  0  0  2  0  0  0  0  0  0
  184.9430  173.6380  135.0680 C   0  0  0  0  0  1  0  0  0  0  0  0
  185.9070  173.4940  137.4250 C   0  0  0  0  0  2  0  0  0  0  0  0
  188.0030  175.4700  136.1950 C   0  0  1  0  0  0  0  0  0  0  0  0
  187.1230  178.5970  137.1090 C   0  0  0  0  0  2  0  0  0  0  0  0
  186.1420  177.6350  134.3460 C   0  0  0  0  0  1  0  0  0  0  0  0
  185.7870  177.8820  136.8520 C   0  0  2  0  0  3  0  0  0  0  0  0
  185.5110  174.4010  136.2590 C   0  0  1  0  0  3  0  0  0  0  0  0
  187.4840  175.1380  134.7940 C   0  0  0  0  0  2  0  0  0  0  0  0
  185.2180  177.2270  138.1080 C   0  0  0  0  0  2  0  0  0  0  0  0
  184.1980  178.1370  138.7940 C   0  0  2  0  0  3  0  0  0  0  0  0
  183.0130  178.4470  137.8880 C   0  0  0  0  0  1  0  0  0  0  0  0
  184.7710  179.2920  139.3730 O   0  0  0  0  0  0  0  0  0  0  0  0
  185.3660  178.9500  140.5990 C   0  0  0  0  0  1  0  0  0  0  0  0
  189.3510  178.3890  138.2390 C   0  0  0  0  0  2  0  0  0  0  0  0
  190.0600  177.5010  139.2530 C   0  0  0  0  0  2  0  0  0  0  0  0
  189.3760  177.5310  140.6200 C   0  0  0  0  0  2  0  0  0  0  0  0
  189.1240  176.3150  143.0890 S   0  0  0  0  0  0  0  0  0  0  0  0
  190.1800  176.8270  141.7110 C   0  0  2  0  0  3  0  0  0  0  0  0
  191.6500  177.0370  143.3260 N   0  0  0  0  0  2  0  0  0  0  0  0
  191.2020  177.6500  142.1990 O   0  0  0  0  0  0  0  0  0  0  0  0
  190.1480  177.9570  144.9220 N   0  0  0  0  0  1  0  0  0  0  0  0
  190.4940  176.7660  144.1670 C   0  0  1  0  0  3  0  0  0  0  0  0
  1  4  1  0  0  0  0
  3 16  1  6  0  0  0
  3 11  1  0  0  0  0
  3 15  1  0  0  0  0
  4 22  1  6  0  0  0
  5  1  2  0  0  0  0
  6 13  1  6  0  0  0
  6  3  1  0  0  0  0
  6 14  1  0  0  0  0
  7 10  1  0  0  0  0
  8  7  1  0  0  0  0
  8  2  1  0  0  0  0
 11 16  1  6  0  0  0
 11  1  1  0  0  0  0
 11  2  1  0  0  0  0
 12  4  1  0  0  0  0
 14 12  1  0  0  0  0
 14 17  1  1  0  0  0
 15  9  1  6  0  0  0
 15 10  1  0  0  0  0
 17 18  1  0  0  0  0
 18 19  1  6  0  0  0
 18 20  1  0  0  0  0
 20 21  1  0  0  0  0
 22 23  1  0  0  0  0
 23 24  1  0  0  0  0
 25 30  1  0  0  0  0
 26 24  1  6  0  0  0
 26 28  1  0  0  0  0
 26 25  1  0  0  0  0
 27 30  1  0  0  0  0
 28 27  1  0  0  0  0
 30 29  1  6  0  0  0
M  END
>  <MODEL>
2

>  <REMARK>
 VINA RESULT:      -5.7      1.220      1.565
  Name = 
  7 active torsions:
  status: ('A' for Active; 'I' for Inactive)
    1  A    between atoms: C_4  and  C_27
    2  A    between atoms: C_7  and  C_10
    3  A    between atoms: C_7  and  O_15
    4  A    between atoms: C_8  and  C_13
    5  A    between atoms: C_10  and  C_25
    6  A    between atoms: C_13  and  C_30
    7  A    between atoms: C_27  and  C_30
                            x       y       z     vdW  Elec       q    Type
                         _______ _______ _______ _____ _____    ______ ____

>  <TORSDO>
F 7

$$$$
=
 OpenBabel10272413453D

 30 33  0  0  1  0  0  0  0  0999 V2000
  190.2470  176.8050  139.2200 C   0  0  0  0  0  0  0  0  0  0  0  0
  189.9010  174.6670  138.0520 O   0  0  0  0  0  0  0  0  0  0  0  0
  188.9440  176.7470  137.0040 C   0  0  1  0  0  0  0  0  0  0  0  0
  189.0970  176.9470  140.1800 C   0  0  2  0  0  3  0  0  0  0  0  0
  191.4200  177.4080  139.4380 C   0  0  0  0  0  2  0  0  0  0  0  0
  188.3630  178.1450  137.3540 C   0  0  2  0  0  3  0  0  0  0  0  0
  189.0510  173.5550  136.1040 C   0  0  0  0  0  2  0  0  0  0  0  0
  190.2850  174.0320  136.8590 C   0  0  0  0  0  2  0  0  0  0  0  0
  188.4240  176.1610  134.5400 C   0  0  0  0  0  1  0  0  0  0  0  0
  187.8370  174.4570  136.3440 C   0  0  0  0  0  2  0  0  0  0  0  0
  189.9920  176.0820  137.9350 C   0  0  1  0  0  0  0  0  0  0  0  0
  188.3630  178.2570  139.9350 C   0  0  0  0  0  2  0  0  0  0  0  0
  189.3100  179.3330  137.2030 C   0  0  0  0  0  1  0  0  0  0  0  0
  187.5300  178.2270  138.6440 C   0  0  2  0  0  3  0  0  0  0  0  0
  188.0890  175.9280  136.0080 C   0  0  1  0  0  3  0  0  0  0  0  0
  190.4350  176.7550  136.6340 C   0  0  0  0  0  2  0  0  0  0  0  0
  186.4220  177.1780  138.6810 C   0  0  0  0  0  2  0  0  0  0  0  0
  185.0770  177.7790  138.2710 C   0  0  2  0  0  3  0  0  0  0  0  0
  184.7310  177.4620  136.8210 C   0  0  0  0  0  1  0  0  0  0  0  0
  184.9520  179.1520  138.5820 O   0  0  0  0  0  0  0  0  0  0  0  0
  184.2540  179.2900  139.7950 C   0  0  0  0  0  1  0  0  0  0  0  0
  189.5150  176.8260  141.6400 C   0  0  0  0  0  2  0  0  0  0  0  0
  188.4290  177.3620  142.5640 C   0  0  0  0  0  2  0  0  0  0  0  0
  189.0110  177.9870  143.8320 C   0  0  0  0  0  2  0  0  0  0  0  0
  187.4000  177.6140  146.0460 S   0  0  0  0  0  0  0  0  0  0  0  0
  188.8370  177.1080  145.0690 C   0  0  2  0  0  3  0  0  0  0  0  0
  189.6010  176.5700  147.0540 N   0  0  0  0  0  2  0  0  0  0  0  0
  189.9770  177.1450  145.8810 O   0  0  0  0  0  0  0  0  0  0  0  0
  188.7340  178.4700  148.1880 N   0  0  0  0  0  1  0  0  0  0  0  0
  188.3890  177.2370  147.5020 C   0  0  1  0  0  3  0  0  0  0  0  0
  1  5  2  0  0  0  0
  1  4  1  0  0  0  0
  3 16  1  6  0  0  0
  3  6  1  0  0  0  0
  3 11  1  0  0  0  0
  4 22  1  1  0  0  0
  6 13  1  1  0  0  0
  6 14  1  0  0  0  0
  7 10  1  0  0  0  0
  7  8  1  0  0  0  0
  8  2  1  0  0  0  0
 11 16  1  6  0  0  0
 11  2  1  0  0  0  0
 11  1  1  0  0  0  0
 12  4  1  0  0  0  0
 14 17  1  1  0  0  0
 14 12  1  0  0  0  0
 15  9  1  6  0  0  0
 15 10  1  0  0  0  0
 15  3  1  0  0  0  0
 18 19  1  6  0  0  0
 18 20  1  0  0  0  0
 18 17  1  0  0  0  0
 20 21  1  0  0  0  0
 22 23  1  0  0  0  0
 23 24  1  0  0  0  0
 25 30  1  0  0  0  0
 26 24  1  6  0  0  0
 26 28  1  0  0  0  0
 26 25  1  0  0  0  0
 27 30  1  0  0  0  0
 28 27  1  0  0  0  0
 30 29  1  6  0  0  0
M  END
>  <MODEL>
3

>  <REMARK>
 VINA RESULT:      -5.7      2.376      3.585
  Name = 
  7 active torsions:
  status: ('A' for Active; 'I' for Inactive)
    1  A    between atoms: C_4  and  C_27
    2  A    between atoms: C_7  and  C_10
    3  A    between atoms: C_7  and  O_15
    4  A    between atoms: C_8  and  C_13
    5  A    between atoms: C_10  and  C_25
    6  A    between atoms: C_13  and  C_30
    7  A    between atoms: C_27  and  C_30
                            x       y       z     vdW  Elec       q    Type
                         _______ _______ _______ _____ _____    ______ ____

>  <TORSDO>
F 7

$$$$
=
 OpenBabel10272413453D

 30 33  0  0  1  0  0  0  0  0999 V2000
  188.8800  177.7330  137.3280 C   0  0  0  0  0  0  0  0  0  0  0  0
  190.6950  176.1350  137.7810 O   0  0  0  0  0  0  0  0  0  0  0  0
  189.1720  175.6620  135.8320 C   0  0  1  0  0  0  0  0  0  0  0  0
  187.7080  177.2790  138.1530 C   0  0  2  0  0  3  0  0  0  0  0  0
  189.0240  179.0100  136.9560 C   0  0  0  0  0  2  0  0  0  0  0  0
  187.7150  175.8670  135.3310 C   0  0  2  0  0  3  0  0  0  0  0  0
  191.8560  174.1580  137.0730 C   0  0  0  0  0  2  0  0  0  0  0  0
  191.8830  175.6770  137.1880 C   0  0  0  0  0  2  0  0  0  0  0  0
  190.3830  173.9210  134.3520 C   0  0  0  0  0  1  0  0  0  0  0  0
  190.4380  173.6140  136.8830 C   0  0  0  0  0  2  0  0  0  0  0  0
  189.8120  176.6820  136.8100 C   0  0  1  0  0  0  0  0  0  0  0  0
  186.4900  177.0610  137.2670 C   0  0  0  0  0  2  0  0  0  0  0  0
  187.4890  177.0130  134.3480 C   0  0  0  0  0  1  0  0  0  0  0  0
  186.6170  175.7960  136.4040 C   0  0  2  0  0  3  0  0  0  0  0  0
  189.7050  174.2170  135.6840 C   0  0  1  0  0  3  0  0  0  0  0  0
  190.1710  176.7130  135.3230 C   0  0  0  0  0  2  0  0  0  0  0  0
  186.7070  174.5200  137.2370 C   0  0  0  0  0  2  0  0  0  0  0  0
  185.4030  173.7240  137.1730 C   0  0  2  0  0  3  0  0  0  0  0  0
  185.0740  173.2840  135.7520 C   0  0  0  0  0  1  0  0  0  0  0  0
  184.3190  174.3600  137.8200 O   0  0  0  0  0  0  0  0  0  0  0  0
  183.1340  174.0840  137.1170 C   0  0  0  0  0  1  0  0  0  0  0  0
  187.3780  178.2260  139.3010 C   0  0  0  0  0  2  0  0  0  0  0  0
  188.5020  178.2460  140.3300 C   0  0  0  0  0  2  0  0  0  0  0  0
  187.9730  178.1200  141.7580 C   0  0  0  0  0  2  0  0  0  0  0  0
  188.9760  177.3870  144.2270 S   0  0  0  0  0  0  0  0  0  0  0  0
  188.5740  176.9400  142.5200 C   0  0  2  0  0  3  0  0  0  0  0  0
  190.3120  175.6280  142.7860 N   0  0  0  0  0  2  0  0  0  0  0  0
  189.7290  176.4650  141.8880 O   0  0  0  0  0  0  0  0  0  0  0  0
  191.6240  177.1850  144.0120 N   0  0  0  0  0  1  0  0  0  0  0  0
  190.4360  176.3500  144.0430 C   0  0  1  0  0  3  0  0  0  0  0  0
  1  4  1  0  0  0  0
  3 16  1  6  0  0  0
  3 11  1  0  0  0  0
  4 22  1  1  0  0  0
  5  1  2  0  0  0  0
  6 13  1  1  0  0  0
  6  3  1  0  0  0  0
  6 14  1  0  0  0  0
  7  8  1  0  0  0  0
  8  2  1  0  0  0  0
 10  7  1  0  0  0  0
 11 16  1  6  0  0  0
 11  1  1  0  0  0  0
 11  2  1  0  0  0  0
 12  4  1  0  0  0  0
 14 17  1  1  0  0  0
 14 12  1  0  0  0  0
 15  9  1  6  0  0  0
 15  3  1  0  0  0  0
 15 10  1  0  0  0  0
 18 19  1  6  0  0  0
 18 17  1  0  0  0  0
 18 20  1  0  0  0  0
 21 20  1  0  0  0  0
 22 23  1  0  0  0  0
 23 24  1  0  0  0  0
 26 24  1  6  0  0  0
 26 25  1  0  0  0  0
 27 30  1  0  0  0  0
 28 26  1  0  0  0  0
 28 27  1  0  0  0  0
 30 29  1  6  0  0  0
 30 25  1  0  0  0  0
M  END
>  <MODEL>
4

>  <REMARK>
 VINA RESULT:      -5.6      2.020      4.130
  Name = 
  7 active torsions:
  status: ('A' for Active; 'I' for Inactive)
    1  A    between atoms: C_4  and  C_27
    2  A    between atoms: C_7  and  C_10
    3  A    between atoms: C_7  and  O_15
    4  A    between atoms: C_8  and  C_13
    5  A    between atoms: C_10  and  C_25
    6  A    between atoms: C_13  and  C_30
    7  A    between atoms: C_27  and  C_30
                            x       y       z     vdW  Elec       q    Type
                         _______ _______ _______ _____ _____    ______ ____

>  <TORSDO>
F 7

$$$$
=
 OpenBabel10272413453D

 30 33  0  0  1  0  0  0  0  0999 V2000
  189.5250  176.0610  135.7390 C   0  0  0  0  0  0  0  0  0  0  0  0
  188.4700  173.9210  136.3390 O   0  0  0  0  0  0  0  0  0  0  0  0
  186.9620  175.8760  135.8450 C   0  0  1  0  0  0  0  0  0  0  0  0
  189.7750  176.7810  137.0350 C   0  0  2  0  0  3  0  0  0  0  0  0
  190.2600  176.3040  134.6480 C   0  0  0  0  0  2  0  0  0  0  0  0
  186.8920  177.4260  135.9250 C   0  0  2  0  0  3  0  0  0  0  0  0
  186.4280  172.6910  136.6070 C   0  0  0  0  0  2  0  0  0  0  0  0
  187.6660  172.9290  135.7520 C   0  0  0  0  0  2  0  0  0  0  0  0
  184.6050  174.9020  135.4140 C   0  0  0  0  0  1  0  0  0  0  0  0
  185.9780  173.9550  137.3440 C   0  0  0  0  0  2  0  0  0  0  0  0
  188.3280  175.1640  135.6630 C   0  0  1  0  0  0  0  0  0  0  0  0
  189.1190  178.1540  137.0130 C   0  0  0  0  0  2  0  0  0  0  0  0
  187.1610  178.1860  134.6290 C   0  0  0  0  0  1  0  0  0  0  0  0
  187.5900  178.0720  137.1330 C   0  0  2  0  0  3  0  0  0  0  0  0
  185.7240  175.1470  136.4200 C   0  0  1  0  0  3  0  0  0  0  0  0
  187.3830  175.3290  134.4720 C   0  0  0  0  0  2  0  0  0  0  0  0
  187.1330  177.4620  138.4560 C   0  0  0  0  0  2  0  0  0  0  0  0
  187.5470  178.3350  139.6400 C   0  0  2  0  0  3  0  0  0  0  0  0
  188.6190  177.6680  140.4920 C   0  0  0  0  0  1  0  0  0  0  0  0
  186.4540  178.8120  140.4000 O   0  0  0  0  0  0  0  0  0  0  0  0
  186.6390  178.4590  141.7480 C   0  0  0  0  0  1  0  0  0  0  0  0
  191.2540  176.8940  137.3840 C   0  0  0  0  0  2  0  0  0  0  0  0
  191.8360  175.5300  137.7360 C   0  0  0  0  0  2  0  0  0  0  0  0
  193.3620  175.5630  137.8220 C   0  0  0  0  0  2  0  0  0  0  0  0
  195.3250  174.4990  136.1940 S   0  0  0  0  0  0  0  0  0  0  0  0
  194.0370  175.7420  136.4640 C   0  0  2  0  0  3  0  0  0  0  0  0
  195.3930  176.9570  135.2400 N   0  0  0  0  0  2  0  0  0  0  0  0
  194.6010  177.0180  136.3420 O   0  0  0  0  0  0  0  0  0  0  0  0
  197.4070  176.1630  136.2220 N   0  0  0  0  0  1  0  0  0  0  0  0
  196.2700  175.8060  135.3920 C   0  0  1  0  0  3  0  0  0  0  0  0
  1  4  1  0  0  0  0
  3 16  1  6  0  0  0
  3  6  1  0  0  0  0
  3 15  1  0  0  0  0
  4 22  1  6  0  0  0
  5  1  2  0  0  0  0
  6 13  1  6  0  0  0
  6 14  1  0  0  0  0
  7 10  1  0  0  0  0
  8  2  1  0  0  0  0
  8  7  1  0  0  0  0
 11 16  1  6  0  0  0
 11  1  1  0  0  0  0
 11  3  1  0  0  0  0
 11  2  1  0  0  0  0
 12  4  1  0  0  0  0
 12 14  1  0  0  0  0
 14 17  1  1  0  0  0
 15  9  1  6  0  0  0
 15 10  1  0  0  0  0
 17 18  1  0  0  0  0
 18 20  1  0  0  0  0
 18 19  1  1  0  0  0
 20 21  1  0  0  0  0
 22 23  1  0  0  0  0
 23 24  1  0  0  0  0
 25 26  1  0  0  0  0
 26 24  1  1  0  0  0
 27 30  1  0  0  0  0
 27 28  1  0  0  0  0
 28 26  1  0  0  0  0
 30 25  1  0  0  0  0
 30 29  1  1  0  0  0
M  END
>  <MODEL>
5

>  <REMARK>
 VINA RESULT:      -5.2      3.854      4.611
  Name = 
  7 active torsions:
  status: ('A' for Active; 'I' for Inactive)
    1  A    between atoms: C_4  and  C_27
    2  A    between atoms: C_7  and  C_10
    3  A    between atoms: C_7  and  O_15
    4  A    between atoms: C_8  and  C_13
    5  A    between atoms: C_10  and  C_25
    6  A    between atoms: C_13  and  C_30
    7  A    between atoms: C_27  and  C_30
                            x       y       z     vdW  Elec       q    Type
                         _______ _______ _______ _____ _____    ______ ____

>  <TORSDO>
F 7

$$$$
=
 OpenBabel10272413453D

 30 33  0  0  1  0  0  0  0  0999 V2000
  188.4900  176.7030  136.1330 C   0  0  0  0  0  0  0  0  0  0  0  0
  188.2680  174.3660  136.8680 O   0  0  0  0  0  0  0  0  0  0  0  0
  186.2500  175.4730  135.8480 C   0  0  1  0  0  0  0  0  0  0  0  0
  188.1570  177.5500  137.3300 C   0  0  2  0  0  3  0  0  0  0  0  0
  189.2810  177.1530  135.1530 C   0  0  0  0  0  2  0  0  0  0  0  0
  185.5570  176.8540  135.6810 C   0  0  2  0  0  3  0  0  0  0  0  0
  186.8710  172.4180  136.9820 C   0  0  0  0  0  2  0  0  0  0  0  0
  188.0640  173.0900  136.3140 C   0  0  0  0  0  2  0  0  0  0  0  0
  184.6180  173.5770  135.1900 C   0  0  0  0  0  1  0  0  0  0  0  0
  185.8140  173.4270  137.4380 C   0  0  0  0  0  2  0  0  0  0  0  0
  187.7910  175.3850  136.0000 C   0  0  1  0  0  0  0  0  0  0  0  0
  187.0330  178.5190  136.9950 C   0  0  0  0  0  2  0  0  0  0  0  0
  185.7690  177.5650  134.3460 C   0  0  0  0  0  1  0  0  0  0  0  0
  185.6720  177.8150  136.8750 C   0  0  2  0  0  3  0  0  0  0  0  0
  185.3100  174.3360  136.3160 C   0  0  1  0  0  3  0  0  0  0  0  0
  187.1300  175.0580  134.6590 C   0  0  0  0  0  2  0  0  0  0  0  0
  185.2280  177.1650  138.1830 C   0  0  0  0  0  2  0  0  0  0  0  0
  183.8830  177.7230  138.6500 C   0  0  2  0  0  3  0  0  0  0  0  0
  182.7100  176.9790  138.0250 C   0  0  0  0  0  1  0  0  0  0  0  0
  183.7790  179.1270  138.5240 O   0  0  0  0  0  0  0  0  0  0  0  0
  182.4460  179.5140  138.7480 C   0  0  0  0  0  1  0  0  0  0  0  0
  189.3610  178.2940  137.8930 C   0  0  0  0  0  2  0  0  0  0  0  0
  189.8130  177.6790  139.2120 C   0  0  0  0  0  2  0  0  0  0  0  0
  190.5350  176.3470  139.0060 C   0  0  0  0  0  2  0  0  0  0  0  0
  191.8950  174.8760  137.1020 S   0  0  0  0  0  0  0  0  0  0  0  0
  191.6800  176.4330  138.0000 C   0  0  2  0  0  3  0  0  0  0  0  0
  193.8510  176.5390  137.7020 N   0  0  0  0  0  2  0  0  0  0  0  0
  192.8850  176.7670  138.6300 O   0  0  0  0  0  0  0  0  0  0  0  0
  194.2790  174.2360  138.1060 N   0  0  0  0  0  1  0  0  0  0  0  0
  193.6660  175.1880  137.1960 C   0  0  1  0  0  3  0  0  0  0  0  0
  1  4  1  0  0  0  0
  3 16  1  6  0  0  0
  3 11  1  0  0  0  0
  3 15  1  0  0  0  0
  4 22  1  6  0  0  0
  5  1  2  0  0  0  0
  6 13  1  6  0  0  0
  6  3  1  0  0  0  0
  6 14  1  0  0  0  0
  7 10  1  0  0  0  0
  8  2  1  0  0  0  0
  8  7  1  0  0  0  0
 11 16  1  6  0  0  0
 11  1  1  0  0  0  0
 11  2  1  0  0  0  0
 12  4  1  0  0  0  0
 14 12  1  0  0  0  0
 14 17  1  1  0  0  0
 15  9  1  6  0  0  0
 15 10  1  0  0  0  0
 17 18  1  0  0  0  0
 18 19  1  6  0  0  0
 20 18  1  0  0  0  0
 20 21  1  0  0  0  0
 22 23  1  0  0  0  0
 24 23  1  0  0  0  0
 25 30  1  0  0  0  0
 25 26  1  0  0  0  0
 26 28  1  0  0  0  0
 26 24  1  1  0  0  0
 27 28  1  0  0  0  0
 30 27  1  0  0  0  0
 30 29  1  1  0  0  0
M  END
>  <MODEL>
6

>  <REMARK>
 VINA RESULT:      -5.0      2.788      3.263
  Name = 
  7 active torsions:
  status: ('A' for Active; 'I' for Inactive)
    1  A    between atoms: C_4  and  C_27
    2  A    between atoms: C_7  and  C_10
    3  A    between atoms: C_7  and  O_15
    4  A    between atoms: C_8  and  C_13
    5  A    between atoms: C_10  and  C_25
    6  A    between atoms: C_13  and  C_30
    7  A    between atoms: C_27  and  C_30
                            x       y       z     vdW  Elec       q    Type
                         _______ _______ _______ _____ _____    ______ ____

>  <TORSDO>
F 7

$$$$
=
 OpenBabel10272413453D

 30 33  0  0  1  0  0  0  0  0999 V2000
  183.1060  174.6950  137.5200 C   0  0  0  0  0  0  0  0  0  0  0  0
  182.5870  175.8510  139.6290 O   0  0  0  0  0  0  0  0  0  0  0  0
  182.9160  177.2590  137.5670 C   0  0  1  0  0  0  0  0  0  0  0  0
  184.6030  174.5580  137.4760 C   0  0  2  0  0  3  0  0  0  0  0  0
  182.3050  173.8500  136.8620 C   0  0  0  0  0  2  0  0  0  0  0  0
  183.6840  177.3020  136.2170 C   0  0  2  0  0  3  0  0  0  0  0  0
  182.1090  177.9370  140.7130 C   0  0  0  0  0  2  0  0  0  0  0  0
  181.5540  176.6150  140.1980 C   0  0  0  0  0  2  0  0  0  0  0  0
  181.9080  179.5830  138.0900 C   0  0  0  0  0  1  0  0  0  0  0  0
  183.3000  178.4300  139.8890 C   0  0  0  0  0  2  0  0  0  0  0  0
  182.5390  175.8980  138.2090 C   0  0  1  0  0  0  0  0  0  0  0  0
  185.1530  175.1780  136.2000 C   0  0  0  0  0  2  0  0  0  0  0  0
  182.8980  176.8900  134.9750 C   0  0  0  0  0  1  0  0  0  0  0  0
  185.1040  176.7130  136.2280 C   0  0  2  0  0  3  0  0  0  0  0  0
  183.0000  178.5640  138.3950 C   0  0  1  0  0  3  0  0  0  0  0  0
  181.4820  176.7170  137.4650 C   0  0  0  0  0  2  0  0  0  0  0  0
  185.9660  177.3110  137.3360 C   0  0  0  0  0  2  0  0  0  0  0  0
  186.8880  178.4040  136.7920 C   0  0  2  0  0  3  0  0  0  0  0  0
  187.4460  178.0450  135.4210 C   0  0  0  0  0  1  0  0  0  0  0  0
  187.8850  178.8100  137.7080 O   0  0  0  0  0  0  0  0  0  0  0  0
  187.7750  178.0450  138.8820 C   0  0  0  0  0  1  0  0  0  0  0  0
  185.0790  173.1190  137.6280 C   0  0  0  0  0  2  0  0  0  0  0  0
  186.0790  172.7580  136.5360 C   0  0  0  0  0  2  0  0  0  0  0  0
  187.5090  172.6850  137.0700 C   0  0  0  0  0  2  0  0  0  0  0  0
  190.1030  173.1600  136.2430 S   0  0  0  0  0  0  0  0  0  0  0  0
  188.4200  173.7710  136.5000 C   0  0  2  0  0  3  0  0  0  0  0  0
  189.4950  175.6440  136.8840 N   0  0  0  0  0  2  0  0  0  0  0  0
  188.4630  174.8890  137.3430 O   0  0  0  0  0  0  0  0  0  0  0  0
  191.2930  174.6650  138.0920 N   0  0  0  0  0  1  0  0  0  0  0  0
  190.6630  174.7820  136.7890 C   0  0  1  0  0  3  0  0  0  0  0  0
  1 11  1  0  0  0  0
  2  8  1  0  0  0  0
  3 16  1  6  0  0  0
  3 11  1  0  0  0  0
  3 15  1  0  0  0  0
  4  1  1  0  0  0  0
  4 22  1  6  0  0  0
  5  1  2  0  0  0  0
  6 13  1  6  0  0  0
  6 14  1  0  0  0  0
  6  3  1  0  0  0  0
  8  7  1  0  0  0  0
 10  7  1  0  0  0  0
 11 16  1  6  0  0  0
 11  2  1  0  0  0  0
 12 14  1  0  0  0  0
 12  4  1  0  0  0  0
 14 17  1  1  0  0  0
 15  9  1  1  0  0  0
 15 10  1  0  0  0  0
 18 19  1  6  0  0  0
 18 17  1  0  0  0  0
 18 20  1  0  0  0  0
 20 21  1  0  0  0  0
 23 24  1  0  0  0  0
 23 22  1  0  0  0  0
 25 26  1  0  0  0  0
 25 30  1  0  0  0  0
 26 24  1  1  0  0  0
 26 28  1  0  0  0  0
 27 28  1  0  0  0  0
 30 27  1  0  0  0  0
 30 29  1  1  0  0  0
M  END
>  <MODEL>
7

>  <REMARK>
 VINA RESULT:      -4.9      3.254      5.528
  Name = 
  7 active torsions:
  status: ('A' for Active; 'I' for Inactive)
    1  A    between atoms: C_4  and  C_27
    2  A    between atoms: C_7  and  C_10
    3  A    between atoms: C_7  and  O_15
    4  A    between atoms: C_8  and  C_13
    5  A    between atoms: C_10  and  C_25
    6  A    between atoms: C_13  and  C_30
    7  A    between atoms: C_27  and  C_30
                            x       y       z     vdW  Elec       q    Type
                         _______ _______ _______ _____ _____    ______ ____

>  <TORSDO>
F 7

$$$$
=
 OpenBabel10272413453D

 30 33  0  0  1  0  0  0  0  0999 V2000
  184.2570  178.4050  138.8610 C   0  0  0  0  0  0  0  0  0  0  0  0
  186.6290  177.7500  138.8760 O   0  0  0  0  0  0  0  0  0  0  0  0
  185.2160  177.0020  136.9310 C   0  0  1  0  0  0  0  0  0  0  0  0
  183.5220  177.3270  139.6090 C   0  0  2  0  0  3  0  0  0  0  0  0
  183.7800  179.6520  138.7770 C   0  0  0  0  0  2  0  0  0  0  0  0
  183.7620  176.6100  136.5450 C   0  0  2  0  0  3  0  0  0  0  0  0
  188.4270  176.6810  137.7010 C   0  0  0  0  0  2  0  0  0  0  0  0
  187.8060  177.9980  138.1500 C   0  0  0  0  0  2  0  0  0  0  0  0
  186.8510  176.3000  135.0540 C   0  0  0  0  0  1  0  0  0  0  0  0
  187.3760  175.5980  137.4500 C   0  0  0  0  0  2  0  0  0  0  0  0
  185.4740  178.0050  138.0860 C   0  0  1  0  0  0  0  0  0  0  0  0
  182.4140  176.7450  138.7440 C   0  0  0  0  0  2  0  0  0  0  0  0
  182.9300  177.6860  135.8510 C   0  0  0  0  0  1  0  0  0  0  0  0
  182.9590  175.8550  137.6170 C   0  0  2  0  0  3  0  0  0  0  0  0
  186.2980  176.0090  136.4450 C   0  0  1  0  0  3  0  0  0  0  0  0
  185.5800  178.4640  136.6300 C   0  0  0  0  0  2  0  0  0  0  0  0
  183.7070  174.6320  138.1400 C   0  0  0  0  0  2  0  0  0  0  0  0
  183.6900  173.4940  137.1190 C   0  0  2  0  0  3  0  0  0  0  0  0
  182.2760  172.9990  136.8420 C   0  0  0  0  0  1  0  0  0  0  0  0
  184.5930  172.4490  137.4210 O   0  0  0  0  0  0  0  0  0  0  0  0
  185.4990  172.2980  136.3570 C   0  0  0  0  0  1  0  0  0  0  0  0
  182.9720  177.7950  140.9500 C   0  0  0  0  0  2  0  0  0  0  0  0
  184.1010  178.0930  141.9280 C   0  0  0  0  0  2  0  0  0  0  0  0
  183.5850  178.6960  143.2350 C   0  0  0  0  0  2  0  0  0  0  0  0
  186.2170  178.2510  143.9520 S   0  0  0  0  0  0  0  0  0  0  0  0
  184.7000  179.2220  144.1360 C   0  0  2  0  0  3  0  0  0  0  0  0
  185.4530  179.4250  146.1870 N   0  0  0  0  0  2  0  0  0  0  0  0
  184.3110  179.2110  145.4820 O   0  0  0  0  0  0  0  0  0  0  0  0
  186.2340  177.1900  146.3970 N   0  0  0  0  0  1  0  0  0  0  0  0
  186.4410  178.4610  145.7270 C   0  0  1  0  0  3  0  0  0  0  0  0
  1  4  1  0  0  0  0
  3 16  1  6  0  0  0
  3 11  1  0  0  0  0
  4 22  1  1  0  0  0
  5  1  2  0  0  0  0
  6 13  1  1  0  0  0
  6  3  1  0  0  0  0
  6 14  1  0  0  0  0
  7  8  1  0  0  0  0
  8  2  1  0  0  0  0
 10  7  1  0  0  0  0
 11 16  1  6  0  0  0
 11  1  1  0  0  0  0
 11  2  1  0  0  0  0
 12  4  1  0  0  0  0
 14 17  1  1  0  0  0
 14 12  1  0  0  0  0
 15  9  1  6  0  0  0
 15  3  1  0  0  0  0
 15 10  1  0  0  0  0
 18 19  1  1  0  0  0
 18 20  1  0  0  0  0
 18 17  1  0  0  0  0
 21 20  1  0  0  0  0
 22 23  1  0  0  0  0
 23 24  1  0  0  0  0
 25 26  1  0  0  0  0
 25 30  1  0  0  0  0
 26 24  1  6  0  0  0
 26 28  1  0  0  0  0
 28 27  1  0  0  0  0
 30 27  1  0  0  0  0
 30 29  1  1  0  0  0
M  END
>  <MODEL>
8

>  <REMARK>
 VINA RESULT:      -4.8      2.847      5.388
  Name = 
  7 active torsions:
  status: ('A' for Active; 'I' for Inactive)
    1  A    between atoms: C_4  and  C_27
    2  A    between atoms: C_7  and  C_10
    3  A    between atoms: C_7  and  O_15
    4  A    between atoms: C_8  and  C_13
    5  A    between atoms: C_10  and  C_25
    6  A    between atoms: C_13  and  C_30
    7  A    between atoms: C_27  and  C_30
                            x       y       z     vdW  Elec       q    Type
                         _______ _______ _______ _____ _____    ______ ____

>  <TORSDO>
F 7

$$$$
=
 OpenBabel10272413453D

 30 33  0  0  1  0  0  0  0  0999 V2000
  188.5120  177.9250  138.0680 C   0  0  0  0  0  0  0  0  0  0  0  0
  189.8030  175.8350  138.1890 O   0  0  0  0  0  0  0  0  0  0  0  0
  188.3700  176.2140  136.1530 C   0  0  1  0  0  0  0  0  0  0  0  0
  187.1990  177.6450  138.7470 C   0  0  2  0  0  3  0  0  0  0  0  0
  189.0130  179.1630  137.9930 C   0  0  0  0  0  2  0  0  0  0  0  0
  187.0620  176.9070  135.6820 C   0  0  2  0  0  3  0  0  0  0  0  0
  190.4610  173.8110  137.0810 C   0  0  0  0  0  2  0  0  0  0  0  0
  190.8750  175.2060  137.5320 C   0  0  0  0  0  2  0  0  0  0  0  0
  189.1970  174.5590  134.3470 C   0  0  0  0  0  1  0  0  0  0  0  0
  188.9700  173.7250  136.7470 C   0  0  0  0  0  2  0  0  0  0  0  0
  189.1750  176.7930  137.3470 C   0  0  1  0  0  0  0  0  0  0  0  0
  186.0410  177.9570  137.8110 C   0  0  0  0  0  2  0  0  0  0  0  0
  187.2200  178.2510  134.9750 C   0  0  0  0  0  1  0  0  0  0  0  0
  185.9010  176.9150  136.6900 C   0  0  2  0  0  3  0  0  0  0  0  0
  188.5160  174.7420  135.6980 C   0  0  1  0  0  3  0  0  0  0  0  0
  189.6460  177.0360  135.9110 C   0  0  0  0  0  2  0  0  0  0  0  0
  185.5880  175.5180  137.2190 C   0  0  0  0  0  2  0  0  0  0  0  0
  184.2270  175.0290  136.7220 C   0  0  2  0  0  3  0  0  0  0  0  0
  183.4900  176.1050  135.9350 C   0  0  0  0  0  1  0  0  0  0  0  0
  183.4340  174.4410  137.7330 O   0  0  0  0  0  0  0  0  0  0  0  0
  182.3520  173.7670  137.1400 C   0  0  0  0  0  1  0  0  0  0  0  0
  187.0390  178.3830  140.0710 C   0  0  0  0  0  2  0  0  0  0  0  0
  185.5960  178.8260  140.2760 C   0  0  0  0  0  2  0  0  0  0  0  0
  185.3400  179.3030  141.7050 C   0  0  0  0  0  2  0  0  0  0  0  0
  182.7760  178.3770  141.2510 S   0  0  0  0  0  0  0  0  0  0  0  0
  184.1750  178.5820  142.3800 C   0  0  2  0  0  3  0  0  0  0  0  0
  182.5590  178.7010  143.8590 N   0  0  0  0  0  2  0  0  0  0  0  0
  183.7450  179.2710  143.5210 O   0  0  0  0  0  0  0  0  0  0  0  0
  181.0800  179.9950  142.5210 N   0  0  0  0  0  1  0  0  0  0  0  0
  181.7170  178.6990  142.6720 C   0  0  1  0  0  3  0  0  0  0  0  0
  1  4  1  0  0  0  0
  3 16  1  6  0  0  0
  3 11  1  0  0  0  0
  4 22  1  1  0  0  0
  5  1  2  0  0  0  0
  6 13  1  1  0  0  0
  6  3  1  0  0  0  0
  6 14  1  0  0  0  0
  7  8  1  0  0  0  0
  8  2  1  0  0  0  0
 10  7  1  0  0  0  0
 11 16  1  6  0  0  0
 11  1  1  0  0  0  0
 11  2  1  0  0  0  0
 12  4  1  0  0  0  0
 14 17  1  1  0  0  0
 14 12  1  0  0  0  0
 15  9  1  6  0  0  0
 15  3  1  0  0  0  0
 15 10  1  0  0  0  0
 18 19  1  1  0  0  0
 18 17  1  0  0  0  0
 18 20  1  0  0  0  0
 21 20  1  0  0  0  0
 22 23  1  0  0  0  0
 23 24  1  0  0  0  0
 25 26  1  0  0  0  0
 25 30  1  0  0  0  0
 26 24  1  6  0  0  0
 26 28  1  0  0  0  0
 28 27  1  0  0  0  0
 30 29  1  6  0  0  0
 30 27  1  0  0  0  0
M  END
>  <MODEL>
9

>  <REMARK>
 VINA RESULT:      -4.6      3.519      5.269
  Name = 
  7 active torsions:
  status: ('A' for Active; 'I' for Inactive)
    1  A    between atoms: C_4  and  C_27
    2  A    between atoms: C_7  and  C_10
    3  A    between atoms: C_7  and  O_15
    4  A    between atoms: C_8  and  C_13
    5  A    between atoms: C_10  and  C_25
    6  A    between atoms: C_13  and  C_30
    7  A    between atoms: C_27  and  C_30
                            x       y       z     vdW  Elec       q    Type
                         _______ _______ _______ _____ _____    ______ ____

>  <TORSDO>
F 7

$$$$
