=
 OpenBabel10272401033D

 27 31  0  0  1  0  0  0  0  0999 V2000
  182.3240  178.1380  141.6830 C   0  0  0  0  0  3  0  0  0  0  0  0
  184.4800  178.2530  140.4810 C   0  0  1  0  0  3  0  0  0  0  0  0
  183.1560  179.1530  138.5540 N   0  0  0  0  0  0  0  0  0  0  0  0
  186.6940  177.3080  137.1990 N   0  0  0  0  0  0  0  0  0  0  0  0
  186.0060  175.9060  134.9980 S   0  0  0  0  0  0  0  0  0  0  0  0
  185.8060  178.9590  140.2340 C   0  0  0  0  0  3  0  0  0  0  0  0
  184.4390  176.5810  137.1630 C   0  0  0  0  0  0  0  0  0  0  0  0
  180.8950  182.0180  138.3230 C   0  0  0  0  0  3  0  0  0  0  0  0
  183.1240  176.0850  136.6650 C   0  0  0  0  0  1  0  0  0  0  0  0
  179.9880  181.7590  139.2650 C   0  0  0  0  0  2  0  0  0  0  0  0
  184.6470  177.3160  138.2400 C   0  0  0  0  0  0  0  0  0  0  0  0
  183.6670  178.8040  141.6550 C   0  0  2  0  0  3  0  0  0  0  0  0
  185.7360  176.5190  136.4900 C   0  0  0  0  0  0  0  0  0  0  0  0
  186.0340  177.7390  138.2230 C   0  0  0  0  0  0  0  0  0  0  0  0
  181.3080  178.6140  140.9590 C   0  0  0  0  0  3  0  0  0  0  0  0
  183.6750  177.9420  139.1870 C   0  0  1  0  0  3  0  0  0  0  0  0
  181.9390  181.0790  138.0420 N   0  0  0  0  0  0  0  0  0  0  0  0
  186.5370  178.6620  139.1930 N   0  0  0  0  0  0  0  0  0  0  0  0
  179.9820  180.4390  139.9800 C   0  0  0  0  0  2  0  0  0  0  0  0
  181.3980  179.9080  140.2020 C   0  0  2  0  0  3  0  0  0  0  0  0
  182.1870  179.9560  138.8960 C   0  0  0  0  0  0  0  0  0  0  0  0
  185.6530  178.2390  145.4270 C   0  0  0  0  0  3  0  0  0  0  0  0
  184.3770  178.6050  142.9590 C   0  0  0  0  0  0  0  0  0  0  0  0
  183.7520  179.0150  144.1420 C   0  0  0  0  0  3  0  0  0  0  0  0
  184.3900  178.8340  145.3740 C   0  0  0  0  0  3  0  0  0  0  0  0
  186.2810  177.8250  144.2500 C   0  0  0  0  0  3  0  0  0  0  0  0
  185.6470  178.0060  143.0170 C   0  0  0  0  0  3  0  0  0  0  0  0
  2  6  1  6  0  0  0
  2 12  1  0  0  0  0
  3 21  2  0  0  0  0
  3 16  1  0  0  0  0
  4 14  2  0  0  0  0
  5 13  2  0  0  0  0
  7 11  2  0  0  0  0
  8 10  1  0  0  0  0
  9  7  1  0  0  0  0
 10 19  1  0  0  0  0
 12  1  1  0  0  0  0
 12 23  1  1  0  0  0
 13  7  1  0  0  0  0
 13  4  1  0  0  0  0
 14 11  1  0  0  0  0
 14 18  1  0  0  0  0
 15  1  2  0  0  0  0
 16 11  1  6  0  0  0
 16  2  1  0  0  0  0
 17  8  2  0  0  0  0
 17 21  1  0  0  0  0
 18  6  2  0  0  0  0
 20 19  1  6  0  0  0
 20 15  1  0  0  0  0
 21 20  1  0  0  0  0
 23 27  2  0  0  0  0
 23 24  1  0  0  0  0
 24 25  2  0  0  0  0
 25 22  1  0  0  0  0
 26 22  2  0  0  0  0
 27 26  1  0  0  0  0
M  END
>  <MODEL>
1

>  <REMARK>
 VINA RESULT:      -7.3      0.000      0.000
  Name = 
  1 active torsions:
  status: ('A' for Active; 'I' for Inactive)
    1  A    between atoms: C_9  and  C_15
                            x       y       z     vdW  Elec       q    Type
                         _______ _______ _______ _____ _____    ______ ____

>  <TORSDO>
F 1

$$$$
=
 OpenBabel10272401033D

 27 31  0  0  1  0  0  0  0  0999 V2000
  188.5960  178.4770  138.5160 C   0  0  0  0  0  3  0  0  0  0  0  0
  189.5080  176.3150  137.7390 C   0  0  1  0  0  3  0  0  0  0  0  0
  190.5440  176.1370  140.0140 N   0  0  0  0  0  0  0  0  0  0  0  0
  192.7270  173.8840  137.1990 N   0  0  0  0  0  0  0  0  0  0  0  0
  195.3320  174.3190  137.7580 S   0  0  0  0  0  0  0  0  0  0  0  0
  189.2980  174.8390  137.4360 C   0  0  0  0  0  3  0  0  0  0  0  0
  193.1780  175.9770  138.2140 C   0  0  0  0  0  0  0  0  0  0  0  0
  189.0540  176.2840  143.3500 C   0  0  0  0  0  3  0  0  0  0  0  0
  193.8690  177.0570  138.9750 C   0  0  0  0  0  1  0  0  0  0  0  0
  188.4400  177.4670  143.3510 C   0  0  0  0  0  2  0  0  0  0  0  0
  191.8740  175.8370  138.0550 C   0  0  0  0  0  0  0  0  0  0  0  0
  188.2320  177.0890  138.0790 C   0  0  2  0  0  3  0  0  0  0  0  0
  193.7620  174.7640  137.6430 C   0  0  0  0  0  0  0  0  0  0  0  0
  191.6430  174.5480  137.4320 C   0  0  0  0  0  0  0  0  0  0  0  0
  188.9040  178.7350  139.7900 C   0  0  0  0  0  3  0  0  0  0  0  0
  190.7380  176.6100  138.6440 C   0  0  1  0  0  3  0  0  0  0  0  0
  189.8330  175.8700  142.2210 N   0  0  0  0  0  0  0  0  0  0  0  0
  190.3170  174.0440  137.2480 N   0  0  0  0  0  0  0  0  0  0  0  0
  188.6310  178.4290  142.2140 C   0  0  0  0  0  2  0  0  0  0  0  0
  188.7630  177.7060  140.8740 C   0  0  2  0  0  3  0  0  0  0  0  0
  189.7960  176.5870  140.9820 C   0  0  0  0  0  0  0  0  0  0  0  0
  185.4850  177.2210  134.7720 C   0  0  0  0  0  3  0  0  0  0  0  0
  187.2900  177.1390  136.9140 C   0  0  0  0  0  0  0  0  0  0  0  0
  186.0160  176.5760  137.0460 C   0  0  0  0  0  3  0  0  0  0  0  0
  185.1160  176.6160  135.9760 C   0  0  0  0  0  3  0  0  0  0  0  0
  186.7550  177.7870  134.6350 C   0  0  0  0  0  3  0  0  0  0  0  0
  187.6570  177.7480  135.7020 C   0  0  0  0  0  3  0  0  0  0  0  0
  1 15  2  0  0  0  0
  2  6  1  1  0  0  0
  2 12  1  0  0  0  0
  2 16  1  0  0  0  0
  3 21  2  0  0  0  0
  4 14  2  0  0  0  0
  4 13  1  0  0  0  0
  7  9  1  0  0  0  0
  8 10  1  0  0  0  0
 11  7  2  0  0  0  0
 12 23  1  6  0  0  0
 12  1  1  0  0  0  0
 13  5  2  0  0  0  0
 13  7  1  0  0  0  0
 14 11  1  0  0  0  0
 16 11  1  6  0  0  0
 16  3  1  0  0  0  0
 17  8  2  0  0  0  0
 18 14  1  0  0  0  0
 18  6  2  0  0  0  0
 19 10  1  0  0  0  0
 20 15  1  6  0  0  0
 20 21  1  0  0  0  0
 20 19  1  0  0  0  0
 21 17  1  0  0  0  0
 22 25  1  0  0  0  0
 23 24  1  0  0  0  0
 25 24  2  0  0  0  0
 26 22  2  0  0  0  0
 26 27  1  0  0  0  0
 27 23  2  0  0  0  0
M  END
>  <MODEL>
2

>  <REMARK>
 VINA RESULT:      -7.3      5.458      8.408
  Name = 
  1 active torsions:
  status: ('A' for Active; 'I' for Inactive)
    1  A    between atoms: C_9  and  C_15
                            x       y       z     vdW  Elec       q    Type
                         _______ _______ _______ _____ _____    ______ ____

>  <TORSDO>
F 1

$$$$
=
 OpenBabel10272401033D

 27 31  0  0  1  0  0  0  0  0999 V2000
  183.7640  177.6630  141.8530 C   0  0  0  0  0  3  0  0  0  0  0  0
  186.0670  178.3510  141.2760 C   0  0  1  0  0  3  0  0  0  0  0  0
  185.0830  179.2160  139.1400 N   0  0  0  0  0  0  0  0  0  0  0  0
  189.1630  178.2880  138.6350 N   0  0  0  0  0  0  0  0  0  0  0  0
  189.3570  177.0750  136.2320 S   0  0  0  0  0  0  0  0  0  0  0  0
  187.2220  179.3280  141.4410 C   0  0  0  0  0  3  0  0  0  0  0  0
  187.2030  177.1460  137.9500 C   0  0  0  0  0  0  0  0  0  0  0  0
  182.3690  181.5900  138.5350 C   0  0  0  0  0  3  0  0  0  0  0  0
  186.1920  176.4710  137.0870 C   0  0  0  0  0  1  0  0  0  0  0  0
  181.3410  181.0400  139.1810 C   0  0  0  0  0  2  0  0  0  0  0  0
  186.9750  177.7620  139.0950 C   0  0  0  0  0  0  0  0  0  0  0  0
  184.8920  178.5770  142.2310 C   0  0  2  0  0  3  0  0  0  0  0  0
  188.6050  177.4250  137.6410 C   0  0  0  0  0  0  0  0  0  0  0  0
  188.1950  178.4460  139.4780 C   0  0  0  0  0  0  0  0  0  0  0  0
  182.8740  178.0210  140.9250 C   0  0  0  0  0  3  0  0  0  0  0  0
  185.6890  178.0580  139.7960 C   0  0  1  0  0  3  0  0  0  0  0  0
  183.6310  180.9170  138.4700 N   0  0  0  0  0  0  0  0  0  0  0  0
  188.2310  179.3170  140.6120 N   0  0  0  0  0  0  0  0  0  0  0  0
  181.4550  179.6630  139.7680 C   0  0  0  0  0  2  0  0  0  0  0  0
  182.8560  179.3940  140.3170 C   0  0  2  0  0  3  0  0  0  0  0  0
  183.9070  179.7640  139.2730 C   0  0  0  0  0  0  0  0  0  0  0  0
  185.9820  177.9530  146.3440 C   0  0  0  0  0  3  0  0  0  0  0  0
  185.2910  178.3530  143.6580 C   0  0  0  0  0  0  0  0  0  0  0  0
  184.5420  178.9570  144.6750 C   0  0  0  0  0  3  0  0  0  0  0  0
  184.8880  178.7580  146.0150 C   0  0  0  0  0  3  0  0  0  0  0  0
  186.7320  177.3450  145.3340 C   0  0  0  0  0  3  0  0  0  0  0  0
  186.3880  177.5430  143.9930 C   0  0  0  0  0  3  0  0  0  0  0  0
  1 12  1  0  0  0  0
  2  6  1  6  0  0  0
  2 12  1  0  0  0  0
  3 21  2  0  0  0  0
  3 16  1  0  0  0  0
  4 14  2  0  0  0  0
  5 13  2  0  0  0  0
  7 11  2  0  0  0  0
  8 10  1  0  0  0  0
  9  7  1  0  0  0  0
 10 19  1  0  0  0  0
 11 14  1  0  0  0  0
 12 23  1  1  0  0  0
 13  7  1  0  0  0  0
 13  4  1  0  0  0  0
 14 18  1  0  0  0  0
 15  1  2  0  0  0  0
 16 11  1  6  0  0  0
 16  2  1  0  0  0  0
 17  8  2  0  0  0  0
 17 21  1  0  0  0  0
 18  6  2  0  0  0  0
 20 19  1  6  0  0  0
 20 15  1  0  0  0  0
 21 20  1  0  0  0  0
 23 27  2  0  0  0  0
 23 24  1  0  0  0  0
 24 25  2  0  0  0  0
 25 22  1  0  0  0  0
 26 22  2  0  0  0  0
 27 26  1  0  0  0  0
M  END
>  <MODEL>
3

>  <REMARK>
 VINA RESULT:      -6.5      1.668      2.074
  Name = 
  1 active torsions:
  status: ('A' for Active; 'I' for Inactive)
    1  A    between atoms: C_9  and  C_15
                            x       y       z     vdW  Elec       q    Type
                         _______ _______ _______ _____ _____    ______ ____

>  <TORSDO>
F 1

$$$$
=
 OpenBabel10272401033D

 27 31  0  0  1  0  0  0  0  0999 V2000
  182.3580  178.4790  141.0640 C   0  0  0  0  0  3  0  0  0  0  0  0
  183.8230  177.7750  139.2030 C   0  0  1  0  0  3  0  0  0  0  0  0
  182.0310  178.6620  137.6930 N   0  0  0  0  0  0  0  0  0  0  0  0
  184.2970  175.6950  135.7370 N   0  0  0  0  0  0  0  0  0  0  0  0
  182.5230  174.1820  134.3760 S   0  0  0  0  0  0  0  0  0  0  0  0
  185.0440  178.0280  138.3300 C   0  0  0  0  0  3  0  0  0  0  0  0
  182.1260  175.6330  136.6860 C   0  0  0  0  0  0  0  0  0  0  0  0
  180.4630  181.9600  137.5050 C   0  0  0  0  0  3  0  0  0  0  0  0
  180.6530  175.4460  136.8300 C   0  0  0  0  0  1  0  0  0  0  0  0
  179.9830  182.1330  138.7360 C   0  0  0  0  0  2  0  0  0  0  0  0
  182.8870  176.4560  137.3830 C   0  0  0  0  0  0  0  0  0  0  0  0
  183.6760  178.7270  140.3920 C   0  0  2  0  0  3  0  0  0  0  0  0
  183.0020  175.0950  135.6450 C   0  0  0  0  0  0  0  0  0  0  0  0
  184.2020  176.4640  136.7710 C   0  0  0  0  0  0  0  0  0  0  0  0
  181.2480  179.0880  140.6410 C   0  0  0  0  0  3  0  0  0  0  0  0
  182.5200  177.4830  138.4050 C   0  0  1  0  0  3  0  0  0  0  0  0
  181.1040  180.7330  137.1410 N   0  0  0  0  0  0  0  0  0  0  0  0
  185.2210  177.3630  137.2200 N   0  0  0  0  0  0  0  0  0  0  0  0
  180.0140  181.0120  139.7340 C   0  0  0  0  0  2  0  0  0  0  0  0
  181.2690  180.1530  139.5830 C   0  0  2  0  0  3  0  0  0  0  0  0
  181.4560  179.7510  138.1220 C   0  0  0  0  0  0  0  0  0  0  0  0
  186.8670  178.2350  143.2340 C   0  0  0  0  0  3  0  0  0  0  0  0
  184.8000  178.5660  141.3700 C   0  0  0  0  0  0  0  0  0  0  0  0
  184.5050  178.2150  142.6920 C   0  0  0  0  0  3  0  0  0  0  0  0
  185.5370  178.0510  143.6220 C   0  0  0  0  0  3  0  0  0  0  0  0
  187.1670  178.5830  141.9140 C   0  0  0  0  0  3  0  0  0  0  0  0
  186.1380  178.7490  140.9830 C   0  0  0  0  0  3  0  0  0  0  0  0
  2  6  1  6  0  0  0
  2 12  1  0  0  0  0
  3 21  2  0  0  0  0
  3 16  1  0  0  0  0
  4 14  2  0  0  0  0
  5 13  2  0  0  0  0
  7  9  1  0  0  0  0
  7 11  2  0  0  0  0
  8 10  1  0  0  0  0
 10 19  1  0  0  0  0
 12  1  1  0  0  0  0
 12 23  1  1  0  0  0
 13  4  1  0  0  0  0
 13  7  1  0  0  0  0
 14 18  1  0  0  0  0
 14 11  1  0  0  0  0
 15  1  2  0  0  0  0
 16 11  1  6  0  0  0
 16  2  1  0  0  0  0
 17  8  2  0  0  0  0
 17 21  1  0  0  0  0
 18  6  2  0  0  0  0
 20 19  1  6  0  0  0
 20 15  1  0  0  0  0
 21 20  1  0  0  0  0
 22 25  1  0  0  0  0
 23 24  1  0  0  0  0
 24 25  2  0  0  0  0
 26 22  2  0  0  0  0
 27 23  2  0  0  0  0
 27 26  1  0  0  0  0
M  END
>  <MODEL>
4

>  <REMARK>
 VINA RESULT:      -6.0      1.470      2.076
  Name = 
  1 active torsions:
  status: ('A' for Active; 'I' for Inactive)
    1  A    between atoms: C_9  and  C_15
                            x       y       z     vdW  Elec       q    Type
                         _______ _______ _______ _____ _____    ______ ____

>  <TORSDO>
F 1

$$$$
=
 OpenBabel10272401033D

 27 31  0  0  1  0  0  0  0  0999 V2000
  184.5690  178.8470  139.4700 C   0  0  0  0  0  3  0  0  0  0  0  0
  184.4230  177.0740  137.7550 C   0  0  1  0  0  3  0  0  0  0  0  0
  182.0350  177.7820  137.4810 N   0  0  0  0  0  0  0  0  0  0  0  0
  182.5430  173.7630  136.3180 N   0  0  0  0  0  0  0  0  0  0  0  0
  180.4070  172.4310  137.2920 S   0  0  0  0  0  0  0  0  0  0  0  0
  184.7130  176.5940  136.3400 C   0  0  0  0  0  3  0  0  0  0  0  0
  181.5960  174.7180  138.2690 C   0  0  0  0  0  0  0  0  0  0  0  0
  180.5690  181.0440  136.7200 C   0  0  0  0  0  3  0  0  0  0  0  0
  180.6250  175.0440  139.3520 C   0  0  0  0  0  1  0  0  0  0  0  0
  181.0400  181.8180  137.6980 C   0  0  0  0  0  2  0  0  0  0  0  0
  182.5800  175.4850  137.8360 C   0  0  0  0  0  0  0  0  0  0  0  0
  185.0660  178.4140  138.1230 C   0  0  2  0  0  3  0  0  0  0  0  0
  181.5660  173.5840  137.3460 C   0  0  0  0  0  0  0  0  0  0  0  0
  183.1300  174.8660  136.6460 C   0  0  0  0  0  0  0  0  0  0  0  0
  183.4330  179.5380  139.5910 C   0  0  0  0  0  3  0  0  0  0  0  0
  182.9440  176.8890  138.1980 C   0  0  1  0  0  3  0  0  0  0  0  0
  180.8630  179.6430  136.6980 N   0  0  0  0  0  0  0  0  0  0  0  0
  184.1300  175.5270  135.8640 N   0  0  0  0  0  0  0  0  0  0  0  0
  181.8030  181.2230  138.8460 C   0  0  0  0  0  2  0  0  0  0  0  0
  182.6710  180.0460  138.4000 C   0  0  2  0  0  3  0  0  0  0  0  0
  181.8420  179.0680  137.5710 C   0  0  0  0  0  0  0  0  0  0  0  0
  189.3580  178.1340  138.1690 C   0  0  0  0  0  3  0  0  0  0  0  0
  186.5620  178.3260  138.1210 C   0  0  0  0  0  0  0  0  0  0  0  0
  187.2270  178.0380  139.3180 C   0  0  0  0  0  3  0  0  0  0  0  0
  188.6220  177.9440  139.3420 C   0  0  0  0  0  3  0  0  0  0  0  0
  188.6990  178.4190  136.9700 C   0  0  0  0  0  3  0  0  0  0  0  0
  187.3040  178.5150  136.9440 C   0  0  0  0  0  3  0  0  0  0  0  0
  1 15  2  0  0  0  0
  2  6  1  6  0  0  0
  2 12  1  0  0  0  0
  2 16  1  0  0  0  0
  3 21  2  0  0  0  0
  4 14  2  0  0  0  0
  4 13  1  0  0  0  0
  5 13  2  0  0  0  0
  7  9  1  0  0  0  0
  8 10  1  0  0  0  0
 10 19  1  0  0  0  0
 11 16  1  0  0  0  0
 11  7  2  0  0  0  0
 12 23  1  1  0  0  0
 12  1  1  0  0  0  0
 13  7  1  0  0  0  0
 14 11  1  0  0  0  0
 16  3  1  6  0  0  0
 17  8  2  0  0  0  0
 17 21  1  0  0  0  0
 18  6  2  0  0  0  0
 18 14  1  0  0  0  0
 20 19  1  1  0  0  0
 20 15  1  0  0  0  0
 21 20  1  0  0  0  0
 22 25  1  0  0  0  0
 23 24  1  0  0  0  0
 24 25  2  0  0  0  0
 26 22  2  0  0  0  0
 27 26  1  0  0  0  0
 27 23  2  0  0  0  0
M  END
>  <MODEL>
5

>  <REMARK>
 VINA RESULT:      -5.9      3.226      4.583
  Name = 
  1 active torsions:
  status: ('A' for Active; 'I' for Inactive)
    1  A    between atoms: C_9  and  C_15
                            x       y       z     vdW  Elec       q    Type
                         _______ _______ _______ _____ _____    ______ ____

>  <TORSDO>
F 1

$$$$
=
 OpenBabel10272401033D

 27 31  0  0  1  0  0  0  0  0999 V2000
  187.8690  178.1650  137.3420 C   0  0  0  0  0  3  0  0  0  0  0  0
  188.4950  175.8230  136.8640 C   0  0  1  0  0  3  0  0  0  0  0  0
  190.0730  176.0370  138.7980 N   0  0  0  0  0  0  0  0  0  0  0  0
  191.4030  173.0780  136.1070 N   0  0  0  0  0  0  0  0  0  0  0  0
  194.0740  173.4060  135.9030 S   0  0  0  0  0  0  0  0  0  0  0  0
  188.1750  174.3370  136.9560 C   0  0  0  0  0  3  0  0  0  0  0  0
  192.1530  175.2930  136.4920 C   0  0  0  0  0  0  0  0  0  0  0  0
  189.4910  176.9930  142.2790 C   0  0  0  0  0  3  0  0  0  0  0  0
  193.0450  176.4470  136.8020 C   0  0  0  0  0  1  0  0  0  0  0  0
  188.9290  178.1970  142.1680 C   0  0  0  0  0  2  0  0  0  0  0  0
  190.8490  175.2290  136.6910 C   0  0  0  0  0  0  0  0  0  0  0  0
  187.3690  176.7520  137.3250 C   0  0  2  0  0  3  0  0  0  0  0  0
  192.5400  173.9440  136.0790 C   0  0  0  0  0  0  0  0  0  0  0  0
  190.4330  173.8620  136.4450 C   0  0  0  0  0  0  0  0  0  0  0  0
  188.4990  178.6560  138.4120 C   0  0  0  0  0  3  0  0  0  0  0  0
  189.9230  176.1970  137.3530 C   0  0  1  0  0  3  0  0  0  0  0  0
  189.9440  176.2930  141.1150 N   0  0  0  0  0  0  0  0  0  0  0  0
  189.0910  173.4410  136.7060 N   0  0  0  0  0  0  0  0  0  0  0  0
  188.8480  178.8840  140.8350 C   0  0  0  0  0  2  0  0  0  0  0  0
  188.6130  177.8900  139.6980 C   0  0  2  0  0  3  0  0  0  0  0  0
  189.6090  176.7380  139.7950 C   0  0  0  0  0  0  0  0  0  0  0  0
  183.9380  176.4320  134.7500 C   0  0  0  0  0  3  0  0  0  0  0  0
  186.1620  176.6350  136.4440 C   0  0  0  0  0  0  0  0  0  0  0  0
  186.1720  177.2590  135.1920 C   0  0  0  0  0  3  0  0  0  0  0  0
  185.0620  177.1590  134.3470 C   0  0  0  0  0  3  0  0  0  0  0  0
  183.9230  175.8040  135.9980 C   0  0  0  0  0  3  0  0  0  0  0  0
  185.0320  175.9030  136.8450 C   0  0  0  0  0  3  0  0  0  0  0  0
  1 15  2  0  0  0  0
  2  6  1  1  0  0  0
  2 12  1  0  0  0  0
  2 16  1  0  0  0  0
  3 21  2  0  0  0  0
  4 14  2  0  0  0  0
  5 13  2  0  0  0  0
  7 11  2  0  0  0  0
  7  9  1  0  0  0  0
 10  8  1  0  0  0  0
 12 23  1  6  0  0  0
 12  1  1  0  0  0  0
 13  4  1  0  0  0  0
 13  7  1  0  0  0  0
 14 11  1  0  0  0  0
 14 18  1  0  0  0  0
 16 11  1  6  0  0  0
 16  3  1  0  0  0  0
 17  8  2  0  0  0  0
 18  6  2  0  0  0  0
 19 10  1  0  0  0  0
 20 15  1  6  0  0  0
 20 21  1  0  0  0  0
 20 19  1  0  0  0  0
 21 17  1  0  0  0  0
 22 26  1  0  0  0  0
 23 27  1  0  0  0  0
 24 23  2  0  0  0  0
 25 22  2  0  0  0  0
 25 24  1  0  0  0  0
 26 27  2  0  0  0  0
M  END
>  <MODEL>
6

>  <REMARK>
 VINA RESULT:      -5.8      5.349      8.144
  Name = 
  1 active torsions:
  status: ('A' for Active; 'I' for Inactive)
    1  A    between atoms: C_9  and  C_15
                            x       y       z     vdW  Elec       q    Type
                         _______ _______ _______ _____ _____    ______ ____

>  <TORSDO>
F 1

$$$$
=
 OpenBabel10272401033D

 27 31  0  0  1  0  0  0  0  0999 V2000
  188.5080  175.8850  143.8900 C   0  0  0  0  0  3  0  0  0  0  0  0
  190.4320  176.8650  142.6880 C   0  0  1  0  0  3  0  0  0  0  0  0
  188.7350  177.8020  141.1000 N   0  0  0  0  0  0  0  0  0  0  0  0
  192.4740  177.3680  139.2040 N   0  0  0  0  0  0  0  0  0  0  0  0
  191.9500  176.3970  136.7400 S   0  0  0  0  0  0  0  0  0  0  0  0
  191.5020  177.9420  142.5870 C   0  0  0  0  0  3  0  0  0  0  0  0
  190.4870  176.0850  139.0560 C   0  0  0  0  0  0  0  0  0  0  0  0
  185.8080  179.9130  141.6840 C   0  0  0  0  0  3  0  0  0  0  0  0
  189.2990  175.3830  138.4900 C   0  0  0  0  0  1  0  0  0  0  0  0
  185.0950  179.2010  142.5570 C   0  0  0  0  0  2  0  0  0  0  0  0
  190.6070  176.5710  140.2770 C   0  0  0  0  0  0  0  0  0  0  0  0
  189.6270  176.8780  143.9900 C   0  0  2  0  0  3  0  0  0  0  0  0
  191.6830  176.5400  138.3470 C   0  0  0  0  0  0  0  0  0  0  0  0
  191.8320  177.3460  140.3250 C   0  0  0  0  0  0  0  0  0  0  0  0
  187.3360  176.2240  143.3460 C   0  0  0  0  0  3  0  0  0  0  0  0
  189.6070  176.6640  141.3850 C   0  0  1  0  0  3  0  0  0  0  0  0
  187.0230  179.3880  141.1390 N   0  0  0  0  0  0  0  0  0  0  0  0
  192.1770  178.1130  141.4820 N   0  0  0  0  0  0  0  0  0  0  0  0
  185.4980  177.7980  142.9100 C   0  0  0  0  0  2  0  0  0  0  0  0
  187.0170  177.6350  142.9430 C   0  0  2  0  0  3  0  0  0  0  0  0
  187.6330  178.2060  141.6680 C   0  0  0  0  0  0  0  0  0  0  0  0
  192.0640  176.0280  147.4300 C   0  0  0  0  0  3  0  0  0  0  0  0
  190.4910  176.5750  145.1760 C   0  0  0  0  0  0  0  0  0  0  0  0
  190.2010  177.1850  146.4010 C   0  0  0  0  0  3  0  0  0  0  0  0
  190.9870  176.9130  147.5260 C   0  0  0  0  0  3  0  0  0  0  0  0
  192.3570  175.4140  146.2100 C   0  0  0  0  0  3  0  0  0  0  0  0
  191.5730  175.6840  145.0840 C   0  0  0  0  0  3  0  0  0  0  0  0
  1 12  1  0  0  0  0
  2  6  1  6  0  0  0
  2 12  1  0  0  0  0
  3 16  1  0  0  0  0
  3 21  2  0  0  0  0
  4 14  2  0  0  0  0
  5 13  2  0  0  0  0
  7 11  2  0  0  0  0
  8 10  1  0  0  0  0
  9  7  1  0  0  0  0
 10 19  1  0  0  0  0
 11 14  1  0  0  0  0
 12 23  1  1  0  0  0
 13  7  1  0  0  0  0
 13  4  1  0  0  0  0
 14 18  1  0  0  0  0
 15  1  2  0  0  0  0
 16 11  1  6  0  0  0
 16  2  1  0  0  0  0
 17 21  1  0  0  0  0
 17  8  2  0  0  0  0
 18  6  2  0  0  0  0
 20 19  1  6  0  0  0
 20 15  1  0  0  0  0
 21 20  1  0  0  0  0
 22 25  1  0  0  0  0
 23 24  1  0  0  0  0
 24 25  2  0  0  0  0
 26 22  2  0  0  0  0
 27 23  2  0  0  0  0
 27 26  1  0  0  0  0
M  END
>  <MODEL>
7

>  <REMARK>
 VINA RESULT:      -5.6      4.608      6.548
  Name = 
  1 active torsions:
  status: ('A' for Active; 'I' for Inactive)
    1  A    between atoms: C_9  and  C_15
                            x       y       z     vdW  Elec       q    Type
                         _______ _______ _______ _____ _____    ______ ____

>  <TORSDO>
F 1

$$$$
=
 OpenBabel10272401033D

 27 31  0  0  1  0  0  0  0  0999 V2000
  189.1210  176.5430  140.8290 C   0  0  0  0  0  3  0  0  0  0  0  0
  191.4640  176.7150  140.0620 C   0  0  1  0  0  3  0  0  0  0  0  0
  190.5040  176.9750  137.7620 N   0  0  0  0  0  0  0  0  0  0  0  0
  194.4200  175.4270  137.5790 N   0  0  0  0  0  0  0  0  0  0  0  0
  194.3690  173.4990  135.6900 S   0  0  0  0  0  0  0  0  0  0  0  0
  192.7330  177.5400  139.9060 C   0  0  0  0  0  3  0  0  0  0  0  0
  192.3110  174.3830  137.2960 C   0  0  0  0  0  0  0  0  0  0  0  0
  188.0710  179.3580  136.4290 C   0  0  0  0  0  3  0  0  0  0  0  0
  191.1920  173.6030  136.6940 C   0  0  0  0  0  1  0  0  0  0  0  0
  187.0120  179.1750  137.2180 C   0  0  0  0  0  2  0  0  0  0  0  0
  192.2050  175.3550  138.1830 C   0  0  0  0  0  0  0  0  0  0  0  0
  190.3640  177.3790  140.8950 C   0  0  2  0  0  3  0  0  0  0  0  0
  193.7230  174.3710  136.9130 C   0  0  0  0  0  0  0  0  0  0  0  0
  193.5130  175.9650  138.3270 C   0  0  0  0  0  0  0  0  0  0  0  0
  188.2430  176.6970  139.8350 C   0  0  0  0  0  3  0  0  0  0  0  0
  190.9930  176.0180  138.7530 C   0  0  1  0  0  3  0  0  0  0  0  0
  189.2400  178.5450  136.5840 N   0  0  0  0  0  0  0  0  0  0  0  0
  193.6990  177.1380  139.1230 N   0  0  0  0  0  0  0  0  0  0  0  0
  186.9840  178.0530  138.2150 C   0  0  0  0  0  2  0  0  0  0  0  0
  188.3640  177.7980  138.8200 C   0  0  2  0  0  3  0  0  0  0  0  0
  189.4080  177.6810  137.7130 C   0  0  0  0  0  0  0  0  0  0  0  0
  191.6120  177.8770  144.9800 C   0  0  0  0  0  3  0  0  0  0  0  0
  190.7910  177.5710  142.3180 C   0  0  0  0  0  0  0  0  0  0  0  0
  191.1180  176.4490  143.0870 C   0  0  0  0  0  3  0  0  0  0  0  0
  191.5260  176.6010  144.4160 C   0  0  0  0  0  3  0  0  0  0  0  0
  191.2900  179.0020  144.2170 C   0  0  0  0  0  3  0  0  0  0  0  0
  190.8800  178.8520  142.8880 C   0  0  0  0  0  3  0  0  0  0  0  0
  1 12  1  0  0  0  0
  2  6  1  6  0  0  0
  2 12  1  0  0  0  0
  4 14  2  0  0  0  0
  5 13  2  0  0  0  0
  7 11  2  0  0  0  0
  8 17  2  0  0  0  0
  8 10  1  0  0  0  0
  9  7  1  0  0  0  0
 10 19  1  0  0  0  0
 11 14  1  0  0  0  0
 11 16  1  0  0  0  0
 12 23  1  1  0  0  0
 13  7  1  0  0  0  0
 13  4  1  0  0  0  0
 14 18  1  0  0  0  0
 15  1  2  0  0  0  0
 16  3  1  6  0  0  0
 16  2  1  0  0  0  0
 17 21  1  0  0  0  0
 18  6  2  0  0  0  0
 20 19  1  6  0  0  0
 20 15  1  0  0  0  0
 21  3  2  0  0  0  0
 21 20  1  0  0  0  0
 23 27  2  0  0  0  0
 23 24  1  0  0  0  0
 24 25  2  0  0  0  0
 25 22  1  0  0  0  0
 26 22  2  0  0  0  0
 27 26  1  0  0  0  0
M  END
>  <MODEL>
8

>  <REMARK>
 VINA RESULT:      -5.5      5.526      7.443
  Name = 
  1 active torsions:
  status: ('A' for Active; 'I' for Inactive)
    1  A    between atoms: C_9  and  C_15
                            x       y       z     vdW  Elec       q    Type
                         _______ _______ _______ _____ _____    ______ ____

>  <TORSDO>
F 1

$$$$
=
 OpenBabel10272401033D

 27 31  0  0  1  0  0  0  0  0999 V2000
  187.8160  176.1830  143.5450 C   0  0  0  0  0  3  0  0  0  0  0  0
  188.8250  177.3920  145.4490 C   0  0  1  0  0  3  0  0  0  0  0  0
  191.0080  177.0850  144.2570 N   0  0  0  0  0  0  0  0  0  0  0  0
  191.6210  177.5270  148.4040 N   0  0  0  0  0  0  0  0  0  0  0  0
  193.5150  175.7230  149.0720 S   0  0  0  0  0  0  0  0  0  0  0  0
  189.1060  178.7050  146.1660 C   0  0  0  0  0  3  0  0  0  0  0  0
  191.6900  175.6130  147.0080 C   0  0  0  0  0  0  0  0  0  0  0  0
  192.0490  178.0100  140.8760 C   0  0  0  0  0  3  0  0  0  0  0  0
  192.1790  174.3790  146.3280 C   0  0  0  0  0  1  0  0  0  0  0  0
  191.1550  177.3880  140.1080 C   0  0  0  0  0  3  0  0  0  0  0  0
  190.7860  176.4590  146.5500 C   0  0  0  0  0  0  0  0  0  0  0  0
  187.8740  177.5020  144.2550 C   0  0  2  0  0  3  0  0  0  0  0  0
  192.2210  176.2430  148.2170 C   0  0  0  0  0  0  0  0  0  0  0  0
  190.7750  177.6120  147.4300 C   0  0  0  0  0  0  0  0  0  0  0  0
  188.7100  175.8720  142.6030 C   0  0  0  0  0  3  0  0  0  0  0  0
  190.0840  176.5060  145.2310 C   0  0  1  0  0  3  0  0  0  0  0  0
  192.0290  177.8400  142.2980 N   0  0  0  0  0  2  0  0  0  0  0  0
  189.9900  178.7680  147.1240 N   0  0  0  0  0  0  0  0  0  0  0  0
  190.1730  176.4220  140.7050 C   0  0  0  0  0  2  0  0  0  0  0  0
  189.7200  176.8610  142.0970 C   0  0  2  0  0  3  0  0  0  0  0  0
  190.9330  177.1990  142.9600 C   0  0  0  0  0  0  0  0  0  0  0  0
  183.9150  178.7140  145.4220 C   0  0  0  0  0  3  0  0  0  0  0  0
  186.5010  177.9270  144.6810 C   0  0  0  0  0  0  0  0  0  0  0  0
  185.5820  178.3310  143.7060 C   0  0  0  0  0  3  0  0  0  0  0  0
  184.2920  178.7250  144.0760 C   0  0  0  0  0  3  0  0  0  0  0  0
  184.8280  178.3090  146.4000 C   0  0  0  0  0  3  0  0  0  0  0  0
  186.1180  177.9160  146.0330 C   0  0  0  0  0  3  0  0  0  0  0  0
  1 12  1  0  0  0  0
  2  6  1  6  0  0  0
  6 18  2  0  0  0  0
  7 13  1  0  0  0  0
  8 17  1  0  0  0  0
  9  7  1  0  0  0  0
 10 19  1  0  0  0  0
 10  8  2  0  0  0  0
 11  7  2  0  0  0  0
 11 14  1  0  0  0  0
 12 23  1  1  0  0  0
 12  2  1  0  0  0  0
 13  4  1  0  0  0  0
 13  5  2  0  0  0  0
 14  4  2  0  0  0  0
 15  1  2  0  0  0  0
 16  3  1  6  0  0  0
 16  2  1  0  0  0  0
 16 11  1  0  0  0  0
 17 21  1  0  0  0  0
 18 14  1  0  0  0  0
 20 19  1  6  0  0  0
 20 15  1  0  0  0  0
 20 21  1  0  0  0  0
 21  3  2  0  0  0  0
 22 26  1  0  0  0  0
 23 27  1  0  0  0  0
 24 25  1  0  0  0  0
 24 23  2  0  0  0  0
 25 22  2  0  0  0  0
 27 26  2  0  0  0  0
M  END
>  <MODEL>
9

>  <REMARK>
 VINA RESULT:      -5.3      6.277      9.345
  Name = 
  1 active torsions:
  status: ('A' for Active; 'I' for Inactive)
    1  A    between atoms: C_9  and  C_15
                            x       y       z     vdW  Elec       q    Type
                         _______ _______ _______ _____ _____    ______ ____

>  <TORSDO>
F 1

$$$$
