=
 OpenBabel10272400503D

 25 29  0  0  0  0  0  0  0  0999 V2000
  186.9540  178.0720  145.5370 C   0  0  0  0  0  0  0  0  0  0  0  0
  188.2570  177.7280  145.1790 C   0  0  0  0  0  0  0  0  0  0  0  0
  187.4260  177.8550  147.8960 C   0  0  0  0  0  3  0  0  0  0  0  0
  185.9040  178.3880  144.7690 N   0  0  0  0  0  0  0  0  0  0  0  0
  183.4560  179.0960  143.7890 C   0  0  0  0  0  3  0  0  0  0  0  0
  188.7500  177.5040  147.5690 C   0  0  0  0  0  3  0  0  0  0  0  0
  184.8980  178.6330  145.6380 C   0  0  0  0  0  0  0  0  0  0  0  0
  183.6350  178.9960  145.1780 C   0  0  0  0  0  3  0  0  0  0  0  0
  190.5100  177.0850  145.8540 N   0  0  0  0  0  0  0  0  0  0  0  0
  191.5160  176.7710  146.8560 C   0  0  0  0  0  1  0  0  0  0  0  0
  188.6780  177.6630  143.8100 N   0  0  0  0  0  0  0  0  0  0  0  0
  184.5210  178.8370  142.9060 C   0  0  0  0  0  3  0  0  0  0  0  0
  186.5520  178.1340  146.8480 C   0  0  0  0  0  0  0  0  0  0  0  0
  185.2490  178.4870  146.9410 N   0  0  0  0  0  0  0  0  0  0  0  0
  190.8610  177.0380  144.4950 N   0  0  0  0  0  2  0  0  0  0  0  0
  185.7730  178.4750  143.4210 C   0  0  0  0  0  3  0  0  0  0  0  0
  189.8950  177.3420  143.4750 C   0  0  0  0  0  0  0  0  0  0  0  0
  189.1680  177.4390  146.2160 C   0  0  0  0  0  0  0  0  0  0  0  0
  192.0090  177.3120  140.3410 C   0  0  0  0  0  0  0  0  0  0  0  0
  190.2830  177.2880  142.0530 C   0  0  0  0  0  0  0  0  0  0  0  0
  191.6350  177.3630  141.6870 C   0  0  0  0  0  3  0  0  0  0  0  0
  193.3820  177.3890  139.9820 N   0  0  0  0  0  1  0  0  0  0  0  0
  189.3090  177.1610  141.0500 C   0  0  0  0  0  3  0  0  0  0  0  0
  191.0320  177.1860  139.3490 C   0  0  0  0  0  3  0  0  0  0  0  0
  189.6820  177.1100  139.7040 C   0  0  0  0  0  3  0  0  0  0  0  0
  1 13  1  0  0  0  0
  2  1  2  0  0  0  0
  2 18  1  0  0  0  0
  4  1  1  0  0  0  0
  4  7  1  0  0  0  0
  5  8  2  0  0  0  0
  6  3  1  0  0  0  0
  7 14  2  0  0  0  0
  8  7  1  0  0  0  0
  9 18  1  0  0  0  0
  9 10  1  0  0  0  0
 11  2  1  0  0  0  0
 12 16  2  0  0  0  0
 12  5  1  0  0  0  0
 13 14  1  0  0  0  0
 13  3  2  0  0  0  0
 15  9  1  0  0  0  0
 16  4  1  0  0  0  0
 17 11  2  0  0  0  0
 17 15  1  0  0  0  0
 18  6  2  0  0  0  0
 19 21  1  0  0  0  0
 20 17  1  0  0  0  0
 21 20  2  0  0  0  0
 22 19  1  0  0  0  0
 23 20  1  0  0  0  0
 24 25  1  0  0  0  0
 24 19  2  0  0  0  0
 25 23  2  0  0  0  0
M  END
>  <MODEL>
1

>  <REMARK>
 VINA RESULT:     -10.8      0.000      0.000
  Name = 
  1 active torsions:
  status: ('A' for Active; 'I' for Inactive)
    1  A    between atoms: C_6  and  C_23
                            x       y       z     vdW  Elec       q    Type
                         _______ _______ _______ _____ _____    ______ ____

>  <TORSDO>
F 1

$$$$
=
 OpenBabel10272400503D

 25 29  0  0  0  0  0  0  0  0999 V2000
  186.7000  178.1020  145.1970 C   0  0  0  0  0  0  0  0  0  0  0  0
  187.9570  177.7950  144.6760 C   0  0  0  0  0  0  0  0  0  0  0  0
  187.4680  177.8850  147.4760 C   0  0  0  0  0  3  0  0  0  0  0  0
  185.5540  178.3950  144.5670 N   0  0  0  0  0  0  0  0  0  0  0  0
  182.9860  179.0420  143.9060 C   0  0  0  0  0  3  0  0  0  0  0  0
  188.7490  177.5710  146.9840 C   0  0  0  0  0  3  0  0  0  0  0  0
  184.6590  178.6070  145.5580 C   0  0  0  0  0  0  0  0  0  0  0  0
  183.3390  178.9390  145.2610 C   0  0  0  0  0  3  0  0  0  0  0  0
  190.2930  177.2090  145.0600 N   0  0  0  0  0  0  0  0  0  0  0  0
  191.4230  176.9170  145.9260 C   0  0  0  0  0  1  0  0  0  0  0  0
  188.2060  177.7490  143.2650 N   0  0  0  0  0  0  0  0  0  0  0  0
  183.9390  178.8160  142.8950 C   0  0  0  0  0  3  0  0  0  0  0  0
  186.4630  178.1450  146.5480 C   0  0  0  0  0  0  0  0  0  0  0  0
  185.1740  178.4640  146.8060 N   0  0  0  0  0  0  0  0  0  0  0  0
  190.4730  177.1790  143.6670 N   0  0  0  0  0  2  0  0  0  0  0  0
  185.2550  178.4850  143.2470 C   0  0  0  0  0  3  0  0  0  0  0  0
  189.3790  177.4630  142.7780 C   0  0  0  0  0  0  0  0  0  0  0  0
  188.9970  177.5250  145.5890 C   0  0  0  0  0  0  0  0  0  0  0  0
  188.8700  178.0280  139.0760 C   0  0  0  0  0  0  0  0  0  0  0  0
  189.5880  177.4270  141.3190 C   0  0  0  0  0  0  0  0  0  0  0  0
  188.6780  178.0580  140.4600 C   0  0  0  0  0  3  0  0  0  0  0  0
  187.9410  178.6710  138.2140 N   0  0  0  0  0  1  0  0  0  0  0  0
  190.6980  176.7640  140.7710 C   0  0  0  0  0  3  0  0  0  0  0  0
  189.9780  177.3650  138.5390 C   0  0  0  0  0  3  0  0  0  0  0  0
  190.8920  176.7340  139.3870 C   0  0  0  0  0  3  0  0  0  0  0  0
  1 13  1  0  0  0  0
  2  1  2  0  0  0  0
  2 18  1  0  0  0  0
  4  1  1  0  0  0  0
  4  7  1  0  0  0  0
  5  8  2  0  0  0  0
  6  3  1  0  0  0  0
  7 14  2  0  0  0  0
  8  7  1  0  0  0  0
  9 18  1  0  0  0  0
  9 10  1  0  0  0  0
 11  2  1  0  0  0  0
 12 16  2  0  0  0  0
 12  5  1  0  0  0  0
 13 14  1  0  0  0  0
 13  3  2  0  0  0  0
 15  9  1  0  0  0  0
 16  4  1  0  0  0  0
 17 11  2  0  0  0  0
 17 15  1  0  0  0  0
 18  6  2  0  0  0  0
 19 21  1  0  0  0  0
 20 17  1  0  0  0  0
 21 20  2  0  0  0  0
 22 19  1  0  0  0  0
 23 20  1  0  0  0  0
 24 19  2  0  0  0  0
 24 25  1  0  0  0  0
 25 23  2  0  0  0  0
M  END
>  <MODEL>
2

>  <REMARK>
 VINA RESULT:     -10.7      1.369      1.677
  Name = 
  1 active torsions:
  status: ('A' for Active; 'I' for Inactive)
    1  A    between atoms: C_6  and  C_23
                            x       y       z     vdW  Elec       q    Type
                         _______ _______ _______ _____ _____    ______ ____

>  <TORSDO>
F 1

$$$$
=
 OpenBabel10272400503D

 25 29  0  0  0  0  0  0  0  0999 V2000
  189.8460  177.3900  143.5340 C   0  0  0  0  0  0  0  0  0  0  0  0
  188.7980  177.5550  144.4400 C   0  0  0  0  0  0  0  0  0  0  0  0
  191.4360  176.9130  145.2880 C   0  0  0  0  0  3  0  0  0  0  0  0
  189.8530  177.4860  142.1980 N   0  0  0  0  0  0  0  0  0  0  0  0
  190.5130  177.5330  139.5490 C   0  0  0  0  0  3  0  0  0  0  0  0
  190.4020  177.0730  146.2290 C   0  0  0  0  0  3  0  0  0  0  0  0
  191.1310  177.2310  141.8380 C   0  0  0  0  0  0  0  0  0  0  0  0
  191.5070  177.2450  140.4970 C   0  0  0  0  0  3  0  0  0  0  0  0
  188.0130  177.5600  146.7490 N   0  0  0  0  0  0  0  0  0  0  0  0
  188.2160  177.4120  148.1810 C   0  0  0  0  0  1  0  0  0  0  0  0
  187.4680  177.8780  144.0150 N   0  0  0  0  0  0  0  0  0  0  0  0
  189.1890  177.7950  139.9520 C   0  0  0  0  0  3  0  0  0  0  0  0
  191.1200  177.0810  143.9430 C   0  0  0  0  0  0  0  0  0  0  0  0
  191.9570  176.9740  142.8850 N   0  0  0  0  0  0  0  0  0  0  0  0
  186.7310  177.8770  146.2690 N   0  0  0  0  0  2  0  0  0  0  0  0
  188.8630  177.7670  141.3150 C   0  0  0  0  0  3  0  0  0  0  0  0
  186.4900  178.0320  144.8610 C   0  0  0  0  0  0  0  0  0  0  0  0
  189.0860  177.3920  145.8110 C   0  0  0  0  0  0  0  0  0  0  0  0
  183.5670  178.6350  142.5420 C   0  0  0  0  0  0  0  0  0  0  0  0
  185.1370  178.3640  144.3770 C   0  0  0  0  0  0  0  0  0  0  0  0
  184.8470  178.3210  143.0060 C   0  0  0  0  0  3  0  0  0  0  0  0
  183.2840  178.5880  141.1500 N   0  0  0  0  0  1  0  0  0  0  0  0
  184.1240  178.7270  145.2790 C   0  0  0  0  0  3  0  0  0  0  0  0
  182.5640  178.9960  143.4470 C   0  0  0  0  0  3  0  0  0  0  0  0
  182.8430  179.0420  144.8160 C   0  0  0  0  0  3  0  0  0  0  0  0
  1 13  2  0  0  0  0
  1  2  1  0  0  0  0
  2 18  2  0  0  0  0
  3  6  2  0  0  0  0
  4  1  1  0  0  0  0
  5 12  1  0  0  0  0
  5  8  2  0  0  0  0
  7  4  1  0  0  0  0
  7 14  2  0  0  0  0
  8  7  1  0  0  0  0
  9 10  1  0  0  0  0
 11  2  1  0  0  0  0
 11 17  2  0  0  0  0
 12 16  2  0  0  0  0
 13  3  1  0  0  0  0
 14 13  1  0  0  0  0
 15  9  1  0  0  0  0
 16  4  1  0  0  0  0
 17 15  1  0  0  0  0
 18  6  1  0  0  0  0
 18  9  1  0  0  0  0
 19 21  2  0  0  0  0
 19 24  1  0  0  0  0
 20 17  1  0  0  0  0
 20 23  2  0  0  0  0
 21 20  1  0  0  0  0
 22 19  1  0  0  0  0
 24 25  2  0  0  0  0
 25 23  1  0  0  0  0
M  END
>  <MODEL>
3

>  <REMARK>
 VINA RESULT:     -10.6      1.486      6.180
  Name = 
  1 active torsions:
  status: ('A' for Active; 'I' for Inactive)
    1  A    between atoms: C_6  and  C_23
                            x       y       z     vdW  Elec       q    Type
                         _______ _______ _______ _____ _____    ______ ____

>  <TORSDO>
F 1

$$$$
=
 OpenBabel10272400503D

 25 29  0  0  0  0  0  0  0  0999 V2000
  189.7960  177.3920  143.2360 C   0  0  0  0  0  0  0  0  0  0  0  0
  188.7060  177.7540  142.4430 C   0  0  0  0  0  0  0  0  0  0  0  0
  191.2840  177.2840  141.3370 C   0  0  0  0  0  3  0  0  0  0  0  0
  189.8730  177.2010  144.5590 N   0  0  0  0  0  0  0  0  0  0  0  0
  190.6680  176.6790  147.1190 C   0  0  0  0  0  3  0  0  0  0  0  0
  190.2060  177.6490  140.5080 C   0  0  0  0  0  3  0  0  0  0  0  0
  191.1620  176.8650  144.7870 C   0  0  0  0  0  0  0  0  0  0  0  0
  191.6070  176.5910  146.0780 C   0  0  0  0  0  3  0  0  0  0  0  0
  187.8040  178.2560  140.2340 N   0  0  0  0  0  0  0  0  0  0  0  0
  187.9310  178.4130  138.7940 C   0  0  0  0  0  1  0  0  0  0  0  0
  187.4070  177.9920  142.9990 N   0  0  0  0  0  0  0  0  0  0  0  0
  189.3310  177.0320  146.8530 C   0  0  0  0  0  3  0  0  0  0  0  0
  191.0400  177.1640  142.7030 C   0  0  0  0  0  0  0  0  0  0  0  0
  191.9280  176.8280  143.6670 N   0  0  0  0  0  0  0  0  0  0  0  0
  186.5550  178.4750  140.8390 N   0  0  0  0  0  2  0  0  0  0  0  0
  188.9350  177.2980  145.5350 C   0  0  0  0  0  3  0  0  0  0  0  0
  186.3890  178.3310  142.2590 C   0  0  0  0  0  0  0  0  0  0  0  0
  188.9200  177.8840  141.0550 C   0  0  0  0  0  0  0  0  0  0  0  0
  182.6590  178.7880  142.6620 C   0  0  0  0  0  0  0  0  0  0  0  0
  185.0700  178.5650  142.8750 C   0  0  0  0  0  0  0  0  0  0  0  0
  183.9120  178.5670  142.0840 C   0  0  0  0  0  3  0  0  0  0  0  0
  181.4920  178.7880  141.8500 N   0  0  0  0  0  1  0  0  0  0  0  0
  184.9550  178.7870  144.2570 C   0  0  0  0  0  3  0  0  0  0  0  0
  182.5540  179.0090  144.0380 C   0  0  0  0  0  3  0  0  0  0  0  0
  183.7020  179.0080  144.8350 C   0  0  0  0  0  3  0  0  0  0  0  0
  1  4  1  0  0  0  0
  2 11  1  0  0  0  0
  2  1  2  0  0  0  0
  3 13  2  0  0  0  0
  4  7  1  0  0  0  0
  4 16  1  0  0  0  0
  6 18  2  0  0  0  0
  6  3  1  0  0  0  0
  7  8  1  0  0  0  0
  8  5  2  0  0  0  0
  9 15  1  0  0  0  0
  9 18  1  0  0  0  0
 10  9  1  0  0  0  0
 12  5  1  0  0  0  0
 13  1  1  0  0  0  0
 13 14  1  0  0  0  0
 14  7  2  0  0  0  0
 15 17  1  0  0  0  0
 16 12  2  0  0  0  0
 17 20  1  0  0  0  0
 17 11  2  0  0  0  0
 18  2  1  0  0  0  0
 19 24  1  0  0  0  0
 20 23  2  0  0  0  0
 21 19  2  0  0  0  0
 21 20  1  0  0  0  0
 22 19  1  0  0  0  0
 23 25  1  0  0  0  0
 24 25  2  0  0  0  0
M  END
>  <MODEL>
4

>  <REMARK>
 VINA RESULT:     -10.1      1.861      6.961
  Name = 
  1 active torsions:
  status: ('A' for Active; 'I' for Inactive)
    1  A    between atoms: C_6  and  C_23
                            x       y       z     vdW  Elec       q    Type
                         _______ _______ _______ _____ _____    ______ ____

>  <TORSDO>
F 1

$$$$
=
 OpenBabel10272400503D

 25 29  0  0  0  0  0  0  0  0999 V2000
  185.5360  178.3450  144.6590 C   0  0  0  0  0  0  0  0  0  0  0  0
  186.8690  178.0410  144.3810 C   0  0  0  0  0  0  0  0  0  0  0  0
  185.9140  178.3290  147.0450 C   0  0  0  0  0  3  0  0  0  0  0  0
  184.5070  178.5500  143.8260 N   0  0  0  0  0  0  0  0  0  0  0  0
  182.0740  179.0590  142.6970 C   0  0  0  0  0  3  0  0  0  0  0  0
  187.2660  178.0210  146.7990 C   0  0  0  0  0  3  0  0  0  0  0  0
  183.4540  178.8080  144.6330 C   0  0  0  0  0  0  0  0  0  0  0  0
  182.1960  179.0720  144.0960 C   0  0  0  0  0  3  0  0  0  0  0  0
  189.1180  177.5640  145.1940 N   0  0  0  0  0  0  0  0  0  0  0  0
  190.0920  177.3770  146.2570 C   0  0  0  0  0  1  0  0  0  0  0  0
  187.3520  177.8960  143.0390 N   0  0  0  0  0  0  0  0  0  0  0  0
  183.1890  178.7880  141.8800 C   0  0  0  0  0  3  0  0  0  0  0  0
  185.0750  178.4840  145.9440 C   0  0  0  0  0  0  0  0  0  0  0  0
  183.7540  178.7780  145.9570 N   0  0  0  0  0  0  0  0  0  0  0  0
  189.5300  177.4340  143.8580 N   0  0  0  0  0  2  0  0  0  0  0  0
  184.4330  178.5290  142.4720 C   0  0  0  0  0  3  0  0  0  0  0  0
  188.5970  177.6120  142.7790 C   0  0  0  0  0  0  0  0  0  0  0  0
  187.7460  177.8770  145.4730 C   0  0  0  0  0  0  0  0  0  0  0  0
  188.7370  177.9240  139.0150 C   0  0  0  0  0  0  0  0  0  0  0  0
  189.0490  177.4720  141.3830 C   0  0  0  0  0  0  0  0  0  0  0  0
  188.3130  178.0540  140.3410 C   0  0  0  0  0  3  0  0  0  0  0  0
  187.9840  178.5180  137.9660 N   0  0  0  0  0  1  0  0  0  0  0  0
  190.2190  176.7570  141.0780 C   0  0  0  0  0  3  0  0  0  0  0  0
  189.9030  177.2110  138.7210 C   0  0  0  0  0  3  0  0  0  0  0  0
  190.6440  176.6270  139.7530 C   0  0  0  0  0  3  0  0  0  0  0  0
  1 13  1  0  0  0  0
  2  1  2  0  0  0  0
  2 18  1  0  0  0  0
  4  7  1  0  0  0  0
  4  1  1  0  0  0  0
  5  8  2  0  0  0  0
  6  3  1  0  0  0  0
  7 14  2  0  0  0  0
  8  7  1  0  0  0  0
  9 18  1  0  0  0  0
  9 10  1  0  0  0  0
 11  2  1  0  0  0  0
 12 16  2  0  0  0  0
 12  5  1  0  0  0  0
 13 14  1  0  0  0  0
 13  3  2  0  0  0  0
 15  9  1  0  0  0  0
 16  4  1  0  0  0  0
 17 11  2  0  0  0  0
 17 15  1  0  0  0  0
 18  6  2  0  0  0  0
 19 21  1  0  0  0  0
 20 17  1  0  0  0  0
 21 20  2  0  0  0  0
 22 19  1  0  0  0  0
 23 20  1  0  0  0  0
 24 19  2  0  0  0  0
 24 25  1  0  0  0  0
 25 23  2  0  0  0  0
M  END
>  <MODEL>
5

>  <REMARK>
 VINA RESULT:     -10.0      1.660      2.169
  Name = 
  1 active torsions:
  status: ('A' for Active; 'I' for Inactive)
    1  A    between atoms: C_6  and  C_23
                            x       y       z     vdW  Elec       q    Type
                         _______ _______ _______ _____ _____    ______ ____

>  <TORSDO>
F 1

$$$$
=
 OpenBabel10272400503D

 25 29  0  0  0  0  0  0  0  0999 V2000
  189.8930  177.3880  143.4330 C   0  0  0  0  0  0  0  0  0  0  0  0
  188.9150  177.7350  142.5000 C   0  0  0  0  0  0  0  0  0  0  0  0
  191.6170  177.2660  141.7460 C   0  0  0  0  0  3  0  0  0  0  0  0
  189.7970  177.2140  144.7570 N   0  0  0  0  0  0  0  0  0  0  0  0
  190.2530  176.7270  147.4050 C   0  0  0  0  0  3  0  0  0  0  0  0
  190.6550  177.6140  140.7790 C   0  0  0  0  0  3  0  0  0  0  0  0
  191.0470  176.8870  145.1560 C   0  0  0  0  0  0  0  0  0  0  0  0
  191.3210  176.6320  146.4970 C   0  0  0  0  0  3  0  0  0  0  0  0
  188.3070  178.2050  140.1860 N   0  0  0  0  0  0  0  0  0  0  0  0
  188.6200  178.3450  138.7730 C   0  0  0  0  0  1  0  0  0  0  0  0
  187.5530  177.9720  142.8790 N   0  0  0  0  0  0  0  0  0  0  0  0
  188.9610  177.0700  146.9620 C   0  0  0  0  0  3  0  0  0  0  0  0
  191.1970  177.1610  143.0690 C   0  0  0  0  0  0  0  0  0  0  0  0
  191.9530  176.8410  144.1450 N   0  0  0  0  0  0  0  0  0  0  0  0
  186.9890  178.4240  140.6200 N   0  0  0  0  0  2  0  0  0  0  0  0
  188.7400  177.3180  145.6010 C   0  0  0  0  0  3  0  0  0  0  0  0
  186.6390  178.2960  142.0080 C   0  0  0  0  0  0  0  0  0  0  0  0
  189.3080  177.8490  141.1500 C   0  0  0  0  0  0  0  0  0  0  0  0
  183.6460  178.9570  144.2180 C   0  0  0  0  0  0  0  0  0  0  0  0
  185.2500  178.5300  142.4430 C   0  0  0  0  0  0  0  0  0  0  0  0
  184.9610  178.7350  143.8000 C   0  0  0  0  0  3  0  0  0  0  0  0
  183.3630  179.1650  145.5960 N   0  0  0  0  0  1  0  0  0  0  0  0
  184.2020  178.5510  141.5090 C   0  0  0  0  0  3  0  0  0  0  0  0
  182.6080  178.9760  143.2810 C   0  0  0  0  0  3  0  0  0  0  0  0
  182.8870  178.7730  141.9270 C   0  0  0  0  0  3  0  0  0  0  0  0
  1  4  1  0  0  0  0
  2 11  1  0  0  0  0
  2  1  2  0  0  0  0
  3 13  2  0  0  0  0
  4  7  1  0  0  0  0
  4 16  1  0  0  0  0
  6 18  2  0  0  0  0
  6  3  1  0  0  0  0
  7  8  1  0  0  0  0
  8  5  2  0  0  0  0
  9 15  1  0  0  0  0
  9 18  1  0  0  0  0
 10  9  1  0  0  0  0
 12  5  1  0  0  0  0
 13  1  1  0  0  0  0
 13 14  1  0  0  0  0
 14  7  2  0  0  0  0
 15 17  1  0  0  0  0
 16 12  2  0  0  0  0
 17 20  1  0  0  0  0
 17 11  2  0  0  0  0
 18  2  1  0  0  0  0
 19 22  1  0  0  0  0
 20 21  2  0  0  0  0
 21 19  1  0  0  0  0
 23 25  2  0  0  0  0
 23 20  1  0  0  0  0
 24 19  2  0  0  0  0
 25 24  1  0  0  0  0
M  END
>  <MODEL>
6

>  <REMARK>
 VINA RESULT:     -10.0      1.663      6.701
  Name = 
  1 active torsions:
  status: ('A' for Active; 'I' for Inactive)
    1  A    between atoms: C_6  and  C_23
                            x       y       z     vdW  Elec       q    Type
                         _______ _______ _______ _____ _____    ______ ____

>  <TORSDO>
F 1

$$$$
=
 OpenBabel10272400503D

 25 29  0  0  0  0  0  0  0  0999 V2000
  188.0910  177.5720  145.4450 C   0  0  0  0  0  0  0  0  0  0  0  0
  187.4620  177.8600  144.2330 C   0  0  0  0  0  0  0  0  0  0  0  0
  186.0970  178.0500  146.7220 C   0  0  0  0  0  3  0  0  0  0  0  0
  189.3480  177.1820  145.6910 N   0  0  0  0  0  0  0  0  0  0  0  0
  191.7030  176.3930  146.8260 C   0  0  0  0  0  3  0  0  0  0  0  0
  185.4330  178.3480  145.5170 C   0  0  0  0  0  3  0  0  0  0  0  0
  189.4130  177.0480  147.0350 C   0  0  0  0  0  0  0  0  0  0  0  0
  190.5960  176.6480  147.6520 C   0  0  0  0  0  3  0  0  0  0  0  0
  185.4550  178.5520  143.0330 N   0  0  0  0  0  0  0  0  0  0  0  0
  184.0620  178.9670  142.9800 C   0  0  0  0  0  1  0  0  0  0  0  0
  188.1480  177.7650  142.9780 N   0  0  0  0  0  0  0  0  0  0  0  0
  191.6070  176.5400  145.4290 C   0  0  0  0  0  3  0  0  0  0  0  0
  187.4330  177.6640  146.6460 C   0  0  0  0  0  0  0  0  0  0  0  0
  188.2510  177.3360  147.6740 N   0  0  0  0  0  0  0  0  0  0  0  0
  186.1820  178.4410  141.8360 N   0  0  0  0  0  2  0  0  0  0  0  0
  190.3930  176.9450  144.8580 C   0  0  0  0  0  3  0  0  0  0  0  0
  187.5600  178.0340  141.8470 C   0  0  0  0  0  0  0  0  0  0  0  0
  186.1080  178.2550  144.2750 C   0  0  0  0  0  0  0  0  0  0  0  0
  188.4530  178.3110  138.1850 C   0  0  0  0  0  0  0  0  0  0  0  0
  188.3060  177.9220  140.5800 C   0  0  0  0  0  0  0  0  0  0  0  0
  187.7510  178.4130  139.3890 C   0  0  0  0  0  3  0  0  0  0  0  0
  187.8810  178.8110  136.9840 N   0  0  0  0  0  1  0  0  0  0  0  0
  189.5770  177.3270  140.5470 C   0  0  0  0  0  3  0  0  0  0  0  0
  189.7180  177.7160  138.1620 C   0  0  0  0  0  3  0  0  0  0  0  0
  190.2790  177.2240  139.3430 C   0  0  0  0  0  3  0  0  0  0  0  0
  1  4  1  0  0  0  0
  1 13  1  0  0  0  0
  2 18  1  0  0  0  0
  2  1  2  0  0  0  0
  4  7  1  0  0  0  0
  5  8  2  0  0  0  0
  6  3  1  0  0  0  0
  7  8  1  0  0  0  0
  7 14  2  0  0  0  0
  9 18  1  0  0  0  0
 10  9  1  0  0  0  0
 11  2  1  0  0  0  0
 12  5  1  0  0  0  0
 13  3  2  0  0  0  0
 13 14  1  0  0  0  0
 15 17  1  0  0  0  0
 15  9  1  0  0  0  0
 16 12  2  0  0  0  0
 16  4  1  0  0  0  0
 17 11  2  0  0  0  0
 18  6  2  0  0  0  0
 19 21  1  0  0  0  0
 20 17  1  0  0  0  0
 21 20  2  0  0  0  0
 22 19  1  0  0  0  0
 23 20  1  0  0  0  0
 24 19  2  0  0  0  0
 24 25  1  0  0  0  0
 25 23  2  0  0  0  0
M  END
>  <MODEL>
7

>  <REMARK>
 VINA RESULT:      -9.9      1.961      4.744
  Name = 
  1 active torsions:
  status: ('A' for Active; 'I' for Inactive)
    1  A    between atoms: C_6  and  C_23
                            x       y       z     vdW  Elec       q    Type
                         _______ _______ _______ _____ _____    ______ ____

>  <TORSDO>
F 1

$$$$
=
 OpenBabel10272400503D

 25 29  0  0  0  0  0  0  0  0999 V2000
  188.0900  177.5670  145.2570 C   0  0  0  0  0  0  0  0  0  0  0  0
  187.4610  177.8480  144.0430 C   0  0  0  0  0  0  0  0  0  0  0  0
  186.0940  178.0480  146.5300 C   0  0  0  0  0  3  0  0  0  0  0  0
  189.3470  177.1790  145.5060 N   0  0  0  0  0  0  0  0  0  0  0  0
  191.7020  176.3990  146.6480 C   0  0  0  0  0  3  0  0  0  0  0  0
  185.4300  178.3390  145.3230 C   0  0  0  0  0  3  0  0  0  0  0  0
  189.4110  177.0520  146.8510 C   0  0  0  0  0  0  0  0  0  0  0  0
  190.5940  176.6560  147.4710 C   0  0  0  0  0  3  0  0  0  0  0  0
  185.4550  178.5320  142.8380 N   0  0  0  0  0  0  0  0  0  0  0  0
  184.0620  178.9440  142.7820 C   0  0  0  0  0  1  0  0  0  0  0  0
  188.1480  177.7470  142.7890 N   0  0  0  0  0  0  0  0  0  0  0  0
  191.6070  176.5380  145.2500 C   0  0  0  0  0  3  0  0  0  0  0  0
  187.4310  177.6640  146.4570 C   0  0  0  0  0  0  0  0  0  0  0  0
  188.2470  177.3420  147.4870 N   0  0  0  0  0  0  0  0  0  0  0  0
  186.1830  178.4150  141.6420 N   0  0  0  0  0  2  0  0  0  0  0  0
  190.3930  176.9390  144.6760 C   0  0  0  0  0  3  0  0  0  0  0  0
  187.5620  178.0090  141.6560 C   0  0  0  0  0  0  0  0  0  0  0  0
  186.1070  178.2410  144.0820 C   0  0  0  0  0  0  0  0  0  0  0  0
  190.3560  177.3500  139.1980 C   0  0  0  0  0  0  0  0  0  0  0  0
  188.3080  177.8930  140.3900 C   0  0  0  0  0  0  0  0  0  0  0  0
  189.6430  177.4630  140.3950 C   0  0  0  0  0  3  0  0  0  0  0  0
  191.7080  176.9130  139.2150 N   0  0  0  0  0  1  0  0  0  0  0  0
  187.6960  178.2090  139.1670 C   0  0  0  0  0  3  0  0  0  0  0  0
  189.7380  177.6670  137.9850 C   0  0  0  0  0  3  0  0  0  0  0  0
  188.4080  178.0960  137.9700 C   0  0  0  0  0  3  0  0  0  0  0  0
  1  4  1  0  0  0  0
  1 13  1  0  0  0  0
  2 18  1  0  0  0  0
  2  1  2  0  0  0  0
  4  7  1  0  0  0  0
  5  8  2  0  0  0  0
  6  3  1  0  0  0  0
  7  8  1  0  0  0  0
  7 14  2  0  0  0  0
  9 18  1  0  0  0  0
 10  9  1  0  0  0  0
 11  2  1  0  0  0  0
 12  5  1  0  0  0  0
 13  3  2  0  0  0  0
 13 14  1  0  0  0  0
 15 17  1  0  0  0  0
 15  9  1  0  0  0  0
 16 12  2  0  0  0  0
 16  4  1  0  0  0  0
 17 11  2  0  0  0  0
 18  6  2  0  0  0  0
 19 22  1  0  0  0  0
 19 21  1  0  0  0  0
 20 21  2  0  0  0  0
 20 17  1  0  0  0  0
 23 20  1  0  0  0  0
 24 19  2  0  0  0  0
 25 24  1  0  0  0  0
 25 23  2  0  0  0  0
M  END
>  <MODEL>
8

>  <REMARK>
 VINA RESULT:      -9.9      1.561      4.519
  Name = 
  1 active torsions:
  status: ('A' for Active; 'I' for Inactive)
    1  A    between atoms: C_6  and  C_23
                            x       y       z     vdW  Elec       q    Type
                         _______ _______ _______ _____ _____    ______ ____

>  <TORSDO>
F 1

$$$$
=
 OpenBabel10272400503D

 25 29  0  0  0  0  0  0  0  0999 V2000
  186.0770  178.3260  144.9530 C   0  0  0  0  0  0  0  0  0  0  0  0
  185.9880  178.3900  143.5620 C   0  0  0  0  0  0  0  0  0  0  0  0
  183.7300  178.8180  145.2390 C   0  0  0  0  0  3  0  0  0  0  0  0
  187.1330  178.0740  145.7380 N   0  0  0  0  0  0  0  0  0  0  0  0
  188.8390  177.6420  147.8250 C   0  0  0  0  0  3  0  0  0  0  0  0
  183.6050  178.8910  143.8390 C   0  0  0  0  0  3  0  0  0  0  0  0
  186.6510  178.1360  146.9990 C   0  0  0  0  0  0  0  0  0  0  0  0
  187.4890  177.9210  148.0910 C   0  0  0  0  0  3  0  0  0  0  0  0
  184.6280  178.7460  141.5700 N   0  0  0  0  0  0  0  0  0  0  0  0
  183.3690  179.0370  140.9020 C   0  0  0  0  0  1  0  0  0  0  0  0
  187.1240  178.1740  142.7160 N   0  0  0  0  0  0  0  0  0  0  0  0
  189.3150  177.5830  146.5010 C   0  0  0  0  0  3  0  0  0  0  0  0
  184.9880  178.5320  145.7630 C   0  0  0  0  0  0  0  0  0  0  0  0
  185.3250  178.4180  147.0690 N   0  0  0  0  0  0  0  0  0  0  0  0
  185.7780  178.5250  140.7950 N   0  0  0  0  0  2  0  0  0  0  0  0
  188.4290  177.8070  145.4380 C   0  0  0  0  0  3  0  0  0  0  0  0
  187.0410  178.2340  141.4170 C   0  0  0  0  0  0  0  0  0  0  0  0
  184.7270  178.6780  143.0000 C   0  0  0  0  0  0  0  0  0  0  0  0
  189.3670  178.1580  138.4400 C   0  0  0  0  0  0  0  0  0  0  0  0
  188.2370  178.0060  140.5860 C   0  0  0  0  0  0  0  0  0  0  0  0
  188.2360  178.3720  139.2330 C   0  0  0  0  0  3  0  0  0  0  0  0
  189.3560  178.5330  137.0690 N   0  0  0  0  0  1  0  0  0  0  0  0
  189.3890  177.4210  141.1360 C   0  0  0  0  0  3  0  0  0  0  0  0
  190.5100  177.5750  138.9950 C   0  0  0  0  0  3  0  0  0  0  0  0
  190.5200  177.2060  140.3440 C   0  0  0  0  0  3  0  0  0  0  0  0
  1  4  1  0  0  0  0
  1 13  1  0  0  0  0
  2  1  2  0  0  0  0
  3 13  2  0  0  0  0
  4  7  1  0  0  0  0
  5  8  2  0  0  0  0
  6  3  1  0  0  0  0
  7 14  2  0  0  0  0
  7  8  1  0  0  0  0
  9 18  1  0  0  0  0
 10  9  1  0  0  0  0
 11  2  1  0  0  0  0
 12  5  1  0  0  0  0
 13 14  1  0  0  0  0
 15 17  1  0  0  0  0
 15  9  1  0  0  0  0
 16  4  1  0  0  0  0
 16 12  2  0  0  0  0
 17 11  2  0  0  0  0
 18  2  1  0  0  0  0
 18  6  2  0  0  0  0
 19 24  2  0  0  0  0
 19 21  1  0  0  0  0
 20 23  1  0  0  0  0
 20 17  1  0  0  0  0
 21 20  2  0  0  0  0
 22 19  1  0  0  0  0
 24 25  1  0  0  0  0
 25 23  2  0  0  0  0
M  END
>  <MODEL>
9

>  <REMARK>
 VINA RESULT:      -9.8      1.830      4.576
  Name = 
  1 active torsions:
  status: ('A' for Active; 'I' for Inactive)
    1  A    between atoms: C_6  and  C_23
                            x       y       z     vdW  Elec       q    Type
                         _______ _______ _______ _____ _____    ______ ____

>  <TORSDO>
F 1

$$$$
