=
 OpenBabel10272401113D

 27 31  0  0  1  0  0  0  0  0999 V2000
  188.0120  177.9150  141.7690 N   0  0  0  0  0  0  0  0  0  0  0  0
  187.1630  178.9920  141.2560 C   0  0  2  0  0  3  0  0  0  0  0  0
  188.0550  177.8550  139.3480 N   0  0  1  0  0  0  0  0  0  0  0  0
  183.4160  177.7160  139.7180 N   0  0  0  0  0  0  0  0  0  0  0  0
  183.0590  176.6530  137.5490 C   0  0  0  0  0  1  0  0  0  0  0  0
  185.9030  179.3880  142.0820 C   0  0  0  0  0  2  0  0  0  0  0  0
  185.2820  177.6450  138.3540 N   0  0  0  0  0  0  0  0  0  0  0  0
  190.9610  177.2770  139.7230 C   0  0  1  0  0  3  0  0  0  0  0  0
  188.6820  179.2750  137.4360 C   0  0  0  0  0  1  0  0  0  0  0  0
  191.8580  176.2500  139.4250 O   0  0  0  0  0  1  0  0  0  0  0  0
  185.6510  178.2120  139.4500 C   0  0  0  0  0  0  0  0  0  0  0  0
  183.8940  177.3430  138.5670 C   0  0  0  0  0  0  0  0  0  0  0  0
  184.5390  178.3130  140.3390 C   0  0  0  0  0  0  0  0  0  0  0  0
  188.4670  177.1650  140.5950 C   0  0  1  0  0  3  0  0  0  0  0  0
  187.0000  178.7810  139.7540 C   0  0  1  0  0  3  0  0  0  0  0  0
  190.3220  177.7590  138.4370 C   0  0  0  0  0  2  0  0  0  0  0  0
  184.6040  178.8160  141.5650 C   0  0  0  0  0  3  0  0  0  0  0  0
  190.2940  176.1170  141.6580 O   0  0  0  0  0  0  0  0  0  0  0  0
  189.9330  176.7970  140.7100 C   0  0  0  0  0  0  0  0  0  0  0  0
  189.1380  178.6530  138.7490 C   0  0  2  0  0  3  0  0  0  0  0  0
  187.4210  177.0250  142.7920 C   0  0  0  0  0  2  0  0  0  0  0  0
  188.4780  177.7260  146.9150 C   0  0  0  0  0  3  0  0  0  0  0  0
  187.7640  177.3260  144.2300 C   0  0  0  0  0  0  0  0  0  0  0  0
  189.1090  177.3030  144.6150 C   0  0  0  0  0  3  0  0  0  0  0  0
  189.4680  177.5150  145.9500 C   0  0  0  0  0  3  0  0  0  0  0  0
  187.1310  177.7120  146.5450 C   0  0  0  0  0  3  0  0  0  0  0  0
  186.7750  177.4990  145.2100 C   0  0  0  0  0  3  0  0  0  0  0  0
  1 21  1  0  0  0  0
  2  1  1  0  0  0  0
  2  6  1  1  0  0  0
  3 15  1  0  0  0  0
  3 14  1  0  0  0  0
  4 13  1  0  0  0  0
  5 12  1  0  0  0  0
  7 12  1  0  0  0  0
  7 11  2  0  0  0  0
  8 19  1  0  0  0  0
  9 20  1  0  0  0  0
 10  8  1  0  0  0  0
 11 15  1  0  0  0  0
 11 13  1  0  0  0  0
 12  4  2  0  0  0  0
 13 17  2  0  0  0  0
 14 19  1  0  0  0  0
 14  1  1  0  0  0  0
 15  2  1  0  0  0  0
 16 20  1  0  0  0  0
 16  8  1  0  0  0  0
 17  6  1  0  0  0  0
 19 18  2  0  0  0  0
 20  3  1  0  0  0  0
 21 23  1  0  0  0  0
 23 24  2  0  0  0  0
 23 27  1  0  0  0  0
 24 25  1  0  0  0  0
 25 22  2  0  0  0  0
 26 22  1  0  0  0  0
 27 26  2  0  0  0  0
M  END
>  <MODEL>
1

>  <REMARK>
 VINA RESULT:      -7.2      0.000      0.000
  Name = 
  2 active torsions:
  status: ('A' for Active; 'I' for Inactive)
    1  A    between atoms: N_1  and  C_15
    2  A    between atoms: C_9  and  C_15
                            x       y       z     vdW  Elec       q    Type
                         _______ _______ _______ _____ _____    ______ ____

>  <TORSDO>
F 2

$$$$
=
 OpenBabel10272401113D

 27 31  0  0  1  0  0  0  0  0999 V2000
  188.2800  177.7740  142.1140 N   0  0  0  0  0  0  0  0  0  0  0  0
  188.6050  178.4090  140.8350 C   0  0  2  0  0  3  0  0  0  0  0  0
  190.3930  176.8930  141.3210 N   0  0  1  0  0  0  0  0  0  0  0  0
  188.0220  175.9420  137.4290 N   0  0  0  0  0  0  0  0  0  0  0  0
  189.5100  174.1460  136.7030 C   0  0  0  0  0  1  0  0  0  0  0  0
  187.4300  178.7980  139.8900 C   0  0  0  0  0  2  0  0  0  0  0  0
  190.0040  175.7880  138.6100 N   0  0  0  0  0  0  0  0  0  0  0  0
  191.1970  177.0880  144.1910 C   0  0  1  0  0  3  0  0  0  0  0  0
  192.6570  177.6630  140.7330 C   0  0  0  0  0  1  0  0  0  0  0  0
  191.6100  176.2290  145.2100 O   0  0  0  0  0  1  0  0  0  0  0  0
  189.3410  176.7620  139.1320 C   0  0  0  0  0  0  0  0  0  0  0  0
  189.1460  175.3010  137.5660 C   0  0  0  0  0  0  0  0  0  0  0  0
  188.1070  176.9320  138.4360 C   0  0  0  0  0  0  0  0  0  0  0  0
  189.3270  176.7750  142.3470 C   0  0  1  0  0  3  0  0  0  0  0  0
  189.7930  177.6640  140.2340 C   0  0  1  0  0  3  0  0  0  0  0  0
  192.1490  176.9560  143.0200 C   0  0  0  0  0  2  0  0  0  0  0  0
  187.1830  177.8290  138.7580 C   0  0  0  0  0  3  0  0  0  0  0  0
  188.9550  176.5560  144.6660 O   0  0  0  0  0  0  0  0  0  0  0  0
  189.7800  176.7780  143.7930 C   0  0  0  0  0  0  0  0  0  0  0  0
  191.5690  177.6390  141.7980 C   0  0  2  0  0  3  0  0  0  0  0  0
  186.9270  177.1900  142.2460 C   0  0  0  0  0  2  0  0  0  0  0  0
  184.1170  179.1770  144.8460 C   0  0  0  0  0  3  0  0  0  0  0  0
  185.9510  177.9360  143.1220 C   0  0  0  0  0  0  0  0  0  0  0  0
  186.2250  178.0380  144.4910 C   0  0  0  0  0  3  0  0  0  0  0  0
  185.3180  178.6680  145.3500 C   0  0  0  0  0  3  0  0  0  0  0  0
  183.8190  179.0440  143.4870 C   0  0  0  0  0  3  0  0  0  0  0  0
  184.7270  178.4140  142.6320 C   0  0  0  0  0  3  0  0  0  0  0  0
  1 21  1  0  0  0  0
  1 14  1  0  0  0  0
  2  6  1  6  0  0  0
  2  1  1  0  0  0  0
  3 20  1  0  0  0  0
  3 14  1  0  0  0  0
  4 12  2  0  0  0  0
  4 13  1  0  0  0  0
  5 12  1  0  0  0  0
  7 11  2  0  0  0  0
  8 10  1  0  0  0  0
  9 20  1  0  0  0  0
 11 15  1  0  0  0  0
 12  7  1  0  0  0  0
 13 17  2  0  0  0  0
 13 11  1  0  0  0  0
 14 19  1  0  0  0  0
 15  2  1  0  0  0  0
 15  3  1  0  0  0  0
 16  8  1  0  0  0  0
 17  6  1  0  0  0  0
 19  8  1  0  0  0  0
 19 18  2  0  0  0  0
 20 16  1  0  0  0  0
 21 23  1  0  0  0  0
 22 25  1  0  0  0  0
 23 24  1  0  0  0  0
 24 25  2  0  0  0  0
 26 22  2  0  0  0  0
 27 23  2  0  0  0  0
 27 26  1  0  0  0  0
M  END
>  <MODEL>
2

>  <REMARK>
 VINA RESULT:      -7.0      2.598      4.115
  Name = 
  2 active torsions:
  status: ('A' for Active; 'I' for Inactive)
    1  A    between atoms: N_1  and  C_15
    2  A    between atoms: C_9  and  C_15
                            x       y       z     vdW  Elec       q    Type
                         _______ _______ _______ _____ _____    ______ ____

>  <TORSDO>
F 2

$$$$
=
 OpenBabel10272401113D

 27 31  0  0  1  0  0  0  0  0999 V2000
  187.4290  178.0820  143.3010 N   0  0  0  0  0  0  0  0  0  0  0  0
  188.0940  178.8920  142.2790 C   0  0  2  0  0  3  0  0  0  0  0  0
  189.7860  177.5210  143.2740 N   0  0  1  0  0  0  0  0  0  0  0  0
  189.0970  176.7890  138.7280 N   0  0  0  0  0  0  0  0  0  0  0  0
  190.9770  175.2520  138.4700 C   0  0  0  0  0  1  0  0  0  0  0  0
  187.2860  179.2640  141.0000 C   0  0  0  0  0  2  0  0  0  0  0  0
  190.5350  176.7040  140.5370 N   0  0  0  0  0  0  0  0  0  0  0  0
  189.4890  177.4630  146.2450 C   0  0  1  0  0  3  0  0  0  0  0  0
  191.9820  178.5820  143.6090 C   0  0  0  0  0  1  0  0  0  0  0  0
  189.6290  176.5380  147.2810 O   0  0  0  0  0  1  0  0  0  0  0  0
  189.6030  177.5370  140.8480 C   0  0  0  0  0  0  0  0  0  0  0  0
  190.1770  176.2550  139.2200 C   0  0  0  0  0  0  0  0  0  0  0  0
  188.6840  177.6600  139.7640 C   0  0  0  0  0  0  0  0  0  0  0  0
  188.4530  177.1760  143.8290 C   0  0  1  0  0  3  0  0  0  0  0  0
  189.5080  178.3470  142.1010 C   0  0  1  0  0  3  0  0  0  0  0  0
  190.8020  177.5660  145.4970 C   0  0  0  0  0  2  0  0  0  0  0  0
  187.5920  178.4130  139.7900 C   0  0  0  0  0  3  0  0  0  0  0  0
  187.3200  176.6520  145.8310 O   0  0  0  0  0  0  0  0  0  0  0  0
  188.3610  177.0570  145.3370 C   0  0  0  0  0  0  0  0  0  0  0  0
  190.6030  178.3230  144.1990 C   0  0  2  0  0  3  0  0  0  0  0  0
  186.2110  177.3510  142.8900 C   0  0  0  0  0  2  0  0  0  0  0  0
  182.3990  179.1880  143.7230 C   0  0  0  0  0  3  0  0  0  0  0  0
  184.8920  178.0380  143.1410 C   0  0  0  0  0  0  0  0  0  0  0  0
  184.5820  178.4310  144.4480 C   0  0  0  0  0  3  0  0  0  0  0  0
  183.3450  179.0170  144.7380 C   0  0  0  0  0  3  0  0  0  0  0  0
  182.6860  178.7640  142.4230 C   0  0  0  0  0  3  0  0  0  0  0  0
  183.9220  178.1790  142.1370 C   0  0  0  0  0  3  0  0  0  0  0  0
  1 14  1  0  0  0  0
  2  6  1  6  0  0  0
  2  1  1  0  0  0  0
  3 14  1  0  0  0  0
  3 20  1  0  0  0  0
  4 12  2  0  0  0  0
  4 13  1  0  0  0  0
  5 12  1  0  0  0  0
  7 11  2  0  0  0  0
  8 10  1  0  0  0  0
  9 20  1  0  0  0  0
 11 15  1  0  0  0  0
 12  7  1  0  0  0  0
 13 17  2  0  0  0  0
 13 11  1  0  0  0  0
 14 19  1  0  0  0  0
 15  2  1  0  0  0  0
 15  3  1  0  0  0  0
 16  8  1  0  0  0  0
 17  6  1  0  0  0  0
 19 18  2  0  0  0  0
 19  8  1  0  0  0  0
 20 16  1  0  0  0  0
 21 23  1  0  0  0  0
 21  1  1  0  0  0  0
 22 25  1  0  0  0  0
 23 24  1  0  0  0  0
 24 25  2  0  0  0  0
 26 22  2  0  0  0  0
 27 26  1  0  0  0  0
 27 23  2  0  0  0  0
M  END
>  <MODEL>
3

>  <REMARK>
 VINA RESULT:      -6.8      2.825      5.250
  Name = 
  2 active torsions:
  status: ('A' for Active; 'I' for Inactive)
    1  A    between atoms: N_1  and  C_15
    2  A    between atoms: C_9  and  C_15
                            x       y       z     vdW  Elec       q    Type
                         _______ _______ _______ _____ _____    ______ ____

>  <TORSDO>
F 2

$$$$
=
 OpenBabel10272401113D

 27 31  0  0  1  0  0  0  0  0999 V2000
  186.3880  177.9420  142.0870 N   0  0  0  0  0  0  0  0  0  0  0  0
  187.2370  176.9450  142.7440 C   0  0  2  0  0  3  0  0  0  0  0  0
  188.5370  177.8900  140.9700 N   0  0  1  0  0  0  0  0  0  0  0  0
  190.2670  178.5650  145.2400 N   0  0  0  0  0  0  0  0  0  0  0  0
  192.3570  179.5660  144.4700 C   0  0  0  0  0  1  0  0  0  0  0  0
  187.0610  176.7300  144.2770 C   0  0  0  0  0  2  0  0  0  0  0  0
  190.6580  178.3670  142.9690 N   0  0  0  0  0  0  0  0  0  0  0  0
  186.9030  178.1550  138.4850 C   0  0  1  0  0  3  0  0  0  0  0  0
  189.9860  176.3260  139.7380 C   0  0  0  0  0  1  0  0  0  0  0  0
  186.7600  179.0600  137.4320 O   0  0  0  0  0  1  0  0  0  0  0  0
  189.5180  177.8100  143.1950 C   0  0  0  0  0  0  0  0  0  0  0  0
  191.0820  178.8310  144.2620 C   0  0  0  0  0  0  0  0  0  0  0  0
  189.2180  177.8740  144.5880 C   0  0  0  0  0  0  0  0  0  0  0  0
  187.2290  178.5840  141.0730 C   0  0  1  0  0  3  0  0  0  0  0  0
  188.6520  177.1080  142.1990 C   0  0  1  0  0  3  0  0  0  0  0  0
  188.3440  177.6910  138.5410 C   0  0  0  0  0  2  0  0  0  0  0  0
  188.0960  177.4210  145.1340 C   0  0  0  0  0  3  0  0  0  0  0  0
  185.4540  179.4660  139.7940 O   0  0  0  0  0  0  0  0  0  0  0  0
  186.4710  178.7900  139.7770 C   0  0  0  0  0  0  0  0  0  0  0  0
  188.6010  176.9500  139.8390 C   0  0  2  0  0  3  0  0  0  0  0  0
  185.7250  178.9360  142.9590 C   0  0  0  0  0  2  0  0  0  0  0  0
  181.4320  178.7290  143.3130 C   0  0  0  0  0  3  0  0  0  0  0  0
  184.2300  178.8110  143.1130 C   0  0  0  0  0  0  0  0  0  0  0  0
  183.4380  178.7900  141.9590 C   0  0  0  0  0  3  0  0  0  0  0  0
  182.0440  178.7360  142.0570 C   0  0  0  0  0  3  0  0  0  0  0  0
  182.2130  178.7890  144.4700 C   0  0  0  0  0  3  0  0  0  0  0  0
  183.6070  178.8430  144.3690 C   0  0  0  0  0  3  0  0  0  0  0  0
  1  2  1  0  0  0  0
  1 21  1  0  0  0  0
  2  6  1  1  0  0  0
  3 14  1  0  0  0  0
  3 15  1  0  0  0  0
  6 17  1  0  0  0  0
  7 11  2  0  0  0  0
  7 12  1  0  0  0  0
  8 16  1  0  0  0  0
  8 19  1  0  0  0  0
  9 20  1  0  0  0  0
 10  8  1  0  0  0  0
 11 13  1  0  0  0  0
 12  5  1  0  0  0  0
 12  4  2  0  0  0  0
 13 17  2  0  0  0  0
 13  4  1  0  0  0  0
 14  1  1  0  0  0  0
 15  2  1  0  0  0  0
 15 11  1  0  0  0  0
 16 20  1  0  0  0  0
 19 18  2  0  0  0  0
 19 14  1  0  0  0  0
 20  3  1  0  0  0  0
 21 23  1  0  0  0  0
 22 26  1  0  0  0  0
 23 27  1  0  0  0  0
 24 25  1  0  0  0  0
 24 23  2  0  0  0  0
 25 22  2  0  0  0  0
 27 26  2  0  0  0  0
M  END
>  <MODEL>
4

>  <REMARK>
 VINA RESULT:      -6.7      2.634      5.682
  Name = 
  2 active torsions:
  status: ('A' for Active; 'I' for Inactive)
    1  A    between atoms: N_1  and  C_15
    2  A    between atoms: C_9  and  C_15
                            x       y       z     vdW  Elec       q    Type
                         _______ _______ _______ _____ _____    ______ ____

>  <TORSDO>
F 2

$$$$
=
 OpenBabel10272401113D

 27 31  0  0  1  0  0  0  0  0999 V2000
  186.9280  177.8240  143.0160 N   0  0  0  0  0  0  0  0  0  0  0  0
  186.9220  176.8160  144.0770 C   0  0  2  0  0  3  0  0  0  0  0  0
  189.2150  177.1840  143.4950 N   0  0  1  0  0  0  0  0  0  0  0  0
  188.1160  178.2490  147.8920 N   0  0  0  0  0  0  0  0  0  0  0  0
  190.4140  178.6980  148.5860 C   0  0  0  0  0  1  0  0  0  0  0  0
  185.8100  176.9030  145.1650 C   0  0  0  0  0  2  0  0  0  0  0  0
  189.7320  177.5950  146.3730 N   0  0  0  0  0  0  0  0  0  0  0  0
  189.5450  177.3170  140.5300 C   0  0  1  0  0  3  0  0  0  0  0  0
  190.6600  175.1910  143.4720 C   0  0  0  0  0  1  0  0  0  0  0  0
  190.3000  178.0390  139.6040 O   0  0  0  0  0  1  0  0  0  0  0  0
  188.5940  177.3070  145.8440 C   0  0  0  0  0  0  0  0  0  0  0  0
  189.3900  178.1880  147.6370 C   0  0  0  0  0  0  0  0  0  0  0  0
  187.5410  177.6640  146.7390 C   0  0  0  0  0  0  0  0  0  0  0  0
  188.3380  178.1150  142.7420 C   0  0  1  0  0  3  0  0  0  0  0  0
  188.3630  176.6170  144.5380 C   0  0  1  0  0  3  0  0  0  0  0  0
  190.4840  176.6110  141.4860 C   0  0  0  0  0  2  0  0  0  0  0  0
  186.2490  177.5270  146.4680 C   0  0  0  0  0  3  0  0  0  0  0  0
  187.9890  179.0790  140.6170 O   0  0  0  0  0  0  0  0  0  0  0  0
  188.5980  178.2330  141.2540 C   0  0  0  0  0  0  0  0  0  0  0  0
  189.7090  176.0690  142.6710 C   0  0  2  0  0  3  0  0  0  0  0  0
  186.1510  179.0590  143.2610 C   0  0  0  0  0  2  0  0  0  0  0  0
  181.9220  178.7880  142.4560 C   0  0  0  0  0  3  0  0  0  0  0  0
  184.6780  179.0080  142.9360 C   0  0  0  0  0  0  0  0  0  0  0  0
  183.7590  179.2600  143.9620 C   0  0  0  0  0  3  0  0  0  0  0  0
  182.3850  179.1640  143.7210 C   0  0  0  0  0  3  0  0  0  0  0  0
  182.8340  178.4980  141.4380 C   0  0  0  0  0  3  0  0  0  0  0  0
  184.2070  178.5940  141.6820 C   0  0  0  0  0  3  0  0  0  0  0  0
  1 21  1  0  0  0  0
  1  2  1  0  0  0  0
  2 15  1  0  0  0  0
  2  6  1  1  0  0  0
  3 15  1  0  0  0  0
  6 17  1  0  0  0  0
  7 12  1  0  0  0  0
  8 19  1  0  0  0  0
  8 16  1  0  0  0  0
 10  8  1  0  0  0  0
 11  7  2  0  0  0  0
 11 13  1  0  0  0  0
 12  4  2  0  0  0  0
 12  5  1  0  0  0  0
 13  4  1  0  0  0  0
 14  1  1  0  0  0  0
 14  3  1  0  0  0  0
 15 11  1  0  0  0  0
 16 20  1  0  0  0  0
 17 13  2  0  0  0  0
 18 19  2  0  0  0  0
 19 14  1  0  0  0  0
 20  9  1  0  0  0  0
 20  3  1  0  0  0  0
 22 25  1  0  0  0  0
 23 21  1  0  0  0  0
 23 24  1  0  0  0  0
 25 24  2  0  0  0  0
 26 27  1  0  0  0  0
 26 22  2  0  0  0  0
 27 23  2  0  0  0  0
M  END
>  <MODEL>
5

>  <REMARK>
 VINA RESULT:      -6.5      2.454      6.202
  Name = 
  2 active torsions:
  status: ('A' for Active; 'I' for Inactive)
    1  A    between atoms: N_1  and  C_15
    2  A    between atoms: C_9  and  C_15
                            x       y       z     vdW  Elec       q    Type
                         _______ _______ _______ _____ _____    ______ ____

>  <TORSDO>
F 2

$$$$
=
 OpenBabel10272401113D

 27 31  0  0  1  0  0  0  0  0999 V2000
  187.0540  178.1540  143.4240 N   0  0  0  0  0  0  0  0  0  0  0  0
  186.2680  179.2120  142.7870 C   0  0  2  0  0  3  0  0  0  0  0  0
  187.0370  177.7790  141.0300 N   0  0  1  0  0  0  0  0  0  0  0  0
  182.4090  178.0160  141.4790 N   0  0  0  0  0  0  0  0  0  0  0  0
  181.9310  176.7090  139.4730 C   0  0  0  0  0  1  0  0  0  0  0  0
  185.0570  179.7990  143.5710 C   0  0  0  0  0  2  0  0  0  0  0  0
  184.2350  177.6370  140.1110 N   0  0  0  0  0  0  0  0  0  0  0  0
  189.9050  177.0510  141.4380 C   0  0  1  0  0  3  0  0  0  0  0  0
  187.7160  178.8930  138.9420 C   0  0  0  0  0  1  0  0  0  0  0  0
  190.7240  175.9340  141.2640 O   0  0  0  0  0  1  0  0  0  0  0  0
  184.6660  178.3140  141.1190 C   0  0  0  0  0  0  0  0  0  0  0  0
  182.8340  177.4640  140.3800 C   0  0  0  0  0  0  0  0  0  0  0  0
  183.5840  178.6060  142.0020 C   0  0  0  0  0  0  0  0  0  0  0  0
  187.4300  177.2280  142.3510 C   0  0  1  0  0  3  0  0  0  0  0  0
  186.0570  178.8210  141.3280 C   0  0  1  0  0  3  0  0  0  0  0  0
  189.2710  177.4070  140.1090 C   0  0  0  0  0  2  0  0  0  0  0  0
  183.7110  179.2570  143.1510 C   0  0  0  0  0  3  0  0  0  0  0  0
  189.2050  176.2000  143.5160 O   0  0  0  0  0  0  0  0  0  0  0  0
  188.8700  176.7760  142.4920 C   0  0  0  0  0  0  0  0  0  0  0  0
  188.1580  178.4150  140.3180 C   0  0  2  0  0  3  0  0  0  0  0  0
  186.4270  177.4470  144.5620 C   0  0  0  0  0  2  0  0  0  0  0  0
  188.1220  178.3230  148.4300 C   0  0  0  0  0  3  0  0  0  0  0  0
  187.0260  177.6930  145.9240 C   0  0  0  0  0  0  0  0  0  0  0  0
  186.2750  178.4070  146.8650 C   0  0  0  0  0  3  0  0  0  0  0  0
  186.8150  178.7110  148.1190 C   0  0  0  0  0  3  0  0  0  0  0  0
  188.8910  177.6430  147.4820 C   0  0  0  0  0  3  0  0  0  0  0  0
  188.3490  177.3420  146.2300 C   0  0  0  0  0  3  0  0  0  0  0  0
  1 21  1  0  0  0  0
  2  1  1  0  0  0  0
  2  6  1  1  0  0  0
  3 15  1  0  0  0  0
  3 14  1  0  0  0  0
  4 13  1  0  0  0  0
  5 12  1  0  0  0  0
  7 12  1  0  0  0  0
  7 11  2  0  0  0  0
  8 19  1  0  0  0  0
  9 20  1  0  0  0  0
 10  8  1  0  0  0  0
 11 15  1  0  0  0  0
 11 13  1  0  0  0  0
 12  4  2  0  0  0  0
 13 17  2  0  0  0  0
 14 19  1  0  0  0  0
 14  1  1  0  0  0  0
 15  2  1  0  0  0  0
 16 20  1  0  0  0  0
 16  8  1  0  0  0  0
 17  6  1  0  0  0  0
 19 18  2  0  0  0  0
 20  3  1  0  0  0  0
 21 23  1  0  0  0  0
 23 27  2  0  0  0  0
 23 24  1  0  0  0  0
 24 25  2  0  0  0  0
 25 22  1  0  0  0  0
 26 22  2  0  0  0  0
 27 26  1  0  0  0  0
M  END
>  <MODEL>
6

>  <REMARK>
 VINA RESULT:      -6.4      1.428      2.148
  Name = 
  2 active torsions:
  status: ('A' for Active; 'I' for Inactive)
    1  A    between atoms: N_1  and  C_15
    2  A    between atoms: C_9  and  C_15
                            x       y       z     vdW  Elec       q    Type
                         _______ _______ _______ _____ _____    ______ ____

>  <TORSDO>
F 2

$$$$
=
 OpenBabel10272401113D

 27 31  0  0  1  0  0  0  0  0999 V2000
  187.4190  177.5950  142.6440 N   0  0  0  0  0  0  0  0  0  0  0  0
  187.2930  176.6300  143.7380 C   0  0  2  0  0  3  0  0  0  0  0  0
  189.6310  177.0730  143.4830 N   0  0  1  0  0  0  0  0  0  0  0  0
  187.8530  178.2620  147.6180 N   0  0  0  0  0  0  0  0  0  0  0  0
  190.0040  178.8370  148.6210 C   0  0  0  0  0  1  0  0  0  0  0  0
  186.0290  176.7120  144.6450 C   0  0  0  0  0  2  0  0  0  0  0  0
  189.7000  177.6190  146.3840 N   0  0  0  0  0  0  0  0  0  0  0  0
  190.3940  177.1030  140.5950 C   0  0  1  0  0  3  0  0  0  0  0  0
  191.1360  175.1450  143.7620 C   0  0  0  0  0  1  0  0  0  0  0  0
  191.2510  177.8200  139.7590 O   0  0  0  0  0  1  0  0  0  0  0  0
  188.6640  177.2610  145.7070 C   0  0  0  0  0  0  0  0  0  0  0  0
  189.1530  178.2460  147.5550 C   0  0  0  0  0  0  0  0  0  0  0  0
  187.4780  177.6080  146.4210 C   0  0  0  0  0  0  0  0  0  0  0  0
  188.8420  177.9360  142.5680 C   0  0  1  0  0  3  0  0  0  0  0  0
  188.6550  176.5120  144.4140 C   0  0  1  0  0  3  0  0  0  0  0  0
  191.2060  176.4770  141.7100 C   0  0  0  0  0  2  0  0  0  0  0  0
  186.2470  177.4050  145.9700 C   0  0  0  0  0  3  0  0  0  0  0  0
  188.7780  178.7990  140.3730 O   0  0  0  0  0  0  0  0  0  0  0  0
  189.3170  178.0060  141.1300 C   0  0  0  0  0  0  0  0  0  0  0  0
  190.2830  175.9490  142.7920 C   0  0  2  0  0  3  0  0  0  0  0  0
  186.5700  178.8040  142.7170 C   0  0  0  0  0  2  0  0  0  0  0  0
  182.9030  178.8740  140.4460 C   0  0  0  0  0  3  0  0  0  0  0  0
  185.2770  178.7700  141.9400 C   0  0  0  0  0  0  0  0  0  0  0  0
  185.3170  179.0270  140.5640 C   0  0  0  0  0  3  0  0  0  0  0  0
  184.1360  179.0670  139.8160 C   0  0  0  0  0  3  0  0  0  0  0  0
  182.8520  178.6550  141.8250 C   0  0  0  0  0  3  0  0  0  0  0  0
  184.0330  178.6170  142.5710 C   0  0  0  0  0  3  0  0  0  0  0  0
  1 21  1  0  0  0  0
  1  2  1  0  0  0  0
  2 15  1  0  0  0  0
  2  6  1  1  0  0  0
  3 15  1  0  0  0  0
  6 17  1  0  0  0  0
  7 12  1  0  0  0  0
  8 19  1  0  0  0  0
  8 16  1  0  0  0  0
 10  8  1  0  0  0  0
 11  7  2  0  0  0  0
 11 13  1  0  0  0  0
 12  4  2  0  0  0  0
 12  5  1  0  0  0  0
 13  4  1  0  0  0  0
 14  1  1  0  0  0  0
 14  3  1  0  0  0  0
 15 11  1  0  0  0  0
 16 20  1  0  0  0  0
 17 13  2  0  0  0  0
 18 19  2  0  0  0  0
 19 14  1  0  0  0  0
 20  3  1  0  0  0  0
 20  9  1  0  0  0  0
 22 26  1  0  0  0  0
 23 27  1  0  0  0  0
 23 21  1  0  0  0  0
 24 23  2  0  0  0  0
 25 22  2  0  0  0  0
 25 24  1  0  0  0  0
 26 27  2  0  0  0  0
M  END
>  <MODEL>
7

>  <REMARK>
 VINA RESULT:      -5.9      2.224      6.150
  Name = 
  2 active torsions:
  status: ('A' for Active; 'I' for Inactive)
    1  A    between atoms: N_1  and  C_15
    2  A    between atoms: C_9  and  C_15
                            x       y       z     vdW  Elec       q    Type
                         _______ _______ _______ _____ _____    ______ ____

>  <TORSDO>
F 2

$$$$
=
 OpenBabel10272401113D

 27 31  0  0  1  0  0  0  0  0999 V2000
  184.9070  177.4900  138.3220 N   0  0  0  0  0  0  0  0  0  0  0  0
  183.7420  176.7700  137.8050 C   0  0  2  0  0  3  0  0  0  0  0  0
  182.9030  178.4650  139.2720 N   0  0  1  0  0  0  0  0  0  0  0  0
  181.5350  178.8610  134.8400 N   0  0  0  0  0  0  0  0  0  0  0  0
  179.9820  180.6980  135.2570 C   0  0  0  0  0  1  0  0  0  0  0  0
  183.8150  176.2020  136.3560 C   0  0  0  0  0  2  0  0  0  0  0  0
  181.1090  179.2820  137.0740 N   0  0  0  0  0  0  0  0  0  0  0  0
  184.5290  178.5970  141.7740 C   0  0  1  0  0  3  0  0  0  0  0  0
  180.9770  177.8310  140.6700 C   0  0  0  0  0  1  0  0  0  0  0  0
  185.0080  179.5760  142.6460 O   0  0  0  0  0  1  0  0  0  0  0  0
  181.9540  178.3090  137.0380 C   0  0  0  0  0  0  0  0  0  0  0  0
  180.8860  179.6020  135.6900 C   0  0  0  0  0  0  0  0  0  0  0  0
  182.2490  177.9770  135.6830 C   0  0  0  0  0  0  0  0  0  0  0  0
  184.3760  178.5870  139.1350 C   0  0  1  0  0  3  0  0  0  0  0  0
  182.4950  177.5510  138.2070 C   0  0  1  0  0  3  0  0  0  0  0  0
  183.0190  178.7000  141.7030 C   0  0  0  0  0  2  0  0  0  0  0  0
  183.1140  177.0410  135.3130 C   0  0  0  0  0  3  0  0  0  0  0  0
  186.3590  178.9860  140.3490 O   0  0  0  0  0  0  0  0  0  0  0  0
  185.1620  178.7530  140.4200 C   0  0  0  0  0  0  0  0  0  0  0  0
  182.4950  177.8630  140.5520 C   0  0  2  0  0  3  0  0  0  0  0  0
  185.8920  177.9710  137.3280 C   0  0  0  0  0  2  0  0  0  0  0  0
  189.9290  176.4630  137.4880 C   0  0  0  0  0  3  0  0  0  0  0  0
  187.2890  177.4110  137.4340 C   0  0  0  0  0  0  0  0  0  0  0  0
  188.3590  178.3050  137.5560 C   0  0  0  0  0  3  0  0  0  0  0  0
  189.6750  177.8330  137.5960 C   0  0  0  0  0  3  0  0  0  0  0  0
  188.8690  175.5680  137.3270 C   0  0  0  0  0  3  0  0  0  0  0  0
  187.5550  176.0420  137.2870 C   0  0  0  0  0  3  0  0  0  0  0  0
  1 14  1  0  0  0  0
  2  6  1  6  0  0  0
  2 15  1  0  0  0  0
  2  1  1  0  0  0  0
  3 20  1  0  0  0  0
  4 13  1  0  0  0  0
  4 12  2  0  0  0  0
  5 12  1  0  0  0  0
  8 10  1  0  0  0  0
 11  7  2  0  0  0  0
 11 15  1  0  0  0  0
 12  7  1  0  0  0  0
 13 11  1  0  0  0  0
 14  3  1  0  0  0  0
 14 19  1  0  0  0  0
 15  3  1  0  0  0  0
 16  8  1  0  0  0  0
 17 13  2  0  0  0  0
 17  6  1  0  0  0  0
 18 19  2  0  0  0  0
 19  8  1  0  0  0  0
 20  9  1  0  0  0  0
 20 16  1  0  0  0  0
 21 23  1  0  0  0  0
 21  1  1  0  0  0  0
 22 25  1  0  0  0  0
 23 24  1  0  0  0  0
 24 25  2  0  0  0  0
 26 22  2  0  0  0  0
 27 26  1  0  0  0  0
 27 23  2  0  0  0  0
M  END
>  <MODEL>
8

>  <REMARK>
 VINA RESULT:      -5.5      3.546      6.579
  Name = 
  2 active torsions:
  status: ('A' for Active; 'I' for Inactive)
    1  A    between atoms: N_1  and  C_15
    2  A    between atoms: C_9  and  C_15
                            x       y       z     vdW  Elec       q    Type
                         _______ _______ _______ _____ _____    ______ ____

>  <TORSDO>
F 2

$$$$
=
 OpenBabel10272401113D

 27 31  0  0  1  0  0  0  0  0999 V2000
  183.1640  175.8010  137.6370 N   0  0  0  0  0  0  0  0  0  0  0  0
  183.8940  176.7600  136.8050 C   0  0  2  0  0  3  0  0  0  0  0  0
  183.4980  177.8380  138.9050 N   0  0  1  0  0  0  0  0  0  0  0  0
  187.9880  177.2380  137.8280 N   0  0  0  0  0  0  0  0  0  0  0  0
  188.8380  178.5190  139.7250 C   0  0  0  0  0  1  0  0  0  0  0  0
  184.9330  176.2030  135.7870 C   0  0  0  0  0  2  0  0  0  0  0  0
  186.3870  178.4500  138.9750 N   0  0  0  0  0  0  0  0  0  0  0  0
  180.7030  177.3500  139.8360 C   0  0  1  0  0  3  0  0  0  0  0  0
  182.9450  180.2350  138.8050 C   0  0  0  0  0  1  0  0  0  0  0  0
  180.0400  177.1110  141.0410 O   0  0  0  0  0  1  0  0  0  0  0  0
  185.7680  177.8260  138.0320 C   0  0  0  0  0  0  0  0  0  0  0  0
  187.7570  178.0480  138.8200 C   0  0  0  0  0  0  0  0  0  0  0  0
  186.7020  177.0700  137.2620 C   0  0  0  0  0  0  0  0  0  0  0  0
  183.0200  176.4340  138.9510 C   0  0  1  0  0  3  0  0  0  0  0  0
  184.3150  177.9240  137.6970 C   0  0  1  0  0  3  0  0  0  0  0  0
  181.4420  178.6680  139.9340 C   0  0  0  0  0  2  0  0  0  0  0  0
  186.3710  176.2880  136.2420 C   0  0  0  0  0  3  0  0  0  0  0  0
  181.2490  175.0660  139.6970 O   0  0  0  0  0  0  0  0  0  0  0  0
  181.6340  176.2120  139.5220 C   0  0  0  0  0  0  0  0  0  0  0  0
  182.4040  178.8130  138.7710 C   0  0  2  0  0  3  0  0  0  0  0  0
  183.7310  174.4390  137.7440 C   0  0  0  0  0  2  0  0  0  0  0  0
  181.6410  171.2430  135.7400 C   0  0  0  0  0  3  0  0  0  0  0  0
  182.9530  173.3280  137.0820 C   0  0  0  0  0  0  0  0  0  0  0  0
  183.5320  172.0560  137.0150 C   0  0  0  0  0  3  0  0  0  0  0  0
  182.8730  171.0120  136.3570 C   0  0  0  0  0  3  0  0  0  0  0  0
  181.0740  172.5190  135.7690 C   0  0  0  0  0  3  0  0  0  0  0  0
  181.7350  173.5610  136.4270 C   0  0  0  0  0  3  0  0  0  0  0  0
  1 21  1  0  0  0  0
  1 14  1  0  0  0  0
  2  6  1  1  0  0  0
  2  1  1  0  0  0  0
  2 15  1  0  0  0  0
  3 14  1  0  0  0  0
  4 12  2  0  0  0  0
  6 17  1  0  0  0  0
  8 16  1  0  0  0  0
  8 10  1  0  0  0  0
 11  7  2  0  0  0  0
 12  7  1  0  0  0  0
 12  5  1  0  0  0  0
 13  4  1  0  0  0  0
 13 11  1  0  0  0  0
 14 19  1  0  0  0  0
 15 11  1  0  0  0  0
 15  3  1  0  0  0  0
 17 13  2  0  0  0  0
 19 18  2  0  0  0  0
 19  8  1  0  0  0  0
 20  9  1  0  0  0  0
 20  3  1  0  0  0  0
 20 16  1  0  0  0  0
 22 26  2  0  0  0  0
 22 25  1  0  0  0  0
 23 21  1  0  0  0  0
 24 23  1  0  0  0  0
 25 24  2  0  0  0  0
 26 27  1  0  0  0  0
 27 23  2  0  0  0  0
M  END
>  <MODEL>
9

>  <REMARK>
 VINA RESULT:      -5.5      4.420      8.272
  Name = 
  2 active torsions:
  status: ('A' for Active; 'I' for Inactive)
    1  A    between atoms: N_1  and  C_15
    2  A    between atoms: C_9  and  C_15
                            x       y       z     vdW  Elec       q    Type
                         _______ _______ _______ _____ _____    ______ ____

>  <TORSDO>
F 2

$$$$
