=
 OpenBabel10272413133D

 32 37  0  0  1  0  0  0  0  0999 V2000
  189.6550  177.4960  141.2910 C   0  0  1  0  0  3  0  0  0  0  0  0
  187.9590  177.6920  143.0960 C   0  0  1  0  0  3  0  0  0  0  0  0
  191.0980  177.8030  140.8660 C   0  0  0  0  0  2  0  0  0  0  0  0
  189.3970  178.0070  142.7180 C   0  0  1  0  0  3  0  0  0  0  0  0
  187.7250  177.8370  144.5890 C   0  0  0  0  0  0  0  0  0  0  0  0
  182.2910  179.1440  143.2010 C   0  0  0  0  0  2  0  0  0  0  0  0
  187.0460  178.5360  142.2000 C   0  0  1  0  0  3  0  0  0  0  0  0
  184.2290  178.5460  144.5270 N   0  0  0  0  0  0  0  0  0  0  0  0
  185.4530  178.3620  144.1710 C   0  0  0  0  0  0  0  0  0  0  0  0
  190.4220  177.5200  143.7820 C   0  0  1  0  0  3  0  0  0  0  0  0
  186.5380  178.1040  145.0670 N   0  0  0  0  0  0  0  0  0  0  0  0
  189.8250  176.7200  144.7810 O   0  0  0  0  0  0  0  0  0  0  0  0
  191.5900  176.7650  143.1490 C   0  0  0  0  0  2  0  0  0  0  0  0
  187.1760  178.0050  140.7750 C   0  0  0  0  0  2  0  0  0  0  0  0
  188.6390  178.1130  140.2960 C   0  0  2  0  0  3  0  0  0  0  0  0
  185.6580  178.4990  142.7470 C   0  0  0  0  0  0  0  0  0  0  0  0
  188.8930  177.5140  145.4870 C   0  0  2  0  0  3  0  0  0  0  0  0
  192.1460  177.5470  141.9610 C   0  0  0  0  0  2  0  0  0  0  0  0
  183.5720  178.8140  143.2890 C   0  0  0  0  0  0  0  0  0  0  0  0
  184.5150  178.8330  142.1650 C   0  0  0  0  0  3  0  0  0  0  0  0
  187.7280  178.4150  136.8570 C   0  0  0  0  0  0  0  0  0  0  0  0
  187.0330  174.9720  135.9880 O   0  0  0  0  0  0  0  0  0  0  0  0
  187.1630  179.5070  136.5840 O   0  0  0  0  0  0  0  0  0  0  0  0
  188.8500  175.5970  137.3700 C   0  0  0  0  0  2  0  0  0  0  0  0
  188.7760  177.5260  138.9150 C   0  0  0  0  0  0  0  0  0  0  0  0
  187.1900  177.2330  136.3220 O   0  0  0  0  0  0  0  0  0  0  0  0
  188.7310  176.1980  138.7350 C   0  0  0  0  0  3  0  0  0  0  0  0
  188.9570  178.4280  137.7250 C   0  0  2  0  0  3  0  0  0  0  0  0
  189.2710  179.7200  138.1200 F   0  0  0  0  0  0  0  0  0  0  0  0
  187.6490  175.9220  136.5360 C   0  0  0  0  0  0  0  0  0  0  0  0
  188.4400  176.7580  146.7270 C   0  0  0  0  0  2  0  0  0  0  0  0
  188.8770  177.4230  147.8730 O   0  0  0  0  0  1  0  0  0  0  0  0
  1  3  1  6  0  0  0
  1  4  1  0  0  0  0
  2  5  1  1  0  0  0
  3 18  1  0  0  0  0
  4  2  1  0  0  0  0
  4 10  1  0  0  0  0
  5 11  2  0  0  0  0
  5 17  1  0  0  0  0
  6 19  2  0  0  0  0
  7 16  1  0  0  0  0
  7  2  1  0  0  0  0
  9  8  2  0  0  0  0
  9 11  1  0  0  0  0
 10 12  1  0  0  0  0
 12 17  1  0  0  0  0
 13 10  1  0  0  0  0
 14  7  1  0  0  0  0
 15 14  1  0  0  0  0
 15  1  1  0  0  0  0
 16  9  1  0  0  0  0
 17 31  1  0  0  0  0
 18 13  1  0  0  0  0
 19  8  1  0  0  0  0
 20 16  2  0  0  0  0
 20 19  1  0  0  0  0
 21 28  1  0  0  0  0
 22 30  2  0  0  0  0
 23 21  2  0  0  0  0
 24 27  1  0  0  0  0
 25 15  1  0  0  0  0
 26 30  1  0  0  0  0
 26 21  1  0  0  0  0
 27 25  2  0  0  0  0
 28 29  1  0  0  0  0
 28 25  1  0  0  0  0
 30 24  1  0  0  0  0
 31 32  1  0  0  0  0
M  END
>  <MODEL>
1

>  <REMARK>
 VINA RESULT:      -9.1      0.000      0.000
  Name = 
  2 active torsions:
  status: ('A' for Active; 'I' for Inactive)
    1  A    between atoms: C_13  and  C_29
    2  A    between atoms: C_16  and  C_27
                            x       y       z     vdW  Elec       q    Type
                         _______ _______ _______ _____ _____    ______ ____

>  <TORSDO>
F 2

$$$$
=
 OpenBabel10272413133D

 32 37  0  0  1  0  0  0  0  0999 V2000
  189.8590  177.6470  141.9880 C   0  0  1  0  0  3  0  0  0  0  0  0
  187.6770  177.8250  143.1600 C   0  0  1  0  0  3  0  0  0  0  0  0
  191.3420  178.0440  141.9970 C   0  0  0  0  0  2  0  0  0  0  0  0
  189.1400  178.2350  143.2130 C   0  0  1  0  0  3  0  0  0  0  0  0
  186.9800  178.0570  144.4890 C   0  0  0  0  0  0  0  0  0  0  0  0
  182.1840  178.7940  141.3900 C   0  0  0  0  0  2  0  0  0  0  0  0
  187.0410  178.5230  141.9530 C   0  0  1  0  0  3  0  0  0  0  0  0
  183.6430  178.4590  143.2950 N   0  0  0  0  0  0  0  0  0  0  0  0
  184.9260  178.3550  143.3500 C   0  0  0  0  0  0  0  0  0  0  0  0
  189.8080  177.9140  144.5800 C   0  0  1  0  0  3  0  0  0  0  0  0
  185.6890  178.2550  144.5550 N   0  0  0  0  0  0  0  0  0  0  0  0
  188.9780  177.1390  145.4200 O   0  0  0  0  0  0  0  0  0  0  0  0
  191.1580  177.2180  144.4090 C   0  0  0  0  0  2  0  0  0  0  0  0
  187.6390  177.9050  140.6930 C   0  0  0  0  0  2  0  0  0  0  0  0
  189.1700  178.1020  140.6760 C   0  0  2  0  0  3  0  0  0  0  0  0
  185.5550  178.4070  142.0500 C   0  0  0  0  0  0  0  0  0  0  0  0
  187.8270  177.8990  145.7280 C   0  0  2  0  0  3  0  0  0  0  0  0
  192.0090  177.9570  143.3790 C   0  0  0  0  0  2  0  0  0  0  0  0
  183.3890  178.5810  141.8960 C   0  0  0  0  0  0  0  0  0  0  0  0
  184.6340  178.6000  141.1180 C   0  0  0  0  0  3  0  0  0  0  0  0
  188.6440  177.1420  137.2770 C   0  0  0  0  0  0  0  0  0  0  0  0
  190.0690  173.8160  137.2370 O   0  0  0  0  0  0  0  0  0  0  0  0
  187.6060  177.6440  136.7710 O   0  0  0  0  0  0  0  0  0  0  0  0
  191.0670  175.6170  138.4040 C   0  0  0  0  0  2  0  0  0  0  0  0
  189.7650  177.4320  139.4650 C   0  0  0  0  0  0  0  0  0  0  0  0
  188.9130  175.7840  137.0390 O   0  0  0  0  0  0  0  0  0  0  0  0
  190.4810  176.3060  139.5960 C   0  0  0  0  0  3  0  0  0  0  0  0
  189.5520  178.0180  138.0960 C   0  0  2  0  0  3  0  0  0  0  0  0
  189.0540  179.3100  138.1770 F   0  0  0  0  0  0  0  0  0  0  0  0
  189.9900  175.0340  137.5400 C   0  0  0  0  0  0  0  0  0  0  0  0
  187.0550  177.1980  146.8360 C   0  0  0  0  0  2  0  0  0  0  0  0
  187.8610  177.0710  147.9670 O   0  0  0  0  0  1  0  0  0  0  0  0
  1  3  1  6  0  0  0
  1  4  1  0  0  0  0
  2  4  1  0  0  0  0
  2  5  1  1  0  0  0
  3 18  1  0  0  0  0
  4 10  1  0  0  0  0
  5 11  2  0  0  0  0
  5 17  1  0  0  0  0
  6 19  2  0  0  0  0
  7 16  1  0  0  0  0
  7  2  1  0  0  0  0
  8  9  2  0  0  0  0
  9 11  1  0  0  0  0
 10 12  1  0  0  0  0
 12 17  1  0  0  0  0
 13 10  1  0  0  0  0
 14  7  1  0  0  0  0
 15 14  1  0  0  0  0
 15  1  1  0  0  0  0
 16  9  1  0  0  0  0
 17 31  1  0  0  0  0
 18 13  1  0  0  0  0
 19  8  1  0  0  0  0
 20 19  1  0  0  0  0
 20 16  2  0  0  0  0
 21 28  1  0  0  0  0
 22 30  2  0  0  0  0
 23 21  2  0  0  0  0
 24 27  1  0  0  0  0
 25 27  2  0  0  0  0
 25 15  1  0  0  0  0
 26 21  1  0  0  0  0
 26 30  1  0  0  0  0
 28 29  1  0  0  0  0
 28 25  1  0  0  0  0
 30 24  1  0  0  0  0
 31 32  1  0  0  0  0
M  END
>  <MODEL>
2

>  <REMARK>
 VINA RESULT:      -8.9      1.331      1.471
  Name = 
  2 active torsions:
  status: ('A' for Active; 'I' for Inactive)
    1  A    between atoms: C_13  and  C_29
    2  A    between atoms: C_16  and  C_27
                            x       y       z     vdW  Elec       q    Type
                         _______ _______ _______ _____ _____    ______ ____

>  <TORSDO>
F 2

$$$$
=
 OpenBabel10272413133D

 32 37  0  0  1  0  0  0  0  0999 V2000
  187.2750  178.0380  139.3270 C   0  0  1  0  0  3  0  0  0  0  0  0
  187.8370  177.7290  141.7270 C   0  0  1  0  0  3  0  0  0  0  0  0
  187.7440  178.5900  137.9730 C   0  0  0  0  0  2  0  0  0  0  0  0
  188.3450  178.2810  140.4040 C   0  0  1  0  0  3  0  0  0  0  0  0
  188.9530  177.6060  142.7500 C   0  0  0  0  0  0  0  0  0  0  0  0
  184.8580  178.4130  146.7170 C   0  0  0  0  0  2  0  0  0  0  0  0
  186.6390  178.5810  142.1580 C   0  0  1  0  0  3  0  0  0  0  0  0
  186.9990  177.8650  145.7230 N   0  0  0  0  0  0  0  0  0  0  0  0
  187.3740  177.8970  144.4910 C   0  0  0  0  0  0  0  0  0  0  0  0
  189.7660  177.7660  140.0410 C   0  0  1  0  0  3  0  0  0  0  0  0
  188.7040  177.6400  144.0330 N   0  0  0  0  0  0  0  0  0  0  0  0
  190.2130  176.7490  140.9130 O   0  0  0  0  0  0  0  0  0  0  0  0
  189.8470  177.2750  138.5960 C   0  0  0  0  0  2  0  0  0  0  0  0
  185.4980  178.3020  141.1840 C   0  0  0  0  0  2  0  0  0  0  0  0
  185.9220  178.6700  139.7460 C   0  0  2  0  0  3  0  0  0  0  0  0
  186.3160  178.2820  143.5850 C   0  0  0  0  0  0  0  0  0  0  0  0
  190.3280  177.2970  142.2110 C   0  0  2  0  0  3  0  0  0  0  0  0
  189.2190  178.2990  137.6530 C   0  0  0  0  0  2  0  0  0  0  0  0
  185.6230  178.2390  145.6500 C   0  0  0  0  0  0  0  0  0  0  0  0
  185.2190  178.5550  144.2750 C   0  0  0  0  0  3  0  0  0  0  0  0
  182.3950  178.6150  139.1920 C   0  0  0  0  0  0  0  0  0  0  0  0
  181.9670  175.4060  137.5770 O   0  0  0  0  0  0  0  0  0  0  0  0
  181.7420  179.2340  140.0730 O   0  0  0  0  0  0  0  0  0  0  0  0
  183.7830  176.8440  137.0950 C   0  0  0  0  0  2  0  0  0  0  0  0
  184.8180  178.3300  138.7780 C   0  0  0  0  0  0  0  0  0  0  0  0
  181.9220  177.3630  138.7670 O   0  0  0  0  0  0  0  0  0  0  0  0
  184.8770  177.2060  138.0500 C   0  0  0  0  0  3  0  0  0  0  0  0
  183.6370  179.2490  138.6270 C   0  0  2  0  0  3  0  0  0  0  0  0
  183.8800  180.4780  139.2210 F   0  0  0  0  0  0  0  0  0  0  0  0
  182.5220  176.5060  137.8290 C   0  0  0  0  0  0  0  0  0  0  0  0
  191.0560  176.3030  143.1030 C   0  0  0  0  0  2  0  0  0  0  0  0
  190.4820  175.0380  142.9710 O   0  0  0  0  0  1  0  0  0  0  0  0
  1  3  1  6  0  0  0
  1 15  1  0  0  0  0
  1  4  1  0  0  0  0
  2  7  1  0  0  0  0
  2  5  1  1  0  0  0
  4  2  1  0  0  0  0
  5 11  2  0  0  0  0
  7 16  1  0  0  0  0
  9  8  2  0  0  0  0
 10  4  1  0  0  0  0
 10 12  1  0  0  0  0
 11  9  1  0  0  0  0
 12 17  1  0  0  0  0
 13 10  1  0  0  0  0
 14  7  1  0  0  0  0
 15 14  1  0  0  0  0
 16 20  2  0  0  0  0
 16  9  1  0  0  0  0
 17  5  1  0  0  0  0
 17 31  1  0  0  0  0
 18  3  1  0  0  0  0
 18 13  1  0  0  0  0
 19  8  1  0  0  0  0
 19  6  2  0  0  0  0
 20 19  1  0  0  0  0
 21 23  2  0  0  0  0
 22 30  2  0  0  0  0
 24 30  1  0  0  0  0
 24 27  1  0  0  0  0
 25 15  1  0  0  0  0
 26 21  1  0  0  0  0
 27 25  2  0  0  0  0
 28 25  1  0  0  0  0
 28 21  1  0  0  0  0
 28 29  1  0  0  0  0
 30 26  1  0  0  0  0
 32 31  1  0  0  0  0
M  END
>  <MODEL>
3

>  <REMARK>
 VINA RESULT:      -8.4      2.961      4.120
  Name = 
  2 active torsions:
  status: ('A' for Active; 'I' for Inactive)
    1  A    between atoms: C_13  and  C_29
    2  A    between atoms: C_16  and  C_27
                            x       y       z     vdW  Elec       q    Type
                         _______ _______ _______ _____ _____    ______ ____

>  <TORSDO>
F 2

$$$$
=
 OpenBabel10272413133D

 32 37  0  0  1  0  0  0  0  0999 V2000
  189.2010  177.4190  140.7860 C   0  0  1  0  0  3  0  0  0  0  0  0
  187.1730  177.7390  142.1850 C   0  0  1  0  0  3  0  0  0  0  0  0
  190.7080  177.6800  140.6550 C   0  0  0  0  0  2  0  0  0  0  0  0
  188.6660  178.0120  142.1000 C   0  0  1  0  0  3  0  0  0  0  0  0
  186.6380  177.9700  143.5870 C   0  0  0  0  0  0  0  0  0  0  0  0
  181.6460  179.2800  141.0330 C   0  0  0  0  0  2  0  0  0  0  0  0
  186.4880  178.5460  141.0770 C   0  0  1  0  0  3  0  0  0  0  0  0
  183.2510  178.7270  142.7620 N   0  0  0  0  0  0  0  0  0  0  0  0
  184.5170  178.5050  142.6790 C   0  0  0  0  0  0  0  0  0  0  0  0
  189.4350  177.5690  143.3770 C   0  0  1  0  0  3  0  0  0  0  0  0
  185.3850  178.2810  143.7930 N   0  0  0  0  0  0  0  0  0  0  0  0
  188.6230  176.8340  144.2700 O   0  0  0  0  0  0  0  0  0  0  0  0
  190.6890  176.7620  143.0410 C   0  0  0  0  0  2  0  0  0  0  0  0
  186.8960  177.9360  139.7400 C   0  0  0  0  0  2  0  0  0  0  0  0
  188.4290  177.9950  139.5700 C   0  0  2  0  0  3  0  0  0  0  0  0
  185.0160  178.5600  141.3230 C   0  0  0  0  0  0  0  0  0  0  0  0
  187.5860  177.6800  144.7250 C   0  0  2  0  0  3  0  0  0  0  0  0
  191.4990  177.4690  141.9570 C   0  0  0  0  0  2  0  0  0  0  0  0
  182.8710  178.9360  141.4020 C   0  0  0  0  0  0  0  0  0  0  0  0
  184.0280  178.8790  140.5000 C   0  0  0  0  0  3  0  0  0  0  0  0
  187.8750  177.8040  136.0490 C   0  0  0  0  0  0  0  0  0  0  0  0
  187.9660  174.2300  135.4950 O   0  0  0  0  0  0  0  0  0  0  0  0
  187.1430  178.7290  135.6070 O   0  0  0  0  0  0  0  0  0  0  0  0
  189.4570  175.3310  136.9660 C   0  0  0  0  0  2  0  0  0  0  0  0
  188.8340  177.3310  138.2800 C   0  0  0  0  0  0  0  0  0  0  0  0
  187.6410  176.4950  135.5960 O   0  0  0  0  0  0  0  0  0  0  0  0
  189.0690  176.0120  138.2420 C   0  0  0  0  0  3  0  0  0  0  0  0
  188.9700  178.1440  137.0220 C   0  0  2  0  0  3  0  0  0  0  0  0
  188.9800  179.5020  137.3030 F   0  0  0  0  0  0  0  0  0  0  0  0
  188.3190  175.3300  135.9930 C   0  0  0  0  0  0  0  0  0  0  0  0
  186.8660  177.0000  145.8800 C   0  0  0  0  0  2  0  0  0  0  0  0
  187.2150  177.6140  147.0820 O   0  0  0  0  0  1  0  0  0  0  0  0
  1  3  1  6  0  0  0
  1  4  1  0  0  0  0
  2  5  1  1  0  0  0
  3 18  1  0  0  0  0
  4  2  1  0  0  0  0
  4 10  1  0  0  0  0
  5 11  2  0  0  0  0
  5 17  1  0  0  0  0
  6 19  2  0  0  0  0
  7 16  1  0  0  0  0
  7  2  1  0  0  0  0
  9  8  2  0  0  0  0
  9 11  1  0  0  0  0
 10 12  1  0  0  0  0
 12 17  1  0  0  0  0
 13 10  1  0  0  0  0
 14  7  1  0  0  0  0
 15 14  1  0  0  0  0
 15  1  1  0  0  0  0
 16  9  1  0  0  0  0
 17 31  1  0  0  0  0
 18 13  1  0  0  0  0
 19  8  1  0  0  0  0
 20 16  2  0  0  0  0
 20 19  1  0  0  0  0
 21 28  1  0  0  0  0
 22 30  2  0  0  0  0
 23 21  2  0  0  0  0
 24 27  1  0  0  0  0
 25 15  1  0  0  0  0
 26 30  1  0  0  0  0
 26 21  1  0  0  0  0
 27 25  2  0  0  0  0
 28 29  1  0  0  0  0
 28 25  1  0  0  0  0
 30 24  1  0  0  0  0
 31 32  1  0  0  0  0
M  END
>  <MODEL>
4

>  <REMARK>
 VINA RESULT:      -7.9      1.190      1.323
  Name = 
  2 active torsions:
  status: ('A' for Active; 'I' for Inactive)
    1  A    between atoms: C_13  and  C_29
    2  A    between atoms: C_16  and  C_27
                            x       y       z     vdW  Elec       q    Type
                         _______ _______ _______ _____ _____    ______ ____

>  <TORSDO>
F 2

$$$$
=
 OpenBabel10272413133D

 32 37  0  0  1  0  0  0  0  0999 V2000
  189.0490  177.5130  142.3890 C   0  0  1  0  0  3  0  0  0  0  0  0
  186.9120  178.2060  141.3290 C   0  0  1  0  0  3  0  0  0  0  0  0
  190.2860  176.6110  142.2820 C   0  0  0  0  0  2  0  0  0  0  0  0
  188.1250  177.3010  141.1790 C   0  0  1  0  0  3  0  0  0  0  0  0
  186.1350  178.3240  140.0300 C   0  0  0  0  0  0  0  0  0  0  0  0
  181.5030  179.1690  143.3450 C   0  0  0  0  0  2  0  0  0  0  0  0
  186.1070  177.7100  142.5350 C   0  0  1  0  0  3  0  0  0  0  0  0
  182.9200  179.0740  141.3810 N   0  0  0  0  0  0  0  0  0  0  0  0
  184.1510  178.7140  141.2630 C   0  0  0  0  0  0  0  0  0  0  0  0
  188.8180  177.4450  139.7940 C   0  0  1  0  0  3  0  0  0  0  0  0
  184.8580  178.6080  140.0250 N   0  0  0  0  0  0  0  0  0  0  0  0
  188.2970  178.5180  139.0370 O   0  0  0  0  0  0  0  0  0  0  0  0
  190.3330  177.5970  139.9250 C   0  0  0  0  0  2  0  0  0  0  0  0
  186.9300  177.9910  143.7880 C   0  0  0  0  0  2  0  0  0  0  0  0
  188.2850  177.2560  143.7140 C   0  0  2  0  0  3  0  0  0  0  0  0
  184.7620  178.3580  142.5240 C   0  0  0  0  0  0  0  0  0  0  0  0
  186.9390  178.2430  138.7560 C   0  0  2  0  0  3  0  0  0  0  0  0
  190.8930  176.5380  140.8720 C   0  0  0  0  0  2  0  0  0  0  0  0
  182.6870  178.9650  142.7850 C   0  0  0  0  0  0  0  0  0  0  0  0
  183.8650  178.4510  143.4930 C   0  0  0  0  0  3  0  0  0  0  0  0
  191.5420  178.1120  144.9010 C   0  0  0  0  0  0  0  0  0  0  0  0
  191.7780  176.0860  147.8890 O   0  0  0  0  0  0  0  0  0  0  0  0
  192.3530  178.3900  143.9780 O   0  0  0  0  0  0  0  0  0  0  0  0
  189.7960  177.2200  147.2710 C   0  0  0  0  0  2  0  0  0  0  0  0
  189.1230  177.5910  144.9210 C   0  0  0  0  0  0  0  0  0  0  0  0
  191.9820  177.2880  145.9500 O   0  0  0  0  0  0  0  0  0  0  0  0
  188.9620  176.9130  146.0670 C   0  0  0  0  0  3  0  0  0  0  0  0
  190.1520  178.6850  144.8460 C   0  0  2  0  0  3  0  0  0  0  0  0
  189.9790  179.4570  143.7080 F   0  0  0  0  0  0  0  0  0  0  0  0
  191.2260  176.8370  147.0450 C   0  0  0  0  0  0  0  0  0  0  0  0
  186.4370  179.2430  137.7250 C   0  0  0  0  0  2  0  0  0  0  0  0
  187.4550  179.5380  136.8170 O   0  0  0  0  0  1  0  0  0  0  0  0
  1  3  1  6  0  0  0
  1 15  1  0  0  0  0
  2  5  1  6  0  0  0
  2  7  1  0  0  0  0
  4  2  1  0  0  0  0
  4  1  1  0  0  0  0
  7 14  1  0  0  0  0
  8 19  1  0  0  0  0
  9  8  2  0  0  0  0
  9 16  1  0  0  0  0
 10 13  1  0  0  0  0
 10  4  1  0  0  0  0
 11  5  2  0  0  0  0
 11  9  1  0  0  0  0
 12 10  1  0  0  0  0
 13 18  1  0  0  0  0
 15 14  1  0  0  0  0
 15 25  1  0  0  0  0
 16  7  1  0  0  0  0
 16 20  2  0  0  0  0
 17 12  1  0  0  0  0
 17  5  1  0  0  0  0
 18  3  1  0  0  0  0
 19  6  2  0  0  0  0
 19 20  1  0  0  0  0
 21 26  1  0  0  0  0
 23 21  2  0  0  0  0
 25 27  2  0  0  0  0
 26 30  1  0  0  0  0
 27 24  1  0  0  0  0
 28 21  1  0  0  0  0
 28 25  1  0  0  0  0
 29 28  1  0  0  0  0
 30 24  1  0  0  0  0
 30 22  2  0  0  0  0
 31 17  1  0  0  0  0
 32 31  1  0  0  0  0
M  END
>  <MODEL>
5

>  <REMARK>
 VINA RESULT:      -7.7      2.298      6.383
  Name = 
  2 active torsions:
  status: ('A' for Active; 'I' for Inactive)
    1  A    between atoms: C_13  and  C_29
    2  A    between atoms: C_16  and  C_27
                            x       y       z     vdW  Elec       q    Type
                         _______ _______ _______ _____ _____    ______ ____

>  <TORSDO>
F 2

$$$$
=
 OpenBabel10272413133D

 32 37  0  0  1  0  0  0  0  0999 V2000
  185.8640  178.2750  139.4240 C   0  0  1  0  0  3  0  0  0  0  0  0
  186.9340  177.8680  141.6280 C   0  0  1  0  0  3  0  0  0  0  0  0
  186.0510  178.8250  138.0030 C   0  0  0  0  0  2  0  0  0  0  0  0
  187.1660  178.4150  140.2290 C   0  0  1  0  0  3  0  0  0  0  0  0
  188.2420  177.6420  142.3670 C   0  0  0  0  0  0  0  0  0  0  0  0
  185.2320  178.6370  147.1740 C   0  0  0  0  0  2  0  0  0  0  0  0
  185.9320  178.7910  142.3290 C   0  0  1  0  0  3  0  0  0  0  0  0
  187.0430  177.9650  145.7110 N   0  0  0  0  0  0  0  0  0  0  0  0
  187.1280  178.0000  144.4260 C   0  0  0  0  0  0  0  0  0  0  0  0
  188.4250  177.8120  139.5450 C   0  0  1  0  0  3  0  0  0  0  0  0
  188.2960  177.6630  143.6730 N   0  0  0  0  0  0  0  0  0  0  0  0
  188.9830  176.7440  140.2830 O   0  0  0  0  0  0  0  0  0  0  0  0
  188.1370  177.3520  138.1160 C   0  0  0  0  0  2  0  0  0  0  0  0
  184.5820  178.6170  141.6400 C   0  0  0  0  0  2  0  0  0  0  0  0
  184.6920  178.9890  140.1470 C   0  0  2  0  0  3  0  0  0  0  0  0
  185.9220  178.4800  143.7900 C   0  0  0  0  0  0  0  0  0  0  0  0
  189.4310  177.2510  141.5250 C   0  0  2  0  0  3  0  0  0  0  0  0
  187.3880  178.4400  137.3500 C   0  0  0  0  0  2  0  0  0  0  0  0
  185.7180  178.4350  145.9580 C   0  0  0  0  0  0  0  0  0  0  0  0
  185.0350  178.8130  144.7150 C   0  0  0  0  0  3  0  0  0  0  0  0
  182.8130  176.7920  138.0510 C   0  0  0  0  0  0  0  0  0  0  0  0
  181.1870  179.1330  135.8230 O   0  0  0  0  0  0  0  0  0  0  0  0
  183.3660  175.6740  137.8770 O   0  0  0  0  0  0  0  0  0  0  0  0
  181.4350  179.5410  138.1410 C   0  0  0  0  0  2  0  0  0  0  0  0
  183.3750  178.7510  139.4550 C   0  0  0  0  0  0  0  0  0  0  0  0
  182.2490  177.4380  136.9390 O   0  0  0  0  0  0  0  0  0  0  0  0
  182.7360  179.7600  138.8460 C   0  0  0  0  0  3  0  0  0  0  0  0
  182.7690  177.3740  139.4370 C   0  0  2  0  0  3  0  0  0  0  0  0
  183.4000  176.5390  140.3460 F   0  0  0  0  0  0  0  0  0  0  0  0
  181.6250  178.6970  136.9180 C   0  0  0  0  0  0  0  0  0  0  0  0
  190.2690  176.1870  142.2180 C   0  0  0  0  0  2  0  0  0  0  0  0
  191.4540  176.7510  142.6900 O   0  0  0  0  0  1  0  0  0  0  0  0
  1  3  1  6  0  0  0
  1 15  1  0  0  0  0
  1  4  1  0  0  0  0
  2  7  1  0  0  0  0
  2  5  1  1  0  0  0
  4  2  1  0  0  0  0
  5 11  2  0  0  0  0
  7 16  1  0  0  0  0
  8 19  1  0  0  0  0
  9  8  2  0  0  0  0
 10  4  1  0  0  0  0
 10 12  1  0  0  0  0
 11  9  1  0  0  0  0
 12 17  1  0  0  0  0
 13 10  1  0  0  0  0
 14  7  1  0  0  0  0
 15 14  1  0  0  0  0
 16  9  1  0  0  0  0
 16 20  2  0  0  0  0
 17 31  1  0  0  0  0
 17  5  1  0  0  0  0
 18  3  1  0  0  0  0
 18 13  1  0  0  0  0
 19  6  2  0  0  0  0
 20 19  1  0  0  0  0
 21 28  1  0  0  0  0
 22 30  2  0  0  0  0
 23 21  2  0  0  0  0
 24 27  1  0  0  0  0
 25 15  1  0  0  0  0
 26 21  1  0  0  0  0
 27 25  2  0  0  0  0
 28 25  1  0  0  0  0
 28 29  1  0  0  0  0
 30 26  1  0  0  0  0
 30 24  1  0  0  0  0
 31 32  1  0  0  0  0
M  END
>  <MODEL>
6

>  <REMARK>
 VINA RESULT:      -7.7      3.144      4.944
  Name = 
  2 active torsions:
  status: ('A' for Active; 'I' for Inactive)
    1  A    between atoms: C_13  and  C_29
    2  A    between atoms: C_16  and  C_27
                            x       y       z     vdW  Elec       q    Type
                         _______ _______ _______ _____ _____    ______ ____

>  <TORSDO>
F 2

$$$$
=
 OpenBabel10272413133D

 32 37  0  0  1  0  0  0  0  0999 V2000
  186.3810  178.0680  143.8150 C   0  0  1  0  0  3  0  0  0  0  0  0
  188.4200  178.0450  142.3960 C   0  0  1  0  0  3  0  0  0  0  0  0
  185.6750  177.4580  145.0340 C   0  0  0  0  0  2  0  0  0  0  0  0
  187.7610  177.4200  143.6150 C   0  0  1  0  0  3  0  0  0  0  0  0
  189.9030  177.7280  142.3330 C   0  0  0  0  0  0  0  0  0  0  0  0
  189.3480  178.1720  136.6190 C   0  0  0  0  0  2  0  0  0  0  0  0
  187.6060  177.6340  141.1640 C   0  0  1  0  0  3  0  0  0  0  0  0
  190.3740  178.0040  138.8080 N   0  0  0  0  0  0  0  0  0  0  0  0
  189.8320  177.9070  139.9730 C   0  0  0  0  0  0  0  0  0  0  0  0
  188.6780  177.4350  144.8710 C   0  0  1  0  0  3  0  0  0  0  0  0
  190.5480  177.7160  141.1960 N   0  0  0  0  0  0  0  0  0  0  0  0
  189.8530  178.1930  144.6740 O   0  0  0  0  0  0  0  0  0  0  0  0
  187.9430  177.9410  146.1120 C   0  0  0  0  0  2  0  0  0  0  0  0
  186.2530  178.3350  141.2490 C   0  0  0  0  0  2  0  0  0  0  0  0
  185.5140  177.9180  142.5380 C   0  0  2  0  0  3  0  0  0  0  0  0
  188.3880  177.9540  139.9330 C   0  0  0  0  0  0  0  0  0  0  0  0
  190.6140  177.5740  143.6550 C   0  0  2  0  0  3  0  0  0  0  0  0
  186.5920  177.2420  146.2490 C   0  0  0  0  0  2  0  0  0  0  0  0
  189.2480  178.1270  137.9400 C   0  0  0  0  0  0  0  0  0  0  0  0
  187.9810  178.0390  138.6760 C   0  0  0  0  0  3  0  0  0  0  0  0
  183.0320  179.2000  144.7610 C   0  0  0  0  0  0  0  0  0  0  0  0
  179.9820  178.3210  143.0240 O   0  0  0  0  0  0  0  0  0  0  0  0
  183.3790  179.1630  145.9710 O   0  0  0  0  0  0  0  0  0  0  0  0
  181.9010  179.1320  141.9010 C   0  0  0  0  0  2  0  0  0  0  0  0
  184.2090  178.6630  142.6520 C   0  0  0  0  0  0  0  0  0  0  0  0
  181.7290  178.7940  144.4280 O   0  0  0  0  0  0  0  0  0  0  0  0
  183.2090  178.4140  141.7950 C   0  0  0  0  0  3  0  0  0  0  0  0
  184.0180  179.6880  143.7360 C   0  0  2  0  0  3  0  0  0  0  0  0
  185.2260  180.0210  144.3280 F   0  0  0  0  0  0  0  0  0  0  0  0
  181.1670  178.7260  143.1420 C   0  0  0  0  0  0  0  0  0  0  0  0
  191.9940  178.2130  143.6140 C   0  0  0  0  0  2  0  0  0  0  0  0
  191.9310  179.5110  144.1210 O   0  0  0  0  0  1  0  0  0  0  0  0
  1  3  1  1  0  0  0
  2  5  1  6  0  0  0
  2  4  1  0  0  0  0
  3 18  1  0  0  0  0
  4  1  1  0  0  0  0
  4 10  1  0  0  0  0
  5 17  1  0  0  0  0
  6 19  2  0  0  0  0
  7 14  1  0  0  0  0
  7  2  1  0  0  0  0
  8  9  2  0  0  0  0
  9 11  1  0  0  0  0
 10 13  1  0  0  0  0
 11  5  2  0  0  0  0
 12 10  1  0  0  0  0
 13 18  1  0  0  0  0
 14 15  1  0  0  0  0
 15 25  1  0  0  0  0
 15  1  1  0  0  0  0
 16  9  1  0  0  0  0
 16  7  1  0  0  0  0
 17 12  1  0  0  0  0
 19 20  1  0  0  0  0
 19  8  1  0  0  0  0
 20 16  2  0  0  0  0
 21 23  2  0  0  0  0
 22 30  2  0  0  0  0
 24 30  1  0  0  0  0
 25 28  1  0  0  0  0
 26 21  1  0  0  0  0
 27 24  1  0  0  0  0
 27 25  2  0  0  0  0
 28 29  1  0  0  0  0
 28 21  1  0  0  0  0
 30 26  1  0  0  0  0
 31 17  1  0  0  0  0
 31 32  1  0  0  0  0
M  END
>  <MODEL>
7

>  <REMARK>
 VINA RESULT:      -7.5      3.709      6.467
  Name = 
  2 active torsions:
  status: ('A' for Active; 'I' for Inactive)
    1  A    between atoms: C_13  and  C_29
    2  A    between atoms: C_16  and  C_27
                            x       y       z     vdW  Elec       q    Type
                         _______ _______ _______ _____ _____    ______ ____

>  <TORSDO>
F 2

$$$$
=
 OpenBabel10272413133D

 32 37  0  0  1  0  0  0  0  0999 V2000
  181.7060  179.0640  141.4950 C   0  0  1  0  0  3  0  0  0  0  0  0
  184.1160  178.8920  142.0700 C   0  0  1  0  0  3  0  0  0  0  0  0
  180.2840  178.5880  141.8270 C   0  0  0  0  0  2  0  0  0  0  0  0
  182.7250  178.4020  142.4370 C   0  0  1  0  0  3  0  0  0  0  0  0
  185.1300  178.5730  143.1550 C   0  0  0  0  0  0  0  0  0  0  0  0
  189.0180  178.3900  138.9110 C   0  0  0  0  0  2  0  0  0  0  0  0
  184.4500  178.3470  140.6770 C   0  0  1  0  0  3  0  0  0  0  0  0
  188.0720  178.4650  141.1410 N   0  0  0  0  0  0  0  0  0  0  0  0
  186.8410  178.4940  141.5200 C   0  0  0  0  0  0  0  0  0  0  0  0
  182.4110  178.5560  143.9520 C   0  0  1  0  0  3  0  0  0  0  0  0
  186.4010  178.4390  142.8790 N   0  0  0  0  0  0  0  0  0  0  0  0
  183.4030  179.2910  144.6380 O   0  0  0  0  0  0  0  0  0  0  0  0
  181.0420  179.1920  144.1920 C   0  0  0  0  0  2  0  0  0  0  0  0
  183.5380  179.0490  139.6740 C   0  0  0  0  0  2  0  0  0  0  0  0
  182.0580  178.7720  140.0130 C   0  0  2  0  0  3  0  0  0  0  0  0
  185.9080  178.5320  140.4160 C   0  0  0  0  0  0  0  0  0  0  0  0
  184.6160  178.5670  144.5730 C   0  0  2  0  0  3  0  0  0  0  0  0
  179.9820  178.5080  143.3320 C   0  0  0  0  0  2  0  0  0  0  0  0
  187.9710  178.4900  139.7180 C   0  0  0  0  0  0  0  0  0  0  0  0
  186.5730  178.4780  139.2720 C   0  0  0  0  0  3  0  0  0  0  0  0
  181.0450  179.1830  136.6150 C   0  0  0  0  0  0  0  0  0  0  0  0
  180.8530  182.7860  136.3480 O   0  0  0  0  0  0  0  0  0  0  0  0
  181.4810  178.2810  135.8510 O   0  0  0  0  0  0  0  0  0  0  0  0
  180.1040  181.6070  138.2580 C   0  0  0  0  0  2  0  0  0  0  0  0
  181.1610  179.5220  139.0630 C   0  0  0  0  0  0  0  0  0  0  0  0
  181.1070  180.5160  136.1760 O   0  0  0  0  0  0  0  0  0  0  0  0
  180.9790  180.8430  139.2010 C   0  0  0  0  0  3  0  0  0  0  0  0
  180.4650  178.7910  137.9470 C   0  0  2  0  0  3  0  0  0  0  0  0
  180.5290  177.4190  138.1310 F   0  0  0  0  0  0  0  0  0  0  0  0
  180.7100  181.6600  136.8890 C   0  0  0  0  0  0  0  0  0  0  0  0
  185.6200  179.2010  145.5240 C   0  0  0  0  0  2  0  0  0  0  0  0
  185.1960  179.0310  146.8420 O   0  0  0  0  0  1  0  0  0  0  0  0
  1  3  1  1  0  0  0
  1  4  1  0  0  0  0
  2  4  1  0  0  0  0
  2  5  1  1  0  0  0
  3 18  1  0  0  0  0
  4 10  1  0  0  0  0
  5 17  1  0  0  0  0
  6 19  2  0  0  0  0
  7  2  1  0  0  0  0
  8  9  2  0  0  0  0
  9 11  1  0  0  0  0
 10 13  1  0  0  0  0
 10 12  1  0  0  0  0
 11  5  2  0  0  0  0
 14 15  1  0  0  0  0
 14  7  1  0  0  0  0
 15  1  1  0  0  0  0
 16  7  1  0  0  0  0
 16  9  1  0  0  0  0
 17 12  1  0  0  0  0
 17 31  1  0  0  0  0
 18 13  1  0  0  0  0
 19  8  1  0  0  0  0
 20 19  1  0  0  0  0
 20 16  2  0  0  0  0
 21 28  1  0  0  0  0
 22 30  2  0  0  0  0
 23 21  2  0  0  0  0
 24 27  1  0  0  0  0
 25 27  2  0  0  0  0
 25 15  1  0  0  0  0
 26 21  1  0  0  0  0
 26 30  1  0  0  0  0
 28 29  1  0  0  0  0
 28 25  1  0  0  0  0
 30 24  1  0  0  0  0
 31 32  1  0  0  0  0
M  END
>  <MODEL>
8

>  <REMARK>
 VINA RESULT:      -7.5      4.094      7.144
  Name = 
  2 active torsions:
  status: ('A' for Active; 'I' for Inactive)
    1  A    between atoms: C_13  and  C_29
    2  A    between atoms: C_16  and  C_27
                            x       y       z     vdW  Elec       q    Type
                         _______ _______ _______ _____ _____    ______ ____

>  <TORSDO>
F 2

$$$$
=
 OpenBabel10272413133D

 32 37  0  0  1  0  0  0  0  0999 V2000
  185.6170  178.4160  143.5650 C   0  0  1  0  0  3  0  0  0  0  0  0
  183.5460  178.4350  142.1940 C   0  0  1  0  0  3  0  0  0  0  0  0
  186.3680  179.0570  144.7410 C   0  0  0  0  0  2  0  0  0  0  0  0
  184.2500  179.0920  143.3700 C   0  0  1  0  0  3  0  0  0  0  0  0
  182.0700  178.7890  142.1530 C   0  0  0  0  0  0  0  0  0  0  0  0
  182.4750  178.0940  136.4510 C   0  0  0  0  0  2  0  0  0  0  0  0
  184.3400  178.7730  140.9280 C   0  0  1  0  0  3  0  0  0  0  0  0
  181.5070  178.3800  138.6540 N   0  0  0  0  0  0  0  0  0  0  0  0
  182.0790  178.5100  139.8010 C   0  0  0  0  0  0  0  0  0  0  0  0
  183.3640  179.1540  144.6470 C   0  0  1  0  0  3  0  0  0  0  0  0
  181.3980  178.7710  141.0310 N   0  0  0  0  0  0  0  0  0  0  0  0
  182.1650  178.4200  144.5090 O   0  0  0  0  0  0  0  0  0  0  0  0
  184.1160  178.6800  145.8900 C   0  0  0  0  0  2  0  0  0  0  0  0
  185.6760  178.0400  141.0100 C   0  0  0  0  0  2  0  0  0  0  0  0
  186.4570  178.4910  142.2630 C   0  0  2  0  0  3  0  0  0  0  0  0
  183.5200  178.4240  139.7300 C   0  0  0  0  0  0  0  0  0  0  0  0
  181.3960  179.0160  143.4830 C   0  0  2  0  0  3  0  0  0  0  0  0
  185.4870  179.3480  145.9670 C   0  0  0  0  0  2  0  0  0  0  0  0
  182.6080  178.1910  137.7660 C   0  0  0  0  0  0  0  0  0  0  0  0
  183.8940  178.2760  138.4680 C   0  0  0  0  0  3  0  0  0  0  0  0
  188.7930  176.9620  144.4890 C   0  0  0  0  0  0  0  0  0  0  0  0
  191.9460  177.9510  143.0170 O   0  0  0  0  0  0  0  0  0  0  0  0
  188.3770  176.8890  145.6760 O   0  0  0  0  0  0  0  0  0  0  0  0
  190.0860  177.2820  141.7160 C   0  0  0  0  0  2  0  0  0  0  0  0
  187.7440  177.7170  142.3780 C   0  0  0  0  0  0  0  0  0  0  0  0
  190.1170  177.3760  144.2700 O   0  0  0  0  0  0  0  0  0  0  0  0
  188.7940  178.0290  141.6060 C   0  0  0  0  0  3  0  0  0  0  0  0
  187.8620  176.5900  143.3670 C   0  0  2  0  0  3  0  0  0  0  0  0
  186.6180  176.2220  143.8570 F   0  0  0  0  0  0  0  0  0  0  0  0
  190.7530  177.5560  143.0300 C   0  0  0  0  0  0  0  0  0  0  0  0
  179.9990  178.4130  143.5010 C   0  0  0  0  0  2  0  0  0  0  0  0
  179.9830  177.2800  144.3150 O   0  0  0  0  0  1  0  0  0  0  0  0
  1  3  1  1  0  0  0
  2  5  1  6  0  0  0
  2  4  1  0  0  0  0
  3 18  1  0  0  0  0
  4  1  1  0  0  0  0
  4 10  1  0  0  0  0
  5 17  1  0  0  0  0
  6 19  2  0  0  0  0
  7 14  1  0  0  0  0
  7  2  1  0  0  0  0
  8  9  2  0  0  0  0
  9 11  1  0  0  0  0
 10 13  1  0  0  0  0
 11  5  2  0  0  0  0
 12 10  1  0  0  0  0
 13 18  1  0  0  0  0
 14 15  1  0  0  0  0
 15 25  1  0  0  0  0
 15  1  1  0  0  0  0
 16  9  1  0  0  0  0
 16  7  1  0  0  0  0
 17 31  1  0  0  0  0
 17 12  1  0  0  0  0
 19 20  1  0  0  0  0
 19  8  1  0  0  0  0
 20 16  2  0  0  0  0
 21 23  2  0  0  0  0
 22 30  2  0  0  0  0
 24 30  1  0  0  0  0
 25 28  1  0  0  0  0
 26 21  1  0  0  0  0
 27 24  1  0  0  0  0
 27 25  2  0  0  0  0
 28 29  1  0  0  0  0
 28 21  1  0  0  0  0
 30 26  1  0  0  0  0
 31 32  1  0  0  0  0
M  END
>  <MODEL>
9

>  <REMARK>
 VINA RESULT:      -7.5      3.805      6.551
  Name = 
  2 active torsions:
  status: ('A' for Active; 'I' for Inactive)
    1  A    between atoms: C_13  and  C_29
    2  A    between atoms: C_16  and  C_27
                            x       y       z     vdW  Elec       q    Type
                         _______ _______ _______ _____ _____    ______ ____

>  <TORSDO>
F 2

$$$$
