=
 OpenBabel10272400573D

 25 29  0  0  1  0  0  0  0  0999 V2000
  191.0710  176.5390  142.3670 C   0  0  1  0  0  3  0  0  0  0  0  0
  191.1020  177.4070  141.2040 N   0  0  0  0  0  0  0  0  0  0  0  0
  188.5750  177.6420  143.0810 C   0  0  1  0  0  3  0  0  0  0  0  0
  191.0590  177.4170  143.6600 C   0  0  2  0  0  3  0  0  0  0  0  0
  191.8300  176.7760  139.0170 C   0  0  0  0  0  0  0  0  0  0  0  0
  188.9480  176.7920  141.8330 C   0  0  2  0  0  3  0  0  0  0  0  0
  187.5600  177.1680  145.1850 O   0  0  0  0  0  1  0  0  0  0  0  0
  189.9370  177.2270  144.7090 C   0  0  2  0  0  0  0  0  0  0  0  0
  189.3860  177.2720  139.3770 C   0  0  1  0  0  3  0  0  0  0  0  0
  189.2810  178.5480  138.5540 C   0  0  0  0  0  1  0  0  0  0  0  0
  192.1360  177.2400  140.2280 C   0  0  0  0  0  3  0  0  0  0  0  0
  189.8750  175.8070  142.2440 O   0  0  0  0  0  0  0  0  0  0  0  0
  188.5440  176.7290  144.2930 C   0  0  2  0  0  3  0  0  0  0  0  0
  190.4180  176.2960  138.7830 C   0  0  1  0  0  3  0  0  0  0  0  0
  189.8360  178.3190  143.6540 C   0  0  2  0  0  3  0  0  0  0  0  0
  190.1140  175.9420  137.3330 C   0  0  0  0  0  1  0  0  0  0  0  0
  189.7100  177.6530  140.8350 C   0  0  2  0  0  3  0  0  0  0  0  0
  190.1310  177.9000  146.0590 C   0  0  0  0  0  2  0  0  0  0  0  0
  190.5300  176.8690  147.0960 C   0  0  0  0  0  1  0  0  0  0  0  0
  192.9080  176.6070  137.9900 C   0  0  0  0  0  2  0  0  0  0  0  0
  193.6080  175.2650  138.1410 C   0  0  0  0  0  2  0  0  0  0  0  0
  195.7060  174.3270  139.1580 C   0  0  0  0  0  0  0  0  0  0  0  0
  195.2740  173.0290  138.9130 O   0  0  0  0  0  0  0  0  0  0  0  0
  196.8190  174.5190  139.7120 O   0  0  0  0  0  1  0  0  0  0  0  0
  194.9000  175.4420  138.7850 N   0  0  0  0  0  2  0  0  0  0  0  0
  1 12  1  6  0  0  0
  1  4  1  0  0  0  0
  2  1  1  0  0  0  0
  3 15  1  0  0  0  0
  3 13  1  0  0  0  0
  4  8  1  0  0  0  0
  5 11  2  0  0  0  0
  6 12  1  0  0  0  0
  6  3  1  0  0  0  0
  8 18  1  0  0  0  0
  9 17  1  0  0  0  0
 10  9  1  0  0  0  0
 11  2  1  0  0  0  0
 13  8  1  0  0  0  0
 13  7  1  0  0  0  0
 14  5  1  0  0  0  0
 14  9  1  0  0  0  0
 15  4  1  0  0  0  0
 15  8  1  0  0  0  0
 16 14  1  0  0  0  0
 17  2  1  0  0  0  0
 17  6  1  0  0  0  0
 18 19  1  0  0  0  0
 20 21  1  0  0  0  0
 20  5  1  0  0  0  0
 21 25  1  0  0  0  0
 22 24  1  0  0  0  0
 23 22  2  0  0  0  0
 25 22  1  0  0  0  0
M  END
>  <MODEL>
1

>  <REMARK>
 VINA RESULT:      -7.8      0.000      0.000
  Name = 
  4 active torsions:
  status: ('A' for Active; 'I' for Inactive)
    1  A    between atoms: C_6  and  C_15
    2  A    between atoms: C_8  and  C_11
    3  A    between atoms: C_15  and  C_25
    4  A    between atoms: N_21  and  C_25
                            x       y       z     vdW  Elec       q    Type
                         _______ _______ _______ _____ _____    ______ ____

>  <TORSDO>
F 4

$$$$
=
 OpenBabel10272400573D

 25 29  0  0  1  0  0  0  0  0999 V2000
  188.9450  176.7840  141.6860 C   0  0  1  0  0  3  0  0  0  0  0  0
  189.2880  177.8370  142.6240 N   0  0  0  0  0  0  0  0  0  0  0  0
  191.1670  177.5110  140.1090 C   0  0  1  0  0  3  0  0  0  0  0  0
  188.6150  177.4230  140.2980 C   0  0  2  0  0  3  0  0  0  0  0  0
  189.2030  177.6600  145.0060 C   0  0  0  0  0  0  0  0  0  0  0  0
  191.1400  176.9250  141.5490 C   0  0  2  0  0  3  0  0  0  0  0  0
  191.5060  176.5910  137.9360 O   0  0  0  0  0  1  0  0  0  0  0  0
  189.3740  176.9530  139.0340 C   0  0  2  0  0  0  0  0  0  0  0  0
  191.4550  177.8560  143.8910 C   0  0  1  0  0  3  0  0  0  0  0  0
  191.8460  179.2380  144.3940 C   0  0  0  0  0  1  0  0  0  0  0  0
  188.5770  177.9370  143.8630 C   0  0  0  0  0  3  0  0  0  0  0  0
  190.0930  175.9750  141.6080 O   0  0  0  0  0  0  0  0  0  0  0  0
  190.8070  176.4050  139.1320 C   0  0  2  0  0  3  0  0  0  0  0  0
  190.6020  177.0970  144.9240 C   0  0  1  0  0  3  0  0  0  0  0  0
  189.8230  178.1940  139.7920 C   0  0  2  0  0  3  0  0  0  0  0  0
  191.3000  176.9690  146.2720 C   0  0  0  0  0  1  0  0  0  0  0  0
  190.7370  178.0110  142.5370 C   0  0  2  0  0  3  0  0  0  0  0  0
  188.8240  177.4010  137.6890 C   0  0  0  0  0  2  0  0  0  0  0  0
  187.9760  176.2980  137.0880 C   0  0  0  0  0  1  0  0  0  0  0  0
  188.4650  177.7700  146.3050 C   0  0  0  0  0  2  0  0  0  0  0  0
  187.0940  177.1180  146.2170 C   0  0  0  0  0  2  0  0  0  0  0  0
  185.1220  178.5180  145.5320 C   0  0  0  0  0  0  0  0  0  0  0  0
  185.1810  178.0120  144.2390 O   0  0  0  0  0  0  0  0  0  0  0  0
  184.2360  179.3590  145.8330 O   0  0  0  0  0  1  0  0  0  0  0  0
  186.0550  178.0890  146.5210 N   0  0  0  0  0  2  0  0  0  0  0  0
  1 12  1  6  0  0  0
  1  2  1  0  0  0  0
  2 11  1  0  0  0  0
  3  6  1  0  0  0  0
  4  1  1  0  0  0  0
  5 20  1  0  0  0  0
  6 12  1  0  0  0  0
  6 17  1  0  0  0  0
  7 13  1  0  0  0  0
  8 13  1  0  0  0  0
  8 15  1  0  0  0  0
  8  4  1  0  0  0  0
  9 10  1  0  0  0  0
  9 14  1  0  0  0  0
 11  5  2  0  0  0  0
 13  3  1  0  0  0  0
 14  5  1  0  0  0  0
 14 16  1  0  0  0  0
 15  3  1  0  0  0  0
 15  4  1  0  0  0  0
 17  2  1  0  0  0  0
 17  9  1  0  0  0  0
 18  8  1  0  0  0  0
 19 18  1  0  0  0  0
 21 20  1  0  0  0  0
 21 25  1  0  0  0  0
 22 24  1  0  0  0  0
 22 25  1  0  0  0  0
 23 22  2  0  0  0  0
M  END
>  <MODEL>
2

>  <REMARK>
 VINA RESULT:      -7.7      2.772      7.817
  Name = 
  4 active torsions:
  status: ('A' for Active; 'I' for Inactive)
    1  A    between atoms: C_6  and  C_15
    2  A    between atoms: C_8  and  C_11
    3  A    between atoms: C_15  and  C_25
    4  A    between atoms: N_21  and  C_25
                            x       y       z     vdW  Elec       q    Type
                         _______ _______ _______ _____ _____    ______ ____

>  <TORSDO>
F 4

$$$$
=
 OpenBabel10272400573D

 25 29  0  0  1  0  0  0  0  0999 V2000
  190.8880  176.4770  142.3960 C   0  0  1  0  0  3  0  0  0  0  0  0
  190.9260  177.3810  141.2610 N   0  0  0  0  0  0  0  0  0  0  0  0
  188.4980  177.7050  143.2520 C   0  0  1  0  0  3  0  0  0  0  0  0
  190.9850  177.3080  143.7150 C   0  0  2  0  0  3  0  0  0  0  0  0
  191.5210  176.7830  139.0250 C   0  0  0  0  0  0  0  0  0  0  0  0
  188.7640  176.8770  141.9620 C   0  0  2  0  0  3  0  0  0  0  0  0
  187.5430  177.2200  145.3820 O   0  0  0  0  0  1  0  0  0  0  0  0
  189.8970  177.1510  144.8060 C   0  0  2  0  0  0  0  0  0  0  0  0
  189.1300  177.4140  139.5070 C   0  0  1  0  0  3  0  0  0  0  0  0
  189.0710  178.7230  138.7310 C   0  0  0  0  0  1  0  0  0  0  0  0
  191.9060  177.1860  140.2360 C   0  0  0  0  0  3  0  0  0  0  0  0
  189.6450  175.8240  142.3010 O   0  0  0  0  0  0  0  0  0  0  0  0
  188.4590  176.7540  144.4350 C   0  0  2  0  0  3  0  0  0  0  0  0
  190.0740  176.3990  138.8370 C   0  0  1  0  0  3  0  0  0  0  0  0
  189.8210  178.2830  143.7910 C   0  0  2  0  0  3  0  0  0  0  0  0
  189.6890  176.1150  137.3910 C   0  0  0  0  0  1  0  0  0  0  0  0
  189.5370  177.7250  140.9600 C   0  0  2  0  0  3  0  0  0  0  0  0
  190.1880  177.7640  146.1670 C   0  0  0  0  0  2  0  0  0  0  0  0
  190.6950  176.6940  147.1140 C   0  0  0  0  0  1  0  0  0  0  0  0
  192.5430  176.5850  137.9470 C   0  0  0  0  0  2  0  0  0  0  0  0
  193.1980  175.2160  138.0530 C   0  0  0  0  0  2  0  0  0  0  0  0
  195.4410  174.8510  136.9810 C   0  0  0  0  0  0  0  0  0  0  0  0
  194.8470  174.2180  135.8960 O   0  0  0  0  0  0  0  0  0  0  0  0
  196.6910  174.9860  137.0160 O   0  0  0  0  0  1  0  0  0  0  0  0
  194.6450  175.3500  138.0540 N   0  0  0  0  0  2  0  0  0  0  0  0
  1 12  1  1  0  0  0
  1  4  1  0  0  0  0
  2  1  1  0  0  0  0
  3 15  1  0  0  0  0
  3 13  1  0  0  0  0
  4 15  1  0  0  0  0
  4  8  1  0  0  0  0
  5 11  2  0  0  0  0
  6 12  1  0  0  0  0
  6  3  1  0  0  0  0
  8 18  1  0  0  0  0
  9 17  1  0  0  0  0
 10  9  1  0  0  0  0
 11  2  1  0  0  0  0
 13  8  1  0  0  0  0
 13  7  1  0  0  0  0
 14  5  1  0  0  0  0
 14  9  1  0  0  0  0
 15  8  1  0  0  0  0
 16 14  1  0  0  0  0
 17  2  1  0  0  0  0
 17  6  1  0  0  0  0
 18 19  1  0  0  0  0
 20 21  1  0  0  0  0
 20  5  1  0  0  0  0
 21 25  1  0  0  0  0
 22 24  1  0  0  0  0
 22 25  1  0  0  0  0
 23 22  2  0  0  0  0
M  END
>  <MODEL>
3

>  <REMARK>
 VINA RESULT:      -7.2      1.004      1.008
  Name = 
  4 active torsions:
  status: ('A' for Active; 'I' for Inactive)
    1  A    between atoms: C_6  and  C_15
    2  A    between atoms: C_8  and  C_11
    3  A    between atoms: C_15  and  C_25
    4  A    between atoms: N_21  and  C_25
                            x       y       z     vdW  Elec       q    Type
                         _______ _______ _______ _____ _____    ______ ____

>  <TORSDO>
F 4

$$$$
=
 OpenBabel10272400573D

 25 29  0  0  1  0  0  0  0  0999 V2000
  187.5530  176.9360  143.5110 C   0  0  1  0  0  3  0  0  0  0  0  0
  186.8880  178.1900  143.2060 N   0  0  0  0  0  0  0  0  0  0  0  0
  188.4710  178.0520  145.9340 C   0  0  1  0  0  3  0  0  0  0  0  0
  189.0930  177.1850  143.6060 C   0  0  2  0  0  3  0  0  0  0  0  0
  184.7100  178.4110  142.2480 C   0  0  0  0  0  0  0  0  0  0  0  0
  187.0120  177.7470  145.4880 C   0  0  2  0  0  3  0  0  0  0  0  0
  190.0730  176.9260  147.2950 O   0  0  0  0  0  1  0  0  0  0  0  0
  189.8630  176.7710  144.8840 C   0  0  2  0  0  0  0  0  0  0  0  0
  185.0510  179.1220  144.6420 C   0  0  1  0  0  3  0  0  0  0  0  0
  184.8570  180.6220  144.4710 C   0  0  0  0  0  1  0  0  0  0  0  0
  186.0230  178.2700  142.0690 C   0  0  0  0  0  3  0  0  0  0  0  0
  187.0290  176.5380  144.7550 O   0  0  0  0  0  0  0  0  0  0  0  0
  189.1610  176.7370  146.2510 C   0  0  2  0  0  3  0  0  0  0  0  0
  184.1780  178.3220  143.6580 C   0  0  1  0  0  3  0  0  0  0  0  0
  189.3800  178.2020  144.6980 C   0  0  2  0  0  3  0  0  0  0  0  0
  182.6990  178.6600  143.7870 C   0  0  0  0  0  1  0  0  0  0  0  0
  186.5510  178.8020  144.4900 C   0  0  2  0  0  3  0  0  0  0  0  0
  191.3820  176.7780  144.8100 C   0  0  0  0  0  2  0  0  0  0  0  0
  191.8820  175.4140  144.3790 C   0  0  0  0  0  1  0  0  0  0  0  0
  183.8010  178.5030  141.0600 C   0  0  0  0  0  2  0  0  0  0  0  0
  184.4750  179.2290  139.9060 C   0  0  0  0  0  2  0  0  0  0  0  0
  185.7400  178.0380  138.0900 C   0  0  0  0  0  0  0  0  0  0  0  0
  186.9480  178.5200  138.5810 O   0  0  0  0  0  1  0  0  0  0  0  0
  185.7320  177.2960  137.0740 O   0  0  0  0  0  0  0  0  0  0  0  0
  184.5110  178.3760  138.7290 N   0  0  0  0  0  2  0  0  0  0  0  0
  1  4  1  0  0  0  0
  1 12  1  1  0  0  0
  2  1  1  0  0  0  0
  2 17  1  0  0  0  0
  3 13  1  0  0  0  0
  4 15  1  0  0  0  0
  4  8  1  0  0  0  0
  5 14  1  0  0  0  0
  6  3  1  0  0  0  0
  8 13  1  0  0  0  0
 10  9  1  0  0  0  0
 11  5  2  0  0  0  0
 11  2  1  0  0  0  0
 12  6  1  0  0  0  0
 13  7  1  0  0  0  0
 14 16  1  0  0  0  0
 14  9  1  0  0  0  0
 15  8  1  0  0  0  0
 15  3  1  0  0  0  0
 17  9  1  0  0  0  0
 17  6  1  0  0  0  0
 18  8  1  0  0  0  0
 19 18  1  0  0  0  0
 20  5  1  0  0  0  0
 21 20  1  0  0  0  0
 22 23  1  0  0  0  0
 22 25  1  0  0  0  0
 24 22  2  0  0  0  0
 25 21  1  0  0  0  0
M  END
>  <MODEL>
4

>  <REMARK>
 VINA RESULT:      -7.0      4.984      6.899
  Name = 
  4 active torsions:
  status: ('A' for Active; 'I' for Inactive)
    1  A    between atoms: C_6  and  C_15
    2  A    between atoms: C_8  and  C_11
    3  A    between atoms: C_15  and  C_25
    4  A    between atoms: N_21  and  C_25
                            x       y       z     vdW  Elec       q    Type
                         _______ _______ _______ _____ _____    ______ ____

>  <TORSDO>
F 4

$$$$
=
 OpenBabel10272400573D

 25 29  0  0  1  0  0  0  0  0999 V2000
  190.6570  176.2260  142.3420 C   0  0  1  0  0  3  0  0  0  0  0  0
  190.6910  177.1650  141.2350 N   0  0  0  0  0  0  0  0  0  0  0  0
  188.8170  177.9060  143.6650 C   0  0  1  0  0  3  0  0  0  0  0  0
  191.1870  176.9360  143.6300 C   0  0  2  0  0  3  0  0  0  0  0  0
  190.7060  176.5810  138.9180 C   0  0  0  0  0  0  0  0  0  0  0  0
  188.6410  177.1170  142.3360 C   0  0  2  0  0  3  0  0  0  0  0  0
  188.1890  177.5220  145.9330 O   0  0  0  0  0  1  0  0  0  0  0  0
  190.3150  176.9620  144.9090 C   0  0  2  0  0  0  0  0  0  0  0  0
  188.6570  177.7030  139.8650 C   0  0  1  0  0  3  0  0  0  0  0  0
  188.7590  179.0340  139.1340 C   0  0  0  0  0  1  0  0  0  0  0  0
  191.3910  176.8160  140.0360 C   0  0  0  0  0  3  0  0  0  0  0  0
  189.3020  175.8750  142.4820 O   0  0  0  0  0  0  0  0  0  0  0  0
  188.7810  176.9190  144.8190 C   0  0  2  0  0  3  0  0  0  0  0  0
  189.1990  176.5430  139.0100 C   0  0  1  0  0  3  0  0  0  0  0  0
  190.3150  178.1400  143.9450 C   0  0  2  0  0  3  0  0  0  0  0  0
  188.4970  176.4380  137.6620 C   0  0  0  0  0  1  0  0  0  0  0  0
  189.3880  177.8280  141.2160 C   0  0  2  0  0  3  0  0  0  0  0  0
  190.9880  177.4130  146.1960 C   0  0  0  0  0  2  0  0  0  0  0  0
  191.5630  176.2130  146.9220 C   0  0  0  0  0  1  0  0  0  0  0  0
  191.4350  176.2230  137.6590 C   0  0  0  0  0  2  0  0  0  0  0  0
  191.9520  174.7930  137.7090 C   0  0  0  0  0  2  0  0  0  0  0  0
  190.5210  173.5320  136.0730 C   0  0  0  0  0  0  0  0  0  0  0  0
  191.2000  174.1020  135.0020 O   0  0  0  0  0  0  0  0  0  0  0  0
  189.5860  172.7180  135.8570 O   0  0  0  0  0  1  0  0  0  0  0  0
  190.8780  173.8600  137.4140 N   0  0  0  0  0  2  0  0  0  0  0  0
  1 12  1  1  0  0  0
  1  4  1  0  0  0  0
  2  1  1  0  0  0  0
  3 15  1  0  0  0  0
  3 13  1  0  0  0  0
  4 15  1  0  0  0  0
  4  8  1  0  0  0  0
  5 14  1  0  0  0  0
  5 11  2  0  0  0  0
  6 12  1  0  0  0  0
  6  3  1  0  0  0  0
  8 18  1  0  0  0  0
  9 17  1  0  0  0  0
 10  9  1  0  0  0  0
 11  2  1  0  0  0  0
 13  8  1  0  0  0  0
 13  7  1  0  0  0  0
 14  9  1  0  0  0  0
 15  8  1  0  0  0  0
 16 14  1  0  0  0  0
 17  2  1  0  0  0  0
 17  6  1  0  0  0  0
 18 19  1  0  0  0  0
 20 21  1  0  0  0  0
 20  5  1  0  0  0  0
 22 25  1  0  0  0  0
 23 22  2  0  0  0  0
 24 22  1  0  0  0  0
 25 21  1  0  0  0  0
M  END
>  <MODEL>
5

>  <REMARK>
 VINA RESULT:      -6.7      2.382      2.698
  Name = 
  4 active torsions:
  status: ('A' for Active; 'I' for Inactive)
    1  A    between atoms: C_6  and  C_15
    2  A    between atoms: C_8  and  C_11
    3  A    between atoms: C_15  and  C_25
    4  A    between atoms: N_21  and  C_25
                            x       y       z     vdW  Elec       q    Type
                         _______ _______ _______ _____ _____    ______ ____

>  <TORSDO>
F 4

$$$$
=
 OpenBabel10272400573D

 25 29  0  0  1  0  0  0  0  0999 V2000
  187.4870  176.8480  143.8070 C   0  0  1  0  0  3  0  0  0  0  0  0
  186.8330  178.0790  143.4000 N   0  0  0  0  0  0  0  0  0  0  0  0
  188.4630  178.1660  146.1020 C   0  0  1  0  0  3  0  0  0  0  0  0
  189.0310  177.0820  143.8530 C   0  0  2  0  0  3  0  0  0  0  0  0
  184.6410  178.2450  142.4620 C   0  0  0  0  0  0  0  0  0  0  0  0
  186.9930  177.8440  145.7100 C   0  0  2  0  0  3  0  0  0  0  0  0
  190.0730  177.1450  147.5330 O   0  0  0  0  0  1  0  0  0  0  0  0
  189.8180  176.7740  145.1500 C   0  0  2  0  0  0  0  0  0  0  0  0
  185.0350  179.1650  144.7750 C   0  0  1  0  0  3  0  0  0  0  0  0
  184.8580  180.6460  144.4710 C   0  0  0  0  0  1  0  0  0  0  0  0
  185.9480  178.0680  142.2740 C   0  0  0  0  0  3  0  0  0  0  0  0
  186.9800  176.5730  145.0900 O   0  0  0  0  0  0  0  0  0  0  0  0
  189.1410  176.8750  146.5260 C   0  0  2  0  0  3  0  0  0  0  0  0
  184.1340  178.2910  143.8830 C   0  0  1  0  0  3  0  0  0  0  0  0
  189.3510  178.1890  144.8430 C   0  0  2  0  0  3  0  0  0  0  0  0
  182.6620  178.6630  144.0060 C   0  0  0  0  0  1  0  0  0  0  0  0
  186.5270  178.8100  144.6280 C   0  0  2  0  0  3  0  0  0  0  0  0
  191.3350  176.7510  145.0500 C   0  0  0  0  0  2  0  0  0  0  0  0
  191.7830  175.5070  144.3100 C   0  0  0  0  0  1  0  0  0  0  0  0
  183.7120  178.2410  141.2860 C   0  0  0  0  0  2  0  0  0  0  0  0
  184.4480  178.5930  140.0020 C   0  0  0  0  0  2  0  0  0  0  0  0
  182.8200  180.1250  138.8550 C   0  0  0  0  0  0  0  0  0  0  0  0
  181.9570  179.0640  138.6080 O   0  0  0  0  0  1  0  0  0  0  0  0
  182.5090  181.2830  138.4720 O   0  0  0  0  0  0  0  0  0  0  0  0
  184.0510  179.9130  139.5410 N   0  0  0  0  0  2  0  0  0  0  0  0
  1  4  1  0  0  0  0
  1 12  1  1  0  0  0
  2  1  1  0  0  0  0
  2 17  1  0  0  0  0
  3 13  1  0  0  0  0
  4 15  1  0  0  0  0
  4  8  1  0  0  0  0
  5 14  1  0  0  0  0
  6  3  1  0  0  0  0
  8 13  1  0  0  0  0
 10  9  1  0  0  0  0
 11  5  2  0  0  0  0
 11  2  1  0  0  0  0
 12  6  1  0  0  0  0
 13  7  1  0  0  0  0
 14 16  1  0  0  0  0
 14  9  1  0  0  0  0
 15  8  1  0  0  0  0
 15  3  1  0  0  0  0
 17  9  1  0  0  0  0
 17  6  1  0  0  0  0
 18  8  1  0  0  0  0
 19 18  1  0  0  0  0
 20  5  1  0  0  0  0
 21 20  1  0  0  0  0
 22 25  1  0  0  0  0
 23 22  1  0  0  0  0
 24 22  2  0  0  0  0
 25 21  1  0  0  0  0
M  END
>  <MODEL>
6

>  <REMARK>
 VINA RESULT:      -6.7      5.260      7.865
  Name = 
  4 active torsions:
  status: ('A' for Active; 'I' for Inactive)
    1  A    between atoms: C_6  and  C_15
    2  A    between atoms: C_8  and  C_11
    3  A    between atoms: C_15  and  C_25
    4  A    between atoms: N_21  and  C_25
                            x       y       z     vdW  Elec       q    Type
                         _______ _______ _______ _____ _____    ______ ____

>  <TORSDO>
F 4

$$$$
=
 OpenBabel10272400573D

 25 29  0  0  1  0  0  0  0  0999 V2000
  188.4580  178.3470  142.9430 C   0  0  1  0  0  3  0  0  0  0  0  0
  188.3170  177.4780  141.7880 N   0  0  0  0  0  0  0  0  0  0  0  0
  190.8610  177.0260  143.6020 C   0  0  1  0  0  3  0  0  0  0  0  0
  188.4230  177.4790  144.2420 C   0  0  2  0  0  3  0  0  0  0  0  0
  187.5930  178.1600  139.6150 C   0  0  0  0  0  0  0  0  0  0  0  0
  190.5350  177.8990  142.3570 C   0  0  2  0  0  3  0  0  0  0  0  0
  191.9690  177.4190  145.6760 O   0  0  0  0  0  1  0  0  0  0  0  0
  189.5850  177.5730  145.2610 C   0  0  2  0  0  0  0  0  0  0  0  0
  189.9910  177.4470  139.9180 C   0  0  1  0  0  3  0  0  0  0  0  0
  189.9580  176.1610  139.1030 C   0  0  0  0  0  1  0  0  0  0  0  0
  187.2780  177.7330  140.8370 C   0  0  0  0  0  3  0  0  0  0  0  0
  189.7110  178.9670  142.7840 O   0  0  0  0  0  0  0  0  0  0  0  0
  191.0060  177.9390  144.8060 C   0  0  2  0  0  3  0  0  0  0  0  0
  189.0360  178.5080  139.3420 C   0  0  1  0  0  3  0  0  0  0  0  0
  189.5590  176.4700  144.2130 C   0  0  2  0  0  3  0  0  0  0  0  0
  189.3330  178.8240  137.8810 C   0  0  0  0  0  1  0  0  0  0  0  0
  189.6720  177.1050  141.3860 C   0  0  2  0  0  3  0  0  0  0  0  0
  189.3660  176.9280  146.6210 C   0  0  0  0  0  2  0  0  0  0  0  0
  188.7890  177.9450  147.5860 C   0  0  0  0  0  1  0  0  0  0  0  0
  186.5080  178.4210  138.6150 C   0  0  0  0  0  2  0  0  0  0  0  0
  185.1490  178.5260  139.2890 C   0  0  0  0  0  2  0  0  0  0  0  0
  183.0670  179.9060  139.0160 C   0  0  0  0  0  0  0  0  0  0  0  0
  182.2910  178.8860  139.5550 O   0  0  0  0  0  1  0  0  0  0  0  0
  182.5200  180.9780  138.6490 O   0  0  0  0  0  0  0  0  0  0  0  0
  184.4770  179.7470  138.8770 N   0  0  0  0  0  2  0  0  0  0  0  0
  1 12  1  6  0  0  0
  1  4  1  0  0  0  0
  2  1  1  0  0  0  0
  3 15  1  0  0  0  0
  3 13  1  0  0  0  0
  4  8  1  0  0  0  0
  5 11  2  0  0  0  0
  6 12  1  0  0  0  0
  6  3  1  0  0  0  0
  8 18  1  0  0  0  0
  9 17  1  0  0  0  0
 10  9  1  0  0  0  0
 11  2  1  0  0  0  0
 13  8  1  0  0  0  0
 13  7  1  0  0  0  0
 14  5  1  0  0  0  0
 14  9  1  0  0  0  0
 15  4  1  0  0  0  0
 15  8  1  0  0  0  0
 16 14  1  0  0  0  0
 17  2  1  0  0  0  0
 17  6  1  0  0  0  0
 18 19  1  0  0  0  0
 20 21  1  0  0  0  0
 20  5  1  0  0  0  0
 22 23  1  0  0  0  0
 24 22  2  0  0  0  0
 25 22  1  0  0  0  0
 25 21  1  0  0  0  0
M  END
>  <MODEL>
7

>  <REMARK>
 VINA RESULT:      -6.5      3.616      6.479
  Name = 
  4 active torsions:
  status: ('A' for Active; 'I' for Inactive)
    1  A    between atoms: C_6  and  C_15
    2  A    between atoms: C_8  and  C_11
    3  A    between atoms: C_15  and  C_25
    4  A    between atoms: N_21  and  C_25
                            x       y       z     vdW  Elec       q    Type
                         _______ _______ _______ _____ _____    ______ ____

>  <TORSDO>
F 4

$$$$
=
 OpenBabel10272400573D

 25 29  0  0  1  0  0  0  0  0999 V2000
  186.9300  177.4440  144.8430 C   0  0  1  0  0  3  0  0  0  0  0  0
  188.2540  178.0270  144.7190 N   0  0  0  0  0  0  0  0  0  0  0  0
  186.2610  178.5140  142.3210 C   0  0  1  0  0  3  0  0  0  0  0  0
  185.8670  178.5900  144.8500 C   0  0  2  0  0  3  0  0  0  0  0  0
  190.3030  176.9660  145.3410 C   0  0  0  0  0  0  0  0  0  0  0  0
  187.3180  177.4290  142.6740 C   0  0  2  0  0  3  0  0  0  0  0  0
  184.0230  178.4620  141.5000 O   0  0  0  0  0  1  0  0  0  0  0  0
  184.7070  178.5690  143.8240 C   0  0  2  0  0  0  0  0  0  0  0  0
  189.8480  177.3680  142.8950 C   0  0  1  0  0  3  0  0  0  0  0  0
  190.9200  178.4150  142.6260 C   0  0  0  0  0  1  0  0  0  0  0  0
  189.2560  177.7110  145.6920 C   0  0  0  0  0  3  0  0  0  0  0  0
  186.7830  176.6260  143.7080 O   0  0  0  0  0  0  0  0  0  0  0  0
  184.8790  177.8990  142.4520 C   0  0  2  0  0  3  0  0  0  0  0  0
  190.3010  176.3540  143.9610 C   0  0  1  0  0  3  0  0  0  0  0  0
  185.9640  179.3840  143.5580 C   0  0  2  0  0  3  0  0  0  0  0  0
  191.6050  175.6610  143.5860 C   0  0  0  0  0  1  0  0  0  0  0  0
  188.5450  178.0900  143.2880 C   0  0  2  0  0  3  0  0  0  0  0  0
  183.5610  179.5420  144.0560 C   0  0  0  0  0  2  0  0  0  0  0  0
  182.3220  178.7830  144.4900 C   0  0  0  0  0  1  0  0  0  0  0  0
  191.3580  176.6400  146.3540 C   0  0  0  0  0  2  0  0  0  0  0  0
  190.8680  176.9100  147.7680 C   0  0  0  0  0  2  0  0  0  0  0  0
  193.0300  176.5280  148.9900 C   0  0  0  0  0  0  0  0  0  0  0  0
  193.0520  175.1980  148.5850 O   0  0  0  0  0  0  0  0  0  0  0  0
  193.9610  176.9760  149.7070 O   0  0  0  0  0  1  0  0  0  0  0  0
  191.9630  177.3870  148.5970 N   0  0  0  0  0  2  0  0  0  0  0  0
  1 12  1  6  0  0  0
  1  4  1  0  0  0  0
  2  1  1  0  0  0  0
  2 11  1  0  0  0  0
  3 13  1  0  0  0  0
  3  6  1  0  0  0  0
  3 15  1  0  0  0  0
  5 11  2  0  0  0  0
  5 20  1  0  0  0  0
  6 17  1  0  0  0  0
  6 12  1  0  0  0  0
  7 13  1  0  0  0  0
  8 18  1  0  0  0  0
  8  4  1  0  0  0  0
  9 17  1  0  0  0  0
  9 14  1  0  0  0  0
 10  9  1  0  0  0  0
 13  8  1  0  0  0  0
 14  5  1  0  0  0  0
 15  8  1  0  0  0  0
 15  4  1  0  0  0  0
 16 14  1  0  0  0  0
 17  2  1  0  0  0  0
 18 19  1  0  0  0  0
 20 21  1  0  0  0  0
 21 25  1  0  0  0  0
 22 24  1  0  0  0  0
 23 22  2  0  0  0  0
 25 22  1  0  0  0  0
M  END
>  <MODEL>
8

>  <REMARK>
 VINA RESULT:      -6.5      4.672      6.680
  Name = 
  4 active torsions:
  status: ('A' for Active; 'I' for Inactive)
    1  A    between atoms: C_6  and  C_15
    2  A    between atoms: C_8  and  C_11
    3  A    between atoms: C_15  and  C_25
    4  A    between atoms: N_21  and  C_25
                            x       y       z     vdW  Elec       q    Type
                         _______ _______ _______ _____ _____    ______ ____

>  <TORSDO>
F 4

$$$$
=
 OpenBabel10272400573D

 25 29  0  0  1  0  0  0  0  0999 V2000
  188.9810  177.7530  142.2140 C   0  0  1  0  0  3  0  0  0  0  0  0
  187.6890  177.2260  142.6160 N   0  0  0  0  0  0  0  0  0  0  0  0
  187.9450  178.2350  139.6360 C   0  0  1  0  0  3  0  0  0  0  0  0
  189.5620  176.8610  141.0690 C   0  0  2  0  0  3  0  0  0  0  0  0
  186.6100  177.6400  144.7080 C   0  0  0  0  0  0  0  0  0  0  0  0
  187.5410  178.8850  140.9900 C   0  0  2  0  0  3  0  0  0  0  0  0
  189.3570  178.8800  137.8270 O   0  0  0  0  0  1  0  0  0  0  0  0
  189.9800  177.5090  139.7270 C   0  0  2  0  0  0  0  0  0  0  0  0
  185.6070  178.6290  142.6180 C   0  0  1  0  0  3  0  0  0  0  0  0
  184.3280  177.8070  142.5590 C   0  0  0  0  0  1  0  0  0  0  0  0
  187.4570  176.9030  143.9910 C   0  0  0  0  0  3  0  0  0  0  0  0
  188.7180  179.0560  141.7540 O   0  0  0  0  0  0  0  0  0  0  0  0
  189.2960  178.7880  139.2210 C   0  0  2  0  0  3  0  0  0  0  0  0
  186.0490  178.8880  144.0700 C   0  0  1  0  0  3  0  0  0  0  0  0
  188.6100  176.8670  139.8850 C   0  0  2  0  0  3  0  0  0  0  0  0
  184.9660  179.5740  144.8920 C   0  0  0  0  0  1  0  0  0  0  0  0
  186.6920  177.9080  141.7940 C   0  0  2  0  0  3  0  0  0  0  0  0
  190.7890  176.6500  138.7670 C   0  0  0  0  0  2  0  0  0  0  0  0
  192.2690  176.9130  138.9630 C   0  0  0  0  0  1  0  0  0  0  0  0
  186.3580  177.3000  146.1450 C   0  0  0  0  0  2  0  0  0  0  0  0
  187.3200  178.0390  147.0630 C   0  0  0  0  0  2  0  0  0  0  0  0
  189.6660  177.1380  146.9920 C   0  0  0  0  0  0  0  0  0  0  0  0
  189.9990  178.0200  145.9700 O   0  0  0  0  0  0  0  0  0  0  0  0
  190.5320  176.3410  147.4350 O   0  0  0  0  0  1  0  0  0  0  0  0
  188.3510  177.1330  147.5440 N   0  0  0  0  0  2  0  0  0  0  0  0
  1 12  1  6  0  0  0
  1  2  1  0  0  0  0
  2 11  1  0  0  0  0
  3 15  1  0  0  0  0
  3  6  1  0  0  0  0
  4  1  1  0  0  0  0
  5 20  1  0  0  0  0
  6 12  1  0  0  0  0
  6 17  1  0  0  0  0
  7 13  1  0  0  0  0
  8 15  1  0  0  0  0
  8  4  1  0  0  0  0
  9 14  1  0  0  0  0
 10  9  1  0  0  0  0
 11  5  2  0  0  0  0
 13  3  1  0  0  0  0
 13  8  1  0  0  0  0
 14  5  1  0  0  0  0
 14 16  1  0  0  0  0
 15  4  1  0  0  0  0
 17  2  1  0  0  0  0
 17  9  1  0  0  0  0
 18 19  1  0  0  0  0
 18  8  1  0  0  0  0
 20 21  1  0  0  0  0
 21 25  1  0  0  0  0
 22 24  1  0  0  0  0
 22 25  1  0  0  0  0
 23 22  2  0  0  0  0
M  END
>  <MODEL>
9

>  <REMARK>
 VINA RESULT:      -6.5      3.513      7.248
  Name = 
  4 active torsions:
  status: ('A' for Active; 'I' for Inactive)
    1  A    between atoms: C_6  and  C_15
    2  A    between atoms: C_8  and  C_11
    3  A    between atoms: C_15  and  C_25
    4  A    between atoms: N_21  and  C_25
                            x       y       z     vdW  Elec       q    Type
                         _______ _______ _______ _____ _____    ______ ____

>  <TORSDO>
F 4

$$$$
