=
 OpenBabel10272414343D

 43 48  0  0  1  0  0  0  0  0999 V2000
  191.1230  176.5320  146.9360 C   0  0  0  0  0  0  0  0  0  0  0  0
  188.9350  178.0290  142.6220 C   0  0  0  0  0  0  0  0  0  0  0  0
  190.6310  176.8190  144.5760 C   0  0  0  0  0  0  0  0  0  0  0  0
  189.7420  177.0290  147.2780 C   0  0  0  0  0  3  0  0  0  0  0  0
  192.0010  176.1730  148.0210 C   0  0  0  0  0  1  0  0  0  0  0  0
  189.0600  176.9260  144.8810 C   0  0  1  0  0  3  0  0  0  0  0  0
  191.5340  176.4550  145.7010 C   0  0  0  0  0  3  0  0  0  0  0  0
  188.8320  177.2520  146.3360 C   0  0  0  0  0  3  0  0  0  0  0  0
  188.3500  177.9270  143.9930 C   0  0  2  0  0  3  0  0  0  0  0  0
  190.2580  177.5880  142.4060 C   0  0  0  0  0  3  0  0  0  0  0  0
  191.0710  177.0520  143.4230 N   0  0  0  0  0  0  0  0  0  0  0  0
  186.7800  177.5720  143.7890 C   0  0  0  0  0  2  0  0  0  0  0  0
  185.7010  178.7170  144.0400 C   0  0  2  0  0  3  0  0  0  0  0  0
  185.4410  179.3140  145.3340 C   0  0  0  0  0  2  0  0  0  0  0  0
  184.9910  178.2550  146.4020 C   0  0  0  0  0  1  0  0  0  0  0  0
  184.9300  179.1660  142.9040 C   0  0  0  0  0  2  0  0  0  0  0  0
  181.8620  178.0550  141.2180 C   0  0  0  0  0  2  0  0  0  0  0  0
  184.4040  178.1720  140.6030 C   0  0  2  0  0  3  0  0  0  0  0  0
  181.7210  179.1730  138.5310 O   0  0  0  0  0  0  0  0  0  0  0  0
  183.2500  178.7790  141.4310 C   0  0  2  0  0  3  0  0  0  0  0  0
  181.0020  179.2240  140.8260 C   0  0  0  0  0  2  0  0  0  0  0  0
  184.2070  178.0270  142.1610 C   0  0  2  0  0  3  0  0  0  0  0  0
  183.1140  178.8380  138.3250 C   0  0  1  0  0  3  0  0  0  0  0  0
  184.2940  179.1370  139.3110 C   0  0  0  0  0  2  0  0  0  0  0  0
  181.5210  180.0240  139.5740 C   0  0  0  0  0  2  0  0  0  0  0  0
  184.5740  177.3270  136.8010 C   0  0  0  0  0  0  0  0  0  0  0  0
  183.2730  177.7240  137.4070 N   0  0  0  0  0  2  0  0  0  0  0  0
  186.3910  174.2470  136.5210 C   0  0  0  0  0  1  0  0  0  0  0  0
  185.5880  176.1950  135.0950 C   0  0  0  0  0  2  0  0  0  0  0  0
  186.2910  175.7800  136.3370 C   0  0  1  0  0  3  0  0  0  0  0  0
  184.5410  177.1140  135.5470 N   0  0  0  0  0  0  0  0  0  0  0  0
  185.5300  176.3670  137.5090 C   0  0  0  0  0  2  0  0  0  0  0  0
  188.3160  178.7960  141.6100 O   0  0  0  0  0  0  0  0  0  0  0  0
  187.8620  178.2340  140.3750 C   0  0  0  0  0  2  0  0  0  0  0  0
  188.6980  178.7220  139.1490 C   0  0  0  0  0  2  0  0  0  0  0  0
  189.9260  175.6600  137.5000 C   0  0  0  0  0  3  0  0  0  0  0  0
  190.0800  176.1200  136.1670 C   0  0  0  0  0  0  0  0  0  0  0  0
  188.9720  178.1880  136.7840 C   0  0  0  0  0  3  0  0  0  0  0  0
  189.4070  176.4420  138.4450 C   0  0  0  0  0  3  0  0  0  0  0  0
  188.9540  177.7420  138.1320 C   0  0  0  0  0  0  0  0  0  0  0  0
  189.5260  177.3550  135.8400 C   0  0  0  0  0  3  0  0  0  0  0  0
  191.8170  176.1120  134.5380 N   0  0  0  0  0  2  0  0  0  0  0  0
  190.8580  175.4500  135.1500 C   0  0  0  0  0  3  0  0  0  0  0  0
  1  4  1  0  0  0  0
  1  5  1  0  0  0  0
  2  9  1  0  0  0  0
  3  6  1  0  0  0  0
  3  7  1  0  0  0  0
  6  8  1  1  0  0  0
  7  1  2  0  0  0  0
  8  4  2  0  0  0  0
  9 12  1  6  0  0  0
  9  6  1  0  0  0  0
 10  2  2  0  0  0  0
 10 11  1  0  0  0  0
 11  3  2  0  0  0  0
 12 13  1  0  0  0  0
 13 16  1  1  0  0  0
 13 14  1  0  0  0  0
 14 15  1  0  0  0  0
 18 24  1  1  0  0  0
 18 20  1  0  0  0  0
 18 22  1  0  0  0  0
 19 25  1  0  0  0  0
 20 17  1  6  0  0  0
 20 22  1  0  0  0  0
 21 17  1  0  0  0  0
 22 16  1  1  0  0  0
 23 27  1  1  0  0  0
 23 19  1  0  0  0  0
 23 24  1  0  0  0  0
 25 21  1  0  0  0  0
 26 27  1  0  0  0  0
 26 32  1  0  0  0  0
 29 31  1  0  0  0  0
 29 30  1  0  0  0  0
 30 28  1  1  0  0  0
 30 32  1  0  0  0  0
 31 26  2  0  0  0  0
 33  2  1  0  0  0  0
 34 33  1  0  0  0  0
 35 34  1  0  0  0  0
 36 39  1  0  0  0  0
 37 36  2  0  0  0  0
 38 40  1  0  0  0  0
 40 39  2  0  0  0  0
 40 35  1  0  0  0  0
 41 37  1  0  0  0  0
 41 38  2  0  0  0  0
 42 43  2  0  0  0  0
 43 37  1  0  0  0  0
M  END
>  <MODEL>
1

>  <REMARK>
 VINA RESULT:      -8.7      0.000      0.000
  Name = 
  11 active torsions:
  status: ('A' for Active; 'I' for Inactive)
    1  A    between atoms: C_1  and  C_35
    2  A    between atoms: C_1  and  C_38
    3  A    between atoms: C_2  and  C_13
    4  A    between atoms: C_6  and  C_13
    5  A    between atoms: C_6  and  C_17
    6  A    between atoms: C_8  and  O_34
    7  A    between atoms: C_13  and  C_27
    8  A    between atoms: N_14  and  C_22
    9  A    between atoms: C_19  and  C_37
   10  A    between atoms: C_27  and  C_30
   11  A    between atoms: O_34  and  C_38
                            x       y       z     vdW  Elec       q    Type
                         _______ _______ _______ _____ _____    ______ ____

>  <TORSDO>
F 11

$$$$
=
 OpenBabel10272414343D

 43 48  0  0  1  0  0  0  0  0999 V2000
  191.1920  176.5520  146.7710 C   0  0  0  0  0  0  0  0  0  0  0  0
  187.1450  177.6450  143.9310 C   0  0  0  0  0  0  0  0  0  0  0  0
  188.9960  177.3240  146.0830 C   0  0  0  0  0  0  0  0  0  0  0  0
  191.6370  176.5550  145.3310 C   0  0  0  0  0  3  0  0  0  0  0  0
  192.1400  176.1330  147.7720 C   0  0  0  0  0  1  0  0  0  0  0  0
  189.5570  177.7460  144.6420 C   0  0  1  0  0  3  0  0  0  0  0  0
  189.9780  176.8860  147.1100 C   0  0  0  0  0  3  0  0  0  0  0  0
  190.8690  177.0530  144.3680 C   0  0  0  0  0  3  0  0  0  0  0  0
  188.5720  177.4840  143.5210 C   0  0  2  0  0  3  0  0  0  0  0  0
  186.8130  177.5730  145.3010 C   0  0  0  0  0  3  0  0  0  0  0  0
  187.7620  177.3550  146.3170 N   0  0  0  0  0  0  0  0  0  0  0  0
  188.7930  178.4770  142.2560 C   0  0  0  0  0  2  0  0  0  0  0  0
  189.5800  177.9270  140.9840 C   0  0  2  0  0  3  0  0  0  0  0  0
  190.6730  176.9790  141.0570 C   0  0  0  0  0  2  0  0  0  0  0  0
  191.4890  176.9010  139.7190 C   0  0  0  0  0  1  0  0  0  0  0  0
  189.1810  178.4250  139.6880 C   0  0  0  0  0  2  0  0  0  0  0  0
  186.7400  178.2410  136.9510 C   0  0  0  0  0  2  0  0  0  0  0  0
  188.1080  176.5130  138.3640 C   0  0  2  0  0  3  0  0  0  0  0  0
  187.7020  176.4610  134.8530 O   0  0  0  0  0  0  0  0  0  0  0  0
  188.0500  177.9430  137.7830 C   0  0  2  0  0  3  0  0  0  0  0  0
  187.3420  178.7010  135.6520 C   0  0  0  0  0  2  0  0  0  0  0  0
  187.8510  177.8350  139.1840 C   0  0  2  0  0  3  0  0  0  0  0  0
  188.1020  175.5010  135.8600 C   0  0  1  0  0  3  0  0  0  0  0  0
  188.9230  175.8080  137.1580 C   0  0  0  0  0  2  0  0  0  0  0  0
  188.3210  177.6670  134.9830 C   0  0  0  0  0  2  0  0  0  0  0  0
  186.1020  174.1600  136.8270 C   0  0  0  0  0  0  0  0  0  0  0  0
  187.2320  174.3380  135.8740 N   0  0  0  0  0  2  0  0  0  0  0  0
  182.6260  173.3390  136.4940 C   0  0  0  0  0  1  0  0  0  0  0  0
  184.6920  172.6570  137.8130 C   0  0  0  0  0  2  0  0  0  0  0  0
  183.8360  173.7810  137.3520 C   0  0  1  0  0  3  0  0  0  0  0  0
  186.0450  173.0190  137.3870 N   0  0  0  0  0  0  0  0  0  0  0  0
  184.7070  174.7110  136.5310 C   0  0  0  0  0  2  0  0  0  0  0  0
  186.0950  177.5890  142.9880 O   0  0  0  0  0  0  0  0  0  0  0  0
  185.2010  178.6820  142.7520 C   0  0  0  0  0  2  0  0  0  0  0  0
  185.2630  179.2020  141.2800 C   0  0  0  0  0  2  0  0  0  0  0  0
  182.7430  177.0440  139.6680 C   0  0  0  0  0  3  0  0  0  0  0  0
  182.6390  177.6620  138.3950 C   0  0  0  0  0  0  0  0  0  0  0  0
  184.0130  179.4900  139.2050 C   0  0  0  0  0  3  0  0  0  0  0  0
  183.5020  177.5650  140.6290 C   0  0  0  0  0  3  0  0  0  0  0  0
  184.1950  178.7780  140.4190 C   0  0  0  0  0  0  0  0  0  0  0  0
  183.2290  178.9130  138.2330 C   0  0  0  0  0  3  0  0  0  0  0  0
  182.0680  177.6990  136.0830 N   0  0  0  0  0  2  0  0  0  0  0  0
  182.0590  177.0450  137.2250 C   0  0  0  0  0  3  0  0  0  0  0  0
  1  7  2  0  0  0  0
  1  5  1  0  0  0  0
  2 10  2  0  0  0  0
  3 11  2  0  0  0  0
  3  7  1  0  0  0  0
  4  1  1  0  0  0  0
  6  8  1  6  0  0  0
  6  3  1  0  0  0  0
  8  4  2  0  0  0  0
  9 12  1  6  0  0  0
  9  2  1  0  0  0  0
  9  6  1  0  0  0  0
 10 11  1  0  0  0  0
 13 16  1  1  0  0  0
 13 14  1  0  0  0  0
 13 12  1  0  0  0  0
 15 14  1  0  0  0  0
 18 24  1  1  0  0  0
 18 22  1  0  0  0  0
 19 25  1  0  0  0  0
 19 23  1  0  0  0  0
 20 17  1  6  0  0  0
 20 18  1  0  0  0  0
 20 22  1  0  0  0  0
 21 17  1  0  0  0  0
 22 16  1  1  0  0  0
 23 27  1  1  0  0  0
 23 24  1  0  0  0  0
 25 21  1  0  0  0  0
 26 31  2  0  0  0  0
 27 26  1  0  0  0  0
 30 28  1  6  0  0  0
 30 29  1  0  0  0  0
 31 29  1  0  0  0  0
 32 26  1  0  0  0  0
 32 30  1  0  0  0  0
 33  2  1  0  0  0  0
 34 33  1  0  0  0  0
 35 34  1  0  0  0  0
 36 39  1  0  0  0  0
 37 36  2  0  0  0  0
 38 40  1  0  0  0  0
 40 39  2  0  0  0  0
 40 35  1  0  0  0  0
 41 37  1  0  0  0  0
 41 38  2  0  0  0  0
 42 43  2  0  0  0  0
 43 37  1  0  0  0  0
M  END
>  <MODEL>
2

>  <REMARK>
 VINA RESULT:      -8.2      2.186      5.455
  Name = 
  11 active torsions:
  status: ('A' for Active; 'I' for Inactive)
    1  A    between atoms: C_1  and  C_35
    2  A    between atoms: C_1  and  C_38
    3  A    between atoms: C_2  and  C_13
    4  A    between atoms: C_6  and  C_13
    5  A    between atoms: C_6  and  C_17
    6  A    between atoms: C_8  and  O_34
    7  A    between atoms: C_13  and  C_27
    8  A    between atoms: N_14  and  C_22
    9  A    between atoms: C_19  and  C_37
   10  A    between atoms: C_27  and  C_30
   11  A    between atoms: O_34  and  C_38
                            x       y       z     vdW  Elec       q    Type
                         _______ _______ _______ _____ _____    ______ ____

>  <TORSDO>
F 11

$$$$
=
 OpenBabel10272414343D

 43 48  0  0  1  0  0  0  0  0999 V2000
  188.0800  177.7730  147.1800 C   0  0  0  0  0  0  0  0  0  0  0  0
  187.7210  178.0380  142.1360 C   0  0  0  0  0  0  0  0  0  0  0  0
  188.5240  177.4540  144.8150 C   0  0  0  0  0  0  0  0  0  0  0  0
  186.6850  178.2350  146.8500 C   0  0  0  0  0  3  0  0  0  0  0  0
  188.4750  177.7470  148.5660 C   0  0  0  0  0  1  0  0  0  0  0  0
  186.9580  177.5160  144.4770 C   0  0  1  0  0  3  0  0  0  0  0  0
  188.9260  177.4350  146.2470 C   0  0  0  0  0  3  0  0  0  0  0  0
  186.2030  178.1600  145.6140 C   0  0  0  0  0  3  0  0  0  0  0  0
  186.6590  178.2230  143.1710 C   0  0  2  0  0  3  0  0  0  0  0  0
  189.0170  177.6560  142.5450 C   0  0  0  0  0  3  0  0  0  0  0  0
  189.3720  177.4370  143.8890 N   0  0  0  0  0  0  0  0  0  0  0  0
  185.2750  177.7160  142.4930 C   0  0  0  0  0  2  0  0  0  0  0  0
  184.0270  178.7070  142.4740 C   0  0  2  0  0  3  0  0  0  0  0  0
  183.6210  179.5170  143.6040 C   0  0  0  0  0  2  0  0  0  0  0  0
  182.6070  178.7700  144.5410 C   0  0  0  0  0  1  0  0  0  0  0  0
  183.2550  178.7810  141.2550 C   0  0  0  0  0  2  0  0  0  0  0  0
  181.3590  176.8430  138.7780 C   0  0  0  0  0  2  0  0  0  0  0  0
  183.8900  177.3090  139.2580 C   0  0  2  0  0  3  0  0  0  0  0  0
  182.3270  177.4130  136.0890 O   0  0  0  0  0  0  0  0  0  0  0  0
  182.4410  177.8350  139.3620 C   0  0  2  0  0  3  0  0  0  0  0  0
  180.6650  177.7450  137.7960 C   0  0  0  0  0  2  0  0  0  0  0  0
  183.0370  177.4140  140.5800 C   0  0  2  0  0  3  0  0  0  0  0  0
  183.6910  177.3060  136.5650 C   0  0  1  0  0  3  0  0  0  0  0  0
  184.2820  177.9890  137.8440 C   0  0  0  0  0  2  0  0  0  0  0  0
  181.6140  178.3870  136.7170 C   0  0  0  0  0  2  0  0  0  0  0  0
  184.6140  174.9130  136.9570 C   0  0  0  0  0  0  0  0  0  0  0  0
  184.3350  176.0930  136.0930 N   0  0  0  0  0  2  0  0  0  0  0  0
  183.9710  171.3930  136.7040 C   0  0  0  0  0  1  0  0  0  0  0  0
  185.8650  173.0170  137.2040 C   0  0  0  0  0  2  0  0  0  0  0  0
  184.4630  172.6250  137.5020 C   0  0  1  0  0  3  0  0  0  0  0  0
  185.7900  174.4360  136.8520 N   0  0  0  0  0  0  0  0  0  0  0  0
  183.5780  173.8100  137.1710 C   0  0  0  0  0  2  0  0  0  0  0  0
  187.5480  178.4960  140.8110 O   0  0  0  0  0  0  0  0  0  0  0  0
  188.5940  178.4650  139.8350 C   0  0  0  0  0  2  0  0  0  0  0  0
  188.4430  177.2780  138.8300 C   0  0  0  0  0  2  0  0  0  0  0  0
  192.0300  176.4520  138.5880 C   0  0  0  0  0  3  0  0  0  0  0  0
  192.1350  176.1270  137.2110 C   0  0  0  0  0  0  0  0  0  0  0  0
  189.7180  176.2300  137.0330 C   0  0  0  0  0  3  0  0  0  0  0  0
  190.8540  176.7350  139.1430 C   0  0  0  0  0  3  0  0  0  0  0  0
  189.6670  176.6770  138.3790 C   0  0  0  0  0  0  0  0  0  0  0  0
  190.9540  175.9580  136.4940 C   0  0  0  0  0  3  0  0  0  0  0  0
  194.4930  175.8050  137.1200 N   0  0  0  0  0  2  0  0  0  0  0  0
  193.3760  176.0620  136.4740 C   0  0  0  0  0  3  0  0  0  0  0  0
  1  5  1  0  0  0  0
  2 10  2  0  0  0  0
  2  9  1  0  0  0  0
  3  7  1  0  0  0  0
  4  1  1  0  0  0  0
  6  3  1  0  0  0  0
  6  8  1  1  0  0  0
  7  1  2  0  0  0  0
  8  4  2  0  0  0  0
  9 12  1  6  0  0  0
  9  6  1  0  0  0  0
 10 11  1  0  0  0  0
 11  3  2  0  0  0  0
 13 16  1  1  0  0  0
 13 12  1  0  0  0  0
 13 14  1  0  0  0  0
 14 15  1  0  0  0  0
 18 24  1  1  0  0  0
 18 20  1  0  0  0  0
 18 22  1  0  0  0  0
 19 23  1  0  0  0  0
 19 25  1  0  0  0  0
 20 17  1  6  0  0  0
 20 22  1  0  0  0  0
 21 17  1  0  0  0  0
 22 16  1  1  0  0  0
 23 27  1  1  0  0  0
 23 24  1  0  0  0  0
 25 21  1  0  0  0  0
 26 32  1  0  0  0  0
 27 26  1  0  0  0  0
 29 30  1  0  0  0  0
 30 28  1  6  0  0  0
 31 26  2  0  0  0  0
 31 29  1  0  0  0  0
 32 30  1  0  0  0  0
 33  2  1  0  0  0  0
 34 33  1  0  0  0  0
 35 34  1  0  0  0  0
 36 39  1  0  0  0  0
 37 36  2  0  0  0  0
 38 40  1  0  0  0  0
 40 35  1  0  0  0  0
 40 39  2  0  0  0  0
 41 38  2  0  0  0  0
 41 37  1  0  0  0  0
 43 42  2  0  0  0  0
 43 37  1  0  0  0  0
M  END
>  <MODEL>
3

>  <REMARK>
 VINA RESULT:      -8.1      1.913      2.609
  Name = 
  11 active torsions:
  status: ('A' for Active; 'I' for Inactive)
    1  A    between atoms: C_1  and  C_35
    2  A    between atoms: C_1  and  C_38
    3  A    between atoms: C_2  and  C_13
    4  A    between atoms: C_6  and  C_13
    5  A    between atoms: C_6  and  C_17
    6  A    between atoms: C_8  and  O_34
    7  A    between atoms: C_13  and  C_27
    8  A    between atoms: N_14  and  C_22
    9  A    between atoms: C_19  and  C_37
   10  A    between atoms: C_27  and  C_30
   11  A    between atoms: O_34  and  C_38
                            x       y       z     vdW  Elec       q    Type
                         _______ _______ _______ _____ _____    ______ ____

>  <TORSDO>
F 11

$$$$
=
 OpenBabel10272414343D

 43 48  0  0  1  0  0  0  0  0999 V2000
  191.5440  174.4140  136.3700 C   0  0  0  0  0  0  0  0  0  0  0  0
  188.9620  177.8060  139.1030 C   0  0  0  0  0  0  0  0  0  0  0  0
  191.0150  176.2640  137.8500 C   0  0  0  0  0  0  0  0  0  0  0  0
  190.1330  174.4420  135.8410 C   0  0  0  0  0  3  0  0  0  0  0  0
  192.4460  173.4230  135.8400 C   0  0  0  0  0  1  0  0  0  0  0  0
  189.6840  176.5940  137.0190 C   0  0  1  0  0  3  0  0  0  0  0  0
  191.9390  175.2360  137.3020 C   0  0  0  0  0  3  0  0  0  0  0  0
  189.2840  175.4060  136.1800 C   0  0  0  0  0  3  0  0  0  0  0  0
  188.5320  177.0400  137.8950 C   0  0  2  0  0  3  0  0  0  0  0  0
  190.2920  177.6760  139.5590 C   0  0  0  0  0  3  0  0  0  0  0  0
  191.2480  176.8540  138.9340 N   0  0  0  0  0  0  0  0  0  0  0  0
  187.4840  177.9950  137.1050 C   0  0  0  0  0  2  0  0  0  0  0  0
  186.0970  177.3740  136.6280 C   0  0  2  0  0  3  0  0  0  0  0  0
  185.8940  176.7390  135.3420 C   0  0  0  0  0  2  0  0  0  0  0  0
  184.6270  177.2880  134.5970 C   0  0  0  0  0  1  0  0  0  0  0  0
  184.9770  177.4700  137.5360 C   0  0  0  0  0  2  0  0  0  0  0  0
  183.0230  180.2120  139.0030 C   0  0  0  0  0  2  0  0  0  0  0  0
  184.6810  178.3980  139.9050 C   0  0  2  0  0  3  0  0  0  0  0  0
  181.5830  179.2820  141.3600 O   0  0  0  0  0  0  0  0  0  0  0  0
  183.6380  178.7670  138.8270 C   0  0  2  0  0  3  0  0  0  0  0  0
  181.5560  179.8820  139.0310 C   0  0  0  0  0  2  0  0  0  0  0  0
  184.9920  178.7460  138.3990 C   0  0  2  0  0  3  0  0  0  0  0  0
  182.7760  178.5940  141.8090 C   0  0  1  0  0  3  0  0  0  0  0  0
  183.6870  177.6590  140.9440 C   0  0  0  0  0  2  0  0  0  0  0  0
  181.1400  178.8530  140.1470 C   0  0  0  0  0  2  0  0  0  0  0  0
  183.9010  178.5350  144.1470 C   0  0  0  0  0  0  0  0  0  0  0  0
  183.3830  179.2550  142.9510 N   0  0  0  0  0  2  0  0  0  0  0  0
  186.9920  178.5650  145.9680 C   0  0  0  0  0  1  0  0  0  0  0  0
  184.4810  178.7200  146.3490 C   0  0  0  0  0  2  0  0  0  0  0  0
  185.5870  177.9740  145.6950 C   0  0  1  0  0  3  0  0  0  0  0  0
  183.5440  179.0250  145.2660 N   0  0  0  0  0  0  0  0  0  0  0  0
  185.3280  177.9910  144.2020 C   0  0  0  0  0  2  0  0  0  0  0  0
  188.0250  178.4300  139.9550 O   0  0  0  0  0  0  0  0  0  0  0  0
  188.2550  178.6270  141.3540 C   0  0  0  0  0  2  0  0  0  0  0  0
  188.3700  177.2830  142.1410 C   0  0  0  0  0  2  0  0  0  0  0  0
  191.1810  175.7460  143.9680 C   0  0  0  0  0  3  0  0  0  0  0  0
  191.2910  176.6270  145.0750 C   0  0  0  0  0  0  0  0  0  0  0  0
  189.6960  178.1140  144.0120 C   0  0  0  0  0  3  0  0  0  0  0  0
  190.3200  175.9830  142.9810 C   0  0  0  0  0  3  0  0  0  0  0  0
  189.5210  177.1460  142.9880 C   0  0  0  0  0  0  0  0  0  0  0  0
  190.5870  177.8270  145.0200 C   0  0  0  0  0  3  0  0  0  0  0  0
  191.5250  176.7860  147.4400 N   0  0  0  0  0  2  0  0  0  0  0  0
  191.9950  176.3250  146.3000 C   0  0  0  0  0  3  0  0  0  0  0  0
  1  7  2  0  0  0  0
  2 10  2  0  0  0  0
  2 33  1  0  0  0  0
  3 11  2  0  0  0  0
  4  8  2  0  0  0  0
  4  1  1  0  0  0  0
  5  1  1  0  0  0  0
  6  8  1  1  0  0  0
  6  3  1  0  0  0  0
  6  9  1  0  0  0  0
  7  3  1  0  0  0  0
  9 12  1  6  0  0  0
  9  2  1  0  0  0  0
 11 10  1  0  0  0  0
 13 14  1  6  0  0  0
 13 12  1  0  0  0  0
 13 16  1  0  0  0  0
 15 14  1  0  0  0  0
 17 21  1  0  0  0  0
 18 24  1  6  0  0  0
 19 23  1  0  0  0  0
 20 17  1  1  0  0  0
 20 18  1  0  0  0  0
 21 25  1  0  0  0  0
 22 16  1  6  0  0  0
 22 20  1  0  0  0  0
 22 18  1  0  0  0  0
 23 27  1  6  0  0  0
 24 23  1  0  0  0  0
 25 19  1  0  0  0  0
 26 32  1  0  0  0  0
 26 31  2  0  0  0  0
 27 26  1  0  0  0  0
 30 28  1  6  0  0  0
 30 29  1  0  0  0  0
 31 29  1  0  0  0  0
 32 30  1  0  0  0  0
 33 34  1  0  0  0  0
 34 35  1  0  0  0  0
 35 40  1  0  0  0  0
 36 37  1  0  0  0  0
 37 43  1  0  0  0  0
 38 41  1  0  0  0  0
 39 40  1  0  0  0  0
 39 36  2  0  0  0  0
 40 38  2  0  0  0  0
 41 37  2  0  0  0  0
 43 42  2  0  0  0  0
M  END
>  <MODEL>
4

>  <REMARK>
 VINA RESULT:      -8.1      2.188      7.487
  Name = 
  11 active torsions:
  status: ('A' for Active; 'I' for Inactive)
    1  A    between atoms: C_1  and  C_35
    2  A    between atoms: C_1  and  C_38
    3  A    between atoms: C_2  and  C_13
    4  A    between atoms: C_6  and  C_13
    5  A    between atoms: C_6  and  C_17
    6  A    between atoms: C_8  and  O_34
    7  A    between atoms: C_13  and  C_27
    8  A    between atoms: N_14  and  C_22
    9  A    between atoms: C_19  and  C_37
   10  A    between atoms: C_27  and  C_30
   11  A    between atoms: O_34  and  C_38
                            x       y       z     vdW  Elec       q    Type
                         _______ _______ _______ _____ _____    ______ ____

>  <TORSDO>
F 11

$$$$
=
 OpenBabel10272414343D

 43 48  0  0  1  0  0  0  0  0999 V2000
  184.9990  178.5150  145.2990 C   0  0  0  0  0  0  0  0  0  0  0  0
  182.9510  178.5850  140.6690 C   0  0  0  0  0  0  0  0  0  0  0  0
  183.4540  178.8890  143.4650 C   0  0  0  0  0  0  0  0  0  0  0  0
  186.1130  178.2970  144.3080 C   0  0  0  0  0  3  0  0  0  0  0  0
  185.3090  178.4030  146.7020 C   0  0  0  0  0  1  0  0  0  0  0  0
  184.6680  179.0920  142.4380 C   0  0  1  0  0  3  0  0  0  0  0  0
  183.7800  178.7670  144.9110 C   0  0  0  0  0  3  0  0  0  0  0  0
  185.9380  178.5130  143.0090 C   0  0  0  0  0  3  0  0  0  0  0  0
  184.3890  178.5130  141.0660 C   0  0  2  0  0  3  0  0  0  0  0  0
  181.9690  178.7360  141.6730 C   0  0  0  0  0  3  0  0  0  0  0  0
  182.2720  178.8230  143.0440 N   0  0  0  0  0  0  0  0  0  0  0  0
  185.2190  179.2670  139.8930 C   0  0  0  0  0  2  0  0  0  0  0  0
  186.2200  178.4110  138.9960 C   0  0  2  0  0  3  0  0  0  0  0  0
  185.8040  177.5880  137.8800 C   0  0  0  0  0  2  0  0  0  0  0  0
  186.6670  177.8420  136.5940 C   0  0  0  0  0  1  0  0  0  0  0  0
  187.6230  178.4540  139.3400 C   0  0  0  0  0  2  0  0  0  0  0  0
  190.4480  176.1680  139.8690 C   0  0  0  0  0  2  0  0  0  0  0  0
  188.8000  177.5020  141.4050 C   0  0  2  0  0  3  0  0  0  0  0  0
  192.3040  177.2860  141.8180 O   0  0  0  0  0  0  0  0  0  0  0  0
  189.5250  177.4380  140.0420 C   0  0  2  0  0  3  0  0  0  0  0  0
  191.7540  176.8260  139.5220 C   0  0  0  0  0  2  0  0  0  0  0  0
  188.1310  177.1680  140.0170 C   0  0  2  0  0  3  0  0  0  0  0  0
  191.1860  177.6560  142.6610 C   0  0  1  0  0  3  0  0  0  0  0  0
  189.8850  178.3970  142.2020 C   0  0  0  0  0  2  0  0  0  0  0  0
  192.2650  177.8660  140.5880 C   0  0  0  0  0  2  0  0  0  0  0  0
  190.8580  177.3380  145.2160 C   0  0  0  0  0  0  0  0  0  0  0  0
  191.0990  176.8150  143.8420 N   0  0  0  0  0  2  0  0  0  0  0  0
  188.5520  176.5470  147.8480 C   0  0  0  0  0  1  0  0  0  0  0  0
  191.0400  176.9070  147.4520 C   0  0  0  0  0  2  0  0  0  0  0  0
  189.6670  177.4370  147.2470 C   0  0  1  0  0  3  0  0  0  0  0  0
  191.6310  176.8710  146.1130 N   0  0  0  0  0  0  0  0  0  0  0  0
  189.4440  177.5630  145.7540 C   0  0  0  0  0  2  0  0  0  0  0  0
  182.5240  178.2330  139.3690 O   0  0  0  0  0  0  0  0  0  0  0  0
  181.7470  177.0630  139.0950 C   0  0  0  0  0  2  0  0  0  0  0  0
  181.7200  176.7010  137.5760 C   0  0  0  0  0  2  0  0  0  0  0  0
  184.3080  174.0770  137.7210 C   0  0  0  0  0  3  0  0  0  0  0  0
  184.8990  174.2170  136.4390 C   0  0  0  0  0  0  0  0  0  0  0  0
  183.1280  175.7560  135.8230 C   0  0  0  0  0  3  0  0  0  0  0  0
  183.2430  174.7940  138.0710 C   0  0  0  0  0  3  0  0  0  0  0  0
  182.6440  175.6860  137.1550 C   0  0  0  0  0  0  0  0  0  0  0  0
  184.2370  175.0080  135.5030 C   0  0  0  0  0  3  0  0  0  0  0  0
  187.2780  174.3300  136.4270 N   0  0  0  0  0  2  0  0  0  0  0  0
  186.1890  173.6840  136.0660 C   0  0  0  0  0  3  0  0  0  0  0  0
  1  5  1  0  0  0  0
  2  9  1  0  0  0  0
  2 10  2  0  0  0  0
  3  7  1  0  0  0  0
  4  1  1  0  0  0  0
  6  8  1  1  0  0  0
  6  3  1  0  0  0  0
  7  1  2  0  0  0  0
  8  4  2  0  0  0  0
  9 12  1  6  0  0  0
  9  6  1  0  0  0  0
 10 11  1  0  0  0  0
 11  3  2  0  0  0  0
 13 14  1  1  0  0  0
 13 16  1  0  0  0  0
 13 12  1  0  0  0  0
 15 14  1  0  0  0  0
 18 24  1  6  0  0  0
 19 23  1  0  0  0  0
 20 17  1  1  0  0  0
 20 18  1  0  0  0  0
 21 17  1  0  0  0  0
 21 25  1  0  0  0  0
 22 16  1  6  0  0  0
 22 20  1  0  0  0  0
 22 18  1  0  0  0  0
 23 27  1  6  0  0  0
 24 23  1  0  0  0  0
 25 19  1  0  0  0  0
 26 32  1  0  0  0  0
 26 31  2  0  0  0  0
 27 26  1  0  0  0  0
 30 29  1  0  0  0  0
 30 28  1  6  0  0  0
 31 29  1  0  0  0  0
 32 30  1  0  0  0  0
 33  2  1  0  0  0  0
 34 33  1  0  0  0  0
 35 34  1  0  0  0  0
 36 39  1  0  0  0  0
 37 36  2  0  0  0  0
 38 40  1  0  0  0  0
 40 35  1  0  0  0  0
 40 39  2  0  0  0  0
 41 38  2  0  0  0  0
 41 37  1  0  0  0  0
 43 42  2  0  0  0  0
 43 37  1  0  0  0  0
M  END
>  <MODEL>
5

>  <REMARK>
 VINA RESULT:      -7.8      2.180      7.954
  Name = 
  11 active torsions:
  status: ('A' for Active; 'I' for Inactive)
    1  A    between atoms: C_1  and  C_35
    2  A    between atoms: C_1  and  C_38
    3  A    between atoms: C_2  and  C_13
    4  A    between atoms: C_6  and  C_13
    5  A    between atoms: C_6  and  C_17
    6  A    between atoms: C_8  and  O_34
    7  A    between atoms: C_13  and  C_27
    8  A    between atoms: N_14  and  C_22
    9  A    between atoms: C_19  and  C_37
   10  A    between atoms: C_27  and  C_30
   11  A    between atoms: O_34  and  C_38
                            x       y       z     vdW  Elec       q    Type
                         _______ _______ _______ _____ _____    ______ ____

>  <TORSDO>
F 11

$$$$
=
 OpenBabel10272414343D

 43 48  0  0  1  0  0  0  0  0999 V2000
  188.3560  177.8740  147.5550 C   0  0  0  0  0  0  0  0  0  0  0  0
  188.2030  177.6730  142.4980 C   0  0  0  0  0  0  0  0  0  0  0  0
  188.8480  177.2810  145.2530 C   0  0  0  0  0  0  0  0  0  0  0  0
  187.0270  178.4360  147.1200 C   0  0  0  0  0  3  0  0  0  0  0  0
  188.6970  177.9470  148.9530 C   0  0  0  0  0  1  0  0  0  0  0  0
  187.3090  177.4610  144.8410 C   0  0  1  0  0  3  0  0  0  0  0  0
  189.1950  177.3640  146.6970 C   0  0  0  0  0  3  0  0  0  0  0  0
  186.5850  178.2860  145.8760 C   0  0  0  0  0  3  0  0  0  0  0  0
  187.1300  178.0620  143.4610 C   0  0  2  0  0  3  0  0  0  0  0  0
  189.4380  177.2070  142.9980 C   0  0  0  0  0  3  0  0  0  0  0  0
  189.7220  177.0890  144.3720 N   0  0  0  0  0  0  0  0  0  0  0  0
  185.7260  177.6280  142.7730 C   0  0  0  0  0  2  0  0  0  0  0  0
  184.6070  178.7410  142.5570 C   0  0  2  0  0  3  0  0  0  0  0  0
  184.0730  179.5680  143.6200 C   0  0  0  0  0  2  0  0  0  0  0  0
  183.0870  178.7790  144.5520 C   0  0  0  0  0  1  0  0  0  0  0  0
  184.0910  178.9160  141.2190 C   0  0  0  0  0  2  0  0  0  0  0  0
  180.8350  178.6910  139.5350 C   0  0  0  0  0  2  0  0  0  0  0  0
  183.0350  177.2730  139.5610 C   0  0  2  0  0  3  0  0  0  0  0  0
  181.1990  178.1990  136.6860 O   0  0  0  0  0  0  0  0  0  0  0  0
  182.4030  178.6740  139.7240 C   0  0  2  0  0  3  0  0  0  0  0  0
  180.7010  179.7390  138.4650 C   0  0  0  0  0  2  0  0  0  0  0  0
  182.8510  178.0520  140.9200 C   0  0  2  0  0  3  0  0  0  0  0  0
  182.2010  177.2000  136.9930 C   0  0  1  0  0  3  0  0  0  0  0  0
  183.4000  177.3660  137.9890 C   0  0  0  0  0  2  0  0  0  0  0  0
  181.5140  179.4380  137.1520 C   0  0  0  0  0  2  0  0  0  0  0  0
  182.5380  174.7820  136.1130 C   0  0  0  0  0  0  0  0  0  0  0  0
  181.7180  175.8540  136.7420 N   0  0  0  0  0  2  0  0  0  0  0  0
  183.3300  171.3870  136.9590 C   0  0  0  0  0  1  0  0  0  0  0  0
  182.4930  172.7850  135.0040 C   0  0  0  0  0  2  0  0  0  0  0  0
  183.5190  172.6390  136.0690 C   0  0  1  0  0  3  0  0  0  0  0  0
  181.9570  174.1360  135.1840 N   0  0  0  0  0  0  0  0  0  0  0  0
  183.4500  173.8770  136.9420 C   0  0  0  0  0  2  0  0  0  0  0  0
  188.1250  178.0110  141.1290 O   0  0  0  0  0  0  0  0  0  0  0  0
  189.2670  178.0400  140.2670 C   0  0  0  0  0  2  0  0  0  0  0  0
  188.9630  178.7040  138.8860 C   0  0  0  0  0  2  0  0  0  0  0  0
  187.7900  175.9210  136.7690 C   0  0  0  0  0  3  0  0  0  0  0  0
  187.0530  176.6280  135.7850 C   0  0  0  0  0  0  0  0  0  0  0  0
  187.3090  178.6550  137.0940 C   0  0  0  0  0  3  0  0  0  0  0  0
  188.3320  176.5490  137.8100 C   0  0  0  0  0  3  0  0  0  0  0  0
  188.1480  177.9380  137.9860 C   0  0  0  0  0  0  0  0  0  0  0  0
  186.7770  177.9720  136.0250 C   0  0  0  0  0  3  0  0  0  0  0  0
  185.7420  175.1410  134.4660 N   0  0  0  0  0  2  0  0  0  0  0  0
  186.6570  176.0860  134.5060 C   0  0  0  0  0  3  0  0  0  0  0  0
  1  5  1  0  0  0  0
  2 10  2  0  0  0  0
  2  9  1  0  0  0  0
  3  7  1  0  0  0  0
  4  1  1  0  0  0  0
  6  3  1  0  0  0  0
  6  8  1  1  0  0  0
  7  1  2  0  0  0  0
  8  4  2  0  0  0  0
  9 12  1  6  0  0  0
  9  6  1  0  0  0  0
 10 11  1  0  0  0  0
 11  3  2  0  0  0  0
 13 16  1  1  0  0  0
 13 12  1  0  0  0  0
 13 14  1  0  0  0  0
 14 15  1  0  0  0  0
 18 24  1  6  0  0  0
 18 20  1  0  0  0  0
 18 22  1  0  0  0  0
 19 23  1  0  0  0  0
 19 25  1  0  0  0  0
 20 17  1  1  0  0  0
 20 22  1  0  0  0  0
 21 17  1  0  0  0  0
 22 16  1  6  0  0  0
 23 27  1  1  0  0  0
 23 24  1  0  0  0  0
 25 21  1  0  0  0  0
 26 27  1  0  0  0  0
 26 32  1  0  0  0  0
 29 31  1  0  0  0  0
 29 30  1  0  0  0  0
 30 32  1  0  0  0  0
 30 28  1  1  0  0  0
 31 26  2  0  0  0  0
 33  2  1  0  0  0  0
 34 33  1  0  0  0  0
 35 34  1  0  0  0  0
 36 39  1  0  0  0  0
 37 41  1  0  0  0  0
 37 36  2  0  0  0  0
 38 40  1  0  0  0  0
 39 40  2  0  0  0  0
 40 35  1  0  0  0  0
 41 38  2  0  0  0  0
 42 43  2  0  0  0  0
 43 37  1  0  0  0  0
M  END
>  <MODEL>
6

>  <REMARK>
 VINA RESULT:      -7.7      2.023      2.700
  Name = 
  11 active torsions:
  status: ('A' for Active; 'I' for Inactive)
    1  A    between atoms: C_1  and  C_35
    2  A    between atoms: C_1  and  C_38
    3  A    between atoms: C_2  and  C_13
    4  A    between atoms: C_6  and  C_13
    5  A    between atoms: C_6  and  C_17
    6  A    between atoms: C_8  and  O_34
    7  A    between atoms: C_13  and  C_27
    8  A    between atoms: N_14  and  C_22
    9  A    between atoms: C_19  and  C_37
   10  A    between atoms: C_27  and  C_30
   11  A    between atoms: O_34  and  C_38
                            x       y       z     vdW  Elec       q    Type
                         _______ _______ _______ _____ _____    ______ ____

>  <TORSDO>
F 11

$$$$
=
 OpenBabel10272414343D

 43 48  0  0  1  0  0  0  0  0999 V2000
  184.3650  178.5850  140.4690 C   0  0  0  0  0  0  0  0  0  0  0  0
  187.6340  177.0970  136.9000 C   0  0  0  0  0  0  0  0  0  0  0  0
  185.3720  178.1260  138.3080 C   0  0  0  0  0  0  0  0  0  0  0  0
  185.7180  178.4590  141.1190 C   0  0  0  0  0  3  0  0  0  0  0  0
  183.2320  178.8690  141.3130 C   0  0  0  0  0  1  0  0  0  0  0  0
  186.8370  178.4150  138.8910 C   0  0  1  0  0  3  0  0  0  0  0  0
  184.2060  178.4130  139.1860 C   0  0  0  0  0  3  0  0  0  0  0  0
  186.8260  178.3320  140.3970 C   0  0  0  0  0  3  0  0  0  0  0  0
  187.8970  177.4970  138.3150 C   0  0  2  0  0  3  0  0  0  0  0  0
  186.3210  177.1980  136.3910 C   0  0  0  0  0  3  0  0  0  0  0  0
  185.2300  177.6590  137.1510 N   0  0  0  0  0  0  0  0  0  0  0  0
  189.3740  178.1690  138.3270 C   0  0  0  0  0  2  0  0  0  0  0  0
  190.5830  177.3390  138.9490 C   0  0  2  0  0  3  0  0  0  0  0  0
  191.4300  176.4470  138.1830 C   0  0  0  0  0  2  0  0  0  0  0  0
  192.9540  176.6510  138.4970 C   0  0  0  0  0  1  0  0  0  0  0  0
  190.8290  177.4810  140.3650 C   0  0  0  0  0  2  0  0  0  0  0  0
  190.8180  175.3310  143.3420 C   0  0  0  0  0  2  0  0  0  0  0  0
  189.2890  177.2330  142.3950 C   0  0  2  0  0  3  0  0  0  0  0  0
  190.3840  176.9260  145.7420 O   0  0  0  0  0  0  0  0  0  0  0  0
  190.7140  176.6440  142.4690 C   0  0  2  0  0  3  0  0  0  0  0  0
  191.9000  175.7300  144.3070 C   0  0  0  0  0  2  0  0  0  0  0  0
  190.0390  176.4820  141.2300 C   0  0  2  0  0  3  0  0  0  0  0  0
  189.3270  177.6470  145.0640 C   0  0  1  0  0  3  0  0  0  0  0  0
  189.4040  178.2720  143.6300 C   0  0  0  0  0  2  0  0  0  0  0  0
  191.5920  177.0390  145.1260 C   0  0  0  0  0  2  0  0  0  0  0  0
  186.9120  178.2600  145.7890 C   0  0  0  0  0  0  0  0  0  0  0  0
  188.0150  177.2840  145.5690 N   0  0  0  0  0  2  0  0  0  0  0  0
  183.4620  178.4300  144.8200 C   0  0  0  0  0  1  0  0  0  0  0  0
  184.9420  178.6590  146.8770 C   0  0  0  0  0  2  0  0  0  0  0  0
  184.7200  179.0620  145.4640 C   0  0  1  0  0  3  0  0  0  0  0  0
  186.3170  178.1550  146.9100 N   0  0  0  0  0  0  0  0  0  0  0  0
  185.9410  178.6420  144.6720 C   0  0  0  0  0  2  0  0  0  0  0  0
  188.5840  176.3690  136.1500 O   0  0  0  0  0  0  0  0  0  0  0  0
  188.3190  175.0730  135.6040 C   0  0  0  0  0  2  0  0  0  0  0  0
  187.9820  174.0160  136.7040 C   0  0  0  0  0  2  0  0  0  0  0  0
  184.8970  172.7030  135.1660 C   0  0  0  0  0  3  0  0  0  0  0  0
  184.0410  172.6430  136.2960 C   0  0  0  0  0  0  0  0  0  0  0  0
  185.9370  173.1560  137.7200 C   0  0  0  0  0  3  0  0  0  0  0  0
  186.1760  173.0520  135.2850 C   0  0  0  0  0  3  0  0  0  0  0  0
  186.7280  173.3310  136.5550 C   0  0  0  0  0  0  0  0  0  0  0  0
  184.6170  172.8060  137.5530 C   0  0  0  0  0  3  0  0  0  0  0  0
  181.8630  173.3860  136.9090 N   0  0  0  0  0  2  0  0  0  0  0  0
  182.6020  172.5320  136.2330 C   0  0  0  0  0  3  0  0  0  0  0  0
  1  4  1  0  0  0  0
  1  5  1  0  0  0  0
  2  9  1  0  0  0  0
  3  6  1  0  0  0  0
  3  7  1  0  0  0  0
  6  8  1  1  0  0  0
  7  1  2  0  0  0  0
  8  4  2  0  0  0  0
  9 12  1  6  0  0  0
  9  6  1  0  0  0  0
 10  2  2  0  0  0  0
 10 11  1  0  0  0  0
 11  3  2  0  0  0  0
 12 13  1  0  0  0  0
 13 14  1  1  0  0  0
 13 16  1  0  0  0  0
 14 15  1  0  0  0  0
 17 21  1  0  0  0  0
 18 20  1  0  0  0  0
 18 24  1  6  0  0  0
 20 17  1  1  0  0  0
 21 25  1  0  0  0  0
 22 16  1  6  0  0  0
 22 18  1  0  0  0  0
 22 20  1  0  0  0  0
 23 27  1  6  0  0  0
 23 19  1  0  0  0  0
 24 23  1  0  0  0  0
 25 19  1  0  0  0  0
 26 31  2  0  0  0  0
 27 26  1  0  0  0  0
 29 31  1  0  0  0  0
 30 28  1  6  0  0  0
 30 29  1  0  0  0  0
 32 30  1  0  0  0  0
 32 26  1  0  0  0  0
 33  2  1  0  0  0  0
 34 33  1  0  0  0  0
 34 35  1  0  0  0  0
 36 39  2  0  0  0  0
 36 37  1  0  0  0  0
 37 41  2  0  0  0  0
 39 40  1  0  0  0  0
 40 35  1  0  0  0  0
 40 38  2  0  0  0  0
 41 38  1  0  0  0  0
 43 37  1  0  0  0  0
 43 42  2  0  0  0  0
M  END
>  <MODEL>
7

>  <REMARK>
 VINA RESULT:      -7.6      2.429      8.444
  Name = 
  11 active torsions:
  status: ('A' for Active; 'I' for Inactive)
    1  A    between atoms: C_1  and  C_35
    2  A    between atoms: C_1  and  C_38
    3  A    between atoms: C_2  and  C_13
    4  A    between atoms: C_6  and  C_13
    5  A    between atoms: C_6  and  C_17
    6  A    between atoms: C_8  and  O_34
    7  A    between atoms: C_13  and  C_27
    8  A    between atoms: N_14  and  C_22
    9  A    between atoms: C_19  and  C_37
   10  A    between atoms: C_27  and  C_30
   11  A    between atoms: O_34  and  C_38
                            x       y       z     vdW  Elec       q    Type
                         _______ _______ _______ _____ _____    ______ ____

>  <TORSDO>
F 11

$$$$
=
 OpenBabel10272414343D

 43 48  0  0  1  0  0  0  0  0999 V2000
  192.9750  176.1590  137.0240 C   0  0  0  0  0  0  0  0  0  0  0  0
  188.3140  177.5990  138.3790 C   0  0  0  0  0  0  0  0  0  0  0  0
  190.5690  176.4810  137.0280 C   0  0  0  0  0  0  0  0  0  0  0  0
  193.0200  176.5180  138.4860 C   0  0  0  0  0  3  0  0  0  0  0  0
  194.2180  175.8440  136.3650 C   0  0  0  0  0  1  0  0  0  0  0  0
  190.5310  176.4350  138.6310 C   0  0  1  0  0  3  0  0  0  0  0  0
  191.8560  176.1620  136.3540 C   0  0  0  0  0  3  0  0  0  0  0  0
  191.9080  176.6890  139.1930 C   0  0  0  0  0  3  0  0  0  0  0  0
  189.5260  177.3980  139.2290 C   0  0  2  0  0  3  0  0  0  0  0  0
  188.3810  177.2860  137.0040 C   0  0  0  0  0  3  0  0  0  0  0  0
  189.5400  176.7910  136.3780 N   0  0  0  0  0  0  0  0  0  0  0  0
  188.9850  176.9100  140.6790 C   0  0  0  0  0  2  0  0  0  0  0  0
  189.5760  177.6030  141.9860 C   0  0  2  0  0  3  0  0  0  0  0  0
  190.9850  177.6290  142.3210 C   0  0  0  0  0  2  0  0  0  0  0  0
  191.3940  176.4530  143.2750 C   0  0  0  0  0  1  0  0  0  0  0  0
  188.6380  178.2260  142.8910 C   0  0  0  0  0  2  0  0  0  0  0  0
  186.4780  177.0520  145.6200 C   0  0  0  0  0  2  0  0  0  0  0  0
  186.1050  178.0620  143.2340 C   0  0  2  0  0  3  0  0  0  0  0  0
  184.3960  179.0130  146.1780 O   0  0  0  0  0  0  0  0  0  0  0  0
  187.0280  177.9860  144.4700 C   0  0  2  0  0  3  0  0  0  0  0  0
  186.4970  178.0090  146.7800 C   0  0  0  0  0  2  0  0  0  0  0  0
  187.4820  177.2990  143.3130 C   0  0  2  0  0  3  0  0  0  0  0  0
  184.1650  179.1630  144.7570 C   0  0  1  0  0  3  0  0  0  0  0  0
  185.2600  179.3740  143.6580 C   0  0  0  0  0  2  0  0  0  0  0  0
  185.6660  179.3260  146.5530 C   0  0  0  0  0  2  0  0  0  0  0  0
  182.1320  178.9910  143.1520 C   0  0  0  0  0  0  0  0  0  0  0  0
  182.9090  178.5590  144.3470 N   0  0  0  0  0  2  0  0  0  0  0  0
  180.6990  177.3050  140.3280 C   0  0  0  0  0  1  0  0  0  0  0  0
  180.0860  178.9870  142.1370 C   0  0  0  0  0  2  0  0  0  0  0  0
  181.0650  178.6040  141.0870 C   0  0  1  0  0  3  0  0  0  0  0  0
  180.8860  179.1550  143.3510 N   0  0  0  0  0  0  0  0  0  0  0  0
  182.4090  178.4170  141.7620 C   0  0  0  0  0  2  0  0  0  0  0  0
  187.2040  178.3410  138.8390 O   0  0  0  0  0  0  0  0  0  0  0  0
  186.0210  178.5370  138.0580 C   0  0  0  0  0  2  0  0  0  0  0  0
  184.7290  178.0540  138.7910 C   0  0  0  0  0  2  0  0  0  0  0  0
  181.6820  177.3680  136.8280 C   0  0  0  0  0  3  0  0  0  0  0  0
  181.5630  175.9650  137.0040 C   0  0  0  0  0  0  0  0  0  0  0  0
  183.7460  175.9440  138.0610 C   0  0  0  0  0  3  0  0  0  0  0  0
  182.7250  178.0390  137.3120 C   0  0  0  0  0  3  0  0  0  0  0  0
  183.7680  177.3600  137.9800 C   0  0  0  0  0  0  0  0  0  0  0  0
  182.6470  175.2890  137.5580 C   0  0  0  0  0  3  0  0  0  0  0  0
  180.4400  173.8910  136.6780 N   0  0  0  0  0  2  0  0  0  0  0  0
  180.3630  175.2030  136.7470 C   0  0  0  0  0  3  0  0  0  0  0  0
  1  4  1  0  0  0  0
  2 33  1  0  0  0  0
  2  9  1  0  0  0  0
  3  6  1  0  0  0  0
  4  8  2  0  0  0  0
  5  1  1  0  0  0  0
  6  8  1  1  0  0  0
  6  9  1  0  0  0  0
  7  1  2  0  0  0  0
  7  3  1  0  0  0  0
  9 12  1  1  0  0  0
 10  2  2  0  0  0  0
 11 10  1  0  0  0  0
 11  3  2  0  0  0  0
 13 12  1  1  0  0  0
 13 14  1  0  0  0  0
 13 16  1  0  0  0  0
 14 15  1  0  0  0  0
 17 21  1  0  0  0  0
 18 22  1  0  0  0  0
 18 24  1  6  0  0  0
 18 20  1  0  0  0  0
 19 25  1  0  0  0  0
 20 17  1  1  0  0  0
 22 16  1  6  0  0  0
 22 20  1  0  0  0  0
 23 27  1  6  0  0  0
 23 19  1  0  0  0  0
 24 23  1  0  0  0  0
 25 21  1  0  0  0  0
 26 31  2  0  0  0  0
 26 27  1  0  0  0  0
 29 31  1  0  0  0  0
 30 28  1  1  0  0  0
 30 32  1  0  0  0  0
 30 29  1  0  0  0  0
 32 26  1  0  0  0  0
 34 35  1  0  0  0  0
 34 33  1  0  0  0  0
 36 37  2  0  0  0  0
 36 39  1  0  0  0  0
 37 41  1  0  0  0  0
 39 40  2  0  0  0  0
 40 38  1  0  0  0  0
 40 35  1  0  0  0  0
 41 38  2  0  0  0  0
 42 43  2  0  0  0  0
 43 37  1  0  0  0  0
M  END
>  <MODEL>
8

>  <REMARK>
 VINA RESULT:      -7.6      2.688      7.164
  Name = 
  11 active torsions:
  status: ('A' for Active; 'I' for Inactive)
    1  A    between atoms: C_1  and  C_35
    2  A    between atoms: C_1  and  C_38
    3  A    between atoms: C_2  and  C_13
    4  A    between atoms: C_6  and  C_13
    5  A    between atoms: C_6  and  C_17
    6  A    between atoms: C_8  and  O_34
    7  A    between atoms: C_13  and  C_27
    8  A    between atoms: N_14  and  C_22
    9  A    between atoms: C_19  and  C_37
   10  A    between atoms: C_27  and  C_30
   11  A    between atoms: O_34  and  C_38
                            x       y       z     vdW  Elec       q    Type
                         _______ _______ _______ _____ _____    ______ ____

>  <TORSDO>
F 11

$$$$
=
 OpenBabel10272414343D

 43 48  0  0  1  0  0  0  0  0999 V2000
  180.5480  180.8590  136.2310 C   0  0  0  0  0  0  0  0  0  0  0  0
  182.4770  178.2140  140.0940 C   0  0  0  0  0  0  0  0  0  0  0  0
  180.9030  179.9400  138.4500 C   0  0  0  0  0  0  0  0  0  0  0  0
  181.4040  179.7650  135.6470 C   0  0  0  0  0  3  0  0  0  0  0  0
  179.9930  181.8380  135.3300 C   0  0  0  0  0  1  0  0  0  0  0  0
  181.4320  178.5590  137.8300 C   0  0  1  0  0  3  0  0  0  0  0  0
  180.3370  180.9490  137.5150 C   0  0  0  0  0  3  0  0  0  0  0  0
  181.8400  178.7540  136.3910 C   0  0  0  0  0  3  0  0  0  0  0  0
  182.5660  177.9470  138.6270 C   0  0  2  0  0  3  0  0  0  0  0  0
  181.6940  179.2970  140.5470 C   0  0  0  0  0  3  0  0  0  0  0  0
  180.9830  180.1530  139.6850 N   0  0  0  0  0  0  0  0  0  0  0  0
  182.6380  176.3330  138.4660 C   0  0  0  0  0  2  0  0  0  0  0  0
  182.8950  175.7230  137.0160 C   0  0  2  0  0  3  0  0  0  0  0  0
  181.9350  174.9090  136.3000 C   0  0  0  0  0  2  0  0  0  0  0  0
  180.5470  174.8420  137.0280 C   0  0  0  0  0  1  0  0  0  0  0  0
  184.1730  175.9920  136.3990 C   0  0  0  0  0  2  0  0  0  0  0  0
  187.7880  175.4420  136.7370 C   0  0  0  0  0  2  0  0  0  0  0  0
  186.0700  177.2130  137.6110 C   0  0  2  0  0  3  0  0  0  0  0  0
  189.2420  177.9140  136.2180 O   0  0  0  0  0  0  0  0  0  0  0  0
  186.4290  176.2080  136.4940 C   0  0  2  0  0  3  0  0  0  0  0  0
  188.5100  175.7540  135.4550 C   0  0  0  0  0  2  0  0  0  0  0  0
  185.3680  175.8240  137.3560 C   0  0  2  0  0  3  0  0  0  0  0  0
  188.2920  178.6370  137.0370 C   0  0  1  0  0  3  0  0  0  0  0  0
  186.7310  178.5340  136.9540 C   0  0  0  0  0  2  0  0  0  0  0  0
  188.6690  177.2900  135.1530 C   0  0  0  0  0  2  0  0  0  0  0  0
  189.0410  178.1400  139.4710 C   0  0  0  0  0  0  0  0  0  0  0  0
  188.8720  179.0480  138.3030 N   0  0  0  0  0  2  0  0  0  0  0  0
  191.7750  177.2930  141.6330 C   0  0  0  0  0  1  0  0  0  0  0  0
  189.3390  178.0210  141.7330 C   0  0  0  0  0  2  0  0  0  0  0  0
  190.3230  177.0790  141.1390 C   0  0  1  0  0  3  0  0  0  0  0  0
  188.6550  178.6200  140.5850 N   0  0  0  0  0  0  0  0  0  0  0  0
  190.2830  177.2650  139.6360 C   0  0  0  0  0  2  0  0  0  0  0  0
  183.3590  177.6000  141.0110 O   0  0  0  0  0  0  0  0  0  0  0  0
  184.3600  178.3250  141.7320 C   0  0  0  0  0  2  0  0  0  0  0  0
  184.0530  178.4160  143.2610 C   0  0  0  0  0  2  0  0  0  0  0  0
  187.3020  177.4400  144.7110 C   0  0  0  0  0  3  0  0  0  0  0  0
  187.0940  177.7720  146.0750 C   0  0  0  0  0  0  0  0  0  0  0  0
  185.0090  178.8510  145.4630 C   0  0  0  0  0  3  0  0  0  0  0  0
  186.3850  177.7160  143.7860 C   0  0  0  0  0  3  0  0  0  0  0  0
  185.1930  178.3890  144.1340 C   0  0  0  0  0  0  0  0  0  0  0  0
  185.9740  178.5360  146.3910 C   0  0  0  0  0  3  0  0  0  0  0  0
  189.1570  176.9640  146.9480 N   0  0  0  0  0  2  0  0  0  0  0  0
  187.9010  177.2880  147.1710 C   0  0  0  0  0  3  0  0  0  0  0  0
  1  7  2  0  0  0  0
  2 10  2  0  0  0  0
  2 33  1  0  0  0  0
  3 11  2  0  0  0  0
  4  1  1  0  0  0  0
  4  8  2  0  0  0  0
  5  1  1  0  0  0  0
  6  8  1  6  0  0  0
  6  3  1  0  0  0  0
  6  9  1  0  0  0  0
  7  3  1  0  0  0  0
  9 12  1  1  0  0  0
  9  2  1  0  0  0  0
 11 10  1  0  0  0  0
 13 14  1  1  0  0  0
 13 12  1  0  0  0  0
 14 15  1  0  0  0  0
 16 13  1  0  0  0  0
 18 24  1  6  0  0  0
 19 23  1  0  0  0  0
 20 17  1  1  0  0  0
 20 22  1  0  0  0  0
 20 18  1  0  0  0  0
 21 17  1  0  0  0  0
 22 16  1  6  0  0  0
 22 18  1  0  0  0  0
 23 27  1  1  0  0  0
 24 23  1  0  0  0  0
 25 21  1  0  0  0  0
 25 19  1  0  0  0  0
 26 32  1  0  0  0  0
 26 31  2  0  0  0  0
 27 26  1  0  0  0  0
 30 28  1  1  0  0  0
 30 29  1  0  0  0  0
 31 29  1  0  0  0  0
 32 30  1  0  0  0  0
 33 34  1  0  0  0  0
 34 35  1  0  0  0  0
 35 40  1  0  0  0  0
 36 37  1  0  0  0  0
 37 41  2  0  0  0  0
 37 43  1  0  0  0  0
 38 41  1  0  0  0  0
 39 40  1  0  0  0  0
 39 36  2  0  0  0  0
 40 38  2  0  0  0  0
 42 43  2  0  0  0  0
M  END
>  <MODEL>
9

>  <REMARK>
 VINA RESULT:      -7.5      2.512      9.308
  Name = 
  11 active torsions:
  status: ('A' for Active; 'I' for Inactive)
    1  A    between atoms: C_1  and  C_35
    2  A    between atoms: C_1  and  C_38
    3  A    between atoms: C_2  and  C_13
    4  A    between atoms: C_6  and  C_13
    5  A    between atoms: C_6  and  C_17
    6  A    between atoms: C_8  and  O_34
    7  A    between atoms: C_13  and  C_27
    8  A    between atoms: N_14  and  C_22
    9  A    between atoms: C_19  and  C_37
   10  A    between atoms: C_27  and  C_30
   11  A    between atoms: O_34  and  C_38
                            x       y       z     vdW  Elec       q    Type
                         _______ _______ _______ _____ _____    ______ ____

>  <TORSDO>
F 11

$$$$
