=
 OpenBabel10272413143D

 32 37  0  0  1  0  0  0  0  0999 V2000
  185.9700  178.2410  143.7300 C   0  0  1  0  0  3  0  0  0  0  0  0
  185.7850  178.2360  141.2500 C   0  0  1  0  0  3  0  0  0  0  0  0
  185.4140  178.8560  145.0140 C   0  0  0  0  0  2  0  0  0  0  0  0
  185.2570  178.8670  142.5250 C   0  0  1  0  0  3  0  0  0  0  0  0
  185.0140  178.7790  140.0520 C   0  0  1  0  0  3  0  0  0  0  0  0
  189.5230  177.7140  138.0500 C   0  0  0  0  0  2  0  0  0  0  0  0
  187.2800  178.5140  141.0930 C   0  0  1  0  0  3  0  0  0  0  0  0
  187.3920  177.9420  137.2980 C   0  0  0  0  0  2  0  0  0  0  0  0
  186.8710  178.4910  138.6220 C   0  0  1  0  0  3  0  0  0  0  0  0
  183.7430  178.6140  142.6000 C   0  0  2  0  0  3  0  0  0  0  0  0
  185.4660  178.1280  138.8210 N   0  0  0  0  0  2  0  0  0  0  0  0
  183.0700  179.2010  141.5000 O   0  0  0  0  0  0  0  0  0  0  0  0
  183.1880  179.1910  143.9010 C   0  0  0  0  0  2  0  0  0  0  0  0
  188.0220  177.8830  142.2720 C   0  0  0  0  0  2  0  0  0  0  0  0
  187.4970  178.4340  143.6080 C   0  0  2  0  0  3  0  0  0  0  0  0
  187.7410  177.9260  139.7580 C   0  0  1  0  0  3  0  0  0  0  0  0
  183.5010  178.6120  140.2820 C   0  0  2  0  0  3  0  0  0  0  0  0
  183.9110  178.5920  145.1060 C   0  0  0  0  0  2  0  0  0  0  0  0
  188.7180  178.3760  137.1000 O   0  0  0  0  0  0  0  0  0  0  0  0
  189.2090  178.2210  139.4610 C   0  0  0  0  0  2  0  0  0  0  0  0
  190.4630  176.6740  145.5590 C   0  0  1  0  0  3  0  0  0  0  0  0
  189.4600  178.1870  148.8220 O   0  0  0  0  0  1  0  0  0  0  0  0
  191.7480  176.3830  145.1360 F   0  0  0  0  0  0  0  0  0  0  0  0
  188.1180  176.9140  147.1490 C   0  0  0  0  0  2  0  0  0  0  0  0
  188.2570  177.8140  144.7540 C   0  0  0  0  0  0  0  0  0  0  0  0
  190.5110  177.3690  146.8840 C   0  0  0  0  0  3  0  0  0  0  0  0
  187.5910  177.5820  145.9100 C   0  0  0  0  0  3  0  0  0  0  0  0
  189.7320  177.5190  144.5070 C   0  0  1  0  0  3  0  0  0  0  0  0
  190.5010  178.7980  144.1920 C   0  0  0  0  0  1  0  0  0  0  0  0
  189.4080  177.5080  147.6130 C   0  0  0  0  0  0  0  0  0  0  0  0
  182.9360  177.2030  140.0480 C   0  0  0  0  0  2  0  0  0  0  0  0
  181.5410  177.1950  140.0960 O   0  0  0  0  0  1  0  0  0  0  0  0
  1  3  1  1  0  0  0
  2  4  1  0  0  0  0
  3 18  1  0  0  0  0
  4 10  1  0  0  0  0
  4  1  1  0  0  0  0
  5 17  1  0  0  0  0
  5  2  1  0  0  0  0
  6 20  1  0  0  0  0
  7  2  1  0  0  0  0
  7 14  1  0  0  0  0
  8  9  1  0  0  0  0
  9 11  1  0  0  0  0
  9 16  1  0  0  0  0
 10 13  1  0  0  0  0
 11  5  1  0  0  0  0
 12 10  1  0  0  0  0
 13 18  1  0  0  0  0
 14 15  1  0  0  0  0
 15  1  1  0  0  0  0
 15 25  1  0  0  0  0
 16  7  1  0  0  0  0
 17 12  1  0  0  0  0
 19  8  1  0  0  0  0
 19  6  1  0  0  0  0
 20 16  1  0  0  0  0
 21 26  1  0  0  0  0
 23 21  1  0  0  0  0
 24 30  1  0  0  0  0
 25 27  2  0  0  0  0
 26 30  2  0  0  0  0
 27 24  1  0  0  0  0
 28 25  1  0  0  0  0
 28 21  1  0  0  0  0
 29 28  1  0  0  0  0
 30 22  1  0  0  0  0
 31 32  1  0  0  0  0
 31 17  1  0  0  0  0
M  END
>  <MODEL>
1

>  <REMARK>
 VINA RESULT:     -10.4      0.000      0.000
  Name = 
  2 active torsions:
  status: ('A' for Active; 'I' for Inactive)
    1  A    between atoms: C_13  and  C_29
    2  A    between atoms: C_16  and  C_27
                            x       y       z     vdW  Elec       q    Type
                         _______ _______ _______ _____ _____    ______ ____

>  <TORSDO>
F 2

$$$$
=
 OpenBabel10272413143D

 32 37  0  0  1  0  0  0  0  0999 V2000
  187.3010  178.0330  141.4230 C   0  0  1  0  0  3  0  0  0  0  0  0
  188.2290  177.4900  139.1800 C   0  0  1  0  0  3  0  0  0  0  0  0
  186.3490  178.9580  142.1800 C   0  0  0  0  0  2  0  0  0  0  0  0
  187.3090  178.4270  139.9410 C   0  0  1  0  0  3  0  0  0  0  0  0
  188.1690  177.8100  137.6900 C   0  0  1  0  0  3  0  0  0  0  0  0
  192.8450  175.9880  138.2230 C   0  0  0  0  0  2  0  0  0  0  0  0
  189.6630  177.6120  139.6940 C   0  0  1  0  0  3  0  0  0  0  0  0
  191.3370  176.2030  136.5390 C   0  0  0  0  0  2  0  0  0  0  0  0
  190.3860  177.0710  137.3590 C   0  0  1  0  0  3  0  0  0  0  0  0
  185.8970  178.3120  139.3420 C   0  0  2  0  0  3  0  0  0  0  0  0
  188.9990  176.8680  136.9370 N   0  0  0  0  0  2  0  0  0  0  0  0
  185.8880  178.6880  137.9760 O   0  0  0  0  0  0  0  0  0  0  0  0
  184.9340  179.2040  140.1210 C   0  0  0  0  0  2  0  0  0  0  0  0
  189.6910  177.2050  141.1680 C   0  0  0  0  0  2  0  0  0  0  0  0
  188.7330  178.0770  141.9970 C   0  0  2  0  0  3  0  0  0  0  0  0
  190.5580  176.7080  138.8430 C   0  0  1  0  0  3  0  0  0  0  0  0
  186.7050  177.8130  137.2130 C   0  0  2  0  0  3  0  0  0  0  0  0
  184.9390  178.8350  141.6040 C   0  0  0  0  0  2  0  0  0  0  0  0
  192.6660  176.4810  136.9130 O   0  0  0  0  0  0  0  0  0  0  0  0
  192.0330  176.8180  139.2210 C   0  0  0  0  0  2  0  0  0  0  0  0
  190.2980  177.0740  145.4960 C   0  0  1  0  0  3  0  0  0  0  0  0
  187.3730  178.4090  147.3940 O   0  0  0  0  0  1  0  0  0  0  0  0
  191.6210  177.0660  145.9010 F   0  0  0  0  0  0  0  0  0  0  0  0
  187.4650  176.8260  145.4690 C   0  0  0  0  0  2  0  0  0  0  0  0
  188.7940  177.6720  143.4490 C   0  0  0  0  0  0  0  0  0  0  0  0
  189.4620  177.7960  146.5060 C   0  0  0  0  0  3  0  0  0  0  0  0
  187.6370  177.3270  144.0620 C   0  0  0  0  0  3  0  0  0  0  0  0
  190.1700  177.7070  144.1030 C   0  0  1  0  0  3  0  0  0  0  0  0
  190.7510  179.1170  144.0810 C   0  0  0  0  0  1  0  0  0  0  0  0
  188.1370  177.7040  146.4750 C   0  0  0  0  0  0  0  0  0  0  0  0
  186.0710  176.4340  136.9760 C   0  0  0  0  0  2  0  0  0  0  0  0
  185.8280  176.2060  135.6210 O   0  0  0  0  0  1  0  0  0  0  0  0
  1 15  1  0  0  0  0
  1  3  1  1  0  0  0
  2  7  1  0  0  0  0
  2  4  1  0  0  0  0
  4  1  1  0  0  0  0
  5  2  1  0  0  0  0
  6 20  1  0  0  0  0
  7 14  1  0  0  0  0
  8 19  1  0  0  0  0
  8  9  1  0  0  0  0
  9 16  1  0  0  0  0
 10  4  1  0  0  0  0
 10 13  1  0  0  0  0
 11  9  1  0  0  0  0
 11  5  1  0  0  0  0
 12 10  1  0  0  0  0
 13 18  1  0  0  0  0
 14 15  1  0  0  0  0
 15 25  1  0  0  0  0
 16 20  1  0  0  0  0
 16  7  1  0  0  0  0
 17  5  1  0  0  0  0
 17 12  1  0  0  0  0
 18  3  1  0  0  0  0
 19  6  1  0  0  0  0
 21 23  1  0  0  0  0
 21 26  1  0  0  0  0
 24 30  1  0  0  0  0
 25 27  2  0  0  0  0
 25 28  1  0  0  0  0
 27 24  1  0  0  0  0
 28 21  1  0  0  0  0
 29 28  1  0  0  0  0
 30 26  2  0  0  0  0
 30 22  1  0  0  0  0
 31 17  1  0  0  0  0
 32 31  1  0  0  0  0
M  END
>  <MODEL>
2

>  <REMARK>
 VINA RESULT:     -10.0      2.107      3.286
  Name = 
  2 active torsions:
  status: ('A' for Active; 'I' for Inactive)
    1  A    between atoms: C_13  and  C_29
    2  A    between atoms: C_16  and  C_27
                            x       y       z     vdW  Elec       q    Type
                         _______ _______ _______ _____ _____    ______ ____

>  <TORSDO>
F 2

$$$$
=
 OpenBabel10272413143D

 32 37  0  0  1  0  0  0  0  0999 V2000
  186.9250  177.9690  141.9710 C   0  0  1  0  0  3  0  0  0  0  0  0
  188.5320  177.5610  143.8250 C   0  0  1  0  0  3  0  0  0  0  0  0
  186.7720  178.5610  140.5700 C   0  0  0  0  0  2  0  0  0  0  0  0
  188.3680  178.1750  142.4470 C   0  0  1  0  0  3  0  0  0  0  0  0
  189.9870  177.6730  144.2670 C   0  0  1  0  0  3  0  0  0  0  0  0
  187.5080  177.7440  148.6620 C   0  0  0  0  0  2  0  0  0  0  0  0
  187.6130  178.2500  144.8330 C   0  0  1  0  0  3  0  0  0  0  0  0
  189.5980  177.2120  147.9510 C   0  0  0  0  0  2  0  0  0  0  0  0
  189.3740  177.7580  146.5450 C   0  0  1  0  0  3  0  0  0  0  0  0
  189.3580  177.4920  141.4900 C   0  0  2  0  0  3  0  0  0  0  0  0
  190.1730  177.0210  145.5640 N   0  0  0  0  0  2  0  0  0  0  0  0
  190.6960  177.6880  141.9100 O   0  0  0  0  0  0  0  0  0  0  0  0
  189.1810  178.0520  140.0800 C   0  0  0  0  0  2  0  0  0  0  0  0
  186.1620  178.0430  144.3950 C   0  0  0  0  0  2  0  0  0  0  0  0
  185.9340  178.5930  142.9770 C   0  0  2  0  0  3  0  0  0  0  0  0
  187.8760  177.6460  146.2140 C   0  0  1  0  0  3  0  0  0  0  0  0
  190.9110  177.0920  143.1810 C   0  0  2  0  0  3  0  0  0  0  0  0
  187.7390  177.8730  139.6070 C   0  0  0  0  0  2  0  0  0  0  0  0
  188.8790  177.9920  148.8780 O   0  0  0  0  0  0  0  0  0  0  0  0
  187.0650  178.3250  147.3160 C   0  0  0  0  0  2  0  0  0  0  0  0
  182.0030  178.2600  143.3460 C   0  0  1  0  0  3  0  0  0  0  0  0
  181.3880  179.4930  139.8760 O   0  0  0  0  0  1  0  0  0  0  0  0
  181.2010  178.4590  144.4550 F   0  0  0  0  0  0  0  0  0  0  0  0
  182.8920  177.6850  140.7060 C   0  0  0  0  0  2  0  0  0  0  0  0
  184.4930  178.3970  142.5760 C   0  0  0  0  0  0  0  0  0  0  0  0
  181.4470  179.0110  142.1760 C   0  0  0  0  0  3  0  0  0  0  0  0
  184.2330  178.0080  141.3050 C   0  0  0  0  0  3  0  0  0  0  0  0
  183.4480  178.6800  143.6490 C   0  0  1  0  0  3  0  0  0  0  0  0
  183.5170  180.1310  144.1120 C   0  0  0  0  0  1  0  0  0  0  0  0
  181.8850  178.7630  140.9460 C   0  0  0  0  0  0  0  0  0  0  0  0
  191.0110  175.5600  143.1300 C   0  0  0  0  0  2  0  0  0  0  0  0
  192.0360  175.0840  143.9490 O   0  0  0  0  0  1  0  0  0  0  0  0
  1  3  1  6  0  0  0
  1  4  1  0  0  0  0
  1 15  1  0  0  0  0
  2  5  1  0  0  0  0
  2  7  1  0  0  0  0
  4  2  1  0  0  0  0
  5 11  1  0  0  0  0
  6 19  1  0  0  0  0
  7 16  1  0  0  0  0
  8 19  1  0  0  0  0
  9  8  1  0  0  0  0
 10 12  1  0  0  0  0
 10  4  1  0  0  0  0
 11  9  1  0  0  0  0
 12 17  1  0  0  0  0
 13 10  1  0  0  0  0
 14  7  1  0  0  0  0
 15 14  1  0  0  0  0
 16  9  1  0  0  0  0
 16 20  1  0  0  0  0
 17  5  1  0  0  0  0
 18 13  1  0  0  0  0
 18  3  1  0  0  0  0
 20  6  1  0  0  0  0
 21 28  1  0  0  0  0
 21 23  1  0  0  0  0
 22 30  1  0  0  0  0
 24 30  1  0  0  0  0
 24 27  1  0  0  0  0
 25 15  1  0  0  0  0
 25 28  1  0  0  0  0
 26 21  1  0  0  0  0
 27 25  2  0  0  0  0
 28 29  1  0  0  0  0
 30 26  2  0  0  0  0
 31 17  1  0  0  0  0
 31 32  1  0  0  0  0
M  END
>  <MODEL>
3

>  <REMARK>
 VINA RESULT:      -9.9      3.064      7.845
  Name = 
  2 active torsions:
  status: ('A' for Active; 'I' for Inactive)
    1  A    between atoms: C_13  and  C_29
    2  A    between atoms: C_16  and  C_27
                            x       y       z     vdW  Elec       q    Type
                         _______ _______ _______ _____ _____    ______ ____

>  <TORSDO>
F 2

$$$$
=
 OpenBabel10272413143D

 32 37  0  0  1  0  0  0  0  0999 V2000
  186.9500  178.0120  144.1870 C   0  0  1  0  0  3  0  0  0  0  0  0
  189.0860  177.7140  142.9480 C   0  0  1  0  0  3  0  0  0  0  0  0
  186.1770  177.6070  145.4410 C   0  0  0  0  0  2  0  0  0  0  0  0
  188.3030  177.2890  144.1760 C   0  0  1  0  0  3  0  0  0  0  0  0
  190.4710  177.0780  142.9770 C   0  0  1  0  0  3  0  0  0  0  0  0
  189.6040  177.5620  138.0290 C   0  0  0  0  0  2  0  0  0  0  0  0
  188.3430  177.3150  141.6730 C   0  0  1  0  0  3  0  0  0  0  0  0
  191.4210  177.3890  139.3800 C   0  0  0  0  0  2  0  0  0  0  0  0
  190.6000  177.0520  140.6200 C   0  0  1  0  0  3  0  0  0  0  0  0
  189.1220  177.6550  145.4240 C   0  0  2  0  0  3  0  0  0  0  0  0
  191.2630  177.5340  141.8330 N   0  0  0  0  0  2  0  0  0  0  0  0
  190.3690  176.9810  145.4340 O   0  0  0  0  0  0  0  0  0  0  0  0
  188.3370  177.2880  146.6810 C   0  0  0  0  0  2  0  0  0  0  0  0
  186.9950  178.0380  141.6450 C   0  0  0  0  0  2  0  0  0  0  0  0
  186.1650  177.7000  142.8950 C   0  0  2  0  0  3  0  0  0  0  0  0
  189.2100  177.6950  140.4720 C   0  0  1  0  0  3  0  0  0  0  0  0
  191.1580  177.3780  144.3220 C   0  0  2  0  0  3  0  0  0  0  0  0
  186.9770  177.9850  146.6880 C   0  0  0  0  0  2  0  0  0  0  0  0
  190.7980  176.8420  138.2410 O   0  0  0  0  0  0  0  0  0  0  0  0
  188.5950  177.2620  139.1430 C   0  0  0  0  0  2  0  0  0  0  0  0
  183.0190  179.5380  141.3390 C   0  0  1  0  0  3  0  0  0  0  0  0
  180.7670  178.4130  144.0960 O   0  0  0  0  0  1  0  0  0  0  0  0
  182.6780  179.7340  140.0120 F   0  0  0  0  0  0  0  0  0  0  0  0
  182.9820  179.5560  144.1820 C   0  0  0  0  0  2  0  0  0  0  0  0
  184.8340  178.4070  142.8350 C   0  0  0  0  0  0  0  0  0  0  0  0
  181.8470  178.9840  142.0870 C   0  0  0  0  0  3  0  0  0  0  0  0
  184.2590  178.7830  144.0010 C   0  0  0  0  0  3  0  0  0  0  0  0
  184.2420  178.6170  141.4460 C   0  0  1  0  0  3  0  0  0  0  0  0
  183.9930  177.2840  140.7490 C   0  0  0  0  0  1  0  0  0  0  0  0
  181.8430  178.9650  143.4160 C   0  0  0  0  0  0  0  0  0  0  0  0
  191.7630  178.7820  144.4710 C   0  0  0  0  0  2  0  0  0  0  0  0
  190.8570  179.7750  144.0960 O   0  0  0  0  0  1  0  0  0  0  0  0
  1  3  1  1  0  0  0
  2  5  1  0  0  0  0
  2  4  1  0  0  0  0
  3 18  1  0  0  0  0
  4  1  1  0  0  0  0
  4 10  1  0  0  0  0
  5 17  1  0  0  0  0
  6 19  1  0  0  0  0
  6 20  1  0  0  0  0
  7  2  1  0  0  0  0
  8  9  1  0  0  0  0
  9 11  1  0  0  0  0
 10 12  1  0  0  0  0
 10 13  1  0  0  0  0
 11  5  1  0  0  0  0
 13 18  1  0  0  0  0
 14  7  1  0  0  0  0
 14 15  1  0  0  0  0
 15  1  1  0  0  0  0
 16  9  1  0  0  0  0
 16  7  1  0  0  0  0
 17 31  1  0  0  0  0
 17 12  1  0  0  0  0
 19  8  1  0  0  0  0
 20 16  1  0  0  0  0
 21 28  1  0  0  0  0
 21 26  1  0  0  0  0
 23 21  1  0  0  0  0
 25 15  1  0  0  0  0
 25 27  2  0  0  0  0
 26 30  2  0  0  0  0
 27 24  1  0  0  0  0
 28 25  1  0  0  0  0
 29 28  1  0  0  0  0
 30 22  1  0  0  0  0
 30 24  1  0  0  0  0
 32 31  1  0  0  0  0
M  END
>  <MODEL>
4

>  <REMARK>
 VINA RESULT:      -9.3      2.892      6.305
  Name = 
  2 active torsions:
  status: ('A' for Active; 'I' for Inactive)
    1  A    between atoms: C_13  and  C_29
    2  A    between atoms: C_16  and  C_27
                            x       y       z     vdW  Elec       q    Type
                         _______ _______ _______ _____ _____    ______ ____

>  <TORSDO>
F 2

$$$$
=
 OpenBabel10272413143D

 32 37  0  0  1  0  0  0  0  0999 V2000
  187.9020  178.0440  140.8670 C   0  0  1  0  0  3  0  0  0  0  0  0
  188.7070  177.0590  138.7300 C   0  0  1  0  0  3  0  0  0  0  0  0
  186.9580  179.0790  141.4770 C   0  0  0  0  0  2  0  0  0  0  0  0
  187.7940  178.1070  139.3390 C   0  0  1  0  0  3  0  0  0  0  0  0
  188.5330  177.0450  137.2150 C   0  0  1  0  0  3  0  0  0  0  0  0
  193.3170  175.5390  137.7760 C   0  0  0  0  0  2  0  0  0  0  0  0
  190.1630  177.3360  139.0980 C   0  0  1  0  0  3  0  0  0  0  0  0
  191.6930  175.3330  136.2020 C   0  0  0  0  0  2  0  0  0  0  0  0
  190.7570  176.3250  136.8850 C   0  0  1  0  0  3  0  0  0  0  0  0
  186.3530  177.8190  138.8850 C   0  0  2  0  0  3  0  0  0  0  0  0
  189.3570  175.9900  136.6210 N   0  0  0  0  0  2  0  0  0  0  0  0
  186.2360  177.8880  137.4750 O   0  0  0  0  0  0  0  0  0  0  0  0
  185.4010  178.8260  139.5240 C   0  0  0  0  0  2  0  0  0  0  0  0
  190.3080  177.2600  140.6190 C   0  0  0  0  0  2  0  0  0  0  0  0
  189.3650  178.2600  141.3100 C   0  0  2  0  0  3  0  0  0  0  0  0
  191.0430  176.3000  138.3960 C   0  0  1  0  0  3  0  0  0  0  0  0
  187.0430  176.8960  136.8590 C   0  0  2  0  0  3  0  0  0  0  0  0
  185.5210  178.7880  141.0470 C   0  0  0  0  0  2  0  0  0  0  0  0
  193.0290  175.7290  136.4080 O   0  0  0  0  0  0  0  0  0  0  0  0
  192.5330  176.5380  138.6310 C   0  0  0  0  0  2  0  0  0  0  0  0
  188.4510  177.6360  145.1150 C   0  0  1  0  0  3  0  0  0  0  0  0
  191.9810  176.8280  146.0210 O   0  0  0  0  0  1  0  0  0  0  0  0
  187.3040  177.0970  145.6690 F   0  0  0  0  0  0  0  0  0  0  0  0
  191.0330  178.7840  144.7990 C   0  0  0  0  0  2  0  0  0  0  0  0
  189.5400  178.1820  142.8060 C   0  0  0  0  0  0  0  0  0  0  0  0
  189.6570  176.9620  145.6890 C   0  0  0  0  0  3  0  0  0  0  0  0
  190.6760  178.6870  143.3420 C   0  0  0  0  0  3  0  0  0  0  0  0
  188.4130  177.5130  143.5850 C   0  0  1  0  0  3  0  0  0  0  0  0
  188.2320  176.0630  143.1500 C   0  0  0  0  0  1  0  0  0  0  0  0
  190.8680  177.4830  145.5160 C   0  0  0  0  0  0  0  0  0  0  0  0
  186.4620  175.4780  136.9710 C   0  0  0  0  0  2  0  0  0  0  0  0
  186.1410  174.9530  135.7180 O   0  0  0  0  0  1  0  0  0  0  0  0
  1 15  1  0  0  0  0
  1  3  1  1  0  0  0
  2  7  1  0  0  0  0
  2  4  1  0  0  0  0
  4  1  1  0  0  0  0
  5  2  1  0  0  0  0
  6 20  1  0  0  0  0
  7 14  1  0  0  0  0
  8 19  1  0  0  0  0
  8  9  1  0  0  0  0
  9 16  1  0  0  0  0
 10  4  1  0  0  0  0
 10 13  1  0  0  0  0
 11  9  1  0  0  0  0
 11  5  1  0  0  0  0
 12 10  1  0  0  0  0
 13 18  1  0  0  0  0
 14 15  1  0  0  0  0
 15 25  1  0  0  0  0
 16 20  1  0  0  0  0
 16  7  1  0  0  0  0
 17 31  1  0  0  0  0
 17  5  1  0  0  0  0
 17 12  1  0  0  0  0
 18  3  1  0  0  0  0
 19  6  1  0  0  0  0
 21 23  1  0  0  0  0
 21 26  1  0  0  0  0
 24 30  1  0  0  0  0
 25 27  2  0  0  0  0
 25 28  1  0  0  0  0
 27 24  1  0  0  0  0
 28 21  1  0  0  0  0
 29 28  1  0  0  0  0
 30 26  2  0  0  0  0
 30 22  1  0  0  0  0
 32 31  1  0  0  0  0
M  END
>  <MODEL>
5

>  <REMARK>
 VINA RESULT:      -9.3      2.636      4.187
  Name = 
  2 active torsions:
  status: ('A' for Active; 'I' for Inactive)
    1  A    between atoms: C_13  and  C_29
    2  A    between atoms: C_16  and  C_27
                            x       y       z     vdW  Elec       q    Type
                         _______ _______ _______ _____ _____    ______ ____

>  <TORSDO>
F 2

$$$$
=
 OpenBabel10272413143D

 32 37  0  0  1  0  0  0  0  0999 V2000
  185.7670  178.0440  140.1760 C   0  0  1  0  0  3  0  0  0  0  0  0
  186.9370  177.9100  142.3660 C   0  0  1  0  0  3  0  0  0  0  0  0
  185.8890  178.5330  138.7330 C   0  0  0  0  0  2  0  0  0  0  0  0
  187.0410  178.4220  140.9410 C   0  0  1  0  0  3  0  0  0  0  0  0
  188.2390  178.1920  143.1090 C   0  0  1  0  0  3  0  0  0  0  0  0
  184.8260  178.2810  146.8260 C   0  0  0  0  0  2  0  0  0  0  0  0
  185.7590  178.5640  143.0870 C   0  0  1  0  0  3  0  0  0  0  0  0
  187.0600  177.9180  146.6410 C   0  0  0  0  0  2  0  0  0  0  0  0
  187.1180  178.3530  145.1800 C   0  0  1  0  0  3  0  0  0  0  0  0
  188.2770  177.7840  140.2860 C   0  0  2  0  0  3  0  0  0  0  0  0
  188.1780  177.6420  144.4640 N   0  0  0  0  0  2  0  0  0  0  0  0
  189.4630  178.1370  140.9750 O   0  0  0  0  0  0  0  0  0  0  0  0
  188.3800  178.2370  138.8320 C   0  0  0  0  0  2  0  0  0  0  0  0
  184.4680  178.1880  142.3570 C   0  0  0  0  0  2  0  0  0  0  0  0
  184.5240  178.6260  140.8840 C   0  0  2  0  0  3  0  0  0  0  0  0
  185.7490  178.0740  144.5360 C   0  0  1  0  0  3  0  0  0  0  0  0
  189.4310  177.6420  142.3060 C   0  0  2  0  0  3  0  0  0  0  0  0
  187.1030  177.8880  138.0670 C   0  0  0  0  0  2  0  0  0  0  0  0
  186.0860  178.6770  147.3190 O   0  0  0  0  0  0  0  0  0  0  0  0
  184.6550  178.7340  145.3720 C   0  0  0  0  0  2  0  0  0  0  0  0
  180.9090  179.0760  139.3260 C   0  0  1  0  0  3  0  0  0  0  0  0
  181.4260  176.3190  136.8630 O   0  0  0  0  0  1  0  0  0  0  0  0
  180.1640  180.2270  139.1440 F   0  0  0  0  0  0  0  0  0  0  0  0
  181.7500  176.3600  139.3350 C   0  0  0  0  0  2  0  0  0  0  0  0
  183.2340  178.2650  140.1900 C   0  0  0  0  0  0  0  0  0  0  0  0
  180.9430  178.2870  138.0550 C   0  0  0  0  0  3  0  0  0  0  0  0
  182.9890  176.9570  139.9440 C   0  0  0  0  0  3  0  0  0  0  0  0
  182.3240  179.4260  139.8090 C   0  0  1  0  0  3  0  0  0  0  0  0
  183.0210  180.3730  138.8390 C   0  0  0  0  0  1  0  0  0  0  0  0
  181.3640  177.0260  138.0550 C   0  0  0  0  0  0  0  0  0  0  0  0
  189.6670  176.1270  142.4020 C   0  0  0  0  0  2  0  0  0  0  0  0
  190.8120  175.8310  143.1440 O   0  0  0  0  0  1  0  0  0  0  0  0
  1  3  1  6  0  0  0
  1 15  1  0  0  0  0
  1  4  1  0  0  0  0
  2  7  1  0  0  0  0
  2  5  1  0  0  0  0
  4  2  1  0  0  0  0
  5 11  1  0  0  0  0
  6 19  1  0  0  0  0
  7 16  1  0  0  0  0
  8 19  1  0  0  0  0
  9  8  1  0  0  0  0
 10  4  1  0  0  0  0
 10 12  1  0  0  0  0
 11  9  1  0  0  0  0
 12 17  1  0  0  0  0
 13 10  1  0  0  0  0
 14  7  1  0  0  0  0
 15 14  1  0  0  0  0
 16  9  1  0  0  0  0
 16 20  1  0  0  0  0
 17 31  1  0  0  0  0
 17  5  1  0  0  0  0
 18  3  1  0  0  0  0
 18 13  1  0  0  0  0
 20  6  1  0  0  0  0
 21 28  1  0  0  0  0
 22 30  1  0  0  0  0
 23 21  1  0  0  0  0
 24 27  1  0  0  0  0
 25 15  1  0  0  0  0
 26 21  1  0  0  0  0
 27 25  2  0  0  0  0
 28 25  1  0  0  0  0
 29 28  1  0  0  0  0
 30 26  2  0  0  0  0
 30 24  1  0  0  0  0
 31 32  1  0  0  0  0
M  END
>  <MODEL>
6

>  <REMARK>
 VINA RESULT:      -9.2      3.368      8.260
  Name = 
  2 active torsions:
  status: ('A' for Active; 'I' for Inactive)
    1  A    between atoms: C_13  and  C_29
    2  A    between atoms: C_16  and  C_27
                            x       y       z     vdW  Elec       q    Type
                         _______ _______ _______ _____ _____    ______ ____

>  <TORSDO>
F 2

$$$$
=
 OpenBabel10272413143D

 32 37  0  0  1  0  0  0  0  0999 V2000
  186.2420  178.1930  140.0970 C   0  0  1  0  0  3  0  0  0  0  0  0
  188.5780  177.5850  140.6940 C   0  0  1  0  0  3  0  0  0  0  0  0
  185.3750  178.9390  139.0820 C   0  0  0  0  0  2  0  0  0  0  0  0
  187.7160  178.3500  139.7060 C   0  0  1  0  0  3  0  0  0  0  0  0
  190.0380  177.6520  140.2600 C   0  0  1  0  0  3  0  0  0  0  0  0
  190.4140  177.2200  145.2740 C   0  0  0  0  0  2  0  0  0  0  0  0
  188.4140  178.1530  142.1030 C   0  0  1  0  0  3  0  0  0  0  0  0
  191.7260  176.7790  143.4740 C   0  0  0  0  0  2  0  0  0  0  0  0
  190.7940  177.4790  142.4890 C   0  0  1  0  0  3  0  0  0  0  0  0
  187.9690  177.7820  138.3000 C   0  0  2  0  0  3  0  0  0  0  0  0
  190.8720  176.8590  141.1650 N   0  0  0  0  0  2  0  0  0  0  0  0
  189.3250  177.9340  137.9220 O   0  0  0  0  0  0  0  0  0  0  0  0
  187.0750  178.4960  137.2890 C   0  0  0  0  0  2  0  0  0  0  0  0
  186.9530  177.9920  142.5290 C   0  0  0  0  0  2  0  0  0  0  0  0
  186.0120  178.6970  141.5380 C   0  0  2  0  0  3  0  0  0  0  0  0
  189.3600  177.4000  143.0390 C   0  0  1  0  0  3  0  0  0  0  0  0
  190.1710  177.2000  138.7940 C   0  0  2  0  0  3  0  0  0  0  0  0
  185.6050  178.3670  137.6840 C   0  0  0  0  0  2  0  0  0  0  0  0
  191.6880  177.4480  144.7130 O   0  0  0  0  0  0  0  0  0  0  0  0
  189.3360  177.9470  144.4640 C   0  0  0  0  0  2  0  0  0  0  0  0
  182.9180  178.4150  143.9980 C   0  0  1  0  0  3  0  0  0  0  0  0
  180.5470  179.8010  141.4690 O   0  0  0  0  0  1  0  0  0  0  0  0
  182.8640  178.5820  145.3700 F   0  0  0  0  0  0  0  0  0  0  0  0
  182.1920  177.9360  141.2910 C   0  0  0  0  0  2  0  0  0  0  0  0
  184.5810  178.5430  141.9900 C   0  0  0  0  0  0  0  0  0  0  0  0
  181.8410  179.2230  143.3460 C   0  0  0  0  0  3  0  0  0  0  0  0
  183.6530  178.2110  141.0620 C   0  0  0  0  0  3  0  0  0  0  0  0
  184.3070  178.7980  143.4670 C   0  0  1  0  0  3  0  0  0  0  0  0
  184.6730  180.2270  143.8530 C   0  0  0  0  0  1  0  0  0  0  0  0
  181.5220  179.0190  142.0710 C   0  0  0  0  0  0  0  0  0  0  0  0
  190.1340  175.6830  138.5500 C   0  0  0  0  0  2  0  0  0  0  0  0
  191.3990  175.1820  138.2380 O   0  0  0  0  0  1  0  0  0  0  0  0
  1  3  1  6  0  0  0
  1 15  1  0  0  0  0
  2  7  1  0  0  0  0
  4  1  1  0  0  0  0
  4  2  1  0  0  0  0
  5  2  1  0  0  0  0
  5 11  1  0  0  0  0
  7 14  1  0  0  0  0
  7 16  1  0  0  0  0
  8 19  1  0  0  0  0
  9 16  1  0  0  0  0
  9  8  1  0  0  0  0
 10  4  1  0  0  0  0
 11  9  1  0  0  0  0
 12 10  1  0  0  0  0
 12 17  1  0  0  0  0
 13 18  1  0  0  0  0
 13 10  1  0  0  0  0
 15 25  1  0  0  0  0
 15 14  1  0  0  0  0
 16 20  1  0  0  0  0
 17  5  1  0  0  0  0
 18  3  1  0  0  0  0
 19  6  1  0  0  0  0
 20  6  1  0  0  0  0
 21 23  1  0  0  0  0
 22 30  1  0  0  0  0
 24 30  1  0  0  0  0
 25 28  1  0  0  0  0
 26 21  1  0  0  0  0
 27 24  1  0  0  0  0
 27 25  2  0  0  0  0
 28 29  1  0  0  0  0
 28 21  1  0  0  0  0
 30 26  2  0  0  0  0
 31 17  1  0  0  0  0
 32 31  1  0  0  0  0
M  END
>  <MODEL>
7

>  <REMARK>
 VINA RESULT:      -9.2      2.608      6.800
  Name = 
  2 active torsions:
  status: ('A' for Active; 'I' for Inactive)
    1  A    between atoms: C_13  and  C_29
    2  A    between atoms: C_16  and  C_27
                            x       y       z     vdW  Elec       q    Type
                         _______ _______ _______ _____ _____    ______ ____

>  <TORSDO>
F 2

$$$$
=
 OpenBabel10272413143D

 32 37  0  0  1  0  0  0  0  0999 V2000
  186.2410  178.0310  139.7480 C   0  0  1  0  0  3  0  0  0  0  0  0
  186.8600  177.9680  142.1560 C   0  0  1  0  0  3  0  0  0  0  0  0
  186.7200  178.4350  138.3540 C   0  0  0  0  0  2  0  0  0  0  0  0
  187.3200  178.3970  140.7740 C   0  0  1  0  0  3  0  0  0  0  0  0
  187.9670  178.2370  143.1700 C   0  0  1  0  0  3  0  0  0  0  0  0
  183.7920  178.6700  145.9730 C   0  0  0  0  0  2  0  0  0  0  0  0
  185.5830  178.7090  142.5500 C   0  0  1  0  0  3  0  0  0  0  0  0
  185.9860  178.2050  146.3350 C   0  0  0  0  0  2  0  0  0  0  0  0
  186.4050  178.5570  144.9110 C   0  0  1  0  0  3  0  0  0  0  0  0
  188.6390  177.6730  140.4550 C   0  0  2  0  0  3  0  0  0  0  0  0
  187.5630  177.7640  144.4960 N   0  0  0  0  0  2  0  0  0  0  0  0
  189.6490  178.0140  141.3880 O   0  0  0  0  0  0  0  0  0  0  0  0
  189.1010  178.0420  139.0480 C   0  0  0  0  0  2  0  0  0  0  0  0
  184.4800  178.3480  141.5540 C   0  0  0  0  0  2  0  0  0  0  0  0
  184.9000  178.7020  140.1180 C   0  0  2  0  0  3  0  0  0  0  0  0
  185.2110  178.3000  143.9760 C   0  0  1  0  0  3  0  0  0  0  0  0
  189.2820  177.5950  142.6940 C   0  0  2  0  0  3  0  0  0  0  0  0
  188.0210  177.7050  138.0210 C   0  0  0  0  0  2  0  0  0  0  0  0
  184.9220  179.0400  146.7320 O   0  0  0  0  0  0  0  0  0  0  0  0
  183.9890  179.0490  144.5020 C   0  0  0  0  0  2  0  0  0  0  0  0
  181.3350  178.8070  138.3920 C   0  0  1  0  0  3  0  0  0  0  0  0
  182.6950  177.7050  135.0940 O   0  0  0  0  0  1  0  0  0  0  0  0
  180.2740  179.6680  138.6100 F   0  0  0  0  0  0  0  0  0  0  0  0
  182.9690  176.7170  137.3670 C   0  0  0  0  0  2  0  0  0  0  0  0
  183.7900  178.3570  139.1570 C   0  0  0  0  0  0  0  0  0  0  0  0
  181.6210  178.7150  136.9260 C   0  0  0  0  0  3  0  0  0  0  0  0
  183.9590  177.2870  138.3450 C   0  0  0  0  0  3  0  0  0  0  0  0
  182.5700  179.2710  139.1780 C   0  0  1  0  0  3  0  0  0  0  0  0
  182.9510  180.7020  138.8150 C   0  0  0  0  0  1  0  0  0  0  0  0
  182.4090  177.7560  136.4510 C   0  0  0  0  0  0  0  0  0  0  0  0
  189.4080  176.0790  142.9090 C   0  0  0  0  0  2  0  0  0  0  0  0
  190.7420  175.6670  142.8980 O   0  0  0  0  0  1  0  0  0  0  0  0
  1  3  1  6  0  0  0
  1 15  1  0  0  0  0
  1  4  1  0  0  0  0
  2  7  1  0  0  0  0
  2  5  1  0  0  0  0
  4  2  1  0  0  0  0
  5 11  1  0  0  0  0
  6 19  1  0  0  0  0
  7 16  1  0  0  0  0
  8 19  1  0  0  0  0
  9  8  1  0  0  0  0
 10  4  1  0  0  0  0
 10 12  1  0  0  0  0
 11  9  1  0  0  0  0
 12 17  1  0  0  0  0
 13 10  1  0  0  0  0
 14  7  1  0  0  0  0
 15 14  1  0  0  0  0
 16 20  1  0  0  0  0
 16  9  1  0  0  0  0
 17 31  1  0  0  0  0
 17  5  1  0  0  0  0
 18  3  1  0  0  0  0
 18 13  1  0  0  0  0
 20  6  1  0  0  0  0
 21 23  1  0  0  0  0
 21 28  1  0  0  0  0
 22 30  1  0  0  0  0
 24 27  1  0  0  0  0
 25 28  1  0  0  0  0
 25 15  1  0  0  0  0
 26 21  1  0  0  0  0
 27 25  2  0  0  0  0
 29 28  1  0  0  0  0
 30 26  2  0  0  0  0
 30 24  1  0  0  0  0
 32 31  1  0  0  0  0
M  END
>  <MODEL>
8

>  <REMARK>
 VINA RESULT:      -8.6      3.598      8.454
  Name = 
  2 active torsions:
  status: ('A' for Active; 'I' for Inactive)
    1  A    between atoms: C_13  and  C_29
    2  A    between atoms: C_16  and  C_27
                            x       y       z     vdW  Elec       q    Type
                         _______ _______ _______ _____ _____    ______ ____

>  <TORSDO>
F 2

$$$$
=
 OpenBabel10272413143D

 32 37  0  0  1  0  0  0  0  0999 V2000
  185.9160  178.4710  143.2640 C   0  0  1  0  0  3  0  0  0  0  0  0
  187.3510  178.0900  145.2590 C   0  0  1  0  0  3  0  0  0  0  0  0
  184.4840  178.4070  142.7360 C   0  0  0  0  0  2  0  0  0  0  0  0
  185.9340  177.9980  144.7230 C   0  0  1  0  0  3  0  0  0  0  0  0
  187.3640  177.7170  146.7380 C   0  0  1  0  0  3  0  0  0  0  0  0
  191.9820  176.3490  145.2310 C   0  0  0  0  0  2  0  0  0  0  0  0
  188.2850  177.1750  144.4700 C   0  0  1  0  0  3  0  0  0  0  0  0
  190.9840  176.9210  147.1890 C   0  0  0  0  0  2  0  0  0  0  0  0
  189.5770  176.9080  146.5980 C   0  0  1  0  0  3  0  0  0  0  0  0
  185.0270  178.8850  145.5910 C   0  0  2  0  0  3  0  0  0  0  0  0
  188.7130  177.8690  147.2870 N   0  0  0  0  0  2  0  0  0  0  0  0
  185.0230  178.4500  146.9390 O   0  0  0  0  0  0  0  0  0  0  0  0
  183.6030  178.8570  145.0430 C   0  0  0  0  0  2  0  0  0  0  0  0
  188.3040  177.6340  143.0110 C   0  0  0  0  0  2  0  0  0  0  0  0
  186.8870  177.6220  142.4140 C   0  0  2  0  0  3  0  0  0  0  0  0
  189.6760  177.2470  145.1010 C   0  0  1  0  0  3  0  0  0  0  0  0
  186.3230  178.5570  147.5010 C   0  0  2  0  0  3  0  0  0  0  0  0
  183.5790  179.3020  143.5810 C   0  0  0  0  0  2  0  0  0  0  0  0
  191.7660  175.9320  146.5610 O   0  0  0  0  0  0  0  0  0  0  0  0
  190.6730  176.3000  144.4360 C   0  0  0  0  0  2  0  0  0  0  0  0
  188.4140  178.7880  138.9480 C   0  0  1  0  0  3  0  0  0  0  0  0
  185.5930  177.3120  136.9990 O   0  0  0  0  0  1  0  0  0  0  0  0
  189.7370  178.8870  138.5550 F   0  0  0  0  0  0  0  0  0  0  0  0
  185.5710  178.8600  138.9540 C   0  0  0  0  0  2  0  0  0  0  0  0
  186.9340  178.0590  140.9700 C   0  0  0  0  0  0  0  0  0  0  0  0
  187.6330  178.0360  137.9170 C   0  0  0  0  0  3  0  0  0  0  0  0
  185.7630  178.3430  140.3530 C   0  0  0  0  0  3  0  0  0  0  0  0
  188.3140  178.1210  140.3270 C   0  0  1  0  0  3  0  0  0  0  0  0
  188.9820  176.7500  140.3290 C   0  0  0  0  0  1  0  0  0  0  0  0
  186.3040  178.0450  137.9380 C   0  0  0  0  0  0  0  0  0  0  0  0
  186.7320  180.0010  147.8280 C   0  0  0  0  0  2  0  0  0  0  0  0
  185.7410  180.6630  148.5550 O   0  0  0  0  0  1  0  0  0  0  0  0
  1  3  1  6  0  0  0
  1  4  1  0  0  0  0
  2  5  1  0  0  0  0
  3 18  1  0  0  0  0
  4  2  1  0  0  0  0
  4 10  1  0  0  0  0
  5 11  1  0  0  0  0
  5 17  1  0  0  0  0
  6 19  1  0  0  0  0
  7 16  1  0  0  0  0
  7  2  1  0  0  0  0
  9  8  1  0  0  0  0
  9 11  1  0  0  0  0
 10 12  1  0  0  0  0
 12 17  1  0  0  0  0
 13 10  1  0  0  0  0
 14  7  1  0  0  0  0
 15 14  1  0  0  0  0
 15  1  1  0  0  0  0
 16  9  1  0  0  0  0
 17 31  1  0  0  0  0
 18 13  1  0  0  0  0
 19  8  1  0  0  0  0
 20 16  1  0  0  0  0
 20  6  1  0  0  0  0
 21 28  1  0  0  0  0
 22 30  1  0  0  0  0
 23 21  1  0  0  0  0
 24 27  1  0  0  0  0
 25 15  1  0  0  0  0
 26 30  2  0  0  0  0
 26 21  1  0  0  0  0
 27 25  2  0  0  0  0
 28 29  1  0  0  0  0
 28 25  1  0  0  0  0
 30 24  1  0  0  0  0
 31 32  1  0  0  0  0
M  END
>  <MODEL>
9

>  <REMARK>
 VINA RESULT:      -8.5      2.832      6.874
  Name = 
  2 active torsions:
  status: ('A' for Active; 'I' for Inactive)
    1  A    between atoms: C_13  and  C_29
    2  A    between atoms: C_16  and  C_27
                            x       y       z     vdW  Elec       q    Type
                         _______ _______ _______ _____ _____    ______ ____

>  <TORSDO>
F 2

$$$$
