=
 OpenBabel10272400593D

 27 31  0  0  1  0  0  0  0  0999 V2000
  188.2150  176.0080  143.1700 C   0  0  0  0  0  2  0  0  0  0  0  0
  186.8510  177.5290  144.5480 C   0  0  0  0  0  0  0  0  0  0  0  0
  186.8250  178.4880  142.2620 N   0  0  0  0  0  2  0  0  0  0  0  0
  183.0690  179.1200  145.2060 N   0  0  0  0  0  0  0  0  0  0  0  0
  181.2900  178.9710  143.5400 C   0  0  0  0  0  1  0  0  0  0  0  0
  186.1460  177.3290  145.8490 C   0  0  0  0  0  3  0  0  0  0  0  0
  183.8590  178.8250  143.0880 C   0  0  2  0  0  3  0  0  0  0  0  0
  189.6140  178.2560  139.8100 C   0  0  0  0  0  3  0  0  0  0  0  0
  183.7960  178.3720  141.6680 C   0  0  0  0  0  1  0  0  0  0  0  0
  190.2870  177.1080  140.2280 C   0  0  0  0  0  0  0  0  0  0  0  0
  184.9330  178.8260  143.8630 C   0  0  1  0  0  3  0  0  0  0  0  0
  188.1000  176.8560  144.3430 N   0  0  0  0  0  0  0  0  0  0  0  0
  182.7160  179.0130  143.9670 C   0  0  0  0  0  0  0  0  0  0  0  0
  184.5260  179.1010  145.2730 C   0  0  2  0  0  3  0  0  0  0  0  0
  188.6860  176.8230  142.0260 C   0  0  0  0  0  0  0  0  0  0  0  0
  186.2450  178.2270  143.5550 C   0  0  0  0  0  0  0  0  0  0  0  0
  188.4800  178.6900  140.5000 C   0  0  0  0  0  3  0  0  0  0  0  0
  185.0410  178.0140  146.1740 C   0  0  0  0  0  3  0  0  0  0  0  0
  191.4940  176.6440  139.4960 C   0  0  0  0  0  1  0  0  0  0  0  0
  189.8200  176.3910  141.3300 C   0  0  0  0  0  3  0  0  0  0  0  0
  188.0110  177.9910  141.6190 C   0  0  0  0  0  0  0  0  0  0  0  0
  191.4010  176.8020  147.0990 C   0  0  0  0  0  2  0  0  0  0  0  0
  189.2150  176.9960  145.2490 C   0  0  0  0  0  0  0  0  0  0  0  0
  189.0000  177.2570  146.5520 C   0  0  0  0  0  3  0  0  0  0  0  0
  190.1060  177.4670  147.5480 C   0  0  0  0  0  2  0  0  0  0  0  0
  191.7110  177.2540  145.6810 C   0  0  0  0  0  2  0  0  0  0  0  0
  190.6210  176.7550  144.7350 C   0  0  0  0  0  2  0  0  0  0  0  0
  1 12  1  0  0  0  0
  2  6  1  0  0  0  0
  3 16  1  0  0  0  0
  4 14  1  0  0  0  0
  5 13  1  0  0  0  0
  6 18  2  0  0  0  0
  7  9  1  1  0  0  0
  7 11  1  0  0  0  0
  7 13  1  0  0  0  0
  8 10  2  0  0  0  0
  8 17  1  0  0  0  0
 10 20  1  0  0  0  0
 11 16  1  1  0  0  0
 11 14  1  0  0  0  0
 12  2  1  0  0  0  0
 12 23  1  0  0  0  0
 13  4  2  0  0  0  0
 14 18  1  1  0  0  0
 15  1  1  0  0  0  0
 16  2  2  0  0  0  0
 17 21  2  0  0  0  0
 19 10  1  0  0  0  0
 20 15  2  0  0  0  0
 21 15  1  0  0  0  0
 21  3  1  0  0  0  0
 22 25  1  0  0  0  0
 23 24  2  0  0  0  0
 24 25  1  0  0  0  0
 26 22  1  0  0  0  0
 27 23  1  0  0  0  0
 27 26  1  0  0  0  0
M  END
>  <MODEL>
1

>  <REMARK>
 VINA RESULT:     -10.6      0.000      0.000
  Name = 
  1 active torsions:
  status: ('A' for Active; 'I' for Inactive)
    1  A    between atoms: C_9  and  N_15
                            x       y       z     vdW  Elec       q    Type
                         _______ _______ _______ _____ _____    ______ ____

>  <TORSDO>
F 1

$$$$
=
 OpenBabel10272400593D

 27 31  0  0  1  0  0  0  0  0999 V2000
  187.3900  179.3800  141.1520 C   0  0  0  0  0  2  0  0  0  0  0  0
  186.2930  178.3930  143.1260 C   0  0  0  0  0  0  0  0  0  0  0  0
  188.4530  177.1990  142.8910 N   0  0  0  0  0  2  0  0  0  0  0  0
  186.4740  177.8120  147.2360 N   0  0  0  0  0  0  0  0  0  0  0  0
  188.5270  178.1690  148.5080 C   0  0  0  0  0  1  0  0  0  0  0  0
  185.2160  178.9050  144.0250 C   0  0  0  0  0  3  0  0  0  0  0  0
  188.3510  177.6610  145.9520 C   0  0  2  0  0  3  0  0  0  0  0  0
  190.1650  176.4840  139.6670 C   0  0  0  0  0  3  0  0  0  0  0  0
  189.7700  177.9430  145.5850 C   0  0  0  0  0  1  0  0  0  0  0  0
  189.6680  177.4860  138.8330 C   0  0  0  0  0  0  0  0  0  0  0  0
  187.3400  177.5040  145.1110 C   0  0  1  0  0  3  0  0  0  0  0  0
  186.2290  178.7280  141.7340 N   0  0  0  0  0  0  0  0  0  0  0  0
  187.7660  177.8490  147.2700 C   0  0  0  0  0  0  0  0  0  0  0  0
  186.0570  177.5010  145.8730 C   0  0  2  0  0  3  0  0  0  0  0  0
  188.3330  178.3480  140.6640 C   0  0  0  0  0  0  0  0  0  0  0  0
  187.3580  177.7400  143.6560 C   0  0  0  0  0  0  0  0  0  0  0  0
  189.7450  176.4100  140.9960 C   0  0  0  0  0  3  0  0  0  0  0  0
  185.1270  178.5380  145.3110 C   0  0  0  0  0  3  0  0  0  0  0  0
  190.1130  177.5670  137.4180 C   0  0  0  0  0  1  0  0  0  0  0  0
  188.7590  178.4180  139.3340 C   0  0  0  0  0  3  0  0  0  0  0  0
  188.8190  177.3270  141.5070 C   0  0  0  0  0  0  0  0  0  0  0  0
  182.6570  178.3310  139.3720 C   0  0  0  0  0  2  0  0  0  0  0  0
  185.0730  178.4430  140.9170 C   0  0  0  0  0  0  0  0  0  0  0  0
  183.9560  177.9450  141.4780 C   0  0  0  0  0  3  0  0  0  0  0  0
  182.7300  177.5750  140.6920 C   0  0  0  0  0  2  0  0  0  0  0  0
  183.9770  178.1510  138.6380 C   0  0  0  0  0  2  0  0  0  0  0  0
  185.1020  178.7970  139.4440 C   0  0  0  0  0  2  0  0  0  0  0  0
  1 12  1  0  0  0  0
  2 16  2  0  0  0  0
  2  6  1  0  0  0  0
  3 16  1  0  0  0  0
  4 13  2  0  0  0  0
  6 18  2  0  0  0  0
  7  9  1  6  0  0  0
  7 13  1  0  0  0  0
  8 17  1  0  0  0  0
 10 20  1  0  0  0  0
 10  8  2  0  0  0  0
 11 16  1  6  0  0  0
 11 14  1  0  0  0  0
 11  7  1  0  0  0  0
 12  2  1  0  0  0  0
 13  5  1  0  0  0  0
 14 18  1  6  0  0  0
 14  4  1  0  0  0  0
 15  1  1  0  0  0  0
 15 21  1  0  0  0  0
 17 21  2  0  0  0  0
 19 10  1  0  0  0  0
 20 15  2  0  0  0  0
 21  3  1  0  0  0  0
 22 25  1  0  0  0  0
 23 24  2  0  0  0  0
 23 12  1  0  0  0  0
 25 24  1  0  0  0  0
 26 22  1  0  0  0  0
 26 27  1  0  0  0  0
 27 23  1  0  0  0  0
M  END
>  <MODEL>
2

>  <REMARK>
 VINA RESULT:      -9.2      1.649      5.485
  Name = 
  1 active torsions:
  status: ('A' for Active; 'I' for Inactive)
    1  A    between atoms: C_9  and  N_15
                            x       y       z     vdW  Elec       q    Type
                         _______ _______ _______ _____ _____    ______ ____

>  <TORSDO>
F 1

$$$$
=
 OpenBabel10272400593D

 27 31  0  0  1  0  0  0  0  0999 V2000
  187.5320  176.2610  143.8290 C   0  0  0  0  0  2  0  0  0  0  0  0
  185.7790  177.8630  144.4920 C   0  0  0  0  0  0  0  0  0  0  0  0
  186.4830  178.5420  142.2140 N   0  0  0  0  0  2  0  0  0  0  0  0
  181.9720  179.3240  143.7000 N   0  0  0  0  0  0  0  0  0  0  0  0
  180.8270  178.8880  141.5870 C   0  0  0  0  0  1  0  0  0  0  0  0
  184.6950  177.7810  145.5150 C   0  0  0  0  0  3  0  0  0  0  0  0
  183.4050  178.8210  142.0010 C   0  0  2  0  0  3  0  0  0  0  0  0
  189.9160  178.1660  140.8300 C   0  0  0  0  0  3  0  0  0  0  0  0
  183.8090  178.2010  140.7050 C   0  0  0  0  0  1  0  0  0  0  0  0
  190.4300  177.1110  141.5850 C   0  0  0  0  0  0  0  0  0  0  0  0
  184.1710  178.9690  143.0710 C   0  0  1  0  0  3  0  0  0  0  0  0
  187.0350  177.2350  144.7840 N   0  0  0  0  0  0  0  0  0  0  0  0
  182.0380  179.0540  142.4370 C   0  0  0  0  0  0  0  0  0  0  0  0
  183.3290  179.3880  144.2300 C   0  0  2  0  0  3  0  0  0  0  0  0
  188.3380  176.9580  142.8000 C   0  0  0  0  0  0  0  0  0  0  0  0
  185.5190  178.4070  143.2760 C   0  0  0  0  0  0  0  0  0  0  0  0
  188.6160  178.6200  141.0610 C   0  0  0  0  0  3  0  0  0  0  0  0
  183.5370  178.4430  145.3790 C   0  0  0  0  0  3  0  0  0  0  0  0
  191.8140  176.6260  141.3420 C   0  0  0  0  0  1  0  0  0  0  0  0
  189.6400  176.5060  142.5630 C   0  0  0  0  0  3  0  0  0  0  0  0
  187.8180  178.0350  142.0520 C   0  0  0  0  0  0  0  0  0  0  0  0
  189.4050  178.5560  148.1210 C   0  0  0  0  0  2  0  0  0  0  0  0
  187.7970  177.5380  145.9730 C   0  0  0  0  0  0  0  0  0  0  0  0
  189.0870  177.1680  146.0610 C   0  0  0  0  0  3  0  0  0  0  0  0
  189.9330  177.4010  147.2810 C   0  0  0  0  0  2  0  0  0  0  0  0
  187.9270  178.3220  148.3920 C   0  0  0  0  0  2  0  0  0  0  0  0
  187.1540  178.3570  147.0750 C   0  0  0  0  0  2  0  0  0  0  0  0
  1 12  1  0  0  0  0
  2 12  1  0  0  0  0
  2  6  1  0  0  0  0
  3 16  1  0  0  0  0
  4 14  1  0  0  0  0
  5 13  1  0  0  0  0
  7  9  1  1  0  0  0
  7 13  1  0  0  0  0
  7 11  1  0  0  0  0
  8 17  2  0  0  0  0
  8 10  1  0  0  0  0
 10 20  2  0  0  0  0
 11 16  1  1  0  0  0
 11 14  1  0  0  0  0
 12 23  1  0  0  0  0
 13  4  2  0  0  0  0
 14 18  1  1  0  0  0
 15  1  1  0  0  0  0
 16  2  2  0  0  0  0
 17 21  1  0  0  0  0
 18  6  2  0  0  0  0
 19 10  1  0  0  0  0
 20 15  1  0  0  0  0
 21  3  1  0  0  0  0
 21 15  2  0  0  0  0
 22 26  1  0  0  0  0
 23 24  2  0  0  0  0
 23 27  1  0  0  0  0
 24 25  1  0  0  0  0
 25 22  1  0  0  0  0
 27 26  1  0  0  0  0
M  END
>  <MODEL>
3

>  <REMARK>
 VINA RESULT:      -8.7      1.211      1.826
  Name = 
  1 active torsions:
  status: ('A' for Active; 'I' for Inactive)
    1  A    between atoms: C_9  and  N_15
                            x       y       z     vdW  Elec       q    Type
                         _______ _______ _______ _____ _____    ______ ____

>  <TORSDO>
F 1

$$$$
=
 OpenBabel10272400593D

 27 31  0  0  1  0  0  0  0  0999 V2000
  188.5380  176.2340  142.2430 C   0  0  0  0  0  2  0  0  0  0  0  0
  187.1150  177.7940  143.5130 C   0  0  0  0  0  0  0  0  0  0  0  0
  186.9850  178.5380  141.1520 N   0  0  0  0  0  2  0  0  0  0  0  0
  183.2610  179.2210  144.1230 N   0  0  0  0  0  0  0  0  0  0  0  0
  181.4600  178.8200  142.5240 C   0  0  0  0  0  1  0  0  0  0  0  0
  186.4500  177.6730  144.8450 C   0  0  0  0  0  3  0  0  0  0  0  0
  184.0220  178.7790  142.0210 C   0  0  2  0  0  3  0  0  0  0  0  0
  189.7320  178.2420  138.6590 C   0  0  0  0  0  3  0  0  0  0  0  0
  183.9570  178.1960  140.6490 C   0  0  0  0  0  1  0  0  0  0  0  0
  190.4800  177.1770  139.1620 C   0  0  0  0  0  0  0  0  0  0  0  0
  185.1100  178.9120  142.7650 C   0  0  1  0  0  3  0  0  0  0  0  0
  188.3970  177.1780  143.3380 N   0  0  0  0  0  0  0  0  0  0  0  0
  182.8880  178.9820  142.9080 C   0  0  0  0  0  0  0  0  0  0  0  0
  184.7170  179.2910  144.1540 C   0  0  2  0  0  3  0  0  0  0  0  0
  188.9360  176.9660  141.0190 C   0  0  0  0  0  0  0  0  0  0  0  0
  186.4480  178.3640  142.4770 C   0  0  0  0  0  0  0  0  0  0  0  0
  188.5890  178.6730  139.3370 C   0  0  0  0  0  3  0  0  0  0  0  0
  185.3130  178.3220  145.1350 C   0  0  0  0  0  3  0  0  0  0  0  0
  191.6970  176.7180  138.4430 C   0  0  0  0  0  1  0  0  0  0  0  0
  190.0780  176.5380  140.3350 C   0  0  0  0  0  3  0  0  0  0  0  0
  188.1850  178.0530  140.5260 C   0  0  0  0  0  0  0  0  0  0  0  0
  191.9650  177.6620  145.6900 C   0  0  0  0  0  2  0  0  0  0  0  0
  189.5210  177.4630  144.1980 C   0  0  0  0  0  0  0  0  0  0  0  0
  189.5890  176.9140  145.4250 C   0  0  0  0  0  3  0  0  0  0  0  0
  190.6980  177.1990  146.3980 C   0  0  0  0  0  2  0  0  0  0  0  0
  191.6070  178.8100  144.7600 C   0  0  0  0  0  2  0  0  0  0  0  0
  190.6610  178.3100  143.6690 C   0  0  0  0  0  2  0  0  0  0  0  0
  1 12  1  0  0  0  0
  2  6  1  0  0  0  0
  3 16  1  0  0  0  0
  4 14  1  0  0  0  0
  5 13  1  0  0  0  0
  6 18  2  0  0  0  0
  7  9  1  1  0  0  0
  7 11  1  0  0  0  0
  7 13  1  0  0  0  0
  8 10  2  0  0  0  0
  8 17  1  0  0  0  0
 10 20  1  0  0  0  0
 11 16  1  1  0  0  0
 11 14  1  0  0  0  0
 12  2  1  0  0  0  0
 12 23  1  0  0  0  0
 13  4  2  0  0  0  0
 14 18  1  1  0  0  0
 15  1  1  0  0  0  0
 16  2  2  0  0  0  0
 17 21  2  0  0  0  0
 19 10  1  0  0  0  0
 20 15  2  0  0  0  0
 21 15  1  0  0  0  0
 21  3  1  0  0  0  0
 22 25  1  0  0  0  0
 23 24  2  0  0  0  0
 24 25  1  0  0  0  0
 26 22  1  0  0  0  0
 27 23  1  0  0  0  0
 27 26  1  0  0  0  0
M  END
>  <MODEL>
4

>  <REMARK>
 VINA RESULT:      -8.6      1.049      1.215
  Name = 
  1 active torsions:
  status: ('A' for Active; 'I' for Inactive)
    1  A    between atoms: C_9  and  N_15
                            x       y       z     vdW  Elec       q    Type
                         _______ _______ _______ _____ _____    ______ ____

>  <TORSDO>
F 1

$$$$
=
 OpenBabel10272400593D

 27 31  0  0  1  0  0  0  0  0999 V2000
  187.9250  176.3940  143.3920 C   0  0  0  0  0  2  0  0  0  0  0  0
  187.3280  177.8490  141.4940 C   0  0  0  0  0  0  0  0  0  0  0  0
  189.7800  178.0850  141.7760 N   0  0  0  0  0  2  0  0  0  0  0  0
  187.7770  178.5570  137.4250 N   0  0  0  0  0  0  0  0  0  0  0  0
  189.5440  177.5020  136.1110 C   0  0  0  0  0  1  0  0  0  0  0  0
  186.1490  177.8530  140.5780 C   0  0  0  0  0  3  0  0  0  0  0  0
  189.5460  177.8840  138.6940 C   0  0  2  0  0  3  0  0  0  0  0  0
  191.5920  177.8790  145.0190 C   0  0  0  0  0  3  0  0  0  0  0  0
  190.7360  177.0490  139.0280 C   0  0  0  0  0  1  0  0  0  0  0  0
  190.7310  177.1040  145.7960 C   0  0  0  0  0  0  0  0  0  0  0  0
  188.6660  178.3740  139.5540 C   0  0  1  0  0  3  0  0  0  0  0  0
  187.1200  177.4820  142.8640 N   0  0  0  0  0  0  0  0  0  0  0  0
  188.9520  178.0200  137.3740 C   0  0  0  0  0  0  0  0  0  0  0  0
  187.4970  178.9240  138.8080 C   0  0  2  0  0  3  0  0  0  0  0  0
  189.1900  176.9440  143.9320 C   0  0  0  0  0  0  0  0  0  0  0  0
  188.5710  178.0630  140.9930 C   0  0  0  0  0  0  0  0  0  0  0  0
  191.2520  178.1910  143.7010 C   0  0  0  0  0  3  0  0  0  0  0  0
  186.2280  178.3020  139.3170 C   0  0  0  0  0  3  0  0  0  0  0  0
  191.0900  176.7710  147.1990 C   0  0  0  0  0  1  0  0  0  0  0  0
  189.5360  176.6330  145.2500 C   0  0  0  0  0  3  0  0  0  0  0  0
  190.0480  177.7420  143.1460 C   0  0  0  0  0  0  0  0  0  0  0  0
  183.9800  179.0770  145.3320 C   0  0  0  0  0  2  0  0  0  0  0  0
  186.1570  178.1470  143.7090 C   0  0  0  0  0  0  0  0  0  0  0  0
  185.2390  178.9710  143.1700 C   0  0  0  0  0  3  0  0  0  0  0  0
  184.2360  179.7390  143.9840 C   0  0  0  0  0  2  0  0  0  0  0  0
  185.3160  178.8320  146.0130 C   0  0  0  0  0  2  0  0  0  0  0  0
  186.1340  177.8360  145.1920 C   0  0  0  0  0  2  0  0  0  0  0  0
  1 15  1  0  0  0  0
  2 12  1  0  0  0  0
  3 21  1  0  0  0  0
  4 14  1  0  0  0  0
  5 13  1  0  0  0  0
  6  2  1  0  0  0  0
  7  9  1  1  0  0  0
  7 11  1  0  0  0  0
  8 10  1  0  0  0  0
 10 19  1  0  0  0  0
 11 16  1  1  0  0  0
 12  1  1  0  0  0  0
 12 23  1  0  0  0  0
 13  4  2  0  0  0  0
 13  7  1  0  0  0  0
 14 18  1  1  0  0  0
 14 11  1  0  0  0  0
 15 20  1  0  0  0  0
 16  2  2  0  0  0  0
 16  3  1  0  0  0  0
 17  8  2  0  0  0  0
 18  6  2  0  0  0  0
 20 10  2  0  0  0  0
 21 17  1  0  0  0  0
 21 15  2  0  0  0  0
 22 26  1  0  0  0  0
 23 27  1  0  0  0  0
 24 23  2  0  0  0  0
 24 25  1  0  0  0  0
 25 22  1  0  0  0  0
 27 26  1  0  0  0  0
M  END
>  <MODEL>
5

>  <REMARK>
 VINA RESULT:      -8.4      1.830      6.037
  Name = 
  1 active torsions:
  status: ('A' for Active; 'I' for Inactive)
    1  A    between atoms: C_9  and  N_15
                            x       y       z     vdW  Elec       q    Type
                         _______ _______ _______ _____ _____    ______ ____

>  <TORSDO>
F 1

$$$$
=
 OpenBabel10272400593D

 27 31  0  0  1  0  0  0  0  0999 V2000
  188.2850  179.2730  141.8460 C   0  0  0  0  0  2  0  0  0  0  0  0
  186.1950  178.3930  140.8800 C   0  0  0  0  0  0  0  0  0  0  0  0
  186.1830  177.6920  143.2580 N   0  0  0  0  0  2  0  0  0  0  0  0
  182.0430  178.5320  140.9500 N   0  0  0  0  0  0  0  0  0  0  0  0
  180.8090  179.5380  142.8010 C   0  0  0  0  0  1  0  0  0  0  0  0
  185.4170  178.7880  139.6690 C   0  0  0  0  0  3  0  0  0  0  0  0
  183.2460  178.6020  142.8850 C   0  0  2  0  0  3  0  0  0  0  0  0
  189.2070  176.8730  145.2650 C   0  0  0  0  0  3  0  0  0  0  0  0
  183.6280  179.1320  144.2270 C   0  0  0  0  0  1  0  0  0  0  0  0
  190.2070  177.5920  144.6090 C   0  0  0  0  0  0  0  0  0  0  0  0
  184.0680  178.0910  141.9820 C   0  0  1  0  0  3  0  0  0  0  0  0
  187.6250  178.4800  140.8240 N   0  0  0  0  0  0  0  0  0  0  0  0
  181.9910  178.8620  142.1990 C   0  0  0  0  0  0  0  0  0  0  0  0
  183.3420  177.9220  140.6890 C   0  0  2  0  0  3  0  0  0  0  0  0
  188.5740  178.4140  143.0170 C   0  0  0  0  0  0  0  0  0  0  0  0
  185.5420  178.0890  142.0300 C   0  0  0  0  0  0  0  0  0  0  0  0
  187.8920  176.9200  144.7960 C   0  0  0  0  0  3  0  0  0  0  0  0
  184.0890  178.6210  139.5890 C   0  0  0  0  0  3  0  0  0  0  0  0
  191.6070  177.5430  145.1060 C   0  0  0  0  0  1  0  0  0  0  0  0
  189.8880  178.3650  143.4920 C   0  0  0  0  0  3  0  0  0  0  0  0
  187.5620  177.6760  143.6650 C   0  0  0  0  0  0  0  0  0  0  0  0
  190.0930  176.9340  137.6590 C   0  0  0  0  0  2  0  0  0  0  0  0
  188.4040  177.8160  139.8060 C   0  0  0  0  0  0  0  0  0  0  0  0
  187.8560  177.5360  138.6100 C   0  0  0  0  0  3  0  0  0  0  0  0
  188.5830  176.8050  137.5160 C   0  0  0  0  0  2  0  0  0  0  0  0
  190.4820  176.5380  139.0750 C   0  0  0  0  0  2  0  0  0  0  0  0
  189.8680  177.5230  140.0690 C   0  0  0  0  0  2  0  0  0  0  0  0
  1 15  1  0  0  0  0
  2 16  2  0  0  0  0
  3 21  1  0  0  0  0
  4 13  2  0  0  0  0
  6  2  1  0  0  0  0
  7  9  1  6  0  0  0
 10 19  1  0  0  0  0
 10  8  2  0  0  0  0
 11 16  1  6  0  0  0
 11  7  1  0  0  0  0
 12  2  1  0  0  0  0
 12  1  1  0  0  0  0
 13  5  1  0  0  0  0
 13  7  1  0  0  0  0
 14 18  1  6  0  0  0
 14  4  1  0  0  0  0
 14 11  1  0  0  0  0
 15 20  2  0  0  0  0
 15 21  1  0  0  0  0
 16  3  1  0  0  0  0
 17  8  1  0  0  0  0
 18  6  2  0  0  0  0
 20 10  1  0  0  0  0
 21 17  2  0  0  0  0
 22 26  1  0  0  0  0
 23 27  1  0  0  0  0
 23 12  1  0  0  0  0
 24 23  2  0  0  0  0
 25 22  1  0  0  0  0
 25 24  1  0  0  0  0
 26 27  1  0  0  0  0
M  END
>  <MODEL>
6

>  <REMARK>
 VINA RESULT:      -8.2      1.759      4.994
  Name = 
  1 active torsions:
  status: ('A' for Active; 'I' for Inactive)
    1  A    between atoms: C_9  and  N_15
                            x       y       z     vdW  Elec       q    Type
                         _______ _______ _______ _____ _____    ______ ____

>  <TORSDO>
F 1

$$$$
=
 OpenBabel10272400593D

 27 31  0  0  1  0  0  0  0  0999 V2000
  188.9520  178.6560  138.5910 C   0  0  0  0  0  2  0  0  0  0  0  0
  188.0660  177.7820  140.7180 C   0  0  0  0  0  0  0  0  0  0  0  0
  189.9970  176.3350  140.1500 N   0  0  0  0  0  2  0  0  0  0  0  0
  188.8200  177.1230  144.7500 N   0  0  0  0  0  0  0  0  0  0  0  0
  191.0760  177.2050  145.6800 C   0  0  0  0  0  1  0  0  0  0  0  0
  187.2170  178.4110  141.7730 C   0  0  0  0  0  3  0  0  0  0  0  0
  190.4380  176.7600  143.1870 C   0  0  2  0  0  3  0  0  0  0  0  0
  191.0770  175.4610  136.6990 C   0  0  0  0  0  3  0  0  0  0  0  0
  191.8040  176.8700  142.5980 C   0  0  0  0  0  1  0  0  0  0  0  0
  190.5830  176.5300  135.9500 C   0  0  0  0  0  0  0  0  0  0  0  0
  189.2950  176.7420  142.5170 C   0  0  1  0  0  3  0  0  0  0  0  0
  187.8270  178.1440  139.3520 N   0  0  0  0  0  0  0  0  0  0  0  0
  190.0950  176.9990  144.5790 C   0  0  0  0  0  0  0  0  0  0  0  0
  188.1580  176.8860  143.4730 C   0  0  2  0  0  3  0  0  0  0  0  0
  189.6710  177.5220  137.9640 C   0  0  0  0  0  0  0  0  0  0  0  0
  189.1120  176.9960  141.0760 C   0  0  0  0  0  0  0  0  0  0  0  0
  190.8660  175.4200  138.0790 C   0  0  0  0  0  3  0  0  0  0  0  0
  187.2870  178.0380  143.0590 C   0  0  0  0  0  3  0  0  0  0  0  0
  190.8060  176.5760  134.4810 C   0  0  0  0  0  1  0  0  0  0  0  0
  189.8870  177.5600  136.5830 C   0  0  0  0  0  3  0  0  0  0  0  0
  190.1530  176.4370  138.7250 C   0  0  0  0  0  0  0  0  0  0  0  0
  183.8920  177.3900  137.7870 C   0  0  0  0  0  2  0  0  0  0  0  0
  186.5300  178.0160  138.7300 C   0  0  0  0  0  0  0  0  0  0  0  0
  186.3880  177.2900  137.6060 C   0  0  0  0  0  3  0  0  0  0  0  0
  185.0840  177.1480  136.8710 C   0  0  0  0  0  2  0  0  0  0  0  0
  184.0920  178.7160  138.5040 C   0  0  0  0  0  2  0  0  0  0  0  0
  185.3200  178.6290  139.4080 C   0  0  0  0  0  2  0  0  0  0  0  0
  1 12  1  0  0  0  0
  2 16  2  0  0  0  0
  2  6  1  0  0  0  0
  3 16  1  0  0  0  0
  6 18  2  0  0  0  0
  7  9  1  6  0  0  0
  7 13  1  0  0  0  0
  8 17  1  0  0  0  0
 10 20  1  0  0  0  0
 10  8  2  0  0  0  0
 11 16  1  6  0  0  0
 11  7  1  0  0  0  0
 11 14  1  0  0  0  0
 12  2  1  0  0  0  0
 13  4  2  0  0  0  0
 13  5  1  0  0  0  0
 14 18  1  6  0  0  0
 14  4  1  0  0  0  0
 15  1  1  0  0  0  0
 15 21  1  0  0  0  0
 17 21  2  0  0  0  0
 19 10  1  0  0  0  0
 20 15  2  0  0  0  0
 21  3  1  0  0  0  0
 22 26  1  0  0  0  0
 23 12  1  0  0  0  0
 23 27  1  0  0  0  0
 24 23  2  0  0  0  0
 25 24  1  0  0  0  0
 25 22  1  0  0  0  0
 26 27  1  0  0  0  0
M  END
>  <MODEL>
7

>  <REMARK>
 VINA RESULT:      -7.9      2.706      6.767
  Name = 
  1 active torsions:
  status: ('A' for Active; 'I' for Inactive)
    1  A    between atoms: C_9  and  N_15
                            x       y       z     vdW  Elec       q    Type
                         _______ _______ _______ _____ _____    ______ ____

>  <TORSDO>
F 1

$$$$
=
 OpenBabel10272400593D

 27 31  0  0  1  0  0  0  0  0999 V2000
  188.1360  176.3110  143.1450 C   0  0  0  0  0  2  0  0  0  0  0  0
  187.8120  177.6610  141.1090 C   0  0  0  0  0  0  0  0  0  0  0  0
  190.2240  177.8360  141.6540 N   0  0  0  0  0  2  0  0  0  0  0  0
  188.7400  178.0970  137.0830 N   0  0  0  0  0  0  0  0  0  0  0  0
  190.6000  176.9060  136.0430 C   0  0  0  0  0  1  0  0  0  0  0  0
  186.7440  177.6450  140.0660 C   0  0  0  0  0  3  0  0  0  0  0  0
  190.3290  177.4500  138.5830 C   0  0  2  0  0  3  0  0  0  0  0  0
  191.6540  177.7770  145.0890 C   0  0  0  0  0  3  0  0  0  0  0  0
  191.4410  176.5990  139.0990 C   0  0  0  0  0  1  0  0  0  0  0  0
  190.6820  177.0790  145.8060 C   0  0  0  0  0  0  0  0  0  0  0  0
  189.3780  178.0200  139.3070 C   0  0  1  0  0  3  0  0  0  0  0  0
  187.4380  177.3880  142.4650 N   0  0  0  0  0  0  0  0  0  0  0  0
  189.8910  177.5210  137.1980 C   0  0  0  0  0  0  0  0  0  0  0  0
  188.3210  178.5600  138.4010 C   0  0  2  0  0  3  0  0  0  0  0  0
  189.3530  176.8530  143.7920 C   0  0  0  0  0  0  0  0  0  0  0  0
  189.1100  177.8030  140.7410 C   0  0  0  0  0  0  0  0  0  0  0  0
  191.4750  178.0160  143.7240 C   0  0  0  0  0  3  0  0  0  0  0  0
  186.9800  178.0110  138.7980 C   0  0  0  0  0  3  0  0  0  0  0  0
  190.8690  176.8240  147.2590 C   0  0  0  0  0  1  0  0  0  0  0  0
  189.5380  176.6140  145.1570 C   0  0  0  0  0  3  0  0  0  0  0  0
  190.3240  177.5710  143.0630 C   0  0  0  0  0  0  0  0  0  0  0  0
  184.6920  179.9790  144.5260 C   0  0  0  0  0  2  0  0  0  0  0  0
  186.4130  178.1360  143.1550 C   0  0  0  0  0  0  0  0  0  0  0  0
  186.3150  178.0710  144.4950 C   0  0  0  0  0  3  0  0  0  0  0  0
  185.2470  178.7790  145.2820 C   0  0  0  0  0  2  0  0  0  0  0  0
  184.2800  179.5260  143.1350 C   0  0  0  0  0  2  0  0  0  0  0  0
  185.5130  179.0620  142.3610 C   0  0  0  0  0  2  0  0  0  0  0  0
  1 15  1  0  0  0  0
  2 12  1  0  0  0  0
  3 21  1  0  0  0  0
  4 13  2  0  0  0  0
  4 14  1  0  0  0  0
  5 13  1  0  0  0  0
  6  2  1  0  0  0  0
  7  9  1  1  0  0  0
  7 11  1  0  0  0  0
  8 10  1  0  0  0  0
 10 19  1  0  0  0  0
 11 16  1  1  0  0  0
 12  1  1  0  0  0  0
 12 23  1  0  0  0  0
 13  7  1  0  0  0  0
 14 18  1  1  0  0  0
 14 11  1  0  0  0  0
 15 20  1  0  0  0  0
 16  2  2  0  0  0  0
 16  3  1  0  0  0  0
 17  8  2  0  0  0  0
 18  6  2  0  0  0  0
 20 10  2  0  0  0  0
 21 17  1  0  0  0  0
 21 15  2  0  0  0  0
 22 25  1  0  0  0  0
 23 24  2  0  0  0  0
 24 25  1  0  0  0  0
 26 22  1  0  0  0  0
 27 26  1  0  0  0  0
 27 23  1  0  0  0  0
M  END
>  <MODEL>
8

>  <REMARK>
 VINA RESULT:      -7.8      1.931      6.414
  Name = 
  1 active torsions:
  status: ('A' for Active; 'I' for Inactive)
    1  A    between atoms: C_9  and  N_15
                            x       y       z     vdW  Elec       q    Type
                         _______ _______ _______ _____ _____    ______ ____

>  <TORSDO>
F 1

$$$$
=
 OpenBabel10272400593D

 27 31  0  0  1  0  0  0  0  0999 V2000
  183.7900  177.2880  140.0500 C   0  0  0  0  0  2  0  0  0  0  0  0
  185.2980  178.1830  138.3170 C   0  0  0  0  0  0  0  0  0  0  0  0
  186.3400  178.7780  140.4870 N   0  0  0  0  0  2  0  0  0  0  0  0
  189.0800  177.9870  136.6090 N   0  0  0  0  0  0  0  0  0  0  0  0
  190.9520  176.8840  137.7230 C   0  0  0  0  0  1  0  0  0  0  0  0
  185.4760  177.8310  136.8770 C   0  0  0  0  0  3  0  0  0  0  0  0
  188.8120  177.8470  138.8680 C   0  0  2  0  0  3  0  0  0  0  0  0
  184.4820  179.5480  143.6160 C   0  0  0  0  0  3  0  0  0  0  0  0
  189.0200  177.2640  140.2250 C   0  0  0  0  0  1  0  0  0  0  0  0
  183.2770  178.8710  143.4240 C   0  0  0  0  0  0  0  0  0  0  0  0
  187.7000  178.4090  138.4190 C   0  0  1  0  0  3  0  0  0  0  0  0
  183.9780  178.1170  138.8730 N   0  0  0  0  0  0  0  0  0  0  0  0
  189.6480  177.6010  137.7050 C   0  0  0  0  0  0  0  0  0  0  0  0
  187.8130  178.6250  136.9470 C   0  0  2  0  0  3  0  0  0  0  0  0
  184.0530  178.0990  141.2620 C   0  0  0  0  0  0  0  0  0  0  0  0
  186.3860  178.4270  139.0900 C   0  0  0  0  0  0  0  0  0  0  0  0
  185.4710  179.5040  142.6310 C   0  0  0  0  0  3  0  0  0  0  0  0
  186.6480  177.9840  136.2460 C   0  0  0  0  0  3  0  0  0  0  0  0
  182.2220  178.9160  144.4710 C   0  0  0  0  0  1  0  0  0  0  0  0
  183.0670  178.1440  142.2520 C   0  0  0  0  0  3  0  0  0  0  0  0
  185.2660  178.7940  141.4420 C   0  0  0  0  0  0  0  0  0  0  0  0
  180.9370  180.3630  136.8220 C   0  0  0  0  0  2  0  0  0  0  0  0
  182.8610  178.8360  138.3060 C   0  0  0  0  0  0  0  0  0  0  0  0
  182.6480  180.1230  138.6350 C   0  0  0  0  0  3  0  0  0  0  0  0
  181.4820  180.9250  138.1290 C   0  0  0  0  0  2  0  0  0  0  0  0
  180.6720  178.8780  137.0070 C   0  0  0  0  0  2  0  0  0  0  0  0
  181.9900  178.1520  137.2720 C   0  0  0  0  0  2  0  0  0  0  0  0
  1 15  1  0  0  0  0
  2 12  1  0  0  0  0
  2 16  2  0  0  0  0
  3 21  1  0  0  0  0
  4 14  1  0  0  0  0
  4 13  2  0  0  0  0
  6  2  1  0  0  0  0
  7  9  1  6  0  0  0
 10  8  1  0  0  0  0
 10 19  1  0  0  0  0
 11  7  1  0  0  0  0
 11 16  1  6  0  0  0
 12  1  1  0  0  0  0
 13  5  1  0  0  0  0
 13  7  1  0  0  0  0
 14 18  1  6  0  0  0
 14 11  1  0  0  0  0
 15 21  2  0  0  0  0
 15 20  1  0  0  0  0
 16  3  1  0  0  0  0
 17  8  2  0  0  0  0
 18  6  2  0  0  0  0
 20 10  2  0  0  0  0
 21 17  1  0  0  0  0
 22 26  1  0  0  0  0
 22 25  1  0  0  0  0
 23 24  2  0  0  0  0
 23 12  1  0  0  0  0
 25 24  1  0  0  0  0
 26 27  1  0  0  0  0
 27 23  1  0  0  0  0
M  END
>  <MODEL>
9

>  <REMARK>
 VINA RESULT:      -7.7      3.602      8.830
  Name = 
  1 active torsions:
  status: ('A' for Active; 'I' for Inactive)
    1  A    between atoms: C_9  and  N_15
                            x       y       z     vdW  Elec       q    Type
                         _______ _______ _______ _____ _____    ______ ____

>  <TORSDO>
F 1

$$$$
