=
 OpenBabel10272415203D

 34 39  0  0  1  0  0  0  0  0999 V2000
  183.1310  178.5730  140.8690 C   0  0  2  0  0  3  0  0  0  0  0  0
  181.5440  175.8040  138.7990 C   0  0  0  0  0  3  0  0  0  0  0  0
  180.5680  176.9590  140.6860 C   0  0  0  0  0  2  0  0  0  0  0  0
  185.0500  179.5450  142.1270 C   0  0  0  0  0  2  0  0  0  0  0  0
  184.5960  178.3850  141.2470 C   0  0  0  0  0  2  0  0  0  0  0  0
  182.3190  179.1410  143.1840 C   0  0  1  0  0  3  0  0  0  0  0  0
  180.7500  178.9880  144.0880 S   0  0  0  0  0  0  0  0  0  0  0  0
  183.4800  178.7310  144.0760 C   0  0  0  0  0  2  0  0  0  0  0  0
  184.8310  179.3200  143.6340 C   0  0  1  0  0  3  0  0  0  0  0  0
  180.7950  178.1450  141.6170 C   0  0  2  0  0  3  0  0  0  0  0  0
  182.2360  178.1690  142.0410 C   0  0  1  0  0  3  0  0  0  0  0  0
  179.9820  178.0180  142.8130 N   0  0  0  0  0  2  0  0  0  0  0  0
  182.5790  175.4650  137.7830 C   0  0  0  0  0  2  0  0  0  0  0  0
  182.7060  176.5450  136.7580 C   0  0  0  0  0  0  0  0  0  0  0  0
  183.1220  177.7690  137.0980 C   0  0  0  0  0  3  0  0  0  0  0  0
  181.6330  176.8510  139.6230 C   0  0  0  0  0  0  0  0  0  0  0  0
  183.3660  178.2460  138.4740 C   0  0  0  0  0  3  0  0  0  0  0  0
  182.7810  177.8180  139.6050 C   0  0  0  0  0  0  0  0  0  0  0  0
  187.8730  177.0780  144.0920 C   0  0  0  0  0  3  0  0  0  0  0  0
  186.1680  178.6720  145.6420 C   0  0  0  0  0  3  0  0  0  0  0  0
  189.7400  177.1950  147.2550 N   0  0  0  0  0  0  0  0  0  0  0  0
  191.1210  177.0140  147.6060 C   0  0  0  0  0  0  0  0  0  0  0  0
  189.1710  176.4210  146.1420 C   0  0  0  0  0  2  0  0  0  0  0  0
  191.6350  177.6960  148.5320 O   0  0  0  0  0  0  0  0  0  0  0  0
  188.0740  177.1840  145.4700 C   0  0  0  0  0  0  0  0  0  0  0  0
  191.9750  176.0230  146.8890 C   0  0  0  0  0  1  0  0  0  0  0  0
  187.4250  178.0400  147.7220 C   0  0  0  0  0  2  0  0  0  0  0  0
  187.2240  177.9820  146.2440 C   0  0  0  0  0  0  0  0  0  0  0  0
  188.9190  178.1170  148.0600 C   0  0  0  0  0  2  0  0  0  0  0  0
  185.9680  178.5780  144.2590 C   0  0  0  0  0  0  0  0  0  0  0  0
  186.8250  177.7770  143.4860 C   0  0  0  0  0  3  0  0  0  0  0  0
  182.4610  176.2190  135.3440 C   0  0  0  0  0  0  0  0  0  0  0  0
  182.8640  177.0990  134.3460 O   0  0  0  0  0  0  0  0  0  0  0  0
  181.8950  175.1400  135.0210 O   0  0  0  0  0  1  0  0  0  0  0  0
  1  5  1  1  0  0  0
  1 11  1  0  0  0  0
  2 16  2  0  0  0  0
  4  9  1  0  0  0  0
  5  4  1  0  0  0  0
  6  8  1  1  0  0  0
  6  7  1  0  0  0  0
  9  8  1  0  0  0  0
  9 30  1  6  0  0  0
 10  3  1  6  0  0  0
 10 11  1  0  0  0  0
 10 12  1  0  0  0  0
 11  6  1  0  0  0  0
 12  7  1  0  0  0  0
 13  2  1  0  0  0  0
 14 15  2  0  0  0  0
 14 13  1  0  0  0  0
 15 17  1  0  0  0  0
 16  3  1  0  0  0  0
 17 18  2  0  0  0  0
 18 16  1  0  0  0  0
 18  1  1  0  0  0  0
 19 25  1  0  0  0  0
 20 28  1  0  0  0  0
 21 22  1  0  0  0  0
 21 29  1  0  0  0  0
 22 24  2  0  0  0  0
 23 21  1  0  0  0  0
 25 23  1  0  0  0  0
 25 28  2  0  0  0  0
 26 22  1  0  0  0  0
 27 29  1  0  0  0  0
 28 27  1  0  0  0  0
 30 20  2  0  0  0  0
 31 19  2  0  0  0  0
 31 30  1  0  0  0  0
 32 14  1  0  0  0  0
 33 32  2  0  0  0  0
 34 32  1  0  0  0  0
M  END
>  <MODEL>
1

>  <REMARK>
 VINA RESULT:      -9.4      0.000      0.000
  Name = 
  2 active torsions:
  status: ('A' for Active; 'I' for Inactive)
    1  A    between atoms: C_3  and  C_25
    2  A    between atoms: C_18  and  C_30
                            x       y       z     vdW  Elec       q    Type
                         _______ _______ _______ _____ _____    ______ ____

>  <TORSDO>
F 2

$$$$
=
 OpenBabel10272415203D

 34 39  0  0  1  0  0  0  0  0999 V2000
  190.4790  176.7940  137.4210 C   0  0  2  0  0  3  0  0  0  0  0  0
  192.4240  173.6370  136.5740 C   0  0  0  0  0  3  0  0  0  0  0  0
  190.2450  174.2760  135.7450 C   0  0  0  0  0  2  0  0  0  0  0  0
  189.5990  178.4550  139.0580 C   0  0  0  0  0  2  0  0  0  0  0  0
  190.4750  177.2180  138.8860 C   0  0  0  0  0  2  0  0  0  0  0  0
  187.9900  176.9600  137.0780 C   0  0  1  0  0  3  0  0  0  0  0  0
  186.7710  176.1720  135.9860 S   0  0  0  0  0  0  0  0  0  0  0  0
  187.4440  177.0530  138.4940 C   0  0  0  0  0  2  0  0  0  0  0  0
  188.1170  178.1470  139.3410 C   0  0  1  0  0  3  0  0  0  0  0  0
  189.2640  175.4430  135.7190 C   0  0  2  0  0  3  0  0  0  0  0  0
  189.1850  176.0500  137.0920 C   0  0  1  0  0  3  0  0  0  0  0  0
  187.9340  174.9840  135.3600 N   0  0  0  0  0  2  0  0  0  0  0  0
  193.6850  173.7590  137.3600 C   0  0  0  0  0  2  0  0  0  0  0  0
  194.5820  174.8060  136.7830 C   0  0  0  0  0  0  0  0  0  0  0  0
  194.2120  176.0900  136.7570 C   0  0  0  0  0  3  0  0  0  0  0  0
  191.5310  174.6210  136.4540 C   0  0  0  0  0  0  0  0  0  0  0  0
  192.8850  176.6130  137.1390 C   0  0  0  0  0  3  0  0  0  0  0  0
  191.7050  175.9730  137.0830 C   0  0  0  0  0  0  0  0  0  0  0  0
  188.5670  177.1330  142.9830 C   0  0  0  0  0  3  0  0  0  0  0  0
  186.6230  178.2990  141.3370 C   0  0  0  0  0  3  0  0  0  0  0  0
  186.1870  178.3540  145.5020 N   0  0  0  0  0  0  0  0  0  0  0  0
  186.2940  178.6950  146.8930 C   0  0  0  0  0  0  0  0  0  0  0  0
  187.0200  177.2710  144.9590 C   0  0  0  0  0  2  0  0  0  0  0  0
  185.6160  179.6450  147.3670 O   0  0  0  0  0  0  0  0  0  0  0  0
  187.3350  177.5150  143.5170 C   0  0  0  0  0  0  0  0  0  0  0  0
  187.2020  177.9410  147.8040 C   0  0  0  0  0  1  0  0  0  0  0  0
  185.0350  178.4510  143.2770 C   0  0  0  0  0  2  0  0  0  0  0  0
  186.3640  178.0990  142.6950 C   0  0  0  0  0  0  0  0  0  0  0  0
  185.2020  179.0690  144.6700 C   0  0  0  0  0  2  0  0  0  0  0  0
  187.8600  177.9280  140.7980 C   0  0  0  0  0  0  0  0  0  0  0  0
  188.8320  177.3430  141.6260 C   0  0  0  0  0  3  0  0  0  0  0  0
  195.9290  174.4200  136.3300 C   0  0  0  0  0  0  0  0  0  0  0  0
  197.0260  175.2060  136.6620 O   0  0  0  0  0  1  0  0  0  0  0  0
  196.1030  173.3750  135.6480 O   0  0  0  0  0  0  0  0  0  0  0  0
  1  5  1  1  0  0  0
  2 13  1  0  0  0  0
  3 16  1  0  0  0  0
  4  9  1  0  0  0  0
  5  4  1  0  0  0  0
  6 11  1  0  0  0  0
  6  8  1  1  0  0  0
  7  6  1  0  0  0  0
  8  9  1  0  0  0  0
  9 30  1  1  0  0  0
 10  3  1  1  0  0  0
 10 11  1  0  0  0  0
 11  1  1  0  0  0  0
 12 10  1  0  0  0  0
 12  7  1  0  0  0  0
 14 13  1  0  0  0  0
 15 14  2  0  0  0  0
 15 17  1  0  0  0  0
 16  2  2  0  0  0  0
 16 18  1  0  0  0  0
 18 17  2  0  0  0  0
 18  1  1  0  0  0  0
 19 25  1  0  0  0  0
 20 28  1  0  0  0  0
 21 22  1  0  0  0  0
 22 24  2  0  0  0  0
 22 26  1  0  0  0  0
 23 21  1  0  0  0  0
 25 23  1  0  0  0  0
 27 29  1  0  0  0  0
 28 27  1  0  0  0  0
 28 25  2  0  0  0  0
 29 21  1  0  0  0  0
 30 20  2  0  0  0  0
 30 31  1  0  0  0  0
 31 19  2  0  0  0  0
 32 33  1  0  0  0  0
 32 14  1  0  0  0  0
 34 32  2  0  0  0  0
M  END
>  <MODEL>
2

>  <REMARK>
 VINA RESULT:      -9.0      7.139      8.585
  Name = 
  2 active torsions:
  status: ('A' for Active; 'I' for Inactive)
    1  A    between atoms: C_3  and  C_25
    2  A    between atoms: C_18  and  C_30
                            x       y       z     vdW  Elec       q    Type
                         _______ _______ _______ _____ _____    ______ ____

>  <TORSDO>
F 2

$$$$
=
 OpenBabel10272415203D

 34 39  0  0  1  0  0  0  0  0999 V2000
  188.5420  178.0090  140.8710 C   0  0  2  0  0  3  0  0  0  0  0  0
  187.6620  177.1440  144.4680 C   0  0  0  0  0  3  0  0  0  0  0  0
  189.8730  177.4340  143.5350 C   0  0  0  0  0  2  0  0  0  0  0  0
  188.2790  177.6940  138.4120 C   0  0  0  0  0  2  0  0  0  0  0  0
  187.7550  177.2820  139.7850 C   0  0  0  0  0  2  0  0  0  0  0  0
  190.8240  177.5580  139.9090 C   0  0  1  0  0  3  0  0  0  0  0  0
  192.5080  177.4010  140.5730 S   0  0  0  0  0  0  0  0  0  0  0  0
  190.5640  176.4740  138.8750 C   0  0  0  0  0  2  0  0  0  0  0  0
  189.4370  176.8250  137.8890 C   0  0  1  0  0  3  0  0  0  0  0  0
  190.5940  177.9020  142.2760 C   0  0  2  0  0  3  0  0  0  0  0  0
  189.8980  177.3340  141.0710 C   0  0  1  0  0  3  0  0  0  0  0  0
  191.9640  177.4230  142.2640 N   0  0  0  0  0  2  0  0  0  0  0  0
  186.1720  177.0890  144.4800 C   0  0  0  0  0  2  0  0  0  0  0  0
  185.5790  178.4550  144.3670 C   0  0  0  0  0  0  0  0  0  0  0  0
  185.7650  179.1960  143.2690 C   0  0  0  0  0  3  0  0  0  0  0  0
  188.3760  177.5860  143.4310 C   0  0  0  0  0  0  0  0  0  0  0  0
  186.6470  178.8530  142.1360 C   0  0  0  0  0  3  0  0  0  0  0  0
  187.7570  178.0960  142.1620 C   0  0  0  0  0  0  0  0  0  0  0  0
  189.2440  173.3010  136.4620 C   0  0  0  0  0  3  0  0  0  0  0  0
  187.6990  175.6370  136.5450 C   0  0  0  0  0  3  0  0  0  0  0  0
  186.0280  172.0340  135.2170 N   0  0  0  0  0  0  0  0  0  0  0  0
  185.4190  170.7330  135.1690 C   0  0  0  0  0  0  0  0  0  0  0  0
  187.4860  172.1520  135.0800 C   0  0  0  0  0  2  0  0  0  0  0  0
  184.1740  170.6090  135.3220 O   0  0  0  0  0  0  0  0  0  0  0  0
  187.9960  173.3380  135.8350 C   0  0  0  0  0  0  0  0  0  0  0  0
  186.2360  169.5070  134.9380 C   0  0  0  0  0  1  0  0  0  0  0  0
  185.9160  174.5380  135.1580 C   0  0  0  0  0  2  0  0  0  0  0  0
  187.2230  174.5040  135.8790 C   0  0  0  0  0  0  0  0  0  0  0  0
  185.1600  173.2180  135.3500 C   0  0  0  0  0  2  0  0  0  0  0  0
  188.9440  175.6020  137.1840 C   0  0  0  0  0  0  0  0  0  0  0  0
  189.7160  174.4300  137.1390 C   0  0  0  0  0  3  0  0  0  0  0  0
  184.7010  178.9440  145.4420 C   0  0  0  0  0  0  0  0  0  0  0  0
  185.2160  179.1720  146.7130 O   0  0  0  0  0  1  0  0  0  0  0  0
  183.4800  179.1690  145.2230 O   0  0  0  0  0  0  0  0  0  0  0  0
  1  5  1  6  0  0  0
  1 11  1  0  0  0  0
  1 18  1  0  0  0  0
  2 13  1  0  0  0  0
  4  5  1  0  0  0  0
  6  8  1  6  0  0  0
  6  7  1  0  0  0  0
  6 11  1  0  0  0  0
  7 12  1  0  0  0  0
  9 30  1  1  0  0  0
  9  4  1  0  0  0  0
  9  8  1  0  0  0  0
 10  3  1  1  0  0  0
 11 10  1  0  0  0  0
 12 10  1  0  0  0  0
 14 13  1  0  0  0  0
 14 32  1  0  0  0  0
 15 14  2  0  0  0  0
 16  3  1  0  0  0  0
 16  2  2  0  0  0  0
 17 18  2  0  0  0  0
 17 15  1  0  0  0  0
 18 16  1  0  0  0  0
 19 31  1  0  0  0  0
 20 30  1  0  0  0  0
 21 29  1  0  0  0  0
 22 21  1  0  0  0  0
 22 24  2  0  0  0  0
 23 21  1  0  0  0  0
 23 25  1  0  0  0  0
 25 28  1  0  0  0  0
 25 19  2  0  0  0  0
 26 22  1  0  0  0  0
 27 29  1  0  0  0  0
 27 28  1  0  0  0  0
 28 20  2  0  0  0  0
 31 30  2  0  0  0  0
 32 33  1  0  0  0  0
 34 32  2  0  0  0  0
M  END
>  <MODEL>
3

>  <REMARK>
 VINA RESULT:      -8.5      5.552     10.236
  Name = 
  2 active torsions:
  status: ('A' for Active; 'I' for Inactive)
    1  A    between atoms: C_3  and  C_25
    2  A    between atoms: C_18  and  C_30
                            x       y       z     vdW  Elec       q    Type
                         _______ _______ _______ _____ _____    ______ ____

>  <TORSDO>
F 2

$$$$
=
 OpenBabel10272415203D

 34 39  0  0  1  0  0  0  0  0999 V2000
  190.8410  176.3480  137.3390 C   0  0  2  0  0  3  0  0  0  0  0  0
  191.9990  172.9510  136.0800 C   0  0  0  0  0  3  0  0  0  0  0  0
  189.8620  174.0070  135.6760 C   0  0  0  0  0  2  0  0  0  0  0  0
  190.5800  178.0450  139.1460 C   0  0  0  0  0  2  0  0  0  0  0  0
  191.1720  176.6840  138.7890 C   0  0  0  0  0  2  0  0  0  0  0  0
  188.4040  176.9670  137.4590 C   0  0  1  0  0  3  0  0  0  0  0  0
  186.8890  176.4660  136.5900 S   0  0  0  0  0  0  0  0  0  0  0  0
  188.1400  177.0760  138.9530 C   0  0  0  0  0  2  0  0  0  0  0  0
  189.1400  177.9860  139.6870 C   0  0  1  0  0  3  0  0  0  0  0  0
  189.1210  175.3270  135.8570 C   0  0  2  0  0  3  0  0  0  0  0  0
  189.3970  175.8620  137.2340 C   0  0  1  0  0  3  0  0  0  0  0  0
  187.6880  175.1290  135.7360 N   0  0  0  0  0  2  0  0  0  0  0  0
  193.3790  172.8070  136.6250 C   0  0  0  0  0  2  0  0  0  0  0  0
  194.3370  173.7090  135.9190 C   0  0  0  0  0  0  0  0  0  0  0  0
  194.2080  175.0380  135.9890 C   0  0  0  0  0  3  0  0  0  0  0  0
  191.2930  174.0810  136.1470 C   0  0  0  0  0  0  0  0  0  0  0  0
  193.0870  175.7640  136.6190 C   0  0  0  0  0  3  0  0  0  0  0  0
  191.8180  175.3450  136.7640 C   0  0  0  0  0  0  0  0  0  0  0  0
  190.2390  177.2960  143.2660 C   0  0  0  0  0  3  0  0  0  0  0  0
  187.8710  177.6740  141.8160 C   0  0  0  0  0  3  0  0  0  0  0  0
  187.8210  177.6990  146.0040 N   0  0  0  0  0  0  0  0  0  0  0  0
  187.9290  178.0980  147.3800 C   0  0  0  0  0  0  0  0  0  0  0  0
  188.9230  176.9520  145.3810 C   0  0  0  0  0  2  0  0  0  0  0  0
  187.0110  178.7710  147.9200 O   0  0  0  0  0  0  0  0  0  0  0  0
  189.0030  177.2470  143.9170 C   0  0  0  0  0  0  0  0  0  0  0  0
  189.1200  177.7290  148.1980 C   0  0  0  0  0  1  0  0  0  0  0  0
  186.5100  177.3290  143.8990 C   0  0  0  0  0  2  0  0  0  0  0  0
  187.8210  177.4380  143.1930 C   0  0  0  0  0  0  0  0  0  0  0  0
  186.5790  178.0070  145.2720 C   0  0  0  0  0  2  0  0  0  0  0  0
  189.1070  177.7360  141.1610 C   0  0  0  0  0  0  0  0  0  0  0  0
  190.2910  177.5440  141.8920 C   0  0  0  0  0  3  0  0  0  0  0  0
  195.4900  173.1200  135.2190 C   0  0  0  0  0  0  0  0  0  0  0  0
  196.7220  173.7640  135.2410 O   0  0  0  0  0  1  0  0  0  0  0  0
  195.3780  172.0260  134.6030 O   0  0  0  0  0  0  0  0  0  0  0  0
  1  5  1  1  0  0  0
  2 16  2  0  0  0  0
  2 13  1  0  0  0  0
  3 16  1  0  0  0  0
  4  9  1  0  0  0  0
  5  4  1  0  0  0  0
  6  8  1  1  0  0  0
  7  6  1  0  0  0  0
  8  9  1  0  0  0  0
  9 30  1  1  0  0  0
 10  3  1  1  0  0  0
 10 11  1  0  0  0  0
 11  1  1  0  0  0  0
 11  6  1  0  0  0  0
 12 10  1  0  0  0  0
 12  7  1  0  0  0  0
 14 15  2  0  0  0  0
 14 13  1  0  0  0  0
 15 17  1  0  0  0  0
 16 18  1  0  0  0  0
 17 18  2  0  0  0  0
 18  1  1  0  0  0  0
 19 25  1  0  0  0  0
 20 28  1  0  0  0  0
 21 22  1  0  0  0  0
 22 24  2  0  0  0  0
 22 26  1  0  0  0  0
 23 21  1  0  0  0  0
 25 23  1  0  0  0  0
 27 29  1  0  0  0  0
 28 27  1  0  0  0  0
 28 25  2  0  0  0  0
 29 21  1  0  0  0  0
 30 20  2  0  0  0  0
 30 31  1  0  0  0  0
 31 19  2  0  0  0  0
 32 33  1  0  0  0  0
 32 14  1  0  0  0  0
 34 32  2  0  0  0  0
M  END
>  <MODEL>
4

>  <REMARK>
 VINA RESULT:      -8.3      7.338      8.453
  Name = 
  2 active torsions:
  status: ('A' for Active; 'I' for Inactive)
    1  A    between atoms: C_3  and  C_25
    2  A    between atoms: C_18  and  C_30
                            x       y       z     vdW  Elec       q    Type
                         _______ _______ _______ _____ _____    ______ ____

>  <TORSDO>
F 2

$$$$
=
 OpenBabel10272415203D

 34 39  0  0  1  0  0  0  0  0999 V2000
  191.4690  176.1260  137.2800 C   0  0  2  0  0  3  0  0  0  0  0  0
  193.8760  173.2150  136.8440 C   0  0  0  0  0  3  0  0  0  0  0  0
  191.5280  173.2660  136.2720 C   0  0  0  0  0  2  0  0  0  0  0  0
  190.4900  177.9800  138.6280 C   0  0  0  0  0  2  0  0  0  0  0  0
  191.5650  176.8970  138.5920 C   0  0  0  0  0  2  0  0  0  0  0  0
  188.9730  175.7990  137.3330 C   0  0  1  0  0  3  0  0  0  0  0  0
  187.8060  174.5770  136.6650 S   0  0  0  0  0  0  0  0  0  0  0  0
  188.6010  176.1540  138.7630 C   0  0  0  0  0  2  0  0  0  0  0  0
  189.1460  177.5180  139.2190 C   0  0  1  0  0  3  0  0  0  0  0  0
  190.3410  174.2150  136.1520 C   0  0  2  0  0  3  0  0  0  0  0  0
  190.3160  175.1250  137.3480 C   0  0  1  0  0  3  0  0  0  0  0  0
  189.0930  173.4730  136.1340 N   0  0  0  0  0  2  0  0  0  0  0  0
  195.1760  173.7310  137.3580 C   0  0  0  0  0  2  0  0  0  0  0  0
  195.7710  174.7300  136.4200 C   0  0  0  0  0  0  0  0  0  0  0  0
  195.1550  175.8900  136.1700 C   0  0  0  0  0  3  0  0  0  0  0  0
  192.7990  173.9800  136.6590 C   0  0  0  0  0  0  0  0  0  0  0  0
  193.8090  176.2710  136.6440 C   0  0  0  0  0  3  0  0  0  0  0  0
  192.7800  175.4560  136.9310 C   0  0  0  0  0  0  0  0  0  0  0  0
  187.9030  177.7980  142.8060 C   0  0  0  0  0  3  0  0  0  0  0  0
  190.3310  177.7170  141.4090 C   0  0  0  0  0  3  0  0  0  0  0  0
  190.2680  177.3080  145.5760 N   0  0  0  0  0  0  0  0  0  0  0  0
  190.1510  176.7780  146.9060 C   0  0  0  0  0  0  0  0  0  0  0  0
  189.1330  178.0330  144.9860 C   0  0  0  0  0  2  0  0  0  0  0  0
  191.0990  176.1220  147.4140 O   0  0  0  0  0  0  0  0  0  0  0  0
  189.1140  177.8700  143.5000 C   0  0  0  0  0  0  0  0  0  0  0  0
  188.9150  176.9880  147.7140 C   0  0  0  0  0  1  0  0  0  0  0  0
  191.6060  177.9600  143.5590 C   0  0  0  0  0  2  0  0  0  0  0  0
  190.3260  177.8280  142.8020 C   0  0  0  0  0  0  0  0  0  0  0  0
  191.5480  177.1550  144.8620 C   0  0  0  0  0  2  0  0  0  0  0  0
  189.1210  177.6330  140.7090 C   0  0  0  0  0  0  0  0  0  0  0  0
  187.9060  177.6750  141.4140 C   0  0  0  0  0  3  0  0  0  0  0  0
  197.1000  174.4660  135.8450 C   0  0  0  0  0  0  0  0  0  0  0  0
  198.2200  175.1140  136.3510 O   0  0  0  0  0  1  0  0  0  0  0  0
  197.2390  173.6460  134.8970 O   0  0  0  0  0  0  0  0  0  0  0  0
  1 11  1  0  0  0  0
  1  5  1  1  0  0  0
  2 13  1  0  0  0  0
  3 16  1  0  0  0  0
  4  9  1  0  0  0  0
  5  4  1  0  0  0  0
  6 11  1  0  0  0  0
  6  8  1  1  0  0  0
  7  6  1  0  0  0  0
  8  9  1  0  0  0  0
  9 30  1  1  0  0  0
 10  3  1  1  0  0  0
 10 11  1  0  0  0  0
 12 10  1  0  0  0  0
 12  7  1  0  0  0  0
 14 13  1  0  0  0  0
 15 14  2  0  0  0  0
 15 17  1  0  0  0  0
 16  2  2  0  0  0  0
 16 18  1  0  0  0  0
 17 18  2  0  0  0  0
 18  1  1  0  0  0  0
 19 25  1  0  0  0  0
 20 28  1  0  0  0  0
 21 22  1  0  0  0  0
 22 24  2  0  0  0  0
 22 26  1  0  0  0  0
 23 21  1  0  0  0  0
 25 23  1  0  0  0  0
 27 29  1  0  0  0  0
 28 25  2  0  0  0  0
 28 27  1  0  0  0  0
 29 21  1  0  0  0  0
 30 20  2  0  0  0  0
 30 31  1  0  0  0  0
 31 19  2  0  0  0  0
 32 33  1  0  0  0  0
 32 14  1  0  0  0  0
 34 32  2  0  0  0  0
M  END
>  <MODEL>
5

>  <REMARK>
 VINA RESULT:      -8.1      7.775      9.283
  Name = 
  2 active torsions:
  status: ('A' for Active; 'I' for Inactive)
    1  A    between atoms: C_3  and  C_25
    2  A    between atoms: C_18  and  C_30
                            x       y       z     vdW  Elec       q    Type
                         _______ _______ _______ _____ _____    ______ ____

>  <TORSDO>
F 2

$$$$
=
 OpenBabel10272415203D

 34 39  0  0  1  0  0  0  0  0999 V2000
  190.4410  176.0450  135.9010 C   0  0  2  0  0  3  0  0  0  0  0  0
  192.9700  173.3810  136.8860 C   0  0  0  0  0  3  0  0  0  0  0  0
  190.9390  173.0670  135.6120 C   0  0  0  0  0  2  0  0  0  0  0  0
  189.0020  178.0080  136.4370 C   0  0  0  0  0  2  0  0  0  0  0  0
  190.0700  177.0610  136.9760 C   0  0  0  0  0  2  0  0  0  0  0  0
  188.0810  175.4670  135.2410 C   0  0  1  0  0  3  0  0  0  0  0  0
  187.2470  174.0200  134.5260 S   0  0  0  0  0  0  0  0  0  0  0  0
  187.2460  176.0500  136.3690 C   0  0  0  0  0  2  0  0  0  0  0  0
  187.5570  177.5270  136.6630 C   0  0  1  0  0  3  0  0  0  0  0  0
  189.8220  173.8410  134.9230 C   0  0  2  0  0  3  0  0  0  0  0  0
  189.3700  174.9580  135.8220 C   0  0  1  0  0  3  0  0  0  0  0  0
  188.6800  172.9800  134.6780 N   0  0  0  0  0  2  0  0  0  0  0  0
  194.0080  174.1240  137.6560 C   0  0  0  0  0  2  0  0  0  0  0  0
  194.8380  174.9810  136.7570 C   0  0  0  0  0  0  0  0  0  0  0  0
  194.2930  175.9970  136.0800 C   0  0  0  0  0  3  0  0  0  0  0  0
  191.9840  173.9750  136.2120 C   0  0  0  0  0  0  0  0  0  0  0  0
  192.8530  176.3150  136.0140 C   0  0  0  0  0  3  0  0  0  0  0  0
  191.8190  175.4650  136.1350 C   0  0  0  0  0  0  0  0  0  0  0  0
  185.2260  178.6400  139.4590 C   0  0  0  0  0  3  0  0  0  0  0  0
  187.9250  177.9850  139.0910 C   0  0  0  0  0  3  0  0  0  0  0  0
  186.3470  178.3860  142.9500 N   0  0  0  0  0  0  0  0  0  0  0  0
  185.6780  178.1380  144.1970 C   0  0  0  0  0  0  0  0  0  0  0  0
  185.6450  179.1250  141.8900 C   0  0  0  0  0  2  0  0  0  0  0  0
  186.2500  177.4740  145.1020 O   0  0  0  0  0  0  0  0  0  0  0  0
  186.1120  178.6870  140.5380 C   0  0  0  0  0  0  0  0  0  0  0  0
  184.3020  178.6540  144.4500 C   0  0  0  0  0  1  0  0  0  0  0  0
  188.3990  178.4650  141.5110 C   0  0  0  0  0  2  0  0  0  0  0  0
  187.4590  178.3580  140.3550 C   0  0  0  0  0  0  0  0  0  0  0  0
  187.7420  177.9370  142.7910 C   0  0  0  0  0  2  0  0  0  0  0  0
  187.0400  177.9250  138.0080 C   0  0  0  0  0  0  0  0  0  0  0  0
  185.6870  178.2560  138.1970 C   0  0  0  0  0  3  0  0  0  0  0  0
  196.2910  174.7550  136.6980 C   0  0  0  0  0  0  0  0  0  0  0  0
  197.1640  175.8370  136.6790 O   0  0  0  0  0  1  0  0  0  0  0  0
  196.7600  173.5850  136.6730 O   0  0  0  0  0  0  0  0  0  0  0  0
  1 18  1  0  0  0  0
  1  5  1  1  0  0  0
  2 13  1  0  0  0  0
  3 16  1  0  0  0  0
  4  9  1  0  0  0  0
  4  5  1  0  0  0  0
  6 11  1  0  0  0  0
  6  8  1  1  0  0  0
  7 12  1  0  0  0  0
  7  6  1  0  0  0  0
  8  9  1  0  0  0  0
  9 30  1  1  0  0  0
 10  3  1  1  0  0  0
 10 11  1  0  0  0  0
 11  1  1  0  0  0  0
 12 10  1  0  0  0  0
 14 13  1  0  0  0  0
 15 14  2  0  0  0  0
 16  2  2  0  0  0  0
 17 15  1  0  0  0  0
 17 18  2  0  0  0  0
 18 16  1  0  0  0  0
 19 25  1  0  0  0  0
 20 28  1  0  0  0  0
 21 22  1  0  0  0  0
 22 26  1  0  0  0  0
 22 24  2  0  0  0  0
 23 21  1  0  0  0  0
 25 23  1  0  0  0  0
 27 29  1  0  0  0  0
 28 25  2  0  0  0  0
 28 27  1  0  0  0  0
 29 21  1  0  0  0  0
 30 31  1  0  0  0  0
 30 20  2  0  0  0  0
 31 19  2  0  0  0  0
 32 14  1  0  0  0  0
 33 32  1  0  0  0  0
 34 32  2  0  0  0  0
M  END
>  <MODEL>
6

>  <REMARK>
 VINA RESULT:      -8.1      7.663      9.655
  Name = 
  2 active torsions:
  status: ('A' for Active; 'I' for Inactive)
    1  A    between atoms: C_3  and  C_25
    2  A    between atoms: C_18  and  C_30
                            x       y       z     vdW  Elec       q    Type
                         _______ _______ _______ _____ _____    ______ ____

>  <TORSDO>
F 2

$$$$
=
 OpenBabel10272415203D

 34 39  0  0  1  0  0  0  0  0999 V2000
  186.3190  178.6070  140.4690 C   0  0  2  0  0  3  0  0  0  0  0  0
  187.6450  177.0770  143.6880 C   0  0  0  0  0  3  0  0  0  0  0  0
  188.9210  177.6820  141.7260 C   0  0  0  0  0  2  0  0  0  0  0  0
  184.6720  178.7010  138.6010 C   0  0  0  0  0  2  0  0  0  0  0  0
  185.0220  178.0220  139.9220 C   0  0  0  0  0  2  0  0  0  0  0  0
  187.6070  178.4950  138.3080 C   0  0  1  0  0  3  0  0  0  0  0  0
  189.3570  178.3490  137.8410 S   0  0  0  0  0  0  0  0  0  0  0  0
  186.7530  177.5890  137.4350 C   0  0  0  0  0  2  0  0  0  0  0  0
  185.2790  178.0210  137.3600 C   0  0  1  0  0  3  0  0  0  0  0  0
  188.8000  178.4110  140.3920 C   0  0  2  0  0  3  0  0  0  0  0  0
  187.5140  178.0090  139.7270 C   0  0  1  0  0  3  0  0  0  0  0  0
  189.8910  178.0420  139.5080 N   0  0  0  0  0  2  0  0  0  0  0  0
  186.4360  176.9120  144.5430 C   0  0  0  0  0  2  0  0  0  0  0  0
  185.9420  178.2310  145.0420 C   0  0  0  0  0  0  0  0  0  0  0  0
  185.4890  179.1600  144.1940 C   0  0  0  0  0  3  0  0  0  0  0  0
  187.6460  177.7400  142.5300 C   0  0  0  0  0  0  0  0  0  0  0  0
  185.5400  179.0810  142.7200 C   0  0  0  0  0  3  0  0  0  0  0  0
  186.4290  178.4140  141.9660 C   0  0  0  0  0  0  0  0  0  0  0  0
  184.0390  175.0240  135.3670 C   0  0  0  0  0  3  0  0  0  0  0  0
  183.1470  176.7200  137.4110 C   0  0  0  0  0  3  0  0  0  0  0  0
  181.0700  173.1940  136.5220 N   0  0  0  0  0  0  0  0  0  0  0  0
  180.6550  171.8200  136.4540 C   0  0  0  0  0  0  0  0  0  0  0  0
  181.8650  173.7630  135.4250 C   0  0  0  0  0  2  0  0  0  0  0  0
  180.0040  171.3050  137.4020 O   0  0  0  0  0  0  0  0  0  0  0  0
  182.7740  174.8380  135.9300 C   0  0  0  0  0  0  0  0  0  0  0  0
  180.9800  170.9750  135.2690 C   0  0  0  0  0  1  0  0  0  0  0  0
  180.9540  175.4990  137.5030 C   0  0  0  0  0  2  0  0  0  0  0  0
  182.3300  175.6840  136.9520 C   0  0  0  0  0  0  0  0  0  0  0  0
  180.6370  174.0080  137.6720 C   0  0  0  0  0  2  0  0  0  0  0  0
  184.4200  176.9040  136.8580 C   0  0  0  0  0  0  0  0  0  0  0  0
  184.8630  176.0530  135.8330 C   0  0  0  0  0  3  0  0  0  0  0  0
  185.8660  178.4620  146.4940 C   0  0  0  0  0  0  0  0  0  0  0  0
  187.0260  178.4630  147.2600 O   0  0  0  0  0  1  0  0  0  0  0  0
  184.7570  178.6710  147.0550 O   0  0  0  0  0  0  0  0  0  0  0  0
  1  5  1  6  0  0  0
  1 18  1  0  0  0  0
  2 13  1  0  0  0  0
  3 16  1  0  0  0  0
  4  5  1  0  0  0  0
  6  8  1  6  0  0  0
  6 11  1  0  0  0  0
  7  6  1  0  0  0  0
  7 12  1  0  0  0  0
  9 30  1  1  0  0  0
  9  8  1  0  0  0  0
  9  4  1  0  0  0  0
 10  3  1  1  0  0  0
 11 10  1  0  0  0  0
 11  1  1  0  0  0  0
 12 10  1  0  0  0  0
 13 14  1  0  0  0  0
 14 32  1  0  0  0  0
 15 14  2  0  0  0  0
 16  2  2  0  0  0  0
 17 15  1  0  0  0  0
 18 16  1  0  0  0  0
 18 17  2  0  0  0  0
 19 31  2  0  0  0  0
 19 25  1  0  0  0  0
 21 29  1  0  0  0  0
 22 21  1  0  0  0  0
 22 24  2  0  0  0  0
 23 25  1  0  0  0  0
 23 21  1  0  0  0  0
 25 28  2  0  0  0  0
 26 22  1  0  0  0  0
 27 29  1  0  0  0  0
 28 20  1  0  0  0  0
 28 27  1  0  0  0  0
 30 20  2  0  0  0  0
 31 30  1  0  0  0  0
 32 34  2  0  0  0  0
 32 33  1  0  0  0  0
M  END
>  <MODEL>
7

>  <REMARK>
 VINA RESULT:      -8.0      3.899     10.182
  Name = 
  2 active torsions:
  status: ('A' for Active; 'I' for Inactive)
    1  A    between atoms: C_3  and  C_25
    2  A    between atoms: C_18  and  C_30
                            x       y       z     vdW  Elec       q    Type
                         _______ _______ _______ _____ _____    ______ ____

>  <TORSDO>
F 2

$$$$
=
 OpenBabel10272415203D

 34 39  0  0  1  0  0  0  0  0999 V2000
  189.1150  175.7520  137.2980 C   0  0  2  0  0  3  0  0  0  0  0  0
  186.2480  173.5700  136.0810 C   0  0  0  0  0  3  0  0  0  0  0  0
  186.4570  175.9680  135.8520 C   0  0  0  0  0  2  0  0  0  0  0  0
  190.7490  176.4530  139.0450 C   0  0  0  0  0  2  0  0  0  0  0  0
  189.6580  175.4480  138.6910 C   0  0  0  0  0  2  0  0  0  0  0  0
  188.8520  178.2330  137.6410 C   0  0  1  0  0  3  0  0  0  0  0  0
  187.7880  179.5360  136.9550 S   0  0  0  0  0  0  0  0  0  0  0  0
  188.9780  178.3970  139.1470 C   0  0  0  0  0  2  0  0  0  0  0  0
  190.2340  177.7300  139.7340 C   0  0  1  0  0  3  0  0  0  0  0  0
  187.4460  177.1120  136.0480 C   0  0  2  0  0  3  0  0  0  0  0  0
  188.1480  176.9340  137.3640 C   0  0  1  0  0  3  0  0  0  0  0  0
  186.7510  178.3860  136.0840 N   0  0  0  0  0  2  0  0  0  0  0  0
  186.6370  172.1900  136.4870 C   0  0  0  0  0  2  0  0  0  0  0  0
  187.7600  171.6740  135.6460 C   0  0  0  0  0  0  0  0  0  0  0  0
  188.9610  172.2600  135.6700 C   0  0  0  0  0  3  0  0  0  0  0  0
  187.0630  174.6230  136.1690 C   0  0  0  0  0  0  0  0  0  0  0  0
  189.2970  173.5110  136.3790 C   0  0  0  0  0  3  0  0  0  0  0  0
  188.4750  174.5330  136.6720 C   0  0  0  0  0  0  0  0  0  0  0  0
  191.0770  177.5060  143.4390 C   0  0  0  0  0  3  0  0  0  0  0  0
  188.8550  177.2300  141.7550 C   0  0  0  0  0  3  0  0  0  0  0  0
  188.3550  177.4530  145.9070 N   0  0  0  0  0  0  0  0  0  0  0  0
  188.2190  177.9350  147.2540 C   0  0  0  0  0  0  0  0  0  0  0  0
  189.6610  176.9630  145.4450 C   0  0  0  0  0  2  0  0  0  0  0  0
  187.1170  178.3930  147.6560 O   0  0  0  0  0  0  0  0  0  0  0  0
  189.8250  177.1940  143.9760 C   0  0  0  0  0  0  0  0  0  0  0  0
  189.3690  177.9050  148.2030 C   0  0  0  0  0  1  0  0  0  0  0  0
  187.3980  176.6730  143.7240 C   0  0  0  0  0  2  0  0  0  0  0  0
  188.7150  177.0580  143.1350 C   0  0  0  0  0  0  0  0  0  0  0  0
  187.1600  177.4160  145.0440 C   0  0  0  0  0  2  0  0  0  0  0  0
  190.1040  177.5540  141.2130 C   0  0  0  0  0  0  0  0  0  0  0  0
  191.2160  177.6900  142.0610 C   0  0  0  0  0  3  0  0  0  0  0  0
  187.5570  170.4470  134.8590 C   0  0  0  0  0  0  0  0  0  0  0  0
  188.6520  169.7210  134.4070 O   0  0  0  0  0  0  0  0  0  0  0  0
  186.3940  170.0380  134.5950 O   0  0  0  0  0  1  0  0  0  0  0  0
  1 11  1  0  0  0  0
  1  5  1  1  0  0  0
  2 16  2  0  0  0  0
  2 13  1  0  0  0  0
  3 16  1  0  0  0  0
  4  9  1  0  0  0  0
  5  4  1  0  0  0  0
  6  8  1  1  0  0  0
  7  6  1  0  0  0  0
  8  9  1  0  0  0  0
  9 30  1  1  0  0  0
 10  3  1  1  0  0  0
 10 12  1  0  0  0  0
 10 11  1  0  0  0  0
 11  6  1  0  0  0  0
 12  7  1  0  0  0  0
 14 15  2  0  0  0  0
 14 13  1  0  0  0  0
 15 17  1  0  0  0  0
 16 18  1  0  0  0  0
 17 18  2  0  0  0  0
 18  1  1  0  0  0  0
 19 25  1  0  0  0  0
 20 28  1  0  0  0  0
 21 22  1  0  0  0  0
 22 24  2  0  0  0  0
 22 26  1  0  0  0  0
 23 21  1  0  0  0  0
 25 23  1  0  0  0  0
 27 29  1  0  0  0  0
 28 27  1  0  0  0  0
 28 25  2  0  0  0  0
 29 21  1  0  0  0  0
 30 20  2  0  0  0  0
 30 31  1  0  0  0  0
 31 19  2  0  0  0  0
 32 14  1  0  0  0  0
 33 32  2  0  0  0  0
 34 32  1  0  0  0  0
M  END
>  <MODEL>
8

>  <REMARK>
 VINA RESULT:      -7.8      5.325      6.475
  Name = 
  2 active torsions:
  status: ('A' for Active; 'I' for Inactive)
    1  A    between atoms: C_3  and  C_25
    2  A    between atoms: C_18  and  C_30
                            x       y       z     vdW  Elec       q    Type
                         _______ _______ _______ _____ _____    ______ ____

>  <TORSDO>
F 2

$$$$
=
 OpenBabel10272415203D

 34 39  0  0  1  0  0  0  0  0999 V2000
  182.8890  177.4990  138.6940 C   0  0  2  0  0  3  0  0  0  0  0  0
  180.6520  174.4530  138.2680 C   0  0  0  0  0  3  0  0  0  0  0  0
  180.1330  176.4900  139.4620 C   0  0  0  0  0  2  0  0  0  0  0  0
  185.0880  178.5490  139.2160 C   0  0  0  0  0  2  0  0  0  0  0  0
  184.3560  177.2260  139.0120 C   0  0  0  0  0  2  0  0  0  0  0  0
  182.5160  179.1830  140.5280 C   0  0  1  0  0  3  0  0  0  0  0  0
  181.0940  179.7500  141.5060 S   0  0  0  0  0  0  0  0  0  0  0  0
  183.7310  179.0040  141.4240 C   0  0  0  0  0  2  0  0  0  0  0  0
  185.0680  179.0670  140.6650 C   0  0  1  0  0  3  0  0  0  0  0  0
  180.6540  177.9000  139.7150 C   0  0  2  0  0  3  0  0  0  0  0  0
  182.1330  177.8380  139.9780 C   0  0  1  0  0  3  0  0  0  0  0  0
  180.0200  178.4770  140.8860 N   0  0  0  0  0  2  0  0  0  0  0  0
  181.4680  173.5060  137.4570 C   0  0  0  0  0  2  0  0  0  0  0  0
  181.5860  173.9680  136.0410 C   0  0  0  0  0  0  0  0  0  0  0  0
  182.2090  175.1120  135.7420 C   0  0  0  0  0  3  0  0  0  0  0  0
  181.0030  175.7190  138.5010 C   0  0  0  0  0  0  0  0  0  0  0  0
  182.7180  176.0990  136.7160 C   0  0  0  0  0  3  0  0  0  0  0  0
  182.2560  176.3400  137.9550 C   0  0  0  0  0  0  0  0  0  0  0  0
  188.4730  177.7280  141.7160 C   0  0  0  0  0  3  0  0  0  0  0  0
  185.9200  178.1060  142.8080 C   0  0  0  0  0  3  0  0  0  0  0  0
  189.1660  177.1600  145.2800 N   0  0  0  0  0  0  0  0  0  0  0  0
  190.3480  177.2420  146.0920 C   0  0  0  0  0  0  0  0  0  0  0  0
  189.2820  176.7320  143.8780 C   0  0  0  0  0  2  0  0  0  0  0  0
  190.2720  177.6430  147.2850 O   0  0  0  0  0  0  0  0  0  0  0  0
  188.2160  177.3640  143.0400 C   0  0  0  0  0  0  0  0  0  0  0  0
  191.6830  176.8590  145.5510 C   0  0  0  0  0  1  0  0  0  0  0  0
  186.6760  177.1110  144.9870 C   0  0  0  0  0  2  0  0  0  0  0  0
  186.9420  177.5550  143.5860 C   0  0  0  0  0  0  0  0  0  0  0  0
  187.8600  177.4580  145.8960 C   0  0  0  0  0  2  0  0  0  0  0  0
  186.1750  178.4820  141.4840 C   0  0  0  0  0  0  0  0  0  0  0  0
  187.4560  178.2900  140.9400 C   0  0  0  0  0  3  0  0  0  0  0  0
  181.0910  173.0980  134.9630 C   0  0  0  0  0  0  0  0  0  0  0  0
  181.7910  171.9470  134.6200 O   0  0  0  0  0  1  0  0  0  0  0  0
  180.0280  173.3790  134.3470 O   0  0  0  0  0  0  0  0  0  0  0  0
  1  5  1  1  0  0  0
  1 11  1  0  0  0  0
  2 16  2  0  0  0  0
  4  9  1  0  0  0  0
  5  4  1  0  0  0  0
  6  8  1  1  0  0  0
  6  7  1  0  0  0  0
  9  8  1  0  0  0  0
  9 30  1  1  0  0  0
 10  3  1  1  0  0  0
 10 11  1  0  0  0  0
 10 12  1  0  0  0  0
 11  6  1  0  0  0  0
 12  7  1  0  0  0  0
 13  2  1  0  0  0  0
 14 13  1  0  0  0  0
 15 14  2  0  0  0  0
 15 17  1  0  0  0  0
 16  3  1  0  0  0  0
 17 18  2  0  0  0  0
 18 16  1  0  0  0  0
 18  1  1  0  0  0  0
 19 25  1  0  0  0  0
 20 28  1  0  0  0  0
 21 29  1  0  0  0  0
 21 22  1  0  0  0  0
 22 24  2  0  0  0  0
 23 21  1  0  0  0  0
 25 28  2  0  0  0  0
 25 23  1  0  0  0  0
 26 22  1  0  0  0  0
 27 29  1  0  0  0  0
 28 27  1  0  0  0  0
 30 20  2  0  0  0  0
 31 30  1  0  0  0  0
 31 19  2  0  0  0  0
 32 14  1  0  0  0  0
 33 32  1  0  0  0  0
 34 32  2  0  0  0  0
M  END
>  <MODEL>
9

>  <REMARK>
 VINA RESULT:      -7.8      1.803      2.612
  Name = 
  2 active torsions:
  status: ('A' for Active; 'I' for Inactive)
    1  A    between atoms: C_3  and  C_25
    2  A    between atoms: C_18  and  C_30
                            x       y       z     vdW  Elec       q    Type
                         _______ _______ _______ _____ _____    ______ ____

>  <TORSDO>
F 2

$$$$
