=
 OpenBabel10272415203D

 34 39  0  0  0  0  0  0  0  0999 V2000
  187.4970  178.0550  142.8220 C   0  0  0  0  0  0  0  0  0  0  0  0
  184.7060  178.2920  145.3740 C   0  0  0  0  0  3  0  0  0  0  0  0
  186.9730  177.7700  145.5850 C   0  0  0  0  0  3  0  0  0  0  0  0
  188.9940  178.7190  141.0720 O   0  0  0  0  0  0  0  0  0  0  0  0
  187.7870  178.0680  141.3460 C   0  0  0  0  0  2  0  0  0  0  0  0
  189.8610  177.4630  143.5930 C   0  0  0  0  0  0  0  0  0  0  0  0
  190.4000  177.1770  144.8000 N   0  0  0  0  0  0  0  0  0  0  0  0
  190.7190  177.6170  142.3700 C   0  0  0  0  0  2  0  0  0  0  0  0
  189.9420  177.7500  141.1420 N   0  0  0  0  0  0  0  0  0  0  0  0
  188.2390  177.5730  145.0650 C   0  0  0  0  0  0  0  0  0  0  0  0
  188.5040  177.7150  143.7370 C   0  0  0  0  0  0  0  0  0  0  0  0
  189.4040  177.2350  145.7140 C   0  0  0  0  0  3  0  0  0  0  0  0
  183.4500  178.6260  144.8940 C   0  0  0  0  0  3  0  0  0  0  0  0
  183.0410  178.8900  143.5960 C   0  0  0  0  0  0  0  0  0  0  0  0
  183.8510  178.8690  142.4740 C   0  0  0  0  0  3  0  0  0  0  0  0
  185.9220  178.1230  144.7220 C   0  0  0  0  0  0  0  0  0  0  0  0
  185.2050  178.5970  142.3630 C   0  0  0  0  0  3  0  0  0  0  0  0
  186.1730  178.2650  143.3170 C   0  0  0  0  0  0  0  0  0  0  0  0
  189.7290  175.8030  137.9460 C   0  0  0  0  0  3  0  0  0  0  0  0
  191.6940  176.8720  139.6320 C   0  0  0  0  0  3  0  0  0  0  0  0
  192.8120  174.7730  136.1560 C   0  0  0  0  0  0  0  0  0  0  0  0
  191.4550  174.9430  136.4790 C   0  0  0  0  0  3  0  0  0  0  0  0
  191.0800  175.6370  137.6300 C   0  0  0  0  0  0  0  0  0  0  0  0
  193.4200  176.0100  138.1670 C   0  0  0  0  0  3  0  0  0  0  0  0
  192.0690  176.1760  138.4810 C   0  0  0  0  0  0  0  0  0  0  0  0
  193.7880  175.3140  137.0120 C   0  0  0  0  0  3  0  0  0  0  0  0
  190.3360  177.0410  139.9520 C   0  0  0  0  0  0  0  0  0  0  0  0
  189.3610  176.4990  139.0990 C   0  0  0  0  0  3  0  0  0  0  0  0
  193.1980  174.0560  134.9690 N   0  0  0  0  0  0  0  0  0  0  0  0
  194.4960  174.2680  134.3480 C   0  0  0  0  0  1  0  0  0  0  0  0
  192.3040  173.0920  134.3460 C   0  0  0  0  0  1  0  0  0  0  0  0
  181.6040  179.2270  143.3650 C   0  0  0  0  0  3  0  0  0  0  0  0
  180.7800  178.4030  144.1350 O   0  0  0  0  0  1  0  0  0  0  0  0
  181.2820  179.0860  142.0140 O   0  0  0  0  0  1  0  0  0  0  0  0
  1 18  2  0  0  0  0
  1 11  1  0  0  0  0
  4  9  1  0  0  0  0
  4  5  1  0  0  0  0
  5  1  1  0  0  0  0
  6 11  2  0  0  0  0
  6  7  1  0  0  0  0
  7 12  2  0  0  0  0
  8  6  1  0  0  0  0
  9  8  1  0  0  0  0
 10  3  2  0  0  0  0
 10 12  1  0  0  0  0
 11 10  1  0  0  0  0
 13  2  1  0  0  0  0
 14 13  2  0  0  0  0
 15 14  1  0  0  0  0
 16  2  2  0  0  0  0
 16  3  1  0  0  0  0
 17 15  2  0  0  0  0
 17 18  1  0  0  0  0
 18 16  1  0  0  0  0
 19 28  1  0  0  0  0
 20 27  1  0  0  0  0
 21 22  2  0  0  0  0
 21 26  1  0  0  0  0
 22 23  1  0  0  0  0
 23 19  2  0  0  0  0
 23 25  1  0  0  0  0
 24 25  1  0  0  0  0
 25 20  2  0  0  0  0
 26 24  2  0  0  0  0
 27  9  1  0  0  0  0
 28 27  2  0  0  0  0
 29 21  1  0  0  0  0
 30 29  1  0  0  0  0
 31 29  1  0  0  0  0
 32 14  1  0  0  0  0
 32 33  1  0  0  0  0
 34 32  1  0  0  0  0
M  END
>  <MODEL>
1

>  <REMARK>
 VINA RESULT:     -10.0      0.000      0.000
  Name = 
  3 active torsions:
  status: ('A' for Active; 'I' for Inactive)
    1  A    between atoms: C_3  and  C_25
    2  A    between atoms: C_7  and  N_11
    3  A    between atoms: N_18  and  C_30
                            x       y       z     vdW  Elec       q    Type
                         _______ _______ _______ _____ _____    ______ ____

>  <TORSDO>
F 3

$$$$
=
 OpenBabel10272415203D

 34 39  0  0  0  0  0  0  0  0999 V2000
  189.0610  177.7590  141.9000 C   0  0  0  0  0  0  0  0  0  0  0  0
  190.8740  177.1290  145.1670 C   0  0  0  0  0  3  0  0  0  0  0  0
  191.6070  177.1230  142.9490 C   0  0  0  0  0  3  0  0  0  0  0  0
  187.7420  178.8970  140.2540 O   0  0  0  0  0  0  0  0  0  0  0  0
  187.6980  177.9650  141.2960 C   0  0  0  0  0  2  0  0  0  0  0  0
  190.3590  177.6600  139.7000 C   0  0  0  0  0  0  0  0  0  0  0  0
  191.6510  177.4020  139.3950 N   0  0  0  0  0  0  0  0  0  0  0  0
  189.3820  178.1110  138.6520 C   0  0  0  0  0  2  0  0  0  0  0  0
  188.0080  178.1680  139.1390 N   0  0  0  0  0  0  0  0  0  0  0  0
  191.4010  177.2670  141.5900 C   0  0  0  0  0  0  0  0  0  0  0  0
  190.1800  177.5810  141.0740 C   0  0  0  0  0  0  0  0  0  0  0  0
  192.3000  177.1500  140.5550 C   0  0  0  0  0  3  0  0  0  0  0  0
  190.1170  177.2060  146.3250 C   0  0  0  0  0  3  0  0  0  0  0  0
  188.7660  177.4810  146.4810 C   0  0  0  0  0  0  0  0  0  0  0  0
  187.8720  177.7430  145.4580 C   0  0  0  0  0  3  0  0  0  0  0  0
  190.5280  177.2990  143.8320 C   0  0  0  0  0  0  0  0  0  0  0  0
  188.0810  177.7990  144.0890 C   0  0  0  0  0  3  0  0  0  0  0  0
  189.2300  177.6160  143.3120 C   0  0  0  0  0  0  0  0  0  0  0  0
  186.1320  176.2020  136.5580 C   0  0  0  0  0  3  0  0  0  0  0  0
  185.6240  178.1750  138.4810 C   0  0  0  0  0  3  0  0  0  0  0  0
  182.4900  176.7210  136.0720 C   0  0  0  0  0  0  0  0  0  0  0  0
  183.7950  176.2220  135.9190 C   0  0  0  0  0  3  0  0  0  0  0  0
  184.8370  176.7010  136.7150 C   0  0  0  0  0  0  0  0  0  0  0  0
  183.2880  178.1960  137.8410 C   0  0  0  0  0  3  0  0  0  0  0  0
  184.5820  177.6960  137.6840 C   0  0  0  0  0  0  0  0  0  0  0  0
  182.2500  177.7110  137.0410 C   0  0  0  0  0  3  0  0  0  0  0  0
  186.9270  177.6740  138.3260 C   0  0  0  0  0  0  0  0  0  0  0  0
  187.1700  176.6860  137.3580 C   0  0  0  0  0  3  0  0  0  0  0  0
  181.4170  176.2260  135.2500 N   0  0  0  0  0  0  0  0  0  0  0  0
  180.5450  177.1340  134.5220 C   0  0  0  0  0  1  0  0  0  0  0  0
  181.1650  174.8000  135.1160 C   0  0  0  0  0  1  0  0  0  0  0  0
  188.2070  177.4980  147.8670 C   0  0  0  0  0  3  0  0  0  0  0  0
  186.9610  178.1280  147.8810 O   0  0  0  0  0  1  0  0  0  0  0  0
  189.0790  178.1570  148.7350 O   0  0  0  0  0  1  0  0  0  0  0  0
  1 18  1  0  0  0  0
  2 13  2  0  0  0  0
  3 16  2  0  0  0  0
  4  5  1  0  0  0  0
  5  1  1  0  0  0  0
  6 11  1  0  0  0  0
  7  6  2  0  0  0  0
  7 12  1  0  0  0  0
  8  9  1  0  0  0  0
  8  6  1  0  0  0  0
  9  4  1  0  0  0  0
 10  3  1  0  0  0  0
 11 10  1  0  0  0  0
 11  1  2  0  0  0  0
 12 10  2  0  0  0  0
 13 14  1  0  0  0  0
 14 32  1  0  0  0  0
 15 14  2  0  0  0  0
 16  2  1  0  0  0  0
 17 15  1  0  0  0  0
 18 16  1  0  0  0  0
 18 17  2  0  0  0  0
 19 23  2  0  0  0  0
 19 28  1  0  0  0  0
 21 26  1  0  0  0  0
 22 21  2  0  0  0  0
 22 23  1  0  0  0  0
 23 25  1  0  0  0  0
 25 24  1  0  0  0  0
 25 20  2  0  0  0  0
 26 24  2  0  0  0  0
 27 20  1  0  0  0  0
 27  9  1  0  0  0  0
 28 27  2  0  0  0  0
 29 21  1  0  0  0  0
 30 29  1  0  0  0  0
 31 29  1  0  0  0  0
 32 33  1  0  0  0  0
 32 34  1  0  0  0  0
M  END
>  <MODEL>
2

>  <REMARK>
 VINA RESULT:      -9.6      4.370      7.005
  Name = 
  3 active torsions:
  status: ('A' for Active; 'I' for Inactive)
    1  A    between atoms: C_3  and  C_25
    2  A    between atoms: C_7  and  N_11
    3  A    between atoms: N_18  and  C_30
                            x       y       z     vdW  Elec       q    Type
                         _______ _______ _______ _____ _____    ______ ____

>  <TORSDO>
F 3

$$$$
=
 OpenBabel10272415203D

 34 39  0  0  0  0  0  0  0  0999 V2000
  183.1960  178.3870  141.2580 C   0  0  0  0  0  0  0  0  0  0  0  0
  180.8980  177.4690  138.3880 C   0  0  0  0  0  3  0  0  0  0  0  0
  180.4780  177.9150  140.6420 C   0  0  0  0  0  3  0  0  0  0  0  0
  184.8390  179.6010  142.5110 O   0  0  0  0  0  0  0  0  0  0  0  0
  184.6420  178.5140  141.6520 C   0  0  0  0  0  2  0  0  0  0  0  0
  182.2080  178.8080  143.5770 C   0  0  0  0  0  0  0  0  0  0  0  0
  180.9490  178.7670  144.0720 N   0  0  0  0  0  0  0  0  0  0  0  0
  183.3600  179.2970  144.4070 C   0  0  0  0  0  2  0  0  0  0  0  0
  184.6530  179.1010  143.7600 N   0  0  0  0  0  0  0  0  0  0  0  0
  180.8820  178.2490  141.9210 C   0  0  0  0  0  0  0  0  0  0  0  0
  182.1880  178.4870  142.2280 C   0  0  0  0  0  0  0  0  0  0  0  0
  180.1250  178.4150  143.0580 C   0  0  0  0  0  3  0  0  0  0  0  0
  181.4940  177.2620  137.1540 C   0  0  0  0  0  3  0  0  0  0  0  0
  182.8310  177.3360  136.7950 C   0  0  0  0  0  0  0  0  0  0  0  0
  183.8790  177.6460  137.6440 C   0  0  0  0  0  3  0  0  0  0  0  0
  181.4380  177.8080  139.6230 C   0  0  0  0  0  0  0  0  0  0  0  0
  183.8660  177.9480  138.9960 C   0  0  0  0  0  3  0  0  0  0  0  0
  182.8220  178.0390  139.9220 C   0  0  0  0  0  0  0  0  0  0  0  0
  186.7840  178.0510  146.6600 C   0  0  0  0  0  3  0  0  0  0  0  0
  186.9670  178.2350  143.8710 C   0  0  0  0  0  3  0  0  0  0  0  0
  190.2440  176.8310  146.1130 C   0  0  0  0  0  0  0  0  0  0  0  0
  189.0530  177.2100  146.7550 C   0  0  0  0  0  3  0  0  0  0  0  0
  187.9650  177.6760  146.0160 C   0  0  0  0  0  0  0  0  0  0  0  0
  189.2370  177.3960  143.9660 C   0  0  0  0  0  3  0  0  0  0  0  0
  188.0570  177.7700  144.6110 C   0  0  0  0  0  0  0  0  0  0  0  0
  190.3230  176.9290  144.7120 C   0  0  0  0  0  3  0  0  0  0  0  0
  185.7770  178.6130  144.5160 C   0  0  0  0  0  0  0  0  0  0  0  0
  185.6980  178.5170  145.9150 C   0  0  0  0  0  3  0  0  0  0  0  0
  191.3660  176.3500  146.8760 N   0  0  0  0  0  0  0  0  0  0  0  0
  191.7020  176.9300  148.1680 C   0  0  0  0  0  1  0  0  0  0  0  0
  192.2060  175.2690  146.3860 C   0  0  0  0  0  1  0  0  0  0  0  0
  183.1940  177.0590  135.3720 C   0  0  0  0  0  3  0  0  0  0  0  0
  184.5670  177.2280  135.1780 O   0  0  0  0  0  1  0  0  0  0  0  0
  182.4890  177.9050  134.5160 O   0  0  0  0  0  1  0  0  0  0  0  0
  1  5  1  0  0  0  0
  1 11  1  0  0  0  0
  2 16  2  0  0  0  0
  3 10  2  0  0  0  0
  4  9  1  0  0  0  0
  5  4  1  0  0  0  0
  6  7  1  0  0  0  0
  6  8  1  0  0  0  0
  9  8  1  0  0  0  0
  9 27  1  0  0  0  0
 10 11  1  0  0  0  0
 10 12  1  0  0  0  0
 11  6  2  0  0  0  0
 12  7  2  0  0  0  0
 13  2  1  0  0  0  0
 14 13  2  0  0  0  0
 14 15  1  0  0  0  0
 15 17  2  0  0  0  0
 16 18  1  0  0  0  0
 16  3  1  0  0  0  0
 17 18  1  0  0  0  0
 18  1  2  0  0  0  0
 20 27  2  0  0  0  0
 20 25  1  0  0  0  0
 21 22  1  0  0  0  0
 21 29  1  0  0  0  0
 23 19  1  0  0  0  0
 23 22  2  0  0  0  0
 24 25  2  0  0  0  0
 24 26  1  0  0  0  0
 25 23  1  0  0  0  0
 26 21  2  0  0  0  0
 27 28  1  0  0  0  0
 28 19  2  0  0  0  0
 29 30  1  0  0  0  0
 31 29  1  0  0  0  0
 32 14  1  0  0  0  0
 33 32  1  0  0  0  0
 34 32  1  0  0  0  0
M  END
>  <MODEL>
3

>  <REMARK>
 VINA RESULT:      -9.3      5.326      8.264
  Name = 
  3 active torsions:
  status: ('A' for Active; 'I' for Inactive)
    1  A    between atoms: C_3  and  C_25
    2  A    between atoms: C_7  and  N_11
    3  A    between atoms: N_18  and  C_30
                            x       y       z     vdW  Elec       q    Type
                         _______ _______ _______ _____ _____    ______ ____

>  <TORSDO>
F 3

$$$$
=
 OpenBabel10272415203D

 34 39  0  0  0  0  0  0  0  0999 V2000
  189.2180  177.7380  141.8790 C   0  0  0  0  0  0  0  0  0  0  0  0
  191.2280  177.1030  145.0290 C   0  0  0  0  0  3  0  0  0  0  0  0
  191.8300  177.1280  142.7720 C   0  0  0  0  0  3  0  0  0  0  0  0
  187.7890  178.8720  140.3250 O   0  0  0  0  0  0  0  0  0  0  0  0
  187.8190  177.9300  141.3590 C   0  0  0  0  0  2  0  0  0  0  0  0
  190.3850  177.6750  139.6070 C   0  0  0  0  0  0  0  0  0  0  0  0
  191.6610  177.4380  139.2230 N   0  0  0  0  0  0  0  0  0  0  0  0
  189.3430  178.1230  138.6220 C   0  0  0  0  0  2  0  0  0  0  0  0
  187.9990  178.1570  139.1900 N   0  0  0  0  0  0  0  0  0  0  0  0
  191.5420  177.2810  141.4280 C   0  0  0  0  0  0  0  0  0  0  0  0
  190.2890  177.5820  140.9870 C   0  0  0  0  0  0  0  0  0  0  0  0
  192.3800  177.1850  140.3410 C   0  0  0  0  0  3  0  0  0  0  0  0
  190.5400  177.1600  146.2290 C   0  0  0  0  0  3  0  0  0  0  0  0
  189.1980  177.4150  146.4670 C   0  0  0  0  0  0  0  0  0  0  0  0
  188.2410  177.6740  145.5010 C   0  0  0  0  0  3  0  0  0  0  0  0
  190.8030  177.2810  143.7170 C   0  0  0  0  0  0  0  0  0  0  0  0
  188.3690  177.7440  144.1230 C   0  0  0  0  0  3  0  0  0  0  0  0
  189.4720  177.5840  143.2780 C   0  0  0  0  0  0  0  0  0  0  0  0
  184.5450  177.8360  137.7690 C   0  0  0  0  0  3  0  0  0  0  0  0
  187.0020  176.4960  137.6510 C   0  0  0  0  0  3  0  0  0  0  0  0
  183.7000  175.0420  135.4790 C   0  0  0  0  0  0  0  0  0  0  0  0
  183.5790  176.2000  136.2670 C   0  0  0  0  0  3  0  0  0  0  0  0
  184.6710  176.6850  136.9880 C   0  0  0  0  0  0  0  0  0  0  0  0
  186.0360  174.8590  136.1500 C   0  0  0  0  0  3  0  0  0  0  0  0
  185.9090  176.0100  136.9300 C   0  0  0  0  0  0  0  0  0  0  0  0
  184.9390  174.3790  135.4300 C   0  0  0  0  0  3  0  0  0  0  0  0
  186.8790  177.6550  138.4370 C   0  0  0  0  0  0  0  0  0  0  0  0
  185.6420  178.3170  138.4890 C   0  0  0  0  0  3  0  0  0  0  0  0
  182.5730  174.5430  134.7360 N   0  0  0  0  0  0  0  0  0  0  0  0
  182.4870  173.1440  134.3460 C   0  0  0  0  0  1  0  0  0  0  0  0
  181.4780  175.4170  134.3470 C   0  0  0  0  0  1  0  0  0  0  0  0
  188.7210  177.4120  147.8840 C   0  0  0  0  0  3  0  0  0  0  0  0
  187.3690  177.7560  147.9430 O   0  0  0  0  0  1  0  0  0  0  0  0
  189.4690  178.3060  148.6510 O   0  0  0  0  0  1  0  0  0  0  0  0
  1 18  1  0  0  0  0
  2 13  2  0  0  0  0
  3 16  2  0  0  0  0
  4  5  1  0  0  0  0
  5  1  1  0  0  0  0
  6 11  1  0  0  0  0
  7  6  2  0  0  0  0
  7 12  1  0  0  0  0
  8  9  1  0  0  0  0
  8  6  1  0  0  0  0
  9  4  1  0  0  0  0
 10  3  1  0  0  0  0
 11 10  1  0  0  0  0
 11  1  2  0  0  0  0
 12 10  2  0  0  0  0
 13 14  1  0  0  0  0
 14 32  1  0  0  0  0
 15 14  2  0  0  0  0
 16  2  1  0  0  0  0
 17 15  1  0  0  0  0
 18 16  1  0  0  0  0
 18 17  2  0  0  0  0
 19 28  1  0  0  0  0
 20 27  1  0  0  0  0
 21 22  2  0  0  0  0
 22 23  1  0  0  0  0
 23 19  2  0  0  0  0
 24 25  1  0  0  0  0
 25 23  1  0  0  0  0
 25 20  2  0  0  0  0
 26 21  1  0  0  0  0
 26 24  2  0  0  0  0
 27 28  2  0  0  0  0
 27  9  1  0  0  0  0
 29 21  1  0  0  0  0
 30 29  1  0  0  0  0
 31 29  1  0  0  0  0
 32 33  1  0  0  0  0
 32 34  1  0  0  0  0
M  END
>  <MODEL>
4

>  <REMARK>
 VINA RESULT:      -9.3      4.320      6.636
  Name = 
  3 active torsions:
  status: ('A' for Active; 'I' for Inactive)
    1  A    between atoms: C_3  and  C_25
    2  A    between atoms: C_7  and  N_11
    3  A    between atoms: N_18  and  C_30
                            x       y       z     vdW  Elec       q    Type
                         _______ _______ _______ _____ _____    ______ ____

>  <TORSDO>
F 3

$$$$
=
 OpenBabel10272415203D

 34 39  0  0  0  0  0  0  0  0999 V2000
  189.8600  176.8750  137.4110 C   0  0  0  0  0  0  0  0  0  0  0  0
  192.0410  174.9340  134.9950 C   0  0  0  0  0  3  0  0  0  0  0  0
  189.7470  175.3770  135.0170 C   0  0  0  0  0  3  0  0  0  0  0  0
  189.0600  178.7120  138.7270 O   0  0  0  0  0  0  0  0  0  0  0  0
  189.8580  177.5630  138.7500 C   0  0  0  0  0  2  0  0  0  0  0  0
  187.3550  177.0890  136.9530 C   0  0  0  0  0  0  0  0  0  0  0  0
  186.5470  176.6250  135.9730 N   0  0  0  0  0  0  0  0  0  0  0  0
  186.8480  178.0390  138.0010 C   0  0  0  0  0  2  0  0  0  0  0  0
  187.8160  178.2850  139.0650 N   0  0  0  0  0  0  0  0  0  0  0  0
  188.6130  175.9430  135.5710 C   0  0  0  0  0  0  0  0  0  0  0  0
  188.6570  176.6730  136.7190 C   0  0  0  0  0  0  0  0  0  0  0  0
  187.3140  175.9090  135.1190 C   0  0  0  0  0  3  0  0  0  0  0  0
  193.3910  174.8630  135.2950 C   0  0  0  0  0  3  0  0  0  0  0  0
  194.0880  175.3980  136.3670 C   0  0  0  0  0  0  0  0  0  0  0  0
  193.5400  176.1440  137.3950 C   0  0  0  0  0  3  0  0  0  0  0  0
  190.9860  175.5510  135.6570 C   0  0  0  0  0  0  0  0  0  0  0  0
  192.2260  176.5310  137.6080 C   0  0  0  0  0  3  0  0  0  0  0  0
  191.0560  176.3040  136.8760 C   0  0  0  0  0  0  0  0  0  0  0  0
  185.6940  178.8270  142.1060 C   0  0  0  0  0  3  0  0  0  0  0  0
  188.2510  177.8790  141.4660 C   0  0  0  0  0  3  0  0  0  0  0  0
  186.9900  177.9970  145.4820 C   0  0  0  0  0  0  0  0  0  0  0  0
  186.1350  178.4310  144.4550 C   0  0  0  0  0  3  0  0  0  0  0  0
  186.5490  178.3940  143.1230 C   0  0  0  0  0  0  0  0  0  0  0  0
  188.6930  177.4850  143.8140 C   0  0  0  0  0  3  0  0  0  0  0  0
  187.8370  177.9170  142.7990 C   0  0  0  0  0  0  0  0  0  0  0  0
  188.2710  177.5240  145.1460 C   0  0  0  0  0  3  0  0  0  0  0  0
  187.3930  178.3130  140.4410 C   0  0  0  0  0  0  0  0  0  0  0  0
  186.1140  178.7880  140.7750 C   0  0  0  0  0  3  0  0  0  0  0  0
  186.5620  178.0360  146.8570 N   0  0  0  0  0  0  0  0  0  0  0  0
  187.4740  177.7040  147.9400 C   0  0  0  0  0  1  0  0  0  0  0  0
  185.2020  178.4090  147.2120 C   0  0  0  0  0  1  0  0  0  0  0  0
  195.5620  175.1590  136.4390 C   0  0  0  0  0  3  0  0  0  0  0  0
  195.9680  175.0170  137.7670 O   0  0  0  0  0  1  0  0  0  0  0  0
  196.2560  176.2120  135.8430 O   0  0  0  0  0  1  0  0  0  0  0  0
  1  5  1  0  0  0  0
  2 13  2  0  0  0  0
  2 16  1  0  0  0  0
  3 10  1  0  0  0  0
  3 16  2  0  0  0  0
  4  5  1  0  0  0  0
  4  9  1  0  0  0  0
  6  8  1  0  0  0  0
  7  6  2  0  0  0  0
  8  9  1  0  0  0  0
  9 27  1  0  0  0  0
 10 11  1  0  0  0  0
 11  6  1  0  0  0  0
 11  1  2  0  0  0  0
 12 10  2  0  0  0  0
 12  7  1  0  0  0  0
 13 14  1  0  0  0  0
 14 32  1  0  0  0  0
 14 15  2  0  0  0  0
 15 17  1  0  0  0  0
 16 18  1  0  0  0  0
 18  1  1  0  0  0  0
 18 17  2  0  0  0  0
 19 23  1  0  0  0  0
 20 25  1  0  0  0  0
 21 29  1  0  0  0  0
 22 21  2  0  0  0  0
 23 22  1  0  0  0  0
 24 26  2  0  0  0  0
 25 23  2  0  0  0  0
 25 24  1  0  0  0  0
 26 21  1  0  0  0  0
 27 28  1  0  0  0  0
 27 20  2  0  0  0  0
 28 19  2  0  0  0  0
 29 31  1  0  0  0  0
 29 30  1  0  0  0  0
 32 33  1  0  0  0  0
 34 32  1  0  0  0  0
M  END
>  <MODEL>
5

>  <REMARK>
 VINA RESULT:      -8.9      3.110     10.377
  Name = 
  3 active torsions:
  status: ('A' for Active; 'I' for Inactive)
    1  A    between atoms: C_3  and  C_25
    2  A    between atoms: C_7  and  N_11
    3  A    between atoms: N_18  and  C_30
                            x       y       z     vdW  Elec       q    Type
                         _______ _______ _______ _____ _____    ______ ____

>  <TORSDO>
F 3

$$$$
=
 OpenBabel10272415203D

 34 39  0  0  0  0  0  0  0  0999 V2000
  188.3720  175.7320  137.1440 C   0  0  0  0  0  0  0  0  0  0  0  0
  186.2060  174.1000  134.4970 C   0  0  0  0  0  3  0  0  0  0  0  0
  186.4100  176.3190  135.1960 C   0  0  0  0  0  3  0  0  0  0  0  0
  190.3500  176.3830  138.3310 O   0  0  0  0  0  0  0  0  0  0  0  0
  189.3170  175.4410  138.2780 C   0  0  0  0  0  2  0  0  0  0  0  0
  188.2330  178.2590  137.5030 C   0  0  0  0  0  0  0  0  0  0  0  0
  187.4970  179.2390  136.9300 N   0  0  0  0  0  0  0  0  0  0  0  0
  189.3210  178.5720  138.4890 C   0  0  0  0  0  2  0  0  0  0  0  0
  189.8780  177.3810  139.1220 N   0  0  0  0  0  0  0  0  0  0  0  0
  186.9600  177.3090  135.9900 C   0  0  0  0  0  0  0  0  0  0  0  0
  187.9110  177.0390  136.9260 C   0  0  0  0  0  0  0  0  0  0  0  0
  186.7020  178.6600  136.0000 C   0  0  0  0  0  3  0  0  0  0  0  0
  186.3350  172.7290  134.3460 C   0  0  0  0  0  3  0  0  0  0  0  0
  187.1470  171.8360  135.0290 C   0  0  0  0  0  0  0  0  0  0  0  0
  188.0300  172.1620  136.0440 C   0  0  0  0  0  3  0  0  0  0  0  0
  186.8360  174.9910  135.3580 C   0  0  0  0  0  0  0  0  0  0  0  0
  188.3170  173.3940  136.6080 C   0  0  0  0  0  3  0  0  0  0  0  0
  187.8270  174.6780  136.3470 C   0  0  0  0  0  0  0  0  0  0  0  0
  191.7450  177.3830  142.3720 C   0  0  0  0  0  3  0  0  0  0  0  0
  189.0950  177.3080  141.4670 C   0  0  0  0  0  3  0  0  0  0  0  0
  189.9170  177.2480  145.5970 C   0  0  0  0  0  0  0  0  0  0  0  0
  190.9660  177.3060  144.6640 C   0  0  0  0  0  3  0  0  0  0  0  0
  190.6980  177.3260  143.2940 C   0  0  0  0  0  0  0  0  0  0  0  0
  188.3160  177.2280  143.7590 C   0  0  0  0  0  3  0  0  0  0  0  0
  189.3630  177.2870  142.8380 C   0  0  0  0  0  0  0  0  0  0  0  0
  188.5910  177.2090  145.1290 C   0  0  0  0  0  3  0  0  0  0  0  0
  190.1460  177.3670  140.5370 C   0  0  0  0  0  0  0  0  0  0  0  0
  191.4710  177.4030  141.0020 C   0  0  0  0  0  3  0  0  0  0  0  0
  190.1950  177.2270  147.0100 N   0  0  0  0  0  0  0  0  0  0  0  0
  191.4320  176.6620  147.5260 C   0  0  0  0  0  1  0  0  0  0  0  0
  189.2490  177.7690  147.9730 C   0  0  0  0  0  1  0  0  0  0  0  0
  187.0780  170.3920  134.6530 C   0  0  0  0  0  3  0  0  0  0  0  0
  185.8680  169.8360  135.0720 O   0  0  0  0  0  1  0  0  0  0  0  0
  188.1420  169.6890  135.2210 O   0  0  0  0  0  1  0  0  0  0  0  0
  1  5  1  0  0  0  0
  2 16  2  0  0  0  0
  3 16  1  0  0  0  0
  3 10  2  0  0  0  0
  4  9  1  0  0  0  0
  5  4  1  0  0  0  0
  6  8  1  0  0  0  0
  7  6  1  0  0  0  0
  8  9  1  0  0  0  0
  9 27  1  0  0  0  0
 10 12  1  0  0  0  0
 10 11  1  0  0  0  0
 11  1  1  0  0  0  0
 11  6  2  0  0  0  0
 12  7  2  0  0  0  0
 13  2  1  0  0  0  0
 13 14  2  0  0  0  0
 14 15  1  0  0  0  0
 15 17  2  0  0  0  0
 16 18  1  0  0  0  0
 18 17  1  0  0  0  0
 18  1  2  0  0  0  0
 19 23  1  0  0  0  0
 20 25  1  0  0  0  0
 21 29  1  0  0  0  0
 22 21  2  0  0  0  0
 23 22  1  0  0  0  0
 24 26  2  0  0  0  0
 25 23  2  0  0  0  0
 25 24  1  0  0  0  0
 26 21  1  0  0  0  0
 27 28  1  0  0  0  0
 27 20  2  0  0  0  0
 28 19  2  0  0  0  0
 29 30  1  0  0  0  0
 29 31  1  0  0  0  0
 32 14  1  0  0  0  0
 32 33  1  0  0  0  0
 32 34  1  0  0  0  0
M  END
>  <MODEL>
6

>  <REMARK>
 VINA RESULT:      -8.5      4.277      9.203
  Name = 
  3 active torsions:
  status: ('A' for Active; 'I' for Inactive)
    1  A    between atoms: C_3  and  C_25
    2  A    between atoms: C_7  and  N_11
    3  A    between atoms: N_18  and  C_30
                            x       y       z     vdW  Elec       q    Type
                         _______ _______ _______ _____ _____    ______ ____

>  <TORSDO>
F 3

$$$$
=
 OpenBabel10272415203D

 34 39  0  0  0  0  0  0  0  0999 V2000
  190.3770  175.7720  137.8480 C   0  0  0  0  0  0  0  0  0  0  0  0
  190.8030  173.4630  134.8740 C   0  0  0  0  0  3  0  0  0  0  0  0
  189.0190  174.8030  135.5670 C   0  0  0  0  0  3  0  0  0  0  0  0
  190.8200  177.5730  139.3660 O   0  0  0  0  0  0  0  0  0  0  0  0
  191.0160  176.2070  139.1390 C   0  0  0  0  0  2  0  0  0  0  0  0
  188.1890  177.0610  138.1390 C   0  0  0  0  0  0  0  0  0  0  0  0
  187.0390  177.1110  137.4280 N   0  0  0  0  0  0  0  0  0  0  0  0
  188.4310  177.9790  139.3040 C   0  0  0  0  0  2  0  0  0  0  0  0
  189.6450  177.6540  140.0440 N   0  0  0  0  0  0  0  0  0  0  0  0
  188.4260  175.7020  136.4340 C   0  0  0  0  0  0  0  0  0  0  0  0
  189.0740  176.1820  137.5310 C   0  0  0  0  0  0  0  0  0  0  0  0
  187.1740  176.2690  136.3780 C   0  0  0  0  0  3  0  0  0  0  0  0
  192.0150  172.8010  134.7680 C   0  0  0  0  0  3  0  0  0  0  0  0
  193.1230  172.8470  135.6000 C   0  0  0  0  0  0  0  0  0  0  0  0
  193.2350  173.6020  136.7540 C   0  0  0  0  0  3  0  0  0  0  0  0
  190.3280  174.3610  135.8230 C   0  0  0  0  0  0  0  0  0  0  0  0
  192.3220  174.4610  137.3440 C   0  0  0  0  0  3  0  0  0  0  0  0
  191.0260  174.8400  136.9800 C   0  0  0  0  0  0  0  0  0  0  0  0
  190.8700  177.6640  143.5870 C   0  0  0  0  0  3  0  0  0  0  0  0
  188.4350  177.6610  142.2010 C   0  0  0  0  0  3  0  0  0  0  0  0
  188.4650  177.6650  146.4120 C   0  0  0  0  0  0  0  0  0  0  0  0
  189.6720  177.6650  145.6920 C   0  0  0  0  0  3  0  0  0  0  0  0
  189.6670  177.6640  144.2960 C   0  0  0  0  0  0  0  0  0  0  0  0
  187.2380  177.6600  144.3070 C   0  0  0  0  0  3  0  0  0  0  0  0
  188.4410  177.6610  143.5980 C   0  0  0  0  0  0  0  0  0  0  0  0
  187.2510  177.6620  145.7040 C   0  0  0  0  0  3  0  0  0  0  0  0
  189.6430  177.6620  141.4840 C   0  0  0  0  0  0  0  0  0  0  0  0
  190.8580  177.6630  142.1900 C   0  0  0  0  0  3  0  0  0  0  0  0
  188.4730  177.6650  147.8520 N   0  0  0  0  0  0  0  0  0  0  0  0
  189.4720  178.4130  148.6000 C   0  0  0  0  0  1  0  0  0  0  0  0
  187.4820  176.9200  148.6120 C   0  0  0  0  0  1  0  0  0  0  0  0
  194.3100  172.0150  135.2380 C   0  0  0  0  0  3  0  0  0  0  0  0
  194.7970  171.3450  136.3620 O   0  0  0  0  0  1  0  0  0  0  0  0
  195.3160  172.8130  134.6920 O   0  0  0  0  0  1  0  0  0  0  0  0
  1  5  1  0  0  0  0
  2 16  2  0  0  0  0
  3 16  1  0  0  0  0
  3 10  2  0  0  0  0
  4  9  1  0  0  0  0
  5  4  1  0  0  0  0
  6  8  1  0  0  0  0
  7  6  1  0  0  0  0
  8  9  1  0  0  0  0
  9 27  1  0  0  0  0
 10 11  1  0  0  0  0
 11  1  1  0  0  0  0
 11  6  2  0  0  0  0
 12 10  1  0  0  0  0
 12  7  2  0  0  0  0
 13  2  1  0  0  0  0
 13 14  2  0  0  0  0
 14 15  1  0  0  0  0
 15 17  2  0  0  0  0
 16 18  1  0  0  0  0
 18 17  1  0  0  0  0
 18  1  2  0  0  0  0
 19 23  1  0  0  0  0
 20 25  1  0  0  0  0
 21 29  1  0  0  0  0
 22 21  2  0  0  0  0
 23 22  1  0  0  0  0
 24 26  2  0  0  0  0
 25 23  2  0  0  0  0
 25 24  1  0  0  0  0
 26 21  1  0  0  0  0
 27 28  1  0  0  0  0
 27 20  2  0  0  0  0
 28 19  2  0  0  0  0
 29 30  1  0  0  0  0
 29 31  1  0  0  0  0
 32 14  1  0  0  0  0
 32 33  1  0  0  0  0
 34 32  1  0  0  0  0
M  END
>  <MODEL>
7

>  <REMARK>
 VINA RESULT:      -8.4      3.571     10.396
  Name = 
  3 active torsions:
  status: ('A' for Active; 'I' for Inactive)
    1  A    between atoms: C_3  and  C_25
    2  A    between atoms: C_7  and  N_11
    3  A    between atoms: N_18  and  C_30
                            x       y       z     vdW  Elec       q    Type
                         _______ _______ _______ _____ _____    ______ ____

>  <TORSDO>
F 3

$$$$
=
 OpenBabel10272415203D

 34 39  0  0  0  0  0  0  0  0999 V2000
  190.3780  176.1220  137.3580 C   0  0  0  0  0  0  0  0  0  0  0  0
  191.1580  173.9330  134.3640 C   0  0  0  0  0  3  0  0  0  0  0  0
  189.6870  175.7260  134.6460 C   0  0  0  0  0  3  0  0  0  0  0  0
  190.7420  177.6260  139.1880 O   0  0  0  0  0  0  0  0  0  0  0  0
  190.6210  176.2780  138.8350 C   0  0  0  0  0  2  0  0  0  0  0  0
  188.6700  178.0090  137.1270 C   0  0  0  0  0  0  0  0  0  0  0  0
  187.9000  178.4450  136.1040 N   0  0  0  0  0  0  0  0  0  0  0  0
  188.7340  178.7530  138.4310 C   0  0  0  0  0  2  0  0  0  0  0  0
  189.4760  178.0340  139.4620 N   0  0  0  0  0  0  0  0  0  0  0  0
  189.1010  176.7230  135.4030 C   0  0  0  0  0  0  0  0  0  0  0  0
  189.4320  176.9280  136.7080 C   0  0  0  0  0  0  0  0  0  0  0  0
  188.1540  177.6520  135.0380 C   0  0  0  0  0  3  0  0  0  0  0  0
  192.0990  172.9340  134.5510 C   0  0  0  0  0  3  0  0  0  0  0  0
  192.8160  172.5970  135.6890 C   0  0  0  0  0  0  0  0  0  0  0  0
  192.7230  173.2260  136.9180 C   0  0  0  0  0  3  0  0  0  0  0  0
  190.6490  174.8900  135.2350 C   0  0  0  0  0  0  0  0  0  0  0  0
  191.9360  174.2980  137.3090 C   0  0  0  0  0  3  0  0  0  0  0  0
  191.0050  175.0750  136.6120 C   0  0  0  0  0  0  0  0  0  0  0  0
  187.1020  178.0630  142.3630 C   0  0  0  0  0  3  0  0  0  0  0  0
  189.8510  177.7970  141.8950 C   0  0  0  0  0  3  0  0  0  0  0  0
  188.3570  177.6550  145.8300 C   0  0  0  0  0  0  0  0  0  0  0  0
  187.4840  177.8360  144.7440 C   0  0  0  0  0  3  0  0  0  0  0  0
  187.9750  177.8830  143.4380 C   0  0  0  0  0  0  0  0  0  0  0  0
  190.2340  177.5720  144.2760 C   0  0  0  0  0  3  0  0  0  0  0  0
  189.3600  177.7500  143.2020 C   0  0  0  0  0  0  0  0  0  0  0  0
  189.7350  177.5240  145.5810 C   0  0  0  0  0  3  0  0  0  0  0  0
  188.9760  177.9770  140.8110 C   0  0  0  0  0  0  0  0  0  0  0  0
  187.6000  178.1100  141.0580 C   0  0  0  0  0  3  0  0  0  0  0  0
  187.8500  177.6070  147.1770 N   0  0  0  0  0  0  0  0  0  0  0  0
  188.4530  176.7420  148.1790 C   0  0  0  0  0  1  0  0  0  0  0  0
  186.7150  178.4200  147.5850 C   0  0  0  0  0  1  0  0  0  0  0  0
  193.7770  171.4560  135.6040 C   0  0  0  0  0  3  0  0  0  0  0  0
  193.1220  170.2970  135.1830 O   0  0  0  0  0  1  0  0  0  0  0  0
  194.3800  171.2330  136.8420 O   0  0  0  0  0  1  0  0  0  0  0  0
  1  5  1  0  0  0  0
  2 13  1  0  0  0  0
  2 16  2  0  0  0  0
  3 16  1  0  0  0  0
  3 10  2  0  0  0  0
  4  9  1  0  0  0  0
  5  4  1  0  0  0  0
  6  8  1  0  0  0  0
  7  6  1  0  0  0  0
  8  9  1  0  0  0  0
  9 27  1  0  0  0  0
 10 11  1  0  0  0  0
 11  6  2  0  0  0  0
 11  1  1  0  0  0  0
 12 10  1  0  0  0  0
 12  7  2  0  0  0  0
 13 14  2  0  0  0  0
 14 15  1  0  0  0  0
 15 17  2  0  0  0  0
 16 18  1  0  0  0  0
 18 17  1  0  0  0  0
 18  1  2  0  0  0  0
 19 23  1  0  0  0  0
 20 25  1  0  0  0  0
 21 29  1  0  0  0  0
 22 21  2  0  0  0  0
 23 22  1  0  0  0  0
 24 26  2  0  0  0  0
 25 23  2  0  0  0  0
 25 24  1  0  0  0  0
 26 21  1  0  0  0  0
 27 28  1  0  0  0  0
 27 20  2  0  0  0  0
 28 19  2  0  0  0  0
 29 31  1  0  0  0  0
 29 30  1  0  0  0  0
 32 14  1  0  0  0  0
 32 34  1  0  0  0  0
 33 32  1  0  0  0  0
M  END
>  <MODEL>
8

>  <REMARK>
 VINA RESULT:      -8.3      3.540     10.312
  Name = 
  3 active torsions:
  status: ('A' for Active; 'I' for Inactive)
    1  A    between atoms: C_3  and  C_25
    2  A    between atoms: C_7  and  N_11
    3  A    between atoms: N_18  and  C_30
                            x       y       z     vdW  Elec       q    Type
                         _______ _______ _______ _____ _____    ______ ____

>  <TORSDO>
F 3

$$$$
=
 OpenBabel10272415203D

 34 39  0  0  0  0  0  0  0  0999 V2000
  190.0150  176.6810  139.1280 C   0  0  0  0  0  0  0  0  0  0  0  0
  187.5880  178.4400  141.4460 C   0  0  0  0  0  3  0  0  0  0  0  0
  187.7930  178.4280  139.1200 C   0  0  0  0  0  3  0  0  0  0  0  0
  191.2250  174.8890  138.0950 O   0  0  0  0  0  0  0  0  0  0  0  0
  191.2770  175.8620  139.0990 C   0  0  0  0  0  2  0  0  0  0  0  0
  189.7860  176.9820  136.6010 C   0  0  0  0  0  0  0  0  0  0  0  0
  188.9370  177.6920  135.8230 N   0  0  0  0  0  0  0  0  0  0  0  0
  190.7860  176.0330  136.0040 C   0  0  0  0  0  2  0  0  0  0  0  0
  191.7210  175.4980  136.9870 N   0  0  0  0  0  0  0  0  0  0  0  0
  188.3990  178.0230  137.9450 C   0  0  0  0  0  0  0  0  0  0  0  0
  189.4650  177.1750  137.9370 C   0  0  0  0  0  0  0  0  0  0  0  0
  188.0820  178.3440  136.6450 C   0  0  0  0  0  3  0  0  0  0  0  0
  187.7590  178.2290  142.8050 C   0  0  0  0  0  3  0  0  0  0  0  0
  188.7040  177.4600  143.4670 C   0  0  0  0  0  0  0  0  0  0  0  0
  189.7070  176.7190  142.8670 C   0  0  0  0  0  3  0  0  0  0  0  0
  188.2900  177.9590  140.3470 C   0  0  0  0  0  0  0  0  0  0  0  0
  190.0100  176.5600  141.5250 C   0  0  0  0  0  3  0  0  0  0  0  0
  189.4200  177.0770  140.3670 C   0  0  0  0  0  0  0  0  0  0  0  0
  195.0760  176.2240  135.4800 C   0  0  0  0  0  3  0  0  0  0  0  0
  193.9130  174.3780  137.2360 C   0  0  0  0  0  3  0  0  0  0  0  0
  198.0060  174.0970  136.2880 C   0  0  0  0  0  0  0  0  0  0  0  0
  197.2150  175.1140  135.7280 C   0  0  0  0  0  3  0  0  0  0  0  0
  195.8570  175.2110  136.0390 C   0  0  0  0  0  0  0  0  0  0  0  0
  196.0510  173.2670  137.4830 C   0  0  0  0  0  3  0  0  0  0  0  0
  195.2700  174.2810  136.9240 C   0  0  0  0  0  0  0  0  0  0  0  0
  197.4090  173.1760  137.1670 C   0  0  0  0  0  3  0  0  0  0  0  0
  193.1240  175.3960  136.6760 C   0  0  0  0  0  0  0  0  0  0  0  0
  193.7180  176.3160  135.7960 C   0  0  0  0  0  3  0  0  0  0  0  0
  199.4060  173.9980  135.9650 N   0  0  0  0  0  0  0  0  0  0  0  0
  200.0460  174.9630  135.0850 C   0  0  0  0  0  1  0  0  0  0  0  0
  200.2320  172.9310  136.5070 C   0  0  0  0  0  1  0  0  0  0  0  0
  188.6530  177.4150  144.9600 C   0  0  0  0  0  3  0  0  0  0  0  0
  187.4200  177.8790  145.4210 O   0  0  0  0  0  1  0  0  0  0  0  0
  189.6810  178.1860  145.5060 O   0  0  0  0  0  1  0  0  0  0  0  0
  1 18  1  0  0  0  0
  2 13  2  0  0  0  0
  3 16  2  0  0  0  0
  4  5  1  0  0  0  0
  5  1  1  0  0  0  0
  6 11  1  0  0  0  0
  7  6  2  0  0  0  0
  7 12  1  0  0  0  0
  8  6  1  0  0  0  0
  8  9  1  0  0  0  0
  9  4  1  0  0  0  0
 10  3  1  0  0  0  0
 11 10  1  0  0  0  0
 11  1  2  0  0  0  0
 12 10  2  0  0  0  0
 13 14  1  0  0  0  0
 14 32  1  0  0  0  0
 15 14  2  0  0  0  0
 16 18  1  0  0  0  0
 16  2  1  0  0  0  0
 17 15  1  0  0  0  0
 18 17  2  0  0  0  0
 19 28  2  0  0  0  0
 19 23  1  0  0  0  0
 21 26  1  0  0  0  0
 22 23  1  0  0  0  0
 22 21  2  0  0  0  0
 23 25  2  0  0  0  0
 25 20  1  0  0  0  0
 25 24  1  0  0  0  0
 26 24  2  0  0  0  0
 27  9  1  0  0  0  0
 27 20  2  0  0  0  0
 28 27  1  0  0  0  0
 29 21  1  0  0  0  0
 29 31  1  0  0  0  0
 30 29  1  0  0  0  0
 32 33  1  0  0  0  0
 32 34  1  0  0  0  0
M  END
>  <MODEL>
9

>  <REMARK>
 VINA RESULT:      -8.0      3.382      6.046
  Name = 
  3 active torsions:
  status: ('A' for Active; 'I' for Inactive)
    1  A    between atoms: C_3  and  C_25
    2  A    between atoms: C_7  and  N_11
    3  A    between atoms: N_18  and  C_30
                            x       y       z     vdW  Elec       q    Type
                         _______ _______ _______ _____ _____    ______ ____

>  <TORSDO>
F 3

$$$$
