=
 OpenBabel10272401283D

 55 59  0  0  1  0  0  0  0  0999 V2000
  191.2850  177.2160  144.4430 C   0  0  0  0  0  3  0  0  0  0  0  0
  188.9400  177.5790  145.9420 C   0  0  0  0  0  0  0  0  0  0  0  0
  188.9340  177.7540  144.5540 C   0  0  0  0  0  3  0  0  0  0  0  0
  191.3050  177.0440  145.8300 C   0  0  0  0  0  3  0  0  0  0  0  0
  190.0950  177.5570  143.7950 C   0  0  0  0  0  0  0  0  0  0  0  0
  190.1320  177.2150  146.5740 C   0  0  0  0  0  3  0  0  0  0  0  0
  187.7830  177.7710  146.7020 O   0  0  0  0  0  0  0  0  0  0  0  0
  186.4800  177.6100  146.1630 C   0  0  0  0  0  2  0  0  0  0  0  0
  185.7230  178.9150  146.2540 C   0  0  0  0  0  2  0  0  0  0  0  0
  184.5060  178.8390  145.3490 C   0  0  0  0  0  2  0  0  0  0  0  0
  184.8570  178.3020  143.9660 C   0  0  0  0  0  2  0  0  0  0  0  0
  184.3260  179.2010  142.8670 C   0  0  0  0  0  2  0  0  0  0  0  0
  184.5370  178.5230  141.5180 C   0  0  0  0  0  2  0  0  0  0  0  0
  183.8560  179.2630  140.3660 C   0  0  1  0  0  3  0  0  0  0  0  0
  184.7940  179.7470  139.4500 O   0  0  0  0  0  1  0  0  0  0  0  0
  182.8900  176.0940  139.9540 O   0  0  0  0  0  1  0  0  0  0  0  0
  182.6890  178.5150  139.6900 C   0  0  1  0  0  0  0  0  0  0  0  0
  181.7820  177.8420  135.1720 C   0  0  0  0  0  3  0  0  0  0  0  0
  184.3450  177.1460  138.5620 F   0  0  0  0  0  0  0  0  0  0  0  0
  183.0470  177.1490  139.0530 C   0  0  1  0  0  0  0  0  0  0  0  0
  182.3620  176.5280  135.5100 C   0  0  0  0  0  3  0  0  0  0  0  0
  182.5110  176.1430  136.7790 C   0  0  0  0  0  3  0  0  0  0  0  0
  181.7460  178.3700  137.5040 N   0  0  0  0  0  0  0  0  0  0  0  0
  182.0430  177.0080  137.9190 C   0  0  2  0  0  3  0  0  0  0  0  0
  181.6660  178.3210  140.6290 O   0  0  0  0  0  1  0  0  0  0  0  0
  181.5080  178.7240  136.1370 C   0  0  0  0  0  3  0  0  0  0  0  0
  182.1590  179.3410  138.5020 C   0  0  1  0  0  3  0  0  0  0  0  0
  181.0360  180.2800  138.8520 C   0  0  0  0  0  3  0  0  0  0  0  0
  181.2380  181.4770  138.9290 O   0  0  0  0  0  0  0  0  0  0  0  0
  190.1150  177.7590  142.3110 C   0  0  0  0  0  2  0  0  0  0  0  0
  189.3750  176.6790  141.5710 C   0  0  0  0  0  3  0  0  0  0  0  0
  189.3180  176.6030  140.2400 C   0  0  0  0  0  3  0  0  0  0  0  0
  189.9780  177.5710  139.3020 C   0  0  2  0  0  3  0  0  0  0  0  0
  189.7380  178.2140  136.9490 O   0  0  0  0  0  0  0  0  0  0  0  0
  189.0400  177.8570  138.1210 C   0  0  2  0  0  0  0  0  0  0  0  0
  188.9720  179.2330  137.5690 C   0  0  0  0  0  2  0  0  0  0  0  0
  187.8080  176.9490  137.8990 C   0  0  0  0  0  2  0  0  0  0  0  0
  188.0300  175.7650  136.9480 C   0  0  0  0  0  2  0  0  0  0  0  0
  186.1730  176.6630  135.8800 C   0  0  0  0  0  1  0  0  0  0  0  0
  186.8250  175.3990  136.1940 N   0  0  0  0  0  0  0  0  0  0  0  0
  185.9130  174.6690  137.0760 C   0  0  0  0  0  2  0  0  0  0  0  0
  184.4600  172.6320  137.3020 C   0  0  0  0  0  1  0  0  0  0  0  0
  186.8310  172.4250  136.6300 C   0  0  0  0  0  1  0  0  0  0  0  0
  185.1910  173.3660  135.0650 C   0  0  0  0  0  1  0  0  0  0  0  0
  185.5930  173.2790  136.5220 C   0  0  0  0  0  0  0  0  0  0  0  0
  191.2620  177.0300  138.8510 N   0  0  0  0  0  2  0  0  0  0  0  0
  191.0920  175.6510  138.6770 N   0  0  0  0  0  2  0  0  0  0  0  0
  192.6750  176.3620  136.9340 C   0  0  0  0  0  2  0  0  0  0  0  0
  193.9700  174.4430  137.6160 C   0  0  2  0  0  3  0  0  0  0  0  0
  191.7020  175.2830  137.4030 C   0  0  1  0  0  3  0  0  0  0  0  0
  192.5150  174.0160  137.5830 C   0  0  0  0  0  2  0  0  0  0  0  0
  194.0410  175.7220  136.8140 C   0  0  0  0  0  2  0  0  0  0  0  0
  194.9030  173.3770  137.0490 C   0  0  0  0  0  3  0  0  0  0  0  0
  195.0330  172.3060  137.9410 O   0  0  0  0  0  1  0  0  0  0  0  0
  194.4770  172.9250  135.8000 O   0  0  0  0  0  1  0  0  0  0  0  0
  1  4  1  0  0  0  0
  2  6  1  0  0  0  0
  2  7  1  0  0  0  0
  3  2  2  0  0  0  0
  4  6  2  0  0  0  0
  5  1  2  0  0  0  0
  5  3  1  0  0  0  0
  8  9  1  0  0  0  0
  8  7  1  0  0  0  0
 10  9  1  0  0  0  0
 11 10  1  0  0  0  0
 12 11  1  0  0  0  0
 13 12  1  0  0  0  0
 14 15  1  6  0  0  0
 14 13  1  0  0  0  0
 17 14  1  0  0  0  0
 17 25  1  1  0  0  0
 18 21  1  0  0  0  0
 18 26  2  0  0  0  0
 20 19  1  6  0  0  0
 20 17  1  0  0  0  0
 20 16  1  0  0  0  0
 21 22  2  0  0  0  0
 23 24  1  0  0  0  0
 23 27  1  0  0  0  0
 24 22  1  6  0  0  0
 24 20  1  0  0  0  0
 26 23  1  0  0  0  0
 27 28  1  1  0  0  0
 27 17  1  0  0  0  0
 28 29  2  0  0  0  0
 30  5  1  0  0  0  0
 31 30  1  0  0  0  0
 32 31  2  0  0  0  0
 33 32  1  1  0  0  0
 34 36  1  0  0  0  0
 34 35  1  0  0  0  0
 35 37  1  6  0  0  0
 35 33  1  0  0  0  0
 36 35  1  0  0  0  0
 38 37  1  0  0  0  0
 39 40  1  0  0  0  0
 40 38  1  0  0  0  0
 40 41  1  0  0  0  0
 44 45  1  0  0  0  0
 45 43  1  0  0  0  0
 45 41  1  0  0  0  0
 45 42  1  0  0  0  0
 46 33  1  0  0  0  0
 47 46  1  0  0  0  0
 48 50  1  0  0  0  0
 49 53  1  6  0  0  0
 50 51  1  0  0  0  0
 50 47  1  1  0  0  0
 51 49  1  0  0  0  0
 52 48  1  0  0  0  0
 52 49  1  0  0  0  0
 53 54  1  0  0  0  0
 55 53  1  0  0  0  0
M  END
>  <MODEL>
1

>  <REMARK>
 VINA RESULT:      -7.0      0.000      0.000
  Name = 
  23 active torsions:
  status: ('A' for Active; 'I' for Inactive)
    1  A    between atoms: C_1  and  C_53
    2  A    between atoms: C_2  and  C_28
    3  A    between atoms: C_2  and  C_44
    4  A    between atoms: C_6  and  C_20
    5  A    between atoms: C_7  and  C_20
    6  A    between atoms: C_7  and  C_22
    7  A    between atoms: C_8  and  C_22
    8  A    between atoms: C_8  and  C_35
    9  A    between atoms: C_10  and  C_32
   10  A    between atoms: C_16  and  C_17
   11  A    between atoms: C_16  and  C_26
   12  A    between atoms: C_17  and  C_33
   13  A    between atoms: C_19  and  C_40
   14  A    between atoms: C_19  and  N_45
   15  A    between atoms: C_26  and  N_45
   16  A    between atoms: C_27  and  O_54
   17  A    between atoms: C_33  and  N_36
   18  A    between atoms: C_33  and  C_49
   19  A    between atoms: C_34  and  N_52
   20  A    between atoms: C_35  and  C_43
   21  A    between atoms: N_36  and  N_52
   22  A    between atoms: C_43  and  C_51
   23  A    between atoms: C_51  and  O_54
                            x       y       z     vdW  Elec       q    Type
                         _______ _______ _______ _____ _____    ______ ____

>  <TORSDO>
F 23

$$$$
=
 OpenBabel10272401283D

 55 59  0  0  1  0  0  0  0  0999 V2000
  186.5790  177.9320  145.4590 C   0  0  0  0  0  3  0  0  0  0  0  0
  183.9410  178.7480  144.9540 C   0  0  0  0  0  0  0  0  0  0  0  0
  184.8390  178.5450  143.9000 C   0  0  0  0  0  3  0  0  0  0  0  0
  185.6930  178.1370  146.5200 C   0  0  0  0  0  3  0  0  0  0  0  0
  186.1520  178.1200  144.1420 C   0  0  0  0  0  0  0  0  0  0  0  0
  184.3740  178.5330  146.2650 C   0  0  0  0  0  3  0  0  0  0  0  0
  182.6290  179.1680  144.7170 O   0  0  0  0  0  0  0  0  0  0  0  0
  182.0300  179.1130  143.4320 C   0  0  0  0  0  2  0  0  0  0  0  0
  180.6310  178.5510  143.5430 C   0  0  0  0  0  2  0  0  0  0  0  0
  180.0690  178.3580  142.1450 C   0  0  0  0  0  2  0  0  0  0  0  0
  181.1460  178.4950  141.0740 C   0  0  0  0  0  2  0  0  0  0  0  0
  181.2580  177.2390  140.2330 C   0  0  0  0  0  2  0  0  0  0  0  0
  182.4630  177.3610  139.3070 C   0  0  0  0  0  2  0  0  0  0  0  0
  182.0710  177.5650  137.8430 C   0  0  1  0  0  3  0  0  0  0  0  0
  182.1490  178.9130  137.4810 O   0  0  0  0  0  1  0  0  0  0  0  0
  181.1520  175.2520  135.6170 O   0  0  0  0  0  1  0  0  0  0  0  0
  182.7650  176.6310  136.8300 C   0  0  1  0  0  0  0  0  0  0  0  0
  185.3320  172.8120  137.5470 C   0  0  0  0  0  3  0  0  0  0  0  0
  181.5170  174.7950  137.8120 F   0  0  0  0  0  0  0  0  0  0  0  0
  182.1050  175.2420  136.6360 C   0  0  1  0  0  0  0  0  0  0  0  0
  184.0500  172.1860  137.1710 C   0  0  0  0  0  3  0  0  0  0  0  0
  183.0780  172.8930  136.5890 C   0  0  0  0  0  3  0  0  0  0  0  0
  184.4330  174.9290  136.8880 N   0  0  0  0  0  0  0  0  0  0  0  0
  183.2680  174.3460  136.2420 C   0  0  2  0  0  3  0  0  0  0  0  0
  182.8310  177.2760  135.5870 O   0  0  0  0  0  1  0  0  0  0  0  0
  185.4960  174.1320  137.4240 C   0  0  0  0  0  3  0  0  0  0  0  0
  184.1850  176.2930  137.3210 C   0  0  1  0  0  3  0  0  0  0  0  0
  185.2520  177.2290  136.8220 C   0  0  0  0  0  3  0  0  0  0  0  0
  185.7210  178.0750  137.5590 O   0  0  0  0  0  0  0  0  0  0  0  0
  187.1350  177.9180  143.0300 C   0  0  0  0  0  2  0  0  0  0  0  0
  187.6640  176.5110  142.9750 C   0  0  0  0  0  3  0  0  0  0  0  0
  188.8540  176.1880  142.4640 C   0  0  0  0  0  3  0  0  0  0  0  0
  189.8250  177.1730  141.8810 C   0  0  2  0  0  3  0  0  0  0  0  0
  189.6300  178.3330  139.7300 O   0  0  0  0  0  0  0  0  0  0  0  0
  189.7910  177.0770  140.3490 C   0  0  2  0  0  0  0  0  0  0  0  0
  188.5430  177.4300  139.6290 C   0  0  0  0  0  2  0  0  0  0  0  0
  190.7680  176.1140  139.6330 C   0  0  0  0  0  2  0  0  0  0  0  0
  191.9110  176.7920  138.8650 C   0  0  0  0  0  2  0  0  0  0  0  0
  190.7950  176.4200  136.8620 C   0  0  0  0  0  1  0  0  0  0  0  0
  192.0890  176.2590  137.5090 N   0  0  0  0  0  0  0  0  0  0  0  0
  192.3340  174.8180  137.5910 C   0  0  0  0  0  2  0  0  0  0  0  0
  193.7500  173.0070  136.5760 C   0  0  0  0  0  1  0  0  0  0  0  0
  194.7340  174.6570  138.1340 C   0  0  0  0  0  1  0  0  0  0  0  0
  194.0750  175.3470  135.8730 C   0  0  0  0  0  1  0  0  0  0  0  0
  193.7150  174.4540  137.0410 C   0  0  0  0  0  0  0  0  0  0  0  0
  191.1670  176.9190  142.4060 N   0  0  0  0  0  2  0  0  0  0  0  0
  191.8300  178.1520  142.4620 N   0  0  0  0  0  2  0  0  0  0  0  0
  190.5290  179.2610  144.2300 C   0  0  0  0  0  2  0  0  0  0  0  0
  190.6140  177.1240  145.3490 C   0  0  2  0  0  3  0  0  0  0  0  0
  191.8460  178.5880  143.8540 C   0  0  1  0  0  3  0  0  0  0  0  0
  191.9870  177.3790  144.7580 C   0  0  0  0  0  2  0  0  0  0  0  0
  189.9180  178.4650  145.3630 C   0  0  0  0  0  2  0  0  0  0  0  0
  190.6840  176.5170  146.7470 C   0  0  0  0  0  3  0  0  0  0  0  0
  191.9760  176.6350  147.2740 O   0  0  0  0  0  1  0  0  0  0  0  0
  189.7490  177.0890  147.6090 O   0  0  0  0  0  1  0  0  0  0  0  0
  1  4  1  0  0  0  0
  2  6  1  0  0  0  0
  3  5  1  0  0  0  0
  3  2  2  0  0  0  0
  5  1  2  0  0  0  0
  6  4  2  0  0  0  0
  7  2  1  0  0  0  0
  8  9  1  0  0  0  0
  8  7  1  0  0  0  0
 10  9  1  0  0  0  0
 11 10  1  0  0  0  0
 12 11  1  0  0  0  0
 13 12  1  0  0  0  0
 14 15  1  6  0  0  0
 14 13  1  0  0  0  0
 17 25  1  6  0  0  0
 17 27  1  0  0  0  0
 17 14  1  0  0  0  0
 20 16  1  6  0  0  0
 20 17  1  0  0  0  0
 20 19  1  0  0  0  0
 21 18  1  0  0  0  0
 22 21  2  0  0  0  0
 23 27  1  0  0  0  0
 23 26  1  0  0  0  0
 24 22  1  1  0  0  0
 24 20  1  0  0  0  0
 24 23  1  0  0  0  0
 26 18  2  0  0  0  0
 27 28  1  6  0  0  0
 28 29  2  0  0  0  0
 30  5  1  0  0  0  0
 31 30  1  0  0  0  0
 32 31  2  0  0  0  0
 33 46  1  0  0  0  0
 33 32  1  1  0  0  0
 34 35  1  0  0  0  0
 35 37  1  6  0  0  0
 35 33  1  0  0  0  0
 36 34  1  0  0  0  0
 36 35  1  0  0  0  0
 38 37  1  0  0  0  0
 39 40  1  0  0  0  0
 40 41  1  0  0  0  0
 40 38  1  0  0  0  0
 42 45  1  0  0  0  0
 44 45  1  0  0  0  0
 45 41  1  0  0  0  0
 45 43  1  0  0  0  0
 46 47  1  0  0  0  0
 48 52  1  0  0  0  0
 49 52  1  0  0  0  0
 49 53  1  1  0  0  0
 50 47  1  6  0  0  0
 50 48  1  0  0  0  0
 50 51  1  0  0  0  0
 51 49  1  0  0  0  0
 53 54  1  0  0  0  0
 53 55  1  0  0  0  0
M  END
>  <MODEL>
2

>  <REMARK>
 VINA RESULT:      -6.6      2.468      5.969
  Name = 
  23 active torsions:
  status: ('A' for Active; 'I' for Inactive)
    1  A    between atoms: C_1  and  C_53
    2  A    between atoms: C_2  and  C_28
    3  A    between atoms: C_2  and  C_44
    4  A    between atoms: C_6  and  C_20
    5  A    between atoms: C_7  and  C_20
    6  A    between atoms: C_7  and  C_22
    7  A    between atoms: C_8  and  C_22
    8  A    between atoms: C_8  and  C_35
    9  A    between atoms: C_10  and  C_32
   10  A    between atoms: C_16  and  C_17
   11  A    between atoms: C_16  and  C_26
   12  A    between atoms: C_17  and  C_33
   13  A    between atoms: C_19  and  C_40
   14  A    between atoms: C_19  and  N_45
   15  A    between atoms: C_26  and  N_45
   16  A    between atoms: C_27  and  O_54
   17  A    between atoms: C_33  and  N_36
   18  A    between atoms: C_33  and  C_49
   19  A    between atoms: C_34  and  N_52
   20  A    between atoms: C_35  and  C_43
   21  A    between atoms: N_36  and  N_52
   22  A    between atoms: C_43  and  C_51
   23  A    between atoms: C_51  and  O_54
                            x       y       z     vdW  Elec       q    Type
                         _______ _______ _______ _____ _____    ______ ____

>  <TORSDO>
F 23

$$$$
=
 OpenBabel10272401283D

 55 59  0  0  1  0  0  0  0  0999 V2000
  190.6450  177.3600  140.4060 C   0  0  0  0  0  3  0  0  0  0  0  0
  189.3840  177.2630  137.9000 C   0  0  0  0  0  0  0  0  0  0  0  0
  188.6920  177.7100  139.0300 C   0  0  0  0  0  3  0  0  0  0  0  0
  191.3460  176.9070  139.2850 C   0  0  0  0  0  3  0  0  0  0  0  0
  189.3180  177.7790  140.2820 C   0  0  0  0  0  0  0  0  0  0  0  0
  190.7180  176.8700  138.0340 C   0  0  0  0  0  3  0  0  0  0  0  0
  188.7640  177.1960  136.6490 O   0  0  0  0  0  0  0  0  0  0  0  0
  189.4810  177.3440  135.4330 C   0  0  0  0  0  2  0  0  0  0  0  0
  189.2450  176.1410  134.5490 C   0  0  0  0  0  2  0  0  0  0  0  0
  190.3670  175.1420  134.7720 C   0  0  0  0  0  2  0  0  0  0  0  0
  189.9280  173.9790  135.6550 C   0  0  0  0  0  2  0  0  0  0  0  0
  191.0730  173.4600  136.5020 C   0  0  0  0  0  2  0  0  0  0  0  0
  192.3540  174.1940  136.1180 C   0  0  0  0  0  2  0  0  0  0  0  0
  193.5680  173.7360  136.9260 C   0  0  1  0  0  3  0  0  0  0  0  0
  193.9920  172.4650  136.5260 O   0  0  0  0  0  1  0  0  0  0  0  0
  194.6900  176.3480  135.1750 O   0  0  0  0  0  1  0  0  0  0  0  0
  194.7260  174.7500  137.0250 C   0  0  1  0  0  0  0  0  0  0  0  0
  199.2880  174.1670  136.2950 C   0  0  0  0  0  3  0  0  0  0  0  0
  195.2770  174.2000  134.7260 F   0  0  0  0  0  0  0  0  0  0  0  0
  195.3300  175.2120  135.6750 C   0  0  1  0  0  0  0  0  0  0  0  0
  198.9080  174.8010  135.0180 C   0  0  0  0  0  3  0  0  0  0  0  0
  197.7350  175.4200  134.8730 C   0  0  0  0  0  3  0  0  0  0  0  0
  197.1060  174.6720  137.1350 N   0  0  0  0  0  0  0  0  0  0  0  0
  196.7710  175.5480  136.0240 C   0  0  2  0  0  3  0  0  0  0  0  0
  194.2850  175.8780  137.7310 O   0  0  0  0  0  1  0  0  0  0  0  0
  198.4070  174.0960  137.2970 C   0  0  0  0  0  3  0  0  0  0  0  0
  195.9200  174.1080  137.7560 C   0  0  1  0  0  3  0  0  0  0  0  0
  195.9240  174.3260  139.2450 C   0  0  0  0  0  3  0  0  0  0  0  0
  196.6280  175.1860  139.7380 O   0  0  0  0  0  0  0  0  0  0  0  0
  188.5880  178.2350  141.5070 C   0  0  0  0  0  2  0  0  0  0  0  0
  188.0860  177.0890  142.3410 C   0  0  0  0  0  3  0  0  0  0  0  0
  186.9490  177.1250  143.0380 C   0  0  0  0  0  3  0  0  0  0  0  0
  186.0170  178.3010  143.0870 C   0  0  2  0  0  3  0  0  0  0  0  0
  184.0310  178.4160  144.5180 O   0  0  0  0  0  0  0  0  0  0  0  0
  185.4400  178.4360  144.5030 C   0  0  2  0  0  0  0  0  0  0  0  0
  184.6530  179.6450  144.8520 C   0  0  0  0  0  2  0  0  0  0  0  0
  186.1190  177.6790  145.6690 C   0  0  0  0  0  2  0  0  0  0  0  0
  187.4310  178.2940  146.1750 C   0  0  0  0  0  2  0  0  0  0  0  0
  188.4900  176.7960  147.5990 C   0  0  0  0  0  1  0  0  0  0  0  0
  188.5310  177.3260  146.2430 N   0  0  0  0  0  0  0  0  0  0  0  0
  189.8030  178.0380  146.1150 C   0  0  0  0  0  2  0  0  0  0  0  0
  191.8190  176.5380  146.1230 C   0  0  0  0  0  1  0  0  0  0  0  0
  191.5060  178.2240  144.3410 C   0  0  0  0  0  1  0  0  0  0  0  0
  190.0770  176.2300  144.4070 C   0  0  0  0  0  1  0  0  0  0  0  0
  190.7980  177.2550  145.2550 C   0  0  0  0  0  0  0  0  0  0  0  0
  184.9590  178.1400  142.0880 N   0  0  0  0  0  2  0  0  0  0  0  0
  185.2930  178.9520  140.9970 N   0  0  0  0  0  2  0  0  0  0  0  0
  184.4690  178.8950  138.6800 C   0  0  0  0  0  2  0  0  0  0  0  0
  183.2330  176.9450  139.3860 C   0  0  2  0  0  3  0  0  0  0  0  0
  184.1090  179.0750  140.1530 C   0  0  1  0  0  3  0  0  0  0  0  0
  183.1300  177.9720  140.4980 C   0  0  0  0  0  2  0  0  0  0  0  0
  183.6830  177.7100  138.1630 C   0  0  0  0  0  2  0  0  0  0  0  0
  181.9130  176.2210  139.1370 C   0  0  0  0  0  3  0  0  0  0  0  0
  180.9980  176.4910  140.1620 O   0  0  0  0  0  1  0  0  0  0  0  0
  181.3680  176.5460  137.8950 O   0  0  0  0  0  1  0  0  0  0  0  0
  2  6  2  0  0  0  0
  2  3  1  0  0  0  0
  3  5  2  0  0  0  0
  4  1  2  0  0  0  0
  5  1  1  0  0  0  0
  5 30  1  0  0  0  0
  6  4  1  0  0  0  0
  7  2  1  0  0  0  0
  8  7  1  0  0  0  0
  9 10  1  0  0  0  0
  9  8  1  0  0  0  0
 10 11  1  0  0  0  0
 11 12  1  0  0  0  0
 13 12  1  0  0  0  0
 13 14  1  0  0  0  0
 14 15  1  6  0  0  0
 14 17  1  0  0  0  0
 16 20  1  0  0  0  0
 17 25  1  1  0  0  0
 17 27  1  0  0  0  0
 18 26  2  0  0  0  0
 20 19  1  6  0  0  0
 20 24  1  0  0  0  0
 20 17  1  0  0  0  0
 21 18  1  0  0  0  0
 22 21  2  0  0  0  0
 23 26  1  0  0  0  0
 23 27  1  0  0  0  0
 24 22  1  6  0  0  0
 24 23  1  0  0  0  0
 27 28  1  1  0  0  0
 28 29  2  0  0  0  0
 30 31  1  0  0  0  0
 31 32  2  0  0  0  0
 33 32  1  1  0  0  0
 33 35  1  0  0  0  0
 34 36  1  0  0  0  0
 35 34  1  0  0  0  0
 35 36  1  0  0  0  0
 35 37  1  1  0  0  0
 37 38  1  0  0  0  0
 38 40  1  0  0  0  0
 40 39  1  0  0  0  0
 41 40  1  0  0  0  0
 43 45  1  0  0  0  0
 44 45  1  0  0  0  0
 45 41  1  0  0  0  0
 45 42  1  0  0  0  0
 46 33  1  0  0  0  0
 47 46  1  0  0  0  0
 48 50  1  0  0  0  0
 49 53  1  6  0  0  0
 49 51  1  0  0  0  0
 50 51  1  0  0  0  0
 50 47  1  1  0  0  0
 52 48  1  0  0  0  0
 52 49  1  0  0  0  0
 53 54  1  0  0  0  0
 55 53  1  0  0  0  0
M  END
>  <MODEL>
3

>  <REMARK>
 VINA RESULT:      -6.3      3.277     11.334
  Name = 
  23 active torsions:
  status: ('A' for Active; 'I' for Inactive)
    1  A    between atoms: C_1  and  C_53
    2  A    between atoms: C_2  and  C_28
    3  A    between atoms: C_2  and  C_44
    4  A    between atoms: C_6  and  C_20
    5  A    between atoms: C_7  and  C_20
    6  A    between atoms: C_7  and  C_22
    7  A    between atoms: C_8  and  C_22
    8  A    between atoms: C_8  and  C_35
    9  A    between atoms: C_10  and  C_32
   10  A    between atoms: C_16  and  C_17
   11  A    between atoms: C_16  and  C_26
   12  A    between atoms: C_17  and  C_33
   13  A    between atoms: C_19  and  C_40
   14  A    between atoms: C_19  and  N_45
   15  A    between atoms: C_26  and  N_45
   16  A    between atoms: C_27  and  O_54
   17  A    between atoms: C_33  and  N_36
   18  A    between atoms: C_33  and  C_49
   19  A    between atoms: C_34  and  N_52
   20  A    between atoms: C_35  and  C_43
   21  A    between atoms: N_36  and  N_52
   22  A    between atoms: C_43  and  C_51
   23  A    between atoms: C_51  and  O_54
                            x       y       z     vdW  Elec       q    Type
                         _______ _______ _______ _____ _____    ______ ____

>  <TORSDO>
F 23

$$$$
=
 OpenBabel10272401283D

 55 59  0  0  1  0  0  0  0  0999 V2000
  191.3690  176.5730  146.2820 C   0  0  0  0  0  3  0  0  0  0  0  0
  188.7340  177.5090  146.5370 C   0  0  0  0  0  0  0  0  0  0  0  0
  189.3480  177.4360  145.2820 C   0  0  0  0  0  3  0  0  0  0  0  0
  190.7690  176.6460  147.5430 C   0  0  0  0  0  3  0  0  0  0  0  0
  190.6550  176.9530  145.1430 C   0  0  0  0  0  0  0  0  0  0  0  0
  189.4510  177.1030  147.6660 C   0  0  0  0  0  3  0  0  0  0  0  0
  187.4280  177.9870  146.6800 O   0  0  0  0  0  0  0  0  0  0  0  0
  186.5030  178.0100  145.6050 C   0  0  0  0  0  2  0  0  0  0  0  0
  185.2850  178.8150  145.9950 C   0  0  0  0  0  2  0  0  0  0  0  0
  184.6670  179.4070  144.7400 C   0  0  0  0  0  2  0  0  0  0  0  0
  183.9440  178.3530  143.9100 C   0  0  0  0  0  2  0  0  0  0  0  0
  183.1760  178.9780  142.7620 C   0  0  0  0  0  2  0  0  0  0  0  0
  183.7880  178.5220  141.4410 C   0  0  0  0  0  2  0  0  0  0  0  0
  183.2370  179.2830  140.2360 C   0  0  1  0  0  3  0  0  0  0  0  0
  184.2690  179.8160  139.4590 O   0  0  0  0  0  1  0  0  0  0  0  0
  181.8960  176.2260  140.1570 O   0  0  0  0  0  1  0  0  0  0  0  0
  182.1830  178.5310  139.3970 C   0  0  1  0  0  0  0  0  0  0  0  0
  182.4100  176.9500  135.0220 C   0  0  0  0  0  3  0  0  0  0  0  0
  183.8250  176.7710  139.0860 F   0  0  0  0  0  0  0  0  0  0  0  0
  182.4620  177.0250  139.1620 C   0  0  1  0  0  0  0  0  0  0  0  0
  182.6490  175.6930  135.7570 C   0  0  0  0  0  3  0  0  0  0  0  0
  182.3890  175.5920  137.0620 C   0  0  0  0  0  3  0  0  0  0  0  0
  181.8440  177.9950  137.0980 N   0  0  0  0  0  0  0  0  0  0  0  0
  181.7870  176.7400  137.8300 C   0  0  2  0  0  3  0  0  0  0  0  0
  180.9300  178.6670  140.0110 O   0  0  0  0  0  1  0  0  0  0  0  0
  182.0420  178.0520  135.6810 C   0  0  0  0  0  3  0  0  0  0  0  0
  182.1350  179.1170  137.9730 C   0  0  1  0  0  3  0  0  0  0  0  0
  181.1340  180.2260  137.7930 C   0  0  0  0  0  3  0  0  0  0  0  0
  181.4870  181.3090  137.3650 O   0  0  0  0  0  0  0  0  0  0  0  0
  191.3370  176.8880  143.8110 C   0  0  0  0  0  2  0  0  0  0  0  0
  190.7310  175.8530  142.9030 C   0  0  0  0  0  3  0  0  0  0  0  0
  190.2100  176.1350  141.7070 C   0  0  0  0  0  3  0  0  0  0  0  0
  190.1570  177.5080  141.1030 C   0  0  2  0  0  3  0  0  0  0  0  0
  188.3970  179.1310  140.5790 O   0  0  0  0  0  0  0  0  0  0  0  0
  188.7500  177.7670  140.5460 C   0  0  2  0  0  0  0  0  0  0  0  0
  187.6930  178.2700  141.4570 C   0  0  0  0  0  2  0  0  0  0  0  0
  188.2860  177.0000  139.2850 C   0  0  0  0  0  2  0  0  0  0  0  0
  187.3690  177.7880  138.3400 C   0  0  0  0  0  2  0  0  0  0  0  0
  188.0980  178.9770  136.4830 C   0  0  0  0  0  1  0  0  0  0  0  0
  187.7340  177.6390  136.9270 N   0  0  0  0  0  0  0  0  0  0  0  0
  186.5450  177.2570  136.1630 C   0  0  0  0  0  2  0  0  0  0  0  0
  188.1430  175.7130  134.9900 C   0  0  0  0  0  1  0  0  0  0  0  0
  185.7570  175.7890  134.3460 C   0  0  0  0  0  1  0  0  0  0  0  0
  186.4180  174.7780  136.4820 C   0  0  0  0  0  1  0  0  0  0  0  0
  186.7220  175.8890  135.5010 C   0  0  0  0  0  0  0  0  0  0  0  0
  191.1790  177.6340  140.0620 N   0  0  0  0  0  2  0  0  0  0  0  0
  191.3720  176.3590  139.5140 N   0  0  0  0  0  2  0  0  0  0  0  0
  193.3610  175.7210  138.2160 C   0  0  0  0  0  2  0  0  0  0  0  0
  191.7940  174.6300  136.7390 C   0  0  2  0  0  3  0  0  0  0  0  0
  192.0610  176.5210  138.2380 C   0  0  1  0  0  3  0  0  0  0  0  0
  191.1930  175.9680  137.1250 C   0  0  0  0  0  2  0  0  0  0  0  0
  193.2630  174.7260  137.0790 C   0  0  0  0  0  2  0  0  0  0  0  0
  191.5830  174.3010  135.2640 C   0  0  0  0  0  3  0  0  0  0  0  0
  191.9760  175.3740  134.4550 O   0  0  0  0  0  1  0  0  0  0  0  0
  192.2520  173.1360  134.8910 O   0  0  0  0  0  1  0  0  0  0  0  0
  1  4  1  0  0  0  0
  2  7  1  0  0  0  0
  2  6  1  0  0  0  0
  3  2  2  0  0  0  0
  4  6  2  0  0  0  0
  5  3  1  0  0  0  0
  5  1  2  0  0  0  0
  8  9  1  0  0  0  0
  8  7  1  0  0  0  0
 10  9  1  0  0  0  0
 11 10  1  0  0  0  0
 12 11  1  0  0  0  0
 13 12  1  0  0  0  0
 14 15  1  6  0  0  0
 14 13  1  0  0  0  0
 17 25  1  1  0  0  0
 17 14  1  0  0  0  0
 18 26  2  0  0  0  0
 18 21  1  0  0  0  0
 20 19  1  6  0  0  0
 20 17  1  0  0  0  0
 20 16  1  0  0  0  0
 21 22  2  0  0  0  0
 23 24  1  0  0  0  0
 23 27  1  0  0  0  0
 24 22  1  6  0  0  0
 24 20  1  0  0  0  0
 26 23  1  0  0  0  0
 27 28  1  1  0  0  0
 27 17  1  0  0  0  0
 29 28  2  0  0  0  0
 30  5  1  0  0  0  0
 31 30  1  0  0  0  0
 32 31  2  0  0  0  0
 33 32  1  6  0  0  0
 34 36  1  0  0  0  0
 35 37  1  6  0  0  0
 35 34  1  0  0  0  0
 35 33  1  0  0  0  0
 35 36  1  0  0  0  0
 38 37  1  0  0  0  0
 39 40  1  0  0  0  0
 40 38  1  0  0  0  0
 41 40  1  0  0  0  0
 42 45  1  0  0  0  0
 43 45  1  0  0  0  0
 45 41  1  0  0  0  0
 45 44  1  0  0  0  0
 46 33  1  0  0  0  0
 47 46  1  0  0  0  0
 48 50  1  0  0  0  0
 49 53  1  6  0  0  0
 49 52  1  0  0  0  0
 49 51  1  0  0  0  0
 50 47  1  1  0  0  0
 51 50  1  0  0  0  0
 52 48  1  0  0  0  0
 54 53  1  0  0  0  0
 55 53  1  0  0  0  0
M  END
>  <MODEL>
4

>  <REMARK>
 VINA RESULT:      -6.2      1.487      2.130
  Name = 
  23 active torsions:
  status: ('A' for Active; 'I' for Inactive)
    1  A    between atoms: C_1  and  C_53
    2  A    between atoms: C_2  and  C_28
    3  A    between atoms: C_2  and  C_44
    4  A    between atoms: C_6  and  C_20
    5  A    between atoms: C_7  and  C_20
    6  A    between atoms: C_7  and  C_22
    7  A    between atoms: C_8  and  C_22
    8  A    between atoms: C_8  and  C_35
    9  A    between atoms: C_10  and  C_32
   10  A    between atoms: C_16  and  C_17
   11  A    between atoms: C_16  and  C_26
   12  A    between atoms: C_17  and  C_33
   13  A    between atoms: C_19  and  C_40
   14  A    between atoms: C_19  and  N_45
   15  A    between atoms: C_26  and  N_45
   16  A    between atoms: C_27  and  O_54
   17  A    between atoms: C_33  and  N_36
   18  A    between atoms: C_33  and  C_49
   19  A    between atoms: C_34  and  N_52
   20  A    between atoms: C_35  and  C_43
   21  A    between atoms: N_36  and  N_52
   22  A    between atoms: C_43  and  C_51
   23  A    between atoms: C_51  and  O_54
                            x       y       z     vdW  Elec       q    Type
                         _______ _______ _______ _____ _____    ______ ____

>  <TORSDO>
F 23

$$$$
=
 OpenBabel10272401283D

 55 59  0  0  1  0  0  0  0  0999 V2000
  187.3880  177.9950  145.9560 C   0  0  0  0  0  3  0  0  0  0  0  0
  184.7040  178.6440  145.4510 C   0  0  0  0  0  0  0  0  0  0  0  0
  185.6230  178.5410  144.4010 C   0  0  0  0  0  3  0  0  0  0  0  0
  186.4800  178.1000  147.0140 C   0  0  0  0  0  3  0  0  0  0  0  0
  186.9600  178.2000  144.6420 C   0  0  0  0  0  0  0  0  0  0  0  0
  185.1390  178.4130  146.7580 C   0  0  0  0  0  3  0  0  0  0  0  0
  183.3670  178.9810  145.2150 O   0  0  0  0  0  0  0  0  0  0  0  0
  182.9030  179.4190  143.9470 C   0  0  0  0  0  2  0  0  0  0  0  0
  181.6460  178.6670  143.5750 C   0  0  0  0  0  2  0  0  0  0  0  0
  180.9890  179.3650  142.3960 C   0  0  0  0  0  2  0  0  0  0  0  0
  180.2120  178.3900  141.5190 C   0  0  0  0  0  2  0  0  0  0  0  0
  181.1120  177.3110  140.9520 C   0  0  0  0  0  2  0  0  0  0  0  0
  182.0550  177.9320  139.9260 C   0  0  0  0  0  2  0  0  0  0  0  0
  181.3880  178.1680  138.5710 C   0  0  1  0  0  3  0  0  0  0  0  0
  181.2950  179.5330  138.2830 O   0  0  0  0  0  1  0  0  0  0  0  0
  180.1810  176.2800  136.0960 O   0  0  0  0  0  1  0  0  0  0  0  0
  181.9560  177.3450  137.3960 C   0  0  1  0  0  0  0  0  0  0  0  0
  184.2390  173.2870  137.4080 C   0  0  0  0  0  3  0  0  0  0  0  0
  180.6130  175.4810  138.1780 F   0  0  0  0  0  0  0  0  0  0  0  0
  181.1780  176.0520  137.0450 C   0  0  1  0  0  0  0  0  0  0  0  0
  182.8940  172.8180  137.0220 C   0  0  0  0  0  3  0  0  0  0  0  0
  181.9560  173.6700  136.6060 C   0  0  0  0  0  3  0  0  0  0  0  0
  183.4830  175.5360  137.1110 N   0  0  0  0  0  0  0  0  0  0  0  0
  182.2450  175.1410  136.4590 C   0  0  2  0  0  3  0  0  0  0  0  0
  182.0140  178.1590  136.2550 O   0  0  0  0  0  1  0  0  0  0  0  0
  184.5030  174.5950  137.4650 C   0  0  0  0  0  3  0  0  0  0  0  0
  183.3660  176.8360  137.7480 C   0  0  1  0  0  3  0  0  0  0  0  0
  184.4800  177.7560  137.3260 C   0  0  0  0  0  3  0  0  0  0  0  0
  185.2690  178.1840  138.1470 O   0  0  0  0  0  0  0  0  0  0  0  0
  187.9640  178.1050  143.5340 C   0  0  0  0  0  2  0  0  0  0  0  0
  188.0550  176.7210  142.9530 C   0  0  0  0  0  3  0  0  0  0  0  0
  188.9300  176.3730  142.0080 C   0  0  0  0  0  3  0  0  0  0  0  0
  189.9400  177.3020  141.3990 C   0  0  2  0  0  3  0  0  0  0  0  0
  189.3190  178.5670  139.3930 O   0  0  0  0  0  0  0  0  0  0  0  0
  189.7630  177.3190  139.8740 C   0  0  2  0  0  0  0  0  0  0  0  0
  188.4040  177.4890  139.3050 C   0  0  0  0  0  2  0  0  0  0  0  0
  190.8140  176.6110  138.9860 C   0  0  0  0  0  2  0  0  0  0  0  0
  190.7250  176.9280  137.4870 C   0  0  0  0  0  2  0  0  0  0  0  0
  191.9540  175.5130  136.1150 C   0  0  0  0  0  1  0  0  0  0  0  0
  190.6170  175.7260  136.6510 N   0  0  0  0  0  0  0  0  0  0  0  0
  189.7530  176.0170  135.5050 C   0  0  0  0  0  2  0  0  0  0  0  0
  187.2540  176.1750  135.7050 C   0  0  0  0  0  1  0  0  0  0  0  0
  188.4940  174.3290  136.7880 C   0  0  0  0  0  1  0  0  0  0  0  0
  188.2570  174.3800  134.3460 C   0  0  0  0  0  1  0  0  0  0  0  0
  188.4410  175.2340  135.5820 C   0  0  0  0  0  0  0  0  0  0  0  0
  191.2910  176.8870  141.7790 N   0  0  0  0  0  2  0  0  0  0  0  0
  191.5150  177.3480  143.0830 N   0  0  0  0  0  2  0  0  0  0  0  0
  191.9400  175.1760  144.1560 C   0  0  0  0  0  2  0  0  0  0  0  0
  191.9820  176.4330  146.2160 C   0  0  2  0  0  3  0  0  0  0  0  0
  190.9790  176.3530  144.0060 C   0  0  1  0  0  3  0  0  0  0  0  0
  190.8350  176.9710  145.3830 C   0  0  0  0  0  2  0  0  0  0  0  0
  192.3320  175.0910  145.6150 C   0  0  0  0  0  2  0  0  0  0  0  0
  191.6210  176.3060  147.6930 C   0  0  0  0  0  3  0  0  0  0  0  0
  191.7260  174.9760  148.1170 O   0  0  0  0  0  1  0  0  0  0  0  0
  192.4030  177.1390  148.4920 O   0  0  0  0  0  1  0  0  0  0  0  0
  1  4  1  0  0  0  0
  2  6  1  0  0  0  0
  3  5  1  0  0  0  0
  3  2  2  0  0  0  0
  5  1  2  0  0  0  0
  6  4  2  0  0  0  0
  7  2  1  0  0  0  0
  8  7  1  0  0  0  0
  9  8  1  0  0  0  0
 10  9  1  0  0  0  0
 11 10  1  0  0  0  0
 12 11  1  0  0  0  0
 13 12  1  0  0  0  0
 14 15  1  6  0  0  0
 14 13  1  0  0  0  0
 17 25  1  6  0  0  0
 17 27  1  0  0  0  0
 17 14  1  0  0  0  0
 18 26  2  0  0  0  0
 20 16  1  6  0  0  0
 20 17  1  0  0  0  0
 20 19  1  0  0  0  0
 21 18  1  0  0  0  0
 22 21  2  0  0  0  0
 23 26  1  0  0  0  0
 23 27  1  0  0  0  0
 24 22  1  1  0  0  0
 24 20  1  0  0  0  0
 24 23  1  0  0  0  0
 27 28  1  6  0  0  0
 28 29  2  0  0  0  0
 30  5  1  0  0  0  0
 31 30  1  0  0  0  0
 32 31  2  0  0  0  0
 33 46  1  0  0  0  0
 33 32  1  1  0  0  0
 34 35  1  0  0  0  0
 35 37  1  6  0  0  0
 35 33  1  0  0  0  0
 36 34  1  0  0  0  0
 36 35  1  0  0  0  0
 38 37  1  0  0  0  0
 39 40  1  0  0  0  0
 40 38  1  0  0  0  0
 41 45  1  0  0  0  0
 41 40  1  0  0  0  0
 44 45  1  0  0  0  0
 45 42  1  0  0  0  0
 45 43  1  0  0  0  0
 46 47  1  0  0  0  0
 48 52  1  0  0  0  0
 49 53  1  1  0  0  0
 50 47  1  6  0  0  0
 50 48  1  0  0  0  0
 50 51  1  0  0  0  0
 51 49  1  0  0  0  0
 52 49  1  0  0  0  0
 53 54  1  0  0  0  0
 53 55  1  0  0  0  0
M  END
>  <MODEL>
5

>  <REMARK>
 VINA RESULT:      -5.6      2.624      5.201
  Name = 
  23 active torsions:
  status: ('A' for Active; 'I' for Inactive)
    1  A    between atoms: C_1  and  C_53
    2  A    between atoms: C_2  and  C_28
    3  A    between atoms: C_2  and  C_44
    4  A    between atoms: C_6  and  C_20
    5  A    between atoms: C_7  and  C_20
    6  A    between atoms: C_7  and  C_22
    7  A    between atoms: C_8  and  C_22
    8  A    between atoms: C_8  and  C_35
    9  A    between atoms: C_10  and  C_32
   10  A    between atoms: C_16  and  C_17
   11  A    between atoms: C_16  and  C_26
   12  A    between atoms: C_17  and  C_33
   13  A    between atoms: C_19  and  C_40
   14  A    between atoms: C_19  and  N_45
   15  A    between atoms: C_26  and  N_45
   16  A    between atoms: C_27  and  O_54
   17  A    between atoms: C_33  and  N_36
   18  A    between atoms: C_33  and  C_49
   19  A    between atoms: C_34  and  N_52
   20  A    between atoms: C_35  and  C_43
   21  A    between atoms: N_36  and  N_52
   22  A    between atoms: C_43  and  C_51
   23  A    between atoms: C_51  and  O_54
                            x       y       z     vdW  Elec       q    Type
                         _______ _______ _______ _____ _____    ______ ____

>  <TORSDO>
F 23

$$$$
=
 OpenBabel10272401283D

 55 59  0  0  1  0  0  0  0  0999 V2000
  189.2960  177.6080  139.9070 C   0  0  0  0  0  3  0  0  0  0  0  0
  190.5070  177.4760  142.4360 C   0  0  0  0  0  0  0  0  0  0  0  0
  191.1010  176.8630  141.3270 C   0  0  0  0  0  3  0  0  0  0  0  0
  188.6910  178.2210  141.0080 C   0  0  0  0  0  3  0  0  0  0  0  0
  190.5130  176.9390  140.0580 C   0  0  0  0  0  0  0  0  0  0  0  0
  189.3020  178.1640  142.2660 C   0  0  0  0  0  3  0  0  0  0  0  0
  191.0930  177.4060  143.7030 O   0  0  0  0  0  0  0  0  0  0  0  0
  190.5480  178.0710  144.8330 C   0  0  0  0  0  2  0  0  0  0  0  0
  190.5700  177.1480  146.0290 C   0  0  0  0  0  2  0  0  0  0  0  0
  189.1790  177.1010  146.6370 C   0  0  0  0  0  2  0  0  0  0  0  0
  188.1590  177.8480  145.7840 C   0  0  0  0  0  2  0  0  0  0  0  0
  186.7600  177.2980  145.9790 C   0  0  0  0  0  2  0  0  0  0  0  0
  185.7520  178.2580  145.3540 C   0  0  0  0  0  2  0  0  0  0  0  0
  185.8170  178.2790  143.8270 C   0  0  1  0  0  3  0  0  0  0  0  0
  185.9430  176.9880  143.3080 O   0  0  0  0  0  1  0  0  0  0  0  0
  183.1450  180.0680  144.7260 O   0  0  0  0  0  1  0  0  0  0  0  0
  184.7190  179.1030  143.1240 C   0  0  1  0  0  0  0  0  0  0  0  0
  181.0910  177.6920  140.5680 C   0  0  0  0  0  3  0  0  0  0  0  0
  183.0860  177.8230  144.3830 F   0  0  0  0  0  0  0  0  0  0  0  0
  183.3170  179.0530  143.7830 C   0  0  1  0  0  0  0  0  0  0  0  0
  180.4070  177.9640  141.8470 C   0  0  0  0  0  3  0  0  0  0  0  0
  180.9970  178.6720  142.8120 C   0  0  0  0  0  3  0  0  0  0  0  0
  183.0550  178.7260  141.4580 N   0  0  0  0  0  0  0  0  0  0  0  0
  182.3660  179.2700  142.6170 C   0  0  2  0  0  3  0  0  0  0  0  0
  185.1330  180.4400  143.0440 O   0  0  0  0  0  1  0  0  0  0  0  0
  182.3680  178.0460  140.4010 C   0  0  0  0  0  3  0  0  0  0  0  0
  184.4740  178.5450  141.7090 C   0  0  1  0  0  3  0  0  0  0  0  0
  185.3070  179.1920  140.6360 C   0  0  0  0  0  3  0  0  0  0  0  0
  185.6250  178.5650  139.6430 O   0  0  0  0  0  0  0  0  0  0  0  0
  191.1210  176.2710  138.8630 C   0  0  0  0  0  2  0  0  0  0  0  0
  190.7920  176.9770  137.5770 C   0  0  0  0  0  3  0  0  0  0  0  0
  190.7410  176.3660  136.3910 C   0  0  0  0  0  3  0  0  0  0  0  0
  190.9970  174.9020  136.1760 C   0  0  2  0  0  3  0  0  0  0  0  0
  189.4400  173.1840  136.9720 O   0  0  0  0  0  0  0  0  0  0  0  0
  189.6590  174.1720  135.9900 C   0  0  2  0  0  0  0  0  0  0  0  0
  189.6650  172.7280  135.6490 C   0  0  0  0  0  2  0  0  0  0  0  0
  188.4060  174.9850  135.5880 C   0  0  0  0  0  2  0  0  0  0  0  0
  187.4330  175.2980  136.7330 C   0  0  0  0  0  2  0  0  0  0  0  0
  187.0690  177.5840  136.5450 C   0  0  0  0  0  1  0  0  0  0  0  0
  186.4180  176.2940  136.3690 N   0  0  0  0  0  0  0  0  0  0  0  0
  185.3280  176.2440  137.3440 C   0  0  0  0  0  2  0  0  0  0  0  0
  183.2180  177.3030  136.4840 C   0  0  0  0  0  1  0  0  0  0  0  0
  183.1730  175.0590  137.5230 C   0  0  0  0  0  1  0  0  0  0  0  0
  184.1760  175.3630  135.3040 C   0  0  0  0  0  1  0  0  0  0  0  0
  183.9800  176.0000  136.6630 C   0  0  0  0  0  0  0  0  0  0  0  0
  191.7550  174.3580  137.3040 N   0  0  0  0  0  2  0  0  0  0  0  0
  192.9230  173.7880  136.7810 N   0  0  0  0  0  2  0  0  0  0  0  0
  194.8540  172.8730  137.9990 C   0  0  0  0  0  2  0  0  0  0  0  0
  196.1720  174.3100  136.5760 C   0  0  2  0  0  3  0  0  0  0  0  0
  194.0210  174.1130  137.6850 C   0  0  1  0  0  3  0  0  0  0  0  0
  194.9520  175.1000  137.0100 C   0  0  0  0  0  2  0  0  0  0  0  0
  196.2680  173.1450  137.5340 C   0  0  0  0  0  2  0  0  0  0  0  0
  197.4450  175.1500  136.5880 C   0  0  0  0  0  3  0  0  0  0  0  0
  197.2460  176.3630  135.9180 O   0  0  0  0  0  1  0  0  0  0  0  0
  197.9050  175.3770  137.8850 O   0  0  0  0  0  1  0  0  0  0  0  0
  1  5  2  0  0  0  0
  1  4  1  0  0  0  0
  2  7  1  0  0  0  0
  3  2  2  0  0  0  0
  4  6  2  0  0  0  0
  5  3  1  0  0  0  0
  6  2  1  0  0  0  0
  7  8  1  0  0  0  0
  8  9  1  0  0  0  0
  9 10  1  0  0  0  0
 11 12  1  0  0  0  0
 11 10  1  0  0  0  0
 13 12  1  0  0  0  0
 14 15  1  6  0  0  0
 14 13  1  0  0  0  0
 17 25  1  6  0  0  0
 17 20  1  0  0  0  0
 17 14  1  0  0  0  0
 18 21  1  0  0  0  0
 20 19  1  1  0  0  0
 20 16  1  0  0  0  0
 21 22  2  0  0  0  0
 23 27  1  0  0  0  0
 23 24  1  0  0  0  0
 24 22  1  1  0  0  0
 24 20  1  0  0  0  0
 26 18  2  0  0  0  0
 26 23  1  0  0  0  0
 27 28  1  6  0  0  0
 27 17  1  0  0  0  0
 29 28  2  0  0  0  0
 30  5  1  0  0  0  0
 31 30  1  0  0  0  0
 32 31  2  0  0  0  0
 33 32  1  1  0  0  0
 33 46  1  0  0  0  0
 35 37  1  6  0  0  0
 35 33  1  0  0  0  0
 35 34  1  0  0  0  0
 36 35  1  0  0  0  0
 36 34  1  0  0  0  0
 37 38  1  0  0  0  0
 40 39  1  0  0  0  0
 40 38  1  0  0  0  0
 40 41  1  0  0  0  0
 42 45  1  0  0  0  0
 44 45  1  0  0  0  0
 45 41  1  0  0  0  0
 45 43  1  0  0  0  0
 47 46  1  0  0  0  0
 49 53  1  1  0  0  0
 49 51  1  0  0  0  0
 49 52  1  0  0  0  0
 50 47  1  6  0  0  0
 50 48  1  0  0  0  0
 51 50  1  0  0  0  0
 52 48  1  0  0  0  0
 53 55  1  0  0  0  0
 54 53  1  0  0  0  0
M  END
>  <MODEL>
6

>  <REMARK>
 VINA RESULT:      -5.5      2.407      4.386
  Name = 
  23 active torsions:
  status: ('A' for Active; 'I' for Inactive)
    1  A    between atoms: C_1  and  C_53
    2  A    between atoms: C_2  and  C_28
    3  A    between atoms: C_2  and  C_44
    4  A    between atoms: C_6  and  C_20
    5  A    between atoms: C_7  and  C_20
    6  A    between atoms: C_7  and  C_22
    7  A    between atoms: C_8  and  C_22
    8  A    between atoms: C_8  and  C_35
    9  A    between atoms: C_10  and  C_32
   10  A    between atoms: C_16  and  C_17
   11  A    between atoms: C_16  and  C_26
   12  A    between atoms: C_17  and  C_33
   13  A    between atoms: C_19  and  C_40
   14  A    between atoms: C_19  and  N_45
   15  A    between atoms: C_26  and  N_45
   16  A    between atoms: C_27  and  O_54
   17  A    between atoms: C_33  and  N_36
   18  A    between atoms: C_33  and  C_49
   19  A    between atoms: C_34  and  N_52
   20  A    between atoms: C_35  and  C_43
   21  A    between atoms: N_36  and  N_52
   22  A    between atoms: C_43  and  C_51
   23  A    between atoms: C_51  and  O_54
                            x       y       z     vdW  Elec       q    Type
                         _______ _______ _______ _____ _____    ______ ____

>  <TORSDO>
F 23

$$$$
=
 OpenBabel10272401283D

 55 59  0  0  1  0  0  0  0  0999 V2000
  189.8230  177.1750  147.4810 C   0  0  0  0  0  3  0  0  0  0  0  0
  191.2600  176.8760  145.0870 C   0  0  0  0  0  0  0  0  0  0  0  0
  189.9620  177.3980  145.0800 C   0  0  0  0  0  3  0  0  0  0  0  0
  191.1180  176.6460  147.5000 C   0  0  0  0  0  3  0  0  0  0  0  0
  189.2440  177.5680  146.2720 C   0  0  0  0  0  0  0  0  0  0  0  0
  191.8360  176.5080  146.3060 C   0  0  0  0  0  3  0  0  0  0  0  0
  191.9810  176.7080  143.9010 O   0  0  0  0  0  0  0  0  0  0  0  0
  191.7820  177.5340  142.7650 C   0  0  0  0  0  2  0  0  0  0  0  0
  191.9950  176.7290  141.5040 C   0  0  0  0  0  2  0  0  0  0  0  0
  192.4440  177.6660  140.3950 C   0  0  0  0  0  2  0  0  0  0  0  0
  193.1790  176.9220  139.2850 C   0  0  0  0  0  2  0  0  0  0  0  0
  192.2290  176.4750  138.1910 C   0  0  0  0  0  2  0  0  0  0  0  0
  193.0290  176.1450  136.9350 C   0  0  0  0  0  2  0  0  0  0  0  0
  193.6990  174.7730  136.9980 C   0  0  1  0  0  3  0  0  0  0  0  0
  192.7590  173.7610  137.2190 O   0  0  0  0  0  1  0  0  0  0  0  0
  194.5500  172.0940  135.1960 O   0  0  0  0  0  1  0  0  0  0  0  0
  194.6670  174.4480  135.8420 C   0  0  1  0  0  0  0  0  0  0  0  0
  199.3120  174.1140  135.8300 C   0  0  0  0  0  3  0  0  0  0  0  0
  195.5090  172.6140  137.1890 F   0  0  0  0  0  0  0  0  0  0  0  0
  195.3130  173.0400  135.8820 C   0  0  1  0  0  0  0  0  0  0  0  0
  198.9560  172.6820  135.8680 C   0  0  0  0  0  3  0  0  0  0  0  0
  197.7180  172.2670  135.5920 C   0  0  0  0  0  3  0  0  0  0  0  0
  197.0090  174.6210  135.4290 N   0  0  0  0  0  0  0  0  0  0  0  0
  196.6440  173.2370  135.1740 C   0  0  2  0  0  3  0  0  0  0  0  0
  193.9890  174.5990  134.6240 O   0  0  0  0  0  1  0  0  0  0  0  0
  198.3640  175.0350  135.6370 C   0  0  0  0  0  3  0  0  0  0  0  0
  195.8750  175.4030  135.8900 C   0  0  1  0  0  3  0  0  0  0  0  0
  195.7060  176.6570  135.0750 C   0  0  0  0  0  3  0  0  0  0  0  0
  196.1710  177.7110  135.4660 O   0  0  0  0  0  0  0  0  0  0  0  0
  187.8470  178.1060  146.2830 C   0  0  0  0  0  2  0  0  0  0  0  0
  186.8190  177.0500  145.9830 C   0  0  0  0  0  3  0  0  0  0  0  0
  186.0000  177.0940  144.9300 C   0  0  0  0  0  3  0  0  0  0  0  0
  185.9920  178.1900  143.9040 C   0  0  2  0  0  3  0  0  0  0  0  0
  184.5550  180.1710  143.7710 O   0  0  0  0  0  0  0  0  0  0  0  0
  184.5730  178.7610  143.7790 C   0  0  2  0  0  0  0  0  0  0  0  0
  184.0020  179.5330  144.9100 C   0  0  0  0  0  2  0  0  0  0  0  0
  183.5720  178.0880  142.8100 C   0  0  0  0  0  2  0  0  0  0  0  0
  182.4520  178.9980  142.2890 C   0  0  0  0  0  2  0  0  0  0  0  0
  181.0640  177.7420  140.9140 C   0  0  0  0  0  1  0  0  0  0  0  0
  182.1150  178.7490  140.8820 N   0  0  0  0  0  0  0  0  0  0  0  0
  183.2630  178.1290  140.2190 C   0  0  0  0  0  2  0  0  0  0  0  0
  183.1530  180.2310  138.8470 C   0  0  0  0  0  1  0  0  0  0  0  0
  182.6870  178.0280  137.8240 C   0  0  0  0  0  1  0  0  0  0  0  0
  184.9800  178.6210  138.4660 C   0  0  0  0  0  1  0  0  0  0  0  0
  183.5220  178.7560  138.8480 C   0  0  0  0  0  0  0  0  0  0  0  0
  186.4790  177.6750  142.6230 N   0  0  0  0  0  2  0  0  0  0  0  0
  186.7980  178.7830  141.8260 N   0  0  0  0  0  2  0  0  0  0  0  0
  188.5860  177.1650  141.3400 C   0  0  0  0  0  2  0  0  0  0  0  0
  188.4170  177.9710  139.0710 C   0  0  2  0  0  3  0  0  0  0  0  0
  188.1840  178.6370  141.3940 C   0  0  1  0  0  3  0  0  0  0  0  0
  188.3310  179.1780  139.9850 C   0  0  0  0  0  2  0  0  0  0  0  0
  188.9910  176.8570  139.9140 C   0  0  0  0  0  2  0  0  0  0  0  0
  189.2740  178.2350  137.8360 C   0  0  0  0  0  3  0  0  0  0  0  0
  189.0360  177.2700  136.8510 O   0  0  0  0  0  1  0  0  0  0  0  0
  189.0690  179.5170  137.3260 O   0  0  0  0  0  1  0  0  0  0  0  0
  1  4  1  0  0  0  0
  2  6  1  0  0  0  0
  3  2  2  0  0  0  0
  3  5  1  0  0  0  0
  5 30  1  0  0  0  0
  5  1  2  0  0  0  0
  6  4  2  0  0  0  0
  7  2  1  0  0  0  0
  8  7  1  0  0  0  0
  9  8  1  0  0  0  0
 10  9  1  0  0  0  0
 11 10  1  0  0  0  0
 12 11  1  0  0  0  0
 13 14  1  0  0  0  0
 13 12  1  0  0  0  0
 14 15  1  6  0  0  0
 17 25  1  6  0  0  0
 17 20  1  0  0  0  0
 17 27  1  0  0  0  0
 17 14  1  0  0  0  0
 18 21  1  0  0  0  0
 20 16  1  6  0  0  0
 20 19  1  0  0  0  0
 22 21  2  0  0  0  0
 23 26  1  0  0  0  0
 23 27  1  0  0  0  0
 24 23  1  0  0  0  0
 24 22  1  1  0  0  0
 24 20  1  0  0  0  0
 26 18  2  0  0  0  0
 27 28  1  6  0  0  0
 28 29  2  0  0  0  0
 31 30  1  0  0  0  0
 32 31  2  0  0  0  0
 33 32  1  1  0  0  0
 34 35  1  0  0  0  0
 34 36  1  0  0  0  0
 35 37  1  6  0  0  0
 35 33  1  0  0  0  0
 35 36  1  0  0  0  0
 38 37  1  0  0  0  0
 40 39  1  0  0  0  0
 40 38  1  0  0  0  0
 41 40  1  0  0  0  0
 42 45  1  0  0  0  0
 43 45  1  0  0  0  0
 44 45  1  0  0  0  0
 45 41  1  0  0  0  0
 46 33  1  0  0  0  0
 47 46  1  0  0  0  0
 48 50  1  0  0  0  0
 49 53  1  6  0  0  0
 49 52  1  0  0  0  0
 49 51  1  0  0  0  0
 50 47  1  6  0  0  0
 51 50  1  0  0  0  0
 52 48  1  0  0  0  0
 54 53  1  0  0  0  0
 55 53  1  0  0  0  0
M  END
>  <MODEL>
7

>  <REMARK>
 VINA RESULT:      -5.5      3.475      9.758
  Name = 
  23 active torsions:
  status: ('A' for Active; 'I' for Inactive)
    1  A    between atoms: C_1  and  C_53
    2  A    between atoms: C_2  and  C_28
    3  A    between atoms: C_2  and  C_44
    4  A    between atoms: C_6  and  C_20
    5  A    between atoms: C_7  and  C_20
    6  A    between atoms: C_7  and  C_22
    7  A    between atoms: C_8  and  C_22
    8  A    between atoms: C_8  and  C_35
    9  A    between atoms: C_10  and  C_32
   10  A    between atoms: C_16  and  C_17
   11  A    between atoms: C_16  and  C_26
   12  A    between atoms: C_17  and  C_33
   13  A    between atoms: C_19  and  C_40
   14  A    between atoms: C_19  and  N_45
   15  A    between atoms: C_26  and  N_45
   16  A    between atoms: C_27  and  O_54
   17  A    between atoms: C_33  and  N_36
   18  A    between atoms: C_33  and  C_49
   19  A    between atoms: C_34  and  N_52
   20  A    between atoms: C_35  and  C_43
   21  A    between atoms: N_36  and  N_52
   22  A    between atoms: C_43  and  C_51
   23  A    between atoms: C_51  and  O_54
                            x       y       z     vdW  Elec       q    Type
                         _______ _______ _______ _____ _____    ______ ____

>  <TORSDO>
F 23

$$$$
=
 OpenBabel10272401283D

 55 59  0  0  1  0  0  0  0  0999 V2000
  190.0550  177.4170  139.9990 C   0  0  0  0  0  3  0  0  0  0  0  0
  187.4890  178.4100  139.4380 C   0  0  0  0  0  0  0  0  0  0  0  0
  188.3110  177.9350  138.4110 C   0  0  0  0  0  3  0  0  0  0  0  0
  189.2450  177.8940  141.0340 C   0  0  0  0  0  3  0  0  0  0  0  0
  189.5850  177.4210  138.6830 C   0  0  0  0  0  0  0  0  0  0  0  0
  187.9610  178.3790  140.7530 C   0  0  0  0  0  3  0  0  0  0  0  0
  186.2150  178.9200  139.1720 O   0  0  0  0  0  0  0  0  0  0  0  0
  185.0400  178.3820  139.7560 C   0  0  0  0  0  2  0  0  0  0  0  0
  184.7200  179.1200  141.0360 C   0  0  0  0  0  2  0  0  0  0  0  0
  184.3280  178.1090  142.1000 C   0  0  0  0  0  2  0  0  0  0  0  0
  183.7350  178.7820  143.3330 C   0  0  0  0  0  2  0  0  0  0  0  0
  184.8040  179.4660  144.1620 C   0  0  0  0  0  2  0  0  0  0  0  0
  184.8300  178.8460  145.5560 C   0  0  0  0  0  2  0  0  0  0  0  0
  186.1960  178.9590  146.2320 C   0  0  1  0  0  3  0  0  0  0  0  0
  186.0910  179.5660  147.4870 O   0  0  0  0  0  1  0  0  0  0  0  0
  187.5010  176.9390  148.5480 O   0  0  0  0  0  1  0  0  0  0  0  0
  187.0360  177.6660  146.2610 C   0  0  1  0  0  0  0  0  0  0  0  0
  191.5300  176.9900  145.2440 C   0  0  0  0  0  3  0  0  0  0  0  0
  188.5540  178.7990  147.7780 F   0  0  0  0  0  0  0  0  0  0  0  0
  188.0550  177.5530  147.4230 C   0  0  1  0  0  0  0  0  0  0  0  0
  191.6070  177.0140  146.7170 C   0  0  0  0  0  3  0  0  0  0  0  0
  190.5110  176.8950  147.4700 C   0  0  0  0  0  3  0  0  0  0  0  0
  189.1460  176.9380  145.4200 N   0  0  0  0  0  0  0  0  0  0  0  0
  189.1560  176.6760  146.8500 C   0  0  2  0  0  3  0  0  0  0  0  0
  186.1730  176.5620  146.3100 O   0  0  0  0  0  1  0  0  0  0  0  0
  190.3420  176.9730  144.6340 C   0  0  0  0  0  3  0  0  0  0  0  0
  187.9160  177.5870  144.9990 C   0  0  1  0  0  3  0  0  0  0  0  0
  187.2800  176.8600  143.8450 C   0  0  0  0  0  3  0  0  0  0  0  0
  187.8100  175.8710  143.3750 O   0  0  0  0  0  0  0  0  0  0  0  0
  190.4880  176.9270  137.5950 C   0  0  0  0  0  2  0  0  0  0  0  0
  191.8740  176.6160  138.0900 C   0  0  0  0  0  3  0  0  0  0  0  0
  192.4740  175.4370  137.9120 C   0  0  0  0  0  3  0  0  0  0  0  0
  191.8610  174.2680  137.1980 C   0  0  2  0  0  3  0  0  0  0  0  0
  192.8670  175.3920  135.2660 O   0  0  0  0  0  0  0  0  0  0  0  0
  192.4760  174.1460  135.7970 C   0  0  2  0  0  0  0  0  0  0  0  0
  191.7690  174.7500  134.6410 C   0  0  0  0  0  2  0  0  0  0  0  0
  193.4420  172.9750  135.4970 C   0  0  0  0  0  2  0  0  0  0  0  0
  194.2070  172.4300  136.7110 C   0  0  0  0  0  2  0  0  0  0  0  0
  193.9500  170.1260  136.5780 C   0  0  0  0  0  1  0  0  0  0  0  0
  194.9340  171.1880  136.4220 N   0  0  0  0  0  0  0  0  0  0  0  0
  195.9440  170.9730  137.4590 C   0  0  0  0  0  2  0  0  0  0  0  0
  197.0090  169.9680  135.4180 C   0  0  0  0  0  1  0  0  0  0  0  0
  197.4300  169.0160  137.6610 C   0  0  0  0  0  1  0  0  0  0  0  0
  198.4030  171.1830  137.0460 C   0  0  0  0  0  1  0  0  0  0  0  0
  197.1910  170.2910  136.8920 C   0  0  0  0  0  0  0  0  0  0  0  0
  190.4070  174.4300  137.1340 N   0  0  0  0  0  2  0  0  0  0  0  0
  189.8400  173.1660  137.3430 N   0  0  0  0  0  2  0  0  0  0  0  0
  187.4970  172.4240  137.2660 C   0  0  0  0  0  2  0  0  0  0  0  0
  186.9800  174.7630  136.9690 C   0  0  2  0  0  3  0  0  0  0  0  0
  188.6520  173.0650  136.5020 C   0  0  1  0  0  3  0  0  0  0  0  0
  188.1940  174.4560  136.1120 C   0  0  0  0  0  2  0  0  0  0  0  0
  186.3620  173.4240  137.2980 C   0  0  0  0  0  2  0  0  0  0  0  0
  185.9850  175.6790  136.2630 C   0  0  0  0  0  3  0  0  0  0  0  0
  184.9660  176.0730  137.1400 O   0  0  0  0  0  1  0  0  0  0  0  0
  186.6110  176.7940  135.7070 O   0  0  0  0  0  1  0  0  0  0  0  0
  1  4  1  0  0  0  0
  2  6  1  0  0  0  0
  3  5  1  0  0  0  0
  3  2  2  0  0  0  0
  5  1  2  0  0  0  0
  6  4  2  0  0  0  0
  7  2  1  0  0  0  0
  7  8  1  0  0  0  0
  8  9  1  0  0  0  0
  9 10  1  0  0  0  0
 10 11  1  0  0  0  0
 11 12  1  0  0  0  0
 12 13  1  0  0  0  0
 13 14  1  0  0  0  0
 14 17  1  0  0  0  0
 14 15  1  1  0  0  0
 17 25  1  1  0  0  0
 17 20  1  0  0  0  0
 18 21  1  0  0  0  0
 20 19  1  1  0  0  0
 20 16  1  0  0  0  0
 21 22  2  0  0  0  0
 23 24  1  0  0  0  0
 24 20  1  0  0  0  0
 24 22  1  1  0  0  0
 26 18  2  0  0  0  0
 26 23  1  0  0  0  0
 27 28  1  6  0  0  0
 27 23  1  0  0  0  0
 27 17  1  0  0  0  0
 29 28  2  0  0  0  0
 30 31  1  0  0  0  0
 30  5  1  0  0  0  0
 32 31  2  0  0  0  0
 33 32  1  6  0  0  0
 34 35  1  0  0  0  0
 35 37  1  6  0  0  0
 35 33  1  0  0  0  0
 36 34  1  0  0  0  0
 36 35  1  0  0  0  0
 37 38  1  0  0  0  0
 40 39  1  0  0  0  0
 40 38  1  0  0  0  0
 40 41  1  0  0  0  0
 42 45  1  0  0  0  0
 45 44  1  0  0  0  0
 45 41  1  0  0  0  0
 45 43  1  0  0  0  0
 46 33  1  0  0  0  0
 46 47  1  0  0  0  0
 48 52  1  0  0  0  0
 49 53  1  6  0  0  0
 49 52  1  0  0  0  0
 50 48  1  0  0  0  0
 50 47  1  1  0  0  0
 51 50  1  0  0  0  0
 51 49  1  0  0  0  0
 53 54  1  0  0  0  0
 55 53  1  0  0  0  0
M  END
>  <MODEL>
8

>  <REMARK>
 VINA RESULT:      -5.5      3.093      8.316
  Name = 
  23 active torsions:
  status: ('A' for Active; 'I' for Inactive)
    1  A    between atoms: C_1  and  C_53
    2  A    between atoms: C_2  and  C_28
    3  A    between atoms: C_2  and  C_44
    4  A    between atoms: C_6  and  C_20
    5  A    between atoms: C_7  and  C_20
    6  A    between atoms: C_7  and  C_22
    7  A    between atoms: C_8  and  C_22
    8  A    between atoms: C_8  and  C_35
    9  A    between atoms: C_10  and  C_32
   10  A    between atoms: C_16  and  C_17
   11  A    between atoms: C_16  and  C_26
   12  A    between atoms: C_17  and  C_33
   13  A    between atoms: C_19  and  C_40
   14  A    between atoms: C_19  and  N_45
   15  A    between atoms: C_26  and  N_45
   16  A    between atoms: C_27  and  O_54
   17  A    between atoms: C_33  and  N_36
   18  A    between atoms: C_33  and  C_49
   19  A    between atoms: C_34  and  N_52
   20  A    between atoms: C_35  and  C_43
   21  A    between atoms: N_36  and  N_52
   22  A    between atoms: C_43  and  C_51
   23  A    between atoms: C_51  and  O_54
                            x       y       z     vdW  Elec       q    Type
                         _______ _______ _______ _____ _____    ______ ____

>  <TORSDO>
F 23

$$$$
=
 OpenBabel10272401283D

 55 59  0  0  1  0  0  0  0  0999 V2000
  190.4070  177.2990  141.0100 C   0  0  0  0  0  3  0  0  0  0  0  0
  187.9020  178.5260  140.6940 C   0  0  0  0  0  0  0  0  0  0  0  0
  188.4340  177.7190  139.6820 C   0  0  0  0  0  3  0  0  0  0  0  0
  189.8880  178.1060  142.0260 C   0  0  0  0  0  3  0  0  0  0  0  0
  189.6750  177.0880  139.8380 C   0  0  0  0  0  0  0  0  0  0  0  0
  188.6330  178.7080  141.8710 C   0  0  0  0  0  3  0  0  0  0  0  0
  186.6620  179.1550  140.5440 O   0  0  0  0  0  0  0  0  0  0  0  0
  185.4620  178.4310  140.3220 C   0  0  0  0  0  2  0  0  0  0  0  0
  184.8800  177.9870  141.6440 C   0  0  0  0  0  2  0  0  0  0  0  0
  184.8040  179.1870  142.5730 C   0  0  0  0  0  2  0  0  0  0  0  0
  183.7070  179.0270  143.6200 C   0  0  0  0  0  2  0  0  0  0  0  0
  184.2820  178.9280  145.0190 C   0  0  0  0  0  2  0  0  0  0  0  0
  185.7730  179.2490  144.9730 C   0  0  0  0  0  2  0  0  0  0  0  0
  186.4690  179.0390  146.3170 C   0  0  1  0  0  3  0  0  0  0  0  0
  185.6040  179.3040  147.3820 O   0  0  0  0  0  1  0  0  0  0  0  0
  187.7980  177.2600  148.8110 O   0  0  0  0  0  1  0  0  0  0  0  0
  187.2230  177.7030  146.4760 C   0  0  1  0  0  0  0  0  0  0  0  0
  191.5820  176.5650  145.2960 C   0  0  0  0  0  3  0  0  0  0  0  0
  188.9130  178.9160  147.7260 F   0  0  0  0  0  0  0  0  0  0  0  0
  188.3110  177.6730  147.5800 C   0  0  1  0  0  0  0  0  0  0  0  0
  191.7620  176.7820  146.7440 C   0  0  0  0  0  3  0  0  0  0  0  0
  190.7170  176.8480  147.5710 C   0  0  0  0  0  3  0  0  0  0  0  0
  189.2170  176.7140  145.6200 N   0  0  0  0  0  0  0  0  0  0  0  0
  189.3100  176.6470  147.0700 C   0  0  2  0  0  3  0  0  0  0  0  0
  186.2950  176.6830  146.7310 O   0  0  0  0  0  1  0  0  0  0  0  0
  190.3560  176.5530  144.7670 C   0  0  0  0  0  3  0  0  0  0  0  0
  188.0060  177.3890  145.1870 C   0  0  1  0  0  3  0  0  0  0  0  0
  187.2460  176.5610  144.1870 C   0  0  0  0  0  3  0  0  0  0  0  0
  187.8410  175.8820  143.3710 O   0  0  0  0  0  0  0  0  0  0  0  0
  190.2720  176.2380  138.7590 C   0  0  0  0  0  2  0  0  0  0  0  0
  191.6320  176.7170  138.3320 C   0  0  0  0  0  3  0  0  0  0  0  0
  192.2090  176.3690  137.1800 C   0  0  0  0  0  3  0  0  0  0  0  0
  191.5880  175.4650  136.1550 C   0  0  2  0  0  3  0  0  0  0  0  0
  192.2200  173.4960  134.8390 O   0  0  0  0  0  0  0  0  0  0  0  0
  192.3950  174.1620  136.0700 C   0  0  2  0  0  0  0  0  0  0  0  0
  191.6720  172.8680  135.9860 C   0  0  0  0  0  2  0  0  0  0  0  0
  193.8350  174.1280  136.6340 C   0  0  0  0  0  2  0  0  0  0  0  0
  194.8340  173.2850  135.8290 C   0  0  0  0  0  2  0  0  0  0  0  0
  196.1580  174.8390  134.7220 C   0  0  0  0  0  1  0  0  0  0  0  0
  196.1830  173.8630  135.8020 N   0  0  0  0  0  0  0  0  0  0  0  0
  197.1380  172.8280  135.4040 C   0  0  0  0  0  2  0  0  0  0  0  0
  197.8110  173.3360  137.7710 C   0  0  0  0  0  1  0  0  0  0  0  0
  199.5000  172.6710  136.0920 C   0  0  0  0  0  1  0  0  0  0  0  0
  197.9050  171.0150  136.9490 C   0  0  0  0  0  1  0  0  0  0  0  0
  198.0800  172.4650  136.5540 C   0  0  0  0  0  0  0  0  0  0  0  0
  191.5290  176.1460  134.8610 N   0  0  0  0  0  2  0  0  0  0  0  0
  190.1880  176.1430  134.4520 N   0  0  0  0  0  2  0  0  0  0  0  0
  188.9740  177.9080  135.6600 C   0  0  0  0  0  2  0  0  0  0  0  0
  186.9970  176.6310  135.1220 C   0  0  2  0  0  3  0  0  0  0  0  0
  189.3650  176.4330  135.6220 C   0  0  1  0  0  3  0  0  0  0  0  0
  188.0730  175.6450  135.5340 C   0  0  0  0  0  2  0  0  0  0  0  0
  187.4630  177.9790  135.6230 C   0  0  0  0  0  2  0  0  0  0  0  0
  185.6270  176.2690  135.6870 C   0  0  0  0  0  3  0  0  0  0  0  0
  185.3560  177.0080  136.8450 O   0  0  0  0  0  1  0  0  0  0  0  0
  184.6140  176.4450  134.7450 O   0  0  0  0  0  1  0  0  0  0  0  0
  1  4  1  0  0  0  0
  2  6  1  0  0  0  0
  3  5  1  0  0  0  0
  3  2  2  0  0  0  0
  5  1  2  0  0  0  0
  6  4  2  0  0  0  0
  7  2  1  0  0  0  0
  8  7  1  0  0  0  0
  8  9  1  0  0  0  0
  9 10  1  0  0  0  0
 10 11  1  0  0  0  0
 11 12  1  0  0  0  0
 13 12  1  0  0  0  0
 13 14  1  0  0  0  0
 14 17  1  0  0  0  0
 14 15  1  1  0  0  0
 17 25  1  1  0  0  0
 17 20  1  0  0  0  0
 18 21  1  0  0  0  0
 20 19  1  1  0  0  0
 20 16  1  0  0  0  0
 21 22  2  0  0  0  0
 23 24  1  0  0  0  0
 24 22  1  6  0  0  0
 24 20  1  0  0  0  0
 26 18  2  0  0  0  0
 26 23  1  0  0  0  0
 27 28  1  6  0  0  0
 27 23  1  0  0  0  0
 27 17  1  0  0  0  0
 29 28  2  0  0  0  0
 30  5  1  0  0  0  0
 31 30  1  0  0  0  0
 32 31  2  0  0  0  0
 33 32  1  1  0  0  0
 34 36  1  0  0  0  0
 34 35  1  0  0  0  0
 35 33  1  0  0  0  0
 35 37  1  1  0  0  0
 36 35  1  0  0  0  0
 38 37  1  0  0  0  0
 39 40  1  0  0  0  0
 40 38  1  0  0  0  0
 41 40  1  0  0  0  0
 41 45  1  0  0  0  0
 43 45  1  0  0  0  0
 45 44  1  0  0  0  0
 45 42  1  0  0  0  0
 46 33  1  0  0  0  0
 47 46  1  0  0  0  0
 49 51  1  0  0  0  0
 49 52  1  0  0  0  0
 49 53  1  1  0  0  0
 50 47  1  6  0  0  0
 50 48  1  0  0  0  0
 51 50  1  0  0  0  0
 52 48  1  0  0  0  0
 53 54  1  0  0  0  0
 55 53  1  0  0  0  0
M  END
>  <MODEL>
9

>  <REMARK>
 VINA RESULT:      -5.5      3.326      8.390
  Name = 
  23 active torsions:
  status: ('A' for Active; 'I' for Inactive)
    1  A    between atoms: C_1  and  C_53
    2  A    between atoms: C_2  and  C_28
    3  A    between atoms: C_2  and  C_44
    4  A    between atoms: C_6  and  C_20
    5  A    between atoms: C_7  and  C_20
    6  A    between atoms: C_7  and  C_22
    7  A    between atoms: C_8  and  C_22
    8  A    between atoms: C_8  and  C_35
    9  A    between atoms: C_10  and  C_32
   10  A    between atoms: C_16  and  C_17
   11  A    between atoms: C_16  and  C_26
   12  A    between atoms: C_17  and  C_33
   13  A    between atoms: C_19  and  C_40
   14  A    between atoms: C_19  and  N_45
   15  A    between atoms: C_26  and  N_45
   16  A    between atoms: C_27  and  O_54
   17  A    between atoms: C_33  and  N_36
   18  A    between atoms: C_33  and  C_49
   19  A    between atoms: C_34  and  N_52
   20  A    between atoms: C_35  and  C_43
   21  A    between atoms: N_36  and  N_52
   22  A    between atoms: C_43  and  C_51
   23  A    between atoms: C_51  and  O_54
                            x       y       z     vdW  Elec       q    Type
                         _______ _______ _______ _____ _____    ______ ____

>  <TORSDO>
F 23

$$$$
