=
 OpenBabel10272401003D

 27 31  0  0  1  0  0  0  0  0999 V2000
  185.2610  177.6150  143.1900 N   0  0  0  0  0  2  0  0  0  0  0  0
  183.1650  178.1080  142.2730 O   0  0  0  0  0  0  0  0  0  0  0  0
  189.0360  177.4940  142.9310 C   0  0  1  0  0  3  0  0  0  0  0  0
  188.0290  179.0170  141.1520 C   0  0  0  0  0  2  0  0  0  0  0  0
  185.2260  179.3700  141.1060 S   0  0  0  0  0  0  0  0  0  0  0  0
  189.1640  178.0300  141.4790 C   0  0  2  0  0  3  0  0  0  0  0  0
  184.4060  178.3090  142.2930 C   0  0  0  0  0  0  0  0  0  0  0  0
  186.6280  178.0060  142.9280 C   0  0  2  0  0  3  0  0  0  0  0  0
  186.6920  178.3560  141.4550 C   0  0  2  0  0  3  0  0  0  0  0  0
  187.6440  176.9180  143.2280 C   0  0  0  0  0  2  0  0  0  0  0  0
  190.1230  176.4950  143.3090 C   0  0  0  0  0  2  0  0  0  0  0  0
  191.0780  176.7740  147.4820 C   0  0  0  0  0  3  0  0  0  0  0  0
  190.4580  176.5950  144.7590 C   0  0  0  0  0  0  0  0  0  0  0  0
  191.6780  176.0970  145.2360 C   0  0  0  0  0  3  0  0  0  0  0  0
  191.9860  176.1870  146.5970 C   0  0  0  0  0  3  0  0  0  0  0  0
  189.8600  177.2710  147.0080 C   0  0  0  0  0  3  0  0  0  0  0  0
  189.5520  177.1820  145.6480 C   0  0  0  0  0  3  0  0  0  0  0  0
  189.1820  176.9070  140.4420 C   0  0  0  0  0  2  0  0  0  0  0  0
  190.5070  176.3810  138.3910 C   0  0  2  0  0  0  0  0  0  0  0  0
  188.8270  178.8260  137.1600 C   0  0  0  0  0  1  0  0  0  0  0  0
  187.7410  176.5960  137.5980 C   0  0  0  0  0  2  0  0  0  0  0  0
  191.5480  176.9620  137.6490 O   0  0  0  0  0  0  0  0  0  0  0  0
  191.9140  176.2370  138.8040 C   0  0  0  0  0  2  0  0  0  0  0  0
  188.4320  177.8160  138.2230 C   0  0  1  0  0  3  0  0  0  0  0  0
  188.7170  175.7520  136.7740 C   0  0  0  0  0  2  0  0  0  0  0  0
  189.8480  175.2250  137.6520 C   0  0  0  0  0  2  0  0  0  0  0  0
  189.6420  177.4290  139.0880 C   0  0  1  0  0  3  0  0  0  0  0  0
  2  7  2  0  0  0  0
  3 10  1  0  0  0  0
  3 11  1  6  0  0  0
  4  6  1  0  0  0  0
  5  9  1  0  0  0  0
  5  7  1  0  0  0  0
  6 18  1  6  0  0  0
  6  3  1  0  0  0  0
  7  1  1  0  0  0  0
  8  1  1  0  0  0  0
  8 10  1  6  0  0  0
  9  4  1  1  0  0  0
  9  8  1  0  0  0  0
 11 13  1  0  0  0  0
 13 14  2  0  0  0  0
 13 17  1  0  0  0  0
 14 15  1  0  0  0  0
 15 12  2  0  0  0  0
 16 12  1  0  0  0  0
 17 16  2  0  0  0  0
 19 26  1  6  0  0  0
 19 23  1  0  0  0  0
 19 27  1  0  0  0  0
 21 24  1  0  0  0  0
 22 19  1  0  0  0  0
 22 23  1  0  0  0  0
 24 20  1  6  0  0  0
 24 27  1  0  0  0  0
 25 21  1  0  0  0  0
 25 26  1  0  0  0  0
 27 18  1  1  0  0  0
M  END
>  <MODEL>
1

>  <REMARK>
 VINA RESULT:      -7.6      0.000      0.000
  Name = 
  4 active torsions:
  status: ('A' for Active; 'I' for Inactive)
    1  A    between atoms: C_2  and  C_6
    2  A    between atoms: C_2  and  C_9
    3  A    between atoms: C_3  and  C_14
    4  A    between atoms: C_3  and  C_26
                            x       y       z     vdW  Elec       q    Type
                         _______ _______ _______ _____ _____    ______ ____

>  <TORSDO>
F 4

$$$$
=
 OpenBabel10272401003D

 27 31  0  0  1  0  0  0  0  0999 V2000
  188.1420  178.7860  139.4880 N   0  0  0  0  0  2  0  0  0  0  0  0
  189.2900  178.9370  137.4540 O   0  0  0  0  0  0  0  0  0  0  0  0
  184.9400  178.3020  141.4480 C   0  0  1  0  0  3  0  0  0  0  0  0
  184.6840  177.5160  139.0360 C   0  0  0  0  0  2  0  0  0  0  0  0
  186.9180  177.6900  137.3150 S   0  0  0  0  0  0  0  0  0  0  0  0
  183.9730  178.1610  140.2400 C   0  0  2  0  0  3  0  0  0  0  0  0
  188.2950  178.5210  138.1010 C   0  0  0  0  0  0  0  0  0  0  0  0
  186.8770  178.2450  139.9300 C   0  0  2  0  0  3  0  0  0  0  0  0
  185.9530  178.2970  138.7300 C   0  0  2  0  0  3  0  0  0  0  0  0
  186.2490  179.0140  141.0780 C   0  0  0  0  0  2  0  0  0  0  0  0
  184.2980  178.9530  142.6670 C   0  0  0  0  0  2  0  0  0  0  0  0
  186.2910  177.7580  146.2740 C   0  0  0  0  0  3  0  0  0  0  0  0
  184.9940  178.5400  143.9200 C   0  0  0  0  0  0  0  0  0  0  0  0
  186.1390  177.7370  143.8570 C   0  0  0  0  0  3  0  0  0  0  0  0
  186.7860  177.3460  145.0340 C   0  0  0  0  0  3  0  0  0  0  0  0
  185.1480  178.5610  146.3390 C   0  0  0  0  0  3  0  0  0  0  0  0
  184.5010  178.9520  145.1630 C   0  0  0  0  0  3  0  0  0  0  0  0
  183.3670  179.5000  139.8190 C   0  0  0  0  0  2  0  0  0  0  0  0
  180.9070  179.0840  139.9430 C   0  0  2  0  0  0  0  0  0  0  0  0
  180.9880  180.0610  136.8860 C   0  0  0  0  0  1  0  0  0  0  0  0
  181.2800  181.6970  138.7790 C   0  0  0  0  0  2  0  0  0  0  0  0
  179.9820  178.1600  139.4320 O   0  0  0  0  0  0  0  0  0  0  0  0
  180.7170  177.7640  140.5710 C   0  0  0  0  0  2  0  0  0  0  0  0
  181.8620  180.4720  138.0590 C   0  0  1  0  0  3  0  0  0  0  0  0
  179.9820  181.3580  139.5160 C   0  0  0  0  0  2  0  0  0  0  0  0
  180.2270  180.2890  140.5760 C   0  0  0  0  0  2  0  0  0  0  0  0
  182.0970  179.2860  139.0080 C   0  0  1  0  0  3  0  0  0  0  0  0
  1  8  1  0  0  0  0
  2  7  2  0  0  0  0
  3 11  1  1  0  0  0
  4  6  1  0  0  0  0
  5  7  1  0  0  0  0
  5  9  1  0  0  0  0
  6 18  1  6  0  0  0
  6  3  1  0  0  0  0
  7  1  1  0  0  0  0
  8 10  1  1  0  0  0
  9  4  1  1  0  0  0
  9  8  1  0  0  0  0
 10  3  1  0  0  0  0
 11 13  1  0  0  0  0
 12 16  1  0  0  0  0
 13 17  1  0  0  0  0
 14 13  2  0  0  0  0
 14 15  1  0  0  0  0
 15 12  2  0  0  0  0
 17 16  2  0  0  0  0
 19 23  1  1  0  0  0
 19 26  1  0  0  0  0
 21 25  1  0  0  0  0
 22 19  1  0  0  0  0
 22 23  1  0  0  0  0
 24 20  1  6  0  0  0
 24 21  1  0  0  0  0
 24 27  1  0  0  0  0
 25 26  1  0  0  0  0
 27 18  1  1  0  0  0
 27 19  1  0  0  0  0
M  END
>  <MODEL>
2

>  <REMARK>
 VINA RESULT:      -7.2      3.695      7.066
  Name = 
  4 active torsions:
  status: ('A' for Active; 'I' for Inactive)
    1  A    between atoms: C_2  and  C_6
    2  A    between atoms: C_2  and  C_9
    3  A    between atoms: C_3  and  C_14
    4  A    between atoms: C_3  and  C_26
                            x       y       z     vdW  Elec       q    Type
                         _______ _______ _______ _____ _____    ______ ____

>  <TORSDO>
F 4

$$$$
=
 OpenBabel10272401003D

 27 31  0  0  1  0  0  0  0  0999 V2000
  186.4910  177.6450  143.9180 N   0  0  0  0  0  2  0  0  0  0  0  0
  184.2000  178.0340  143.6380 O   0  0  0  0  0  0  0  0  0  0  0  0
  190.0230  177.5850  142.5580 C   0  0  1  0  0  3  0  0  0  0  0  0
  188.4780  178.9690  141.0760 C   0  0  0  0  0  2  0  0  0  0  0  0
  185.7740  179.2610  141.8440 S   0  0  0  0  0  0  0  0  0  0  0  0
  189.6960  178.0290  141.1050 C   0  0  2  0  0  3  0  0  0  0  0  0
  185.3830  178.2620  143.2780 C   0  0  0  0  0  0  0  0  0  0  0  0
  187.7030  178.0460  143.2410 C   0  0  2  0  0  3  0  0  0  0  0  0
  187.3160  178.3010  141.7980 C   0  0  2  0  0  3  0  0  0  0  0  0
  188.8040  177.0010  143.2860 C   0  0  0  0  0  2  0  0  0  0  0  0
  191.2120  176.6360  142.6500 C   0  0  0  0  0  2  0  0  0  0  0  0
  192.0580  175.6480  146.7390 C   0  0  0  0  0  3  0  0  0  0  0  0
  191.5100  176.2930  144.0710 C   0  0  0  0  0  0  0  0  0  0  0  0
  191.9860  175.0180  144.4020 C   0  0  0  0  0  3  0  0  0  0  0  0
  192.2590  174.6970  145.7350 C   0  0  0  0  0  3  0  0  0  0  0  0
  191.5840  176.9220  146.4100 C   0  0  0  0  0  3  0  0  0  0  0  0
  191.3110  177.2430  145.0780 C   0  0  0  0  0  3  0  0  0  0  0  0
  189.4510  176.8420  140.1740 C   0  0  0  0  0  2  0  0  0  0  0  0
  190.8140  176.1940  138.1840 C   0  0  2  0  0  0  0  0  0  0  0  0
  188.7620  178.1250  136.6440 C   0  0  0  0  0  1  0  0  0  0  0  0
  188.0380  175.8590  137.4720 C   0  0  0  0  0  2  0  0  0  0  0  0
  191.7430  176.7950  137.3200 O   0  0  0  0  0  0  0  0  0  0  0  0
  192.2320  176.3310  138.5610 C   0  0  0  0  0  2  0  0  0  0  0  0
  188.5410  177.2540  137.8690 C   0  0  1  0  0  3  0  0  0  0  0  0
  189.1220  175.0480  136.7570 C   0  0  0  0  0  2  0  0  0  0  0  0
  190.3320  174.8470  137.6640 C   0  0  0  0  0  2  0  0  0  0  0  0
  189.8080  177.2000  138.7380 C   0  0  1  0  0  3  0  0  0  0  0  0
  3 11  1  6  0  0  0
  3 10  1  0  0  0  0
  4  6  1  0  0  0  0
  5  7  1  0  0  0  0
  6 18  1  6  0  0  0
  6  3  1  0  0  0  0
  7  2  2  0  0  0  0
  7  1  1  0  0  0  0
  8 10  1  6  0  0  0
  8  1  1  0  0  0  0
  9  4  1  1  0  0  0
  9  5  1  0  0  0  0
  9  8  1  0  0  0  0
 11 13  1  0  0  0  0
 13 14  2  0  0  0  0
 13 17  1  0  0  0  0
 14 15  1  0  0  0  0
 15 12  2  0  0  0  0
 16 12  1  0  0  0  0
 17 16  2  0  0  0  0
 19 26  1  6  0  0  0
 19 23  1  0  0  0  0
 19 27  1  0  0  0  0
 21 24  1  0  0  0  0
 22 19  1  0  0  0  0
 22 23  1  0  0  0  0
 24 20  1  6  0  0  0
 24 27  1  0  0  0  0
 25 21  1  0  0  0  0
 25 26  1  0  0  0  0
 27 18  1  1  0  0  0
M  END
>  <MODEL>
3

>  <REMARK>
 VINA RESULT:      -7.2      1.028      1.128
  Name = 
  4 active torsions:
  status: ('A' for Active; 'I' for Inactive)
    1  A    between atoms: C_2  and  C_6
    2  A    between atoms: C_2  and  C_9
    3  A    between atoms: C_3  and  C_14
    4  A    between atoms: C_3  and  C_26
                            x       y       z     vdW  Elec       q    Type
                         _______ _______ _______ _____ _____    ______ ____

>  <TORSDO>
F 4

$$$$
=
 OpenBabel10272401003D

 27 31  0  0  1  0  0  0  0  0999 V2000
  188.1750  178.6280  139.1990 N   0  0  0  0  0  2  0  0  0  0  0  0
  189.4850  178.7650  137.2640 O   0  0  0  0  0  0  0  0  0  0  0  0
  184.8090  178.2640  140.8910 C   0  0  1  0  0  3  0  0  0  0  0  0
  184.7050  177.5460  138.4470 C   0  0  0  0  0  2  0  0  0  0  0  0
  187.0730  177.6450  136.9090 S   0  0  0  0  0  0  0  0  0  0  0  0
  183.9340  178.2000  139.6090 C   0  0  2  0  0  3  0  0  0  0  0  0
  188.4230  178.3860  137.8210 C   0  0  0  0  0  0  0  0  0  0  0  0
  186.8540  178.1420  139.5270 C   0  0  2  0  0  3  0  0  0  0  0  0
  186.0310  178.2690  138.2610 C   0  0  2  0  0  3  0  0  0  0  0  0
  186.1760  178.9160  140.6430 C   0  0  0  0  0  2  0  0  0  0  0  0
  184.1060  178.9200  142.0740 C   0  0  0  0  0  2  0  0  0  0  0  0
  186.0730  177.9480  145.7610 C   0  0  0  0  0  3  0  0  0  0  0  0
  184.7930  178.5840  143.3550 C   0  0  0  0  0  0  0  0  0  0  0  0
  185.9290  177.7640  143.3510 C   0  0  0  0  0  3  0  0  0  0  0  0
  186.5670  177.4460  144.5540 C   0  0  0  0  0  3  0  0  0  0  0  0
  184.9400  178.7670  145.7670 C   0  0  0  0  0  3  0  0  0  0  0  0
  184.3020  179.0850  144.5650 C   0  0  0  0  0  3  0  0  0  0  0  0
  183.4300  179.5770  139.1790 C   0  0  0  0  0  2  0  0  0  0  0  0
  181.2900  180.5360  138.3160 C   0  0  2  0  0  0  0  0  0  0  0  0
  179.9830  178.3760  140.3000 C   0  0  0  0  0  1  0  0  0  0  0  0
  181.0760  177.6640  138.1450 C   0  0  0  0  0  2  0  0  0  0  0  0
  180.2440  181.3400  138.7960 O   0  0  0  0  0  0  0  0  0  0  0  0
  181.4160  182.0030  138.3710 C   0  0  0  0  0  2  0  0  0  0  0  0
  181.2850  178.3140  139.5210 C   0  0  1  0  0  3  0  0  0  0  0  0
  180.2490  178.5560  137.2160 C   0  0  0  0  0  2  0  0  0  0  0  0
  180.9540  179.8880  136.9800 C   0  0  0  0  0  2  0  0  0  0  0  0
  181.9330  179.7040  139.4240 C   0  0  1  0  0  3  0  0  0  0  0  0
  1  8  1  0  0  0  0
  2  7  2  0  0  0  0
  3 11  1  1  0  0  0
  4  6  1  0  0  0  0
  5  7  1  0  0  0  0
  5  9  1  0  0  0  0
  6 18  1  6  0  0  0
  6  3  1  0  0  0  0
  7  1  1  0  0  0  0
  8 10  1  1  0  0  0
  9  4  1  1  0  0  0
  9  8  1  0  0  0  0
 10  3  1  0  0  0  0
 11 13  1  0  0  0  0
 12 16  1  0  0  0  0
 13 17  1  0  0  0  0
 14 13  2  0  0  0  0
 14 15  1  0  0  0  0
 15 12  2  0  0  0  0
 17 16  2  0  0  0  0
 19 26  1  6  0  0  0
 19 23  1  0  0  0  0
 19 22  1  0  0  0  0
 19 27  1  0  0  0  0
 21 24  1  0  0  0  0
 23 22  1  0  0  0  0
 24 20  1  6  0  0  0
 25 21  1  0  0  0  0
 26 25  1  0  0  0  0
 27 18  1  6  0  0  0
 27 24  1  0  0  0  0
M  END
>  <MODEL>
4

>  <REMARK>
 VINA RESULT:      -7.0      3.867      7.136
  Name = 
  4 active torsions:
  status: ('A' for Active; 'I' for Inactive)
    1  A    between atoms: C_2  and  C_6
    2  A    between atoms: C_2  and  C_9
    3  A    between atoms: C_3  and  C_14
    4  A    between atoms: C_3  and  C_26
                            x       y       z     vdW  Elec       q    Type
                         _______ _______ _______ _____ _____    ______ ____

>  <TORSDO>
F 4

$$$$
=
 OpenBabel10272401003D

 27 31  0  0  1  0  0  0  0  0999 V2000
  181.5970  176.7210  140.2950 N   0  0  0  0  0  2  0  0  0  0  0  0
  179.9890  175.5490  139.0630 O   0  0  0  0  0  0  0  0  0  0  0  0
  184.7380  178.8270  140.4700 C   0  0  1  0  0  3  0  0  0  0  0  0
  183.7540  178.8160  138.1180 C   0  0  0  0  0  2  0  0  0  0  0  0
  181.3670  177.3750  137.6600 S   0  0  0  0  0  0  0  0  0  0  0  0
  185.0490  178.8670  138.9490 C   0  0  2  0  0  3  0  0  0  0  0  0
  180.8640  176.4520  139.1090 C   0  0  0  0  0  0  0  0  0  0  0  0
  182.5680  177.7550  140.0180 C   0  0  2  0  0  3  0  0  0  0  0  0
  182.9310  177.6120  138.5530 C   0  0  2  0  0  3  0  0  0  0  0  0
  183.8290  177.6520  140.8570 C   0  0  0  0  0  2  0  0  0  0  0  0
  185.9840  178.8570  141.3460 C   0  0  0  0  0  2  0  0  0  0  0  0
  184.9580  178.5080  145.4980 C   0  0  0  0  0  3  0  0  0  0  0  0
  185.6240  178.7340  142.7890 C   0  0  0  0  0  0  0  0  0  0  0  0
  184.5430  179.4570  143.3090 C   0  0  0  0  0  3  0  0  0  0  0  0
  184.2120  179.3440  144.6630 C   0  0  0  0  0  3  0  0  0  0  0  0
  186.0370  177.7850  144.9810 C   0  0  0  0  0  3  0  0  0  0  0  0
  186.3680  177.8980  143.6280 C   0  0  0  0  0  3  0  0  0  0  0  0
  185.9810  177.7360  138.5150 C   0  0  0  0  0  2  0  0  0  0  0  0
  188.3220  177.8880  137.6550 C   0  0  2  0  0  0  0  0  0  0  0  0
  186.8390  178.2620  134.8320 C   0  0  0  0  0  1  0  0  0  0  0  0
  186.9060  176.0180  135.9740 C   0  0  0  0  0  2  0  0  0  0  0  0
  189.1750  178.8720  137.1310 O   0  0  0  0  0  0  0  0  0  0  0  0
  189.0530  178.8150  138.5370 C   0  0  0  0  0  2  0  0  0  0  0  0
  186.4110  177.4690  136.0540 C   0  0  1  0  0  3  0  0  0  0  0  0
  188.4280  175.9300  136.1150 C   0  0  0  0  0  2  0  0  0  0  0  0
  188.8770  176.4830  137.4640 C   0  0  0  0  0  2  0  0  0  0  0  0
  186.8540  178.1730  137.3470 C   0  0  1  0  0  3  0  0  0  0  0  0
  2  7  2  0  0  0  0
  3 10  1  0  0  0  0
  3 11  1  1  0  0  0
  4  6  1  0  0  0  0
  5  9  1  0  0  0  0
  5  7  1  0  0  0  0
  6 18  1  6  0  0  0
  6  3  1  0  0  0  0
  7  1  1  0  0  0  0
  8  1  1  0  0  0  0
  8 10  1  1  0  0  0
  9  4  1  6  0  0  0
  9  8  1  0  0  0  0
 11 13  1  0  0  0  0
 13 14  2  0  0  0  0
 13 17  1  0  0  0  0
 14 15  1  0  0  0  0
 15 12  2  0  0  0  0
 16 12  1  0  0  0  0
 17 16  2  0  0  0  0
 19 26  1  6  0  0  0
 19 23  1  0  0  0  0
 21 24  1  0  0  0  0
 21 25  1  0  0  0  0
 22 19  1  0  0  0  0
 22 23  1  0  0  0  0
 24 20  1  6  0  0  0
 24 27  1  0  0  0  0
 25 26  1  0  0  0  0
 27 19  1  0  0  0  0
 27 18  1  1  0  0  0
M  END
>  <MODEL>
5

>  <REMARK>
 VINA RESULT:      -6.8      3.459      4.765
  Name = 
  4 active torsions:
  status: ('A' for Active; 'I' for Inactive)
    1  A    between atoms: C_2  and  C_6
    2  A    between atoms: C_2  and  C_9
    3  A    between atoms: C_3  and  C_14
    4  A    between atoms: C_3  and  C_26
                            x       y       z     vdW  Elec       q    Type
                         _______ _______ _______ _____ _____    ______ ____

>  <TORSDO>
F 4

$$$$
=
 OpenBabel10272401003D

 27 31  0  0  1  0  0  0  0  0999 V2000
  185.3030  179.8370  145.8290 N   0  0  0  0  0  2  0  0  0  0  0  0
  185.9740  179.9710  148.0670 O   0  0  0  0  0  0  0  0  0  0  0  0
  185.5930  178.3110  142.3770 C   0  0  1  0  0  3  0  0  0  0  0  0
  186.6920  176.8370  144.1430 C   0  0  0  0  0  2  0  0  0  0  0  0
  186.6030  177.6670  146.8420 S   0  0  0  0  0  0  0  0  0  0  0  0
  186.7490  177.3200  142.6820 C   0  0  2  0  0  3  0  0  0  0  0  0
  185.8840  179.2980  147.0080 C   0  0  0  0  0  0  0  0  0  0  0  0
  185.4060  178.8590  144.7700 C   0  0  2  0  0  3  0  0  0  0  0  0
  186.6500  178.0460  145.0660 C   0  0  2  0  0  3  0  0  0  0  0  0
  185.5250  179.4680  143.3840 C   0  0  0  0  0  2  0  0  0  0  0  0
  185.6060  178.8400  140.9480 C   0  0  0  0  0  2  0  0  0  0  0  0
  181.6540  178.8340  139.2800 C   0  0  0  0  0  3  0  0  0  0  0  0
  184.2340  178.8360  140.3650 C   0  0  0  0  0  0  0  0  0  0  0  0
  183.9490  179.6040  139.2290 C   0  0  0  0  0  3  0  0  0  0  0  0
  182.6590  179.6030  138.6880 C   0  0  0  0  0  3  0  0  0  0  0  0
  181.9360  178.0650  140.4130 C   0  0  0  0  0  3  0  0  0  0  0  0
  183.2250  178.0660  140.9540 C   0  0  0  0  0  3  0  0  0  0  0  0
  188.1240  177.9230  142.3950 C   0  0  0  0  0  2  0  0  0  0  0  0
  190.0820  177.2360  141.0040 C   0  0  2  0  0  0  0  0  0  0  0  0
  190.5360  175.1340  143.3890 C   0  0  0  0  0  1  0  0  0  0  0  0
  191.0270  177.5850  143.7080 C   0  0  0  0  0  2  0  0  0  0  0  0
  190.4610  176.1410  140.2120 O   0  0  0  0  0  0  0  0  0  0  0  0
  189.6050  177.0940  139.6170 C   0  0  0  0  0  2  0  0  0  0  0  0
  189.9440  176.5320  143.4280 C   0  0  1  0  0  3  0  0  0  0  0  0
  191.9910  177.7330  142.5280 C   0  0  0  0  0  2  0  0  0  0  0  0
  191.2450  178.1810  141.2750 C   0  0  0  0  0  2  0  0  0  0  0  0
  189.1520  176.8280  142.1440 C   0  0  1  0  0  3  0  0  0  0  0  0
  1  7  1  0  0  0  0
  3 11  1  6  0  0  0
  3  6  1  0  0  0  0
  3 10  1  0  0  0  0
  5  7  1  0  0  0  0
  6 18  1  1  0  0  0
  6  4  1  0  0  0  0
  7  2  2  0  0  0  0
  8 10  1  6  0  0  0
  8  9  1  0  0  0  0
  8  1  1  0  0  0  0
  9  4  1  6  0  0  0
  9  5  1  0  0  0  0
 12 16  1  0  0  0  0
 13 11  1  0  0  0  0
 13 17  1  0  0  0  0
 14 13  2  0  0  0  0
 15 14  1  0  0  0  0
 15 12  2  0  0  0  0
 16 17  2  0  0  0  0
 19 23  1  6  0  0  0
 19 26  1  0  0  0  0
 19 27  1  0  0  0  0
 22 19  1  0  0  0  0
 23 22  1  0  0  0  0
 24 20  1  6  0  0  0
 24 21  1  0  0  0  0
 25 21  1  0  0  0  0
 26 25  1  0  0  0  0
 27 18  1  1  0  0  0
 27 24  1  0  0  0  0
M  END
>  <MODEL>
6

>  <REMARK>
 VINA RESULT:      -6.8      2.868      6.457
  Name = 
  4 active torsions:
  status: ('A' for Active; 'I' for Inactive)
    1  A    between atoms: C_2  and  C_6
    2  A    between atoms: C_2  and  C_9
    3  A    between atoms: C_3  and  C_14
    4  A    between atoms: C_3  and  C_26
                            x       y       z     vdW  Elec       q    Type
                         _______ _______ _______ _____ _____    ______ ____

>  <TORSDO>
F 4

$$$$
=
 OpenBabel10272401003D

 27 31  0  0  1  0  0  0  0  0999 V2000
  194.3800  176.0330  137.2730 N   0  0  0  0  0  2  0  0  0  0  0  0
  195.6240  175.2710  135.4440 O   0  0  0  0  0  0  0  0  0  0  0  0
  191.0940  176.3820  139.1200 C   0  0  1  0  0  3  0  0  0  0  0  0
  190.9740  174.5590  137.3420 C   0  0  0  0  0  2  0  0  0  0  0  0
  193.2870  174.0070  135.8150 S   0  0  0  0  0  0  0  0  0  0  0  0
  190.1920  175.6590  138.0820 C   0  0  2  0  0  3  0  0  0  0  0  0
  194.6060  175.1620  136.1740 C   0  0  0  0  0  0  0  0  0  0  0  0
  193.1050  175.7060  137.8710 C   0  0  2  0  0  3  0  0  0  0  0  0
  192.2410  175.1610  136.7520 C   0  0  2  0  0  3  0  0  0  0  0  0
  192.4050  176.8940  138.5080 C   0  0  0  0  0  2  0  0  0  0  0  0
  190.3790  177.4970  139.8740 C   0  0  0  0  0  2  0  0  0  0  0  0
  190.3280  176.6960  144.0890 C   0  0  0  0  0  3  0  0  0  0  0  0
  190.3620  177.2220  141.3400 C   0  0  0  0  0  0  0  0  0  0  0  0
  191.5380  177.3410  142.0930 C   0  0  0  0  0  3  0  0  0  0  0  0
  191.5190  177.0770  143.4660 C   0  0  0  0  0  3  0  0  0  0  0  0
  189.1530  176.5780  143.3400 C   0  0  0  0  0  3  0  0  0  0  0  0
  189.1710  176.8410  141.9680 C   0  0  0  0  0  3  0  0  0  0  0  0
  189.5810  176.6260  137.0680 C   0  0  0  0  0  2  0  0  0  0  0  0
  187.2670  177.5680  137.0610 C   0  0  2  0  0  0  0  0  0  0  0  0
  186.6180  174.9150  135.3720 C   0  0  0  0  0  1  0  0  0  0  0  0
  187.9020  176.8250  134.3460 C   0  0  0  0  0  2  0  0  0  0  0  0
  186.0260  177.2780  137.6480 O   0  0  0  0  0  0  0  0  0  0  0  0
  186.9590  177.9800  138.4420 C   0  0  0  0  0  2  0  0  0  0  0  0
  187.8930  175.7380  135.4320 C   0  0  1  0  0  3  0  0  0  0  0  0
  186.8640  177.9140  134.6260 C   0  0  0  0  0  2  0  0  0  0  0  0
  187.1530  178.6060  135.9540 C   0  0  0  0  0  2  0  0  0  0  0  0
  188.1090  176.3120  136.8420 C   0  0  1  0  0  3  0  0  0  0  0  0
  1  8  1  0  0  0  0
  2  7  2  0  0  0  0
  3 11  1  6  0  0  0
  4  6  1  0  0  0  0
  5  7  1  0  0  0  0
  5  9  1  0  0  0  0
  6 18  1  6  0  0  0
  6  3  1  0  0  0  0
  7  1  1  0  0  0  0
  8 10  1  6  0  0  0
  9  4  1  1  0  0  0
  9  8  1  0  0  0  0
 10  3  1  0  0  0  0
 11 13  1  0  0  0  0
 13 17  2  0  0  0  0
 13 14  1  0  0  0  0
 14 15  2  0  0  0  0
 15 12  1  0  0  0  0
 16 12  2  0  0  0  0
 17 16  1  0  0  0  0
 19 26  1  6  0  0  0
 19 22  1  0  0  0  0
 19 23  1  0  0  0  0
 21 25  1  0  0  0  0
 21 24  1  0  0  0  0
 22 23  1  0  0  0  0
 24 20  1  1  0  0  0
 24 27  1  0  0  0  0
 25 26  1  0  0  0  0
 27 19  1  0  0  0  0
 27 18  1  6  0  0  0
M  END
>  <MODEL>
7

>  <REMARK>
 VINA RESULT:      -6.7      3.844      6.459
  Name = 
  4 active torsions:
  status: ('A' for Active; 'I' for Inactive)
    1  A    between atoms: C_2  and  C_6
    2  A    between atoms: C_2  and  C_9
    3  A    between atoms: C_3  and  C_14
    4  A    between atoms: C_3  and  C_26
                            x       y       z     vdW  Elec       q    Type
                         _______ _______ _______ _____ _____    ______ ____

>  <TORSDO>
F 4

$$$$
=
 OpenBabel10272401003D

 27 31  0  0  1  0  0  0  0  0999 V2000
  186.7720  178.8270  147.5860 N   0  0  0  0  0  2  0  0  0  0  0  0
  188.2730  178.4680  149.3450 O   0  0  0  0  0  0  0  0  0  0  0  0
  185.6030  178.1530  144.0490 C   0  0  1  0  0  3  0  0  0  0  0  0
  187.2270  176.3590  144.8510 C   0  0  0  0  0  2  0  0  0  0  0  0
  188.2480  176.5390  147.4800 S   0  0  0  0  0  0  0  0  0  0  0  0
  186.7320  177.1680  143.6390 C   0  0  2  0  0  3  0  0  0  0  0  0
  187.7390  178.0550  148.2840 C   0  0  0  0  0  0  0  0  0  0  0  0
  186.3990  178.1250  146.3790 C   0  0  2  0  0  3  0  0  0  0  0  0
  187.6140  177.3190  145.9660 C   0  0  2  0  0  3  0  0  0  0  0  0
  185.9970  179.0420  145.2370 C   0  0  0  0  0  2  0  0  0  0  0  0
  185.0830  178.9980  142.8930 C   0  0  0  0  0  2  0  0  0  0  0  0
  180.8390  178.5520  142.4480 C   0  0  0  0  0  3  0  0  0  0  0  0
  183.6080  178.8390  142.7370 C   0  0  0  0  0  0  0  0  0  0  0  0
  183.0550  178.6010  141.4730 C   0  0  0  0  0  3  0  0  0  0  0  0
  181.6710  178.4580  141.3290 C   0  0  0  0  0  3  0  0  0  0  0  0
  181.3890  178.7890  143.7110 C   0  0  0  0  0  3  0  0  0  0  0  0
  182.7720  178.9310  143.8550 C   0  0  0  0  0  3  0  0  0  0  0  0
  187.9130  177.8790  142.9800 C   0  0  0  0  0  2  0  0  0  0  0  0
  189.7450  177.4690  141.3310 C   0  0  2  0  0  0  0  0  0  0  0  0
  190.4860  175.0810  143.3460 C   0  0  0  0  0  1  0  0  0  0  0  0
  190.9380  177.4820  143.9590 C   0  0  0  0  0  2  0  0  0  0  0  0
  190.0750  176.5090  140.3620 O   0  0  0  0  0  0  0  0  0  0  0  0
  189.1390  177.4980  139.9880 C   0  0  0  0  0  2  0  0  0  0  0  0
  189.8620  176.4350  143.6350 C   0  0  1  0  0  3  0  0  0  0  0  0
  191.7790  177.8290  142.7270 C   0  0  0  0  0  2  0  0  0  0  0  0
  190.9020  178.4140  141.6230 C   0  0  0  0  0  2  0  0  0  0  0  0
  188.9420  176.8710  142.4840 C   0  0  1  0  0  3  0  0  0  0  0  0
  1  7  1  0  0  0  0
  3 11  1  6  0  0  0
  3 10  1  0  0  0  0
  5  7  1  0  0  0  0
  6 18  1  1  0  0  0
  6  3  1  0  0  0  0
  6  4  1  0  0  0  0
  7  2  2  0  0  0  0
  8 10  1  6  0  0  0
  8  1  1  0  0  0  0
  9  4  1  6  0  0  0
  9  8  1  0  0  0  0
  9  5  1  0  0  0  0
 12 16  1  0  0  0  0
 13 11  1  0  0  0  0
 13 17  1  0  0  0  0
 14 13  2  0  0  0  0
 15 14  1  0  0  0  0
 15 12  2  0  0  0  0
 16 17  2  0  0  0  0
 19 23  1  6  0  0  0
 19 26  1  0  0  0  0
 19 27  1  0  0  0  0
 22 19  1  0  0  0  0
 23 22  1  0  0  0  0
 24 20  1  6  0  0  0
 24 21  1  0  0  0  0
 25 21  1  0  0  0  0
 26 25  1  0  0  0  0
 27 18  1  1  0  0  0
 27 24  1  0  0  0  0
M  END
>  <MODEL>
8

>  <REMARK>
 VINA RESULT:      -6.7      3.111      6.545
  Name = 
  4 active torsions:
  status: ('A' for Active; 'I' for Inactive)
    1  A    between atoms: C_2  and  C_6
    2  A    between atoms: C_2  and  C_9
    3  A    between atoms: C_3  and  C_14
    4  A    between atoms: C_3  and  C_26
                            x       y       z     vdW  Elec       q    Type
                         _______ _______ _______ _____ _____    ______ ____

>  <TORSDO>
F 4

$$$$
=
 OpenBabel10272401003D

 27 31  0  0  1  0  0  0  0  0999 V2000
  186.3610  178.1270  139.3890 N   0  0  0  0  0  2  0  0  0  0  0  0
  184.6150  178.2570  137.8370 O   0  0  0  0  0  0  0  0  0  0  0  0
  190.0300  177.6700  140.2060 C   0  0  1  0  0  3  0  0  0  0  0  0
  189.6870  178.2380  137.7440 C   0  0  0  0  0  2  0  0  0  0  0  0
  187.0580  178.6970  136.8170 S   0  0  0  0  0  0  0  0  0  0  0  0
  190.5420  177.4530  138.7560 C   0  0  2  0  0  3  0  0  0  0  0  0
  185.8420  178.3690  138.0890 C   0  0  0  0  0  0  0  0  0  0  0  0
  187.8000  178.2660  139.3490 C   0  0  2  0  0  3  0  0  0  0  0  0
  188.2220  177.8780  137.9460 C   0  0  2  0  0  3  0  0  0  0  0  0
  188.5280  177.3860  140.3500 C   0  0  0  0  0  2  0  0  0  0  0  0
  190.8260  176.9020  141.2540 C   0  0  0  0  0  2  0  0  0  0  0  0
  189.6660  178.0500  145.2220 C   0  0  0  0  0  3  0  0  0  0  0  0
  190.4210  177.3050  142.6320 C   0  0  0  0  0  0  0  0  0  0  0  0
  190.9610  178.4580  143.2160 C   0  0  0  0  0  3  0  0  0  0  0  0
  190.5840  178.8290  144.5100 C   0  0  0  0  0  3  0  0  0  0  0  0
  189.1260  176.9000  144.6400 C   0  0  0  0  0  3  0  0  0  0  0  0
  189.5030  176.5280  143.3460 C   0  0  0  0  0  3  0  0  0  0  0  0
  190.5740  175.9770  138.3640 C   0  0  0  0  0  2  0  0  0  0  0  0
  192.3380  175.3130  136.7230 C   0  0  2  0  0  0  0  0  0  0  0  0
  189.8390  175.1210  134.7160 C   0  0  0  0  0  1  0  0  0  0  0  0
  190.1970  173.3900  136.5110 C   0  0  0  0  0  2  0  0  0  0  0  0
  192.9680  175.8630  135.5960 O   0  0  0  0  0  0  0  0  0  0  0  0
  193.4450  176.2750  136.8590 C   0  0  0  0  0  2  0  0  0  0  0  0
  189.9020  174.8670  136.2120 C   0  0  1  0  0  3  0  0  0  0  0  0
  191.6240  173.0050  136.1110 C   0  0  0  0  0  2  0  0  0  0  0  0
  192.6430  173.8310  136.8890 C   0  0  0  0  0  2  0  0  0  0  0  0
  190.9050  175.8170  136.8860 C   0  0  1  0  0  3  0  0  0  0  0  0
  2  7  2  0  0  0  0
  3 10  1  0  0  0  0
  3 11  1  1  0  0  0
  4  6  1  0  0  0  0
  5  9  1  0  0  0  0
  5  7  1  0  0  0  0
  6 18  1  6  0  0  0
  6  3  1  0  0  0  0
  7  1  1  0  0  0  0
  8  1  1  0  0  0  0
  8 10  1  1  0  0  0
  9  4  1  6  0  0  0
  9  8  1  0  0  0  0
 11 13  1  0  0  0  0
 13 14  2  0  0  0  0
 13 17  1  0  0  0  0
 14 15  1  0  0  0  0
 15 12  2  0  0  0  0
 16 12  1  0  0  0  0
 17 16  2  0  0  0  0
 19 23  1  1  0  0  0
 19 27  1  0  0  0  0
 19 26  1  0  0  0  0
 22 19  1  0  0  0  0
 22 23  1  0  0  0  0
 24 20  1  6  0  0  0
 24 21  1  0  0  0  0
 24 27  1  0  0  0  0
 25 21  1  0  0  0  0
 25 26  1  0  0  0  0
 27 18  1  1  0  0  0
M  END
>  <MODEL>
9

>  <REMARK>
 VINA RESULT:      -6.7      2.428      3.454
  Name = 
  4 active torsions:
  status: ('A' for Active; 'I' for Inactive)
    1  A    between atoms: C_2  and  C_6
    2  A    between atoms: C_2  and  C_9
    3  A    between atoms: C_3  and  C_14
    4  A    between atoms: C_3  and  C_26
                            x       y       z     vdW  Elec       q    Type
                         _______ _______ _______ _____ _____    ______ ____

>  <TORSDO>
F 4

$$$$
