=
 OpenBabel10272400293D

 31 35  0  0  1  0  0  0  0  0999 V2000
  182.6550  179.0530  139.4110 C   0  0  0  0  0  0  0  0  0  0  0  0
  186.3710  178.6540  139.9110 N   0  0  0  0  0  0  0  0  0  0  0  0
  187.1760  178.4980  138.7500 C   0  0  0  0  0  0  0  0  0  0  0  0
  187.6450  178.2250  136.4660 C   0  0  0  0  0  0  0  0  0  0  0  0
  184.9450  178.3740  140.0490 C   0  0  2  0  0  3  0  0  0  0  0  0
  182.1830  178.7370  140.6270 C   0  0  0  0  0  3  0  0  0  0  0  0
  186.7420  178.4560  137.4650 N   0  0  0  0  0  2  0  0  0  0  0  0
  186.8800  178.3200  142.2410 C   0  0  0  0  0  0  0  0  0  0  0  0
  181.7360  179.0460  138.2400 C   0  0  0  0  0  1  0  0  0  0  0  0
  189.7660  177.6530  141.2020 C   0  0  0  0  0  1  0  0  0  0  0  0
  187.2590  178.2000  135.2690 O   0  0  0  0  0  0  0  0  0  0  0  0
  185.4240  178.4350  142.4970 C   0  0  0  0  0  3  0  0  0  0  0  0
  187.3030  178.4390  140.9740 C   0  0  0  0  0  0  0  0  0  0  0  0
  184.1160  179.3390  139.2060 C   0  0  0  0  0  2  0  0  0  0  0  0
  189.0060  178.0050  136.7690 C   0  0  0  0  0  3  0  0  0  0  0  0
  184.5220  178.4920  141.5050 C   0  0  0  0  0  0  0  0  0  0  0  0
  183.0710  178.6900  141.8490 C   0  0  0  0  0  2  0  0  0  0  0  0
  188.6530  178.2730  140.5000 N   0  0  0  0  0  0  0  0  0  0  0  0
  188.4890  178.2880  139.0840 C   0  0  0  0  0  0  0  0  0  0  0  0
  189.4420  178.0250  138.1040 C   0  0  0  0  0  3  0  0  0  0  0  0
  187.8530  175.7870  143.3410 O   0  0  0  0  0  0  0  0  0  0  0  0
  188.2770  176.8660  143.8310 C   0  0  0  0  0  0  0  0  0  0  0  0
  187.8200  178.1220  143.3060 N   0  0  0  0  0  2  0  0  0  0  0  0
  191.2230  176.8100  146.9650 C   0  0  0  0  0  0  0  0  0  0  0  0
  190.5920  176.5580  144.6480 C   0  0  0  0  0  3  0  0  0  0  0  0
  187.2830  177.5430  146.8290 Cl  0  0  0  0  0  0  0  0  0  0  0  0
  192.1690  176.7860  147.9340 F   0  0  0  0  0  0  0  0  0  0  0  0
  191.5690  176.5330  145.6440 C   0  0  0  0  0  3  0  0  0  0  0  0
  188.9110  177.1440  146.2990 C   0  0  0  0  0  0  0  0  0  0  0  0
  189.2540  176.8610  144.9500 C   0  0  0  0  0  0  0  0  0  0  0  0
  189.9010  177.1140  147.2880 C   0  0  0  0  0  3  0  0  0  0  0  0
  1  6  2  0  0  0  0
  2  5  1  0  0  0  0
  2 13  1  0  0  0  0
  3 19  2  0  0  0  0
  3  2  1  0  0  0  0
  4 15  1  0  0  0  0
  4  7  1  0  0  0  0
  5 14  1  6  0  0  0
  5 16  1  0  0  0  0
  6 17  1  0  0  0  0
  7  3  1  0  0  0  0
  8 12  1  0  0  0  0
  8 23  1  0  0  0  0
  9  1  1  0  0  0  0
 11  4  2  0  0  0  0
 13  8  2  0  0  0  0
 14  1  1  0  0  0  0
 15 20  2  0  0  0  0
 16 17  1  0  0  0  0
 16 12  2  0  0  0  0
 18 13  1  0  0  0  0
 18 10  1  0  0  0  0
 19 18  1  0  0  0  0
 20 19  1  0  0  0  0
 21 22  2  0  0  0  0
 22 30  1  0  0  0  0
 23 22  1  0  0  0  0
 24 31  1  0  0  0  0
 24 27  1  0  0  0  0
 25 30  2  0  0  0  0
 25 28  1  0  0  0  0
 28 24  2  0  0  0  0
 29 26  1  0  0  0  0
 29 31  2  0  0  0  0
 30 29  1  0  0  0  0
M  END
>  <MODEL>
1

>  <REMARK>
 VINA RESULT:     -10.2      0.000      0.000
  Name = 
  2 active torsions:
  status: ('A' for Active; 'I' for Inactive)
    1  A    between atoms: C_9  and  C_22
    2  A    between atoms: C_15  and  N_23
                            x       y       z     vdW  Elec       q    Type
                         _______ _______ _______ _____ _____    ______ ____

>  <TORSDO>
F 2

$$$$
=
 OpenBabel10272400293D

 31 35  0  0  1  0  0  0  0  0999 V2000
  184.4680  178.6430  144.2470 C   0  0  0  0  0  0  0  0  0  0  0  0
  188.0230  177.3880  144.1660 N   0  0  0  0  0  0  0  0  0  0  0  0
  188.7210  177.3170  145.4010 C   0  0  0  0  0  0  0  0  0  0  0  0
  189.0790  177.6150  147.7020 C   0  0  0  0  0  0  0  0  0  0  0  0
  186.8710  178.2240  143.8420 C   0  0  2  0  0  3  0  0  0  0  0  0
  184.2750  178.9940  142.9660 C   0  0  0  0  0  3  0  0  0  0  0  0
  188.2470  177.6770  146.6210 N   0  0  0  0  0  2  0  0  0  0  0  0
  188.8090  177.2220  141.8960 C   0  0  0  0  0  0  0  0  0  0  0  0
  183.5510  179.1640  145.2990 C   0  0  0  0  0  1  0  0  0  0  0  0
  191.6100  176.7240  143.2240 C   0  0  0  0  0  1  0  0  0  0  0  0
  188.6480  177.9300  148.8410 O   0  0  0  0  0  0  0  0  0  0  0  0
  187.4700  177.7020  141.4770 C   0  0  0  0  0  3  0  0  0  0  0  0
  189.0380  177.0750  143.2090 C   0  0  0  0  0  0  0  0  0  0  0  0
  185.6440  177.7940  144.6420 C   0  0  0  0  0  2  0  0  0  0  0  0
  190.4230  177.2090  147.5490 C   0  0  0  0  0  3  0  0  0  0  0  0
  186.5550  178.1370  142.3580 C   0  0  0  0  0  0  0  0  0  0  0  0
  185.1910  178.5300  141.8570 C   0  0  0  0  0  2  0  0  0  0  0  0
  190.2860  176.7090  143.8280 N   0  0  0  0  0  0  0  0  0  0  0  0
  190.0200  176.9180  145.2120 C   0  0  0  0  0  0  0  0  0  0  0  0
  190.9120  176.8620  146.2790 C   0  0  0  0  0  3  0  0  0  0  0  0
  189.3100  178.4650  139.2920 O   0  0  0  0  0  0  0  0  0  0  0  0
  190.0450  177.5130  139.6640 C   0  0  0  0  0  0  0  0  0  0  0  0
  189.8250  176.8890  140.9390 N   0  0  0  0  0  2  0  0  0  0  0  0
  193.3470  176.1250  137.2830 C   0  0  0  0  0  0  0  0  0  0  0  0
  192.4470  177.0180  139.3370 C   0  0  0  0  0  3  0  0  0  0  0  0
  189.4040  176.5050  136.6640 Cl  0  0  0  0  0  0  0  0  0  0  0  0
  194.4040  175.6930  136.5530 F   0  0  0  0  0  0  0  0  0  0  0  0
  193.5370  176.5740  138.5880 C   0  0  0  0  0  3  0  0  0  0  0  0
  190.9660  176.5620  137.4690 C   0  0  0  0  0  0  0  0  0  0  0  0
  191.1500  177.0230  138.7990 C   0  0  0  0  0  0  0  0  0  0  0  0
  192.0680  176.1200  136.7280 C   0  0  0  0  0  3  0  0  0  0  0  0
  1 14  1  0  0  0  0
  1  9  1  0  0  0  0
  2  3  1  0  0  0  0
  3  7  1  0  0  0  0
  4 11  2  0  0  0  0
  5  2  1  0  0  0  0
  5 14  1  1  0  0  0
  6  1  2  0  0  0  0
  7  4  1  0  0  0  0
  8 13  2  0  0  0  0
 10 18  1  0  0  0  0
 12  8  1  0  0  0  0
 12 16  2  0  0  0  0
 13 18  1  0  0  0  0
 13  2  1  0  0  0  0
 15  4  1  0  0  0  0
 16  5  1  0  0  0  0
 17 16  1  0  0  0  0
 17  6  1  0  0  0  0
 18 19  1  0  0  0  0
 19  3  2  0  0  0  0
 19 20  1  0  0  0  0
 20 15  2  0  0  0  0
 21 22  2  0  0  0  0
 22 23  1  0  0  0  0
 23  8  1  0  0  0  0
 24 28  1  0  0  0  0
 26 29  1  0  0  0  0
 27 24  1  0  0  0  0
 28 25  2  0  0  0  0
 29 30  2  0  0  0  0
 30 25  1  0  0  0  0
 30 22  1  0  0  0  0
 31 24  2  0  0  0  0
 31 29  1  0  0  0  0
M  END
>  <MODEL>
2

>  <REMARK>
 VINA RESULT:     -10.0      3.781      7.246
  Name = 
  2 active torsions:
  status: ('A' for Active; 'I' for Inactive)
    1  A    between atoms: C_9  and  C_22
    2  A    between atoms: C_15  and  N_23
                            x       y       z     vdW  Elec       q    Type
                         _______ _______ _______ _____ _____    ______ ____

>  <TORSDO>
F 2

$$$$
=
 OpenBabel10272400293D

 31 35  0  0  1  0  0  0  0  0999 V2000
  187.0720  178.0460  136.3800 C   0  0  0  0  0  0  0  0  0  0  0  0
  189.5430  177.8020  139.2180 N   0  0  0  0  0  0  0  0  0  0  0  0
  190.8550  177.3540  138.9080 C   0  0  0  0  0  0  0  0  0  0  0  0
  192.5900  176.5020  137.5750 C   0  0  0  0  0  0  0  0  0  0  0  0
  188.3190  177.5620  138.4600 C   0  0  2  0  0  3  0  0  0  0  0  0
  185.9030  178.0520  137.0390 C   0  0  0  0  0  3  0  0  0  0  0  0
  191.3150  176.9800  137.6870 N   0  0  0  0  0  2  0  0  0  0  0  0
  188.4300  178.0810  141.3350 C   0  0  0  0  0  0  0  0  0  0  0  0
  187.0950  177.7330  134.9240 C   0  0  0  0  0  1  0  0  0  0  0  0
  191.1780  177.1780  142.5550 C   0  0  0  0  0  1  0  0  0  0  0  0
  193.0350  176.1680  136.4470 O   0  0  0  0  0  0  0  0  0  0  0  0
  187.1740  178.2540  140.5650 C   0  0  0  0  0  3  0  0  0  0  0  0
  189.5610  177.8710  140.6460 C   0  0  0  0  0  0  0  0  0  0  0  0
  188.3660  178.2740  137.1110 C   0  0  0  0  0  2  0  0  0  0  0  0
  193.4090  176.3720  138.7170 C   0  0  0  0  0  3  0  0  0  0  0  0
  187.1100  178.0500  139.2410 C   0  0  0  0  0  0  0  0  0  0  0  0
  185.8160  178.3260  138.5230 C   0  0  0  0  0  2  0  0  0  0  0  0
  190.8630  177.5930  141.1960 N   0  0  0  0  0  0  0  0  0  0  0  0
  191.6200  177.2420  140.0410 C   0  0  0  0  0  0  0  0  0  0  0  0
  192.9160  176.7380  139.9810 C   0  0  0  0  0  3  0  0  0  0  0  0
  187.6720  176.0290  143.2810 O   0  0  0  0  0  0  0  0  0  0  0  0
  188.0730  177.1470  143.7000 C   0  0  0  0  0  0  0  0  0  0  0  0
  188.4560  178.1690  142.7670 N   0  0  0  0  0  2  0  0  0  0  0  0
  188.4800  177.9010  147.9150 C   0  0  0  0  0  0  0  0  0  0  0  0
  189.3780  177.1560  145.8010 C   0  0  0  0  0  3  0  0  0  0  0  0
  185.5080  178.3380  145.2590 Cl  0  0  0  0  0  0  0  0  0  0  0  0
  188.6340  178.1290  149.2410 F   0  0  0  0  0  0  0  0  0  0  0  0
  189.5400  177.3900  147.1670 C   0  0  0  0  0  3  0  0  0  0  0  0
  187.0870  177.9470  145.9260 C   0  0  0  0  0  0  0  0  0  0  0  0
  188.1600  177.4260  145.1560 C   0  0  0  0  0  0  0  0  0  0  0  0
  187.2620  178.1770  147.2960 C   0  0  0  0  0  3  0  0  0  0  0  0
  1  6  2  0  0  0  0
  1 14  1  0  0  0  0
  2 13  1  0  0  0  0
  3  2  1  0  0  0  0
  3 19  2  0  0  0  0
  4  7  1  0  0  0  0
  4 15  1  0  0  0  0
  5 14  1  6  0  0  0
  5  2  1  0  0  0  0
  5 16  1  0  0  0  0
  6 17  1  0  0  0  0
  7  3  1  0  0  0  0
  8 23  1  0  0  0  0
  9  1  1  0  0  0  0
 11  4  2  0  0  0  0
 12  8  1  0  0  0  0
 13 18  1  0  0  0  0
 13  8  2  0  0  0  0
 15 20  2  0  0  0  0
 16 12  2  0  0  0  0
 17 16  1  0  0  0  0
 18 10  1  0  0  0  0
 19 18  1  0  0  0  0
 20 19  1  0  0  0  0
 21 22  2  0  0  0  0
 22 30  1  0  0  0  0
 23 22  1  0  0  0  0
 24 27  1  0  0  0  0
 25 28  1  0  0  0  0
 26 29  1  0  0  0  0
 28 24  2  0  0  0  0
 29 31  2  0  0  0  0
 30 25  2  0  0  0  0
 30 29  1  0  0  0  0
 31 24  1  0  0  0  0
M  END
>  <MODEL>
3

>  <REMARK>
 VINA RESULT:      -9.8      2.509      3.687
  Name = 
  2 active torsions:
  status: ('A' for Active; 'I' for Inactive)
    1  A    between atoms: C_9  and  C_22
    2  A    between atoms: C_15  and  N_23
                            x       y       z     vdW  Elec       q    Type
                         _______ _______ _______ _____ _____    ______ ____

>  <TORSDO>
F 2

$$$$
=
 OpenBabel10272400293D

 31 35  0  0  1  0  0  0  0  0999 V2000
  187.4580  178.2030  136.4970 C   0  0  0  0  0  0  0  0  0  0  0  0
  185.5770  178.3220  139.7630 N   0  0  0  0  0  0  0  0  0  0  0  0
  184.1770  178.5600  139.7050 C   0  0  0  0  0  0  0  0  0  0  0  0
  182.1090  179.0610  138.7130 C   0  0  0  0  0  0  0  0  0  0  0  0
  186.5800  178.6690  138.7610 C   0  0  2  0  0  3  0  0  0  0  0  0
  188.7210  178.4090  136.9050 C   0  0  0  0  0  3  0  0  0  0  0  0
  183.4380  178.7720  138.5860 N   0  0  0  0  0  2  0  0  0  0  0  0
  187.1080  178.3610  141.6210 C   0  0  0  0  0  0  0  0  0  0  0  0
  187.1070  178.3970  135.0630 C   0  0  0  0  0  1  0  0  0  0  0  0
  184.5450  178.9690  143.3290 C   0  0  0  0  0  1  0  0  0  0  0  0
  181.4090  179.2430  137.6840 O   0  0  0  0  0  0  0  0  0  0  0  0
  188.2030  178.3050  140.6210 C   0  0  0  0  0  3  0  0  0  0  0  0
  185.8470  178.3610  141.1670 C   0  0  0  0  0  0  0  0  0  0  0  0
  186.3800  177.8560  137.4850 C   0  0  0  0  0  2  0  0  0  0  0  0
  181.5170  179.1640  139.9900 C   0  0  0  0  0  3  0  0  0  0  0  0
  187.9780  178.4130  139.3030 C   0  0  0  0  0  0  0  0  0  0  0  0
  189.1340  178.2640  138.3510 C   0  0  0  0  0  2  0  0  0  0  0  0
  184.6500  178.4980  141.9560 N   0  0  0  0  0  0  0  0  0  0  0  0
  183.6390  178.6530  140.9630 C   0  0  0  0  0  0  0  0  0  0  0  0
  182.2950  178.9670  141.1430 C   0  0  0  0  0  3  0  0  0  0  0  0
  187.8620  176.1190  143.3460 O   0  0  0  0  0  0  0  0  0  0  0  0
  187.7380  177.2630  143.8550 C   0  0  0  0  0  0  0  0  0  0  0  0
  187.3740  178.3810  143.0300 N   0  0  0  0  0  2  0  0  0  0  0  0
  188.2450  177.9220  148.0750 C   0  0  0  0  0  0  0  0  0  0  0  0
  186.8620  177.8300  146.0980 C   0  0  0  0  0  3  0  0  0  0  0  0
  190.7070  176.9130  145.0760 Cl  0  0  0  0  0  0  0  0  0  0  0  0
  188.3780  178.1360  149.4060 F   0  0  0  0  0  0  0  0  0  0  0  0
  186.9960  178.0500  147.4700 C   0  0  0  0  0  3  0  0  0  0  0  0
  189.2360  177.3500  145.9330 C   0  0  0  0  0  0  0  0  0  0  0  0
  187.9680  177.4790  145.3070 C   0  0  0  0  0  0  0  0  0  0  0  0
  189.3570  177.5740  147.3100 C   0  0  0  0  0  3  0  0  0  0  0  0
  1  6  2  0  0  0  0
  1 14  1  0  0  0  0
  2 13  1  0  0  0  0
  3  2  1  0  0  0  0
  3 19  2  0  0  0  0
  4 15  1  0  0  0  0
  5 14  1  6  0  0  0
  5 16  1  0  0  0  0
  5  2  1  0  0  0  0
  6 17  1  0  0  0  0
  7  4  1  0  0  0  0
  7  3  1  0  0  0  0
  8 23  1  0  0  0  0
  9  1  1  0  0  0  0
 11  4  2  0  0  0  0
 12  8  1  0  0  0  0
 13  8  2  0  0  0  0
 13 18  1  0  0  0  0
 15 20  2  0  0  0  0
 16 12  2  0  0  0  0
 17 16  1  0  0  0  0
 18 10  1  0  0  0  0
 19 20  1  0  0  0  0
 19 18  1  0  0  0  0
 21 22  2  0  0  0  0
 22 30  1  0  0  0  0
 23 22  1  0  0  0  0
 24 27  1  0  0  0  0
 25 28  2  0  0  0  0
 26 29  1  0  0  0  0
 28 24  1  0  0  0  0
 29 31  1  0  0  0  0
 30 29  2  0  0  0  0
 30 25  1  0  0  0  0
 31 24  2  0  0  0  0
M  END
>  <MODEL>
4

>  <REMARK>
 VINA RESULT:      -9.6      2.016      4.487
  Name = 
  2 active torsions:
  status: ('A' for Active; 'I' for Inactive)
    1  A    between atoms: C_9  and  C_22
    2  A    between atoms: C_15  and  N_23
                            x       y       z     vdW  Elec       q    Type
                         _______ _______ _______ _____ _____    ______ ____

>  <TORSDO>
F 2

$$$$
=
 OpenBabel10272400293D

 31 35  0  0  1  0  0  0  0  0999 V2000
  192.4730  177.2680  140.7650 C   0  0  0  0  0  0  0  0  0  0  0  0
  189.9130  177.4650  143.5270 N   0  0  0  0  0  0  0  0  0  0  0  0
  190.3410  177.1360  144.8410 C   0  0  0  0  0  0  0  0  0  0  0  0
  191.8080  176.3820  146.5120 C   0  0  0  0  0  0  0  0  0  0  0  0
  190.5190  177.0510  142.2650 C   0  0  2  0  0  3  0  0  0  0  0  0
  191.6920  177.1960  139.6760 C   0  0  0  0  0  3  0  0  0  0  0  0
  191.5830  176.7330  145.2110 N   0  0  0  0  0  2  0  0  0  0  0  0
  187.7050  177.7650  142.6140 C   0  0  0  0  0  0  0  0  0  0  0  0
  193.9040  176.8650  140.6720 C   0  0  0  0  0  1  0  0  0  0  0  0
  186.7470  177.2310  145.5550 C   0  0  0  0  0  1  0  0  0  0  0  0
  192.9580  176.0230  146.8720 O   0  0  0  0  0  0  0  0  0  0  0  0
  188.3410  177.7570  141.2730 C   0  0  0  0  0  3  0  0  0  0  0  0
  188.5010  177.6280  143.6840 C   0  0  0  0  0  0  0  0  0  0  0  0
  191.9020  177.6750  142.0940 C   0  0  0  0  0  2  0  0  0  0  0  0
  190.7560  176.4120  147.4540 C   0  0  0  0  0  3  0  0  0  0  0  0
  189.6380  177.4620  141.0960 C   0  0  0  0  0  0  0  0  0  0  0  0
  190.2240  177.5550  139.7130 C   0  0  0  0  0  2  0  0  0  0  0  0
  188.0830  177.5230  145.0580 N   0  0  0  0  0  0  0  0  0  0  0  0
  189.2930  177.1770  145.7260 C   0  0  0  0  0  0  0  0  0  0  0  0
  189.4680  176.8060  147.0560 C   0  0  0  0  0  3  0  0  0  0  0  0
  185.9210  179.5010  141.0710 O   0  0  0  0  0  0  0  0  0  0  0  0
  185.4390  178.8110  142.0080 C   0  0  0  0  0  0  0  0  0  0  0  0
  186.2920  177.9470  142.7760 N   0  0  0  0  0  2  0  0  0  0  0  0
  181.2840  179.0080  143.1010 C   0  0  0  0  0  0  0  0  0  0  0  0
  183.6290  179.0450  143.6770 C   0  0  0  0  0  3  0  0  0  0  0  0
  183.2580  178.5560  139.6400 Cl  0  0  0  0  0  0  0  0  0  0  0  0
  179.9830  179.0720  143.4710 F   0  0  0  0  0  0  0  0  0  0  0  0
  182.2890  179.1120  144.0610 C   0  0  0  0  0  3  0  0  0  0  0  0
  182.9600  178.7690  141.3600 C   0  0  0  0  0  0  0  0  0  0  0  0
  183.9910  178.8730  142.3310 C   0  0  0  0  0  0  0  0  0  0  0  0
  181.6200  178.8370  141.7580 C   0  0  0  0  0  3  0  0  0  0  0  0
  1 14  1  0  0  0  0
  2 13  1  0  0  0  0
  2  3  1  0  0  0  0
  3  7  1  0  0  0  0
  3 19  2  0  0  0  0
  4 11  2  0  0  0  0
  4 15  1  0  0  0  0
  5 14  1  6  0  0  0
  5  2  1  0  0  0  0
  6 17  1  0  0  0  0
  6  1  2  0  0  0  0
  7  4  1  0  0  0  0
  8 23  1  0  0  0  0
  8 13  2  0  0  0  0
  9  1  1  0  0  0  0
 12  8  1  0  0  0  0
 13 18  1  0  0  0  0
 16 12  2  0  0  0  0
 16  5  1  0  0  0  0
 17 16  1  0  0  0  0
 18 10  1  0  0  0  0
 18 19  1  0  0  0  0
 19 20  1  0  0  0  0
 20 15  2  0  0  0  0
 21 22  2  0  0  0  0
 22 30  1  0  0  0  0
 22 23  1  0  0  0  0
 24 27  1  0  0  0  0
 24 28  1  0  0  0  0
 25 28  2  0  0  0  0
 26 29  1  0  0  0  0
 29 31  1  0  0  0  0
 29 30  2  0  0  0  0
 30 25  1  0  0  0  0
 31 24  2  0  0  0  0
M  END
>  <MODEL>
5

>  <REMARK>
 VINA RESULT:      -9.5      3.735      8.187
  Name = 
  2 active torsions:
  status: ('A' for Active; 'I' for Inactive)
    1  A    between atoms: C_9  and  C_22
    2  A    between atoms: C_15  and  N_23
                            x       y       z     vdW  Elec       q    Type
                         _______ _______ _______ _____ _____    ______ ____

>  <TORSDO>
F 2

$$$$
=
 OpenBabel10272400293D

 31 35  0  0  1  0  0  0  0  0999 V2000
  192.5290  176.1550  136.4360 C   0  0  0  0  0  0  0  0  0  0  0  0
  189.4240  177.0590  138.3760 N   0  0  0  0  0  0  0  0  0  0  0  0
  188.2640  177.4040  137.6320 C   0  0  0  0  0  0  0  0  0  0  0  0
  186.9830  177.8880  135.7240 C   0  0  0  0  0  0  0  0  0  0  0  0
  190.8140  177.1190  137.9350 C   0  0  2  0  0  3  0  0  0  0  0  0
  193.4850  176.3220  137.3630 C   0  0  0  0  0  3  0  0  0  0  0  0
  188.1570  177.4640  136.2810 N   0  0  0  0  0  2  0  0  0  0  0  0
  189.9330  177.3150  140.7160 C   0  0  0  0  0  0  0  0  0  0  0  0
  192.9010  176.1030  134.9950 C   0  0  0  0  0  1  0  0  0  0  0  0
  187.0170  178.4600  140.9130 C   0  0  0  0  0  1  0  0  0  0  0  0
  186.8650  177.9320  134.4730 O   0  0  0  0  0  0  0  0  0  0  0  0
  191.3340  176.9730  140.3700 C   0  0  0  0  0  3  0  0  0  0  0  0
  189.0320  177.3400  139.7230 C   0  0  0  0  0  0  0  0  0  0  0  0
  191.0790  176.0990  136.8310 C   0  0  0  0  0  2  0  0  0  0  0  0
  185.9040  178.2840  136.5450 C   0  0  0  0  0  3  0  0  0  0  0  0
  191.7510  176.8480  139.1010 C   0  0  0  0  0  0  0  0  0  0  0  0
  193.1690  176.4190  138.8380 C   0  0  0  0  0  2  0  0  0  0  0  0
  187.6500  177.7300  139.8260 N   0  0  0  0  0  0  0  0  0  0  0  0
  187.2390  177.7820  138.4620 C   0  0  0  0  0  0  0  0  0  0  0  0
  186.0320  178.2420  137.9430 C   0  0  0  0  0  3  0  0  0  0  0  0
  189.7540  175.4260  142.9460 O   0  0  0  0  0  0  0  0  0  0  0  0
  189.4480  176.6310  143.1430 C   0  0  0  0  0  0  0  0  0  0  0  0
  189.5320  177.5800  142.0680 N   0  0  0  0  0  2  0  0  0  0  0  0
  188.0050  177.9830  146.9630 C   0  0  0  0  0  0  0  0  0  0  0  0
  187.6420  177.4000  144.6480 C   0  0  0  0  0  3  0  0  0  0  0  0
  191.5930  176.8900  145.5440 Cl  0  0  0  0  0  0  0  0  0  0  0  0
  187.5260  178.4110  148.1550 F   0  0  0  0  0  0  0  0  0  0  0  0
  187.1450  177.8420  145.8750 C   0  0  0  0  0  3  0  0  0  0  0  0
  189.8700  177.2400  145.5960 C   0  0  0  0  0  0  0  0  0  0  0  0
  189.0020  177.0930  144.4830 C   0  0  0  0  0  0  0  0  0  0  0  0
  189.3600  177.6830  146.8220 C   0  0  0  0  0  3  0  0  0  0  0  0
  1 14  1  0  0  0  0
  1  6  2  0  0  0  0
  2 13  1  0  0  0  0
  3  2  1  0  0  0  0
  3 19  2  0  0  0  0
  4  7  1  0  0  0  0
  4 15  1  0  0  0  0
  5 14  1  6  0  0  0
  5  2  1  0  0  0  0
  5 16  1  0  0  0  0
  6 17  1  0  0  0  0
  7  3  1  0  0  0  0
  8 23  1  0  0  0  0
  9  1  1  0  0  0  0
 11  4  2  0  0  0  0
 12  8  1  0  0  0  0
 13 18  1  0  0  0  0
 13  8  2  0  0  0  0
 15 20  2  0  0  0  0
 16 12  2  0  0  0  0
 17 16  1  0  0  0  0
 18 10  1  0  0  0  0
 19 18  1  0  0  0  0
 20 19  1  0  0  0  0
 21 22  2  0  0  0  0
 22 30  1  0  0  0  0
 23 22  1  0  0  0  0
 24 27  1  0  0  0  0
 25 28  1  0  0  0  0
 26 29  1  0  0  0  0
 28 24  2  0  0  0  0
 29 31  2  0  0  0  0
 30 25  2  0  0  0  0
 30 29  1  0  0  0  0
 31 24  1  0  0  0  0
M  END
>  <MODEL>
6

>  <REMARK>
 VINA RESULT:      -9.4      2.437      5.398
  Name = 
  2 active torsions:
  status: ('A' for Active; 'I' for Inactive)
    1  A    between atoms: C_9  and  C_22
    2  A    between atoms: C_15  and  N_23
                            x       y       z     vdW  Elec       q    Type
                         _______ _______ _______ _____ _____    ______ ____

>  <TORSDO>
F 2

$$$$
=
 OpenBabel10272400293D

 31 35  0  0  1  0  0  0  0  0999 V2000
  183.6050  179.1600  140.6620 C   0  0  0  0  0  0  0  0  0  0  0  0
  187.2360  178.1980  141.0040 N   0  0  0  0  0  0  0  0  0  0  0  0
  188.0020  178.0950  139.8120 C   0  0  0  0  0  0  0  0  0  0  0  0
  188.4110  178.0760  137.5000 C   0  0  0  0  0  0  0  0  0  0  0  0
  185.7860  178.0970  141.1410 C   0  0  2  0  0  3  0  0  0  0  0  0
  183.1040  178.7460  141.8360 C   0  0  0  0  0  3  0  0  0  0  0  0
  187.5560  178.2880  138.5440 N   0  0  0  0  0  2  0  0  0  0  0  0
  187.7130  177.4820  143.2530 C   0  0  0  0  0  0  0  0  0  0  0  0
  182.6840  179.4370  139.5250 C   0  0  0  0  0  1  0  0  0  0  0  0
  190.4710  176.5800  142.0570 C   0  0  0  0  0  1  0  0  0  0  0  0
  188.0160  178.2680  136.3210 O   0  0  0  0  0  0  0  0  0  0  0  0
  186.2880  177.7560  143.5610 C   0  0  0  0  0  3  0  0  0  0  0  0
  188.1380  177.7150  142.0030 C   0  0  0  0  0  0  0  0  0  0  0  0
  185.0910  179.2710  140.4580 C   0  0  0  0  0  2  0  0  0  0  0  0
  189.7310  177.6350  137.7330 C   0  0  0  0  0  3  0  0  0  0  0  0
  185.3950  178.0700  142.6100 C   0  0  0  0  0  0  0  0  0  0  0  0
  183.9870  178.4140  143.0170 C   0  0  0  0  0  2  0  0  0  0  0  0
  189.4480  177.4360  141.4750 N   0  0  0  0  0  0  0  0  0  0  0  0
  189.2770  177.6660  140.0790 C   0  0  0  0  0  0  0  0  0  0  0  0
  190.1760  177.4140  139.0470 C   0  0  0  0  0  3  0  0  0  0  0  0
  189.7890  179.0020  144.6500 O   0  0  0  0  0  0  0  0  0  0  0  0
  189.6400  177.7830  144.9230 C   0  0  0  0  0  0  0  0  0  0  0  0
  188.6250  177.0150  144.2570 N   0  0  0  0  0  2  0  0  0  0  0  0
  192.2110  175.7880  147.7360 C   0  0  0  0  0  0  0  0  0  0  0  0
  191.5080  176.2580  145.4740 C   0  0  0  0  0  3  0  0  0  0  0  0
  189.1510  178.3590  148.0630 Cl  0  0  0  0  0  0  0  0  0  0  0  0
  193.0330  175.1480  148.6010 F   0  0  0  0  0  0  0  0  0  0  0  0
  192.3570  175.5970  146.3630 C   0  0  0  0  0  3  0  0  0  0  0  0
  190.3600  177.3090  147.3370 C   0  0  0  0  0  0  0  0  0  0  0  0
  190.5000  177.1200  145.9370 C   0  0  0  0  0  0  0  0  0  0  0  0
  191.2180  176.6400  148.2180 C   0  0  0  0  0  3  0  0  0  0  0  0
  1  6  2  0  0  0  0
  2  5  1  0  0  0  0
  2 13  1  0  0  0  0
  3 19  2  0  0  0  0
  3  2  1  0  0  0  0
  4 15  1  0  0  0  0
  4  7  1  0  0  0  0
  5 14  1  6  0  0  0
  5 16  1  0  0  0  0
  6 17  1  0  0  0  0
  7  3  1  0  0  0  0
  8 12  1  0  0  0  0
  8 23  1  0  0  0  0
  9  1  1  0  0  0  0
 11  4  2  0  0  0  0
 13  8  2  0  0  0  0
 14  1  1  0  0  0  0
 15 20  2  0  0  0  0
 16 17  1  0  0  0  0
 16 12  2  0  0  0  0
 18 13  1  0  0  0  0
 18 10  1  0  0  0  0
 19 18  1  0  0  0  0
 20 19  1  0  0  0  0
 21 22  2  0  0  0  0
 22 30  1  0  0  0  0
 23 22  1  0  0  0  0
 24 31  1  0  0  0  0
 24 27  1  0  0  0  0
 25 30  2  0  0  0  0
 25 28  1  0  0  0  0
 28 24  2  0  0  0  0
 29 26  1  0  0  0  0
 29 31  2  0  0  0  0
 30 29  1  0  0  0  0
M  END
>  <MODEL>
7

>  <REMARK>
 VINA RESULT:      -9.3      1.457      1.701
  Name = 
  2 active torsions:
  status: ('A' for Active; 'I' for Inactive)
    1  A    between atoms: C_9  and  C_22
    2  A    between atoms: C_15  and  N_23
                            x       y       z     vdW  Elec       q    Type
                         _______ _______ _______ _____ _____    ______ ____

>  <TORSDO>
F 2

$$$$
=
 OpenBabel10272400293D

 31 35  0  0  1  0  0  0  0  0999 V2000
  187.0550  177.8770  146.7200 C   0  0  0  0  0  0  0  0  0  0  0  0
  187.3160  177.8510  142.9580 N   0  0  0  0  0  0  0  0  0  0  0  0
  188.5920  177.5880  142.3920 C   0  0  0  0  0  0  0  0  0  0  0  0
  190.9070  177.1970  142.3660 C   0  0  0  0  0  0  0  0  0  0  0  0
  187.0240  178.3600  144.2950 C   0  0  2  0  0  3  0  0  0  0  0  0
  185.9140  178.5590  146.9070 C   0  0  0  0  0  3  0  0  0  0  0  0
  189.7470  177.3620  143.0680 N   0  0  0  0  0  2  0  0  0  0  0  0
  185.2910  178.6940  141.9640 C   0  0  0  0  0  0  0  0  0  0  0  0
  188.0110  177.7170  147.8510 C   0  0  0  0  0  1  0  0  0  0  0  0
  186.9430  178.6500  139.2950 C   0  0  0  0  0  1  0  0  0  0  0  0
  191.9810  176.9700  142.9790 O   0  0  0  0  0  0  0  0  0  0  0  0
  184.7730  178.8590  143.3440 C   0  0  0  0  0  3  0  0  0  0  0  0
  186.5270  178.1950  141.8160 C   0  0  0  0  0  0  0  0  0  0  0  0
  187.4140  177.3410  145.3620 C   0  0  0  0  0  2  0  0  0  0  0  0
  190.9100  177.2890  140.9570 C   0  0  0  0  0  3  0  0  0  0  0  0
  185.5440  178.6810  144.4270 C   0  0  0  0  0  0  0  0  0  0  0  0
  184.9200  178.7880  145.7920 C   0  0  0  0  0  2  0  0  0  0  0  0
  187.2470  178.0370  140.5790 N   0  0  0  0  0  0  0  0  0  0  0  0
  188.5550  177.6850  141.0240 C   0  0  0  0  0  0  0  0  0  0  0  0
  189.7150  177.5480  140.2660 C   0  0  0  0  0  3  0  0  0  0  0  0
  183.1020  177.1460  140.7880 O   0  0  0  0  0  0  0  0  0  0  0  0
  183.4290  178.2380  140.2550 C   0  0  0  0  0  0  0  0  0  0  0  0
  184.4960  179.0200  140.8150 N   0  0  0  0  0  2  0  0  0  0  0  0
  181.3420  179.8250  136.8450 C   0  0  0  0  0  0  0  0  0  0  0  0
  182.1390  180.0150  139.1160 C   0  0  0  0  0  3  0  0  0  0  0  0
  183.2800  176.3970  137.6060 Cl  0  0  0  0  0  0  0  0  0  0  0  0
  180.6790  180.3460  135.7850 F   0  0  0  0  0  0  0  0  0  0  0  0
  181.4550  180.5560  138.0260 C   0  0  0  0  0  3  0  0  0  0  0  0
  182.6010  178.0020  137.8410 C   0  0  0  0  0  0  0  0  0  0  0  0
  182.7210  178.7390  139.0490 C   0  0  0  0  0  0  0  0  0  0  0  0
  181.9130  178.5550  136.7550 C   0  0  0  0  0  3  0  0  0  0  0  0
  1  6  2  0  0  0  0
  1  9  1  0  0  0  0
  2  5  1  0  0  0  0
  3  2  1  0  0  0  0
  3  7  1  0  0  0  0
  4 11  2  0  0  0  0
  4  7  1  0  0  0  0
  5 16  1  0  0  0  0
  5 14  1  1  0  0  0
  8 12  1  0  0  0  0
 10 18  1  0  0  0  0
 12 16  2  0  0  0  0
 13  8  2  0  0  0  0
 13  2  1  0  0  0  0
 14  1  1  0  0  0  0
 15  4  1  0  0  0  0
 16 17  1  0  0  0  0
 17  6  1  0  0  0  0
 18 19  1  0  0  0  0
 18 13  1  0  0  0  0
 19  3  2  0  0  0  0
 20 15  2  0  0  0  0
 20 19  1  0  0  0  0
 22 21  2  0  0  0  0
 22 23  1  0  0  0  0
 23  8  1  0  0  0  0
 24 28  1  0  0  0  0
 26 29  1  0  0  0  0
 27 24  1  0  0  0  0
 28 25  2  0  0  0  0
 29 30  2  0  0  0  0
 30 25  1  0  0  0  0
 30 22  1  0  0  0  0
 31 24  2  0  0  0  0
 31 29  1  0  0  0  0
M  END
>  <MODEL>
8

>  <REMARK>
 VINA RESULT:      -9.2      4.259      7.962
  Name = 
  2 active torsions:
  status: ('A' for Active; 'I' for Inactive)
    1  A    between atoms: C_9  and  C_22
    2  A    between atoms: C_15  and  N_23
                            x       y       z     vdW  Elec       q    Type
                         _______ _______ _______ _____ _____    ______ ____

>  <TORSDO>
F 2

$$$$
=
 OpenBabel10272400293D

 31 35  0  0  1  0  0  0  0  0999 V2000
  191.1230  176.7010  146.3480 C   0  0  0  0  0  0  0  0  0  0  0  0
  188.1690  177.7630  144.2580 N   0  0  0  0  0  0  0  0  0  0  0  0
  186.9850  178.1470  144.9440 C   0  0  0  0  0  0  0  0  0  0  0  0
  185.5640  178.4810  146.7820 C   0  0  0  0  0  0  0  0  0  0  0  0
  189.2460  176.9100  144.7520 C   0  0  2  0  0  3  0  0  0  0  0  0
  191.8550  176.0180  145.4540 C   0  0  0  0  0  3  0  0  0  0  0  0
  186.7940  178.1530  146.2870 N   0  0  0  0  0  2  0  0  0  0  0  0
  188.5570  177.2700  141.9330 C   0  0  0  0  0  0  0  0  0  0  0  0
  191.3830  176.5220  147.8040 C   0  0  0  0  0  1  0  0  0  0  0  0
  185.5280  178.0180  141.5830 C   0  0  0  0  0  1  0  0  0  0  0  0
  185.3780  178.5070  148.0260 O   0  0  0  0  0  0  0  0  0  0  0  0
  189.8800  176.7400  142.3450 C   0  0  0  0  0  3  0  0  0  0  0  0
  187.7570  177.7650  142.8880 C   0  0  0  0  0  0  0  0  0  0  0  0
  189.9930  177.5850  145.8990 C   0  0  0  0  0  2  0  0  0  0  0  0
  184.4980  178.7840  145.9070 C   0  0  0  0  0  3  0  0  0  0  0  0
  190.2260  176.5960  143.6330 C   0  0  0  0  0  0  0  0  0  0  0  0
  191.6170  176.1270  143.9660 C   0  0  0  0  0  2  0  0  0  0  0  0
  186.4100  178.2440  142.7180 N   0  0  0  0  0  0  0  0  0  0  0  0
  185.9740  178.4330  144.0620 C   0  0  0  0  0  0  0  0  0  0  0  0
  184.6970  178.7500  144.5180 C   0  0  0  0  0  3  0  0  0  0  0  0
  190.1420  178.0310  139.5910 O   0  0  0  0  0  0  0  0  0  0  0  0
  188.9450  177.6750  139.4270 C   0  0  0  0  0  0  0  0  0  0  0  0
  188.1480  177.2910  140.5580 N   0  0  0  0  0  2  0  0  0  0  0  0
  187.0570  177.6280  135.5630 C   0  0  0  0  0  0  0  0  0  0  0  0
  187.0050  178.0520  137.9390 C   0  0  0  0  0  3  0  0  0  0  0  0
  190.7110  176.6780  136.9130 Cl  0  0  0  0  0  0  0  0  0  0  0  0
  186.4400  177.6220  134.3570 F   0  0  0  0  0  0  0  0  0  0  0  0
  186.3660  178.0470  136.6990 C   0  0  0  0  0  3  0  0  0  0  0  0
  189.0370  177.2160  136.9070 C   0  0  0  0  0  0  0  0  0  0  0  0
  188.3410  177.6400  138.0700 C   0  0  0  0  0  0  0  0  0  0  0  0
  188.3850  177.2160  135.6690 C   0  0  0  0  0  3  0  0  0  0  0  0
  1  9  1  0  0  0  0
  2  5  1  0  0  0  0
  2  3  1  0  0  0  0
  3  7  1  0  0  0  0
  4 11  2  0  0  0  0
  5 14  1  1  0  0  0
  6  1  2  0  0  0  0
  7  4  1  0  0  0  0
  8 12  1  0  0  0  0
  8 13  2  0  0  0  0
 10 18  1  0  0  0  0
 12 16  2  0  0  0  0
 13  2  1  0  0  0  0
 14  1  1  0  0  0  0
 15  4  1  0  0  0  0
 16 17  1  0  0  0  0
 16  5  1  0  0  0  0
 17  6  1  0  0  0  0
 18 13  1  0  0  0  0
 18 19  1  0  0  0  0
 19 20  1  0  0  0  0
 19  3  2  0  0  0  0
 20 15  2  0  0  0  0
 22 21  2  0  0  0  0
 22 23  1  0  0  0  0
 23  8  1  0  0  0  0
 24 31  2  0  0  0  0
 24 28  1  0  0  0  0
 25 30  1  0  0  0  0
 27 24  1  0  0  0  0
 28 25  2  0  0  0  0
 29 26  1  0  0  0  0
 29 30  2  0  0  0  0
 30 22  1  0  0  0  0
 31 29  1  0  0  0  0
M  END
>  <MODEL>
9

>  <REMARK>
 VINA RESULT:      -9.1      3.988      8.688
  Name = 
  2 active torsions:
  status: ('A' for Active; 'I' for Inactive)
    1  A    between atoms: C_9  and  C_22
    2  A    between atoms: C_15  and  N_23
                            x       y       z     vdW  Elec       q    Type
                         _______ _______ _______ _____ _____    ______ ____

>  <TORSDO>
F 2

$$$$
