=
 OpenBabel10272415283D

 34 39  0  0  1  0  0  0  0  0999 V2000
  190.7440  176.9110  137.5020 C   0  0  2  0  0  3  0  0  0  0  0  0
  192.0990  173.5550  136.4010 C   0  0  0  0  0  3  0  0  0  0  0  0
  189.7950  174.3010  137.0220 C   0  0  0  0  0  2  0  0  0  0  0  0
  188.2750  177.3200  138.7650 C   0  0  2  0  0  3  0  0  0  0  0  0
  189.9760  176.7720  139.1750 S   0  0  0  0  0  0  0  0  0  0  0  0
  188.5570  177.6960  136.2810 C   0  0  1  0  0  3  0  0  0  0  0  0
  187.4090  176.8450  135.7610 C   0  0  0  0  0  2  0  0  0  0  0  0
  188.1950  178.3320  137.6230 C   0  0  2  0  0  3  0  0  0  0  0  0
  189.0360  179.5750  137.8720 C   0  0  0  0  0  1  0  0  0  0  0  0
  189.3040  175.3430  136.0070 C   0  0  2  0  0  3  0  0  0  0  0  0
  189.7740  176.7700  136.3140 C   0  0  2  0  0  3  0  0  0  0  0  0
  187.7890  175.3940  136.0050 C   0  0  0  0  0  2  0  0  0  0  0  0
  193.4020  173.3070  136.6020 C   0  0  0  0  0  3  0  0  0  0  0  0
  194.1720  173.8470  137.7790 C   0  0  2  0  0  3  0  0  0  0  0  0
  194.2680  175.3730  137.7410 C   0  0  0  0  0  2  0  0  0  0  0  0
  191.2980  174.4140  137.3300 C   0  0  2  0  0  3  0  0  0  0  0  0
  193.0030  176.0360  138.2800 C   0  0  0  0  0  2  0  0  0  0  0  0
  191.8380  175.8590  137.3120 C   0  0  2  0  0  3  0  0  0  0  0  0
  185.6150  178.8780  141.0030 C   0  0  0  0  0  3  0  0  0  0  0  0
  187.9980  177.4190  141.2460 C   0  0  0  0  0  3  0  0  0  0  0  0
  185.8780  178.5780  144.6880 C   0  0  0  0  0  0  0  0  0  0  0  0
  185.3980  178.9250  143.4160 C   0  0  0  0  0  3  0  0  0  0  0  0
  186.0980  178.5390  142.2700 C   0  0  0  0  0  0  0  0  0  0  0  0
  187.7740  177.4540  143.6590 C   0  0  0  0  0  3  0  0  0  0  0  0
  187.2970  177.8010  142.3930 C   0  0  0  0  0  0  0  0  0  0  0  0
  187.0670  177.8400  144.8020 C   0  0  0  0  0  3  0  0  0  0  0  0
  187.5210  177.7680  139.9790 C   0  0  0  0  0  0  0  0  0  0  0  0
  186.3210  178.4900  139.8620 C   0  0  0  0  0  3  0  0  0  0  0  0
  185.1310  178.9840  145.8900 C   0  0  0  0  0  0  0  0  0  0  0  0
  185.7440  179.3230  146.9380 O   0  0  0  0  0  1  0  0  0  0  0  0
  183.7420  178.9980  145.8790 O   0  0  0  0  0  0  0  0  0  0  0  0
  195.5440  173.2610  137.8000 C   0  0  0  0  0  0  0  0  0  0  0  0
  195.8620  172.4520  138.7110 O   0  0  0  0  0  1  0  0  0  0  0  0
  196.4820  173.6250  136.8420 O   0  0  0  0  0  0  0  0  0  0  0  0
  1  5  1  1  0  0  0
  2 13  2  0  0  0  0
  2 16  1  0  0  0  0
  3 16  1  0  0  0  0
  4  5  1  0  0  0  0
  4 27  1  1  0  0  0
  6  7  1  1  0  0  0
  6 11  1  0  0  0  0
  6  8  1  0  0  0  0
  7 12  1  0  0  0  0
  8  9  1  1  0  0  0
  8  4  1  0  0  0  0
 10 12  1  1  0  0  0
 10 11  1  0  0  0  0
 10  3  1  0  0  0  0
 11  1  1  0  0  0  0
 13 14  1  0  0  0  0
 14 32  1  0  0  0  0
 15 14  1  0  0  0  0
 15 17  1  0  0  0  0
 18 16  1  0  0  0  0
 18  1  1  0  0  0  0
 18 17  1  0  0  0  0
 19 23  1  0  0  0  0
 20 25  1  0  0  0  0
 21 26  1  0  0  0  0
 21 29  1  0  0  0  0
 22 21  2  0  0  0  0
 23 25  2  0  0  0  0
 23 22  1  0  0  0  0
 24 26  2  0  0  0  0
 25 24  1  0  0  0  0
 27 20  2  0  0  0  0
 28 27  1  0  0  0  0
 28 19  2  0  0  0  0
 29 30  1  0  0  0  0
 31 29  2  0  0  0  0
 32 33  1  0  0  0  0
 34 32  2  0  0  0  0
M  END
>  <MODEL>
1

>  <REMARK>
 VINA RESULT:      -8.6      0.000      0.000
  Name = 
  3 active torsions:
  status: ('A' for Active; 'I' for Inactive)
    1  A    between atoms: C_3  and  C_25
    2  A    between atoms: C_7  and  C_11
    3  A    between atoms: C_8  and  C_30
                            x       y       z     vdW  Elec       q    Type
                         _______ _______ _______ _____ _____    ______ ____

>  <TORSDO>
F 3

$$$$
=
 OpenBabel10272415283D

 34 39  0  0  1  0  0  0  0  0999 V2000
  190.8400  176.8670  137.5350 C   0  0  2  0  0  3  0  0  0  0  0  0
  192.0660  173.7820  135.7220 C   0  0  0  0  0  3  0  0  0  0  0  0
  190.1070  174.1630  137.2270 C   0  0  0  0  0  2  0  0  0  0  0  0
  189.0180  176.8710  139.6660 C   0  0  2  0  0  3  0  0  0  0  0  0
  190.7990  176.5650  139.3550 S   0  0  0  0  0  0  0  0  0  0  0  0
  188.2730  177.3630  137.3000 C   0  0  1  0  0  3  0  0  0  0  0  0
  187.1270  176.3710  137.1810 C   0  0  0  0  0  2  0  0  0  0  0  0
  188.3810  177.8960  138.7280 C   0  0  2  0  0  3  0  0  0  0  0  0
  189.0930  179.2400  138.7470 C   0  0  0  0  0  1  0  0  0  0  0  0
  189.1390  175.1540  136.5650 C   0  0  2  0  0  3  0  0  0  0  0  0
  189.5120  176.6240  136.7930 C   0  0  2  0  0  3  0  0  0  0  0  0
  187.7460  174.9830  137.1390 C   0  0  0  0  0  2  0  0  0  0  0  0
  193.3650  173.7200  135.3940 C   0  0  0  0  0  3  0  0  0  0  0  0
  194.4570  174.3290  136.2350 C   0  0  2  0  0  3  0  0  0  0  0  0
  194.3430  175.8530  136.2940 C   0  0  0  0  0  2  0  0  0  0  0  0
  191.5860  174.4840  136.9540 C   0  0  2  0  0  3  0  0  0  0  0  0
  193.3130  176.3070  137.3250 C   0  0  0  0  0  2  0  0  0  0  0  0
  191.8960  175.9920  136.8570 C   0  0  2  0  0  3  0  0  0  0  0  0
  187.2530  177.9400  142.8680 C   0  0  0  0  0  3  0  0  0  0  0  0
  189.7150  176.8620  142.0650 C   0  0  0  0  0  3  0  0  0  0  0  0
  188.9620  177.5890  146.1370 C   0  0  0  0  0  0  0  0  0  0  0  0
  187.9850  177.8900  145.1770 C   0  0  0  0  0  3  0  0  0  0  0  0
  188.2300  177.6470  143.8230 C   0  0  0  0  0  0  0  0  0  0  0  0
  190.4410  176.7990  144.3760 C   0  0  0  0  0  3  0  0  0  0  0  0
  189.4690  177.1010  143.4200 C   0  0  0  0  0  0  0  0  0  0  0  0
  190.1890  177.0410  145.7300 C   0  0  0  0  0  3  0  0  0  0  0  0
  188.7420  177.1660  141.1080 C   0  0  0  0  0  0  0  0  0  0  0  0
  187.5060  177.6960  141.5150 C   0  0  0  0  0  3  0  0  0  0  0  0
  188.6920  177.8440  147.5620 C   0  0  0  0  0  0  0  0  0  0  0  0
  189.6420  177.9220  148.3870 O   0  0  0  0  0  1  0  0  0  0  0  0
  187.3870  178.0000  148.0110 O   0  0  0  0  0  0  0  0  0  0  0  0
  195.7920  173.9490  135.6870 C   0  0  0  0  0  0  0  0  0  0  0  0
  195.9940  172.7680  135.2990 O   0  0  0  0  0  0  0  0  0  0  0  0
  196.8230  174.8790  135.6300 O   0  0  0  0  0  1  0  0  0  0  0  0
  1  5  1  1  0  0  0
  2 16  1  0  0  0  0
  4 27  1  1  0  0  0
  5  4  1  0  0  0  0
  6  7  1  1  0  0  0
  6  8  1  0  0  0  0
  8  9  1  6  0  0  0
  8  4  1  0  0  0  0
 10 11  1  0  0  0  0
 10 12  1  1  0  0  0
 10  3  1  0  0  0  0
 11  6  1  0  0  0  0
 11  1  1  0  0  0  0
 12  7  1  0  0  0  0
 13  2  2  0  0  0  0
 13 14  1  0  0  0  0
 14 15  1  0  0  0  0
 15 17  1  0  0  0  0
 16  3  1  0  0  0  0
 18 16  1  0  0  0  0
 18 17  1  0  0  0  0
 18  1  1  0  0  0  0
 19 23  1  0  0  0  0
 20 25  1  0  0  0  0
 21 29  1  0  0  0  0
 22 21  2  0  0  0  0
 23 22  1  0  0  0  0
 24 26  2  0  0  0  0
 25 23  2  0  0  0  0
 25 24  1  0  0  0  0
 26 21  1  0  0  0  0
 27 28  1  0  0  0  0
 27 20  2  0  0  0  0
 28 19  2  0  0  0  0
 29 31  2  0  0  0  0
 29 30  1  0  0  0  0
 32 14  1  0  0  0  0
 33 32  2  0  0  0  0
 34 32  1  0  0  0  0
M  END
>  <MODEL>
2

>  <REMARK>
 VINA RESULT:      -8.5      1.693      2.234
  Name = 
  3 active torsions:
  status: ('A' for Active; 'I' for Inactive)
    1  A    between atoms: C_3  and  C_25
    2  A    between atoms: C_7  and  C_11
    3  A    between atoms: C_8  and  C_30
                            x       y       z     vdW  Elec       q    Type
                         _______ _______ _______ _____ _____    ______ ____

>  <TORSDO>
F 3

$$$$
=
 OpenBabel10272415283D

 34 39  0  0  1  0  0  0  0  0999 V2000
  190.9120  176.8760  137.5510 C   0  0  2  0  0  3  0  0  0  0  0  0
  192.2110  173.8930  135.6230 C   0  0  0  0  0  3  0  0  0  0  0  0
  190.2600  174.1620  137.1630 C   0  0  0  0  0  2  0  0  0  0  0  0
  189.1190  176.7530  139.7020 C   0  0  2  0  0  3  0  0  0  0  0  0
  190.9040  176.5140  139.3610 S   0  0  0  0  0  0  0  0  0  0  0  0
  188.3280  177.2970  137.3630 C   0  0  1  0  0  3  0  0  0  0  0  0
  187.2120  176.2740  137.2250 C   0  0  0  0  0  2  0  0  0  0  0  0
  188.4380  177.7870  138.8070 C   0  0  2  0  0  3  0  0  0  0  0  0
  189.1070  179.1520  138.8610 C   0  0  0  0  0  1  0  0  0  0  0  0
  189.2540  175.1420  136.5460 C   0  0  2  0  0  3  0  0  0  0  0  0
  189.5830  176.6160  136.8170 C   0  0  2  0  0  3  0  0  0  0  0  0
  187.8750  174.9090  137.1300 C   0  0  0  0  0  2  0  0  0  0  0  0
  193.5080  173.8830  135.2790 C   0  0  0  0  0  3  0  0  0  0  0  0
  194.5900  174.4990  136.1260 C   0  0  2  0  0  3  0  0  0  0  0  0
  194.4300  176.0150  136.2370 C   0  0  0  0  0  2  0  0  0  0  0  0
  191.7250  174.5390  136.8830 C   0  0  2  0  0  3  0  0  0  0  0  0
  193.3980  176.4030  137.2940 C   0  0  0  0  0  2  0  0  0  0  0  0
  191.9870  176.0580  136.8320 C   0  0  2  0  0  3  0  0  0  0  0  0
  189.6060  177.0810  143.4660 C   0  0  0  0  0  3  0  0  0  0  0  0
  187.5840  177.4280  141.5540 C   0  0  0  0  0  3  0  0  0  0  0  0
  186.7990  178.1960  145.6130 C   0  0  0  0  0  0  0  0  0  0  0  0
  188.0710  177.7610  145.2130 C   0  0  0  0  0  3  0  0  0  0  0  0
  188.3370  177.5080  143.8650 C   0  0  0  0  0  0  0  0  0  0  0  0
  186.0520  178.1210  143.3000 C   0  0  0  0  0  3  0  0  0  0  0  0
  187.3190  177.6860  142.9020 C   0  0  0  0  0  0  0  0  0  0  0  0
  185.7930  178.3760  144.6500 C   0  0  0  0  0  3  0  0  0  0  0  0
  188.8510  176.9910  141.1560 C   0  0  0  0  0  0  0  0  0  0  0  0
  189.8640  176.8290  142.1160 C   0  0  0  0  0  3  0  0  0  0  0  0
  186.5300  178.4650  147.0360 C   0  0  0  0  0  0  0  0  0  0  0  0
  185.5300  179.1530  147.3760 O   0  0  0  0  0  0  0  0  0  0  0  0
  187.3770  177.9620  148.0160 O   0  0  0  0  0  1  0  0  0  0  0  0
  195.9290  174.1800  135.5510 C   0  0  0  0  0  0  0  0  0  0  0  0
  196.1380  173.0440  135.0490 O   0  0  0  0  0  0  0  0  0  0  0  0
  196.9570  175.1140  135.5910 O   0  0  0  0  0  1  0  0  0  0  0  0
  1  5  1  1  0  0  0
  2 16  1  0  0  0  0
  4 27  1  1  0  0  0
  5  4  1  0  0  0  0
  6  7  1  1  0  0  0
  6  8  1  0  0  0  0
  8  9  1  6  0  0  0
  8  4  1  0  0  0  0
 10 11  1  0  0  0  0
 10 12  1  1  0  0  0
 10  3  1  0  0  0  0
 11  6  1  0  0  0  0
 11  1  1  0  0  0  0
 12  7  1  0  0  0  0
 13  2  2  0  0  0  0
 13 14  1  0  0  0  0
 14 15  1  0  0  0  0
 15 17  1  0  0  0  0
 16  3  1  0  0  0  0
 18 16  1  0  0  0  0
 18 17  1  0  0  0  0
 18  1  1  0  0  0  0
 19 23  1  0  0  0  0
 20 25  1  0  0  0  0
 21 29  1  0  0  0  0
 22 21  1  0  0  0  0
 23 22  2  0  0  0  0
 24 26  1  0  0  0  0
 25 24  2  0  0  0  0
 25 23  1  0  0  0  0
 26 21  2  0  0  0  0
 27 20  2  0  0  0  0
 27 28  1  0  0  0  0
 28 19  2  0  0  0  0
 29 30  2  0  0  0  0
 29 31  1  0  0  0  0
 32 34  1  0  0  0  0
 32 14  1  0  0  0  0
 33 32  2  0  0  0  0
M  END
>  <MODEL>
3

>  <REMARK>
 VINA RESULT:      -8.5      1.422      2.080
  Name = 
  3 active torsions:
  status: ('A' for Active; 'I' for Inactive)
    1  A    between atoms: C_3  and  C_25
    2  A    between atoms: C_7  and  C_11
    3  A    between atoms: C_8  and  C_30
                            x       y       z     vdW  Elec       q    Type
                         _______ _______ _______ _____ _____    ______ ____

>  <TORSDO>
F 3

$$$$
=
 OpenBabel10272415283D

 34 39  0  0  1  0  0  0  0  0999 V2000
  182.8250  176.8590  137.7360 C   0  0  2  0  0  3  0  0  0  0  0  0
  180.0030  174.8190  136.2590 C   0  0  0  0  0  3  0  0  0  0  0  0
  180.0360  176.5870  138.0260 C   0  0  0  0  0  2  0  0  0  0  0  0
  182.6980  178.2860  140.1450 C   0  0  2  0  0  3  0  0  0  0  0  0
  182.9400  176.5670  139.5560 S   0  0  0  0  0  0  0  0  0  0  0  0
  182.3740  179.4370  137.9180 C   0  0  1  0  0  3  0  0  0  0  0  0
  181.0570  180.1490  138.1860 C   0  0  0  0  0  2  0  0  0  0  0  0
  183.2170  179.3610  139.1900 C   0  0  2  0  0  3  0  0  0  0  0  0
  184.6890  179.1910  138.8500 C   0  0  0  0  0  1  0  0  0  0  0  0
  180.4740  177.9210  137.4070 C   0  0  2  0  0  3  0  0  0  0  0  0
  181.9960  178.0860  137.3130 C   0  0  2  0  0  3  0  0  0  0  0  0
  179.9820  179.0760  138.2570 C   0  0  0  0  0  2  0  0  0  0  0  0
  180.3060  173.6360  135.7040 C   0  0  0  0  0  3  0  0  0  0  0  0
  181.4140  172.7490  136.2080 C   0  0  2  0  0  3  0  0  0  0  0  0
  182.7860  173.4020  136.0350 C   0  0  0  0  0  2  0  0  0  0  0  0
  180.7610  175.3710  137.4260 C   0  0  2  0  0  3  0  0  0  0  0  0
  183.0890  174.3960  137.1540 C   0  0  0  0  0  2  0  0  0  0  0  0
  182.2250  175.6460  137.0230 C   0  0  2  0  0  3  0  0  0  0  0  0
  182.8450  179.1790  143.8460 C   0  0  0  0  0  3  0  0  0  0  0  0
  184.4860  178.0470  141.8730 C   0  0  0  0  0  3  0  0  0  0  0  0
  185.9110  178.4770  145.8060 C   0  0  0  0  0  0  0  0  0  0  0  0
  184.6160  178.9040  145.4760 C   0  0  0  0  0  3  0  0  0  0  0  0
  184.1380  178.7600  144.1710 C   0  0  0  0  0  0  0  0  0  0  0  0
  186.2530  177.7600  143.5080 C   0  0  0  0  0  3  0  0  0  0  0  0
  184.9640  178.1870  143.1790 C   0  0  0  0  0  0  0  0  0  0  0  0
  186.7240  177.9030  144.8160 C   0  0  0  0  0  3  0  0  0  0  0  0
  183.1970  178.4760  141.5450 C   0  0  0  0  0  0  0  0  0  0  0  0
  182.3740  179.0330  142.5380 C   0  0  0  0  0  3  0  0  0  0  0  0
  186.4040  178.6280  147.1850 C   0  0  0  0  0  0  0  0  0  0  0  0
  185.9830  179.5650  147.9140 O   0  0  0  0  0  1  0  0  0  0  0  0
  187.3410  177.7370  147.6950 O   0  0  0  0  0  0  0  0  0  0  0  0
  181.3880  171.4440  135.4860 C   0  0  0  0  0  0  0  0  0  0  0  0
  182.3580  171.1180  134.7520 O   0  0  0  0  0  0  0  0  0  0  0  0
  180.2900  170.5990  135.5920 O   0  0  0  0  0  1  0  0  0  0  0  0
  1  5  1  1  0  0  0
  2 16  1  0  0  0  0
  4 27  1  1  0  0  0
  5  4  1  0  0  0  0
  6  7  1  1  0  0  0
  6  8  1  0  0  0  0
  7 12  1  0  0  0  0
  8  9  1  6  0  0  0
  8  4  1  0  0  0  0
 10  3  1  1  0  0  0
 10 12  1  0  0  0  0
 11 10  1  0  0  0  0
 11  1  1  0  0  0  0
 11  6  1  0  0  0  0
 13 14  1  0  0  0  0
 13  2  2  0  0  0  0
 15 14  1  0  0  0  0
 15 17  1  0  0  0  0
 16  3  1  0  0  0  0
 18 17  1  0  0  0  0
 18 16  1  0  0  0  0
 18  1  1  0  0  0  0
 19 23  1  0  0  0  0
 20 25  1  0  0  0  0
 21 29  1  0  0  0  0
 22 21  1  0  0  0  0
 23 22  2  0  0  0  0
 24 26  1  0  0  0  0
 25 24  2  0  0  0  0
 25 23  1  0  0  0  0
 26 21  2  0  0  0  0
 27 20  2  0  0  0  0
 27 28  1  0  0  0  0
 28 19  2  0  0  0  0
 29 31  2  0  0  0  0
 29 30  1  0  0  0  0
 32 34  1  0  0  0  0
 32 14  1  0  0  0  0
 33 32  2  0  0  0  0
M  END
>  <MODEL>
4

>  <REMARK>
 VINA RESULT:      -8.1      6.704      8.329
  Name = 
  3 active torsions:
  status: ('A' for Active; 'I' for Inactive)
    1  A    between atoms: C_3  and  C_25
    2  A    between atoms: C_7  and  C_11
    3  A    between atoms: C_8  and  C_30
                            x       y       z     vdW  Elec       q    Type
                         _______ _______ _______ _____ _____    ______ ____

>  <TORSDO>
F 3

$$$$
=
 OpenBabel10272415283D

 34 39  0  0  1  0  0  0  0  0999 V2000
  188.7450  177.2600  138.0610 C   0  0  2  0  0  3  0  0  0  0  0  0
  191.6470  177.3450  140.4850 C   0  0  0  0  0  3  0  0  0  0  0  0
  191.1740  175.9020  138.4990 C   0  0  0  0  0  2  0  0  0  0  0  0
  188.1400  175.1340  136.3380 C   0  0  2  0  0  3  0  0  0  0  0  0
  187.9300  175.6040  138.0970 S   0  0  0  0  0  0  0  0  0  0  0  0
  189.4020  177.1680  135.5230 C   0  0  1  0  0  3  0  0  0  0  0  0
  190.6010  176.4860  134.8820 C   0  0  0  0  0  2  0  0  0  0  0  0
  188.1450  176.3130  135.3650 C   0  0  2  0  0  3  0  0  0  0  0  0
  186.8950  177.1730  135.4690 C   0  0  0  0  0  1  0  0  0  0  0  0
  191.1600  176.7660  137.2310 C   0  0  2  0  0  3  0  0  0  0  0  0
  189.8120  177.4500  136.9680 C   0  0  2  0  0  3  0  0  0  0  0  0
  191.4360  175.9080  136.0130 C   0  0  0  0  0  2  0  0  0  0  0  0
  191.4320  177.8570  141.7060 C   0  0  0  0  0  3  0  0  0  0  0  0
  190.1190  177.7330  142.4320 C   0  0  2  0  0  3  0  0  0  0  0  0
  188.9980  178.4790  141.7080 C   0  0  0  0  0  2  0  0  0  0  0  0
  190.5830  176.6140  139.7270 C   0  0  2  0  0  3  0  0  0  0  0  0
  188.4230  177.6610  140.5530 C   0  0  0  0  0  2  0  0  0  0  0  0
  189.4170  177.5700  139.4000 C   0  0  2  0  0  3  0  0  0  0  0  0
  186.4560  172.3570  134.3470 C   0  0  0  0  0  3  0  0  0  0  0  0
  186.1520  173.6920  136.7950 C   0  0  0  0  0  3  0  0  0  0  0  0
  183.4910  170.6170  135.7280 C   0  0  0  0  0  0  0  0  0  0  0  0
  184.5290  170.9810  134.8580 C   0  0  0  0  0  3  0  0  0  0  0  0
  185.4180  172.0000  135.2100 C   0  0  0  0  0  0  0  0  0  0  0  0
  184.2320  172.3060  137.3120 C   0  0  0  0  0  3  0  0  0  0  0  0
  185.2660  172.6700  136.4450 C   0  0  0  0  0  0  0  0  0  0  0  0
  183.3490  171.2830  136.9560 C   0  0  0  0  0  3  0  0  0  0  0  0
  187.1850  174.0570  135.9260 C   0  0  0  0  0  0  0  0  0  0  0  0
  187.3400  173.3790  134.7050 C   0  0  0  0  0  3  0  0  0  0  0  0
  182.5620  169.5380  135.3510 C   0  0  0  0  0  0  0  0  0  0  0  0
  181.3930  169.8080  134.9660 O   0  0  0  0  0  0  0  0  0  0  0  0
  182.9680  168.2100  135.4160 O   0  0  0  0  0  1  0  0  0  0  0  0
  190.2540  178.2620  143.8210 C   0  0  0  0  0  0  0  0  0  0  0  0
  189.4940  177.8330  144.7280 O   0  0  0  0  0  1  0  0  0  0  0  0
  191.1900  179.2460  144.1140 O   0  0  0  0  0  0  0  0  0  0  0  0
  1  5  1  1  0  0  0
  1 18  1  0  0  0  0
  2 13  2  0  0  0  0
  3 16  1  0  0  0  0
  4 27  1  6  0  0  0
  4  5  1  0  0  0  0
  6  7  1  1  0  0  0
  6 11  1  0  0  0  0
  7 12  1  0  0  0  0
  8  9  1  1  0  0  0
  8  6  1  0  0  0  0
  8  4  1  0  0  0  0
 10 12  1  6  0  0  0
 10  3  1  0  0  0  0
 11 10  1  0  0  0  0
 11  1  1  0  0  0  0
 13 14  1  0  0  0  0
 14 32  1  0  0  0  0
 15 14  1  0  0  0  0
 16  2  1  0  0  0  0
 17 15  1  0  0  0  0
 18 16  1  0  0  0  0
 18 17  1  0  0  0  0
 19 28  2  0  0  0  0
 19 23  1  0  0  0  0
 21 26  1  0  0  0  0
 22 23  1  0  0  0  0
 22 21  2  0  0  0  0
 23 25  2  0  0  0  0
 25 20  1  0  0  0  0
 25 24  1  0  0  0  0
 26 24  2  0  0  0  0
 27 20  2  0  0  0  0
 28 27  1  0  0  0  0
 29 31  1  0  0  0  0
 29 21  1  0  0  0  0
 30 29  2  0  0  0  0
 32 34  2  0  0  0  0
 32 33  1  0  0  0  0
M  END
>  <MODEL>
5

>  <REMARK>
 VINA RESULT:      -6.7      4.790      7.997
  Name = 
  3 active torsions:
  status: ('A' for Active; 'I' for Inactive)
    1  A    between atoms: C_3  and  C_25
    2  A    between atoms: C_7  and  C_11
    3  A    between atoms: C_8  and  C_30
                            x       y       z     vdW  Elec       q    Type
                         _______ _______ _______ _____ _____    ______ ____

>  <TORSDO>
F 3

$$$$
=
 OpenBabel10272415283D

 34 39  0  0  1  0  0  0  0  0999 V2000
  188.6690  175.5460  136.6310 C   0  0  2  0  0  3  0  0  0  0  0  0
  185.2060  175.2380  135.1410 C   0  0  0  0  0  3  0  0  0  0  0  0
  186.1820  176.8630  136.7710 C   0  0  0  0  0  2  0  0  0  0  0  0
  189.3190  177.0350  138.9150 C   0  0  2  0  0  3  0  0  0  0  0  0
  188.5890  175.4140  138.4700 S   0  0  0  0  0  0  0  0  0  0  0  0
  189.6990  177.9600  136.5920 C   0  0  1  0  0  3  0  0  0  0  0  0
  188.9820  179.2940  136.7270 C   0  0  0  0  0  2  0  0  0  0  0  0
  190.3500  177.5590  137.9150 C   0  0  2  0  0  3  0  0  0  0  0  0
  191.4940  176.5850  137.6780 C   0  0  0  0  0  1  0  0  0  0  0  0
  187.2840  177.6780  136.0820 C   0  0  2  0  0  3  0  0  0  0  0  0
  188.6500  176.9790  136.0680 C   0  0  2  0  0  3  0  0  0  0  0  0
  187.4950  178.9900  136.8120 C   0  0  0  0  0  2  0  0  0  0  0  0
  184.8190  174.0330  134.6950 C   0  0  0  0  0  3  0  0  0  0  0  0
  185.2570  172.7390  135.3300 C   0  0  2  0  0  3  0  0  0  0  0  0
  186.7640  172.5220  135.1910 C   0  0  0  0  0  2  0  0  0  0  0  0
  186.1310  175.3970  136.3080 C   0  0  2  0  0  3  0  0  0  0  0  0
  187.5500  173.2930  136.2490 C   0  0  0  0  0  2  0  0  0  0  0  0
  187.5110  174.7920  135.9750 C   0  0  2  0  0  3  0  0  0  0  0  0
  191.6460  177.2890  141.9200 C   0  0  0  0  0  3  0  0  0  0  0  0
  188.9170  176.9320  141.3780 C   0  0  0  0  0  3  0  0  0  0  0  0
  190.2740  177.0670  145.3560 C   0  0  0  0  0  0  0  0  0  0  0  0
  191.1850  177.1950  144.2970 C   0  0  0  0  0  3  0  0  0  0  0  0
  190.7380  177.1530  142.9740 C   0  0  0  0  0  0  0  0  0  0  0  0
  188.4550  176.8510  143.7560 C   0  0  0  0  0  3  0  0  0  0  0  0
  189.3630  176.9770  142.7020 C   0  0  0  0  0  0  0  0  0  0  0  0
  188.9080  176.8970  145.0780 C   0  0  0  0  0  3  0  0  0  0  0  0
  189.8260  177.0560  140.3240 C   0  0  0  0  0  0  0  0  0  0  0  0
  191.1910  177.2450  140.6000 C   0  0  0  0  0  3  0  0  0  0  0  0
  190.7540  177.1170  146.7470 C   0  0  0  0  0  0  0  0  0  0  0  0
  191.9690  176.9130  147.0100 O   0  0  0  0  0  0  0  0  0  0  0  0
  189.8690  177.3890  147.7830 O   0  0  0  0  0  1  0  0  0  0  0  0
  184.5290  171.5960  134.7060 C   0  0  0  0  0  0  0  0  0  0  0  0
  183.3080  171.7140  134.4210 O   0  0  0  0  0  0  0  0  0  0  0  0
  185.1790  170.3910  134.4660 O   0  0  0  0  0  1  0  0  0  0  0  0
  1  5  1  1  0  0  0
  2 16  1  0  0  0  0
  4 27  1  1  0  0  0
  5  4  1  0  0  0  0
  6  7  1  1  0  0  0
  6  8  1  0  0  0  0
  7 12  1  0  0  0  0
  8  9  1  6  0  0  0
  8  4  1  0  0  0  0
 10  3  1  1  0  0  0
 10 12  1  0  0  0  0
 11 10  1  0  0  0  0
 11  6  1  0  0  0  0
 11  1  1  0  0  0  0
 13  2  2  0  0  0  0
 13 14  1  0  0  0  0
 15 14  1  0  0  0  0
 15 17  1  0  0  0  0
 16  3  1  0  0  0  0
 18 17  1  0  0  0  0
 18 16  1  0  0  0  0
 18  1  1  0  0  0  0
 19 23  1  0  0  0  0
 20 25  1  0  0  0  0
 21 29  1  0  0  0  0
 22 21  2  0  0  0  0
 23 22  1  0  0  0  0
 24 26  2  0  0  0  0
 25 23  2  0  0  0  0
 25 24  1  0  0  0  0
 26 21  1  0  0  0  0
 27 28  1  0  0  0  0
 27 20  2  0  0  0  0
 28 19  2  0  0  0  0
 29 30  2  0  0  0  0
 29 31  1  0  0  0  0
 32 14  1  0  0  0  0
 33 32  2  0  0  0  0
 34 32  1  0  0  0  0
M  END
>  <MODEL>
6

>  <REMARK>
 VINA RESULT:      -6.3      4.055      5.969
  Name = 
  3 active torsions:
  status: ('A' for Active; 'I' for Inactive)
    1  A    between atoms: C_3  and  C_25
    2  A    between atoms: C_7  and  C_11
    3  A    between atoms: C_8  and  C_30
                            x       y       z     vdW  Elec       q    Type
                         _______ _______ _______ _____ _____    ______ ____

>  <TORSDO>
F 3

$$$$
=
 OpenBabel10272415283D

 34 39  0  0  1  0  0  0  0  0999 V2000
  182.3440  179.7730  141.2980 C   0  0  2  0  0  3  0  0  0  0  0  0
  180.0290  178.2510  138.7230 C   0  0  0  0  0  3  0  0  0  0  0  0
  181.1290  177.2900  140.7520 C   0  0  0  0  0  2  0  0  0  0  0  0
  183.9510  178.3250  143.0820 C   0  0  2  0  0  3  0  0  0  0  0  0
  183.9510  178.8650  141.3300 S   0  0  0  0  0  0  0  0  0  0  0  0
  181.7220  179.2800  143.8000 C   0  0  1  0  0  3  0  0  0  0  0  0
  181.0840  178.0300  144.3850 C   0  0  0  0  0  2  0  0  0  0  0  0
  183.2320  179.2790  144.0360 C   0  0  2  0  0  3  0  0  0  0  0  0
  183.7840  180.6960  143.9870 C   0  0  0  0  0  1  0  0  0  0  0  0
  180.5880  177.9900  142.0060 C   0  0  2  0  0  3  0  0  0  0  0  0
  181.3000  179.3090  142.3310 C   0  0  2  0  0  3  0  0  0  0  0  0
  180.7800  177.1020  143.2200 C   0  0  0  0  0  2  0  0  0  0  0  0
  179.9820  178.8180  137.5080 C   0  0  0  0  0  3  0  0  0  0  0  0
  181.1730  179.4680  136.8540 C   0  0  2  0  0  3  0  0  0  0  0  0
  181.6390  180.7030  137.6260 C   0  0  0  0  0  2  0  0  0  0  0  0
  181.2790  178.2340  139.5460 C   0  0  2  0  0  3  0  0  0  0  0  0
  182.5140  180.3300  138.8220 C   0  0  0  0  0  2  0  0  0  0  0  0
  181.6850  179.6750  139.9210 C   0  0  2  0  0  3  0  0  0  0  0  0
  187.6340  177.3550  143.1120 C   0  0  0  0  0  3  0  0  0  0  0  0
  185.5940  177.9820  144.9320 C   0  0  0  0  0  3  0  0  0  0  0  0
  189.4530  177.0640  146.3280 C   0  0  0  0  0  0  0  0  0  0  0  0
  189.1810  177.0520  144.9510 C   0  0  0  0  0  3  0  0  0  0  0  0
  187.9010  177.3600  144.4840 C   0  0  0  0  0  0  0  0  0  0  0  0
  187.1460  177.6920  146.7710 C   0  0  0  0  0  3  0  0  0  0  0  0
  186.8750  177.6790  145.4010 C   0  0  0  0  0  0  0  0  0  0  0  0
  188.4300  177.3870  147.2330 C   0  0  0  0  0  3  0  0  0  0  0  0
  185.3240  177.9660  143.5600 C   0  0  0  0  0  0  0  0  0  0  0  0
  186.3510  177.6620  142.6520 C   0  0  0  0  0  3  0  0  0  0  0  0
  190.8060  176.7440  146.8110 C   0  0  0  0  0  0  0  0  0  0  0  0
  190.9650  176.0280  147.8360 O   0  0  0  0  0  1  0  0  0  0  0  0
  191.9230  177.2310  146.1420 O   0  0  0  0  0  0  0  0  0  0  0  0
  180.8360  179.8540  135.4530 C   0  0  0  0  0  0  0  0  0  0  0  0
  180.6840  178.9600  134.5790 O   0  0  0  0  0  0  0  0  0  0  0  0
  180.7180  181.1920  135.0980 O   0  0  0  0  0  1  0  0  0  0  0  0
  1  5  1  6  0  0  0
  1 11  1  0  0  0  0
  2 16  1  0  0  0  0
  4 27  1  1  0  0  0
  4  8  1  0  0  0  0
  5  4  1  0  0  0  0
  6  8  1  0  0  0  0
  6  7  1  6  0  0  0
  8  9  1  6  0  0  0
 10  3  1  6  0  0  0
 10 11  1  0  0  0  0
 10 12  1  0  0  0  0
 11  6  1  0  0  0  0
 12  7  1  0  0  0  0
 13  2  2  0  0  0  0
 14 13  1  0  0  0  0
 14 15  1  0  0  0  0
 15 17  1  0  0  0  0
 16 18  1  0  0  0  0
 16  3  1  0  0  0  0
 17 18  1  0  0  0  0
 18  1  1  0  0  0  0
 19 23  1  0  0  0  0
 20 25  1  0  0  0  0
 21 29  1  0  0  0  0
 21 26  1  0  0  0  0
 22 21  2  0  0  0  0
 23 22  1  0  0  0  0
 23 25  2  0  0  0  0
 24 26  2  0  0  0  0
 25 24  1  0  0  0  0
 27 20  2  0  0  0  0
 28 19  2  0  0  0  0
 28 27  1  0  0  0  0
 29 30  1  0  0  0  0
 31 29  2  0  0  0  0
 32 14  1  0  0  0  0
 33 32  2  0  0  0  0
 34 32  1  0  0  0  0
M  END
>  <MODEL>
7

>  <REMARK>
 VINA RESULT:      -5.6      6.463      9.786
  Name = 
  3 active torsions:
  status: ('A' for Active; 'I' for Inactive)
    1  A    between atoms: C_3  and  C_25
    2  A    between atoms: C_7  and  C_11
    3  A    between atoms: C_8  and  C_30
                            x       y       z     vdW  Elec       q    Type
                         _______ _______ _______ _____ _____    ______ ____

>  <TORSDO>
F 3

$$$$
