=
 OpenBabel10272414573D

 37 40  0  0  1  0  0  0  0  0999 V2000
  181.5710  176.4440  139.3080 C   0  0  0  0  0  2  0  0  0  0  0  0
  182.2380  180.4730  138.5650 C   0  0  0  0  0  2  0  0  0  0  0  0
  184.6630  174.8720  136.9020 C   0  0  0  0  0  3  0  0  0  0  0  0
  182.5240  177.4900  138.6980 C   0  0  1  0  0  0  0  0  0  0  0  0
  183.5990  175.4850  137.5680 C   0  0  0  0  0  0  0  0  0  0  0  0
  182.8830  178.4460  139.7840 N   0  0  0  0  0  0  0  0  0  0  0  0
  182.3600  174.7820  137.7080 N   0  0  0  0  0  0  0  0  0  0  0  0
  183.7320  176.8000  138.0610 C   0  0  0  0  0  0  0  0  0  0  0  0
  185.9970  176.8700  137.1710 C   0  0  0  0  0  3  0  0  0  0  0  0
  181.3890  175.2130  138.4550 C   0  0  0  0  0  0  0  0  0  0  0  0
  184.9340  177.4910  137.8290 C   0  0  0  0  0  3  0  0  0  0  0  0
  183.3780  179.7080  139.2410 C   0  0  0  0  0  2  0  0  0  0  0  0
  181.7590  178.2090  137.5610 C   0  0  0  0  0  2  0  0  0  0  0  0
  185.8710  175.5580  136.7080 C   0  0  0  0  0  0  0  0  0  0  0  0
  181.1430  179.5650  137.9530 C   0  0  1  0  0  0  0  0  0  0  0  0
  186.9550  174.9640  136.0560 O   0  0  0  0  0  0  0  0  0  0  0  0
  187.3760  173.6330  136.3220 C   0  0  0  0  0  1  0  0  0  0  0  0
  180.0990  173.1660  137.9770 C   0  0  0  0  0  1  0  0  0  0  0  0
  180.2000  174.4830  138.4990 O   0  0  0  0  0  0  0  0  0  0  0  0
  180.0300  179.3300  138.9940 C   0  0  0  0  0  2  0  0  0  0  0  0
  180.0580  180.3520  140.0280 N   0  0  0  0  0  2  0  0  0  0  0  0
  180.2690  179.6720  142.5340 C   0  0  0  0  0  3  0  0  0  0  0  0
  180.1710  179.9880  141.3740 C   0  0  0  0  0  0  0  0  0  0  0  0
  180.6240  180.1410  136.7640 O   0  0  0  0  0  0  0  0  0  0  0  0
  180.4690  181.5320  136.9200 C   0  0  0  0  0  2  0  0  0  0  0  0
  180.5800  182.2060  135.5690 C   0  0  0  0  0  2  0  0  0  0  0  0
  181.1200  183.8420  136.9420 C   0  0  0  0  0  1  0  0  0  0  0  0
  180.4830  183.5860  135.7290 O   0  0  0  0  0  0  0  0  0  0  0  0
  183.8930  177.9130  140.6970 C   0  0  0  0  0  2  0  0  0  0  0  0
  184.6610  179.0520  141.3430 C   0  0  0  0  0  2  0  0  0  0  0  0
  183.7150  179.1890  143.6550 C   0  0  0  0  0  3  0  0  0  0  0  0
  184.7670  178.8210  142.8090 C   0  0  0  0  0  0  0  0  0  0  0  0
  185.9330  178.2670  143.3470 C   0  0  0  0  0  3  0  0  0  0  0  0
  187.5030  177.3770  145.3970 Cl  0  0  0  0  0  0  0  0  0  0  0  0
  184.9890  178.4340  145.5710 C   0  0  0  0  0  3  0  0  0  0  0  0
  186.0430  178.0700  144.7260 C   0  0  0  0  0  0  0  0  0  0  0  0
  183.8240  178.9930  145.0350 C   0  0  0  0  0  3  0  0  0  0  0  0
  2 12  1  0  0  0  0
  3  5  1  0  0  0  0
  4 13  1  6  0  0  0
  4  1  1  0  0  0  0
  4  6  1  0  0  0  0
  5  7  1  0  0  0  0
  5  8  2  0  0  0  0
  6 29  1  0  0  0  0
  7 10  2  0  0  0  0
  8  4  1  0  0  0  0
  9 11  2  0  0  0  0
 10 19  1  0  0  0  0
 10  1  1  0  0  0  0
 11  8  1  0  0  0  0
 12  6  1  0  0  0  0
 13 15  1  0  0  0  0
 14  3  2  0  0  0  0
 14  9  1  0  0  0  0
 15  2  1  0  0  0  0
 15 20  1  1  0  0  0
 16 17  1  0  0  0  0
 16 14  1  0  0  0  0
 18 19  1  0  0  0  0
 20 21  1  0  0  0  0
 21 23  1  0  0  0  0
 23 22  3  0  0  0  0
 24 25  1  0  0  0  0
 24 15  1  0  0  0  0
 26 28  1  0  0  0  0
 26 25  1  0  0  0  0
 28 27  1  0  0  0  0
 29 30  1  0  0  0  0
 30 32  1  0  0  0  0
 31 37  1  0  0  0  0
 32 33  1  0  0  0  0
 32 31  2  0  0  0  0
 33 36  2  0  0  0  0
 36 34  1  0  0  0  0
 36 35  1  0  0  0  0
 37 35  2  0  0  0  0
M  END
>  <MODEL>
1

>  <REMARK>
 VINA RESULT:      -6.1      0.000      0.000
  Name = 
  12 active torsions:
  status: ('A' for Active; 'I' for Inactive)
    1  A    between atoms: C_1  and  N_5
    2  A    between atoms: C_1  and  C_36
    3  A    between atoms: O_3  and  C_32
    4  A    between atoms: N_5  and  C_23
    5  A    between atoms: C_6  and  C_31
    6  A    between atoms: N_14  and  C_37
    7  A    between atoms: C_17  and  C_26
    8  A    between atoms: C_17  and  O_33
    9  A    between atoms: C_24  and  O_28
   10  A    between atoms: C_26  and  O_34
   11  A    between atoms: C_31  and  C_37
   12  A    between atoms: O_33  and  C_36
                            x       y       z     vdW  Elec       q    Type
                         _______ _______ _______ _____ _____    ______ ____

>  <TORSDO>
F 12

$$$$
=
 OpenBabel10272414573D

 37 40  0  0  1  0  0  0  0  0999 V2000
  192.0430  176.7630  138.2580 C   0  0  0  0  0  2  0  0  0  0  0  0
  188.9210  177.5920  140.8640 C   0  0  0  0  0  2  0  0  0  0  0  0
  190.2800  173.5110  136.2260 C   0  0  0  0  0  3  0  0  0  0  0  0
  190.5700  176.4870  138.6150 C   0  0  1  0  0  0  0  0  0  0  0  0
  190.8180  174.5120  137.0380 C   0  0  0  0  0  0  0  0  0  0  0  0
  189.8620  177.7990  138.6090 N   0  0  0  0  0  0  0  0  0  0  0  0
  192.2290  174.5390  137.2760 N   0  0  0  0  0  0  0  0  0  0  0  0
  189.9740  175.4610  137.6490 C   0  0  0  0  0  0  0  0  0  0  0  0
  188.0530  174.3530  136.6430 C   0  0  0  0  0  3  0  0  0  0  0  0
  192.8210  175.5280  137.8750 C   0  0  0  0  0  0  0  0  0  0  0  0
  188.5850  175.3500  137.4630 C   0  0  0  0  0  3  0  0  0  0  0  0
  188.6180  177.7360  139.3720 C   0  0  0  0  0  2  0  0  0  0  0  0
  190.5460  175.8520  140.0260 C   0  0  0  0  0  2  0  0  0  0  0  0
  188.8950  173.4320  136.0160 C   0  0  0  0  0  0  0  0  0  0  0  0
  190.2370  176.8350  141.1710 C   0  0  1  0  0  0  0  0  0  0  0  0
  188.3320  172.4480  135.1990 O   0  0  0  0  0  0  0  0  0  0  0  0
  188.3620  171.0660  135.5300 C   0  0  0  0  0  1  0  0  0  0  0  0
  194.8350  174.2430  138.4900 C   0  0  0  0  0  1  0  0  0  0  0  0
  194.1960  175.4510  138.1020 O   0  0  0  0  0  0  0  0  0  0  0  0
  191.3940  177.8470  141.2920 C   0  0  0  0  0  2  0  0  0  0  0  0
  191.9580  177.8400  142.6320 N   0  0  0  0  0  2  0  0  0  0  0  0
  191.2060  179.6210  144.3780 C   0  0  0  0  0  3  0  0  0  0  0  0
  191.5540  178.7970  143.5690 C   0  0  0  0  0  0  0  0  0  0  0  0
  190.1030  176.0610  142.3540 O   0  0  0  0  0  0  0  0  0  0  0  0
  188.8070  176.1990  142.8860 C   0  0  0  0  0  2  0  0  0  0  0  0
  188.9010  176.5840  144.3470 C   0  0  0  0  0  2  0  0  0  0  0  0
  188.1330  177.8940  145.9440 C   0  0  0  0  0  1  0  0  0  0  0  0
  188.2110  177.7770  144.5580 O   0  0  0  0  0  0  0  0  0  0  0  0
  189.5500  178.2690  137.2600 C   0  0  0  0  0  2  0  0  0  0  0  0
  188.2250  179.0090  137.2630 C   0  0  0  0  0  2  0  0  0  0  0  0
  187.4840  177.9710  135.1100 C   0  0  0  0  0  3  0  0  0  0  0  0
  187.2260  178.2570  136.4560 C   0  0  0  0  0  0  0  0  0  0  0  0
  186.0140  177.8650  137.0330 C   0  0  0  0  0  3  0  0  0  0  0  0
  183.5490  176.6890  136.9940 Cl  0  0  0  0  0  0  0  0  0  0  0  0
  185.3240  176.8880  134.9260 C   0  0  0  0  0  3  0  0  0  0  0  0
  185.0650  177.1790  136.2700 C   0  0  0  0  0  0  0  0  0  0  0  0
  186.5340  177.2840  134.3460 C   0  0  0  0  0  3  0  0  0  0  0  0
  2 15  1  0  0  0  0
  3  5  1  0  0  0  0
  4  1  1  6  0  0  0
  4 13  1  0  0  0  0
  5  7  1  0  0  0  0
  5  8  2  0  0  0  0
  6  4  1  0  0  0  0
  6 12  1  0  0  0  0
  7 10  2  0  0  0  0
  8  4  1  0  0  0  0
  9 11  2  0  0  0  0
 10 19  1  0  0  0  0
 10  1  1  0  0  0  0
 11  8  1  0  0  0  0
 12  2  1  0  0  0  0
 13 15  1  0  0  0  0
 14  3  2  0  0  0  0
 14  9  1  0  0  0  0
 15 20  1  1  0  0  0
 15 24  1  0  0  0  0
 16 17  1  0  0  0  0
 16 14  1  0  0  0  0
 19 18  1  0  0  0  0
 20 21  1  0  0  0  0
 21 23  1  0  0  0  0
 23 22  3  0  0  0  0
 24 25  1  0  0  0  0
 25 26  1  0  0  0  0
 26 28  1  0  0  0  0
 28 27  1  0  0  0  0
 29 30  1  0  0  0  0
 29  6  1  0  0  0  0
 31 32  1  0  0  0  0
 32 33  2  0  0  0  0
 32 30  1  0  0  0  0
 35 36  2  0  0  0  0
 36 34  1  0  0  0  0
 36 33  1  0  0  0  0
 37 35  1  0  0  0  0
 37 31  2  0  0  0  0
M  END
>  <MODEL>
2

>  <REMARK>
 VINA RESULT:      -5.3      6.007      9.478
  Name = 
  12 active torsions:
  status: ('A' for Active; 'I' for Inactive)
    1  A    between atoms: C_1  and  N_5
    2  A    between atoms: C_1  and  C_36
    3  A    between atoms: O_3  and  C_32
    4  A    between atoms: N_5  and  C_23
    5  A    between atoms: C_6  and  C_31
    6  A    between atoms: N_14  and  C_37
    7  A    between atoms: C_17  and  C_26
    8  A    between atoms: C_17  and  O_33
    9  A    between atoms: C_24  and  O_28
   10  A    between atoms: C_26  and  O_34
   11  A    between atoms: C_31  and  C_37
   12  A    between atoms: O_33  and  C_36
                            x       y       z     vdW  Elec       q    Type
                         _______ _______ _______ _____ _____    ______ ____

>  <TORSDO>
F 12

$$$$
=
 OpenBabel10272414573D

 37 40  0  0  1  0  0  0  0  0999 V2000
  189.3610  176.3090  137.9320 C   0  0  0  0  0  2  0  0  0  0  0  0
  188.0090  173.7960  134.9180 C   0  0  0  0  0  2  0  0  0  0  0  0
  193.4470  176.3650  136.8780 C   0  0  0  0  0  3  0  0  0  0  0  0
  189.7060  175.6040  136.6070 C   0  0  1  0  0  0  0  0  0  0  0  0
  192.1030  176.1830  137.2130 C   0  0  0  0  0  0  0  0  0  0  0  0
  188.7040  176.0480  135.5960 N   0  0  0  0  0  0  0  0  0  0  0  0
  191.7080  176.2440  138.5870 N   0  0  0  0  0  0  0  0  0  0  0  0
  191.1540  175.9000  136.2100 C   0  0  0  0  0  0  0  0  0  0  0  0
  192.9360  175.9530  134.5520 C   0  0  0  0  0  3  0  0  0  0  0  0
  190.4640  176.2540  138.9600 C   0  0  0  0  0  0  0  0  0  0  0  0
  191.5930  175.7610  134.8830 C   0  0  0  0  0  3  0  0  0  0  0  0
  188.6350  175.1190  134.4720 C   0  0  0  0  0  2  0  0  0  0  0  0
  189.6040  174.0790  136.8530 C   0  0  0  0  0  2  0  0  0  0  0  0
  193.8690  176.2610  135.5440 C   0  0  0  0  0  0  0  0  0  0  0  0
  188.2780  173.4390  136.4010 C   0  0  1  0  0  0  0  0  0  0  0  0
  195.2060  176.4500  135.1810 O   0  0  0  0  0  0  0  0  0  0  0  0
  195.6850  177.6680  134.6280 C   0  0  0  0  0  1  0  0  0  0  0  0
  190.8140  177.1650  141.2250 C   0  0  0  0  0  1  0  0  0  0  0  0
  190.1710  176.2740  140.3250 O   0  0  0  0  0  0  0  0  0  0  0  0
  187.1310  173.9860  137.2760 C   0  0  0  0  0  2  0  0  0  0  0  0
  186.3030  172.9060  137.7870 N   0  0  0  0  0  2  0  0  0  0  0  0
  183.8010  172.7310  137.0880 C   0  0  0  0  0  3  0  0  0  0  0  0
  184.9590  172.8120  137.4110 C   0  0  0  0  0  0  0  0  0  0  0  0
  188.4230  172.0360  136.5580 O   0  0  0  0  0  0  0  0  0  0  0  0
  188.3500  171.3920  135.3080 C   0  0  0  0  0  2  0  0  0  0  0  0
  187.9340  169.9500  135.5070 C   0  0  0  0  0  2  0  0  0  0  0  0
  186.0040  170.5370  134.6180 C   0  0  0  0  0  1  0  0  0  0  0  0
  187.0210  169.5890  134.5180 O   0  0  0  0  0  0  0  0  0  0  0  0
  188.9820  177.3840  135.0720 C   0  0  0  0  0  2  0  0  0  0  0  0
  187.6840  178.0690  134.6850 C   0  0  0  0  0  2  0  0  0  0  0  0
  185.5600  176.8830  135.2680 C   0  0  0  0  0  3  0  0  0  0  0  0
  186.6170  177.7140  135.6570 C   0  0  0  0  0  0  0  0  0  0  0  0
  186.6500  178.2380  136.9540 C   0  0  0  0  0  3  0  0  0  0  0  0
  185.6800  178.5800  139.4840 Cl  0  0  0  0  0  0  0  0  0  0  0  0
  184.5830  177.0880  137.4750 C   0  0  0  0  0  3  0  0  0  0  0  0
  185.6360  177.9240  137.8630 C   0  0  0  0  0  0  0  0  0  0  0  0
  184.5450  176.5680  136.1770 C   0  0  0  0  0  3  0  0  0  0  0  0
  1 10  1  0  0  0  0
  2 15  1  0  0  0  0
  3  5  1  0  0  0  0
  4 13  1  1  0  0  0
  4  1  1  0  0  0  0
  5  7  1  0  0  0  0
  6  4  1  0  0  0  0
  7 10  2  0  0  0  0
  8  4  1  0  0  0  0
  8  5  2  0  0  0  0
  9 11  2  0  0  0  0
  9 14  1  0  0  0  0
 10 19  1  0  0  0  0
 11  8  1  0  0  0  0
 12  2  1  0  0  0  0
 12  6  1  0  0  0  0
 14  3  2  0  0  0  0
 15 24  1  0  0  0  0
 15 13  1  0  0  0  0
 15 20  1  1  0  0  0
 16 14  1  0  0  0  0
 17 16  1  0  0  0  0
 19 18  1  0  0  0  0
 20 21  1  0  0  0  0
 22 23  3  0  0  0  0
 23 21  1  0  0  0  0
 25 26  1  0  0  0  0
 25 24  1  0  0  0  0
 28 27  1  0  0  0  0
 28 26  1  0  0  0  0
 29  6  1  0  0  0  0
 30 29  1  0  0  0  0
 30 32  1  0  0  0  0
 31 32  2  0  0  0  0
 31 37  1  0  0  0  0
 32 33  1  0  0  0  0
 33 36  2  0  0  0  0
 35 36  1  0  0  0  0
 36 34  1  0  0  0  0
 37 35  2  0  0  0  0
M  END
>  <MODEL>
3

>  <REMARK>
 VINA RESULT:      -5.0      5.753      9.467
  Name = 
  12 active torsions:
  status: ('A' for Active; 'I' for Inactive)
    1  A    between atoms: C_1  and  N_5
    2  A    between atoms: C_1  and  C_36
    3  A    between atoms: O_3  and  C_32
    4  A    between atoms: N_5  and  C_23
    5  A    between atoms: C_6  and  C_31
    6  A    between atoms: N_14  and  C_37
    7  A    between atoms: C_17  and  C_26
    8  A    between atoms: C_17  and  O_33
    9  A    between atoms: C_24  and  O_28
   10  A    between atoms: C_26  and  O_34
   11  A    between atoms: C_31  and  C_37
   12  A    between atoms: O_33  and  C_36
                            x       y       z     vdW  Elec       q    Type
                         _______ _______ _______ _____ _____    ______ ____

>  <TORSDO>
F 12

$$$$
=
 OpenBabel10272414573D

 37 40  0  0  1  0  0  0  0  0999 V2000
  189.5600  174.7780  135.2510 C   0  0  0  0  0  2  0  0  0  0  0  0
  188.7450  177.4350  138.3340 C   0  0  0  0  0  2  0  0  0  0  0  0
  186.5500  171.9420  136.0930 C   0  0  0  0  0  3  0  0  0  0  0  0
  188.5720  175.1800  136.3620 C   0  0  1  0  0  0  0  0  0  0  0  0
  187.5840  172.8730  135.9740 C   0  0  0  0  0  0  0  0  0  0  0  0
  188.1680  176.5920  136.1050 N   0  0  0  0  0  0  0  0  0  0  0  0
  188.8480  172.4550  135.4480 N   0  0  0  0  0  0  0  0  0  0  0  0
  187.3970  174.2020  136.4070 C   0  0  0  0  0  0  0  0  0  0  0  0
  185.1380  173.6220  137.1060 C   0  0  0  0  0  3  0  0  0  0  0  0
  189.7960  173.2910  135.1510 C   0  0  0  0  0  0  0  0  0  0  0  0
  186.1720  174.5540  136.9980 C   0  0  0  0  0  3  0  0  0  0  0  0
  187.6310  177.2200  137.3080 C   0  0  0  0  0  2  0  0  0  0  0  0
  189.3190  175.0570  137.7130 C   0  0  0  0  0  2  0  0  0  0  0  0
  185.3170  172.3140  136.6510 C   0  0  0  0  0  0  0  0  0  0  0  0
  189.8790  176.3810  138.2640 C   0  0  1  0  0  0  0  0  0  0  0  0
  184.2620  171.4050  136.7700 O   0  0  0  0  0  0  0  0  0  0  0  0
  182.9100  171.8150  136.9240 C   0  0  0  0  0  1  0  0  0  0  0  0
  192.1090  172.5300  135.5450 C   0  0  0  0  0  1  0  0  0  0  0  0
  191.0110  172.7900  134.6810 O   0  0  0  0  0  0  0  0  0  0  0  0
  190.9920  176.8880  137.3240 C   0  0  0  0  0  2  0  0  0  0  0  0
  192.3050  176.5060  137.8160 N   0  0  0  0  0  2  0  0  0  0  0  0
  194.1290  175.6650  136.1570 C   0  0  0  0  0  3  0  0  0  0  0  0
  193.2850  176.0530  136.9250 C   0  0  0  0  0  0  0  0  0  0  0  0
  190.3850  176.1060  139.5620 O   0  0  0  0  0  0  0  0  0  0  0  0
  189.9350  177.0760  140.4790 C   0  0  0  0  0  2  0  0  0  0  0  0
  190.6790  176.9130  141.7880 C   0  0  0  0  0  2  0  0  0  0  0  0
  189.1730  176.0780  143.1630 C   0  0  0  0  0  1  0  0  0  0  0  0
  190.2850  175.7260  142.4010 O   0  0  0  0  0  0  0  0  0  0  0  0
  187.1730  176.7110  135.0410 C   0  0  0  0  0  2  0  0  0  0  0  0
  186.1070  177.7160  135.4380 C   0  0  0  0  0  2  0  0  0  0  0  0
  184.3860  176.2570  134.3580 C   0  0  0  0  0  3  0  0  0  0  0  0
  184.7710  177.0620  135.4360 C   0  0  0  0  0  0  0  0  0  0  0  0
  183.8850  177.2780  136.4970 C   0  0  0  0  0  3  0  0  0  0  0  0
  181.5140  176.9540  137.8140 Cl  0  0  0  0  0  0  0  0  0  0  0  0
  182.2380  175.8740  135.4100 C   0  0  0  0  0  3  0  0  0  0  0  0
  182.6210  176.6830  136.4850 C   0  0  0  0  0  0  0  0  0  0  0  0
  183.1200  175.6610  134.3460 C   0  0  0  0  0  3  0  0  0  0  0  0
  3 14  1  0  0  0  0
  4  1  1  6  0  0  0
  4  8  1  0  0  0  0
  4 13  1  0  0  0  0
  5  3  2  0  0  0  0
  5  8  1  0  0  0  0
  6  4  1  0  0  0  0
  6 12  1  0  0  0  0
  7  5  1  0  0  0  0
  8 11  2  0  0  0  0
 10  1  1  0  0  0  0
 10  7  2  0  0  0  0
 11  9  1  0  0  0  0
 12  2  1  0  0  0  0
 13 15  1  0  0  0  0
 14 16  1  0  0  0  0
 14  9  2  0  0  0  0
 15 20  1  6  0  0  0
 15  2  1  0  0  0  0
 15 24  1  0  0  0  0
 16 17  1  0  0  0  0
 19 10  1  0  0  0  0
 19 18  1  0  0  0  0
 20 21  1  0  0  0  0
 22 23  3  0  0  0  0
 23 21  1  0  0  0  0
 24 25  1  0  0  0  0
 25 26  1  0  0  0  0
 26 28  1  0  0  0  0
 28 27  1  0  0  0  0
 29 30  1  0  0  0  0
 29  6  1  0  0  0  0
 31 32  1  0  0  0  0
 32 30  1  0  0  0  0
 32 33  2  0  0  0  0
 35 36  2  0  0  0  0
 36 33  1  0  0  0  0
 36 34  1  0  0  0  0
 37 31  2  0  0  0  0
 37 35  1  0  0  0  0
M  END
>  <MODEL>
4

>  <REMARK>
 VINA RESULT:      -4.7      5.482      9.310
  Name = 
  12 active torsions:
  status: ('A' for Active; 'I' for Inactive)
    1  A    between atoms: C_1  and  N_5
    2  A    between atoms: C_1  and  C_36
    3  A    between atoms: O_3  and  C_32
    4  A    between atoms: N_5  and  C_23
    5  A    between atoms: C_6  and  C_31
    6  A    between atoms: N_14  and  C_37
    7  A    between atoms: C_17  and  C_26
    8  A    between atoms: C_17  and  O_33
    9  A    between atoms: C_24  and  O_28
   10  A    between atoms: C_26  and  O_34
   11  A    between atoms: C_31  and  C_37
   12  A    between atoms: O_33  and  C_36
                            x       y       z     vdW  Elec       q    Type
                         _______ _______ _______ _____ _____    ______ ____

>  <TORSDO>
F 12

$$$$
=
 OpenBabel10272414573D

 37 40  0  0  1  0  0  0  0  0999 V2000
  188.1210  174.7750  137.8450 C   0  0  0  0  0  2  0  0  0  0  0  0
  188.4270  178.8450  137.0950 C   0  0  0  0  0  2  0  0  0  0  0  0
  191.6880  173.5460  135.9520 C   0  0  0  0  0  3  0  0  0  0  0  0
  189.0280  175.9170  137.3500 C   0  0  1  0  0  0  0  0  0  0  0  0
  190.4760  174.0390  136.4420 C   0  0  0  0  0  0  0  0  0  0  0  0
  189.1140  176.9210  138.4500 N   0  0  0  0  0  0  0  0  0  0  0  0
  189.3180  173.1980  136.4220 N   0  0  0  0  0  0  0  0  0  0  0  0
  190.3860  175.3650  136.9120 C   0  0  0  0  0  0  0  0  0  0  0  0
  192.7330  175.6890  136.3530 C   0  0  0  0  0  3  0  0  0  0  0  0
  188.2050  173.5210  137.0100 C   0  0  0  0  0  0  0  0  0  0  0  0
  191.5220  176.1880  136.8350 C   0  0  0  0  0  3  0  0  0  0  0  0
  189.5360  178.2260  137.9480 C   0  0  0  0  0  2  0  0  0  0  0  0
  188.3600  176.5290  136.0950 C   0  0  0  0  0  2  0  0  0  0  0  0
  192.8260  174.3660  135.9150 C   0  0  0  0  0  0  0  0  0  0  0  0
  187.5440  177.8090  136.3570 C   0  0  1  0  0  0  0  0  0  0  0  0
  194.0540  173.8950  135.4410 O   0  0  0  0  0  0  0  0  0  0  0  0
  194.9030  173.0560  136.2120 C   0  0  0  0  0  1  0  0  0  0  0  0
  186.9150  171.8220  135.7730 C   0  0  0  0  0  1  0  0  0  0  0  0
  187.1140  172.6580  136.9040 O   0  0  0  0  0  0  0  0  0  0  0  0
  186.3250  177.4590  137.2350 C   0  0  0  0  0  2  0  0  0  0  0  0
  185.9760  178.5650  138.1120 N   0  0  0  0  0  2  0  0  0  0  0  0
  183.7700  178.4940  139.4950 C   0  0  0  0  0  3  0  0  0  0  0  0
  184.7910  178.5260  138.8540 C   0  0  0  0  0  0  0  0  0  0  0  0
  187.1410  178.3080  135.0910 O   0  0  0  0  0  0  0  0  0  0  0  0
  186.4810  177.3040  134.3560 C   0  0  0  0  0  2  0  0  0  0  0  0
  184.9910  177.5720  134.3630 C   0  0  0  0  0  2  0  0  0  0  0  0
  182.9600  176.7400  134.5620 C   0  0  0  0  0  1  0  0  0  0  0  0
  184.3050  176.3730  134.5480 O   0  0  0  0  0  0  0  0  0  0  0  0
  190.0340  176.5180  139.5120 C   0  0  0  0  0  2  0  0  0  0  0  0
  190.3690  177.7120  140.3880 C   0  0  0  0  0  2  0  0  0  0  0  0
  191.3160  176.6270  142.4330 C   0  0  0  0  0  3  0  0  0  0  0  0
  190.2720  177.3290  141.8220 C   0  0  0  0  0  0  0  0  0  0  0  0
  189.1200  177.6410  142.5520 C   0  0  0  0  0  3  0  0  0  0  0  0
  187.5750  177.6540  144.8040 Cl  0  0  0  0  0  0  0  0  0  0  0  0
  190.0630  176.5640  144.5050 C   0  0  0  0  0  3  0  0  0  0  0  0
  189.0160  177.2620  143.8930 C   0  0  0  0  0  0  0  0  0  0  0  0
  191.2130  176.2470  143.7750 C   0  0  0  0  0  3  0  0  0  0  0  0
  2 12  1  0  0  0  0
  3  5  1  0  0  0  0
  4 13  1  6  0  0  0
  4  1  1  0  0  0  0
  4  6  1  0  0  0  0
  5  8  2  0  0  0  0
  6 29  1  0  0  0  0
  7  5  1  0  0  0  0
  7 10  2  0  0  0  0
  8  4  1  0  0  0  0
  9 11  2  0  0  0  0
 10  1  1  0  0  0  0
 11  8  1  0  0  0  0
 12  6  1  0  0  0  0
 13 15  1  0  0  0  0
 14  3  2  0  0  0  0
 14  9  1  0  0  0  0
 15  2  1  0  0  0  0
 15 20  1  1  0  0  0
 16 14  1  0  0  0  0
 16 17  1  0  0  0  0
 18 19  1  0  0  0  0
 19 10  1  0  0  0  0
 20 21  1  0  0  0  0
 21 23  1  0  0  0  0
 23 22  3  0  0  0  0
 24 15  1  0  0  0  0
 25 26  1  0  0  0  0
 25 24  1  0  0  0  0
 26 28  1  0  0  0  0
 28 27  1  0  0  0  0
 29 30  1  0  0  0  0
 30 32  1  0  0  0  0
 31 37  1  0  0  0  0
 32 31  2  0  0  0  0
 32 33  1  0  0  0  0
 33 36  2  0  0  0  0
 36 35  1  0  0  0  0
 36 34  1  0  0  0  0
 37 35  2  0  0  0  0
M  END
>  <MODEL>
5

>  <REMARK>
 VINA RESULT:      -4.6      4.152      6.664
  Name = 
  12 active torsions:
  status: ('A' for Active; 'I' for Inactive)
    1  A    between atoms: C_1  and  N_5
    2  A    between atoms: C_1  and  C_36
    3  A    between atoms: O_3  and  C_32
    4  A    between atoms: N_5  and  C_23
    5  A    between atoms: C_6  and  C_31
    6  A    between atoms: N_14  and  C_37
    7  A    between atoms: C_17  and  C_26
    8  A    between atoms: C_17  and  O_33
    9  A    between atoms: C_24  and  O_28
   10  A    between atoms: C_26  and  O_34
   11  A    between atoms: C_31  and  C_37
   12  A    between atoms: O_33  and  C_36
                            x       y       z     vdW  Elec       q    Type
                         _______ _______ _______ _____ _____    ______ ____

>  <TORSDO>
F 12

$$$$
=
 OpenBabel10272414573D

 37 40  0  0  1  0  0  0  0  0999 V2000
  189.2060  177.4830  136.5290 C   0  0  0  0  0  2  0  0  0  0  0  0
  190.3570  173.5410  137.1290 C   0  0  0  0  0  2  0  0  0  0  0  0
  188.4900  178.5180  140.5580 C   0  0  0  0  0  3  0  0  0  0  0  0
  189.6050  176.4120  137.5620 C   0  0  1  0  0  0  0  0  0  0  0  0
  188.6360  178.0410  139.2530 C   0  0  0  0  0  0  0  0  0  0  0  0
  190.9590  175.9170  137.1840 N   0  0  0  0  0  0  0  0  0  0  0  0
  187.8370  178.6030  138.2070 N   0  0  0  0  0  0  0  0  0  0  0  0
  189.5330  176.9880  138.9780 C   0  0  0  0  0  0  0  0  0  0  0  0
  190.0930  176.8890  141.3450 C   0  0  0  0  0  3  0  0  0  0  0  0
  188.0340  178.3340  136.9510 C   0  0  0  0  0  0  0  0  0  0  0  0
  190.2360  176.4030  140.0440 C   0  0  0  0  0  3  0  0  0  0  0  0
  191.2340  174.6120  137.7800 C   0  0  0  0  0  2  0  0  0  0  0  0
  188.5580  175.2750  137.4790 C   0  0  0  0  0  2  0  0  0  0  0  0
  189.2250  177.9510  141.6090 C   0  0  0  0  0  0  0  0  0  0  0  0
  188.9860  174.0630  136.6320 C   0  0  1  0  0  0  0  0  0  0  0  0
  189.1060  178.4170  142.9220 O   0  0  0  0  0  0  0  0  0  0  0  0
  190.0870  178.1610  143.9190 C   0  0  0  0  0  1  0  0  0  0  0  0
  186.7290  178.1730  134.8650 C   0  0  0  0  0  1  0  0  0  0  0  0
  187.1790  178.8960  136.0020 O   0  0  0  0  0  0  0  0  0  0  0  0
  189.1090  174.4980  135.1570 C   0  0  0  0  0  2  0  0  0  0  0  0
  189.9290  173.5640  134.4020 N   0  0  0  0  0  2  0  0  0  0  0  0
  192.5210  173.8170  134.3820 C   0  0  0  0  0  3  0  0  0  0  0  0
  191.3210  173.7010  134.3920 C   0  0  0  0  0  0  0  0  0  0  0  0
  187.9850  173.0710  136.7950 O   0  0  0  0  0  0  0  0  0  0  0  0
  186.7250  173.6720  136.9800 C   0  0  0  0  0  2  0  0  0  0  0  0
  185.6410  172.7230  136.5140 C   0  0  0  0  0  2  0  0  0  0  0  0
  183.6970  171.7890  136.9670 C   0  0  0  0  0  1  0  0  0  0  0  0
  184.5340  172.8350  137.3530 O   0  0  0  0  0  0  0  0  0  0  0  0
  192.0280  176.8340  137.5760 C   0  0  0  0  0  2  0  0  0  0  0  0
  193.2300  176.0500  138.0690 C   0  0  0  0  0  2  0  0  0  0  0  0
  194.2390  176.7990  135.9050 C   0  0  0  0  0  3  0  0  0  0  0  0
  194.2100  175.8820  136.9620 C   0  0  0  0  0  0  0  0  0  0  0  0
  195.0810  174.7870  136.9600 C   0  0  0  0  0  3  0  0  0  0  0  0
  197.0760  173.2450  135.9090 Cl  0  0  0  0  0  0  0  0  0  0  0  0
  196.0190  175.5350  134.8560 C   0  0  0  0  0  3  0  0  0  0  0  0
  195.9870  174.6150  135.9100 C   0  0  0  0  0  0  0  0  0  0  0  0
  195.1450  176.6270  134.8540 C   0  0  0  0  0  3  0  0  0  0  0  0
  1 10  1  0  0  0  0
  2 12  1  0  0  0  0
  3 14  1  0  0  0  0
  4  1  1  6  0  0  0
  4  8  1  0  0  0  0
  5  3  2  0  0  0  0
  6  4  1  0  0  0  0
  6 29  1  0  0  0  0
  6 12  1  0  0  0  0
  7  5  1  0  0  0  0
  8  5  1  0  0  0  0
  8 11  2  0  0  0  0
  9 14  2  0  0  0  0
 10  7  2  0  0  0  0
 11  9  1  0  0  0  0
 13  4  1  0  0  0  0
 14 16  1  0  0  0  0
 15 20  1  6  0  0  0
 15 24  1  0  0  0  0
 15  2  1  0  0  0  0
 15 13  1  0  0  0  0
 16 17  1  0  0  0  0
 18 19  1  0  0  0  0
 19 10  1  0  0  0  0
 21 20  1  0  0  0  0
 22 23  3  0  0  0  0
 23 21  1  0  0  0  0
 24 25  1  0  0  0  0
 26 25  1  0  0  0  0
 26 28  1  0  0  0  0
 27 28  1  0  0  0  0
 29 30  1  0  0  0  0
 31 32  1  0  0  0  0
 32 30  1  0  0  0  0
 33 32  2  0  0  0  0
 34 36  1  0  0  0  0
 35 36  2  0  0  0  0
 36 33  1  0  0  0  0
 37 35  1  0  0  0  0
 37 31  2  0  0  0  0
M  END
>  <MODEL>
6

>  <REMARK>
 VINA RESULT:      -4.5      6.054     10.434
  Name = 
  12 active torsions:
  status: ('A' for Active; 'I' for Inactive)
    1  A    between atoms: C_1  and  N_5
    2  A    between atoms: C_1  and  C_36
    3  A    between atoms: O_3  and  C_32
    4  A    between atoms: N_5  and  C_23
    5  A    between atoms: C_6  and  C_31
    6  A    between atoms: N_14  and  C_37
    7  A    between atoms: C_17  and  C_26
    8  A    between atoms: C_17  and  O_33
    9  A    between atoms: C_24  and  O_28
   10  A    between atoms: C_26  and  O_34
   11  A    between atoms: C_31  and  C_37
   12  A    between atoms: O_33  and  C_36
                            x       y       z     vdW  Elec       q    Type
                         _______ _______ _______ _____ _____    ______ ____

>  <TORSDO>
F 12

$$$$
=
 OpenBabel10272414573D

 37 40  0  0  1  0  0  0  0  0999 V2000
  191.0140  175.4390  138.7750 C   0  0  0  0  0  2  0  0  0  0  0  0
  193.2260  174.2810  135.4600 C   0  0  0  0  0  2  0  0  0  0  0  0
  188.2250  177.9150  136.8000 C   0  0  0  0  0  3  0  0  0  0  0  0
  191.0960  175.4210  137.2370 C   0  0  1  0  0  0  0  0  0  0  0  0
  189.2640  177.1760  137.3700 C   0  0  0  0  0  0  0  0  0  0  0  0
  191.2040  173.9950  136.8170 N   0  0  0  0  0  0  0  0  0  0  0  0
  189.7120  177.4980  138.6900 N   0  0  0  0  0  0  0  0  0  0  0  0
  189.8930  176.1510  136.6340 C   0  0  0  0  0  0  0  0  0  0  0  0
  188.4400  176.6560  134.7470 C   0  0  0  0  0  3  0  0  0  0  0  0
  190.5500  176.7560  139.3480 C   0  0  0  0  0  0  0  0  0  0  0  0
  189.4850  175.9210  135.3090 C   0  0  0  0  0  3  0  0  0  0  0  0
  191.7500  173.8770  135.4680 C   0  0  0  0  0  2  0  0  0  0  0  0
  192.3610  176.2150  136.8300 C   0  0  0  0  0  2  0  0  0  0  0  0
  187.8000  177.6520  135.4880 C   0  0  0  0  0  0  0  0  0  0  0  0
  193.5950  175.3480  136.5200 C   0  0  1  0  0  0  0  0  0  0  0  0
  186.7550  178.3680  134.8990 O   0  0  0  0  0  0  0  0  0  0  0  0
  185.6070  177.7370  134.3460 C   0  0  0  0  0  1  0  0  0  0  0  0
  192.2780  177.6420  140.8680 C   0  0  0  0  0  1  0  0  0  0  0  0
  190.9630  177.1690  140.6160 O   0  0  0  0  0  0  0  0  0  0  0  0
  194.0550  174.6460  137.8140 C   0  0  0  0  0  2  0  0  0  0  0  0
  194.8270  175.5480  138.6530 N   0  0  0  0  0  2  0  0  0  0  0  0
  196.8910  174.6650  139.9720 C   0  0  0  0  0  3  0  0  0  0  0  0
  195.9350  175.0740  139.3620 C   0  0  0  0  0  0  0  0  0  0  0  0
  194.5970  176.2200  136.0220 O   0  0  0  0  0  0  0  0  0  0  0  0
  195.1440  175.7100  134.8290 C   0  0  0  0  0  2  0  0  0  0  0  0
  196.5420  176.2580  134.6400 C   0  0  0  0  0  2  0  0  0  0  0  0
  197.7070  175.0000  136.0250 C   0  0  0  0  0  1  0  0  0  0  0  0
  197.1990  176.2890  135.8690 O   0  0  0  0  0  0  0  0  0  0  0  0
  189.9220  173.2940  136.8560 C   0  0  0  0  0  2  0  0  0  0  0  0
  189.7230  172.5050  135.5740 C   0  0  0  0  0  2  0  0  0  0  0  0
  187.2700  172.9410  135.8020 C   0  0  0  0  0  3  0  0  0  0  0  0
  188.3070  172.0620  135.4690 C   0  0  0  0  0  0  0  0  0  0  0  0
  188.0120  170.7550  135.0690 C   0  0  0  0  0  3  0  0  0  0  0  0
  186.3160  168.6930  134.4900 Cl  0  0  0  0  0  0  0  0  0  0  0  0
  185.6460  171.2100  135.3200 C   0  0  0  0  0  3  0  0  0  0  0  0
  186.6830  170.3290  134.9910 C   0  0  0  0  0  0  0  0  0  0  0  0
  185.9400  172.5160  135.7250 C   0  0  0  0  0  3  0  0  0  0  0  0
  1 10  1  0  0  0  0
  2 12  1  0  0  0  0
  2 15  1  0  0  0  0
  3  5  1  0  0  0  0
  4 13  1  6  0  0  0
  4  1  1  0  0  0  0
  5  7  1  0  0  0  0
  6 29  1  0  0  0  0
  6  4  1  0  0  0  0
  7 10  2  0  0  0  0
  8  4  1  0  0  0  0
  8  5  2  0  0  0  0
  9 11  2  0  0  0  0
  9 14  1  0  0  0  0
 10 19  1  0  0  0  0
 11  8  1  0  0  0  0
 12  6  1  0  0  0  0
 14  3  2  0  0  0  0
 15 13  1  0  0  0  0
 15 20  1  1  0  0  0
 16 14  1  0  0  0  0
 17 16  1  0  0  0  0
 19 18  1  0  0  0  0
 20 21  1  0  0  0  0
 21 23  1  0  0  0  0
 23 22  3  0  0  0  0
 24 15  1  0  0  0  0
 25 24  1  0  0  0  0
 26 25  1  0  0  0  0
 26 28  1  0  0  0  0
 28 27  1  0  0  0  0
 30 29  1  0  0  0  0
 32 30  1  0  0  0  0
 32 31  2  0  0  0  0
 33 32  1  0  0  0  0
 34 36  1  0  0  0  0
 35 37  2  0  0  0  0
 36 33  2  0  0  0  0
 36 35  1  0  0  0  0
 37 31  1  0  0  0  0
M  END
>  <MODEL>
7

>  <REMARK>
 VINA RESULT:      -4.5      6.945     11.794
  Name = 
  12 active torsions:
  status: ('A' for Active; 'I' for Inactive)
    1  A    between atoms: C_1  and  N_5
    2  A    between atoms: C_1  and  C_36
    3  A    between atoms: O_3  and  C_32
    4  A    between atoms: N_5  and  C_23
    5  A    between atoms: C_6  and  C_31
    6  A    between atoms: N_14  and  C_37
    7  A    between atoms: C_17  and  C_26
    8  A    between atoms: C_17  and  O_33
    9  A    between atoms: C_24  and  O_28
   10  A    between atoms: C_26  and  O_34
   11  A    between atoms: C_31  and  C_37
   12  A    between atoms: O_33  and  C_36
                            x       y       z     vdW  Elec       q    Type
                         _______ _______ _______ _____ _____    ______ ____

>  <TORSDO>
F 12

$$$$
=
 OpenBabel10272414573D

 37 40  0  0  1  0  0  0  0  0999 V2000
  187.1660  177.7750  136.7650 C   0  0  0  0  0  2  0  0  0  0  0  0
  187.9800  173.8610  135.6500 C   0  0  0  0  0  2  0  0  0  0  0  0
  189.3850  177.8500  140.3540 C   0  0  0  0  0  3  0  0  0  0  0  0
  188.0210  176.5220  137.0330 C   0  0  1  0  0  0  0  0  0  0  0  0
  188.5870  177.6830  139.2200 C   0  0  0  0  0  0  0  0  0  0  0  0
  188.7310  176.1920  135.7640 N   0  0  0  0  0  0  0  0  0  0  0  0
  187.3670  178.4230  139.1070 N   0  0  0  0  0  0  0  0  0  0  0  0
  188.9590  176.7640  138.2180 C   0  0  0  0  0  0  0  0  0  0  0  0
  190.9180  176.1690  139.5360 C   0  0  0  0  0  3  0  0  0  0  0  0
  186.6610  178.4500  138.0170 C   0  0  0  0  0  0  0  0  0  0  0  0
  190.1180  175.9920  138.4050 C   0  0  0  0  0  3  0  0  0  0  0  0
  189.1810  174.8030  135.7520 C   0  0  0  0  0  2  0  0  0  0  0  0
  187.0580  175.3810  137.4410 C   0  0  0  0  0  2  0  0  0  0  0  0
  190.5610  177.1000  140.5130 C   0  0  0  0  0  0  0  0  0  0  0  0
  186.6880  174.4110  136.3030 C   0  0  1  0  0  0  0  0  0  0  0  0
  191.3840  177.2560  141.6320 O   0  0  0  0  0  0  0  0  0  0  0  0
  191.1790  176.5380  142.8420 C   0  0  0  0  0  1  0  0  0  0  0  0
  184.5450  179.1200  139.0920 C   0  0  0  0  0  1  0  0  0  0  0  0
  185.4630  179.1660  138.0090 O   0  0  0  0  0  0  0  0  0  0  0  0
  185.8620  175.1690  135.2440 C   0  0  0  0  0  2  0  0  0  0  0  0
  184.4370  174.9730  135.4540 N   0  0  0  0  0  2  0  0  0  0  0  0
  183.1000  176.6090  136.9770 C   0  0  0  0  0  3  0  0  0  0  0  0
  183.7190  175.8520  136.2710 C   0  0  0  0  0  0  0  0  0  0  0  0
  185.9360  173.3590  136.8870 O   0  0  0  0  0  0  0  0  0  0  0  0
  186.2510  172.1310  136.2730 C   0  0  0  0  0  2  0  0  0  0  0  0
  184.9750  171.4530  135.8210 C   0  0  0  0  0  2  0  0  0  0  0  0
  182.7900  171.5760  136.0740 C   0  0  0  0  0  1  0  0  0  0  0  0
  183.9870  171.6330  136.7860 O   0  0  0  0  0  0  0  0  0  0  0  0
  189.8880  177.0520  135.5220 C   0  0  0  0  0  2  0  0  0  0  0  0
  190.7690  176.4440  134.4460 C   0  0  0  0  0  2  0  0  0  0  0  0
  192.6230  176.5150  136.1250 C   0  0  0  0  0  3  0  0  0  0  0  0
  191.9890  175.8580  135.0650 C   0  0  0  0  0  0  0  0  0  0  0  0
  192.5220  174.6660  134.5640 C   0  0  0  0  0  3  0  0  0  0  0  0
  194.3460  172.6340  134.5010 Cl  0  0  0  0  0  0  0  0  0  0  0  0
  194.3120  174.7800  136.1920 C   0  0  0  0  0  3  0  0  0  0  0  0
  193.6810  174.1250  135.1290 C   0  0  0  0  0  0  0  0  0  0  0  0
  193.7820  175.9750  136.6910 C   0  0  0  0  0  3  0  0  0  0  0  0
  1 10  1  0  0  0  0
  2 12  1  0  0  0  0
  2 15  1  0  0  0  0
  3 14  1  0  0  0  0
  4  1  1  6  0  0  0
  4 13  1  0  0  0  0
  4  8  1  0  0  0  0
  5  3  2  0  0  0  0
  6  4  1  0  0  0  0
  7  5  1  0  0  0  0
  8 11  2  0  0  0  0
  8  5  1  0  0  0  0
  9 14  2  0  0  0  0
 10  7  2  0  0  0  0
 11  9  1  0  0  0  0
 12  6  1  0  0  0  0
 14 16  1  0  0  0  0
 15 20  1  6  0  0  0
 15 24  1  0  0  0  0
 15 13  1  0  0  0  0
 16 17  1  0  0  0  0
 19 10  1  0  0  0  0
 19 18  1  0  0  0  0
 20 21  1  0  0  0  0
 21 23  1  0  0  0  0
 23 22  3  0  0  0  0
 25 24  1  0  0  0  0
 26 25  1  0  0  0  0
 26 28  1  0  0  0  0
 27 28  1  0  0  0  0
 29  6  1  0  0  0  0
 30 32  1  0  0  0  0
 30 29  1  0  0  0  0
 31 37  1  0  0  0  0
 32 31  2  0  0  0  0
 33 32  1  0  0  0  0
 33 36  2  0  0  0  0
 34 36  1  0  0  0  0
 35 37  2  0  0  0  0
 36 35  1  0  0  0  0
M  END
>  <MODEL>
8

>  <REMARK>
 VINA RESULT:      -4.3      4.783      9.066
  Name = 
  12 active torsions:
  status: ('A' for Active; 'I' for Inactive)
    1  A    between atoms: C_1  and  N_5
    2  A    between atoms: C_1  and  C_36
    3  A    between atoms: O_3  and  C_32
    4  A    between atoms: N_5  and  C_23
    5  A    between atoms: C_6  and  C_31
    6  A    between atoms: N_14  and  C_37
    7  A    between atoms: C_17  and  C_26
    8  A    between atoms: C_17  and  O_33
    9  A    between atoms: C_24  and  O_28
   10  A    between atoms: C_26  and  O_34
   11  A    between atoms: C_31  and  C_37
   12  A    between atoms: O_33  and  C_36
                            x       y       z     vdW  Elec       q    Type
                         _______ _______ _______ _____ _____    ______ ____

>  <TORSDO>
F 12

$$$$
=
 OpenBabel10272414573D

 37 40  0  0  1  0  0  0  0  0999 V2000
  182.8820  176.8310  139.2860 C   0  0  0  0  0  2  0  0  0  0  0  0
  184.0400  175.9980  135.3880 C   0  0  0  0  0  2  0  0  0  0  0  0
  181.3480  180.7090  138.6400 C   0  0  0  0  0  3  0  0  0  0  0  0
  182.8140  177.2720  137.8120 C   0  0  1  0  0  0  0  0  0  0  0  0
  181.9880  179.4740  138.7690 C   0  0  0  0  0  0  0  0  0  0  0  0
  182.2320  176.1380  137.0380 N   0  0  0  0  0  0  0  0  0  0  0  0
  182.6450  179.1500  139.9990 N   0  0  0  0  0  0  0  0  0  0  0  0
  182.0220  178.5750  137.6840 C   0  0  0  0  0  0  0  0  0  0  0  0
  180.7950  180.1950  136.3440 C   0  0  0  0  0  3  0  0  0  0  0  0
  183.1120  177.9660  140.2540 C   0  0  0  0  0  0  0  0  0  0  0  0
  181.4410  178.9640  136.4650 C   0  0  0  0  0  3  0  0  0  0  0  0
  182.5480  176.2450  135.6170 C   0  0  0  0  0  2  0  0  0  0  0  0
  184.2600  177.5710  137.3490 C   0  0  0  0  0  2  0  0  0  0  0  0
  180.7390  181.0720  137.4290 C   0  0  0  0  0  0  0  0  0  0  0  0
  184.9400  176.4270  136.5730 C   0  0  1  0  0  0  0  0  0  0  0  0
  180.0810  182.2960  137.2770 O   0  0  0  0  0  0  0  0  0  0  0  0
  180.7560  183.5450  137.3580 C   0  0  0  0  0  1  0  0  0  0  0  0
  184.8380  178.5820  141.9040 C   0  0  0  0  0  1  0  0  0  0  0  0
  183.7750  177.7500  141.4630 O   0  0  0  0  0  0  0  0  0  0  0  0
  185.1440  175.2280  137.5210 C   0  0  0  0  0  2  0  0  0  0  0  0
  185.1950  173.9780  136.7800 N   0  0  0  0  0  2  0  0  0  0  0  0
  187.2920  172.4420  136.9480 C   0  0  0  0  0  3  0  0  0  0  0  0
  186.3210  173.1530  136.8710 C   0  0  0  0  0  0  0  0  0  0  0  0
  186.1810  176.9300  136.1020 O   0  0  0  0  0  0  0  0  0  0  0  0
  186.7900  177.7340  137.0850 C   0  0  0  0  0  2  0  0  0  0  0  0
  187.9280  178.5140  136.4620 C   0  0  0  0  0  2  0  0  0  0  0  0
  188.6790  177.9210  138.4470 C   0  0  0  0  0  1  0  0  0  0  0  0
  189.1050  178.2570  137.1630 O   0  0  0  0  0  0  0  0  0  0  0  0
  180.7800  176.0420  137.1800 C   0  0  0  0  0  2  0  0  0  0  0  0
  180.4060  174.7010  137.7850 C   0  0  0  0  0  2  0  0  0  0  0  0
  179.9820  173.4490  135.6610 C   0  0  0  0  0  3  0  0  0  0  0  0
  180.7330  173.6080  136.8310 C   0  0  0  0  0  0  0  0  0  0  0  0
  181.7730  172.7170  137.1190 C   0  0  0  0  0  3  0  0  0  0  0  0
  183.3680  170.5620  136.5970 Cl  0  0  0  0  0  0  0  0  0  0  0  0
  181.3190  171.5200  135.0630 C   0  0  0  0  0  3  0  0  0  0  0  0
  182.0680  171.6760  136.2350 C   0  0  0  0  0  0  0  0  0  0  0  0
  180.2760  172.4070  134.7760 C   0  0  0  0  0  3  0  0  0  0  0  0
  1 10  1  0  0  0  0
  2 12  1  0  0  0  0
  2 15  1  0  0  0  0
  3  5  1  0  0  0  0
  4 13  1  6  0  0  0
  4  1  1  0  0  0  0
  5  7  1  0  0  0  0
  6 29  1  0  0  0  0
  6  4  1  0  0  0  0
  7 10  2  0  0  0  0
  8  4  1  0  0  0  0
  8  5  2  0  0  0  0
  9 11  2  0  0  0  0
  9 14  1  0  0  0  0
 10 19  1  0  0  0  0
 11  8  1  0  0  0  0
 12  6  1  0  0  0  0
 14  3  2  0  0  0  0
 15 13  1  0  0  0  0
 15 20  1  1  0  0  0
 16 17  1  0  0  0  0
 16 14  1  0  0  0  0
 19 18  1  0  0  0  0
 21 23  1  0  0  0  0
 21 20  1  0  0  0  0
 23 22  3  0  0  0  0
 24 15  1  0  0  0  0
 24 25  1  0  0  0  0
 26 25  1  0  0  0  0
 26 28  1  0  0  0  0
 28 27  1  0  0  0  0
 29 30  1  0  0  0  0
 31 32  1  0  0  0  0
 32 33  2  0  0  0  0
 32 30  1  0  0  0  0
 35 36  2  0  0  0  0
 36 34  1  0  0  0  0
 36 33  1  0  0  0  0
 37 35  1  0  0  0  0
 37 31  2  0  0  0  0
M  END
>  <MODEL>
9

>  <REMARK>
 VINA RESULT:      -4.3      2.865      7.981
  Name = 
  12 active torsions:
  status: ('A' for Active; 'I' for Inactive)
    1  A    between atoms: C_1  and  N_5
    2  A    between atoms: C_1  and  C_36
    3  A    between atoms: O_3  and  C_32
    4  A    between atoms: N_5  and  C_23
    5  A    between atoms: C_6  and  C_31
    6  A    between atoms: N_14  and  C_37
    7  A    between atoms: C_17  and  C_26
    8  A    between atoms: C_17  and  O_33
    9  A    between atoms: C_24  and  O_28
   10  A    between atoms: C_26  and  O_34
   11  A    between atoms: C_31  and  C_37
   12  A    between atoms: O_33  and  C_36
                            x       y       z     vdW  Elec       q    Type
                         _______ _______ _______ _____ _____    ______ ____

>  <TORSDO>
F 12

$$$$
