=
 OpenBabel10272413383D

 32 33  0  0  1  0  0  0  0  0999 V2000
  185.2430  179.0490  141.2910 C   0  0  2  0  0  3  0  0  0  0  0  0
  183.4500  178.8180  143.1970 C   0  0  0  0  0  2  0  0  0  0  0  0
  184.8770  178.6110  142.7160 C   0  0  0  0  0  0  0  0  0  0  0  0
  184.5490  179.7700  143.6390 C   0  0  0  0  0  2  0  0  0  0  0  0
  185.6500  177.6310  143.3700 O   0  0  0  0  0  0  0  0  0  0  0  0
  185.8530  178.0850  144.6790 C   0  0  0  0  0  2  0  0  0  0  0  0
  187.1810  177.5820  145.2030 C   0  0  0  0  0  2  0  0  0  0  0  0
  187.1390  177.5950  146.7190 C   0  0  0  0  0  2  0  0  0  0  0  0
  188.4800  177.1800  147.2980 C   0  0  2  0  0  3  0  0  0  0  0  0
  188.9760  178.2460  148.2610 C   0  0  0  0  0  1  0  0  0  0  0  0
  189.4770  177.0100  146.1560 C   0  0  0  0  0  2  0  0  0  0  0  0
  190.9310  177.1440  146.6080 C   0  0  1  0  0  3  0  0  0  0  0  0
  191.4340  175.8630  147.2490 C   0  0  0  0  0  1  0  0  0  0  0  0
  191.7550  177.5020  145.5390 O   0  0  0  0  0  0  0  0  0  0  0  0
  190.8790  177.8390  144.5050 C   0  0  0  0  0  2  0  0  0  0  0  0
  191.2960  179.1670  143.9130 C   0  0  0  0  0  1  0  0  0  0  0  0
  184.1120  178.8700  140.3210 C   0  0  0  0  0  0  0  0  0  0  0  0
  183.7570  177.6510  140.0210 N   0  0  0  0  0  0  0  0  0  0  0  0
  183.5320  180.0360  139.7050 N   0  0  0  0  0  2  0  0  0  0  0  0
  181.6950  176.4020  139.8190 C   0  0  0  0  0  2  0  0  0  0  0  0
  183.2650  176.3260  138.0600 C   0  0  1  0  0  3  0  0  0  0  0  0
  182.5170  175.0780  138.1300 N   0  0  0  0  0  2  0  0  0  0  0  0
  181.3750  175.3050  138.9220 N   0  0  0  0  0  2  0  0  0  0  0  0
  183.1000  176.9430  136.6870 C   0  0  0  0  0  1  0  0  0  0  0  0
  182.7030  177.2520  139.1020 C   0  0  2  0  0  3  0  0  0  0  0  0
  182.5610  180.0630  138.6240 C   0  0  0  0  0  2  0  0  0  0  0  0
  181.2450  180.6030  139.1390 C   0  0  0  0  0  1  0  0  0  0  0  0
  186.5650  178.4540  140.7970 C   0  0  0  0  0  2  0  0  0  0  0  0
  187.6500  178.9710  141.5120 O   0  0  0  0  0  0  0  0  0  0  0  0
  188.7720  178.4160  140.8960 C   0  0  0  0  0  2  0  0  0  0  0  0
  188.4870  178.1740  139.4300 C   0  0  0  0  0  2  0  0  0  0  0  0
  189.0890  179.1680  138.6570 O   0  0  0  0  0  1  0  0  0  0  0  0
  1 28  1  6  0  0  0
  1  3  1  0  0  0  0
  2  4  1  0  0  0  0
  3  2  1  0  0  0  0
  3  5  1  0  0  0  0
  3  4  1  0  0  0  0
  5  6  1  0  0  0  0
  6  7  1  0  0  0  0
  7  8  1  0  0  0  0
  8  9  1  0  0  0  0
  9 10  1  1  0  0  0
 11 12  1  0  0  0  0
 11  9  1  0  0  0  0
 12 13  1  6  0  0  0
 14 12  1  0  0  0  0
 15 14  1  0  0  0  0
 16 15  1  0  0  0  0
 17  1  1  0  0  0  0
 18 17  2  0  0  0  0
 19 17  1  0  0  0  0
 21 24  1  6  0  0  0
 21 22  1  0  0  0  0
 21 25  1  0  0  0  0
 22 23  1  0  0  0  0
 23 20  1  0  0  0  0
 25 20  1  0  0  0  0
 25 18  1  1  0  0  0
 26 27  1  0  0  0  0
 26 19  1  0  0  0  0
 28 29  1  0  0  0  0
 30 29  1  0  0  0  0
 31 30  1  0  0  0  0
 32 31  1  0  0  0  0
M  END
>  <MODEL>
1

>  <REMARK>
 VINA RESULT:      -6.3      0.000      0.000
  Name = 
  17 active torsions:
  status: ('A' for Active; 'I' for Inactive)
    1  A    between atoms: C_1  and  O_20
    2  A    between atoms: C_2  and  C_9
    3  A    between atoms: C_2  and  C_23
    4  A    between atoms: C_4  and  C_5
    5  A    between atoms: C_4  and  O_13
    6  A    between atoms: C_6  and  N_31
    7  A    between atoms: C_8  and  C_23
    8  A    between atoms: C_8  and  O_28
    9  A    between atoms: C_9  and  C_10
   10  A    between atoms: C_10  and  C_19
   11  A    between atoms: O_13  and  C_15
   12  A    between atoms: C_14  and  C_26
   13  A    between atoms: C_14  and  O_28
   14  A    between atoms: C_15  and  C_26
   15  A    between atoms: C_16  and  C_26
   16  A    between atoms: C_19  and  O_20
   17  A    between atoms: N_27  and  C_32
                            x       y       z     vdW  Elec       q    Type
                         _______ _______ _______ _____ _____    ______ ____

>  <TORSDO>
F 17

$$$$
=
 OpenBabel10272413383D

 32 33  0  0  1  0  0  0  0  0999 V2000
  190.6660  177.1490  139.4870 C   0  0  2  0  0  3  0  0  0  0  0  0
  188.9550  177.7020  137.5730 C   0  0  0  0  0  2  0  0  0  0  0  0
  189.2510  177.5590  139.0560 C   0  0  0  0  0  0  0  0  0  0  0  0
  189.1860  178.9370  138.4270 C   0  0  0  0  0  2  0  0  0  0  0  0
  188.1610  177.3320  139.9200 O   0  0  0  0  0  0  0  0  0  0  0  0
  187.7480  178.5870  140.3850 C   0  0  0  0  0  2  0  0  0  0  0  0
  186.2650  178.5660  140.6870 C   0  0  0  0  0  2  0  0  0  0  0  0
  186.0400  179.1980  142.0470 C   0  0  0  0  0  2  0  0  0  0  0  0
  185.3310  178.2290  142.9790 C   0  0  2  0  0  3  0  0  0  0  0  0
  183.8280  178.4380  142.8920 C   0  0  0  0  0  1  0  0  0  0  0  0
  185.8070  178.4840  144.4060 C   0  0  0  0  0  2  0  0  0  0  0  0
  186.8110  177.4420  144.8960 C   0  0  1  0  0  3  0  0  0  0  0  0
  187.4130  176.6630  143.7400 C   0  0  0  0  0  1  0  0  0  0  0  0
  187.8220  178.0390  145.6510 O   0  0  0  0  0  0  0  0  0  0  0  0
  187.5030  177.7490  146.9790 C   0  0  0  0  0  2  0  0  0  0  0  0
  188.6730  177.0480  147.6310 C   0  0  0  0  0  1  0  0  0  0  0  0
  191.2780  176.1290  138.5720 C   0  0  0  0  0  0  0  0  0  0  0  0
  192.5030  176.3300  138.1720 N   0  0  0  0  0  0  0  0  0  0  0  0
  190.4660  175.0310  138.1110 N   0  0  0  0  0  2  0  0  0  0  0  0
  194.4900  174.9600  137.9970 C   0  0  0  0  0  2  0  0  0  0  0  0
  193.8570  176.3110  136.1700 C   0  0  1  0  0  3  0  0  0  0  0  0
  195.3050  176.1520  136.2090 N   0  0  0  0  0  2  0  0  0  0  0  0
  195.5950  175.0690  137.0610 N   0  0  0  0  0  2  0  0  0  0  0  0
  193.3270  175.8230  134.8390 C   0  0  0  0  0  1  0  0  0  0  0  0
  193.2780  175.4820  137.2810 C   0  0  2  0  0  3  0  0  0  0  0  0
  190.8150  174.0500  137.0970 C   0  0  0  0  0  2  0  0  0  0  0  0
  189.5610  173.3590  136.6090 C   0  0  0  0  0  1  0  0  0  0  0  0
  190.7620  176.7700  140.9680 C   0  0  0  0  0  2  0  0  0  0  0  0
  191.7130  177.5520  141.6300 O   0  0  0  0  0  0  0  0  0  0  0  0
  191.6790  177.1030  142.9500 C   0  0  0  0  0  2  0  0  0  0  0  0
  190.8720  178.0620  143.7980 C   0  0  0  0  0  2  0  0  0  0  0  0
  191.5270  179.2920  143.8810 O   0  0  0  0  0  1  0  0  0  0  0  0
  1 28  1  1  0  0  0
  2  4  1  0  0  0  0
  2  3  1  0  0  0  0
  3  1  1  0  0  0  0
  3  5  1  0  0  0  0
  4  3  1  0  0  0  0
  5  6  1  0  0  0  0
  6  7  1  0  0  0  0
  7  8  1  0  0  0  0
  8  9  1  0  0  0  0
  9 10  1  1  0  0  0
  9 11  1  0  0  0  0
 11 12  1  0  0  0  0
 12 13  1  6  0  0  0
 12 14  1  0  0  0  0
 14 15  1  0  0  0  0
 15 16  1  0  0  0  0
 17  1  1  0  0  0  0
 18 17  2  0  0  0  0
 19 17  1  0  0  0  0
 21 24  1  6  0  0  0
 21 22  1  0  0  0  0
 21 25  1  0  0  0  0
 22 23  1  0  0  0  0
 23 20  1  0  0  0  0
 25 20  1  0  0  0  0
 25 18  1  1  0  0  0
 26 19  1  0  0  0  0
 27 26  1  0  0  0  0
 28 29  1  0  0  0  0
 29 30  1  0  0  0  0
 30 31  1  0  0  0  0
 31 32  1  0  0  0  0
M  END
>  <MODEL>
2

>  <REMARK>
 VINA RESULT:      -5.8      4.873      7.774
  Name = 
  17 active torsions:
  status: ('A' for Active; 'I' for Inactive)
    1  A    between atoms: C_1  and  O_20
    2  A    between atoms: C_2  and  C_9
    3  A    between atoms: C_2  and  C_23
    4  A    between atoms: C_4  and  C_5
    5  A    between atoms: C_4  and  O_13
    6  A    between atoms: C_6  and  N_31
    7  A    between atoms: C_8  and  C_23
    8  A    between atoms: C_8  and  O_28
    9  A    between atoms: C_9  and  C_10
   10  A    between atoms: C_10  and  C_19
   11  A    between atoms: O_13  and  C_15
   12  A    between atoms: C_14  and  C_26
   13  A    between atoms: C_14  and  O_28
   14  A    between atoms: C_15  and  C_26
   15  A    between atoms: C_16  and  C_26
   16  A    between atoms: C_19  and  O_20
   17  A    between atoms: N_27  and  C_32
                            x       y       z     vdW  Elec       q    Type
                         _______ _______ _______ _____ _____    ______ ____

>  <TORSDO>
F 17

$$$$
=
 OpenBabel10272413383D

 32 33  0  0  1  0  0  0  0  0999 V2000
  185.2440  178.9180  141.7640 C   0  0  2  0  0  3  0  0  0  0  0  0
  183.4470  178.8870  143.6790 C   0  0  0  0  0  2  0  0  0  0  0  0
  184.8890  178.6980  143.2410 C   0  0  0  0  0  0  0  0  0  0  0  0
  184.4760  179.9690  143.9590 C   0  0  0  0  0  2  0  0  0  0  0  0
  185.7170  177.8930  144.0490 O   0  0  0  0  0  0  0  0  0  0  0  0
  185.4080  178.2050  145.3790 C   0  0  0  0  0  2  0  0  0  0  0  0
  186.6220  177.9900  146.2570 C   0  0  0  0  0  2  0  0  0  0  0  0
  187.7480  177.4450  145.4010 C   0  0  0  0  0  2  0  0  0  0  0  0
  188.9770  177.1580  146.2460 C   0  0  2  0  0  3  0  0  0  0  0  0
  188.7030  177.5310  147.6950 C   0  0  0  0  0  1  0  0  0  0  0  0
  190.1450  177.9820  145.7130 C   0  0  0  0  0  2  0  0  0  0  0  0
  191.3120  177.1210  145.2320 C   0  0  1  0  0  3  0  0  0  0  0  0
  191.8470  176.2380  146.3450 C   0  0  0  0  0  1  0  0  0  0  0  0
  190.9380  176.3400  144.1370 O   0  0  0  0  0  0  0  0  0  0  0  0
  191.6650  176.8530  143.0600 C   0  0  0  0  0  2  0  0  0  0  0  0
  190.7500  176.9990  141.8650 C   0  0  0  0  0  1  0  0  0  0  0  0
  184.1010  178.6110  140.8420 C   0  0  0  0  0  0  0  0  0  0  0  0
  183.3420  179.6020  140.4650 N   0  0  0  0  0  0  0  0  0  0  0  0
  183.8410  177.2380  140.4870 N   0  0  0  0  0  2  0  0  0  0  0  0
  182.2610  180.5990  138.5430 C   0  0  0  0  0  2  0  0  0  0  0  0
  180.9430  179.8840  140.3640 C   0  0  1  0  0  3  0  0  0  0  0  0
  180.3180  181.0190  139.6970 N   0  0  0  0  0  2  0  0  0  0  0  0
  180.9270  181.1640  138.4360 N   0  0  0  0  0  2  0  0  0  0  0  0
  179.9890  178.7090  140.3700 C   0  0  0  0  0  1  0  0  0  0  0  0
  182.1820  179.5270  139.5910 C   0  0  2  0  0  3  0  0  0  0  0  0
  182.6930  176.7240  139.7600 C   0  0  0  0  0  2  0  0  0  0  0  0
  183.1600  176.0510  138.4880 C   0  0  0  0  0  1  0  0  0  0  0  0
  186.5550  178.2440  141.3500 C   0  0  0  0  0  2  0  0  0  0  0  0
  187.1770  178.9440  140.3110 O   0  0  0  0  0  0  0  0  0  0  0  0
  188.0140  178.0050  139.7070 C   0  0  0  0  0  2  0  0  0  0  0  0
  188.9740  178.7020  138.7670 C   0  0  0  0  0  2  0  0  0  0  0  0
  189.7200  177.7560  138.0630 O   0  0  0  0  0  1  0  0  0  0  0  0
  1 28  1  6  0  0  0
  1  3  1  0  0  0  0
  2  4  1  0  0  0  0
  3  2  1  0  0  0  0
  3  4  1  0  0  0  0
  3  5  1  0  0  0  0
  5  6  1  0  0  0  0
  6  7  1  0  0  0  0
  8  9  1  0  0  0  0
  8  7  1  0  0  0  0
  9 10  1  1  0  0  0
 11  9  1  0  0  0  0
 12 11  1  0  0  0  0
 12 13  1  1  0  0  0
 14 12  1  0  0  0  0
 15 14  1  0  0  0  0
 16 15  1  0  0  0  0
 17  1  1  0  0  0  0
 18 17  2  0  0  0  0
 19 17  1  0  0  0  0
 20 25  1  0  0  0  0
 21 24  1  6  0  0  0
 22 21  1  0  0  0  0
 23 20  1  0  0  0  0
 23 22  1  0  0  0  0
 25 21  1  0  0  0  0
 25 18  1  1  0  0  0
 26 19  1  0  0  0  0
 27 26  1  0  0  0  0
 29 28  1  0  0  0  0
 30 29  1  0  0  0  0
 31 30  1  0  0  0  0
 32 31  1  0  0  0  0
M  END
>  <MODEL>
3

>  <REMARK>
 VINA RESULT:      -5.7      1.395      2.740
  Name = 
  17 active torsions:
  status: ('A' for Active; 'I' for Inactive)
    1  A    between atoms: C_1  and  O_20
    2  A    between atoms: C_2  and  C_9
    3  A    between atoms: C_2  and  C_23
    4  A    between atoms: C_4  and  C_5
    5  A    between atoms: C_4  and  O_13
    6  A    between atoms: C_6  and  N_31
    7  A    between atoms: C_8  and  C_23
    8  A    between atoms: C_8  and  O_28
    9  A    between atoms: C_9  and  C_10
   10  A    between atoms: C_10  and  C_19
   11  A    between atoms: O_13  and  C_15
   12  A    between atoms: C_14  and  C_26
   13  A    between atoms: C_14  and  O_28
   14  A    between atoms: C_15  and  C_26
   15  A    between atoms: C_16  and  C_26
   16  A    between atoms: C_19  and  O_20
   17  A    between atoms: N_27  and  C_32
                            x       y       z     vdW  Elec       q    Type
                         _______ _______ _______ _____ _____    ______ ____

>  <TORSDO>
F 17

$$$$
=
 OpenBabel10272413383D

 32 33  0  0  1  0  0  0  0  0999 V2000
  185.2740  178.3370  142.7550 C   0  0  2  0  0  3  0  0  0  0  0  0
  186.9250  176.6360  143.8880 C   0  0  0  0  0  2  0  0  0  0  0  0
  186.6810  177.7330  142.8650 C   0  0  0  0  0  0  0  0  0  0  0  0
  187.3790  178.0580  144.1720 C   0  0  0  0  0  2  0  0  0  0  0  0
  187.5660  177.8140  141.7710 O   0  0  0  0  0  0  0  0  0  0  0  0
  188.7220  178.4550  142.2350 C   0  0  0  0  0  2  0  0  0  0  0  0
  189.9400  177.6060  141.9390 C   0  0  0  0  0  2  0  0  0  0  0  0
  191.1000  178.1210  142.7690 C   0  0  0  0  0  2  0  0  0  0  0  0
  191.4570  177.1320  143.8660 C   0  0  2  0  0  3  0  0  0  0  0  0
  190.8680  175.7690  143.5410 C   0  0  0  0  0  1  0  0  0  0  0  0
  190.8900  177.6390  145.1880 C   0  0  0  0  0  2  0  0  0  0  0  0
  190.5510  176.5120  146.1630 C   0  0  1  0  0  3  0  0  0  0  0  0
  191.6480  176.3190  147.1940 C   0  0  0  0  0  1  0  0  0  0  0  0
  189.3320  176.7530  146.7990 O   0  0  0  0  0  0  0  0  0  0  0  0
  189.6110  177.7260  147.7620 C   0  0  0  0  0  2  0  0  0  0  0  0
  188.3720  177.9760  148.5920 C   0  0  0  0  0  1  0  0  0  0  0  0
  184.7440  178.3210  141.3510 C   0  0  0  0  0  0  0  0  0  0  0  0
  183.6200  177.6960  141.1340 N   0  0  0  0  0  0  0  0  0  0  0  0
  185.5350  178.9120  140.3020 N   0  0  0  0  0  2  0  0  0  0  0  0
  181.6390  178.2990  139.8830 C   0  0  0  0  0  2  0  0  0  0  0  0
  182.5140  176.1180  139.6750 C   0  0  1  0  0  3  0  0  0  0  0  0
  181.0690  176.1070  139.4900 N   0  0  0  0  0  2  0  0  0  0  0  0
  180.6560  177.4320  139.2550 N   0  0  0  0  0  2  0  0  0  0  0  0
  183.1890  175.5380  138.4500 C   0  0  0  0  0  1  0  0  0  0  0  0
  182.9390  177.5480  139.8580 C   0  0  2  0  0  3  0  0  0  0  0  0
  185.2830  178.8440  138.8720 C   0  0  0  0  0  2  0  0  0  0  0  0
  186.4580  178.1880  138.1820 C   0  0  0  0  0  1  0  0  0  0  0  0
  185.1480  179.7040  143.4350 C   0  0  0  0  0  2  0  0  0  0  0  0
  183.8180  179.9860  143.7600 O   0  0  0  0  0  0  0  0  0  0  0  0
  183.4120  178.9030  144.5420 C   0  0  0  0  0  2  0  0  0  0  0  0
  181.9460  178.6160  144.2980 C   0  0  0  0  0  2  0  0  0  0  0  0
  181.4760  179.3990  143.2430 O   0  0  0  0  0  1  0  0  0  0  0  0
  1  3  1  0  0  0  0
  1 28  1  6  0  0  0
  2  4  1  0  0  0  0
  3  2  1  0  0  0  0
  3  4  1  0  0  0  0
  5  6  1  0  0  0  0
  5  3  1  0  0  0  0
  7  6  1  0  0  0  0
  7  8  1  0  0  0  0
  8  9  1  0  0  0  0
  9 10  1  6  0  0  0
  9 11  1  0  0  0  0
 11 12  1  0  0  0  0
 12 14  1  0  0  0  0
 12 13  1  1  0  0  0
 14 15  1  0  0  0  0
 15 16  1  0  0  0  0
 17  1  1  0  0  0  0
 18 17  2  0  0  0  0
 19 17  1  0  0  0  0
 21 24  1  6  0  0  0
 21 25  1  0  0  0  0
 22 21  1  0  0  0  0
 23 22  1  0  0  0  0
 23 20  1  0  0  0  0
 25 20  1  0  0  0  0
 25 18  1  1  0  0  0
 26 19  1  0  0  0  0
 27 26  1  0  0  0  0
 28 29  1  0  0  0  0
 29 30  1  0  0  0  0
 31 30  1  0  0  0  0
 32 31  1  0  0  0  0
M  END
>  <MODEL>
4

>  <REMARK>
 VINA RESULT:      -5.7      1.743      3.986
  Name = 
  17 active torsions:
  status: ('A' for Active; 'I' for Inactive)
    1  A    between atoms: C_1  and  O_20
    2  A    between atoms: C_2  and  C_9
    3  A    between atoms: C_2  and  C_23
    4  A    between atoms: C_4  and  C_5
    5  A    between atoms: C_4  and  O_13
    6  A    between atoms: C_6  and  N_31
    7  A    between atoms: C_8  and  C_23
    8  A    between atoms: C_8  and  O_28
    9  A    between atoms: C_9  and  C_10
   10  A    between atoms: C_10  and  C_19
   11  A    between atoms: O_13  and  C_15
   12  A    between atoms: C_14  and  C_26
   13  A    between atoms: C_14  and  O_28
   14  A    between atoms: C_15  and  C_26
   15  A    between atoms: C_16  and  C_26
   16  A    between atoms: C_19  and  O_20
   17  A    between atoms: N_27  and  C_32
                            x       y       z     vdW  Elec       q    Type
                         _______ _______ _______ _____ _____    ______ ____

>  <TORSDO>
F 17

$$$$
=
 OpenBabel10272413383D

 32 33  0  0  1  0  0  0  0  0999 V2000
  186.8920  177.6150  137.2170 C   0  0  2  0  0  3  0  0  0  0  0  0
  189.0780  179.0090  137.6330 C   0  0  0  0  0  2  0  0  0  0  0  0
  188.2730  177.7430  137.8740 C   0  0  0  0  0  0  0  0  0  0  0  0
  189.4180  177.7350  136.8790 C   0  0  0  0  0  2  0  0  0  0  0  0
  188.5770  176.9840  139.0220 O   0  0  0  0  0  0  0  0  0  0  0  0
  189.5020  177.7290  139.7640 C   0  0  0  0  0  2  0  0  0  0  0  0
  189.0790  177.7840  141.2150 C   0  0  0  0  0  2  0  0  0  0  0  0
  189.8110  176.6940  141.9740 C   0  0  0  0  0  2  0  0  0  0  0  0
  190.6810  177.2900  143.0670 C   0  0  2  0  0  3  0  0  0  0  0  0
  191.4380  176.1820  143.7830 C   0  0  0  0  0  1  0  0  0  0  0  0
  189.7880  178.0300  144.0580 C   0  0  0  0  0  2  0  0  0  0  0  0
  188.8820  177.0950  144.8590 C   0  0  1  0  0  3  0  0  0  0  0  0
  189.1160  177.2380  146.3520 C   0  0  0  0  0  1  0  0  0  0  0  0
  187.5380  177.3240  144.5590 O   0  0  0  0  0  0  0  0  0  0  0  0
  186.9630  177.7350  145.7640 C   0  0  0  0  0  2  0  0  0  0  0  0
  185.7210  178.5470  145.4720 C   0  0  0  0  0  1  0  0  0  0  0  0
  185.7670  177.8330  138.1860 C   0  0  0  0  0  0  0  0  0  0  0  0
  184.5960  177.3500  137.8750 N   0  0  0  0  0  0  0  0  0  0  0  0
  186.0050  178.6320  139.3610 N   0  0  0  0  0  2  0  0  0  0  0  0
  182.8730  176.0850  139.0100 C   0  0  0  0  0  2  0  0  0  0  0  0
  182.2750  178.0230  137.8040 C   0  0  1  0  0  3  0  0  0  0  0  0
  181.1830  177.0580  137.7920 N   0  0  0  0  0  2  0  0  0  0  0  0
  181.4350  176.1120  138.8050 N   0  0  0  0  0  2  0  0  0  0  0  0
  181.7930  179.3300  138.3940 C   0  0  0  0  0  1  0  0  0  0  0  0
  183.3750  177.4560  138.6570 C   0  0  2  0  0  3  0  0  0  0  0  0
  185.0150  179.1000  140.3160 C   0  0  0  0  0  2  0  0  0  0  0  0
  185.6320  179.1600  141.6960 C   0  0  0  0  0  1  0  0  0  0  0  0
  186.7350  176.3390  136.3830 C   0  0  0  0  0  2  0  0  0  0  0  0
  187.0710  175.2050  137.1280 O   0  0  0  0  0  0  0  0  0  0  0  0
  186.4190  174.1550  136.4810 C   0  0  0  0  0  2  0  0  0  0  0  0
  186.1450  173.0370  137.4630 C   0  0  0  0  0  2  0  0  0  0  0  0
  184.8360  173.1320  137.9390 O   0  0  0  0  0  1  0  0  0  0  0  0
  1 28  1  1  0  0  0
  1  3  1  0  0  0  0
  1 17  1  0  0  0  0
  2  3  1  0  0  0  0
  3  5  1  0  0  0  0
  4  2  1  0  0  0  0
  4  3  1  0  0  0  0
  5  6  1  0  0  0  0
  6  7  1  0  0  0  0
  7  8  1  0  0  0  0
  8  9  1  0  0  0  0
  9 10  1  1  0  0  0
  9 11  1  0  0  0  0
 11 12  1  0  0  0  0
 12 13  1  1  0  0  0
 14 12  1  0  0  0  0
 14 15  1  0  0  0  0
 16 15  1  0  0  0  0
 17 19  1  0  0  0  0
 18 17  2  0  0  0  0
 19 26  1  0  0  0  0
 21 24  1  1  0  0  0
 21 25  1  0  0  0  0
 22 21  1  0  0  0  0
 22 23  1  0  0  0  0
 23 20  1  0  0  0  0
 25 18  1  6  0  0  0
 25 20  1  0  0  0  0
 26 27  1  0  0  0  0
 28 29  1  0  0  0  0
 30 29  1  0  0  0  0
 30 31  1  0  0  0  0
 31 32  1  0  0  0  0
M  END
>  <MODEL>
5

>  <REMARK>
 VINA RESULT:      -5.6      2.530      4.768
  Name = 
  17 active torsions:
  status: ('A' for Active; 'I' for Inactive)
    1  A    between atoms: C_1  and  O_20
    2  A    between atoms: C_2  and  C_9
    3  A    between atoms: C_2  and  C_23
    4  A    between atoms: C_4  and  C_5
    5  A    between atoms: C_4  and  O_13
    6  A    between atoms: C_6  and  N_31
    7  A    between atoms: C_8  and  C_23
    8  A    between atoms: C_8  and  O_28
    9  A    between atoms: C_9  and  C_10
   10  A    between atoms: C_10  and  C_19
   11  A    between atoms: O_13  and  C_15
   12  A    between atoms: C_14  and  C_26
   13  A    between atoms: C_14  and  O_28
   14  A    between atoms: C_15  and  C_26
   15  A    between atoms: C_16  and  C_26
   16  A    between atoms: C_19  and  O_20
   17  A    between atoms: N_27  and  C_32
                            x       y       z     vdW  Elec       q    Type
                         _______ _______ _______ _____ _____    ______ ____

>  <TORSDO>
F 17

$$$$
=
 OpenBabel10272413383D

 32 33  0  0  1  0  0  0  0  0999 V2000
  186.1430  178.8720  139.9390 C   0  0  2  0  0  3  0  0  0  0  0  0
  184.9060  178.1620  142.1450 C   0  0  0  0  0  2  0  0  0  0  0  0
  186.2060  178.4680  141.4190 C   0  0  0  0  0  0  0  0  0  0  0  0
  185.5980  179.4980  142.3520 C   0  0  0  0  0  2  0  0  0  0  0  0
  187.3930  177.9250  141.9480 O   0  0  0  0  0  0  0  0  0  0  0  0
  187.0940  177.4900  143.2450 C   0  0  0  0  0  2  0  0  0  0  0  0
  188.3350  176.9270  143.9040 C   0  0  0  0  0  2  0  0  0  0  0  0
  189.1380  178.0760  144.4830 C   0  0  0  0  0  2  0  0  0  0  0  0
  189.5840  177.7590  145.9000 C   0  0  2  0  0  3  0  0  0  0  0  0
  190.8550  176.9260  145.8650 C   0  0  0  0  0  1  0  0  0  0  0  0
  188.4750  176.9820  146.6030 C   0  0  0  0  0  2  0  0  0  0  0  0
  187.9580  177.6840  147.8580 C   0  0  1  0  0  3  0  0  0  0  0  0
  189.0750  178.4000  148.5950 C   0  0  0  0  0  1  0  0  0  0  0  0
  186.9380  178.5830  147.5410 O   0  0  0  0  0  0  0  0  0  0  0  0
  186.0650  177.8670  146.7190 C   0  0  0  0  0  2  0  0  0  0  0  0
  185.1280  178.8310  146.0270 C   0  0  0  0  0  1  0  0  0  0  0  0
  184.7660  178.7370  139.3600 C   0  0  0  0  0  0  0  0  0  0  0  0
  184.4130  177.5700  138.8980 N   0  0  0  0  0  0  0  0  0  0  0  0
  183.9340  179.9100  139.2590 N   0  0  0  0  0  2  0  0  0  0  0  0
  182.4750  176.1310  139.0770 C   0  0  0  0  0  2  0  0  0  0  0  0
  183.3780  176.5900  136.9460 C   0  0  1  0  0  3  0  0  0  0  0  0
  182.7680  175.2670  136.9670 N   0  0  0  0  0  2  0  0  0  0  0  0
  181.9410  175.1930  138.1050 N   0  0  0  0  0  2  0  0  0  0  0  0
  182.7340  177.4300  135.8640 C   0  0  0  0  0  1  0  0  0  0  0  0
  183.1400  177.2230  138.2880 C   0  0  2  0  0  3  0  0  0  0  0  0
  182.6550  180.0210  138.5770 C   0  0  0  0  0  2  0  0  0  0  0  0
  181.5400  180.0580  139.5980 C   0  0  0  0  0  1  0  0  0  0  0  0
  187.2280  178.2090  139.0850 C   0  0  0  0  0  2  0  0  0  0  0  0
  188.4350  178.9100  139.1680 O   0  0  0  0  0  0  0  0  0  0  0  0
  189.3830  178.0390  138.6300 C   0  0  0  0  0  2  0  0  0  0  0  0
  188.7310  176.7180  138.2850 C   0  0  0  0  0  2  0  0  0  0  0  0
  189.6880  175.8290  137.7940 O   0  0  0  0  0  1  0  0  0  0  0  0
  1 28  1  6  0  0  0
  1  3  1  0  0  0  0
  2  4  1  0  0  0  0
  3  5  1  0  0  0  0
  3  2  1  0  0  0  0
  3  4  1  0  0  0  0
  5  6  1  0  0  0  0
  6  7  1  0  0  0  0
  7  8  1  0  0  0  0
  8  9  1  0  0  0  0
  9 10  1  6  0  0  0
  9 11  1  0  0  0  0
 11 12  1  0  0  0  0
 12 13  1  6  0  0  0
 14 12  1  0  0  0  0
 15 14  1  0  0  0  0
 16 15  1  0  0  0  0
 17  1  1  0  0  0  0
 18 17  2  0  0  0  0
 19 17  1  0  0  0  0
 21 24  1  6  0  0  0
 21 22  1  0  0  0  0
 21 25  1  0  0  0  0
 22 23  1  0  0  0  0
 23 20  1  0  0  0  0
 25 18  1  1  0  0  0
 25 20  1  0  0  0  0
 26 19  1  0  0  0  0
 26 27  1  0  0  0  0
 28 29  1  0  0  0  0
 30 29  1  0  0  0  0
 31 30  1  0  0  0  0
 32 31  1  0  0  0  0
M  END
>  <MODEL>
6

>  <REMARK>
 VINA RESULT:      -5.6      1.600      2.596
  Name = 
  17 active torsions:
  status: ('A' for Active; 'I' for Inactive)
    1  A    between atoms: C_1  and  O_20
    2  A    between atoms: C_2  and  C_9
    3  A    between atoms: C_2  and  C_23
    4  A    between atoms: C_4  and  C_5
    5  A    between atoms: C_4  and  O_13
    6  A    between atoms: C_6  and  N_31
    7  A    between atoms: C_8  and  C_23
    8  A    between atoms: C_8  and  O_28
    9  A    between atoms: C_9  and  C_10
   10  A    between atoms: C_10  and  C_19
   11  A    between atoms: O_13  and  C_15
   12  A    between atoms: C_14  and  C_26
   13  A    between atoms: C_14  and  O_28
   14  A    between atoms: C_15  and  C_26
   15  A    between atoms: C_16  and  C_26
   16  A    between atoms: C_19  and  O_20
   17  A    between atoms: N_27  and  C_32
                            x       y       z     vdW  Elec       q    Type
                         _______ _______ _______ _____ _____    ______ ____

>  <TORSDO>
F 17

$$$$
=
 OpenBabel10272413383D

 32 33  0  0  1  0  0  0  0  0999 V2000
  186.3750  177.5990  144.5930 C   0  0  2  0  0  3  0  0  0  0  0  0
  185.9180  179.4960  146.3520 C   0  0  0  0  0  2  0  0  0  0  0  0
  185.4660  178.7150  145.1300 C   0  0  0  0  0  0  0  0  0  0  0  0
  184.8690  178.4050  146.4890 C   0  0  0  0  0  2  0  0  0  0  0  0
  184.5250  179.3240  144.2760 O   0  0  0  0  0  0  0  0  0  0  0  0
  183.2710  179.1620  144.8790 C   0  0  0  0  0  2  0  0  0  0  0  0
  182.2360  178.8000  143.8360 C   0  0  0  0  0  2  0  0  0  0  0  0
  182.9190  178.7230  142.4840 C   0  0  0  0  0  2  0  0  0  0  0  0
  181.9030  178.8330  141.3600 C   0  0  2  0  0  3  0  0  0  0  0  0
  180.5320  178.4110  141.8640 C   0  0  0  0  0  1  0  0  0  0  0  0
  182.3350  177.9230  140.2150 C   0  0  0  0  0  2  0  0  0  0  0  0
  182.6170  178.6860  138.9210 C   0  0  1  0  0  3  0  0  0  0  0  0
  183.8710  179.5330  139.0360 C   0  0  0  0  0  1  0  0  0  0  0  0
  182.7270  177.8090  137.8390 O   0  0  0  0  0  0  0  0  0  0  0  0
  183.7730  176.9470  138.1770 C   0  0  0  0  0  2  0  0  0  0  0  0
  183.4300  175.5470  137.7230 C   0  0  0  0  0  1  0  0  0  0  0  0
  187.7620  177.6590  145.1630 C   0  0  0  0  0  0  0  0  0  0  0  0
  188.7530  177.8230  144.3300 N   0  0  0  0  0  0  0  0  0  0  0  0
  187.9450  177.4480  146.5760 N   0  0  0  0  0  2  0  0  0  0  0  0
  190.7560  179.1640  144.1150 C   0  0  0  0  0  2  0  0  0  0  0  0
  190.9150  176.8170  143.9320 C   0  0  1  0  0  3  0  0  0  0  0  0
  191.9370  177.4620  143.1190 N   0  0  0  0  0  2  0  0  0  0  0  0
  192.0410  178.8010  143.5420 N   0  0  0  0  0  2  0  0  0  0  0  0
  191.5690  175.8840  144.9280 C   0  0  0  0  0  1  0  0  0  0  0  0
  190.1660  177.8960  144.6630 C   0  0  2  0  0  3  0  0  0  0  0  0
  189.2060  177.2930  147.2830 C   0  0  0  0  0  2  0  0  0  0  0  0
  189.1480  178.0490  148.5920 C   0  0  0  0  0  1  0  0  0  0  0  0
  186.3510  177.4810  143.0670 C   0  0  0  0  0  2  0  0  0  0  0  0
  186.4590  178.7370  142.4610 O   0  0  0  0  0  0  0  0  0  0  0  0
  186.8600  178.4610  141.1530 C   0  0  0  0  0  2  0  0  0  0  0  0
  188.3710  178.4120  141.0790 C   0  0  0  0  0  2  0  0  0  0  0  0
  188.7750  177.2840  140.3630 O   0  0  0  0  0  1  0  0  0  0  0  0
  1 28  1  6  0  0  0
  1  3  1  0  0  0  0
  1 17  1  0  0  0  0
  2  4  1  0  0  0  0
  3  2  1  0  0  0  0
  3  4  1  0  0  0  0
  5  6  1  0  0  0  0
  5  3  1  0  0  0  0
  7  6  1  0  0  0  0
  8  7  1  0  0  0  0
  9 10  1  1  0  0  0
  9  8  1  0  0  0  0
 11  9  1  0  0  0  0
 12 13  1  1  0  0  0
 12 11  1  0  0  0  0
 14 15  1  0  0  0  0
 14 12  1  0  0  0  0
 16 15  1  0  0  0  0
 17 19  1  0  0  0  0
 18 17  2  0  0  0  0
 19 26  1  0  0  0  0
 20 25  1  0  0  0  0
 21 25  1  0  0  0  0
 21 24  1  1  0  0  0
 22 23  1  0  0  0  0
 22 21  1  0  0  0  0
 23 20  1  0  0  0  0
 25 18  1  6  0  0  0
 26 27  1  0  0  0  0
 29 28  1  0  0  0  0
 30 29  1  0  0  0  0
 31 30  1  0  0  0  0
 32 31  1  0  0  0  0
M  END
>  <MODEL>
7

>  <REMARK>
 VINA RESULT:      -5.5      3.385      8.249
  Name = 
  17 active torsions:
  status: ('A' for Active; 'I' for Inactive)
    1  A    between atoms: C_1  and  O_20
    2  A    between atoms: C_2  and  C_9
    3  A    between atoms: C_2  and  C_23
    4  A    between atoms: C_4  and  C_5
    5  A    between atoms: C_4  and  O_13
    6  A    between atoms: C_6  and  N_31
    7  A    between atoms: C_8  and  C_23
    8  A    between atoms: C_8  and  O_28
    9  A    between atoms: C_9  and  C_10
   10  A    between atoms: C_10  and  C_19
   11  A    between atoms: O_13  and  C_15
   12  A    between atoms: C_14  and  C_26
   13  A    between atoms: C_14  and  O_28
   14  A    between atoms: C_15  and  C_26
   15  A    between atoms: C_16  and  C_26
   16  A    between atoms: C_19  and  O_20
   17  A    between atoms: N_27  and  C_32
                            x       y       z     vdW  Elec       q    Type
                         _______ _______ _______ _____ _____    ______ ____

>  <TORSDO>
F 17

$$$$
=
 OpenBabel10272413383D

 32 33  0  0  1  0  0  0  0  0999 V2000
  183.7920  178.7040  139.4360 C   0  0  2  0  0  3  0  0  0  0  0  0
  184.1650  177.7320  141.8470 C   0  0  0  0  0  2  0  0  0  0  0  0
  184.4760  178.7950  140.8070 C   0  0  0  0  0  0  0  0  0  0  0  0
  183.5160  179.1030  141.9410 C   0  0  0  0  0  2  0  0  0  0  0  0
  185.6840  179.5080  140.9430 O   0  0  0  0  0  0  0  0  0  0  0  0
  186.4630  178.8060  141.8710 C   0  0  0  0  0  2  0  0  0  0  0  0
  187.8150  178.4820  141.2740 C   0  0  0  0  0  2  0  0  0  0  0  0
  188.4940  177.4440  142.1480 C   0  0  0  0  0  2  0  0  0  0  0  0
  188.8670  178.0370  143.4960 C   0  0  2  0  0  3  0  0  0  0  0  0
  190.3560  178.3390  143.5300 C   0  0  0  0  0  1  0  0  0  0  0  0
  188.5170  177.0310  144.5880 C   0  0  0  0  0  2  0  0  0  0  0  0
  187.8010  177.6680  145.7790 C   0  0  1  0  0  3  0  0  0  0  0  0
  186.3320  177.9090  145.4790 C   0  0  0  0  0  1  0  0  0  0  0  0
  187.9340  176.8780  146.9220 O   0  0  0  0  0  0  0  0  0  0  0  0
  188.9060  177.5190  147.6940 C   0  0  0  0  0  2  0  0  0  0  0  0
  188.2640  178.0630  148.9510 C   0  0  0  0  0  1  0  0  0  0  0  0
  184.5350  177.8210  138.4760 C   0  0  0  0  0  0  0  0  0  0  0  0
  185.7490  178.1650  138.1490 N   0  0  0  0  0  0  0  0  0  0  0  0
  183.8510  176.6920  137.8970 N   0  0  0  0  0  2  0  0  0  0  0  0
  187.8430  176.9650  137.9750 C   0  0  0  0  0  2  0  0  0  0  0  0
  187.2120  178.4390  136.2440 C   0  0  1  0  0  3  0  0  0  0  0  0
  188.6630  178.3810  136.3600 N   0  0  0  0  0  2  0  0  0  0  0  0
  188.9880  177.2440  137.1250 N   0  0  0  0  0  2  0  0  0  0  0  0
  186.7970  178.0460  134.8420 C   0  0  0  0  0  1  0  0  0  0  0  0
  186.6370  177.4660  137.2340 C   0  0  2  0  0  3  0  0  0  0  0  0
  184.3320  175.8310  136.8290 C   0  0  0  0  0  2  0  0  0  0  0  0
  183.1550  175.2120  136.1090 C   0  0  0  0  0  1  0  0  0  0  0  0
  183.4330  180.0710  138.8460 C   0  0  0  0  0  2  0  0  0  0  0  0
  182.1570  180.0560  138.2750 O   0  0  0  0  0  0  0  0  0  0  0  0
  181.6240  181.3100  138.5730 C   0  0  0  0  0  2  0  0  0  0  0  0
  180.7030  181.7550  137.4570 C   0  0  0  0  0  2  0  0  0  0  0  0
  181.0980  183.0080  136.9850 O   0  0  0  0  0  1  0  0  0  0  0  0
  1 28  1  6  0  0  0
  1  3  1  0  0  0  0
  2  4  1  0  0  0  0
  3  5  1  0  0  0  0
  3  2  1  0  0  0  0
  3  4  1  0  0  0  0
  5  6  1  0  0  0  0
  7  6  1  0  0  0  0
  7  8  1  0  0  0  0
  8  9  1  0  0  0  0
  9 10  1  6  0  0  0
  9 11  1  0  0  0  0
 11 12  1  0  0  0  0
 12 13  1  6  0  0  0
 12 14  1  0  0  0  0
 14 15  1  0  0  0  0
 15 16  1  0  0  0  0
 17  1  1  0  0  0  0
 18 17  2  0  0  0  0
 19 17  1  0  0  0  0
 21 24  1  6  0  0  0
 21 22  1  0  0  0  0
 21 25  1  0  0  0  0
 22 23  1  0  0  0  0
 23 20  1  0  0  0  0
 25 20  1  0  0  0  0
 25 18  1  1  0  0  0
 26 19  1  0  0  0  0
 27 26  1  0  0  0  0
 29 30  1  0  0  0  0
 29 28  1  0  0  0  0
 31 30  1  0  0  0  0
 32 31  1  0  0  0  0
M  END
>  <MODEL>
8

>  <REMARK>
 VINA RESULT:      -5.3      3.114      5.070
  Name = 
  17 active torsions:
  status: ('A' for Active; 'I' for Inactive)
    1  A    between atoms: C_1  and  O_20
    2  A    between atoms: C_2  and  C_9
    3  A    between atoms: C_2  and  C_23
    4  A    between atoms: C_4  and  C_5
    5  A    between atoms: C_4  and  O_13
    6  A    between atoms: C_6  and  N_31
    7  A    between atoms: C_8  and  C_23
    8  A    between atoms: C_8  and  O_28
    9  A    between atoms: C_9  and  C_10
   10  A    between atoms: C_10  and  C_19
   11  A    between atoms: O_13  and  C_15
   12  A    between atoms: C_14  and  C_26
   13  A    between atoms: C_14  and  O_28
   14  A    between atoms: C_15  and  C_26
   15  A    between atoms: C_16  and  C_26
   16  A    between atoms: C_19  and  O_20
   17  A    between atoms: N_27  and  C_32
                            x       y       z     vdW  Elec       q    Type
                         _______ _______ _______ _____ _____    ______ ____

>  <TORSDO>
F 17

$$$$
=
 OpenBabel10272413383D

 32 33  0  0  1  0  0  0  0  0999 V2000
  183.1970  178.3830  139.0220 C   0  0  2  0  0  3  0  0  0  0  0  0
  181.7610  176.9620  140.7010 C   0  0  0  0  0  2  0  0  0  0  0  0
  182.8940  177.9450  140.4620 C   0  0  0  0  0  0  0  0  0  0  0  0
  181.5560  178.4420  140.9750 C   0  0  0  0  0  2  0  0  0  0  0  0
  183.8950  178.0400  141.4490 O   0  0  0  0  0  0  0  0  0  0  0  0
  183.3550  178.7920  142.5000 C   0  0  0  0  0  2  0  0  0  0  0  0
  184.4650  179.3330  143.3750 C   0  0  0  0  0  2  0  0  0  0  0  0
  185.4630  178.2210  143.6340 C   0  0  0  0  0  2  0  0  0  0  0  0
  185.5550  177.9160  145.1190 C   0  0  2  0  0  3  0  0  0  0  0  0
  185.6340  179.2140  145.9060 C   0  0  0  0  0  1  0  0  0  0  0  0
  186.8060  177.0800  145.3720 C   0  0  0  0  0  2  0  0  0  0  0  0
  188.0330  177.6000  144.6240 C   0  0  1  0  0  3  0  0  0  0  0  0
  189.1970  177.8450  145.5670 C   0  0  0  0  0  1  0  0  0  0  0  0
  188.4120  176.7160  143.6120 O   0  0  0  0  0  0  0  0  0  0  0  0
  189.1890  177.4780  142.7370 C   0  0  0  0  0  2  0  0  0  0  0  0
  190.3440  176.6390  142.2370 C   0  0  0  0  0  1  0  0  0  0  0  0
  184.4180  177.7150  138.4590 C   0  0  0  0  0  0  0  0  0  0  0  0
  185.5420  178.3760  138.4960 N   0  0  0  0  0  0  0  0  0  0  0  0
  184.2800  176.4260  137.8310 N   0  0  0  0  0  2  0  0  0  0  0  0
  187.8740  178.0770  139.0700 C   0  0  0  0  0  2  0  0  0  0  0  0
  187.3080  178.8540  136.9150 C   0  0  1  0  0  3  0  0  0  0  0  0
  188.5990  179.3880  137.3270 N   0  0  0  0  0  2  0  0  0  0  0  0
  189.0520  178.6230  138.4190 N   0  0  0  0  0  2  0  0  0  0  0  0
  187.4630  178.0870  135.6190 C   0  0  0  0  0  1  0  0  0  0  0  0
  186.8320  177.9270  137.9990 C   0  0  2  0  0  3  0  0  0  0  0  0
  185.2940  175.7040  137.0810 C   0  0  0  0  0  2  0  0  0  0  0  0
  185.0270  174.2180  137.1690 C   0  0  0  0  0  1  0  0  0  0  0  0
  183.1990  179.9030  138.8400 C   0  0  0  0  0  2  0  0  0  0  0  0
  182.2110  180.3040  137.9350 O   0  0  0  0  0  0  0  0  0  0  0  0
  181.4810  181.2750  138.6210 C   0  0  0  0  0  2  0  0  0  0  0  0
  181.8590  182.6520  138.1200 C   0  0  0  0  0  2  0  0  0  0  0  0
  180.9590  183.0640  137.1350 O   0  0  0  0  0  1  0  0  0  0  0  0
  1 28  1  1  0  0  0
  1  3  1  0  0  0  0
  2  4  1  0  0  0  0
  3  2  1  0  0  0  0
  3  4  1  0  0  0  0
  3  5  1  0  0  0  0
  5  6  1  0  0  0  0
  6  7  1  0  0  0  0
  7  8  1  0  0  0  0
  8  9  1  0  0  0  0
  9 11  1  0  0  0  0
  9 10  1  1  0  0  0
 12 11  1  0  0  0  0
 12 13  1  1  0  0  0
 14 12  1  0  0  0  0
 15 14  1  0  0  0  0
 16 15  1  0  0  0  0
 17 18  2  0  0  0  0
 17  1  1  0  0  0  0
 19 17  1  0  0  0  0
 21 24  1  6  0  0  0
 21 22  1  0  0  0  0
 21 25  1  0  0  0  0
 22 23  1  0  0  0  0
 23 20  1  0  0  0  0
 25 18  1  1  0  0  0
 25 20  1  0  0  0  0
 26 27  1  0  0  0  0
 26 19  1  0  0  0  0
 29 30  1  0  0  0  0
 29 28  1  0  0  0  0
 31 30  1  0  0  0  0
 32 31  1  0  0  0  0
M  END
>  <MODEL>
9

>  <REMARK>
 VINA RESULT:      -5.3      3.049      5.047
  Name = 
  17 active torsions:
  status: ('A' for Active; 'I' for Inactive)
    1  A    between atoms: C_1  and  O_20
    2  A    between atoms: C_2  and  C_9
    3  A    between atoms: C_2  and  C_23
    4  A    between atoms: C_4  and  C_5
    5  A    between atoms: C_4  and  O_13
    6  A    between atoms: C_6  and  N_31
    7  A    between atoms: C_8  and  C_23
    8  A    between atoms: C_8  and  O_28
    9  A    between atoms: C_9  and  C_10
   10  A    between atoms: C_10  and  C_19
   11  A    between atoms: O_13  and  C_15
   12  A    between atoms: C_14  and  C_26
   13  A    between atoms: C_14  and  O_28
   14  A    between atoms: C_15  and  C_26
   15  A    between atoms: C_16  and  C_26
   16  A    between atoms: C_19  and  O_20
   17  A    between atoms: N_27  and  C_32
                            x       y       z     vdW  Elec       q    Type
                         _______ _______ _______ _____ _____    ______ ____

>  <TORSDO>
F 17

$$$$
