=
 OpenBabel10272401433D

 55 56  0  0  1  0  0  0  0  0999 V2000
  188.2630  175.5100  137.5390 O   0  0  0  0  0  0  0  0  0  0  0  0
  187.1200  177.4540  138.1670 N   0  0  0  0  0  0  0  0  0  0  0  0
  187.2480  176.2430  137.3900 C   0  0  0  0  0  0  0  0  0  0  0  0
  187.9040  177.5890  139.4080 C   0  0  2  0  0  3  0  0  0  0  0  0
  187.0560  178.1670  140.5370 C   0  0  0  0  0  1  0  0  0  0  0  0
  189.3580  178.7800  137.9100 O   0  0  0  0  0  1  0  0  0  0  0  0
  189.2330  178.3430  139.2300 C   0  0  2  0  0  3  0  0  0  0  0  0
  190.4490  177.5020  139.6130 C   0  0  0  0  0  2  0  0  0  0  0  0
  190.1590  176.6890  140.8630 C   0  0  0  0  0  2  0  0  0  0  0  0
  190.0840  177.6000  142.0790 C   0  0  0  0  0  2  0  0  0  0  0  0
  189.2410  176.9570  143.1800 C   0  0  1  0  0  3  0  0  0  0  0  0
  189.4090  177.1070  145.6670 C   0  0  0  0  0  3  0  0  0  0  0  0
  191.4600  176.5540  146.8490 C   0  0  0  0  0  0  0  0  0  0  0  0
  191.3630  176.3930  144.4270 C   0  0  0  0  0  3  0  0  0  0  0  0
  192.0750  176.2620  145.6230 C   0  0  0  0  0  3  0  0  0  0  0  0
  190.1220  176.9760  146.8630 C   0  0  0  0  0  3  0  0  0  0  0  0
  190.0260  176.8160  144.4470 C   0  0  0  0  0  0  0  0  0  0  0  0
  192.1930  176.4190  148.0750 N   0  0  0  0  0  0  0  0  0  0  0  0
  192.4010  177.4960  148.8690 O   0  0  0  0  0  1  0  0  0  0  0  0
  192.7030  175.1740  148.4690 N   0  0  0  0  0  1  0  0  0  0  0  0
  186.9350  177.1530  143.6690 N   0  0  0  0  0  0  0  0  0  0  0  0
  188.0370  177.7360  143.4200 N   0  0  0  0  0  0  0  0  0  0  0  0
  185.4660  178.3340  145.2170 C   0  0  0  0  0  3  0  0  0  0  0  0
  183.6610  178.8940  143.1560 C   0  0  0  0  0  0  0  0  0  0  0  0
  184.8250  178.1670  142.8870 C   0  0  0  0  0  3  0  0  0  0  0  0
  184.3030  179.0620  145.4840 C   0  0  0  0  0  3  0  0  0  0  0  0
  185.7330  177.8850  143.9190 C   0  0  0  0  0  0  0  0  0  0  0  0
  182.7880  179.1660  142.1570 F   0  0  0  0  0  0  0  0  0  0  0  0
  183.4010  179.3420  144.4550 C   0  0  0  0  0  3  0  0  0  0  0  0
  186.2160  178.5210  137.7310 C   0  0  0  0  0  2  0  0  0  0  0  0
  183.9330  179.4800  138.0680 C   0  0  0  0  0  1  0  0  0  0  0  0
  185.0680  178.7100  138.7130 C   0  0  0  0  0  2  0  0  0  0  0  0
  186.1970  175.7930  136.4070 C   0  0  2  0  0  3  0  0  0  0  0  0
  185.8010  177.5970  134.8570 O   0  0  0  0  0  1  0  0  0  0  0  0
  186.4200  176.3520  134.9980 C   0  0  1  0  0  3  0  0  0  0  0  0
  188.6230  175.3780  134.3510 O   0  0  0  0  0  0  0  0  0  0  0  0
  187.8790  176.4950  134.7040 C   0  0  0  0  0  0  0  0  0  0  0  0
  188.4400  177.6200  134.7810 O   0  0  0  0  0  1  0  0  0  0  0  0
  184.7850  176.0960  136.9170 C   0  0  0  0  0  2  0  0  0  0  0  0
  183.7390  175.0780  136.4490 C   0  0  2  0  0  0  0  0  0  0  0  0
  184.0000  173.3780  134.6820 O   0  0  0  0  0  1  0  0  0  0  0  0
  184.5330  173.8650  135.8800 C   0  0  2  0  0  3  0  0  0  0  0  0
  184.7620  172.7240  136.8860 C   0  0  1  0  0  3  0  0  0  0  0  0
  183.9970  171.4600  136.5280 C   0  0  0  0  0  1  0  0  0  0  0  0
  186.7870  172.6240  138.1410 O   0  0  0  0  0  1  0  0  0  0  0  0
  186.2210  172.4320  137.0340 C   0  0  0  0  0  0  0  0  0  0  0  0
  186.9630  171.9780  135.9490 O   0  0  0  0  0  0  0  0  0  0  0  0
  182.9290  175.7910  135.3410 C   0  0  0  0  0  2  0  0  0  0  0  0
  182.5450  177.0860  135.6930 O   0  0  0  0  0  0  0  0  0  0  0  0
  181.1560  177.0270  135.7800 C   0  0  0  0  0  2  0  0  0  0  0  0
  180.6120  178.4010  136.1090 C   0  0  0  0  0  1  0  0  0  0  0  0
  182.9520  174.7400  137.5860 O   0  0  0  0  0  0  0  0  0  0  0  0
  183.0770  175.7020  138.6030 C   0  0  0  0  0  2  0  0  0  0  0  0
  181.9040  175.5970  139.5600 C   0  0  0  0  0  2  0  0  0  0  0  0
  181.2530  176.9530  139.7410 C   0  0  0  0  0  1  0  0  0  0  0  0
  2  4  1  0  0  0  0
  3  1  2  0  0  0  0
  3  2  1  0  0  0  0
  4  5  1  1  0  0  0
  7  6  1  6  0  0  0
  7  4  1  0  0  0  0
  7  8  1  0  0  0  0
  8  9  1  0  0  0  0
  9 10  1  0  0  0  0
 11 10  1  6  0  0  0
 11 22  1  0  0  0  0
 11 17  1  0  0  0  0
 12 16  1  0  0  0  0
 13 16  2  0  0  0  0
 13 18  1  0  0  0  0
 14 17  1  0  0  0  0
 14 15  2  0  0  0  0
 15 13  1  0  0  0  0
 17 12  2  0  0  0  0
 18 20  1  0  0  0  0
 18 19  1  0  0  0  0
 21 27  1  0  0  0  0
 22 21  2  0  0  0  0
 23 26  1  0  0  0  0
 24 29  1  0  0  0  0
 25 24  2  0  0  0  0
 25 27  1  0  0  0  0
 27 23  2  0  0  0  0
 28 24  1  0  0  0  0
 29 26  2  0  0  0  0
 30  2  1  0  0  0  0
 30 32  1  0  0  0  0
 31 32  1  0  0  0  0
 33 39  1  1  0  0  0
 33  3  1  0  0  0  0
 35 34  1  1  0  0  0
 35 33  1  0  0  0  0
 36 37  2  0  0  0  0
 37 38  1  0  0  0  0
 37 35  1  0  0  0  0
 40 48  1  6  0  0  0
 40 39  1  0  0  0  0
 40 52  1  0  0  0  0
 42 41  1  6  0  0  0
 42 40  1  0  0  0  0
 42 43  1  0  0  0  0
 43 44  1  6  0  0  0
 43 46  1  0  0  0  0
 46 45  1  0  0  0  0
 47 46  2  0  0  0  0
 48 49  1  0  0  0  0
 49 50  1  0  0  0  0
 50 51  1  0  0  0  0
 52 53  1  0  0  0  0
 53 54  1  0  0  0  0
 54 55  1  0  0  0  0
M  END
>  <MODEL>
1

>  <REMARK>
 VINA RESULT:      -5.8      0.000      0.000
  Name = 
  26 active torsions:
  status: ('A' for Active; 'I' for Inactive)
    1  A    between atoms: C_1  and  C_30
    2  A    between atoms: N_2  and  C_44
    3  A    between atoms: C_6  and  C_8
    4  A    between atoms: C_6  and  O_20
    5  A    between atoms: C_6  and  C_38
    6  A    between atoms: C_6  and  C_46
    7  A    between atoms: C_7  and  C_8
    8  A    between atoms: C_7  and  C_23
    9  A    between atoms: C_7  and  C_43
   10  A    between atoms: N_10  and  C_32
   11  A    between atoms: C_11  and  C_29
   12  A    between atoms: C_11  and  C_38
   13  A    between atoms: C_12  and  O_14
   14  A    between atoms: O_14  and  C_46
   15  A    between atoms: C_16  and  N_17
   16  A    between atoms: C_16  and  C_26
   17  A    between atoms: N_17  and  C_37
   18  A    between atoms: C_19  and  C_45
   19  A    between atoms: C_19  and  C_49
   20  A    between atoms: O_20  and  C_30
   21  A    between atoms: C_26  and  C_45
   22  A    between atoms: N_28  and  C_33
   23  A    between atoms: C_33  and  C_49
   24  A    between atoms: C_33  and  C_52
   25  A    between atoms: C_35  and  C_43
   26  A    between atoms: C_37  and  C_40
                            x       y       z     vdW  Elec       q    Type
                         _______ _______ _______ _____ _____    ______ ____

>  <TORSDO>
F 26

$$$$
=
 OpenBabel10272401433D

 55 56  0  0  1  0  0  0  0  0999 V2000
  183.4850  175.7460  139.9760 O   0  0  0  0  0  0  0  0  0  0  0  0
  182.6410  177.9280  139.9080 N   0  0  0  0  0  0  0  0  0  0  0  0
  182.9270  176.6510  139.2980 C   0  0  0  0  0  0  0  0  0  0  0  0
  182.5760  178.0160  141.3780 C   0  0  2  0  0  3  0  0  0  0  0  0
  181.6310  179.1280  141.8240 C   0  0  0  0  0  1  0  0  0  0  0  0
  183.7870  178.2440  143.4410 O   0  0  0  0  0  1  0  0  0  0  0  0
  183.9510  178.1070  142.0610 C   0  0  2  0  0  3  0  0  0  0  0  0
  184.8050  179.2540  141.5260 C   0  0  0  0  0  2  0  0  0  0  0  0
  186.1480  178.7330  141.0420 C   0  0  0  0  0  2  0  0  0  0  0  0
  186.7850  177.8490  142.1030 C   0  0  0  0  0  2  0  0  0  0  0  0
  188.2980  178.0560  142.1360 C   0  0  1  0  0  3  0  0  0  0  0  0
  187.9660  177.8250  144.6010 C   0  0  0  0  0  3  0  0  0  0  0  0
  189.8230  177.4000  146.1110 C   0  0  0  0  0  0  0  0  0  0  0  0
  190.2140  177.6210  143.7240 C   0  0  0  0  0  3  0  0  0  0  0  0
  190.7000  177.4060  145.0170 C   0  0  0  0  0  3  0  0  0  0  0  0
  188.4530  177.6110  145.8940 C   0  0  0  0  0  3  0  0  0  0  0  0
  188.8430  177.8310  143.5130 C   0  0  0  0  0  0  0  0  0  0  0  0
  190.3240  177.1800  147.4370 N   0  0  0  0  0  0  0  0  0  0  0  0
  189.7140  177.7530  148.5020 O   0  0  0  0  0  1  0  0  0  0  0  0
  191.4480  176.3700  147.6500 N   0  0  0  0  0  1  0  0  0  0  0  0
  189.2800  177.5990  140.0340 N   0  0  0  0  0  0  0  0  0  0  0  0
  188.9550  177.1730  141.1860 N   0  0  0  0  0  0  0  0  0  0  0  0
  189.1690  175.8860  138.3020 C   0  0  0  0  0  3  0  0  0  0  0  0
  191.9410  175.9980  137.9440 C   0  0  0  0  0  0  0  0  0  0  0  0
  191.3250  176.8170  138.8950 C   0  0  0  0  0  3  0  0  0  0  0  0
  189.7860  175.0680  137.3500 C   0  0  0  0  0  3  0  0  0  0  0  0
  189.9350  176.7640  139.0770 C   0  0  0  0  0  0  0  0  0  0  0  0
  193.2830  176.0530  137.7690 F   0  0  0  0  0  0  0  0  0  0  0  0
  191.1700  175.1240  137.1710 C   0  0  0  0  0  3  0  0  0  0  0  0
  182.4070  179.1110  139.0750 C   0  0  0  0  0  2  0  0  0  0  0  0
  180.6630  180.4200  137.8550 C   0  0  0  0  0  1  0  0  0  0  0  0
  180.9240  179.4360  138.9780 C   0  0  0  0  0  2  0  0  0  0  0  0
  182.5660  176.3330  137.8690 C   0  0  2  0  0  3  0  0  0  0  0  0
  180.8020  176.5890  136.2450 O   0  0  0  0  0  1  0  0  0  0  0  0
  181.0590  176.3990  137.6060 C   0  0  1  0  0  3  0  0  0  0  0  0
  179.9850  174.1990  137.1320 O   0  0  0  0  0  0  0  0  0  0  0  0
  180.3800  175.1480  138.0630 C   0  0  0  0  0  0  0  0  0  0  0  0
  180.1600  174.9510  139.2880 O   0  0  0  0  0  1  0  0  0  0  0  0
  183.1580  174.9930  137.4250 C   0  0  0  0  0  2  0  0  0  0  0  0
  184.2450  175.1340  136.3520 C   0  0  2  0  0  0  0  0  0  0  0  0
  184.1140  177.2540  135.0990 O   0  0  0  0  0  1  0  0  0  0  0  0
  184.5840  176.6520  136.2710 C   0  0  2  0  0  3  0  0  0  0  0  0
  186.0670  176.9870  136.5070 C   0  0  1  0  0  3  0  0  0  0  0  0
  186.8520  177.1270  135.2130 C   0  0  0  0  0  1  0  0  0  0  0  0
  185.2130  178.6530  137.9840 O   0  0  0  0  0  1  0  0  0  0  0  0
  186.2060  178.2180  137.3430 C   0  0  0  0  0  0  0  0  0  0  0  0
  187.4140  178.9050  137.3940 O   0  0  0  0  0  0  0  0  0  0  0  0
  183.6030  174.6300  135.0390 C   0  0  0  0  0  2  0  0  0  0  0  0
  182.5050  173.7940  135.2540 O   0  0  0  0  0  0  0  0  0  0  0  0
  183.0340  172.5060  135.2210 C   0  0  0  0  0  2  0  0  0  0  0  0
  182.4940  171.7080  136.3880 C   0  0  0  0  0  1  0  0  0  0  0  0
  185.3480  174.3420  136.7740 O   0  0  0  0  0  0  0  0  0  0  0  0
  186.1010  173.8810  135.6810 C   0  0  0  0  0  2  0  0  0  0  0  0
  186.3790  172.3970  135.8330 C   0  0  0  0  0  2  0  0  0  0  0  0
  187.7560  172.0640  135.2950 C   0  0  0  0  0  1  0  0  0  0  0  0
  2  4  1  0  0  0  0
  3  2  1  0  0  0  0
  3  1  2  0  0  0  0
  4  5  1  6  0  0  0
  4  7  1  0  0  0  0
  7  6  1  1  0  0  0
  8  7  1  0  0  0  0
  9  8  1  0  0  0  0
  9 10  1  0  0  0  0
 11 10  1  1  0  0  0
 11 17  1  0  0  0  0
 12 16  1  0  0  0  0
 13 18  1  0  0  0  0
 14 15  2  0  0  0  0
 15 13  1  0  0  0  0
 16 13  2  0  0  0  0
 17 14  1  0  0  0  0
 17 12  2  0  0  0  0
 18 20  1  0  0  0  0
 18 19  1  0  0  0  0
 21 22  2  0  0  0  0
 22 11  1  0  0  0  0
 23 27  1  0  0  0  0
 24 25  1  0  0  0  0
 25 27  2  0  0  0  0
 26 23  2  0  0  0  0
 27 21  1  0  0  0  0
 28 24  1  0  0  0  0
 29 26  1  0  0  0  0
 29 24  2  0  0  0  0
 30  2  1  0  0  0  0
 31 32  1  0  0  0  0
 32 30  1  0  0  0  0
 33 39  1  1  0  0  0
 33  3  1  0  0  0  0
 35 34  1  6  0  0  0
 35 33  1  0  0  0  0
 35 37  1  0  0  0  0
 36 37  2  0  0  0  0
 37 38  1  0  0  0  0
 40 48  1  6  0  0  0
 40 52  1  0  0  0  0
 40 39  1  0  0  0  0
 42 41  1  6  0  0  0
 42 40  1  0  0  0  0
 42 43  1  0  0  0  0
 43 44  1  6  0  0  0
 43 46  1  0  0  0  0
 46 47  2  0  0  0  0
 46 45  1  0  0  0  0
 48 49  1  0  0  0  0
 50 49  1  0  0  0  0
 50 51  1  0  0  0  0
 53 54  1  0  0  0  0
 53 52  1  0  0  0  0
 55 54  1  0  0  0  0
M  END
>  <MODEL>
2

>  <REMARK>
 VINA RESULT:      -5.5      2.736      5.813
  Name = 
  26 active torsions:
  status: ('A' for Active; 'I' for Inactive)
    1  A    between atoms: C_1  and  C_30
    2  A    between atoms: N_2  and  C_44
    3  A    between atoms: C_6  and  C_8
    4  A    between atoms: C_6  and  O_20
    5  A    between atoms: C_6  and  C_38
    6  A    between atoms: C_6  and  C_46
    7  A    between atoms: C_7  and  C_8
    8  A    between atoms: C_7  and  C_23
    9  A    between atoms: C_7  and  C_43
   10  A    between atoms: N_10  and  C_32
   11  A    between atoms: C_11  and  C_29
   12  A    between atoms: C_11  and  C_38
   13  A    between atoms: C_12  and  O_14
   14  A    between atoms: O_14  and  C_46
   15  A    between atoms: C_16  and  N_17
   16  A    between atoms: C_16  and  C_26
   17  A    between atoms: N_17  and  C_37
   18  A    between atoms: C_19  and  C_45
   19  A    between atoms: C_19  and  C_49
   20  A    between atoms: O_20  and  C_30
   21  A    between atoms: C_26  and  C_45
   22  A    between atoms: N_28  and  C_33
   23  A    between atoms: C_33  and  C_49
   24  A    between atoms: C_33  and  C_52
   25  A    between atoms: C_35  and  C_43
   26  A    between atoms: C_37  and  C_40
                            x       y       z     vdW  Elec       q    Type
                         _______ _______ _______ _____ _____    ______ ____

>  <TORSDO>
F 26

$$$$
=
 OpenBabel10272401433D

 55 56  0  0  1  0  0  0  0  0999 V2000
  185.1910  179.9420  140.5530 O   0  0  0  0  0  0  0  0  0  0  0  0
  185.8390  178.2250  142.0070 N   0  0  0  0  0  0  0  0  0  0  0  0
  184.8380  179.0510  141.3720 C   0  0  0  0  0  0  0  0  0  0  0  0
  187.1690  178.1110  141.3800 C   0  0  2  0  0  3  0  0  0  0  0  0
  188.1730  179.0520  142.0400 C   0  0  0  0  0  1  0  0  0  0  0  0
  186.7980  177.0370  139.2630 O   0  0  0  0  0  1  0  0  0  0  0  0
  187.1530  178.2530  139.8490 C   0  0  2  0  0  3  0  0  0  0  0  0
  188.4890  178.7290  139.2830 C   0  0  0  0  0  2  0  0  0  0  0  0
  188.6450  178.2770  137.8410 C   0  0  0  0  0  2  0  0  0  0  0  0
  190.0580  177.7710  137.5970 C   0  0  0  0  0  2  0  0  0  0  0  0
  190.3640  176.5750  138.4980 C   0  0  1  0  0  3  0  0  0  0  0  0
  192.7730  176.2920  137.9020 C   0  0  0  0  0  3  0  0  0  0  0  0
  193.6160  174.2380  136.9130 C   0  0  0  0  0  0  0  0  0  0  0  0
  191.2600  174.4520  137.4630 C   0  0  0  0  0  3  0  0  0  0  0  0
  192.3220  173.7000  136.9530 C   0  0  0  0  0  3  0  0  0  0  0  0
  193.8340  175.5390  137.3910 C   0  0  0  0  0  3  0  0  0  0  0  0
  191.4840  175.7520  137.9400 C   0  0  0  0  0  0  0  0  0  0  0  0
  194.7040  173.4630  136.3880 N   0  0  0  0  0  0  0  0  0  0  0  0
  195.8970  174.0500  136.1270 O   0  0  0  0  0  1  0  0  0  0  0  0
  194.5500  172.0930  136.1400 N   0  0  0  0  0  1  0  0  0  0  0  0
  190.2850  176.3630  140.8520 N   0  0  0  0  0  0  0  0  0  0  0  0
  190.6900  177.0210  139.8430 N   0  0  0  0  0  0  0  0  0  0  0  0
  191.6580  177.6450  142.4080 C   0  0  0  0  0  3  0  0  0  0  0  0
  190.1560  176.7160  144.5760 C   0  0  0  0  0  0  0  0  0  0  0  0
  189.8410  176.3000  143.2790 C   0  0  0  0  0  3  0  0  0  0  0  0
  191.9710  178.0610  143.7050 C   0  0  0  0  0  3  0  0  0  0  0  0
  190.5930  176.7640  142.1890 C   0  0  0  0  0  0  0  0  0  0  0  0
  189.4270  176.2680  145.6260 F   0  0  0  0  0  0  0  0  0  0  0  0
  191.2200  177.5980  144.7890 C   0  0  0  0  0  3  0  0  0  0  0  0
  185.5290  177.5050  143.2450 C   0  0  0  0  0  2  0  0  0  0  0  0
  186.0920  178.5340  145.4520 C   0  0  0  0  0  1  0  0  0  0  0  0
  186.6150  177.7100  144.2920 C   0  0  0  0  0  2  0  0  0  0  0  0
  183.3620  178.8820  141.6320 C   0  0  2  0  0  3  0  0  0  0  0  0
  183.6690  179.9850  143.7530 O   0  0  0  0  0  1  0  0  0  0  0  0
  183.0090  178.9290  143.1210 C   0  0  1  0  0  3  0  0  0  0  0  0
  180.8690  180.1460  142.7190 O   0  0  0  0  0  0  0  0  0  0  0  0
  181.5340  179.0850  143.3160 C   0  0  0  0  0  0  0  0  0  0  0  0
  180.8930  178.2630  144.0230 O   0  0  0  0  0  1  0  0  0  0  0  0
  182.8160  177.6180  140.9610 C   0  0  0  0  0  2  0  0  0  0  0  0
  182.2720  177.8670  139.5490 C   0  0  2  0  0  0  0  0  0  0  0  0
  180.2010  177.1200  140.6610 O   0  0  0  0  0  1  0  0  0  0  0  0
  180.9200  177.1000  139.4600 C   0  0  2  0  0  3  0  0  0  0  0  0
  181.0330  175.6690  138.9070 C   0  0  1  0  0  3  0  0  0  0  0  0
  180.5600  174.6170  139.8970 C   0  0  0  0  0  1  0  0  0  0  0  0
  179.9820  174.4000  137.1840 O   0  0  0  0  0  1  0  0  0  0  0  0
  180.2960  175.5410  137.6120 C   0  0  0  0  0  0  0  0  0  0  0  0
  179.9820  176.6690  136.8640 O   0  0  0  0  0  0  0  0  0  0  0  0
  183.3240  177.2690  138.5850 C   0  0  0  0  0  2  0  0  0  0  0  0
  183.5240  178.0490  137.4440 O   0  0  0  0  0  0  0  0  0  0  0  0
  184.3830  177.2920  136.6500 C   0  0  0  0  0  2  0  0  0  0  0  0
  183.5730  176.3280  135.8090 C   0  0  0  0  0  1  0  0  0  0  0  0
  182.1210  179.2750  139.4060 O   0  0  0  0  0  0  0  0  0  0  0  0
  180.8060  179.6190  139.0480 C   0  0  0  0  0  2  0  0  0  0  0  0
  180.8220  180.5320  137.8360 C   0  0  0  0  0  2  0  0  0  0  0  0
  181.4720  181.8550  138.1860 C   0  0  0  0  0  1  0  0  0  0  0  0
  1  3  2  0  0  0  0
  2 30  1  0  0  0  0
  3 33  1  0  0  0  0
  3  2  1  0  0  0  0
  4  2  1  0  0  0  0
  4  5  1  1  0  0  0
  7  6  1  6  0  0  0
  7  4  1  0  0  0  0
  8  7  1  0  0  0  0
  9  8  1  0  0  0  0
 10  9  1  0  0  0  0
 11 10  1  6  0  0  0
 11 22  1  0  0  0  0
 12 17  1  0  0  0  0
 13 15  2  0  0  0  0
 13 16  1  0  0  0  0
 14 17  2  0  0  0  0
 15 14  1  0  0  0  0
 16 12  2  0  0  0  0
 17 11  1  0  0  0  0
 18 13  1  0  0  0  0
 19 18  1  0  0  0  0
 20 18  1  0  0  0  0
 21 27  1  0  0  0  0
 22 21  2  0  0  0  0
 23 26  1  0  0  0  0
 24 29  1  0  0  0  0
 24 28  1  0  0  0  0
 25 24  2  0  0  0  0
 26 29  2  0  0  0  0
 27 23  2  0  0  0  0
 27 25  1  0  0  0  0
 30 32  1  0  0  0  0
 32 31  1  0  0  0  0
 33 39  1  1  0  0  0
 33 35  1  0  0  0  0
 35 37  1  0  0  0  0
 35 34  1  6  0  0  0
 36 37  2  0  0  0  0
 37 38  1  0  0  0  0
 40 48  1  6  0  0  0
 40 39  1  0  0  0  0
 42 40  1  0  0  0  0
 42 41  1  1  0  0  0
 43 42  1  0  0  0  0
 43 44  1  1  0  0  0
 45 46  1  0  0  0  0
 46 43  1  0  0  0  0
 47 46  2  0  0  0  0
 49 48  1  0  0  0  0
 50 49  1  0  0  0  0
 51 50  1  0  0  0  0
 52 40  1  0  0  0  0
 53 52  1  0  0  0  0
 54 55  1  0  0  0  0
 54 53  1  0  0  0  0
M  END
>  <MODEL>
3

>  <REMARK>
 VINA RESULT:      -5.3      3.795      7.135
  Name = 
  26 active torsions:
  status: ('A' for Active; 'I' for Inactive)
    1  A    between atoms: C_1  and  C_30
    2  A    between atoms: N_2  and  C_44
    3  A    between atoms: C_6  and  C_8
    4  A    between atoms: C_6  and  O_20
    5  A    between atoms: C_6  and  C_38
    6  A    between atoms: C_6  and  C_46
    7  A    between atoms: C_7  and  C_8
    8  A    between atoms: C_7  and  C_23
    9  A    between atoms: C_7  and  C_43
   10  A    between atoms: N_10  and  C_32
   11  A    between atoms: C_11  and  C_29
   12  A    between atoms: C_11  and  C_38
   13  A    between atoms: C_12  and  O_14
   14  A    between atoms: O_14  and  C_46
   15  A    between atoms: C_16  and  N_17
   16  A    between atoms: C_16  and  C_26
   17  A    between atoms: N_17  and  C_37
   18  A    between atoms: C_19  and  C_45
   19  A    between atoms: C_19  and  C_49
   20  A    between atoms: O_20  and  C_30
   21  A    between atoms: C_26  and  C_45
   22  A    between atoms: N_28  and  C_33
   23  A    between atoms: C_33  and  C_49
   24  A    between atoms: C_33  and  C_52
   25  A    between atoms: C_35  and  C_43
   26  A    between atoms: C_37  and  C_40
                            x       y       z     vdW  Elec       q    Type
                         _______ _______ _______ _____ _____    ______ ____

>  <TORSDO>
F 26

$$$$
=
 OpenBabel10272401433D

 55 56  0  0  1  0  0  0  0  0999 V2000
  187.0650  179.7060  141.1190 O   0  0  0  0  0  0  0  0  0  0  0  0
  187.1700  177.8390  142.5270 N   0  0  0  0  0  0  0  0  0  0  0  0
  186.4370  178.8400  141.7870 C   0  0  0  0  0  0  0  0  0  0  0  0
  188.5650  177.5530  142.1470 C   0  0  2  0  0  3  0  0  0  0  0  0
  189.5450  178.3590  142.9960 C   0  0  0  0  0  1  0  0  0  0  0  0
  188.2820  176.6150  139.9530 O   0  0  0  0  0  1  0  0  0  0  0  0
  188.8450  177.6910  140.6410 C   0  0  2  0  0  3  0  0  0  0  0  0
  190.3340  177.7870  140.3200 C   0  0  0  0  0  2  0  0  0  0  0  0
  190.7780  176.5890  139.4980 C   0  0  0  0  0  2  0  0  0  0  0  0
  192.1030  176.8810  138.8120 C   0  0  0  0  0  2  0  0  0  0  0  0
  192.1150  176.3010  137.3980 C   0  0  1  0  0  3  0  0  0  0  0  0
  194.1730  176.1260  135.9930 C   0  0  0  0  0  3  0  0  0  0  0  0
  195.9210  174.5070  136.4750 C   0  0  0  0  0  0  0  0  0  0  0  0
  193.9410  174.6230  137.8780 C   0  0  0  0  0  3  0  0  0  0  0  0
  195.1780  174.0480  137.5720 C   0  0  0  0  0  3  0  0  0  0  0  0
  195.4100  175.5500  135.6880 C   0  0  0  0  0  3  0  0  0  0  0  0
  193.4350  175.6650  137.0870 C   0  0  0  0  0  0  0  0  0  0  0  0
  197.1900  173.9150  136.1640 N   0  0  0  0  0  0  0  0  0  0  0  0
  197.9100  173.2950  137.1300 O   0  0  0  0  0  1  0  0  0  0  0  0
  197.7030  173.9680  134.8610 N   0  0  0  0  0  1  0  0  0  0  0  0
  191.0930  174.4710  136.3030 N   0  0  0  0  0  0  0  0  0  0  0  0
  191.0420  175.3340  137.2350 N   0  0  0  0  0  0  0  0  0  0  0  0
  190.1460  172.6150  135.0350 C   0  0  0  0  0  3  0  0  0  0  0  0
  187.9860  172.4440  136.8030 C   0  0  0  0  0  0  0  0  0  0  0  0
  188.9760  173.4110  137.0010 C   0  0  0  0  0  3  0  0  0  0  0  0
  189.1560  171.6470  134.8390 C   0  0  0  0  0  3  0  0  0  0  0  0
  190.0620  173.4990  136.1160 C   0  0  0  0  0  0  0  0  0  0  0  0
  186.9410  172.3600  137.6610 F   0  0  0  0  0  0  0  0  0  0  0  0
  188.0770  171.5610  135.7220 C   0  0  0  0  0  3  0  0  0  0  0  0
  186.5280  177.1150  143.6270 C   0  0  0  0  0  2  0  0  0  0  0  0
  186.2180  177.7380  146.0270 C   0  0  0  0  0  1  0  0  0  0  0  0
  187.2260  177.3870  144.9520 C   0  0  0  0  0  2  0  0  0  0  0  0
  184.9310  178.8890  141.7580 C   0  0  2  0  0  3  0  0  0  0  0  0
  184.7180  180.0760  143.8450 O   0  0  0  0  0  1  0  0  0  0  0  0
  184.3080  178.9320  143.1560 C   0  0  1  0  0  3  0  0  0  0  0  0
  182.0710  178.4920  144.1680 O   0  0  0  0  0  1  0  0  0  0  0  0
  182.8150  178.9170  143.0770 C   0  0  0  0  0  0  0  0  0  0  0  0
  182.2270  179.2810  142.0240 O   0  0  0  0  0  0  0  0  0  0  0  0
  184.3490  177.7500  140.9150 C   0  0  0  0  0  2  0  0  0  0  0  0
  184.1200  178.1350  139.4490 C   0  0  2  0  0  0  0  0  0  0  0  0
  182.2990  176.5600  139.9860 O   0  0  0  0  0  1  0  0  0  0  0  0
  182.9110  177.2850  138.9570 C   0  0  2  0  0  3  0  0  0  0  0  0
  183.2150  176.3810  137.7510 C   0  0  1  0  0  3  0  0  0  0  0  0
  183.0500  174.9030  138.0660 C   0  0  0  0  0  1  0  0  0  0  0  0
  181.1390  176.9490  136.7250 O   0  0  0  0  0  1  0  0  0  0  0  0
  182.3760  176.7650  136.5750 C   0  0  0  0  0  0  0  0  0  0  0  0
  182.9430  176.8900  135.3130 O   0  0  0  0  0  0  0  0  0  0  0  0
  185.4200  177.7470  138.7070 C   0  0  0  0  0  2  0  0  0  0  0  0
  185.9510  178.7950  137.9520 O   0  0  0  0  0  0  0  0  0  0  0  0
  187.1130  178.2680  137.3920 C   0  0  0  0  0  2  0  0  0  0  0  0
  187.3240  178.8620  136.0160 C   0  0  0  0  0  1  0  0  0  0  0  0
  183.8590  179.5340  139.4250 O   0  0  0  0  0  0  0  0  0  0  0  0
  182.7320  179.8350  138.6420 C   0  0  0  0  0  2  0  0  0  0  0  0
  182.3850  181.3060  138.7800 C   0  0  0  0  0  2  0  0  0  0  0  0
  180.8810  181.4910  138.7910 C   0  0  0  0  0  1  0  0  0  0  0  0
  1  3  2  0  0  0  0
  2 30  1  0  0  0  0
  3  2  1  0  0  0  0
  4  2  1  0  0  0  0
  4  5  1  1  0  0  0
  7  6  1  6  0  0  0
  7  4  1  0  0  0  0
  8  7  1  0  0  0  0
  9  8  1  0  0  0  0
 10  9  1  0  0  0  0
 11 10  1  1  0  0  0
 12 17  1  0  0  0  0
 13 15  2  0  0  0  0
 15 14  1  0  0  0  0
 16 12  2  0  0  0  0
 16 13  1  0  0  0  0
 17 11  1  0  0  0  0
 17 14  2  0  0  0  0
 18 13  1  0  0  0  0
 18 19  1  0  0  0  0
 20 18  1  0  0  0  0
 21 22  2  0  0  0  0
 22 11  1  0  0  0  0
 23 27  1  0  0  0  0
 24 25  1  0  0  0  0
 24 28  1  0  0  0  0
 26 23  2  0  0  0  0
 26 29  1  0  0  0  0
 27 21  1  0  0  0  0
 27 25  2  0  0  0  0
 29 24  2  0  0  0  0
 30 32  1  0  0  0  0
 32 31  1  0  0  0  0
 33 39  1  1  0  0  0
 33  3  1  0  0  0  0
 33 35  1  0  0  0  0
 35 34  1  6  0  0  0
 37 35  1  0  0  0  0
 37 36  1  0  0  0  0
 38 37  2  0  0  0  0
 40 48  1  6  0  0  0
 40 39  1  0  0  0  0
 42 40  1  0  0  0  0
 42 41  1  1  0  0  0
 43 44  1  1  0  0  0
 43 42  1  0  0  0  0
 46 45  1  0  0  0  0
 46 43  1  0  0  0  0
 47 46  2  0  0  0  0
 49 48  1  0  0  0  0
 50 49  1  0  0  0  0
 51 50  1  0  0  0  0
 52 40  1  0  0  0  0
 53 54  1  0  0  0  0
 53 52  1  0  0  0  0
 54 55  1  0  0  0  0
M  END
>  <MODEL>
4

>  <REMARK>
 VINA RESULT:      -5.1      4.378      8.015
  Name = 
  26 active torsions:
  status: ('A' for Active; 'I' for Inactive)
    1  A    between atoms: C_1  and  C_30
    2  A    between atoms: N_2  and  C_44
    3  A    between atoms: C_6  and  C_8
    4  A    between atoms: C_6  and  O_20
    5  A    between atoms: C_6  and  C_38
    6  A    between atoms: C_6  and  C_46
    7  A    between atoms: C_7  and  C_8
    8  A    between atoms: C_7  and  C_23
    9  A    between atoms: C_7  and  C_43
   10  A    between atoms: N_10  and  C_32
   11  A    between atoms: C_11  and  C_29
   12  A    between atoms: C_11  and  C_38
   13  A    between atoms: C_12  and  O_14
   14  A    between atoms: O_14  and  C_46
   15  A    between atoms: C_16  and  N_17
   16  A    between atoms: C_16  and  C_26
   17  A    between atoms: N_17  and  C_37
   18  A    between atoms: C_19  and  C_45
   19  A    between atoms: C_19  and  C_49
   20  A    between atoms: O_20  and  C_30
   21  A    between atoms: C_26  and  C_45
   22  A    between atoms: N_28  and  C_33
   23  A    between atoms: C_33  and  C_49
   24  A    between atoms: C_33  and  C_52
   25  A    between atoms: C_35  and  C_43
   26  A    between atoms: C_37  and  C_40
                            x       y       z     vdW  Elec       q    Type
                         _______ _______ _______ _____ _____    ______ ____

>  <TORSDO>
F 26

$$$$
=
 OpenBabel10272401433D

 55 56  0  0  1  0  0  0  0  0999 V2000
  185.2540  179.7700  140.1330 O   0  0  0  0  0  0  0  0  0  0  0  0
  186.0050  178.1800  141.6780 N   0  0  0  0  0  0  0  0  0  0  0  0
  184.9550  178.8980  140.9930 C   0  0  0  0  0  0  0  0  0  0  0  0
  187.3470  178.1320  141.0710 C   0  0  2  0  0  3  0  0  0  0  0  0
  188.3030  179.0980  141.7650 C   0  0  0  0  0  1  0  0  0  0  0  0
  186.9870  177.1050  138.9280 O   0  0  0  0  0  1  0  0  0  0  0  0
  187.3490  178.3050  139.5420 C   0  0  2  0  0  3  0  0  0  0  0  0
  188.6950  178.7780  139.0000 C   0  0  0  0  0  2  0  0  0  0  0  0
  188.9240  178.2320  137.6000 C   0  0  0  0  0  2  0  0  0  0  0  0
  190.0770  177.2400  137.6020 C   0  0  0  0  0  2  0  0  0  0  0  0
  190.2100  176.5690  136.2360 C   0  0  1  0  0  3  0  0  0  0  0  0
  192.0570  175.3500  137.3950 C   0  0  0  0  0  3  0  0  0  0  0  0
  193.5800  173.8860  136.1920 C   0  0  0  0  0  0  0  0  0  0  0  0
  191.8070  175.0480  135.0050 C   0  0  0  0  0  3  0  0  0  0  0  0
  192.9000  174.1770  135.0010 C   0  0  0  0  0  3  0  0  0  0  0  0
  193.1510  174.4790  137.3890 C   0  0  0  0  0  3  0  0  0  0  0  0
  191.3820  175.6380  136.2050 C   0  0  0  0  0  0  0  0  0  0  0  0
  194.7010  172.9920  136.1840 N   0  0  0  0  0  0  0  0  0  0  0  0
  195.8270  173.3140  135.5040 O   0  0  0  0  0  1  0  0  0  0  0  0
  194.6500  171.7760  136.8790 N   0  0  0  0  0  1  0  0  0  0  0  0
  188.6240  174.8510  136.5920 N   0  0  0  0  0  0  0  0  0  0  0  0
  188.9910  175.8520  135.9000 N   0  0  0  0  0  0  0  0  0  0  0  0
  187.0530  173.9430  134.9620 C   0  0  0  0  0  3  0  0  0  0  0  0
  185.4730  172.8740  137.0070 C   0  0  0  0  0  0  0  0  0  0  0  0
  186.6330  173.5880  137.3210 C   0  0  0  0  0  3  0  0  0  0  0  0
  185.8930  173.2280  134.6490 C   0  0  0  0  0  3  0  0  0  0  0  0
  187.4280  174.1260  136.2970 C   0  0  0  0  0  0  0  0  0  0  0  0
  184.7090  172.3550  137.9970 F   0  0  0  0  0  0  0  0  0  0  0  0
  185.1040  172.6930  135.6700 C   0  0  0  0  0  3  0  0  0  0  0  0
  185.7320  177.5020  142.9480 C   0  0  0  0  0  2  0  0  0  0  0  0
  186.3910  177.5680  145.3580 C   0  0  0  0  0  1  0  0  0  0  0  0
  186.8830  177.6770  143.9280 C   0  0  0  0  0  2  0  0  0  0  0  0
  183.4920  178.6350  141.2470 C   0  0  2  0  0  3  0  0  0  0  0  0
  183.8140  179.8500  143.3040 O   0  0  0  0  0  1  0  0  0  0  0  0
  183.1030  178.7990  142.7190 C   0  0  1  0  0  3  0  0  0  0  0  0
  180.8690  178.2600  143.6890 O   0  0  0  0  0  1  0  0  0  0  0  0
  181.6370  179.0620  142.8580 C   0  0  0  0  0  0  0  0  0  0  0  0
  181.0940  180.0040  142.2210 O   0  0  0  0  0  0  0  0  0  0  0  0
  183.0640  177.2710  140.6980 C   0  0  0  0  0  2  0  0  0  0  0  0
  182.5210  177.3350  139.2660 C   0  0  2  0  0  0  0  0  0  0  0  0
  180.4130  178.5960  139.4900 O   0  0  0  0  0  1  0  0  0  0  0  0
  181.7660  178.6920  139.1450 C   0  0  2  0  0  3  0  0  0  0  0  0
  181.9420  179.4010  137.7920 C   0  0  1  0  0  3  0  0  0  0  0  0
  181.1870  178.7150  136.6650 C   0  0  0  0  0  1  0  0  0  0  0  0
  181.8370  181.4970  138.9240 O   0  0  0  0  0  1  0  0  0  0  0  0
  181.5460  180.8390  137.8910 C   0  0  0  0  0  0  0  0  0  0  0  0
  180.8310  181.4470  136.8650 O   0  0  0  0  0  0  0  0  0  0  0  0
  181.5510  176.1370  139.1330 C   0  0  0  0  0  2  0  0  0  0  0  0
  180.8550  175.8650  140.3120 O   0  0  0  0  0  0  0  0  0  0  0  0
  180.0780  174.7490  140.0080 C   0  0  0  0  0  2  0  0  0  0  0  0
  180.0140  174.5720  138.5060 C   0  0  0  0  0  1  0  0  0  0  0  0
  183.6420  177.2460  138.3940 O   0  0  0  0  0  0  0  0  0  0  0  0
  183.7450  175.9700  137.8160 C   0  0  0  0  0  2  0  0  0  0  0  0
  183.9140  176.0950  136.3130 C   0  0  0  0  0  2  0  0  0  0  0  0
  184.9580  177.1440  135.9890 C   0  0  0  0  0  1  0  0  0  0  0  0
  1  3  2  0  0  0  0
  2 30  1  0  0  0  0
  3 33  1  0  0  0  0
  3  2  1  0  0  0  0
  4  2  1  0  0  0  0
  4  5  1  1  0  0  0
  7  6  1  6  0  0  0
  7  4  1  0  0  0  0
  8  7  1  0  0  0  0
  9 10  1  0  0  0  0
  9  8  1  0  0  0  0
 11 10  1  1  0  0  0
 13 16  2  0  0  0  0
 14 17  1  0  0  0  0
 15 14  2  0  0  0  0
 15 13  1  0  0  0  0
 16 12  1  0  0  0  0
 17 11  1  0  0  0  0
 17 12  2  0  0  0  0
 18 13  1  0  0  0  0
 18 20  1  0  0  0  0
 19 18  1  0  0  0  0
 22 11  1  0  0  0  0
 22 21  2  0  0  0  0
 23 27  1  0  0  0  0
 24 25  1  0  0  0  0
 24 28  1  0  0  0  0
 26 23  2  0  0  0  0
 26 29  1  0  0  0  0
 27 21  1  0  0  0  0
 27 25  2  0  0  0  0
 29 24  2  0  0  0  0
 30 32  1  0  0  0  0
 32 31  1  0  0  0  0
 33 39  1  1  0  0  0
 33 35  1  0  0  0  0
 35 37  1  0  0  0  0
 35 34  1  6  0  0  0
 37 36  1  0  0  0  0
 38 37  2  0  0  0  0
 40 48  1  6  0  0  0
 40 39  1  0  0  0  0
 42 40  1  0  0  0  0
 42 41  1  6  0  0  0
 43 44  1  6  0  0  0
 43 46  1  0  0  0  0
 43 42  1  0  0  0  0
 46 45  1  0  0  0  0
 47 46  2  0  0  0  0
 48 49  1  0  0  0  0
 50 49  1  0  0  0  0
 51 50  1  0  0  0  0
 52 40  1  0  0  0  0
 53 52  1  0  0  0  0
 54 53  1  0  0  0  0
 55 54  1  0  0  0  0
M  END
>  <MODEL>
5

>  <REMARK>
 VINA RESULT:      -5.1      3.907      7.983
  Name = 
  26 active torsions:
  status: ('A' for Active; 'I' for Inactive)
    1  A    between atoms: C_1  and  C_30
    2  A    between atoms: N_2  and  C_44
    3  A    between atoms: C_6  and  C_8
    4  A    between atoms: C_6  and  O_20
    5  A    between atoms: C_6  and  C_38
    6  A    between atoms: C_6  and  C_46
    7  A    between atoms: C_7  and  C_8
    8  A    between atoms: C_7  and  C_23
    9  A    between atoms: C_7  and  C_43
   10  A    between atoms: N_10  and  C_32
   11  A    between atoms: C_11  and  C_29
   12  A    between atoms: C_11  and  C_38
   13  A    between atoms: C_12  and  O_14
   14  A    between atoms: O_14  and  C_46
   15  A    between atoms: C_16  and  N_17
   16  A    between atoms: C_16  and  C_26
   17  A    between atoms: N_17  and  C_37
   18  A    between atoms: C_19  and  C_45
   19  A    between atoms: C_19  and  C_49
   20  A    between atoms: O_20  and  C_30
   21  A    between atoms: C_26  and  C_45
   22  A    between atoms: N_28  and  C_33
   23  A    between atoms: C_33  and  C_49
   24  A    between atoms: C_33  and  C_52
   25  A    between atoms: C_35  and  C_43
   26  A    between atoms: C_37  and  C_40
                            x       y       z     vdW  Elec       q    Type
                         _______ _______ _______ _____ _____    ______ ____

>  <TORSDO>
F 26

$$$$
=
 OpenBabel10272401433D

 55 56  0  0  1  0  0  0  0  0999 V2000
  184.5930  177.4490  137.9960 O   0  0  0  0  0  0  0  0  0  0  0  0
  182.5850  178.4630  138.6420 N   0  0  0  0  0  0  0  0  0  0  0  0
  183.3330  177.4160  137.9850 C   0  0  0  0  0  0  0  0  0  0  0  0
  183.2540  179.2760  139.6730 C   0  0  2  0  0  3  0  0  0  0  0  0
  184.2120  180.2850  139.0450 C   0  0  0  0  0  1  0  0  0  0  0  0
  183.1740  177.2980  141.0340 O   0  0  0  0  0  1  0  0  0  0  0  0
  183.9210  178.4500  140.7860 C   0  0  2  0  0  3  0  0  0  0  0  0
  184.1020  179.2370  142.0820 C   0  0  0  0  0  2  0  0  0  0  0  0
  185.4990  179.0240  142.6400 C   0  0  0  0  0  2  0  0  0  0  0  0
  186.4840  178.7590  141.5120 C   0  0  0  0  0  2  0  0  0  0  0  0
  187.4230  177.6100  141.8780 C   0  0  1  0  0  3  0  0  0  0  0  0
  189.4900  176.4810  141.0470 C   0  0  0  0  0  3  0  0  0  0  0  0
  190.4850  177.0440  138.9010 C   0  0  0  0  0  0  0  0  0  0  0  0
  188.4760  178.1840  139.6550 C   0  0  0  0  0  3  0  0  0  0  0  0
  189.4720  177.9920  138.6930 C   0  0  0  0  0  3  0  0  0  0  0  0
  190.4860  176.2900  140.0840 C   0  0  0  0  0  3  0  0  0  0  0  0
  188.4820  177.4270  140.8360 C   0  0  0  0  0  0  0  0  0  0  0  0
  191.5050  176.8490  137.9130 N   0  0  0  0  0  0  0  0  0  0  0  0
  191.1960  176.3150  136.7070 O   0  0  0  0  0  1  0  0  0  0  0  0
  192.8340  177.2080  138.1770 N   0  0  0  0  0  1  0  0  0  0  0  0
  187.7320  177.1080  144.1680 N   0  0  0  0  0  0  0  0  0  0  0  0
  188.0330  177.8450  143.1770 N   0  0  0  0  0  0  0  0  0  0  0  0
  189.7100  177.3570  145.5740 C   0  0  0  0  0  3  0  0  0  0  0  0
  188.1150  177.6470  147.8530 C   0  0  0  0  0  0  0  0  0  0  0  0
  187.5200  177.4470  146.6040 C   0  0  0  0  0  3  0  0  0  0  0  0
  190.3040  177.5580  146.8230 C   0  0  0  0  0  3  0  0  0  0  0  0
  188.3170  177.3020  145.4580 C   0  0  0  0  0  0  0  0  0  0  0  0
  187.3430  177.7890  148.9560 F   0  0  0  0  0  0  0  0  0  0  0  0
  189.5080  177.7030  147.9610 C   0  0  0  0  0  3  0  0  0  0  0  0
  181.1810  178.7000  138.2940 C   0  0  0  0  0  2  0  0  0  0  0  0
  180.3850  179.4140  136.0350 C   0  0  0  0  0  1  0  0  0  0  0  0
  181.0390  179.8660  137.3250 C   0  0  0  0  0  2  0  0  0  0  0  0
  182.6670  176.2550  137.2920 C   0  0  2  0  0  3  0  0  0  0  0  0
  180.4440  175.8260  136.4640 O   0  0  0  0  0  1  0  0  0  0  0  0
  181.1740  176.1440  137.6120 C   0  0  1  0  0  3  0  0  0  0  0  0
  180.3290  173.9000  138.3000 O   0  0  0  0  0  0  0  0  0  0  0  0
  180.9260  175.1010  138.6550 C   0  0  0  0  0  0  0  0  0  0  0  0
  181.2510  175.3070  139.8540 O   0  0  0  0  0  1  0  0  0  0  0  0
  183.4030  174.9400  137.5690 C   0  0  0  0  0  2  0  0  0  0  0  0
  183.6430  174.1010  136.3080 C   0  0  2  0  0  0  0  0  0  0  0  0
  185.1240  172.8780  137.8550 O   0  0  0  0  0  1  0  0  0  0  0  0
  184.9780  173.3340  136.5400 C   0  0  2  0  0  3  0  0  0  0  0  0
  186.2350  174.0880  136.0750 C   0  0  1  0  0  3  0  0  0  0  0  0
  187.0590  174.6300  137.2320 C   0  0  0  0  0  1  0  0  0  0  0  0
  186.5360  172.3010  134.5260 O   0  0  0  0  0  0  0  0  0  0  0  0
  187.0750  173.2240  135.1910 C   0  0  0  0  0  0  0  0  0  0  0  0
  188.4510  173.4120  135.1200 O   0  0  0  0  0  1  0  0  0  0  0  0
  183.7690  175.1160  135.1490 C   0  0  0  0  0  2  0  0  0  0  0  0
  185.0860  175.5210  134.9190 O   0  0  0  0  0  0  0  0  0  0  0  0
  184.9680  176.7860  134.3480 C   0  0  0  0  0  2  0  0  0  0  0  0
  185.9990  177.7120  134.9550 C   0  0  0  0  0  1  0  0  0  0  0  0
  182.5230  173.2330  136.1710 O   0  0  0  0  0  0  0  0  0  0  0  0
  182.3900  172.7680  134.8510 C   0  0  0  0  0  2  0  0  0  0  0  0
  181.9280  171.3220  134.8570 C   0  0  0  0  0  2  0  0  0  0  0  0
  182.8400  170.4840  135.7310 C   0  0  0  0  0  1  0  0  0  0  0  0
  2  4  1  0  0  0  0
  3  1  2  0  0  0  0
  3  2  1  0  0  0  0
  4  5  1  6  0  0  0
  4  7  1  0  0  0  0
  7  6  1  1  0  0  0
  7  8  1  0  0  0  0
  8  9  1  0  0  0  0
 10  9  1  0  0  0  0
 11 10  1  6  0  0  0
 11 22  1  0  0  0  0
 13 16  1  0  0  0  0
 14 17  2  0  0  0  0
 15 13  2  0  0  0  0
 15 14  1  0  0  0  0
 16 12  2  0  0  0  0
 17 12  1  0  0  0  0
 17 11  1  0  0  0  0
 18 20  1  0  0  0  0
 18 13  1  0  0  0  0
 19 18  1  0  0  0  0
 21 27  1  0  0  0  0
 22 21  2  0  0  0  0
 23 26  1  0  0  0  0
 24 29  1  0  0  0  0
 24 28  1  0  0  0  0
 25 24  2  0  0  0  0
 26 29  2  0  0  0  0
 27 23  2  0  0  0  0
 27 25  1  0  0  0  0
 30  2  1  0  0  0  0
 31 32  1  0  0  0  0
 32 30  1  0  0  0  0
 33 39  1  1  0  0  0
 33 35  1  0  0  0  0
 33  3  1  0  0  0  0
 35 34  1  6  0  0  0
 35 37  1  0  0  0  0
 36 37  2  0  0  0  0
 37 38  1  0  0  0  0
 40 48  1  6  0  0  0
 40 42  1  0  0  0  0
 40 39  1  0  0  0  0
 42 41  1  1  0  0  0
 43 42  1  0  0  0  0
 43 44  1  1  0  0  0
 45 46  2  0  0  0  0
 46 43  1  0  0  0  0
 47 46  1  0  0  0  0
 49 48  1  0  0  0  0
 50 49  1  0  0  0  0
 50 51  1  0  0  0  0
 52 40  1  0  0  0  0
 53 54  1  0  0  0  0
 53 52  1  0  0  0  0
 54 55  1  0  0  0  0
M  END
>  <MODEL>
6

>  <REMARK>
 VINA RESULT:      -4.6      2.987      5.670
  Name = 
  26 active torsions:
  status: ('A' for Active; 'I' for Inactive)
    1  A    between atoms: C_1  and  C_30
    2  A    between atoms: N_2  and  C_44
    3  A    between atoms: C_6  and  C_8
    4  A    between atoms: C_6  and  O_20
    5  A    between atoms: C_6  and  C_38
    6  A    between atoms: C_6  and  C_46
    7  A    between atoms: C_7  and  C_8
    8  A    between atoms: C_7  and  C_23
    9  A    between atoms: C_7  and  C_43
   10  A    between atoms: N_10  and  C_32
   11  A    between atoms: C_11  and  C_29
   12  A    between atoms: C_11  and  C_38
   13  A    between atoms: C_12  and  O_14
   14  A    between atoms: O_14  and  C_46
   15  A    between atoms: C_16  and  N_17
   16  A    between atoms: C_16  and  C_26
   17  A    between atoms: N_17  and  C_37
   18  A    between atoms: C_19  and  C_45
   19  A    between atoms: C_19  and  C_49
   20  A    between atoms: O_20  and  C_30
   21  A    between atoms: C_26  and  C_45
   22  A    between atoms: N_28  and  C_33
   23  A    between atoms: C_33  and  C_49
   24  A    between atoms: C_33  and  C_52
   25  A    between atoms: C_35  and  C_43
   26  A    between atoms: C_37  and  C_40
                            x       y       z     vdW  Elec       q    Type
                         _______ _______ _______ _____ _____    ______ ____

>  <TORSDO>
F 26

$$$$
=
 OpenBabel10272401433D

 55 56  0  0  1  0  0  0  0  0999 V2000
  186.2490  179.8750  141.2480 O   0  0  0  0  0  0  0  0  0  0  0  0
  186.5480  177.9360  142.5240 N   0  0  0  0  0  0  0  0  0  0  0  0
  185.7140  178.9210  141.8750 C   0  0  0  0  0  0  0  0  0  0  0  0
  187.9470  177.7870  142.0840 C   0  0  2  0  0  3  0  0  0  0  0  0
  188.8980  178.5560  142.9970 C   0  0  0  0  0  1  0  0  0  0  0  0
  187.3170  177.3430  139.8080 O   0  0  0  0  0  1  0  0  0  0  0  0
  188.1740  178.1120  140.5980 C   0  0  2  0  0  3  0  0  0  0  0  0
  189.6190  177.8930  140.1560 C   0  0  0  0  0  2  0  0  0  0  0  0
  189.6750  176.9230  138.9870 C   0  0  0  0  0  2  0  0  0  0  0  0
  191.1180  176.5660  138.6660 C   0  0  0  0  0  2  0  0  0  0  0  0
  191.1830  175.6250  137.4640 C   0  0  1  0  0  3  0  0  0  0  0  0
  192.5160  173.6260  136.7800 C   0  0  0  0  0  3  0  0  0  0  0  0
  194.8490  173.3640  137.4080 C   0  0  0  0  0  0  0  0  0  0  0  0
  193.6070  175.3300  138.1110 C   0  0  0  0  0  3  0  0  0  0  0  0
  194.7930  174.5900  138.0860 C   0  0  0  0  0  3  0  0  0  0  0  0
  193.7030  172.8880  136.7550 C   0  0  0  0  0  3  0  0  0  0  0  0
  192.4640  174.8490  137.4570 C   0  0  0  0  0  0  0  0  0  0  0  0
  196.0680  172.6080  137.3840 N   0  0  0  0  0  0  0  0  0  0  0  0
  197.1820  173.1260  136.8150 O   0  0  0  0  0  1  0  0  0  0  0  0
  196.1240  171.3260  137.9480 N   0  0  0  0  0  1  0  0  0  0  0  0
  189.2400  174.7010  136.4820 N   0  0  0  0  0  0  0  0  0  0  0  0
  190.0470  174.7180  137.4640 N   0  0  0  0  0  0  0  0  0  0  0  0
  188.0550  172.8390  135.4430 C   0  0  0  0  0  3  0  0  0  0  0  0
  186.0040  173.0260  137.3340 C   0  0  0  0  0  0  0  0  0  0  0  0
  187.0860  173.9090  137.3880 C   0  0  0  0  0  3  0  0  0  0  0  0
  186.9730  171.9570  135.3910 C   0  0  0  0  0  3  0  0  0  0  0  0
  188.1180  173.8180  136.4410 C   0  0  0  0  0  0  0  0  0  0  0  0
  185.0110  173.1150  138.2510 F   0  0  0  0  0  0  0  0  0  0  0  0
  185.9480  172.0490  136.3350 C   0  0  0  0  0  3  0  0  0  0  0  0
  186.0040  177.0930  143.5910 C   0  0  0  0  0  2  0  0  0  0  0  0
  186.3820  178.3220  145.7340 C   0  0  0  0  0  1  0  0  0  0  0  0
  186.8500  177.1810  144.8530 C   0  0  0  0  0  2  0  0  0  0  0  0
  184.2090  178.8510  141.8950 C   0  0  2  0  0  3  0  0  0  0  0  0
  184.1490  179.9380  144.0450 O   0  0  0  0  0  1  0  0  0  0  0  0
  183.6280  178.8690  143.3120 C   0  0  1  0  0  3  0  0  0  0  0  0
  181.5320  179.8980  142.4350 O   0  0  0  0  0  0  0  0  0  0  0  0
  182.1370  178.9770  143.2780 C   0  0  0  0  0  0  0  0  0  0  0  0
  181.4270  178.2410  144.0140 O   0  0  0  0  0  1  0  0  0  0  0  0
  183.6920  177.6550  141.0880 C   0  0  0  0  0  2  0  0  0  0  0  0
  183.0050  178.0580  139.7780 C   0  0  2  0  0  0  0  0  0  0  0  0
  185.0230  177.5590  138.4500 O   0  0  0  0  0  1  0  0  0  0  0  0
  183.6810  177.2180  138.6540 C   0  0  2  0  0  3  0  0  0  0  0  0
  182.9090  177.1950  137.3240 C   0  0  1  0  0  3  0  0  0  0  0  0
  183.8120  177.3920  136.1160 C   0  0  0  0  0  1  0  0  0  0  0  0
  180.9000  175.9890  136.8840 O   0  0  0  0  0  0  0  0  0  0  0  0
  182.1200  175.9330  137.1900 C   0  0  0  0  0  0  0  0  0  0  0  0
  182.7140  174.6990  137.4290 O   0  0  0  0  0  1  0  0  0  0  0  0
  183.2920  179.5670  139.6030 C   0  0  0  0  0  2  0  0  0  0  0  0
  182.6510  180.1190  138.4920 O   0  0  0  0  0  0  0  0  0  0  0  0
  181.6220  180.8900  139.0300 C   0  0  0  0  0  2  0  0  0  0  0  0
  180.4790  180.9660  138.0410 C   0  0  0  0  0  1  0  0  0  0  0  0
  181.6210  177.7660  139.9310 O   0  0  0  0  0  0  0  0  0  0  0  0
  181.4210  176.5520  140.6100 C   0  0  0  0  0  2  0  0  0  0  0  0
  180.1410  175.8950  140.1280 C   0  0  0  0  0  2  0  0  0  0  0  0
  180.0230  174.4970  140.7010 C   0  0  0  0  0  1  0  0  0  0  0  0
  1  3  2  0  0  0  0
  2 30  1  0  0  0  0
  3 33  1  0  0  0  0
  3  2  1  0  0  0  0
  4  2  1  0  0  0  0
  4  5  1  1  0  0  0
  7  6  1  6  0  0  0
  7  4  1  0  0  0  0
  8  7  1  0  0  0  0
  9  8  1  0  0  0  0
 10  9  1  0  0  0  0
 11 10  1  1  0  0  0
 12 17  1  0  0  0  0
 13 15  2  0  0  0  0
 15 14  1  0  0  0  0
 16 12  2  0  0  0  0
 16 13  1  0  0  0  0
 17 11  1  0  0  0  0
 17 14  2  0  0  0  0
 18 13  1  0  0  0  0
 18 20  1  0  0  0  0
 19 18  1  0  0  0  0
 21 22  2  0  0  0  0
 22 11  1  0  0  0  0
 23 27  1  0  0  0  0
 24 25  1  0  0  0  0
 24 28  1  0  0  0  0
 26 23  2  0  0  0  0
 26 29  1  0  0  0  0
 27 21  1  0  0  0  0
 27 25  2  0  0  0  0
 29 24  2  0  0  0  0
 30 32  1  0  0  0  0
 32 31  1  0  0  0  0
 33 39  1  1  0  0  0
 33 35  1  0  0  0  0
 35 34  1  1  0  0  0
 36 37  2  0  0  0  0
 37 35  1  0  0  0  0
 37 38  1  0  0  0  0
 40 48  1  6  0  0  0
 40 52  1  0  0  0  0
 40 39  1  0  0  0  0
 42 41  1  6  0  0  0
 42 40  1  0  0  0  0
 43 44  1  6  0  0  0
 43 42  1  0  0  0  0
 45 46  2  0  0  0  0
 46 43  1  0  0  0  0
 46 47  1  0  0  0  0
 49 50  1  0  0  0  0
 49 48  1  0  0  0  0
 51 50  1  0  0  0  0
 52 53  1  0  0  0  0
 54 53  1  0  0  0  0
 54 55  1  0  0  0  0
M  END
>  <MODEL>
7

>  <REMARK>
 VINA RESULT:      -4.6      4.113      7.477
  Name = 
  26 active torsions:
  status: ('A' for Active; 'I' for Inactive)
    1  A    between atoms: C_1  and  C_30
    2  A    between atoms: N_2  and  C_44
    3  A    between atoms: C_6  and  C_8
    4  A    between atoms: C_6  and  O_20
    5  A    between atoms: C_6  and  C_38
    6  A    between atoms: C_6  and  C_46
    7  A    between atoms: C_7  and  C_8
    8  A    between atoms: C_7  and  C_23
    9  A    between atoms: C_7  and  C_43
   10  A    between atoms: N_10  and  C_32
   11  A    between atoms: C_11  and  C_29
   12  A    between atoms: C_11  and  C_38
   13  A    between atoms: C_12  and  O_14
   14  A    between atoms: O_14  and  C_46
   15  A    between atoms: C_16  and  N_17
   16  A    between atoms: C_16  and  C_26
   17  A    between atoms: N_17  and  C_37
   18  A    between atoms: C_19  and  C_45
   19  A    between atoms: C_19  and  C_49
   20  A    between atoms: O_20  and  C_30
   21  A    between atoms: C_26  and  C_45
   22  A    between atoms: N_28  and  C_33
   23  A    between atoms: C_33  and  C_49
   24  A    between atoms: C_33  and  C_52
   25  A    between atoms: C_35  and  C_43
   26  A    between atoms: C_37  and  C_40
                            x       y       z     vdW  Elec       q    Type
                         _______ _______ _______ _____ _____    ______ ____

>  <TORSDO>
F 26

$$$$
=
 OpenBabel10272401433D

 55 56  0  0  1  0  0  0  0  0999 V2000
  187.7400  175.8060  143.4510 O   0  0  0  0  0  0  0  0  0  0  0  0
  189.2530  177.3170  144.4030 N   0  0  0  0  0  0  0  0  0  0  0  0
  187.9120  176.8720  144.1020 C   0  0  0  0  0  0  0  0  0  0  0  0
  190.3540  176.3390  144.3600 C   0  0  2  0  0  3  0  0  0  0  0  0
  191.5690  176.8390  145.1370 C   0  0  0  0  0  1  0  0  0  0  0  0
  191.0270  174.5080  142.9560 O   0  0  0  0  0  1  0  0  0  0  0  0
  190.7200  175.8700  142.9420 C   0  0  2  0  0  3  0  0  0  0  0  0
  191.8820  176.6540  142.3380 C   0  0  0  0  0  2  0  0  0  0  0  0
  191.4770  177.2580  141.0030 C   0  0  0  0  0  2  0  0  0  0  0  0
  190.8650  176.1930  140.1060 C   0  0  0  0  0  2  0  0  0  0  0  0
  191.2140  176.4600  138.6420 C   0  0  1  0  0  3  0  0  0  0  0  0
  192.0240  174.4440  137.4110 C   0  0  0  0  0  3  0  0  0  0  0  0
  194.3850  173.8790  137.2880 C   0  0  0  0  0  0  0  0  0  0  0  0
  193.6610  175.8510  138.5080 C   0  0  0  0  0  3  0  0  0  0  0  0
  194.6840  175.0090  138.0620 C   0  0  0  0  0  3  0  0  0  0  0  0
  193.0480  173.6020  136.9660 C   0  0  0  0  0  3  0  0  0  0  0  0
  192.3260  175.5700  138.1820 C   0  0  0  0  0  0  0  0  0  0  0  0
  195.4370  173.0170  136.8320 N   0  0  0  0  0  0  0  0  0  0  0  0
  195.4760  172.6100  135.5410 O   0  0  0  0  0  1  0  0  0  0  0  0
  196.4380  172.5840  137.7130 N   0  0  0  0  0  1  0  0  0  0  0  0
  189.0160  177.0070  137.9610 N   0  0  0  0  0  0  0  0  0  0  0  0
  190.0440  176.2770  137.7990 N   0  0  0  0  0  0  0  0  0  0  0  0
  187.6220  177.7820  136.1160 C   0  0  0  0  0  3  0  0  0  0  0  0
  185.8160  175.6880  136.5350 C   0  0  0  0  0  0  0  0  0  0  0  0
  186.9430  175.8140  137.3530 C   0  0  0  0  0  3  0  0  0  0  0  0
  186.4950  177.6550  135.2980 C   0  0  0  0  0  3  0  0  0  0  0  0
  187.8510  176.8630  137.1460 C   0  0  0  0  0  0  0  0  0  0  0  0
  184.9430  174.6730  136.7370 F   0  0  0  0  0  0  0  0  0  0  0  0
  185.5930  176.6090  135.5060 C   0  0  0  0  0  3  0  0  0  0  0  0
  189.5070  178.7170  144.7560 C   0  0  0  0  0  2  0  0  0  0  0  0
  191.6030  179.9080  144.0990 C   0  0  0  0  0  1  0  0  0  0  0  0
  190.2350  179.4480  143.6370 C   0  0  0  0  0  2  0  0  0  0  0  0
  186.6860  177.6230  144.5550 C   0  0  2  0  0  3  0  0  0  0  0  0
  187.2080  176.4420  146.5910 O   0  0  0  0  0  1  0  0  0  0  0  0
  186.3820  177.4270  146.0430 C   0  0  1  0  0  3  0  0  0  0  0  0
  187.7750  178.9470  147.4470 O   0  0  0  0  0  1  0  0  0  0  0  0
  186.5720  178.7020  146.8000 C   0  0  0  0  0  0  0  0  0  0  0  0
  185.6450  179.5540  146.8600 O   0  0  0  0  0  0  0  0  0  0  0  0
  185.4710  177.2920  143.6830 C   0  0  0  0  0  2  0  0  0  0  0  0
  185.1330  178.3920  142.6700 C   0  0  2  0  0  0  0  0  0  0  0  0
  184.6930  180.2850  144.1870 O   0  0  0  0  0  1  0  0  0  0  0  0
  184.0960  179.3230  143.3650 C   0  0  2  0  0  3  0  0  0  0  0  0
  182.9710  178.5820  144.1080 C   0  0  1  0  0  3  0  0  0  0  0  0
  183.0090  178.8100  145.6110 C   0  0  0  0  0  1  0  0  0  0  0  0
  181.5300  179.9540  142.7940 O   0  0  0  0  0  0  0  0  0  0  0  0
  181.6340  178.9550  143.5530 C   0  0  0  0  0  0  0  0  0  0  0  0
  180.5010  178.2250  143.8920 O   0  0  0  0  0  1  0  0  0  0  0  0
  184.5120  177.6650  141.4550 C   0  0  0  0  0  2  0  0  0  0  0  0
  183.6630  178.4810  140.7050 O   0  0  0  0  0  0  0  0  0  0  0  0
  183.4320  177.7630  139.5330 C   0  0  0  0  0  2  0  0  0  0  0  0
  184.0430  178.5010  138.3610 C   0  0  0  0  0  1  0  0  0  0  0  0
  186.3520  179.0570  142.3590 O   0  0  0  0  0  0  0  0  0  0  0  0
  186.7630  178.7910  141.0420 C   0  0  0  0  0  2  0  0  0  0  0  0
  188.2500  178.4890  141.0150 C   0  0  0  0  0  2  0  0  0  0  0  0
  188.9000  179.1590  139.8220 C   0  0  0  0  0  1  0  0  0  0  0  0
  1  3  2  0  0  0  0
  2 30  1  0  0  0  0
  3  2  1  0  0  0  0
  3 33  1  0  0  0  0
  4  2  1  0  0  0  0
  4  5  1  6  0  0  0
  7  6  1  1  0  0  0
  7  4  1  0  0  0  0
  8  7  1  0  0  0  0
  9  8  1  0  0  0  0
 10  9  1  0  0  0  0
 11 10  1  1  0  0  0
 12 17  1  0  0  0  0
 13 15  2  0  0  0  0
 15 14  1  0  0  0  0
 16 13  1  0  0  0  0
 16 12  2  0  0  0  0
 17 14  2  0  0  0  0
 17 11  1  0  0  0  0
 18 13  1  0  0  0  0
 18 20  1  0  0  0  0
 19 18  1  0  0  0  0
 22 21  2  0  0  0  0
 22 11  1  0  0  0  0
 23 27  1  0  0  0  0
 24 28  1  0  0  0  0
 24 25  1  0  0  0  0
 26 29  1  0  0  0  0
 26 23  2  0  0  0  0
 27 25  2  0  0  0  0
 27 21  1  0  0  0  0
 29 24  2  0  0  0  0
 32 31  1  0  0  0  0
 32 30  1  0  0  0  0
 33 39  1  6  0  0  0
 33 35  1  0  0  0  0
 35 34  1  1  0  0  0
 35 37  1  0  0  0  0
 37 38  2  0  0  0  0
 37 36  1  0  0  0  0
 40 48  1  6  0  0  0
 40 42  1  0  0  0  0
 40 39  1  0  0  0  0
 42 43  1  0  0  0  0
 42 41  1  1  0  0  0
 43 44  1  1  0  0  0
 45 46  2  0  0  0  0
 46 47  1  0  0  0  0
 46 43  1  0  0  0  0
 49 48  1  0  0  0  0
 50 49  1  0  0  0  0
 51 50  1  0  0  0  0
 52 40  1  0  0  0  0
 53 52  1  0  0  0  0
 54 53  1  0  0  0  0
 55 54  1  0  0  0  0
M  END
>  <MODEL>
8

>  <REMARK>
 VINA RESULT:      -4.4      4.150      8.616
  Name = 
  26 active torsions:
  status: ('A' for Active; 'I' for Inactive)
    1  A    between atoms: C_1  and  C_30
    2  A    between atoms: N_2  and  C_44
    3  A    between atoms: C_6  and  C_8
    4  A    between atoms: C_6  and  O_20
    5  A    between atoms: C_6  and  C_38
    6  A    between atoms: C_6  and  C_46
    7  A    between atoms: C_7  and  C_8
    8  A    between atoms: C_7  and  C_23
    9  A    between atoms: C_7  and  C_43
   10  A    between atoms: N_10  and  C_32
   11  A    between atoms: C_11  and  C_29
   12  A    between atoms: C_11  and  C_38
   13  A    between atoms: C_12  and  O_14
   14  A    between atoms: O_14  and  C_46
   15  A    between atoms: C_16  and  N_17
   16  A    between atoms: C_16  and  C_26
   17  A    between atoms: N_17  and  C_37
   18  A    between atoms: C_19  and  C_45
   19  A    between atoms: C_19  and  C_49
   20  A    between atoms: O_20  and  C_30
   21  A    between atoms: C_26  and  C_45
   22  A    between atoms: N_28  and  C_33
   23  A    between atoms: C_33  and  C_49
   24  A    between atoms: C_33  and  C_52
   25  A    between atoms: C_35  and  C_43
   26  A    between atoms: C_37  and  C_40
                            x       y       z     vdW  Elec       q    Type
                         _______ _______ _______ _____ _____    ______ ____

>  <TORSDO>
F 26

$$$$
=
 OpenBabel10272401433D

 55 56  0  0  1  0  0  0  0  0999 V2000
  183.3860  175.9060  140.3470 O   0  0  0  0  0  0  0  0  0  0  0  0
  182.6770  178.1240  140.5890 N   0  0  0  0  0  0  0  0  0  0  0  0
  182.7070  176.8630  139.8850 C   0  0  0  0  0  0  0  0  0  0  0  0
  183.0400  178.1500  142.0180 C   0  0  2  0  0  3  0  0  0  0  0  0
  182.2780  179.2420  142.7620 C   0  0  0  0  0  1  0  0  0  0  0  0
  184.7940  178.5870  143.6010 O   0  0  0  0  0  1  0  0  0  0  0  0
  184.5550  178.2140  142.2770 C   0  0  2  0  0  3  0  0  0  0  0  0
  185.2800  179.1680  141.3320 C   0  0  0  0  0  2  0  0  0  0  0  0
  186.6250  178.5910  140.9230 C   0  0  0  0  0  2  0  0  0  0  0  0
  187.2890  177.9110  142.1100 C   0  0  0  0  0  2  0  0  0  0  0  0
  188.8040  178.1080  142.0630 C   0  0  1  0  0  3  0  0  0  0  0  0
  188.6800  177.0280  144.3110 C   0  0  0  0  0  3  0  0  0  0  0  0
  190.5970  176.9540  145.8050 C   0  0  0  0  0  0  0  0  0  0  0  0
  190.7810  178.0260  143.6320 C   0  0  0  0  0  3  0  0  0  0  0  0
  191.3550  177.6450  144.8490 C   0  0  0  0  0  3  0  0  0  0  0  0
  189.2560  176.6490  145.5280 C   0  0  0  0  0  3  0  0  0  0  0  0
  189.4390  177.7170  143.3600 C   0  0  0  0  0  0  0  0  0  0  0  0
  191.1890  176.5650  147.0520 N   0  0  0  0  0  0  0  0  0  0  0  0
  191.7270  177.4990  147.8740 O   0  0  0  0  0  1  0  0  0  0  0  0
  191.2190  175.2190  147.4390 N   0  0  0  0  0  1  0  0  0  0  0  0
  190.2090  177.8910  140.1720 N   0  0  0  0  0  0  0  0  0  0  0  0
  189.3840  177.3440  140.9700 N   0  0  0  0  0  0  0  0  0  0  0  0
  192.1840  176.9250  139.1160 C   0  0  0  0  0  3  0  0  0  0  0  0
  190.6430  175.9860  136.9800 C   0  0  0  0  0  0  0  0  0  0  0  0
  190.0370  176.6980  138.0190 C   0  0  0  0  0  3  0  0  0  0  0  0
  192.7890  176.2120  138.0770 C   0  0  0  0  0  3  0  0  0  0  0  0
  190.8070  177.1700  139.0930 C   0  0  0  0  0  0  0  0  0  0  0  0
  189.8970  175.5300  135.9460 F   0  0  0  0  0  0  0  0  0  0  0  0
  192.0200  175.7420  137.0100 C   0  0  0  0  0  3  0  0  0  0  0  0
  182.2800  179.3510  139.8940 C   0  0  0  0  0  2  0  0  0  0  0  0
  180.2820  180.8530  139.8920 C   0  0  0  0  0  1  0  0  0  0  0  0
  180.7690  179.4280  139.7250 C   0  0  0  0  0  2  0  0  0  0  0  0
  181.9350  176.6250  138.6120 C   0  0  2  0  0  3  0  0  0  0  0  0
  179.9860  175.4490  137.8190 O   0  0  0  0  0  1  0  0  0  0  0  0
  180.4750  176.2390  138.8630 C   0  0  1  0  0  3  0  0  0  0  0  0
  179.9830  176.1720  141.3080 O   0  0  0  0  0  1  0  0  0  0  0  0
  180.3320  175.4910  140.1510 C   0  0  0  0  0  0  0  0  0  0  0  0
  180.5340  174.2480  140.1930 O   0  0  0  0  0  0  0  0  0  0  0  0
  182.6410  175.6070  137.7100 C   0  0  0  0  0  2  0  0  0  0  0  0
  183.2910  176.2400  136.4740 C   0  0  2  0  0  0  0  0  0  0  0  0
  184.6210  178.1540  137.2800 O   0  0  0  0  0  1  0  0  0  0  0  0
  184.6680  176.7970  136.9410 C   0  0  2  0  0  3  0  0  0  0  0  0
  185.8320  176.5090  135.9780 C   0  0  1  0  0  3  0  0  0  0  0  0
  186.9640  177.5170  136.1040 C   0  0  0  0  0  1  0  0  0  0  0  0
  187.0070  174.8310  137.1980 O   0  0  0  0  0  1  0  0  0  0  0  0
  186.3450  175.1170  136.1660 C   0  0  0  0  0  0  0  0  0  0  0  0
  186.1220  174.1450  135.1980 O   0  0  0  0  0  0  0  0  0  0  0  0
  182.3400  177.3800  136.0400 C   0  0  0  0  0  2  0  0  0  0  0  0
  181.2850  176.9350  135.2400 O   0  0  0  0  0  0  0  0  0  0  0  0
  180.5510  178.0860  134.9590 C   0  0  0  0  0  2  0  0  0  0  0  0
  180.3640  178.8880  136.2290 C   0  0  0  0  0  1  0  0  0  0  0  0
  183.4120  175.2110  135.4980 O   0  0  0  0  0  0  0  0  0  0  0  0
  182.9280  173.9830  135.9800 C   0  0  0  0  0  2  0  0  0  0  0  0
  181.4290  173.8960  135.7610 C   0  0  0  0  0  2  0  0  0  0  0  0
  181.0920  172.6820  134.9190 C   0  0  0  0  0  1  0  0  0  0  0  0
  2  4  1  0  0  0  0
  3  1  2  0  0  0  0
  3  2  1  0  0  0  0
  4  7  1  0  0  0  0
  4  5  1  6  0  0  0
  7  6  1  1  0  0  0
  8  7  1  0  0  0  0
  9  8  1  0  0  0  0
  9 10  1  0  0  0  0
 11 10  1  1  0  0  0
 11 17  1  0  0  0  0
 12 16  1  0  0  0  0
 13 18  1  0  0  0  0
 14 15  2  0  0  0  0
 15 13  1  0  0  0  0
 16 13  2  0  0  0  0
 17 14  1  0  0  0  0
 17 12  2  0  0  0  0
 18 20  1  0  0  0  0
 18 19  1  0  0  0  0
 21 22  2  0  0  0  0
 22 11  1  0  0  0  0
 24 29  2  0  0  0  0
 24 25  1  0  0  0  0
 25 27  2  0  0  0  0
 26 23  2  0  0  0  0
 27 23  1  0  0  0  0
 27 21  1  0  0  0  0
 28 24  1  0  0  0  0
 29 26  1  0  0  0  0
 30  2  1  0  0  0  0
 32 31  1  0  0  0  0
 32 30  1  0  0  0  0
 33 39  1  1  0  0  0
 33 35  1  0  0  0  0
 33  3  1  0  0  0  0
 35 34  1  6  0  0  0
 35 37  1  0  0  0  0
 37 38  2  0  0  0  0
 37 36  1  0  0  0  0
 40 48  1  6  0  0  0
 40 42  1  0  0  0  0
 40 39  1  0  0  0  0
 42 41  1  6  0  0  0
 43 44  1  1  0  0  0
 43 46  1  0  0  0  0
 43 42  1  0  0  0  0
 46 45  1  0  0  0  0
 47 46  2  0  0  0  0
 49 48  1  0  0  0  0
 50 49  1  0  0  0  0
 50 51  1  0  0  0  0
 52 53  1  0  0  0  0
 52 40  1  0  0  0  0
 54 53  1  0  0  0  0
 55 54  1  0  0  0  0
M  END
>  <MODEL>
9

>  <REMARK>
 VINA RESULT:      -4.4      2.750      5.576
  Name = 
  26 active torsions:
  status: ('A' for Active; 'I' for Inactive)
    1  A    between atoms: C_1  and  C_30
    2  A    between atoms: N_2  and  C_44
    3  A    between atoms: C_6  and  C_8
    4  A    between atoms: C_6  and  O_20
    5  A    between atoms: C_6  and  C_38
    6  A    between atoms: C_6  and  C_46
    7  A    between atoms: C_7  and  C_8
    8  A    between atoms: C_7  and  C_23
    9  A    between atoms: C_7  and  C_43
   10  A    between atoms: N_10  and  C_32
   11  A    between atoms: C_11  and  C_29
   12  A    between atoms: C_11  and  C_38
   13  A    between atoms: C_12  and  O_14
   14  A    between atoms: O_14  and  C_46
   15  A    between atoms: C_16  and  N_17
   16  A    between atoms: C_16  and  C_26
   17  A    between atoms: N_17  and  C_37
   18  A    between atoms: C_19  and  C_45
   19  A    between atoms: C_19  and  C_49
   20  A    between atoms: O_20  and  C_30
   21  A    between atoms: C_26  and  C_45
   22  A    between atoms: N_28  and  C_33
   23  A    between atoms: C_33  and  C_49
   24  A    between atoms: C_33  and  C_52
   25  A    between atoms: C_35  and  C_43
   26  A    between atoms: C_37  and  C_40
                            x       y       z     vdW  Elec       q    Type
                         _______ _______ _______ _____ _____    ______ ____

>  <TORSDO>
F 26

$$$$
