=
 OpenBabel10272413333D

 32 37  0  0  1  0  0  0  0  0999 V2000
  191.7760  176.8520  147.3540 C   0  0  2  0  0  3  0  0  0  0  0  0
  188.1460  177.7860  147.6460 C   0  0  0  0  0  3  0  0  0  0  0  0
  185.7940  177.9470  142.9070 C   0  0  0  0  0  0  0  0  0  0  0  0
  181.2000  179.2340  144.2570 C   0  0  0  0  0  3  0  0  0  0  0  0
  180.8780  179.1990  142.9650 C   0  0  0  0  0  3  0  0  0  0  0  0
  187.5940  177.6400  144.5210 C   0  0  0  0  0  0  0  0  0  0  0  0
  185.3680  178.2700  145.2620 C   0  0  0  0  0  3  0  0  0  0  0  0
  190.5280  177.2190  147.9940 N   0  0  0  0  0  2  0  0  0  0  0  0
  187.0050  178.0150  147.0070 C   0  0  0  0  0  3  0  0  0  0  0  0
  182.5900  178.9240  144.7400 C   0  0  0  0  0  3  0  0  0  0  0  0
  184.9010  178.2680  143.9430 C   0  0  0  0  0  0  0  0  0  0  0  0
  183.5640  178.5760  143.6300 C   0  0  0  0  0  0  0  0  0  0  0  0
  184.0870  178.2290  141.2740 C   0  0  0  0  0  0  0  0  0  0  0  0
  191.4640  176.7550  145.5600 S   0  0  0  0  0  0  0  0  0  0  0  0
  189.7550  177.2130  145.8240 C   0  0  0  0  0  0  0  0  0  0  0  0
  192.2090  175.5550  147.8410 N   0  0  0  0  0  1  0  0  0  0  0  0
  186.6980  177.9620  145.5720 C   0  0  0  0  0  0  0  0  0  0  0  0
  188.8840  177.3260  144.6490 C   0  0  0  0  0  3  0  0  0  0  0  0
  189.4470  177.4080  147.0970 C   0  0  0  0  0  0  0  0  0  0  0  0
  181.8820  178.8500  141.9510 C   0  0  0  0  0  3  0  0  0  0  0  0
  183.1500  178.5580  142.2760 C   0  0  0  0  0  0  0  0  0  0  0  0
  187.1190  177.6400  143.2040 C   0  0  0  0  0  3  0  0  0  0  0  0
  185.3700  177.9370  141.6180 N   0  0  0  0  0  2  0  0  0  0  0  0
  182.9570  176.4900  138.1960 C   0  0  0  0  0  0  0  0  0  0  0  0
  183.6390  177.2830  137.1240 C   0  0  0  0  0  2  0  0  0  0  0  0
  184.8970  178.5670  138.9180 C   0  0  1  0  0  3  0  0  0  0  0  0
  185.7100  178.3780  136.6480 F   0  0  0  0  0  0  0  0  0  0  0  0
  185.0090  177.7130  137.6380 C   0  0  2  0  0  3  0  0  0  0  0  0
  183.0190  176.9000  139.4680 C   0  0  0  0  0  3  0  0  0  0  0  0
  182.3670  175.3050  137.8940 F   0  0  0  0  0  0  0  0  0  0  0  0
  184.8210  179.9240  138.5970 O   0  0  0  0  0  1  0  0  0  0  0  0
  183.7010  178.1980  139.8230 C   0  0  1  0  0  3  0  0  0  0  0  0
  1 16  1  1  0  0  0
  1  8  1  0  0  0  0
  3 22  2  0  0  0  0
  3 11  1  0  0  0  0
  4 10  2  0  0  0  0
  5  4  1  0  0  0  0
  6 18  2  0  0  0  0
  6 17  1  0  0  0  0
  7 17  2  0  0  0  0
  9  2  2  0  0  0  0
 11  7  1  0  0  0  0
 12 11  2  0  0  0  0
 12 10  1  0  0  0  0
 13 23  1  0  0  0  0
 13 21  2  0  0  0  0
 14 15  1  0  0  0  0
 14  1  1  0  0  0  0
 15 19  2  0  0  0  0
 17  9  1  0  0  0  0
 18 15  1  0  0  0  0
 19  2  1  0  0  0  0
 19  8  1  0  0  0  0
 20 21  1  0  0  0  0
 20  5  2  0  0  0  0
 21 12  1  0  0  0  0
 22  6  1  0  0  0  0
 23  3  1  0  0  0  0
 24 29  2  0  0  0  0
 25 28  1  0  0  0  0
 25 24  1  0  0  0  0
 26 31  1  6  0  0  0
 26 32  1  0  0  0  0
 28 27  1  6  0  0  0
 28 26  1  0  0  0  0
 29 32  1  0  0  0  0
 30 24  1  0  0  0  0
 32 13  1  1  0  0  0
M  END
>  <MODEL>
1

>  <REMARK>
 VINA RESULT:     -11.4      0.000      0.000
  Name = 
  1 active torsions:
  status: ('A' for Active; 'I' for Inactive)
    1  A    between atoms: C_16  and  C_32
                            x       y       z     vdW  Elec       q    Type
                         _______ _______ _______ _____ _____    ______ ____

>  <TORSDO>
F 1

$$$$
=
 OpenBabel10272413333D

 32 37  0  0  1  0  0  0  0  0999 V2000
  191.5920  176.8400  146.9380 C   0  0  2  0  0  3  0  0  0  0  0  0
  187.9290  177.6220  147.2640 C   0  0  0  0  0  3  0  0  0  0  0  0
  185.6160  178.1050  142.5270 C   0  0  0  0  0  0  0  0  0  0  0  0
  180.9680  179.1150  143.9250 C   0  0  0  0  0  3  0  0  0  0  0  0
  180.6590  179.1780  142.6310 C   0  0  0  0  0  3  0  0  0  0  0  0
  187.4110  177.7230  144.1310 C   0  0  0  0  0  0  0  0  0  0  0  0
  185.1570  178.2110  144.8960 C   0  0  0  0  0  3  0  0  0  0  0  0
  190.3260  177.1090  147.5910 N   0  0  0  0  0  2  0  0  0  0  0  0
  186.7860  177.8660  146.6320 C   0  0  0  0  0  3  0  0  0  0  0  0
  182.3630  178.8130  144.3970 C   0  0  0  0  0  3  0  0  0  0  0  0
  184.7030  178.3060  143.5760 C   0  0  0  0  0  0  0  0  0  0  0  0
  183.3590  178.5940  143.2730 C   0  0  0  0  0  0  0  0  0  0  0  0
  183.9160  178.4650  140.9030 C   0  0  0  0  0  0  0  0  0  0  0  0
  191.3000  176.8860  145.1380 S   0  0  0  0  0  0  0  0  0  0  0  0
  189.5740  177.2610  145.4190 C   0  0  0  0  0  0  0  0  0  0  0  0
  192.0660  175.5230  147.3190 N   0  0  0  0  0  1  0  0  0  0  0  0
  186.4950  177.9240  145.1950 C   0  0  0  0  0  0  0  0  0  0  0  0
  188.7100  177.4440  144.2470 C   0  0  0  0  0  3  0  0  0  0  0  0
  189.2470  177.3370  146.7000 C   0  0  0  0  0  0  0  0  0  0  0  0
  181.6840  178.9520  141.6030 C   0  0  0  0  0  3  0  0  0  0  0  0
  182.9580  178.6760  141.9180 C   0  0  0  0  0  0  0  0  0  0  0  0
  186.9490  177.8180  142.8130 C   0  0  0  0  0  3  0  0  0  0  0  0
  185.2050  178.1890  141.2370 N   0  0  0  0  0  2  0  0  0  0  0  0
  182.1300  179.9980  138.0330 C   0  0  0  0  0  0  0  0  0  0  0  0
  181.8640  178.8070  137.1630 C   0  0  0  0  0  2  0  0  0  0  0  0
  182.7440  177.3010  139.0080 C   0  0  1  0  0  3  0  0  0  0  0  0
  181.2310  176.5060  137.2970 F   0  0  0  0  0  0  0  0  0  0  0  0
  181.5670  177.6100  138.0590 C   0  0  2  0  0  3  0  0  0  0  0  0
  182.8880  179.8640  139.1270 C   0  0  0  0  0  3  0  0  0  0  0  0
  181.5210  181.1820  137.7700 F   0  0  0  0  0  0  0  0  0  0  0  0
  183.6180  176.3830  138.4220 O   0  0  0  0  0  1  0  0  0  0  0  0
  183.5450  178.5450  139.4500 C   0  0  1  0  0  3  0  0  0  0  0  0
  1 16  1  1  0  0  0
  1  8  1  0  0  0  0
  3 22  2  0  0  0  0
  3 11  1  0  0  0  0
  4 10  2  0  0  0  0
  5  4  1  0  0  0  0
  6 18  2  0  0  0  0
  6 17  1  0  0  0  0
  7 17  2  0  0  0  0
  9  2  2  0  0  0  0
 11  7  1  0  0  0  0
 12 11  2  0  0  0  0
 12 10  1  0  0  0  0
 13 23  1  0  0  0  0
 13 21  2  0  0  0  0
 14 15  1  0  0  0  0
 14  1  1  0  0  0  0
 15 19  2  0  0  0  0
 17  9  1  0  0  0  0
 18 15  1  0  0  0  0
 19  2  1  0  0  0  0
 19  8  1  0  0  0  0
 20 21  1  0  0  0  0
 20  5  2  0  0  0  0
 21 12  1  0  0  0  0
 22  6  1  0  0  0  0
 23  3  1  0  0  0  0
 24 29  2  0  0  0  0
 25 24  1  0  0  0  0
 25 28  1  0  0  0  0
 26 31  1  6  0  0  0
 26 32  1  0  0  0  0
 28 27  1  6  0  0  0
 28 26  1  0  0  0  0
 29 32  1  0  0  0  0
 30 24  1  0  0  0  0
 32 13  1  1  0  0  0
M  END
>  <MODEL>
2

>  <REMARK>
 VINA RESULT:     -10.9      1.486      1.968
  Name = 
  1 active torsions:
  status: ('A' for Active; 'I' for Inactive)
    1  A    between atoms: C_16  and  C_32
                            x       y       z     vdW  Elec       q    Type
                         _______ _______ _______ _____ _____    ______ ____

>  <TORSDO>
F 1

$$$$
=
 OpenBabel10272413333D

 32 37  0  0  1  0  0  0  0  0999 V2000
  191.2890  176.7980  147.3250 C   0  0  2  0  0  3  0  0  0  0  0  0
  187.7130  177.5210  146.4170 C   0  0  0  0  0  3  0  0  0  0  0  0
  187.1040  178.0440  141.1850 C   0  0  0  0  0  0  0  0  0  0  0  0
  182.2370  178.9630  140.9610 C   0  0  0  0  0  3  0  0  0  0  0  0
  182.3770  179.0420  139.6390 C   0  0  0  0  0  3  0  0  0  0  0  0
  188.2670  177.6640  143.2930 C   0  0  0  0  0  0  0  0  0  0  0  0
  185.8790  178.1060  143.2660 C   0  0  0  0  0  3  0  0  0  0  0  0
  189.8720  177.0370  147.5210 N   0  0  0  0  0  2  0  0  0  0  0  0
  186.8420  177.7570  145.4430 C   0  0  0  0  0  3  0  0  0  0  0  0
  183.4000  178.6740  141.8690 C   0  0  0  0  0  3  0  0  0  0  0  0
  185.8890  178.2140  141.8710 C   0  0  0  0  0  0  0  0  0  0  0  0
  184.7180  178.4880  141.1400 C   0  0  0  0  0  0  0  0  0  0  0  0
  186.0360  178.4050  139.0910 C   0  0  0  0  0  0  0  0  0  0  0  0
  191.6130  176.8680  145.5320 S   0  0  0  0  0  0  0  0  0  0  0  0
  189.8860  177.2130  145.2240 C   0  0  0  0  0  0  0  0  0  0  0  0
  191.6340  175.4820  147.8290 N   0  0  0  0  0  1  0  0  0  0  0  0
  187.0460  177.8340  143.9920 C   0  0  0  0  0  0  0  0  0  0  0  0
  189.4590  177.4020  143.8330 C   0  0  0  0  0  3  0  0  0  0  0  0
  189.1490  177.2640  146.3240 C   0  0  0  0  0  0  0  0  0  0  0  0
  183.6900  178.8470  139.0100 C   0  0  0  0  0  3  0  0  0  0  0  0
  184.7910  178.5850  139.7300 C   0  0  0  0  0  0  0  0  0  0  0  0
  188.2700  177.7730  141.8970 C   0  0  0  0  0  3  0  0  0  0  0  0
  187.1450  178.1430  139.8330 N   0  0  0  0  0  2  0  0  0  0  0  0
  185.5510  177.1170  135.6440 C   0  0  0  0  0  0  0  0  0  0  0  0
  186.7540  177.6630  134.9370 C   0  0  0  0  0  2  0  0  0  0  0  0
  187.6520  178.4840  137.1660 C   0  0  1  0  0  3  0  0  0  0  0  0
  189.0880  178.0610  135.2670 F   0  0  0  0  0  0  0  0  0  0  0  0
  187.9340  177.6430  135.9040 C   0  0  2  0  0  3  0  0  0  0  0  0
  185.2990  177.4820  136.9060 C   0  0  0  0  0  3  0  0  0  0  0  0
  184.7780  176.1760  135.0430 F   0  0  0  0  0  0  0  0  0  0  0  0
  188.0880  179.7980  136.9860 O   0  0  0  0  0  1  0  0  0  0  0  0
  186.1700  178.5020  137.5980 C   0  0  1  0  0  3  0  0  0  0  0  0
  1  8  1  0  0  0  0
  1 16  1  6  0  0  0
  3 11  1  0  0  0  0
  3 22  2  0  0  0  0
  4 10  2  0  0  0  0
  5  4  1  0  0  0  0
  6 18  2  0  0  0  0
  6 17  1  0  0  0  0
  7 17  2  0  0  0  0
  9  2  2  0  0  0  0
 11  7  1  0  0  0  0
 12 10  1  0  0  0  0
 12 11  2  0  0  0  0
 13 21  2  0  0  0  0
 13 23  1  0  0  0  0
 14  1  1  0  0  0  0
 15 14  1  0  0  0  0
 15 19  2  0  0  0  0
 17  9  1  0  0  0  0
 18 15  1  0  0  0  0
 19  2  1  0  0  0  0
 19  8  1  0  0  0  0
 20  5  2  0  0  0  0
 20 21  1  0  0  0  0
 21 12  1  0  0  0  0
 22  6  1  0  0  0  0
 23  3  1  0  0  0  0
 24 29  2  0  0  0  0
 25 24  1  0  0  0  0
 25 28  1  0  0  0  0
 26 31  1  6  0  0  0
 26 32  1  0  0  0  0
 28 27  1  6  0  0  0
 28 26  1  0  0  0  0
 29 32  1  0  0  0  0
 30 24  1  0  0  0  0
 32 13  1  1  0  0  0
M  END
>  <MODEL>
3

>  <REMARK>
 VINA RESULT:     -10.0      1.781      2.638
  Name = 
  1 active torsions:
  status: ('A' for Active; 'I' for Inactive)
    1  A    between atoms: C_16  and  C_32
                            x       y       z     vdW  Elec       q    Type
                         _______ _______ _______ _____ _____    ______ ____

>  <TORSDO>
F 1

$$$$
=
 OpenBabel10272413333D

 32 37  0  0  1  0  0  0  0  0999 V2000
  180.4820  179.4400  142.9540 C   0  0  2  0  0  3  0  0  0  0  0  0
  183.4760  178.8250  145.1440 C   0  0  0  0  0  3  0  0  0  0  0  0
  187.7280  177.4850  142.2910 C   0  0  0  0  0  0  0  0  0  0  0  0
  191.0550  176.8790  145.9160 C   0  0  0  0  0  3  0  0  0  0  0  0
  191.9390  176.5730  144.9690 C   0  0  0  0  0  3  0  0  0  0  0  0
  185.4190  178.1280  142.7290 C   0  0  0  0  0  0  0  0  0  0  0  0
  186.9900  177.8530  144.5610 C   0  0  0  0  0  3  0  0  0  0  0  0
  181.2590  179.3340  144.1740 N   0  0  0  0  0  2  0  0  0  0  0  0
  184.7600  178.4910  145.1990 C   0  0  0  0  0  3  0  0  0  0  0  0
  189.6300  177.2340  145.5920 C   0  0  0  0  0  3  0  0  0  0  0  0
  188.0120  177.5150  143.6670 C   0  0  0  0  0  0  0  0  0  0  0  0
  189.3110  177.2060  144.1090 C   0  0  0  0  0  0  0  0  0  0  0  0
  189.9660  176.8570  141.7860 C   0  0  0  0  0  0  0  0  0  0  0  0
  181.5940  179.0520  141.5620 S   0  0  0  0  0  0  0  0  0  0  0  0
  182.9430  178.7800  142.7040 C   0  0  0  0  0  0  0  0  0  0  0  0
  179.9820  180.7950  142.8110 N   0  0  0  0  0  1  0  0  0  0  0  0
  185.6970  178.1610  144.1190 C   0  0  0  0  0  0  0  0  0  0  0  0
  184.2460  178.3940  142.1500 C   0  0  0  0  0  3  0  0  0  0  0  0
  182.6120  178.9630  143.9730 C   0  0  0  0  0  0  0  0  0  0  0  0
  191.5500  176.5700  143.5520 C   0  0  0  0  0  2  0  0  0  0  0  0
  190.3040  176.8710  143.1560 C   0  0  0  0  0  0  0  0  0  0  0  0
  186.4460  177.7900  141.8400 C   0  0  0  0  0  3  0  0  0  0  0  0
  188.6980  177.1610  141.4000 N   0  0  0  0  0  0  0  0  0  0  0  0
  193.1130  177.4460  139.9080 C   0  0  0  0  0  0  0  0  0  0  0  0
  192.7710  176.9010  138.5540 C   0  0  0  0  0  2  0  0  0  0  0  0
  190.3700  176.5900  139.3200 C   0  0  1  0  0  3  0  0  0  0  0  0
  190.9700  176.8010  136.9860 F   0  0  0  0  0  0  0  0  0  0  0  0
  191.3060  177.2120  138.2630 C   0  0  2  0  0  3  0  0  0  0  0  0
  192.2530  177.2920  140.9210 C   0  0  0  0  0  3  0  0  0  0  0  0
  194.2400  178.1820  140.0810 F   0  0  0  0  0  0  0  0  0  0  0  0
  189.9640  175.3140  138.9230 O   0  0  0  0  0  1  0  0  0  0  0  0
  190.9790  176.5050  140.7360 C   0  0  1  0  0  3  0  0  0  0  0  0
  1 16  1  6  0  0  0
  1  8  1  0  0  0  0
  2  9  1  0  0  0  0
  3 11  1  0  0  0  0
  5  4  2  0  0  0  0
  6 17  1  0  0  0  0
 10  4  1  0  0  0  0
 11 12  1  0  0  0  0
 11  7  2  0  0  0  0
 12 10  2  0  0  0  0
 13 21  2  0  0  0  0
 14 15  1  0  0  0  0
 14  1  1  0  0  0  0
 15 19  1  0  0  0  0
 17  7  1  0  0  0  0
 17  9  2  0  0  0  0
 18 15  2  0  0  0  0
 18  6  1  0  0  0  0
 19  8  1  0  0  0  0
 19  2  2  0  0  0  0
 20  5  1  0  0  0  0
 21 20  1  0  0  0  0
 21 12  1  0  0  0  0
 22  3  1  0  0  0  0
 22  6  2  0  0  0  0
 23 13  1  0  0  0  0
 23  3  2  0  0  0  0
 24 30  1  0  0  0  0
 24 29  2  0  0  0  0
 25 24  1  0  0  0  0
 26 31  1  6  0  0  0
 26 32  1  0  0  0  0
 28 27  1  6  0  0  0
 28 25  1  0  0  0  0
 28 26  1  0  0  0  0
 32 29  1  0  0  0  0
 32 13  1  1  0  0  0
M  END
>  <MODEL>
4

>  <REMARK>
 VINA RESULT:      -9.3      4.337      7.846
  Name = 
  1 active torsions:
  status: ('A' for Active; 'I' for Inactive)
    1  A    between atoms: C_16  and  C_32
                            x       y       z     vdW  Elec       q    Type
                         _______ _______ _______ _____ _____    ______ ____

>  <TORSDO>
F 1

$$$$
=
 OpenBabel10272413333D

 32 37  0  0  1  0  0  0  0  0999 V2000
  188.4460  177.6320  147.7820 C   0  0  2  0  0  3  0  0  0  0  0  0
  186.9010  178.3280  144.4270 C   0  0  0  0  0  3  0  0  0  0  0  0
  190.0250  176.7080  140.4730 C   0  0  0  0  0  0  0  0  0  0  0  0
  187.2530  178.0180  136.5780 C   0  0  0  0  0  3  0  0  0  0  0  0
  188.2190  177.5260  135.8040 C   0  0  0  0  0  3  0  0  0  0  0  0
  189.3180  177.1000  142.7730 C   0  0  0  0  0  0  0  0  0  0  0  0
  187.9010  177.7690  140.9170 C   0  0  0  0  0  3  0  0  0  0  0  0
  187.4620  178.0950  146.8240 N   0  0  0  0  0  2  0  0  0  0  0  0
  187.0270  178.2420  143.1080 C   0  0  0  0  0  3  0  0  0  0  0  0
  187.3450  177.9950  138.0780 C   0  0  0  0  0  3  0  0  0  0  0  0
  188.8380  177.2890  139.9950 C   0  0  0  0  0  0  0  0  0  0  0  0
  188.6230  177.3710  138.6070 C   0  0  0  0  0  0  0  0  0  0  0  0
  190.7810  176.2930  138.2570 C   0  0  0  0  0  0  0  0  0  0  0  0
  189.8330  176.9140  146.8400 S   0  0  0  0  0  0  0  0  0  0  0  0
  189.0010  177.3020  145.3050 C   0  0  0  0  0  0  0  0  0  0  0  0
  187.8570  176.6110  148.6290 N   0  0  0  0  0  1  0  0  0  0  0  0
  188.1180  177.6860  142.2980 C   0  0  0  0  0  0  0  0  0  0  0  0
  189.6740  176.9470  144.0500 C   0  0  0  0  0  3  0  0  0  0  0  0
  187.8260  177.8890  145.4700 C   0  0  0  0  0  0  0  0  0  0  0  0
  189.4270  176.9350  136.3960 C   0  0  0  0  0  3  0  0  0  0  0  0
  189.6070  176.8670  137.7240 C   0  0  0  0  0  0  0  0  0  0  0  0
  190.2510  176.6210  141.8450 C   0  0  0  0  0  3  0  0  0  0  0  0
  190.9520  176.2330  139.6040 N   0  0  0  0  0  2  0  0  0  0  0  0
  192.4880  173.5370  136.4490 C   0  0  0  0  0  0  0  0  0  0  0  0
  193.9180  173.9850  136.4810 C   0  0  0  0  0  2  0  0  0  0  0  0
  193.2520  175.8980  138.0130 C   0  0  1  0  0  3  0  0  0  0  0  0
  195.5100  175.0370  137.9210 F   0  0  0  0  0  0  0  0  0  0  0  0
  194.1780  174.6800  137.8130 C   0  0  2  0  0  3  0  0  0  0  0  0
  191.5270  174.3510  136.9000 C   0  0  0  0  0  3  0  0  0  0  0  0
  192.1800  172.2730  136.0640 F   0  0  0  0  0  0  0  0  0  0  0  0
  193.8570  177.0580  137.5260 O   0  0  0  0  0  1  0  0  0  0  0  0
  191.8590  175.7480  137.3640 C   0  0  1  0  0  3  0  0  0  0  0  0
  1 16  1  1  0  0  0
  2 19  1  0  0  0  0
  3 22  2  0  0  0  0
  4 10  2  0  0  0  0
  5 20  2  0  0  0  0
  5  4  1  0  0  0  0
  6 18  2  0  0  0  0
  7 17  2  0  0  0  0
  8  1  1  0  0  0  0
  9  2  2  0  0  0  0
 10 12  1  0  0  0  0
 11  3  1  0  0  0  0
 11  7  1  0  0  0  0
 12 11  2  0  0  0  0
 13 23  1  0  0  0  0
 14  1  1  0  0  0  0
 15 19  2  0  0  0  0
 15 14  1  0  0  0  0
 17  6  1  0  0  0  0
 17  9  1  0  0  0  0
 18 15  1  0  0  0  0
 19  8  1  0  0  0  0
 20 21  1  0  0  0  0
 21 13  2  0  0  0  0
 21 12  1  0  0  0  0
 22  6  1  0  0  0  0
 23  3  1  0  0  0  0
 24 25  1  0  0  0  0
 24 29  2  0  0  0  0
 25 28  1  0  0  0  0
 26 31  1  6  0  0  0
 28 27  1  6  0  0  0
 28 26  1  0  0  0  0
 29 32  1  0  0  0  0
 30 24  1  0  0  0  0
 32 26  1  0  0  0  0
 32 13  1  1  0  0  0
M  END
>  <MODEL>
5

>  <REMARK>
 VINA RESULT:      -9.3      5.413      7.157
  Name = 
  1 active torsions:
  status: ('A' for Active; 'I' for Inactive)
    1  A    between atoms: C_16  and  C_32
                            x       y       z     vdW  Elec       q    Type
                         _______ _______ _______ _____ _____    ______ ____

>  <TORSDO>
F 1

$$$$
=
 OpenBabel10272413333D

 32 37  0  0  1  0  0  0  0  0999 V2000
  191.1930  176.6970  147.5350 C   0  0  2  0  0  3  0  0  0  0  0  0
  191.6940  177.0570  143.8260 C   0  0  0  0  0  3  0  0  0  0  0  0
  187.1160  177.9600  141.3260 C   0  0  0  0  0  0  0  0  0  0  0  0
  188.7240  178.2680  136.6470 C   0  0  0  0  0  3  0  0  0  0  0  0
  187.4580  178.4780  136.2920 C   0  0  0  0  0  3  0  0  0  0  0  0
  188.6180  177.5450  143.2010 C   0  0  0  0  0  0  0  0  0  0  0  0
  189.4830  177.6840  140.9350 C   0  0  0  0  0  3  0  0  0  0  0  0
  191.9020  176.7510  146.2710 N   0  0  0  0  0  2  0  0  0  0  0  0
  191.1240  177.2690  142.6460 C   0  0  0  0  0  3  0  0  0  0  0  0
  189.1250  178.0540  138.0800 C   0  0  0  0  0  2  0  0  0  0  0  0
  188.1990  177.9140  140.4310 C   0  0  0  0  0  0  0  0  0  0  0  0
  187.9640  178.1020  139.0570 C   0  0  0  0  0  0  0  0  0  0  0  0
  185.5910  178.3680  139.5480 C   0  0  0  0  0  0  0  0  0  0  0  0
  189.4270  176.9870  147.1850 S   0  0  0  0  0  0  0  0  0  0  0  0
  189.7890  177.1340  145.4400 C   0  0  0  0  0  0  0  0  0  0  0  0
  191.6900  177.7380  148.4160 N   0  0  0  0  0  1  0  0  0  0  0  0
  189.7150  177.4980  142.3040 C   0  0  0  0  0  0  0  0  0  0  0  0
  188.6700  177.3880  144.5250 C   0  0  0  0  0  3  0  0  0  0  0  0
  191.0720  176.9910  145.1480 C   0  0  0  0  0  0  0  0  0  0  0  0
  186.3910  178.5110  137.3010 C   0  0  0  0  0  3  0  0  0  0  0  0
  186.6420  178.3320  138.6070 C   0  0  0  0  0  0  0  0  0  0  0  0
  187.3350  177.7760  142.6900 C   0  0  0  0  0  3  0  0  0  0  0  0
  185.8590  178.1820  140.8680 N   0  0  0  0  0  0  0  0  0  0  0  0
  182.6630  180.5520  138.8910 C   0  0  0  0  0  0  0  0  0  0  0  0
  181.5190  179.6460  139.2290 C   0  0  0  0  0  2  0  0  0  0  0  0
  183.1760  177.9260  140.0910 C   0  0  1  0  0  3  0  0  0  0  0  0
  180.8680  177.9760  140.8120 F   0  0  0  0  0  0  0  0  0  0  0  0
  181.9260  178.7720  140.4110 C   0  0  2  0  0  3  0  0  0  0  0  0
  183.9100  180.0710  138.8790 C   0  0  0  0  0  3  0  0  0  0  0  0
  182.4460  181.8790  138.7000 F   0  0  0  0  0  0  0  0  0  0  0  0
  182.8070  176.6860  139.5670 O   0  0  0  0  0  1  0  0  0  0  0  0
  184.1700  178.6040  139.1230 C   0  0  1  0  0  3  0  0  0  0  0  0
  1 16  1  1  0  0  0
  2 19  1  0  0  0  0
  3 22  2  0  0  0  0
  4 10  1  0  0  0  0
  5  4  2  0  0  0  0
  5 20  1  0  0  0  0
  6 18  2  0  0  0  0
  7 17  2  0  0  0  0
  8  1  1  0  0  0  0
  9  2  2  0  0  0  0
 10 12  1  0  0  0  0
 11  7  1  0  0  0  0
 11  3  1  0  0  0  0
 12 11  2  0  0  0  0
 13 23  2  0  0  0  0
 14  1  1  0  0  0  0
 15 14  1  0  0  0  0
 17  9  1  0  0  0  0
 17  6  1  0  0  0  0
 18 15  1  0  0  0  0
 19 15  2  0  0  0  0
 19  8  1  0  0  0  0
 20 21  2  0  0  0  0
 21 12  1  0  0  0  0
 21 13  1  0  0  0  0
 22  6  1  0  0  0  0
 23  3  1  0  0  0  0
 24 25  1  0  0  0  0
 25 28  1  0  0  0  0
 26 31  1  6  0  0  0
 26 28  1  0  0  0  0
 28 27  1  6  0  0  0
 29 24  2  0  0  0  0
 29 32  1  0  0  0  0
 30 24  1  0  0  0  0
 32 13  1  1  0  0  0
 32 26  1  0  0  0  0
M  END
>  <MODEL>
6

>  <REMARK>
 VINA RESULT:      -9.2      2.530      4.836
  Name = 
  1 active torsions:
  status: ('A' for Active; 'I' for Inactive)
    1  A    between atoms: C_16  and  C_32
                            x       y       z     vdW  Elec       q    Type
                         _______ _______ _______ _____ _____    ______ ____

>  <TORSDO>
F 1

$$$$
=
 OpenBabel10272413333D

 32 37  0  0  1  0  0  0  0  0999 V2000
  189.0000  177.3210  148.1860 C   0  0  2  0  0  3  0  0  0  0  0  0
  190.3430  177.3130  144.6750 C   0  0  0  0  0  3  0  0  0  0  0  0
  186.5150  178.2020  141.1290 C   0  0  0  0  0  0  0  0  0  0  0  0
  189.1470  177.9980  136.9330 C   0  0  0  0  0  3  0  0  0  0  0  0
  188.0110  178.2360  136.2820 C   0  0  0  0  0  3  0  0  0  0  0  0
  187.5260  177.8890  143.3240 C   0  0  0  0  0  0  0  0  0  0  0  0
  188.8850  177.7770  141.3140 C   0  0  0  0  0  3  0  0  0  0  0  0
  189.9770  177.2230  147.1190 N   0  0  0  0  0  2  0  0  0  0  0  0
  190.0680  177.4410  143.3820 C   0  0  0  0  0  3  0  0  0  0  0  0
  189.2010  177.8990  138.4330 C   0  0  0  0  0  3  0  0  0  0  0  0
  187.7640  178.0220  140.5120 C   0  0  0  0  0  0  0  0  0  0  0  0
  187.8570  178.0930  139.1100 C   0  0  0  0  0  0  0  0  0  0  0  0
  185.4580  178.5180  139.0220 C   0  0  0  0  0  0  0  0  0  0  0  0
  187.3820  177.6630  147.4190 S   0  0  0  0  0  0  0  0  0  0  0  0
  188.1340  177.6300  145.7970 C   0  0  0  0  0  0  0  0  0  0  0  0
  189.3570  178.4140  149.0730 N   0  0  0  0  0  1  0  0  0  0  0  0
  188.7900  177.7070  142.7100 C   0  0  0  0  0  0  0  0  0  0  0  0
  187.2690  177.8530  144.6330 C   0  0  0  0  0  3  0  0  0  0  0  0
  189.4380  177.3990  145.8200 C   0  0  0  0  0  0  0  0  0  0  0  0
  186.7490  178.4140  137.0140 C   0  0  0  0  0  3  0  0  0  0  0  0
  186.6880  178.3440  138.3520 C   0  0  0  0  0  0  0  0  0  0  0  0
  186.4090  178.1350  142.5160 C   0  0  0  0  0  3  0  0  0  0  0  0
  185.4100  178.4420  140.3780 N   0  0  0  0  0  2  0  0  0  0  0  0
  182.1370  180.1230  138.6090 C   0  0  0  0  0  0  0  0  0  0  0  0
  181.3880  179.0870  137.8270 C   0  0  0  0  0  2  0  0  0  0  0  0
  183.3470  177.4970  138.1170 C   0  0  1  0  0  3  0  0  0  0  0  0
  181.1010  176.7190  137.6690 F   0  0  0  0  0  0  0  0  0  0  0  0
  181.8300  177.7070  138.3050 C   0  0  2  0  0  3  0  0  0  0  0  0
  183.4430  179.9600  138.8460 C   0  0  0  0  0  3  0  0  0  0  0  0
  181.4730  181.1700  139.1620 F   0  0  0  0  0  0  0  0  0  0  0  0
  183.6110  176.9230  136.8720 O   0  0  0  0  0  1  0  0  0  0  0  0
  184.1880  178.7830  138.2650 C   0  0  1  0  0  3  0  0  0  0  0  0
  1 16  1  1  0  0  0
  2 19  1  0  0  0  0
  3 22  2  0  0  0  0
  4 10  2  0  0  0  0
  5  4  1  0  0  0  0
  5 20  2  0  0  0  0
  6 18  2  0  0  0  0
  7 17  2  0  0  0  0
  8  1  1  0  0  0  0
  9  2  2  0  0  0  0
 10 12  1  0  0  0  0
 11  3  1  0  0  0  0
 11  7  1  0  0  0  0
 12 11  2  0  0  0  0
 13 23  1  0  0  0  0
 14  1  1  0  0  0  0
 15 19  2  0  0  0  0
 15 14  1  0  0  0  0
 17  6  1  0  0  0  0
 17  9  1  0  0  0  0
 18 15  1  0  0  0  0
 19  8  1  0  0  0  0
 20 21  1  0  0  0  0
 21 13  2  0  0  0  0
 21 12  1  0  0  0  0
 22  6  1  0  0  0  0
 23  3  1  0  0  0  0
 24 29  2  0  0  0  0
 24 30  1  0  0  0  0
 25 28  1  0  0  0  0
 25 24  1  0  0  0  0
 26 31  1  6  0  0  0
 26 32  1  0  0  0  0
 26 28  1  0  0  0  0
 28 27  1  6  0  0  0
 32 29  1  0  0  0  0
 32 13  1  1  0  0  0
M  END
>  <MODEL>
7

>  <REMARK>
 VINA RESULT:      -9.0      2.638      4.707
  Name = 
  1 active torsions:
  status: ('A' for Active; 'I' for Inactive)
    1  A    between atoms: C_16  and  C_32
                            x       y       z     vdW  Elec       q    Type
                         _______ _______ _______ _____ _____    ______ ____

>  <TORSDO>
F 1

$$$$
=
 OpenBabel10272413333D

 32 37  0  0  1  0  0  0  0  0999 V2000
  193.5740  175.9800  136.4720 C   0  0  2  0  0  3  0  0  0  0  0  0
  190.1020  177.2550  137.1430 C   0  0  0  0  0  3  0  0  0  0  0  0
  188.9940  177.2460  142.3190 C   0  0  0  0  0  0  0  0  0  0  0  0
  184.3630  179.0130  142.2230 C   0  0  0  0  0  3  0  0  0  0  0  0
  184.3600  178.9030  143.5500 C   0  0  0  0  0  3  0  0  0  0  0  0
  190.3100  176.9140  140.2940 C   0  0  0  0  0  0  0  0  0  0  0  0
  188.0470  177.7860  140.1640 C   0  0  0  0  0  3  0  0  0  0  0  0
  192.2570  176.5120  136.1840 N   0  0  0  0  0  2  0  0  0  0  0  0
  189.1790  177.5310  138.0570 C   0  0  0  0  0  3  0  0  0  0  0  0
  185.5580  178.6300  141.3940 C   0  0  0  0  0  3  0  0  0  0  0  0
  187.9140  177.7210  141.5550 C   0  0  0  0  0  0  0  0  0  0  0  0
  186.7320  178.1170  142.2070 C   0  0  2  0  0  3  0  0  0  0  0  0
  187.7720  177.5450  144.3370 C   0  0  0  0  0  0  0  0  0  0  0  0
  193.7060  175.7920  138.2810 S   0  0  0  0  0  0  0  0  0  0  0  0
  192.0380  176.4080  138.4750 C   0  0  0  0  0  0  0  0  0  0  0  0
  194.5870  176.9100  136.0070 N   0  0  0  0  0  1  0  0  0  0  0  0
  189.2250  177.3920  139.5170 C   0  0  0  0  0  0  0  0  0  0  0  0
  191.4920  176.5020  139.8340 C   0  0  0  0  0  3  0  0  0  0  0  0
  191.4510  176.7250  137.3310 C   0  0  0  0  0  0  0  0  0  0  0  0
  185.5400  178.3960  144.2630 C   0  0  0  0  0  3  0  0  0  0  0  0
  186.6570  178.0280  143.6180 C   0  0  0  0  0  0  0  0  0  0  0  0
  190.1710  176.8510  141.6860 C   0  0  0  0  0  3  0  0  0  0  0  0
  188.8960  177.1710  143.6700 N   0  0  0  0  0  0  0  0  0  0  0  0
  186.8780  178.7620  147.7270 C   0  0  0  0  0  0  0  0  0  0  0  0
  188.0110  178.2360  148.5540 C   0  0  0  0  0  2  0  0  0  0  0  0
  189.1690  177.4750  146.4260 C   0  0  1  0  0  3  0  0  0  0  0  0
  190.3780  177.9040  148.4760 F   0  0  0  0  0  0  0  0  0  0  0  0
  189.2880  178.3020  147.7230 C   0  0  2  0  0  3  0  0  0  0  0  0
  186.7760  178.4120  146.4410 C   0  0  0  0  0  3  0  0  0  0  0  0
  186.0190  179.6730  148.2530 F   0  0  0  0  0  0  0  0  0  0  0  0
  189.6190  176.1700  146.6340 O   0  0  0  0  0  1  0  0  0  0  0  0
  187.7440  177.4260  145.8340 C   0  0  1  0  0  3  0  0  0  0  0  0
  1 16  1  1  0  0  0
  1 14  1  0  0  0  0
  2 19  2  0  0  0  0
  2  9  1  0  0  0  0
  3 23  2  0  0  0  0
  4  5  1  0  0  0  0
  5 20  2  0  0  0  0
  6 22  2  0  0  0  0
  7 11  2  0  0  0  0
  8  1  1  0  0  0  0
  8 19  1  0  0  0  0
  9 17  2  0  0  0  0
 10  4  2  0  0  0  0
 11 12  1  0  0  0  0
 11  3  1  0  0  0  0
 12 10  1  6  0  0  0
 12 21  1  0  0  0  0
 14 15  1  0  0  0  0
 15 18  2  0  0  0  0
 17  7  1  0  0  0  0
 17  6  1  0  0  0  0
 18  6  1  0  0  0  0
 19 15  1  0  0  0  0
 21 20  1  0  0  0  0
 21 13  2  0  0  0  0
 22  3  1  0  0  0  0
 23 13  1  0  0  0  0
 24 30  1  0  0  0  0
 24 25  1  0  0  0  0
 26 31  1  1  0  0  0
 26 28  1  0  0  0  0
 28 27  1  1  0  0  0
 28 25  1  0  0  0  0
 29 24  2  0  0  0  0
 32 13  1  6  0  0  0
 32 26  1  0  0  0  0
 32 29  1  0  0  0  0
M  END
>  <MODEL>
8

>  <REMARK>
 VINA RESULT:      -9.0      5.575      8.131
  Name = 
  1 active torsions:
  status: ('A' for Active; 'I' for Inactive)
    1  A    between atoms: C_16  and  C_32
                            x       y       z     vdW  Elec       q    Type
                         _______ _______ _______ _____ _____    ______ ____

>  <TORSDO>
F 1

$$$$
=
 OpenBabel10272413333D

 32 37  0  0  1  0  0  0  0  0999 V2000
  188.3690  177.5380  148.1100 C   0  0  2  0  0  3  0  0  0  0  0  0
  191.1630  177.1860  145.6180 C   0  0  0  0  0  3  0  0  0  0  0  0
  189.3290  177.0090  140.6560 C   0  0  0  0  0  0  0  0  0  0  0  0
  193.5910  176.5380  138.1680 C   0  0  0  0  0  3  0  0  0  0  0  0
  192.8650  176.5200  137.0520 C   0  0  0  0  0  3  0  0  0  0  0  0
  189.2440  177.1670  143.0870 C   0  0  0  0  0  0  0  0  0  0  0  0
  191.3740  176.9410  141.9400 C   0  0  0  0  0  3  0  0  0  0  0  0
  189.7280  177.4140  147.6200 N   0  0  0  0  0  2  0  0  0  0  0  0
  191.5010  177.0820  144.3380 C   0  0  0  0  0  3  0  0  0  0  0  0
  192.9610  176.6730  139.5260 C   0  0  0  0  0  3  0  0  0  0  0  0
  190.7300  176.9090  140.6980 C   0  0  0  0  0  0  0  0  0  0  0  0
  191.4480  176.7810  139.4940 C   0  0  0  0  0  0  0  0  0  0  0  0
  189.3340  176.8600  138.2820 C   0  0  0  0  0  0  0  0  0  0  0  0
  187.2620  177.5390  146.6610 S   0  0  0  0  0  0  0  0  0  0  0  0
  188.6720  177.3660  145.5740 C   0  0  0  0  0  0  0  0  0  0  0  0
  188.2240  178.7880  148.8320 N   0  0  0  0  0  1  0  0  0  0  0  0
  190.6570  177.0680  143.1370 C   0  0  0  0  0  0  0  0  0  0  0  0
  188.4220  177.2920  144.1300 C   0  0  0  0  0  3  0  0  0  0  0  0
  189.8320  177.3200  146.2100 C   0  0  0  0  0  0  0  0  0  0  0  0
  191.4020  176.6330  137.1070 C   0  0  0  0  0  3  0  0  0  0  0  0
  190.7410  176.7560  138.2680 C   0  0  0  0  0  0  0  0  0  0  0  0
  188.6070  177.1360  141.8400 C   0  0  0  0  0  3  0  0  0  0  0  0
  188.6770  176.9820  139.4670 N   0  0  0  0  0  2  0  0  0  0  0  0
  187.1060  178.4130  135.7520 C   0  0  0  0  0  0  0  0  0  0  0  0
  186.3050  177.2380  135.2820 C   0  0  0  0  0  2  0  0  0  0  0  0
  187.3730  175.8230  137.1000 C   0  0  1  0  0  3  0  0  0  0  0  0
  185.2440  175.2580  136.1000 F   0  0  0  0  0  0  0  0  0  0  0  0
  186.0540  176.3160  136.4710 C   0  0  2  0  0  3  0  0  0  0  0  0
  188.1290  178.2260  136.5940 C   0  0  0  0  0  3  0  0  0  0  0  0
  186.7320  179.6720  135.4090 F   0  0  0  0  0  0  0  0  0  0  0  0
  187.7730  174.6180  136.5160 O   0  0  0  0  0  1  0  0  0  0  0  0
  188.5360  176.8340  137.0100 C   0  0  1  0  0  3  0  0  0  0  0  0
  1 16  1  6  0  0  0
  2 19  1  0  0  0  0
  3 11  1  0  0  0  0
  3 22  2  0  0  0  0
  4 10  2  0  0  0  0
  5 20  2  0  0  0  0
  5  4  1  0  0  0  0
  6 17  1  0  0  0  0
  6 18  2  0  0  0  0
  7 17  2  0  0  0  0
  8  1  1  0  0  0  0
  9  2  2  0  0  0  0
 11  7  1  0  0  0  0
 12 10  1  0  0  0  0
 12 11  2  0  0  0  0
 13 23  1  0  0  0  0
 14  1  1  0  0  0  0
 15 19  2  0  0  0  0
 15 14  1  0  0  0  0
 17  9  1  0  0  0  0
 18 15  1  0  0  0  0
 19  8  1  0  0  0  0
 20 21  1  0  0  0  0
 21 13  2  0  0  0  0
 21 12  1  0  0  0  0
 22  6  1  0  0  0  0
 23  3  1  0  0  0  0
 24 29  2  0  0  0  0
 25 24  1  0  0  0  0
 25 28  1  0  0  0  0
 26 31  1  6  0  0  0
 28 27  1  6  0  0  0
 28 26  1  0  0  0  0
 29 32  1  0  0  0  0
 30 24  1  0  0  0  0
 32 26  1  0  0  0  0
 32 13  1  1  0  0  0
M  END
>  <MODEL>
9

>  <REMARK>
 VINA RESULT:      -8.6      4.042      6.449
  Name = 
  1 active torsions:
  status: ('A' for Active; 'I' for Inactive)
    1  A    between atoms: C_16  and  C_32
                            x       y       z     vdW  Elec       q    Type
                         _______ _______ _______ _____ _____    ______ ____

>  <TORSDO>
F 1

$$$$
