=
 OpenBabel10272415243D

 34 39  0  0  1  0  0  0  0  0999 V2000
  188.4520  177.5390  144.1150 C   0  0  0  0  0  0  0  0  0  0  0  0
  189.8140  177.4200  147.5710 C   0  0  0  0  0  3  0  0  0  0  0  0
  187.6270  178.0370  146.7530 C   0  0  0  0  0  3  0  0  0  0  0  0
  186.7420  178.3900  141.8620 C   0  0  0  0  0  2  0  0  0  0  0  0
  188.8640  177.3120  142.6900 C   0  0  0  0  0  2  0  0  0  0  0  0
  186.1380  178.0340  143.2320 C   0  0  2  0  0  3  0  0  0  0  0  0
  184.3550  178.5200  144.8870 C   0  0  0  0  0  2  0  0  0  0  0  0
  184.9520  178.9360  143.5500 C   0  0  0  0  0  2  0  0  0  0  0  0
  188.2830  178.4300  141.8220 C   0  0  1  0  0  3  0  0  0  0  0  0
  186.7230  178.2050  145.7020 C   0  0  0  0  0  0  0  0  0  0  0  0
  187.1340  177.9610  144.3750 C   0  0  0  0  0  0  0  0  0  0  0  0
  185.3610  178.7680  146.0090 C   0  0  0  0  0  2  0  0  0  0  0  0
  191.1210  176.9840  147.3370 C   0  0  0  0  0  0  0  0  0  0  0  0
  191.5460  176.7330  146.0250 C   0  0  0  0  0  3  0  0  0  0  0  0
  188.9290  177.6010  146.5060 C   0  0  0  0  0  0  0  0  0  0  0  0
  190.6680  176.9150  144.9530 C   0  0  0  0  0  3  0  0  0  0  0  0
  189.3530  177.3480  145.1800 C   0  0  0  0  0  0  0  0  0  0  0  0
  187.5750  176.8750  138.6450 C   0  0  0  0  0  3  0  0  0  0  0  0
  189.8950  177.2510  140.2610 C   0  0  0  0  0  2  0  0  0  0  0  0
  189.9210  175.1490  136.4310 C   0  0  2  0  0  3  0  0  0  0  0  0
  188.5440  175.2200  137.0770 C   0  0  0  0  0  2  0  0  0  0  0  0
  188.5780  176.4810  137.8520 C   0  0  0  0  0  0  0  0  0  0  0  0
  189.8320  177.2640  137.6730 C   0  0  1  0  0  3  0  0  0  0  0  0
  190.6860  177.3270  138.9490 C   0  0  0  0  0  2  0  0  0  0  0  0
  190.5840  176.5170  136.5860 C   0  0  0  0  0  2  0  0  0  0  0  0
  188.8140  178.3390  140.3860 C   0  0  1  0  0  3  0  0  0  0  0  0
  187.6380  178.1840  139.3910 C   0  0  0  0  0  2  0  0  0  0  0  0
  189.8140  174.7740  134.9920 C   0  0  0  0  0  0  0  0  0  0  0  0
  188.7570  175.0230  134.3570 O   0  0  0  0  0  1  0  0  0  0  0  0
  190.8770  174.1520  134.3460 O   0  0  0  0  0  0  0  0  0  0  0  0
  191.9850  176.8050  148.4160 O   0  0  0  0  0  0  0  0  0  0  0  0
  192.9260  175.8510  148.3990 O   0  0  0  0  0  0  0  0  0  0  0  0
  193.7030  177.3410  150.0730 C   0  0  0  0  0  1  0  0  0  0  0  0
  193.4990  175.8980  149.6680 C   0  0  0  0  0  2  0  0  0  0  0  0
  1 11  2  0  0  0  0
  1 17  1  0  0  0  0
  5  1  1  0  0  0  0
  6  4  1  6  0  0  0
  6  8  1  0  0  0  0
  6 11  1  0  0  0  0
  7 12  1  0  0  0  0
  8  7  1  0  0  0  0
  9  4  1  6  0  0  0
  9  5  1  0  0  0  0
 10 12  1  0  0  0  0
 10  3  2  0  0  0  0
 11 10  1  0  0  0  0
 13  2  1  0  0  0  0
 13 31  1  0  0  0  0
 14 13  2  0  0  0  0
 15  3  1  0  0  0  0
 15  2  2  0  0  0  0
 16 17  2  0  0  0  0
 16 14  1  0  0  0  0
 17 15  1  0  0  0  0
 18 27  1  0  0  0  0
 19 26  1  0  0  0  0
 20 28  1  6  0  0  0
 20 25  1  0  0  0  0
 20 21  1  0  0  0  0
 21 22  1  0  0  0  0
 22 18  2  0  0  0  0
 23 25  1  6  0  0  0
 23 22  1  0  0  0  0
 23 24  1  0  0  0  0
 24 19  1  0  0  0  0
 26 27  1  6  0  0  0
 26  9  1  0  0  0  0
 29 28  1  0  0  0  0
 30 28  2  0  0  0  0
 32 31  1  0  0  0  0
 32 34  1  0  0  0  0
 34 33  1  0  0  0  0
M  END
>  <MODEL>
1

>  <REMARK>
 VINA RESULT:     -10.0      0.000      0.000
  Name = 
  5 active torsions:
  status: ('A' for Active; 'I' for Inactive)
    1  A    between atoms: O_3  and  C_24
    2  A    between atoms: O_3  and  O_25
    3  A    between atoms: C_7  and  C_11
    4  A    between atoms: C_18  and  C_30
    5  A    between atoms: C_23  and  O_25
                            x       y       z     vdW  Elec       q    Type
                         _______ _______ _______ _____ _____    ______ ____

>  <TORSDO>
F 5

$$$$
=
 OpenBabel10272415243D

 34 39  0  0  1  0  0  0  0  0999 V2000
  184.0060  178.6590  141.5840 C   0  0  0  0  0  0  0  0  0  0  0  0
  183.4440  177.6460  138.0520 C   0  0  0  0  0  3  0  0  0  0  0  0
  181.9000  177.8840  139.8940 C   0  0  0  0  0  3  0  0  0  0  0  0
  183.5540  178.8400  144.4970 C   0  0  0  0  0  2  0  0  0  0  0  0
  185.1080  179.0480  142.5240 C   0  0  0  0  0  2  0  0  0  0  0  0
  182.4060  179.0620  143.4960 C   0  0  2  0  0  3  0  0  0  0  0  0
  179.9820  178.7850  143.0460 C   0  0  0  0  0  2  0  0  0  0  0  0
  181.0980  178.5020  144.0420 C   0  0  0  0  0  2  0  0  0  0  0  0
  184.8780  178.3580  143.8710 C   0  0  1  0  0  3  0  0  0  0  0  0
  181.6340  178.2130  141.2260 C   0  0  0  0  0  0  0  0  0  0  0  0
  182.6900  178.5980  142.0790 C   0  0  0  0  0  0  0  0  0  0  0  0
  180.2350  178.0240  141.7460 C   0  0  0  0  0  2  0  0  0  0  0  0
  184.7400  177.7170  137.5360 C   0  0  0  0  0  0  0  0  0  0  0  0
  185.8000  178.1020  138.3680 C   0  0  0  0  0  3  0  0  0  0  0  0
  183.1990  177.9600  139.3910 C   0  0  0  0  0  0  0  0  0  0  0  0
  185.5650  178.4150  139.7100 C   0  0  0  0  0  3  0  0  0  0  0  0
  184.2660  178.3500  140.2350 C   0  0  0  0  0  0  0  0  0  0  0  0
  188.4010  177.6510  144.1920 C   0  0  0  0  0  3  0  0  0  0  0  0
  186.1250  177.5060  145.9060 C   0  0  0  0  0  2  0  0  0  0  0  0
  190.1640  176.3870  147.1370 C   0  0  2  0  0  3  0  0  0  0  0  0
  189.9620  176.3720  145.6290 C   0  0  0  0  0  2  0  0  0  0  0  0
  188.9290  177.4070  145.3970 C   0  0  0  0  0  0  0  0  0  0  0  0
  188.5280  178.1430  146.6280 C   0  0  1  0  0  3  0  0  0  0  0  0
  187.0810  177.8530  147.0550 C   0  0  0  0  0  2  0  0  0  0  0  0
  189.4890  177.6410  147.6900 C   0  0  0  0  0  2  0  0  0  0  0  0
  186.0660  178.5880  144.8130 C   0  0  1  0  0  3  0  0  0  0  0  0
  187.3730  178.7370  143.9960 C   0  0  0  0  0  2  0  0  0  0  0  0
  191.6160  176.3750  147.4800 C   0  0  0  0  0  0  0  0  0  0  0  0
  192.0710  177.2120  148.3000 O   0  0  0  0  0  1  0  0  0  0  0  0
  192.4690  175.4440  146.8970 O   0  0  0  0  0  0  0  0  0  0  0  0
  184.9600  177.4050  136.1950 O   0  0  0  0  0  0  0  0  0  0  0  0
  186.1040  176.8340  135.7960 O   0  0  0  0  0  0  0  0  0  0  0  0
  186.7400  174.7200  136.6650 C   0  0  0  0  0  1  0  0  0  0  0  0
  185.8160  175.4720  135.7330 C   0  0  0  0  0  2  0  0  0  0  0  0
  1 11  1  0  0  0  0
  1  5  1  0  0  0  0
  2 15  1  0  0  0  0
  3 10  1  0  0  0  0
  6  8  1  1  0  0  0
  6  4  1  0  0  0  0
  7  8  1  0  0  0  0
  9  5  1  6  0  0  0
  9  4  1  0  0  0  0
  9 26  1  0  0  0  0
 10 12  1  0  0  0  0
 10 11  2  0  0  0  0
 11  6  1  0  0  0  0
 12  7  1  0  0  0  0
 13  2  2  0  0  0  0
 13 14  1  0  0  0  0
 14 16  2  0  0  0  0
 15  3  2  0  0  0  0
 15 17  1  0  0  0  0
 16 17  1  0  0  0  0
 17  1  2  0  0  0  0
 18 22  2  0  0  0  0
 19 24  1  0  0  0  0
 20 28  1  6  0  0  0
 20 25  1  0  0  0  0
 21 20  1  0  0  0  0
 22 21  1  0  0  0  0
 22 23  1  0  0  0  0
 23 24  1  1  0  0  0
 23 25  1  0  0  0  0
 26 27  1  6  0  0  0
 26 19  1  0  0  0  0
 27 18  1  0  0  0  0
 28 29  1  0  0  0  0
 30 28  2  0  0  0  0
 31 13  1  0  0  0  0
 32 31  1  0  0  0  0
 34 32  1  0  0  0  0
 34 33  1  0  0  0  0
M  END
>  <MODEL>
2

>  <REMARK>
 VINA RESULT:      -9.2      2.686      9.350
  Name = 
  5 active torsions:
  status: ('A' for Active; 'I' for Inactive)
    1  A    between atoms: O_3  and  C_24
    2  A    between atoms: O_3  and  O_25
    3  A    between atoms: C_7  and  C_11
    4  A    between atoms: C_18  and  C_30
    5  A    between atoms: C_23  and  O_25
                            x       y       z     vdW  Elec       q    Type
                         _______ _______ _______ _____ _____    ______ ____

>  <TORSDO>
F 5

$$$$
=
 OpenBabel10272415243D

 34 39  0  0  1  0  0  0  0  0999 V2000
  187.4490  178.2860  142.3890 C   0  0  0  0  0  0  0  0  0  0  0  0
  183.8930  178.4150  143.4620 C   0  0  0  0  0  3  0  0  0  0  0  0
  185.9030  177.9160  144.7050 C   0  0  0  0  0  3  0  0  0  0  0  0
  190.2910  177.4830  142.3840 C   0  0  0  0  0  2  0  0  0  0  0  0
  188.3050  178.4450  141.1680 C   0  0  0  0  0  2  0  0  0  0  0  0
  189.5870  177.9150  143.6830 C   0  0  2  0  0  3  0  0  0  0  0  0
  189.4060  177.5910  146.1350 C   0  0  0  0  0  2  0  0  0  0  0  0
  190.0900  177.1000  144.8670 C   0  0  0  0  0  2  0  0  0  0  0  0
  189.3670  177.3430  141.1580 C   0  0  1  0  0  3  0  0  0  0  0  0
  187.2910  177.7760  144.7700 C   0  0  0  0  0  0  0  0  0  0  0  0
  188.0710  177.9560  143.6080 C   0  0  0  0  0  0  0  0  0  0  0  0
  187.9060  177.3110  146.0630 C   0  0  0  0  0  2  0  0  0  0  0  0
  183.2570  178.7600  142.2660 C   0  0  0  0  0  0  0  0  0  0  0  0
  184.0170  178.9470  141.1030 C   0  0  0  0  0  3  0  0  0  0  0  0
  185.2800  178.2620  143.5050 C   0  0  0  0  0  0  0  0  0  0  0  0
  185.4050  178.7910  141.1360 C   0  0  0  0  0  3  0  0  0  0  0  0
  186.0520  178.4490  142.3340 C   0  0  0  0  0  0  0  0  0  0  0  0
  189.7470  175.5180  138.0700 C   0  0  0  0  0  3  0  0  0  0  0  0
  191.5130  176.6440  140.0060 C   0  0  0  0  0  2  0  0  0  0  0  0
  192.8640  174.4930  136.4520 C   0  0  2  0  0  3  0  0  0  0  0  0
  191.4310  174.1710  136.8500 C   0  0  0  0  0  2  0  0  0  0  0  0
  190.9510  175.4140  137.4960 C   0  0  0  0  0  0  0  0  0  0  0  0
  191.9350  176.5310  137.4540 C   0  0  1  0  0  3  0  0  0  0  0  0
  192.4790  176.9020  138.8430 C   0  0  0  0  0  2  0  0  0  0  0  0
  193.0600  176.0030  136.5830 C   0  0  0  0  0  2  0  0  0  0  0  0
  190.1600  177.3590  139.8460 C   0  0  1  0  0  3  0  0  0  0  0  0
  189.2870  176.8140  138.6880 C   0  0  0  0  0  2  0  0  0  0  0  0
  193.1420  174.0460  135.0560 C   0  0  0  0  0  0  0  0  0  0  0  0
  194.1550  174.4800  134.4500 O   0  0  0  0  0  1  0  0  0  0  0  0
  192.2880  173.1510  134.4210 O   0  0  0  0  0  0  0  0  0  0  0  0
  181.8720  178.9140  142.2490 O   0  0  0  0  0  0  0  0  0  0  0  0
  181.2840  179.9570  142.8500 O   0  0  0  0  0  0  0  0  0  0  0  0
  180.0150  178.3880  144.0970 C   0  0  0  0  0  1  0  0  0  0  0  0
  179.9830  179.5290  143.1050 C   0  0  0  0  0  2  0  0  0  0  0  0
  1 11  1  0  0  0  0
  2 15  1  0  0  0  0
  3 10  1  0  0  0  0
  5  1  1  0  0  0  0
  6  4  1  6  0  0  0
  6  8  1  0  0  0  0
  8  7  1  0  0  0  0
  9  5  1  6  0  0  0
  9  4  1  0  0  0  0
 10 12  1  0  0  0  0
 11  6  1  0  0  0  0
 11 10  2  0  0  0  0
 12  7  1  0  0  0  0
 13  2  2  0  0  0  0
 14 16  2  0  0  0  0
 14 13  1  0  0  0  0
 15  3  2  0  0  0  0
 16 17  1  0  0  0  0
 17  1  2  0  0  0  0
 17 15  1  0  0  0  0
 18 27  1  0  0  0  0
 20 28  1  6  0  0  0
 20 25  1  0  0  0  0
 20 21  1  0  0  0  0
 21 22  1  0  0  0  0
 22 18  2  0  0  0  0
 23 25  1  6  0  0  0
 23 22  1  0  0  0  0
 23 24  1  0  0  0  0
 24 19  1  0  0  0  0
 26 27  1  6  0  0  0
 26 19  1  0  0  0  0
 26  9  1  0  0  0  0
 29 28  1  0  0  0  0
 30 28  2  0  0  0  0
 31 13  1  0  0  0  0
 31 32  1  0  0  0  0
 32 34  1  0  0  0  0
 34 33  1  0  0  0  0
M  END
>  <MODEL>
3

>  <REMARK>
 VINA RESULT:      -9.2      3.634      6.247
  Name = 
  5 active torsions:
  status: ('A' for Active; 'I' for Inactive)
    1  A    between atoms: O_3  and  C_24
    2  A    between atoms: O_3  and  O_25
    3  A    between atoms: C_7  and  C_11
    4  A    between atoms: C_18  and  C_30
    5  A    between atoms: C_23  and  O_25
                            x       y       z     vdW  Elec       q    Type
                         _______ _______ _______ _____ _____    ______ ____

>  <TORSDO>
F 5

$$$$
=
 OpenBabel10272415243D

 34 39  0  0  1  0  0  0  0  0999 V2000
  187.9790  177.7090  142.5990 C   0  0  0  0  0  0  0  0  0  0  0  0
  191.6670  177.3660  142.2870 C   0  0  0  0  0  3  0  0  0  0  0  0
  190.2520  177.5180  144.2390 C   0  0  0  0  0  3  0  0  0  0  0  0
  185.3780  178.4520  143.7840 C   0  0  0  0  0  2  0  0  0  0  0  0
  186.7450  177.8430  141.7570 C   0  0  0  0  0  2  0  0  0  0  0  0
  186.4520  177.7240  144.6110 C   0  0  2  0  0  3  0  0  0  0  0  0
  187.4910  177.4380  146.8450 C   0  0  0  0  0  2  0  0  0  0  0  0
  186.4500  178.2160  146.0520 C   0  0  0  0  0  2  0  0  0  0  0  0
  185.8310  178.9000  142.3800 C   0  0  1  0  0  3  0  0  0  0  0  0
  188.9850  177.6200  144.8200 C   0  0  0  0  0  0  0  0  0  0  0  0
  187.8420  177.7210  144.0000 C   0  0  0  0  0  0  0  0  0  0  0  0
  188.8910  177.7460  146.3160 C   0  0  0  0  0  2  0  0  0  0  0  0
  191.8240  177.3340  140.8990 C   0  0  0  0  0  0  0  0  0  0  0  0
  190.6980  177.4290  140.0690 C   0  0  0  0  0  3  0  0  0  0  0  0
  190.3950  177.4870  142.8510 C   0  0  0  0  0  0  0  0  0  0  0  0
  189.4220  177.5540  140.6250 C   0  0  0  0  0  3  0  0  0  0  0  0
  189.2550  177.5820  142.0180 C   0  0  0  0  0  0  0  0  0  0  0  0
  182.9830  177.2980  140.8510 C   0  0  0  0  0  3  0  0  0  0  0  0
  185.0280  179.0880  139.9830 C   0  0  0  0  0  2  0  0  0  0  0  0
  181.8720  177.5620  137.3760 C   0  0  2  0  0  3  0  0  0  0  0  0
  182.1090  176.7050  138.6110 C   0  0  0  0  0  2  0  0  0  0  0  0
  182.5800  177.6690  139.6310 C   0  0  0  0  0  0  0  0  0  0  0  0
  182.5700  179.0850  139.1700 C   0  0  1  0  0  3  0  0  0  0  0  0
  183.9810  179.6790  139.0310 C   0  0  0  0  0  2  0  0  0  0  0  0
  181.8990  179.0280  137.8090 C   0  0  0  0  0  2  0  0  0  0  0  0
  184.6350  179.1970  141.4670 C   0  0  1  0  0  3  0  0  0  0  0  0
  183.4250  178.3190  141.8700 C   0  0  0  0  0  2  0  0  0  0  0  0
  180.5670  177.2260  136.7370 C   0  0  0  0  0  0  0  0  0  0  0  0
  179.9850  178.0790  136.0190 O   0  0  0  0  0  0  0  0  0  0  0  0
  179.9900  175.9760  136.9300 O   0  0  0  0  0  1  0  0  0  0  0  0
  193.1020  177.2060  140.3590 O   0  0  0  0  0  0  0  0  0  0  0  0
  193.3360  177.4590  139.0640 O   0  0  0  0  0  0  0  0  0  0  0  0
  192.8040  176.2030  137.1230 C   0  0  0  0  0  1  0  0  0  0  0  0
  193.4740  176.2010  138.4790 C   0  0  0  0  0  2  0  0  0  0  0  0
  1 11  1  0  0  0  0
  2 15  1  0  0  0  0
  3 10  1  0  0  0  0
  5  1  1  0  0  0  0
  6  4  1  6  0  0  0
  6  8  1  0  0  0  0
  8  7  1  0  0  0  0
  9  5  1  6  0  0  0
  9  4  1  0  0  0  0
 10 12  1  0  0  0  0
 11  6  1  0  0  0  0
 11 10  2  0  0  0  0
 12  7  1  0  0  0  0
 13  2  2  0  0  0  0
 14 16  2  0  0  0  0
 14 13  1  0  0  0  0
 15  3  2  0  0  0  0
 16 17  1  0  0  0  0
 17  1  2  0  0  0  0
 17 15  1  0  0  0  0
 18 27  1  0  0  0  0
 20 28  1  1  0  0  0
 20 25  1  0  0  0  0
 20 21  1  0  0  0  0
 21 22  1  0  0  0  0
 22 18  2  0  0  0  0
 23 25  1  6  0  0  0
 23 22  1  0  0  0  0
 24 23  1  0  0  0  0
 24 19  1  0  0  0  0
 26 19  1  6  0  0  0
 26 27  1  0  0  0  0
 26  9  1  0  0  0  0
 28 30  1  0  0  0  0
 29 28  2  0  0  0  0
 31 13  1  0  0  0  0
 32 31  1  0  0  0  0
 33 34  1  0  0  0  0
 34 32  1  0  0  0  0
M  END
>  <MODEL>
4

>  <REMARK>
 VINA RESULT:      -9.0      4.011      6.523
  Name = 
  5 active torsions:
  status: ('A' for Active; 'I' for Inactive)
    1  A    between atoms: O_3  and  C_24
    2  A    between atoms: O_3  and  O_25
    3  A    between atoms: C_7  and  C_11
    4  A    between atoms: C_18  and  C_30
    5  A    between atoms: C_23  and  O_25
                            x       y       z     vdW  Elec       q    Type
                         _______ _______ _______ _____ _____    ______ ____

>  <TORSDO>
F 5

$$$$
=
 OpenBabel10272415243D

 34 39  0  0  1  0  0  0  0  0999 V2000
  187.4180  178.2660  139.6290 C   0  0  0  0  0  0  0  0  0  0  0  0
  188.3190  176.9570  136.2690 C   0  0  0  0  0  3  0  0  0  0  0  0
  186.1780  177.5660  137.2070 C   0  0  0  0  0  3  0  0  0  0  0  0
  185.7640  178.8050  142.0160 C   0  0  0  0  0  2  0  0  0  0  0  0
  188.0390  178.6220  140.9470 C   0  0  0  0  0  2  0  0  0  0  0  0
  185.2210  179.0510  140.5970 C   0  0  2  0  0  3  0  0  0  0  0  0
  183.2310  179.0110  139.1170 C   0  0  0  0  0  2  0  0  0  0  0  0
  183.7390  178.7080  140.5200 C   0  0  0  0  0  2  0  0  0  0  0  0
  187.1390  178.1100  142.0740 C   0  0  1  0  0  3  0  0  0  0  0  0
  185.4070  178.0620  138.2610 C   0  0  0  0  0  0  0  0  0  0  0  0
  186.0250  178.4110  139.4810 C   0  0  0  0  0  0  0  0  0  0  0  0
  183.9110  178.0920  138.1030 C   0  0  0  0  0  2  0  0  0  0  0  0
  189.7050  176.8230  136.3890 C   0  0  0  0  0  0  0  0  0  0  0  0
  190.3360  177.1690  137.5920 C   0  0  0  0  0  3  0  0  0  0  0  0
  187.5610  177.4380  137.3390 C   0  0  0  0  0  0  0  0  0  0  0  0
  189.5850  177.6470  138.6700 C   0  0  0  0  0  3  0  0  0  0  0  0
  188.1940  177.7880  138.5560 C   0  0  0  0  0  0  0  0  0  0  0  0
  190.3330  177.7700  143.7170 C   0  0  0  0  0  3  0  0  0  0  0  0
  187.6400  177.0490  144.3210 C   0  0  0  0  0  2  0  0  0  0  0  0
  191.0270  176.1990  146.9460 C   0  0  2  0  0  3  0  0  0  0  0  0
  191.4250  176.4390  145.4980 C   0  0  0  0  0  2  0  0  0  0  0  0
  190.3930  177.3710  144.9920 C   0  0  0  0  0  0  0  0  0  0  0  0
  189.4240  177.8170  146.0320 C   0  0  1  0  0  3  0  0  0  0  0  0
  188.0020  177.2870  145.7920 C   0  0  0  0  0  2  0  0  0  0  0  0
  189.9770  177.2430  147.3250 C   0  0  0  0  0  2  0  0  0  0  0  0
  187.8120  178.2980  143.4390 C   0  0  1  0  0  3  0  0  0  0  0  0
  189.2820  178.7470  143.2530 C   0  0  0  0  0  2  0  0  0  0  0  0
  192.2120  176.2930  147.8470 C   0  0  0  0  0  0  0  0  0  0  0  0
  192.3400  177.2850  148.6100 O   0  0  0  0  0  1  0  0  0  0  0  0
  193.1760  175.2910  147.8490 O   0  0  0  0  0  0  0  0  0  0  0  0
  190.4420  176.3480  135.3060 O   0  0  0  0  0  0  0  0  0  0  0  0
  190.0580  175.2540  134.6340 O   0  0  0  0  0  0  0  0  0  0  0  0
  189.6850  173.1930  135.7480 C   0  0  0  0  0  1  0  0  0  0  0  0
  190.7080  174.2010  135.2740 C   0  0  0  0  0  2  0  0  0  0  0  0
  1  5  1  0  0  0  0
  2 13  2  0  0  0  0
  2 15  1  0  0  0  0
  3 15  2  0  0  0  0
  3 10  1  0  0  0  0
  4  9  1  0  0  0  0
  6  8  1  1  0  0  0
  6  4  1  0  0  0  0
  7  8  1  0  0  0  0
  9  5  1  6  0  0  0
  9 26  1  0  0  0  0
 10 11  2  0  0  0  0
 11  1  1  0  0  0  0
 11  6  1  0  0  0  0
 12 10  1  0  0  0  0
 12  7  1  0  0  0  0
 13 14  1  0  0  0  0
 14 16  2  0  0  0  0
 15 17  1  0  0  0  0
 17 16  1  0  0  0  0
 17  1  2  0  0  0  0
 18 22  2  0  0  0  0
 19 24  1  0  0  0  0
 20 25  1  0  0  0  0
 20 28  1  1  0  0  0
 21 20  1  0  0  0  0
 22 21  1  0  0  0  0
 22 23  1  0  0  0  0
 23 24  1  6  0  0  0
 23 25  1  0  0  0  0
 26 27  1  6  0  0  0
 26 19  1  0  0  0  0
 27 18  1  0  0  0  0
 28 30  2  0  0  0  0
 28 29  1  0  0  0  0
 31 13  1  0  0  0  0
 32 34  1  0  0  0  0
 32 31  1  0  0  0  0
 34 33  1  0  0  0  0
M  END
>  <MODEL>
5

>  <REMARK>
 VINA RESULT:      -8.9      1.716      9.088
  Name = 
  5 active torsions:
  status: ('A' for Active; 'I' for Inactive)
    1  A    between atoms: O_3  and  C_24
    2  A    between atoms: O_3  and  O_25
    3  A    between atoms: C_7  and  C_11
    4  A    between atoms: C_18  and  C_30
    5  A    between atoms: C_23  and  O_25
                            x       y       z     vdW  Elec       q    Type
                         _______ _______ _______ _____ _____    ______ ____

>  <TORSDO>
F 5

$$$$
=
 OpenBabel10272415243D

 34 39  0  0  1  0  0  0  0  0999 V2000
  185.9530  178.0370  142.9880 C   0  0  0  0  0  0  0  0  0  0  0  0
  185.5840  178.4200  146.6670 C   0  0  0  0  0  3  0  0  0  0  0  0
  184.0040  178.7700  144.8740 C   0  0  0  0  0  3  0  0  0  0  0  0
  185.4510  178.4910  140.1140 C   0  0  0  0  0  2  0  0  0  0  0  0
  186.9750  177.6810  141.9500 C   0  0  0  0  0  2  0  0  0  0  0  0
  184.2920  178.2500  141.0970 C   0  0  2  0  0  3  0  0  0  0  0  0
  181.9430  178.7860  141.6850 C   0  0  0  0  0  2  0  0  0  0  0  0
  183.0790  179.0900  140.7190 C   0  0  0  0  0  2  0  0  0  0  0  0
  186.8390  178.6440  140.7680 C   0  0  1  0  0  3  0  0  0  0  0  0
  183.6790  178.7480  143.5160 C   0  0  0  0  0  0  0  0  0  0  0  0
  184.6560  178.3850  142.5650 C   0  0  0  0  0  0  0  0  0  0  0  0
  182.3190  179.2360  143.0950 C   0  0  0  0  0  2  0  0  0  0  0  0
  186.8600  178.0610  147.1110 C   0  0  0  0  0  0  0  0  0  0  0  0
  187.8420  177.6930  146.1800 C   0  0  0  0  0  3  0  0  0  0  0  0
  185.2810  178.4090  145.3040 C   0  0  0  0  0  0  0  0  0  0  0  0
  187.5490  177.6840  144.8130 C   0  0  0  0  0  3  0  0  0  0  0  0
  186.2690  178.0390  144.3600 C   0  0  0  0  0  0  0  0  0  0  0  0
  187.7100  176.6460  137.8930 C   0  0  0  0  0  3  0  0  0  0  0  0
  189.0220  177.4470  140.2960 C   0  0  0  0  0  2  0  0  0  0  0  0
  190.8610  174.9020  137.2590 C   0  0  2  0  0  3  0  0  0  0  0  0
  189.3410  174.9150  137.2020 C   0  0  0  0  0  2  0  0  0  0  0  0
  188.9760  176.2590  137.7040 C   0  0  0  0  0  0  0  0  0  0  0  0
  190.1480  177.1340  137.9850 C   0  0  1  0  0  3  0  0  0  0  0  0
  190.3220  177.4380  139.4820 C   0  0  0  0  0  2  0  0  0  0  0  0
  191.3370  176.3370  137.4790 C   0  0  0  0  0  2  0  0  0  0  0  0
  187.9690  178.4300  139.7550 C   0  0  1  0  0  3  0  0  0  0  0  0
  187.3830  178.0370  138.3760 C   0  0  0  0  0  2  0  0  0  0  0  0
  191.4360  174.3440  136.0010 C   0  0  0  0  0  0  0  0  0  0  0  0
  190.6770  174.0560  135.0400 O   0  0  0  0  0  0  0  0  0  0  0  0
  192.8060  174.1390  135.8840 O   0  0  0  0  0  1  0  0  0  0  0  0
  187.1370  178.0720  148.4760 O   0  0  0  0  0  0  0  0  0  0  0  0
  188.2140  177.4470  148.9700 O   0  0  0  0  0  0  0  0  0  0  0  0
  190.4520  177.6830  148.2190 C   0  0  0  0  0  1  0  0  0  0  0  0
  189.2500  178.3680  148.8300 C   0  0  0  0  0  2  0  0  0  0  0  0
  1 17  1  0  0  0  0
  2 13  1  0  0  0  0
  3 15  1  0  0  0  0
  5  1  1  0  0  0  0
  6  4  1  6  0  0  0
  6 11  1  0  0  0  0
  7 12  1  0  0  0  0
  8  6  1  0  0  0  0
  8  7  1  0  0  0  0
  9  4  1  6  0  0  0
  9  5  1  0  0  0  0
 10  3  2  0  0  0  0
 11  1  2  0  0  0  0
 11 10  1  0  0  0  0
 12 10  1  0  0  0  0
 13 31  1  0  0  0  0
 14 13  2  0  0  0  0
 15  2  2  0  0  0  0
 16 14  1  0  0  0  0
 17 16  2  0  0  0  0
 17 15  1  0  0  0  0
 18 27  1  0  0  0  0
 20 28  1  6  0  0  0
 20 25  1  0  0  0  0
 21 20  1  0  0  0  0
 21 22  1  0  0  0  0
 22 18  2  0  0  0  0
 22 23  1  0  0  0  0
 23 25  1  1  0  0  0
 23 24  1  0  0  0  0
 24 19  1  0  0  0  0
 26 27  1  6  0  0  0
 26 19  1  0  0  0  0
 26  9  1  0  0  0  0
 29 28  2  0  0  0  0
 30 28  1  0  0  0  0
 31 32  1  0  0  0  0
 33 34  1  0  0  0  0
 34 32  1  0  0  0  0
M  END
>  <MODEL>
6

>  <REMARK>
 VINA RESULT:      -8.7      1.897      3.055
  Name = 
  5 active torsions:
  status: ('A' for Active; 'I' for Inactive)
    1  A    between atoms: O_3  and  C_24
    2  A    between atoms: O_3  and  O_25
    3  A    between atoms: C_7  and  C_11
    4  A    between atoms: C_18  and  C_30
    5  A    between atoms: C_23  and  O_25
                            x       y       z     vdW  Elec       q    Type
                         _______ _______ _______ _____ _____    ______ ____

>  <TORSDO>
F 5

$$$$
=
 OpenBabel10272415243D

 34 39  0  0  1  0  0  0  0  0999 V2000
  187.9530  177.5270  142.9760 C   0  0  0  0  0  0  0  0  0  0  0  0
  188.6350  177.7510  146.6220 C   0  0  0  0  0  3  0  0  0  0  0  0
  186.6840  178.3660  145.3380 C   0  0  0  0  0  3  0  0  0  0  0  0
  186.7530  178.1840  140.3580 C   0  0  0  0  0  2  0  0  0  0  0  0
  188.6070  177.1170  141.6900 C   0  0  0  0  0  2  0  0  0  0  0  0
  185.8820  178.0180  141.6160 C   0  0  2  0  0  3  0  0  0  0  0  0
  183.8580  178.7740  142.8350 C   0  0  0  0  0  2  0  0  0  0  0  0
  184.7200  179.0030  141.6010 C   0  0  0  0  0  2  0  0  0  0  0  0
  188.2740  178.1500  140.6120 C   0  0  1  0  0  3  0  0  0  0  0  0
  186.0060  178.4510  144.1200 C   0  0  0  0  0  0  0  0  0  0  0  0
  186.6400  178.0350  142.9300 C   0  0  0  0  0  0  0  0  0  0  0  0
  184.6510  179.1050  144.0980 C   0  0  0  0  0  2  0  0  0  0  0  0
  189.9310  177.2330  146.6920 C   0  0  0  0  0  0  0  0  0  0  0  0
  190.5760  176.8110  145.5210 C   0  0  0  0  0  3  0  0  0  0  0  0
  187.9780  177.8460  145.3940 C   0  0  0  0  0  0  0  0  0  0  0  0
  189.9270  176.9060  144.2870 C   0  0  0  0  0  3  0  0  0  0  0  0
  188.6240  177.4210  144.2080 C   0  0  0  0  0  0  0  0  0  0  0  0
  188.4450  175.8140  137.8680 C   0  0  0  0  0  3  0  0  0  0  0  0
  190.3300  177.0560  139.6130 C   0  0  0  0  0  2  0  0  0  0  0  0
  191.4290  174.2240  136.4730 C   0  0  2  0  0  3  0  0  0  0  0  0
  189.9730  174.1200  136.9040 C   0  0  0  0  0  2  0  0  0  0  0  0
  189.6280  175.4940  137.3320 C   0  0  0  0  0  0  0  0  0  0  0  0
  190.7210  176.4830  137.1180 C   0  0  1  0  0  3  0  0  0  0  0  0
  191.3100  177.0180  138.4340 C   0  0  0  0  0  2  0  0  0  0  0  0
  191.7810  175.7070  136.3580 C   0  0  0  0  0  2  0  0  0  0  0  0
  189.0560  177.8690  139.3230 C   0  0  1  0  0  3  0  0  0  0  0  0
  188.1250  177.2350  138.2610 C   0  0  0  0  0  2  0  0  0  0  0  0
  191.6510  173.5270  135.1730 C   0  0  0  0  0  0  0  0  0  0  0  0
  190.8690  172.6100  134.8140 O   0  0  0  0  0  1  0  0  0  0  0  0
  192.7180  173.8840  134.3570 O   0  0  0  0  0  0  0  0  0  0  0  0
  190.5650  177.1420  147.9300 O   0  0  0  0  0  0  0  0  0  0  0  0
  191.8450  177.5080  148.0820 O   0  0  0  0  0  0  0  0  0  0  0  0
  192.7600  175.3610  147.6570 C   0  0  0  0  0  1  0  0  0  0  0  0
  192.4530  176.4160  148.6970 C   0  0  0  0  0  2  0  0  0  0  0  0
  1 17  1  0  0  0  0
  2 13  1  0  0  0  0
  3 15  1  0  0  0  0
  5  1  1  0  0  0  0
  6  4  1  6  0  0  0
  6 11  1  0  0  0  0
  7 12  1  0  0  0  0
  8  6  1  0  0  0  0
  8  7  1  0  0  0  0
  9  4  1  6  0  0  0
  9  5  1  0  0  0  0
 10  3  2  0  0  0  0
 11  1  2  0  0  0  0
 11 10  1  0  0  0  0
 12 10  1  0  0  0  0
 13 31  1  0  0  0  0
 14 13  2  0  0  0  0
 15  2  2  0  0  0  0
 16 14  1  0  0  0  0
 17 16  2  0  0  0  0
 17 15  1  0  0  0  0
 18 27  1  0  0  0  0
 20 28  1  6  0  0  0
 20 21  1  0  0  0  0
 21 22  1  0  0  0  0
 22 18  2  0  0  0  0
 23 25  1  1  0  0  0
 23 22  1  0  0  0  0
 23 24  1  0  0  0  0
 24 19  1  0  0  0  0
 25 20  1  0  0  0  0
 26 27  1  6  0  0  0
 26 19  1  0  0  0  0
 26  9  1  0  0  0  0
 29 28  1  0  0  0  0
 30 28  2  0  0  0  0
 31 32  1  0  0  0  0
 32 34  1  0  0  0  0
 33 34  1  0  0  0  0
M  END
>  <MODEL>
7

>  <REMARK>
 VINA RESULT:      -8.6      1.247      1.706
  Name = 
  5 active torsions:
  status: ('A' for Active; 'I' for Inactive)
    1  A    between atoms: O_3  and  C_24
    2  A    between atoms: O_3  and  O_25
    3  A    between atoms: C_7  and  C_11
    4  A    between atoms: C_18  and  C_30
    5  A    between atoms: C_23  and  O_25
                            x       y       z     vdW  Elec       q    Type
                         _______ _______ _______ _____ _____    ______ ____

>  <TORSDO>
F 5

$$$$
=
 OpenBabel10272415243D

 34 39  0  0  1  0  0  0  0  0999 V2000
  190.1200  177.0200  138.3200 C   0  0  0  0  0  0  0  0  0  0  0  0
  191.9000  175.0680  135.7060 C   0  0  0  0  0  3  0  0  0  0  0  0
  189.6430  175.9270  135.7770 C   0  0  0  0  0  3  0  0  0  0  0  0
  187.8610  178.0640  139.9110 C   0  0  0  0  0  2  0  0  0  0  0  0
  190.3260  177.5930  139.6910 C   0  0  0  0  0  2  0  0  0  0  0  0
  187.8180  178.0600  138.3720 C   0  0  2  0  0  3  0  0  0  0  0  0
  186.4020  177.8210  136.3500 C   0  0  0  0  0  2  0  0  0  0  0  0
  186.4100  177.7670  137.8710 C   0  0  0  0  0  2  0  0  0  0  0  0
  189.0720  177.3380  140.5300 C   0  0  1  0  0  3  0  0  0  0  0  0
  188.6320  176.6430  136.4230 C   0  0  0  0  0  0  0  0  0  0  0  0
  188.8660  177.1900  137.7020 C   0  0  0  0  0  0  0  0  0  0  0  0
  187.2730  176.7020  135.7810 C   0  0  0  0  0  2  0  0  0  0  0  0
  193.1570  174.9050  136.2930 C   0  0  0  0  0  0  0  0  0  0  0  0
  193.4080  175.4450  137.5620 C   0  0  0  0  0  3  0  0  0  0  0  0
  190.8950  175.7710  136.3740 C   0  0  0  0  0  0  0  0  0  0  0  0
  192.4070  176.1460  138.2390 C   0  0  0  0  0  3  0  0  0  0  0  0
  191.1430  176.3190  137.6550 C   0  0  0  0  0  0  0  0  0  0  0  0
  191.5430  177.2010  143.1540 C   0  0  0  0  0  3  0  0  0  0  0  0
  188.7420  176.6950  142.9590 C   0  0  0  0  0  2  0  0  0  0  0  0
  191.0390  176.2320  146.6460 C   0  0  2  0  0  3  0  0  0  0  0  0
  191.8930  176.1870  145.3870 C   0  0  0  0  0  2  0  0  0  0  0  0
  191.1620  177.0440  144.4270 C   0  0  0  0  0  0  0  0  0  0  0  0
  189.9600  177.7060  145.0070 C   0  0  1  0  0  3  0  0  0  0  0  0
  188.6430  177.1890  144.4070 C   0  0  0  0  0  2  0  0  0  0  0  0
  190.0240  177.3630  146.4850 C   0  0  0  0  0  2  0  0  0  0  0  0
  189.2950  177.7530  141.9890 C   0  0  1  0  0  3  0  0  0  0  0  0
  190.7850  178.1100  142.2200 C   0  0  0  0  0  2  0  0  0  0  0  0
  191.8840  176.4520  147.8550 C   0  0  0  0  0  0  0  0  0  0  0  0
  191.8010  177.5360  148.4870 O   0  0  0  0  0  1  0  0  0  0  0  0
  192.7640  175.4660  148.2870 O   0  0  0  0  0  0  0  0  0  0  0  0
  194.1460  174.2050  135.6040 O   0  0  0  0  0  0  0  0  0  0  0  0
  195.3860  174.0910  136.1000 O   0  0  0  0  0  0  0  0  0  0  0  0
  196.8380  175.8920  135.5740 C   0  0  0  0  0  1  0  0  0  0  0  0
  196.2130  174.5980  135.1000 C   0  0  0  0  0  2  0  0  0  0  0  0
  1  5  1  0  0  0  0
  2 13  2  0  0  0  0
  2 15  1  0  0  0  0
  3 15  2  0  0  0  0
  3 10  1  0  0  0  0
  4  9  1  0  0  0  0
  6  8  1  1  0  0  0
  6  4  1  0  0  0  0
  7  8  1  0  0  0  0
  9  5  1  6  0  0  0
  9 26  1  0  0  0  0
 10 11  2  0  0  0  0
 11  1  1  0  0  0  0
 11  6  1  0  0  0  0
 12  7  1  0  0  0  0
 12 10  1  0  0  0  0
 13 14  1  0  0  0  0
 14 16  2  0  0  0  0
 15 17  1  0  0  0  0
 17 16  1  0  0  0  0
 17  1  2  0  0  0  0
 18 22  2  0  0  0  0
 19 24  1  0  0  0  0
 20 28  1  1  0  0  0
 21 20  1  0  0  0  0
 22 23  1  0  0  0  0
 22 21  1  0  0  0  0
 23 24  1  6  0  0  0
 23 25  1  0  0  0  0
 25 20  1  0  0  0  0
 26 27  1  6  0  0  0
 26 19  1  0  0  0  0
 27 18  1  0  0  0  0
 28 30  2  0  0  0  0
 28 29  1  0  0  0  0
 31 32  1  0  0  0  0
 31 13  1  0  0  0  0
 34 33  1  0  0  0  0
 34 32  1  0  0  0  0
M  END
>  <MODEL>
8

>  <REMARK>
 VINA RESULT:      -8.4      2.325      9.415
  Name = 
  5 active torsions:
  status: ('A' for Active; 'I' for Inactive)
    1  A    between atoms: O_3  and  C_24
    2  A    between atoms: O_3  and  O_25
    3  A    between atoms: C_7  and  C_11
    4  A    between atoms: C_18  and  C_30
    5  A    between atoms: C_23  and  O_25
                            x       y       z     vdW  Elec       q    Type
                         _______ _______ _______ _____ _____    ______ ____

>  <TORSDO>
F 5

$$$$
=
 OpenBabel10272415243D

 34 39  0  0  1  0  0  0  0  0999 V2000
  191.0910  176.8120  138.2270 C   0  0  0  0  0  0  0  0  0  0  0  0
  192.8180  175.2880  135.3100 C   0  0  0  0  0  3  0  0  0  0  0  0
  190.6790  176.3950  135.4790 C   0  0  0  0  0  3  0  0  0  0  0  0
  188.8580  177.7530  139.9150 C   0  0  0  0  0  2  0  0  0  0  0  0
  191.2610  177.0260  139.7020 C   0  0  0  0  0  2  0  0  0  0  0  0
  188.9290  178.1040  138.4180 C   0  0  2  0  0  3  0  0  0  0  0  0
  187.6470  178.5170  136.3350 C   0  0  0  0  0  2  0  0  0  0  0  0
  187.5370  178.1190  137.8000 C   0  0  0  0  0  2  0  0  0  0  0  0
  189.9270  176.7540  140.4000 C   0  0  1  0  0  3  0  0  0  0  0  0
  189.7130  177.0720  136.2290 C   0  0  0  0  0  0  0  0  0  0  0  0
  189.9140  177.2790  137.6100 C   0  0  0  0  0  0  0  0  0  0  0  0
  188.4210  177.4520  135.5590 C   0  0  0  0  0  2  0  0  0  0  0  0
  194.0010  174.8330  135.8980 C   0  0  0  0  0  0  0  0  0  0  0  0
  194.2190  175.0330  137.2680 C   0  0  0  0  0  3  0  0  0  0  0  0
  191.8560  175.9460  136.0780 C   0  0  0  0  0  0  0  0  0  0  0  0
  193.2600  175.6870  138.0460 C   0  0  0  0  0  3  0  0  0  0  0  0
  192.0710  176.1520  137.4620 C   0  0  0  0  0  0  0  0  0  0  0  0
  188.0770  176.2120  143.4490 C   0  0  0  0  0  3  0  0  0  0  0  0
  189.8580  178.2140  142.4700 C   0  0  0  0  0  2  0  0  0  0  0  0
  187.9710  178.3600  146.4080 C   0  0  2  0  0  3  0  0  0  0  0  0
  187.2430  177.4640  145.4170 C   0  0  0  0  0  2  0  0  0  0  0  0
  188.3150  176.9730  144.5230 C   0  0  0  0  0  0  0  0  0  0  0  0
  189.6810  177.4110  144.9260 C   0  0  1  0  0  3  0  0  0  0  0  0
  190.3150  178.3900  143.9240 C   0  0  0  0  0  2  0  0  0  0  0  0
  189.4700  178.1050  146.2600 C   0  0  0  0  0  2  0  0  0  0  0  0
  190.0890  176.7940  141.9240 C   0  0  1  0  0  3  0  0  0  0  0  0
  189.2040  175.7080  142.5840 C   0  0  0  0  0  2  0  0  0  0  0  0
  187.5250  178.0840  147.8040 C   0  0  0  0  0  0  0  0  0  0  0  0
  188.2850  177.4650  148.5920 O   0  0  0  0  0  1  0  0  0  0  0  0
  186.2730  178.5050  148.2390 O   0  0  0  0  0  0  0  0  0  0  0  0
  194.9500  174.1840  135.1100 O   0  0  0  0  0  0  0  0  0  0  0  0
  195.5370  173.0520  135.5220 O   0  0  0  0  0  0  0  0  0  0  0  0
  194.5250  171.0760  136.3580 C   0  0  0  0  0  1  0  0  0  0  0  0
  194.6270  172.0470  135.2020 C   0  0  0  0  0  2  0  0  0  0  0  0
  1  5  1  0  0  0  0
  2 13  2  0  0  0  0
  2 15  1  0  0  0  0
  3 15  2  0  0  0  0
  3 10  1  0  0  0  0
  4  9  1  0  0  0  0
  6  8  1  6  0  0  0
  6  4  1  0  0  0  0
  7  8  1  0  0  0  0
  9  5  1  6  0  0  0
  9 26  1  0  0  0  0
 10 11  2  0  0  0  0
 11  1  1  0  0  0  0
 11  6  1  0  0  0  0
 12 10  1  0  0  0  0
 12  7  1  0  0  0  0
 13 14  1  0  0  0  0
 14 16  2  0  0  0  0
 15 17  1  0  0  0  0
 17 16  1  0  0  0  0
 17  1  2  0  0  0  0
 18 22  2  0  0  0  0
 19 24  1  0  0  0  0
 20 28  1  1  0  0  0
 21 20  1  0  0  0  0
 22 23  1  0  0  0  0
 22 21  1  0  0  0  0
 23 24  1  6  0  0  0
 23 25  1  0  0  0  0
 25 20  1  0  0  0  0
 26 19  1  1  0  0  0
 26 27  1  0  0  0  0
 27 18  1  0  0  0  0
 28 30  2  0  0  0  0
 28 29  1  0  0  0  0
 31 32  1  0  0  0  0
 31 13  1  0  0  0  0
 34 32  1  0  0  0  0
 34 33  1  0  0  0  0
M  END
>  <MODEL>
9

>  <REMARK>
 VINA RESULT:      -8.0      2.729      9.694
  Name = 
  5 active torsions:
  status: ('A' for Active; 'I' for Inactive)
    1  A    between atoms: O_3  and  C_24
    2  A    between atoms: O_3  and  O_25
    3  A    between atoms: C_7  and  C_11
    4  A    between atoms: C_18  and  C_30
    5  A    between atoms: C_23  and  O_25
                            x       y       z     vdW  Elec       q    Type
                         _______ _______ _______ _____ _____    ______ ____

>  <TORSDO>
F 5

$$$$
