=
 OpenBabel10272413593D

 30 32  0  0  1  0  0  0  0  0999 V2000
  188.6810  177.0120  137.0890 C   0  0  1  0  0  3  0  0  0  0  0  0
  189.4650  176.2320  136.0710 C   0  0  0  0  0  0  0  0  0  0  0  0
  193.6650  174.3940  136.0580 O   0  0  0  0  0  0  0  0  0  0  0  0
  189.4820  174.7300  136.1140 C   0  0  1  0  0  3  0  0  0  0  0  0
  191.6310  176.5660  139.0020 C   0  0  0  0  0  2  0  0  0  0  0  0
  190.1160  176.8130  135.2160 O   0  0  0  0  0  0  0  0  0  0  0  0
  190.1540  174.2070  137.3880 C   0  0  0  0  0  2  0  0  0  0  0  0
  192.0650  175.8740  137.7400 C   0  0  0  0  0  0  0  0  0  0  0  0
  193.5230  175.7640  135.7710 C   0  0  0  0  0  2  0  0  0  0  0  0
  189.6100  177.7250  138.0570 C   0  0  0  0  0  2  0  0  0  0  0  0
  190.1200  176.7310  139.0910 C   0  0  2  0  0  3  0  0  0  0  0  0
  192.9870  176.4790  136.9790 C   0  0  0  0  0  3  0  0  0  0  0  0
  192.3580  173.8850  136.1780 C   0  0  0  0  0  2  0  0  0  0  0  0
  191.6720  174.4310  137.4450 C   0  0  2  0  0  3  0  0  0  0  0  0
  187.7470  178.0080  136.4250 C   0  0  0  0  0  2  0  0  0  0  0  0
  187.1040  178.7940  137.4130 O   0  0  0  0  0  0  0  0  0  0  0  0
  185.9620  178.3240  138.0450 C   0  0  0  0  0  3  0  0  0  0  0  0
  185.6630  178.7400  139.1930 O   0  0  0  0  0  0  0  0  0  0  0  0
  188.1550  174.2220  136.0440 O   0  0  0  0  0  0  0  0  0  0  0  0
  187.1120  172.5980  137.2830 O   0  0  0  0  0  0  0  0  0  0  0  0
  188.3530  171.8430  135.4730 N   0  0  0  0  0  1  0  0  0  0  0  0
  187.8470  172.8850  136.3020 C   0  0  0  0  0  0  0  0  0  0  0  0
  189.7260  177.1860  140.4820 C   0  0  0  0  0  2  0  0  0  0  0  0
  191.2070  177.3240  141.5280 S   0  0  0  0  0  0  0  0  0  0  0  0
  190.4040  176.5180  142.9470 C   0  0  0  0  0  2  0  0  0  0  0  0
  189.7470  177.5600  143.8300 C   0  0  1  0  0  3  0  0  0  0  0  0
  189.0060  176.8760  144.9000 N   0  0  0  0  0  0  0  0  0  0  0  0
  190.3080  177.5030  145.1740 C   0  0  0  0  0  2  0  0  0  0  0  0
  186.6380  177.3760  144.8380 C   0  0  0  0  0  1  0  0  0  0  0  0
  187.9920  177.8040  145.3630 C   0  0  0  0  0  2  0  0  0  0  0  0
  1 15  1  6  0  0  0
  1 10  1  0  0  0  0
  2  4  1  0  0  0  0
  2  1  1  0  0  0  0
  3 13  1  0  0  0  0
  4 19  1  1  0  0  0
  4  7  1  0  0  0  0
  5 11  1  0  0  0  0
  6  2  2  0  0  0  0
  7 14  1  0  0  0  0
  8  5  1  0  0  0  0
  9  3  1  0  0  0  0
  9 12  1  0  0  0  0
 10 11  1  0  0  0  0
 11 23  1  1  0  0  0
 12  8  2  0  0  0  0
 14 13  1  6  0  0  0
 14  8  1  0  0  0  0
 15 16  1  0  0  0  0
 16 17  1  0  0  0  0
 17 18  2  0  0  0  0
 19 22  1  0  0  0  0
 21 22  1  0  0  0  0
 22 20  2  0  0  0  0
 23 24  1  0  0  0  0
 24 25  1  0  0  0  0
 26 25  1  6  0  0  0
 26 27  1  0  0  0  0
 26 28  1  0  0  0  0
 27 28  1  0  0  0  0
 27 30  1  0  0  0  0
 29 30  1  0  0  0  0
M  END
>  <MODEL>
1

>  <REMARK>
 VINA RESULT:      -5.7      0.000      0.000
  Name = 
  10 active torsions:
  status: ('A' for Active; 'I' for Inactive)
    1  A    between atoms: C_1  and  C_4
    2  A    between atoms: C_1  and  O_22
    3  A    between atoms: C_2  and  O_22
    4  A    between atoms: C_3  and  S_11
    5  A    between atoms: C_3  and  C_19
    6  A    between atoms: O_6  and  C_8
    7  A    between atoms: O_6  and  C_21
    8  A    between atoms: S_11  and  C_24
    9  A    between atoms: C_20  and  N_28
   10  A    between atoms: C_24  and  C_25
                            x       y       z     vdW  Elec       q    Type
                         _______ _______ _______ _____ _____    ______ ____

>  <TORSDO>
F 10

$$$$
=
 OpenBabel10272413593D

 30 32  0  0  1  0  0  0  0  0999 V2000
  188.5570  177.3420  137.3770 C   0  0  1  0  0  3  0  0  0  0  0  0
  189.2110  176.5930  136.2500 C   0  0  0  0  0  0  0  0  0  0  0  0
  193.2130  174.3990  135.8240 O   0  0  0  0  0  0  0  0  0  0  0  0
  189.0900  175.0990  136.1600 C   0  0  1  0  0  3  0  0  0  0  0  0
  191.5470  176.4610  139.0640 C   0  0  0  0  0  2  0  0  0  0  0  0
  189.8690  177.1920  135.4120 O   0  0  0  0  0  0  0  0  0  0  0  0
  189.7740  174.4020  137.3400 C   0  0  0  0  0  2  0  0  0  0  0  0
  191.8490  175.8540  137.7220 C   0  0  0  0  0  0  0  0  0  0  0  0
  193.1870  175.7970  135.6670 C   0  0  0  0  0  2  0  0  0  0  0  0
  189.5980  177.8770  138.3470 C   0  0  0  0  0  2  0  0  0  0  0  0
  190.0650  176.7500  139.2560 C   0  0  2  0  0  3  0  0  0  0  0  0
  192.7830  176.4420  136.9630 C   0  0  0  0  0  3  0  0  0  0  0  0
  191.8730  174.0000  135.9770 C   0  0  0  0  0  2  0  0  0  0  0  0
  191.3070  174.4840  137.3260 C   0  0  2  0  0  3  0  0  0  0  0  0
  187.6870  178.4740  136.8600 C   0  0  0  0  0  2  0  0  0  0  0  0
  186.3250  178.0880  136.9000 O   0  0  0  0  0  0  0  0  0  0  0  0
  185.6420  178.0620  138.1080 C   0  0  0  0  0  3  0  0  0  0  0  0
  185.3640  179.1380  138.6950 O   0  0  0  0  0  0  0  0  0  0  0  0
  187.7190  174.7190  136.1250 O   0  0  0  0  0  0  0  0  0  0  0  0
  187.6430  172.6010  135.2510 O   0  0  0  0  0  0  0  0  0  0  0  0
  186.5060  172.9050  137.2500 N   0  0  0  0  0  1  0  0  0  0  0  0
  187.3060  173.3860  136.1730 C   0  0  0  0  0  0  0  0  0  0  0  0
  189.7870  177.1070  140.7030 C   0  0  0  0  0  2  0  0  0  0  0  0
  188.4310  178.3160  140.7910 S   0  0  0  0  0  0  0  0  0  0  0  0
  187.7670  177.6120  142.3310 C   0  0  0  0  0  2  0  0  0  0  0  0
  188.8990  177.0850  143.1890 C   0  0  1  0  0  3  0  0  0  0  0  0
  189.2920  178.1280  144.1480 N   0  0  0  0  0  0  0  0  0  0  0  0
  188.4690  176.9880  144.5780 C   0  0  0  0  0  2  0  0  0  0  0  0
  191.5910  178.8640  143.9590 C   0  0  0  0  0  1  0  0  0  0  0  0
  190.6540  177.8310  144.5490 C   0  0  0  0  0  2  0  0  0  0  0  0
  1 15  1  6  0  0  0
  1 10  1  0  0  0  0
  2  1  1  0  0  0  0
  3 13  1  0  0  0  0
  4 19  1  1  0  0  0
  4  2  1  0  0  0  0
  4  7  1  0  0  0  0
  5 11  1  0  0  0  0
  6  2  2  0  0  0  0
  8  5  1  0  0  0  0
  9  3  1  0  0  0  0
  9 12  1  0  0  0  0
 10 11  1  0  0  0  0
 11 23  1  1  0  0  0
 12  8  2  0  0  0  0
 14 13  1  6  0  0  0
 14  7  1  0  0  0  0
 14  8  1  0  0  0  0
 15 16  1  0  0  0  0
 16 17  1  0  0  0  0
 17 18  2  0  0  0  0
 19 22  1  0  0  0  0
 20 22  2  0  0  0  0
 22 21  1  0  0  0  0
 23 24  1  0  0  0  0
 24 25  1  0  0  0  0
 26 25  1  6  0  0  0
 26 27  1  0  0  0  0
 26 28  1  0  0  0  0
 27 30  1  0  0  0  0
 27 28  1  0  0  0  0
 29 30  1  0  0  0  0
M  END
>  <MODEL>
2

>  <REMARK>
 VINA RESULT:      -5.6      1.198      1.617
  Name = 
  10 active torsions:
  status: ('A' for Active; 'I' for Inactive)
    1  A    between atoms: C_1  and  C_4
    2  A    between atoms: C_1  and  O_22
    3  A    between atoms: C_2  and  O_22
    4  A    between atoms: C_3  and  S_11
    5  A    between atoms: C_3  and  C_19
    6  A    between atoms: O_6  and  C_8
    7  A    between atoms: O_6  and  C_21
    8  A    between atoms: S_11  and  C_24
    9  A    between atoms: C_20  and  N_28
   10  A    between atoms: C_24  and  C_25
                            x       y       z     vdW  Elec       q    Type
                         _______ _______ _______ _____ _____    ______ ____

>  <TORSDO>
F 10

$$$$
=
 OpenBabel10272413593D

 30 32  0  0  1  0  0  0  0  0999 V2000
  186.4520  177.2920  138.0530 C   0  0  1  0  0  3  0  0  0  0  0  0
  186.6700  176.6180  136.7270 C   0  0  0  0  0  0  0  0  0  0  0  0
  190.4160  175.3200  134.4280 O   0  0  0  0  0  0  0  0  0  0  0  0
  186.8650  175.1310  136.6550 C   0  0  1  0  0  3  0  0  0  0  0  0
  189.9940  177.2160  138.1360 C   0  0  0  0  0  2  0  0  0  0  0  0
  186.7150  177.2780  135.7000 O   0  0  0  0  0  0  0  0  0  0  0  0
  188.1530  174.6930  137.3610 C   0  0  0  0  0  2  0  0  0  0  0  0
  189.7790  176.5860  136.7880 C   0  0  0  0  0  0  0  0  0  0  0  0
  190.0020  176.6620  134.3460 C   0  0  0  0  0  2  0  0  0  0  0  0
  187.6670  178.1140  138.4480 C   0  0  0  0  0  2  0  0  0  0  0  0
  188.7420  177.1900  139.0020 C   0  0  2  0  0  3  0  0  0  0  0  0
  190.1000  177.3030  135.7030 C   0  0  0  0  0  3  0  0  0  0  0  0
  189.4250  174.6520  135.1700 C   0  0  0  0  0  2  0  0  0  0  0  0
  189.4450  175.1050  136.6430 C   0  0  2  0  0  3  0  0  0  0  0  0
  185.2090  178.1650  138.0340 C   0  0  0  0  0  2  0  0  0  0  0  0
  185.3190  179.1770  139.0200 O   0  0  0  0  0  0  0  0  0  0  0  0
  184.4840  179.1650  140.1280 C   0  0  0  0  0  3  0  0  0  0  0  0
  184.9490  179.4300  141.2660 O   0  0  0  0  0  0  0  0  0  0  0  0
  185.7580  174.4610  137.2460 O   0  0  0  0  0  0  0  0  0  0  0  0
  184.9020  173.7210  135.2510 O   0  0  0  0  0  0  0  0  0  0  0  0
  183.9490  172.8030  137.1570 N   0  0  0  0  0  1  0  0  0  0  0  0
  184.8770  173.6680  136.5080 C   0  0  0  0  0  0  0  0  0  0  0  0
  189.0830  177.5890  140.4240 C   0  0  0  0  0  2  0  0  0  0  0  0
  190.7590  177.0170  140.8400 S   0  0  0  0  0  0  0  0  0  0  0  0
  190.2310  176.2980  142.4240 C   0  0  0  0  0  2  0  0  0  0  0  0
  189.8110  177.3990  143.3770 C   0  0  1  0  0  3  0  0  0  0  0  0
  189.0130  176.8080  144.4620 N   0  0  0  0  0  0  0  0  0  0  0  0
  190.4170  177.1840  144.6860 C   0  0  0  0  0  2  0  0  0  0  0  0
  186.8410  177.3380  145.3900 C   0  0  0  0  0  1  0  0  0  0  0  0
  188.2030  177.8790  145.0130 C   0  0  0  0  0  2  0  0  0  0  0  0
  1 15  1  6  0  0  0
  1 10  1  0  0  0  0
  2  1  1  0  0  0  0
  3 13  1  0  0  0  0
  4  2  1  0  0  0  0
  4 19  1  1  0  0  0
  4  7  1  0  0  0  0
  5 11  1  0  0  0  0
  6  2  2  0  0  0  0
  8  5  1  0  0  0  0
  9  3  1  0  0  0  0
  9 12  1  0  0  0  0
 10 11  1  0  0  0  0
 11 23  1  1  0  0  0
 12  8  2  0  0  0  0
 14 13  1  6  0  0  0
 14  8  1  0  0  0  0
 14  7  1  0  0  0  0
 15 16  1  0  0  0  0
 16 17  1  0  0  0  0
 17 18  2  0  0  0  0
 20 22  2  0  0  0  0
 22 21  1  0  0  0  0
 22 19  1  0  0  0  0
 23 24  1  0  0  0  0
 24 25  1  0  0  0  0
 26 25  1  6  0  0  0
 26 27  1  0  0  0  0
 26 28  1  0  0  0  0
 27 28  1  0  0  0  0
 27 30  1  0  0  0  0
 30 29  1  0  0  0  0
M  END
>  <MODEL>
3

>  <REMARK>
 VINA RESULT:      -5.3      2.054      2.526
  Name = 
  10 active torsions:
  status: ('A' for Active; 'I' for Inactive)
    1  A    between atoms: C_1  and  C_4
    2  A    between atoms: C_1  and  O_22
    3  A    between atoms: C_2  and  O_22
    4  A    between atoms: C_3  and  S_11
    5  A    between atoms: C_3  and  C_19
    6  A    between atoms: O_6  and  C_8
    7  A    between atoms: O_6  and  C_21
    8  A    between atoms: S_11  and  C_24
    9  A    between atoms: C_20  and  N_28
   10  A    between atoms: C_24  and  C_25
                            x       y       z     vdW  Elec       q    Type
                         _______ _______ _______ _____ _____    ______ ____

>  <TORSDO>
F 10

$$$$
=
 OpenBabel10272413593D

 30 32  0  0  1  0  0  0  0  0999 V2000
  190.0850  176.6060  138.0210 C   0  0  1  0  0  3  0  0  0  0  0  0
  190.4960  175.3350  137.3310 C   0  0  0  0  0  0  0  0  0  0  0  0
  188.2080  172.1510  134.9570 O   0  0  0  0  0  0  0  0  0  0  0  0
  190.7920  175.3320  135.8580 C   0  0  1  0  0  3  0  0  0  0  0  0
  186.8840  175.6490  136.8370 C   0  0  0  0  0  2  0  0  0  0  0  0
  190.5700  174.2890  137.9580 O   0  0  0  0  0  0  0  0  0  0  0  0
  189.5460  175.6620  135.0290 C   0  0  0  0  0  2  0  0  0  0  0  0
  187.6810  174.4810  136.3260 C   0  0  0  0  0  0  0  0  0  0  0  0
  188.2010  172.0840  136.3620 C   0  0  0  0  0  2  0  0  0  0  0  0
  188.6180  176.5570  138.4140 C   0  0  0  0  0  2  0  0  0  0  0  0
  187.7580  176.8440  137.1920 C   0  0  2  0  0  3  0  0  0  0  0  0
  187.5050  173.2940  136.9210 C   0  0  0  0  0  3  0  0  0  0  0  0
  189.0790  173.2050  134.6220 C   0  0  0  0  0  2  0  0  0  0  0  0
  188.4740  174.5640  135.0260 C   0  0  2  0  0  3  0  0  0  0  0  0
  190.9490  176.8810  139.2390 C   0  0  0  0  0  2  0  0  0  0  0  0
  190.1920  176.6750  140.4190 O   0  0  0  0  0  0  0  0  0  0  0  0
  190.7970  176.7870  141.6630 C   0  0  0  0  0  3  0  0  0  0  0  0
  190.6810  177.8510  142.3240 O   0  0  0  0  0  0  0  0  0  0  0  0
  191.8140  176.2760  135.5610 O   0  0  0  0  0  0  0  0  0  0  0  0
  193.7950  175.2580  135.0150 O   0  0  0  0  0  0  0  0  0  0  0  0
  193.8440  176.6050  136.9030 N   0  0  0  0  0  1  0  0  0  0  0  0
  193.1660  176.0190  135.7940 C   0  0  0  0  0  0  0  0  0  0  0  0
  186.8950  178.0650  137.4440 C   0  0  0  0  0  2  0  0  0  0  0  0
  185.1390  177.6250  137.2710 S   0  0  0  0  0  0  0  0  0  0  0  0
  184.6040  178.8560  138.4980 C   0  0  0  0  0  2  0  0  0  0  0  0
  184.8890  178.3500  139.8970 C   0  0  1  0  0  3  0  0  0  0  0  0
  185.2470  179.4920  140.7510 N   0  0  0  0  0  0  0  0  0  0  0  0
  183.9090  178.8870  140.8320 C   0  0  0  0  0  2  0  0  0  0  0  0
  187.4020  178.5900  141.3870 C   0  0  0  0  0  1  0  0  0  0  0  0
  186.0120  178.9570  141.8620 C   0  0  0  0  0  2  0  0  0  0  0  0
  1 10  1  0  0  0  0
  1 15  1  1  0  0  0
  2  6  2  0  0  0  0
  2  1  1  0  0  0  0
  3  9  1  0  0  0  0
  4 19  1  1  0  0  0
  4  2  1  0  0  0  0
  5 11  1  0  0  0  0
  7  4  1  0  0  0  0
  8  5  1  0  0  0  0
  8 12  2  0  0  0  0
  9 12  1  0  0  0  0
 11 23  1  1  0  0  0
 11 10  1  0  0  0  0
 13  3  1  0  0  0  0
 14 13  1  1  0  0  0
 14  7  1  0  0  0  0
 14  8  1  0  0  0  0
 15 16  1  0  0  0  0
 16 17  1  0  0  0  0
 17 18  2  0  0  0  0
 19 22  1  0  0  0  0
 20 22  2  0  0  0  0
 22 21  1  0  0  0  0
 24 23  1  0  0  0  0
 24 25  1  0  0  0  0
 26 25  1  6  0  0  0
 26 27  1  0  0  0  0
 26 28  1  0  0  0  0
 27 28  1  0  0  0  0
 27 30  1  0  0  0  0
 29 30  1  0  0  0  0
M  END
>  <MODEL>
4

>  <REMARK>
 VINA RESULT:      -5.1      3.136      5.260
  Name = 
  10 active torsions:
  status: ('A' for Active; 'I' for Inactive)
    1  A    between atoms: C_1  and  C_4
    2  A    between atoms: C_1  and  O_22
    3  A    between atoms: C_2  and  O_22
    4  A    between atoms: C_3  and  S_11
    5  A    between atoms: C_3  and  C_19
    6  A    between atoms: O_6  and  C_8
    7  A    between atoms: O_6  and  C_21
    8  A    between atoms: S_11  and  C_24
    9  A    between atoms: C_20  and  N_28
   10  A    between atoms: C_24  and  C_25
                            x       y       z     vdW  Elec       q    Type
                         _______ _______ _______ _____ _____    ______ ____

>  <TORSDO>
F 10

$$$$
=
 OpenBabel10272413593D

 30 32  0  0  1  0  0  0  0  0999 V2000
  187.4840  178.2370  141.8290 C   0  0  1  0  0  3  0  0  0  0  0  0
  188.1310  178.0780  143.1760 C   0  0  0  0  0  0  0  0  0  0  0  0
  186.5160  178.0510  147.4660 O   0  0  0  0  0  0  0  0  0  0  0  0
  188.1730  176.7330  143.8430 C   0  0  1  0  0  3  0  0  0  0  0  0
  184.5530  178.5270  143.7990 C   0  0  0  0  0  2  0  0  0  0  0  0
  188.6050  179.0460  143.7510 O   0  0  0  0  0  0  0  0  0  0  0  0
  186.7690  176.2270  144.1900 C   0  0  0  0  0  2  0  0  0  0  0  0
  185.5610  178.3690  144.9030 C   0  0  0  0  0  0  0  0  0  0  0  0
  186.7550  179.2880  146.8390 C   0  0  0  0  0  2  0  0  0  0  0  0
  186.1780  179.0060  141.9430 C   0  0  0  0  0  2  0  0  0  0  0  0
  185.0870  178.0730  142.4480 C   0  0  2  0  0  3  0  0  0  0  0  0
  185.8360  179.4400  145.6590 C   0  0  0  0  0  3  0  0  0  0  0  0
  186.9770  177.0670  146.5710 C   0  0  0  0  0  2  0  0  0  0  0  0
  186.0760  176.9960  145.3230 C   0  0  2  0  0  3  0  0  0  0  0  0
  188.4150  178.9230  140.8440 C   0  0  0  0  0  2  0  0  0  0  0  0
  188.0520  178.5740  139.5190 O   0  0  0  0  0  0  0  0  0  0  0  0
  188.9950  178.6180  138.5030 C   0  0  0  0  0  3  0  0  0  0  0  0
  188.9500  179.5350  137.6440 O   0  0  0  0  0  0  0  0  0  0  0  0
  188.8150  175.7850  142.9970 O   0  0  0  0  0  0  0  0  0  0  0  0
  191.0620  175.8120  143.4540 O   0  0  0  0  0  0  0  0  0  0  0  0
  190.4820  176.1620  141.2350 N   0  0  0  0  0  1  0  0  0  0  0  0
  190.1460  175.9150  142.5970 C   0  0  0  0  0  0  0  0  0  0  0  0
  183.9590  178.0040  141.4380 C   0  0  0  0  0  2  0  0  0  0  0  0
  184.3940  178.9720  139.9600 S   0  0  0  0  0  0  0  0  0  0  0  0
  182.6820  179.5210  139.6900 C   0  0  0  0  0  2  0  0  0  0  0  0
  181.7240  178.6170  140.4380 C   0  0  1  0  0  3  0  0  0  0  0  0
  180.6350  179.4340  140.9920 N   0  0  0  0  0  0  0  0  0  0  0  0
  180.4210  178.6200  139.7860 C   0  0  0  0  0  2  0  0  0  0  0  0
  180.9010  178.9360  143.3460 C   0  0  0  0  0  1  0  0  0  0  0  0
  180.0760  178.6860  142.1020 C   0  0  0  0  0  2  0  0  0  0  0  0
  1 15  1  6  0  0  0
  1 10  1  0  0  0  0
  1  2  1  0  0  0  0
  2  6  2  0  0  0  0
  2  4  1  0  0  0  0
  4 19  1  6  0  0  0
  4  7  1  0  0  0  0
  5  8  1  0  0  0  0
  8 14  1  0  0  0  0
  8 12  2  0  0  0  0
  9  3  1  0  0  0  0
 10 11  1  0  0  0  0
 11 23  1  6  0  0  0
 11  5  1  0  0  0  0
 12  9  1  0  0  0  0
 13  3  1  0  0  0  0
 14  7  1  6  0  0  0
 14 13  1  0  0  0  0
 16 15  1  0  0  0  0
 17 16  1  0  0  0  0
 18 17  2  0  0  0  0
 21 22  1  0  0  0  0
 22 19  1  0  0  0  0
 22 20  2  0  0  0  0
 24 23  1  0  0  0  0
 25 24  1  0  0  0  0
 26 25  1  6  0  0  0
 26 27  1  0  0  0  0
 27 30  1  0  0  0  0
 28 26  1  0  0  0  0
 28 27  1  0  0  0  0
 30 29  1  0  0  0  0
M  END
>  <MODEL>
5

>  <REMARK>
 VINA RESULT:      -5.1      4.476      8.444
  Name = 
  10 active torsions:
  status: ('A' for Active; 'I' for Inactive)
    1  A    between atoms: C_1  and  C_4
    2  A    between atoms: C_1  and  O_22
    3  A    between atoms: C_2  and  O_22
    4  A    between atoms: C_3  and  S_11
    5  A    between atoms: C_3  and  C_19
    6  A    between atoms: O_6  and  C_8
    7  A    between atoms: O_6  and  C_21
    8  A    between atoms: S_11  and  C_24
    9  A    between atoms: C_20  and  N_28
   10  A    between atoms: C_24  and  C_25
                            x       y       z     vdW  Elec       q    Type
                         _______ _______ _______ _____ _____    ______ ____

>  <TORSDO>
F 10

$$$$
=
 OpenBabel10272413593D

 30 32  0  0  1  0  0  0  0  0999 V2000
  195.4140  174.3540  138.0840 C   0  0  1  0  0  3  0  0  0  0  0  0
  196.0810  173.0730  137.6700 C   0  0  0  0  0  0  0  0  0  0  0  0
  195.0230  169.8050  134.6350 O   0  0  0  0  0  0  0  0  0  0  0  0
  196.9750  173.0380  136.4630 C   0  0  1  0  0  3  0  0  0  0  0  0
  193.0220  173.3300  135.6780 C   0  0  0  0  0  2  0  0  0  0  0  0
  195.8810  172.0440  138.2960 O   0  0  0  0  0  0  0  0  0  0  0  0
  196.2000  173.3330  135.1750 C   0  0  0  0  0  2  0  0  0  0  0  0
  193.9610  172.1600  135.5860 C   0  0  0  0  0  0  0  0  0  0  0  0
  194.4190  169.7720  135.9050 C   0  0  0  0  0  2  0  0  0  0  0  0
  193.9190  174.2970  137.8180 C   0  0  0  0  0  2  0  0  0  0  0  0
  193.6600  174.5440  136.3390 C   0  0  2  0  0  3  0  0  0  0  0  0
  193.5500  170.9850  136.0810 C   0  0  0  0  0  3  0  0  0  0  0  0
  195.9520  170.8610  134.6740 C   0  0  0  0  0  2  0  0  0  0  0  0
  195.2320  172.2210  134.7450 C   0  0  2  0  0  3  0  0  0  0  0  0
  195.6770  174.6700  139.5460 C   0  0  0  0  0  2  0  0  0  0  0  0
  197.0320  175.0460  139.7180 O   0  0  0  0  0  0  0  0  0  0  0  0
  197.4740  175.5160  140.9470 C   0  0  0  0  0  3  0  0  0  0  0  0
  198.5130  175.0340  141.4660 O   0  0  0  0  0  0  0  0  0  0  0  0
  198.0250  173.9870  136.6030 O   0  0  0  0  0  0  0  0  0  0  0  0
  197.5360  176.1680  136.0890 O   0  0  0  0  0  0  0  0  0  0  0  0
  198.9300  175.0710  134.5940 N   0  0  0  0  0  1  0  0  0  0  0  0
  198.1410  175.1090  135.7790 C   0  0  0  0  0  0  0  0  0  0  0  0
  192.7710  175.7590  136.1670 C   0  0  0  0  0  2  0  0  0  0  0  0
  191.9180  176.1260  137.7310 S   0  0  0  0  0  0  0  0  0  0  0  0
  190.2870  175.6740  137.0660 C   0  0  0  0  0  2  0  0  0  0  0  0
  189.2300  176.6170  137.6040 C   0  0  1  0  0  3  0  0  0  0  0  0
  189.8850  177.8490  138.0680 N   0  0  0  0  0  0  0  0  0  0  0  0
  189.1680  177.8200  136.7840 C   0  0  0  0  0  2  0  0  0  0  0  0
  189.0590  177.7040  140.3390 C   0  0  0  0  0  1  0  0  0  0  0  0
  188.9870  178.4600  139.0300 C   0  0  0  0  0  2  0  0  0  0  0  0
  1 15  1  1  0  0  0
  2  1  1  0  0  0  0
  2  6  2  0  0  0  0
  3 13  1  0  0  0  0
  3  9  1  0  0  0  0
  4 19  1  1  0  0  0
  4  2  1  0  0  0  0
  5 11  1  0  0  0  0
  7  4  1  0  0  0  0
  8  5  1  0  0  0  0
  8 12  2  0  0  0  0
  9 12  1  0  0  0  0
 10  1  1  0  0  0  0
 11 23  1  1  0  0  0
 11 10  1  0  0  0  0
 14 13  1  1  0  0  0
 14  7  1  0  0  0  0
 14  8  1  0  0  0  0
 15 16  1  0  0  0  0
 16 17  1  0  0  0  0
 17 18  2  0  0  0  0
 21 22  1  0  0  0  0
 22 20  2  0  0  0  0
 22 19  1  0  0  0  0
 23 24  1  0  0  0  0
 25 24  1  0  0  0  0
 26 25  1  6  0  0  0
 26 27  1  0  0  0  0
 27 30  1  0  0  0  0
 28 26  1  0  0  0  0
 28 27  1  0  0  0  0
 30 29  1  0  0  0  0
M  END
>  <MODEL>
6

>  <REMARK>
 VINA RESULT:      -4.9      4.979      7.785
  Name = 
  10 active torsions:
  status: ('A' for Active; 'I' for Inactive)
    1  A    between atoms: C_1  and  C_4
    2  A    between atoms: C_1  and  O_22
    3  A    between atoms: C_2  and  O_22
    4  A    between atoms: C_3  and  S_11
    5  A    between atoms: C_3  and  C_19
    6  A    between atoms: O_6  and  C_8
    7  A    between atoms: O_6  and  C_21
    8  A    between atoms: S_11  and  C_24
    9  A    between atoms: C_20  and  N_28
   10  A    between atoms: C_24  and  C_25
                            x       y       z     vdW  Elec       q    Type
                         _______ _______ _______ _____ _____    ______ ____

>  <TORSDO>
F 10

$$$$
=
 OpenBabel10272413593D

 30 32  0  0  1  0  0  0  0  0999 V2000
  187.5330  178.2020  141.6980 C   0  0  1  0  0  3  0  0  0  0  0  0
  188.1210  178.1020  143.0770 C   0  0  0  0  0  0  0  0  0  0  0  0
  186.3190  178.2260  147.2900 O   0  0  0  0  0  0  0  0  0  0  0  0
  188.1440  176.7840  143.7980 C   0  0  1  0  0  3  0  0  0  0  0  0
  184.5160  178.5400  143.5250 C   0  0  0  0  0  2  0  0  0  0  0  0
  188.5610  179.0960  143.6330 O   0  0  0  0  0  0  0  0  0  0  0  0
  186.7300  176.2780  144.1020 C   0  0  0  0  0  2  0  0  0  0  0  0
  185.4760  178.4350  144.6780 C   0  0  0  0  0  0  0  0  0  0  0  0
  186.5750  179.4400  146.6260 C   0  0  0  0  0  2  0  0  0  0  0  0
  186.2180  178.9620  141.7240 C   0  0  0  0  0  2  0  0  0  0  0  0
  185.1120  178.0390  142.2170 C   0  0  2  0  0  3  0  0  0  0  0  0
  185.7090  179.5370  145.4020 C   0  0  0  0  0  3  0  0  0  0  0  0
  186.8270  177.2120  146.4560 C   0  0  0  0  0  2  0  0  0  0  0  0
  185.9830  177.0850  145.1730 C   0  0  2  0  0  3  0  0  0  0  0  0
  188.5010  178.8580  140.7280 C   0  0  0  0  0  2  0  0  0  0  0  0
  188.2640  178.3770  139.4160 O   0  0  0  0  0  0  0  0  0  0  0  0
  189.0730  178.7880  138.3670 C   0  0  0  0  0  3  0  0  0  0  0  0
  188.6060  179.5380  137.4710 O   0  0  0  0  0  0  0  0  0  0  0  0
  188.8300  175.8110  143.0190 O   0  0  0  0  0  0  0  0  0  0  0  0
  190.4830  176.1640  141.4680 O   0  0  0  0  0  0  0  0  0  0  0  0
  191.2040  175.8200  143.6460 N   0  0  0  0  0  1  0  0  0  0  0  0
  190.1760  175.9400  142.6670 C   0  0  0  0  0  0  0  0  0  0  0  0
  184.0300  177.9210  141.1620 C   0  0  0  0  0  2  0  0  0  0  0  0
  184.4250  178.9980  139.7510 S   0  0  0  0  0  0  0  0  0  0  0  0
  184.1630  177.6720  138.5340 C   0  0  0  0  0  2  0  0  0  0  0  0
  185.2540  177.7100  137.4840 C   0  0  1  0  0  3  0  0  0  0  0  0
  185.5110  176.3390  137.0170 N   0  0  0  0  0  0  0  0  0  0  0  0
  184.7250  177.2740  136.1980 C   0  0  0  0  0  2  0  0  0  0  0  0
  187.7550  175.4920  137.3450 C   0  0  0  0  0  1  0  0  0  0  0  0
  186.8530  176.3330  136.4670 C   0  0  0  0  0  2  0  0  0  0  0  0
  1 15  1  6  0  0  0
  1 10  1  0  0  0  0
  1  2  1  0  0  0  0
  2  6  2  0  0  0  0
  2  4  1  0  0  0  0
  4 19  1  6  0  0  0
  4  7  1  0  0  0  0
  5  8  1  0  0  0  0
  8 14  1  0  0  0  0
  8 12  2  0  0  0  0
  9  3  1  0  0  0  0
 10 11  1  0  0  0  0
 11 23  1  6  0  0  0
 11  5  1  0  0  0  0
 12  9  1  0  0  0  0
 13  3  1  0  0  0  0
 14  7  1  6  0  0  0
 14 13  1  0  0  0  0
 16 15  1  0  0  0  0
 17 16  1  0  0  0  0
 18 17  2  0  0  0  0
 20 22  2  0  0  0  0
 22 19  1  0  0  0  0
 22 21  1  0  0  0  0
 24 23  1  0  0  0  0
 25 24  1  0  0  0  0
 26 25  1  1  0  0  0
 27 26  1  0  0  0  0
 28 27  1  0  0  0  0
 28 26  1  0  0  0  0
 30 27  1  0  0  0  0
 30 29  1  0  0  0  0
M  END
>  <MODEL>
7

>  <REMARK>
 VINA RESULT:      -4.9      3.716      8.358
  Name = 
  10 active torsions:
  status: ('A' for Active; 'I' for Inactive)
    1  A    between atoms: C_1  and  C_4
    2  A    between atoms: C_1  and  O_22
    3  A    between atoms: C_2  and  O_22
    4  A    between atoms: C_3  and  S_11
    5  A    between atoms: C_3  and  C_19
    6  A    between atoms: O_6  and  C_8
    7  A    between atoms: O_6  and  C_21
    8  A    between atoms: S_11  and  C_24
    9  A    between atoms: C_20  and  N_28
   10  A    between atoms: C_24  and  C_25
                            x       y       z     vdW  Elec       q    Type
                         _______ _______ _______ _____ _____    ______ ____

>  <TORSDO>
F 10

$$$$
=
 OpenBabel10272413593D

 30 32  0  0  1  0  0  0  0  0999 V2000
  185.5860  176.5830  136.6100 C   0  0  1  0  0  3  0  0  0  0  0  0
  184.1370  176.9810  136.6350 C   0  0  0  0  0  0  0  0  0  0  0  0
  180.2130  174.6190  136.4610 O   0  0  0  0  0  0  0  0  0  0  0  0
  183.3680  176.9660  137.9250 C   0  0  1  0  0  3  0  0  0  0  0  0
  184.1950  173.3320  136.3640 C   0  0  0  0  0  2  0  0  0  0  0  0
  183.5670  177.2960  135.6010 O   0  0  0  0  0  0  0  0  0  0  0  0
  183.2370  175.5490  138.4910 C   0  0  0  0  0  2  0  0  0  0  0  0
  182.9210  174.1300  136.3820 C   0  0  0  0  0  0  0  0  0  0  0  0
  180.8840  174.9080  135.2590 C   0  0  0  0  0  2  0  0  0  0  0  0
  185.7670  175.2420  135.9170 C   0  0  0  0  0  2  0  0  0  0  0  0
  185.3900  174.1240  136.8770 C   0  0  2  0  0  3  0  0  0  0  0  0
  182.2170  174.2120  135.2460 C   0  0  0  0  0  3  0  0  0  0  0  0
  180.9300  175.2810  137.4750 C   0  0  0  0  0  2  0  0  0  0  0  0
  182.3090  174.6260  137.6880 C   0  0  2  0  0  3  0  0  0  0  0  0
  186.4420  177.6420  135.9390 C   0  0  0  0  0  2  0  0  0  0  0  0
  187.2590  178.2810  136.9040 O   0  0  0  0  0  0  0  0  0  0  0  0
  187.4750  177.6850  138.1390 C   0  0  0  0  0  3  0  0  0  0  0  0
  187.5640  178.3960  139.1720 O   0  0  0  0  0  0  0  0  0  0  0  0
  184.0090  177.7950  138.8870 O   0  0  0  0  0  0  0  0  0  0  0  0
  184.5460  179.9080  139.6020 O   0  0  0  0  0  0  0  0  0  0  0  0
  182.5140  179.7050  138.5010 N   0  0  0  0  0  1  0  0  0  0  0  0
  183.7230  179.1560  139.0170 C   0  0  0  0  0  0  0  0  0  0  0  0
  186.5760  173.2020  137.0850 C   0  0  0  0  0  2  0  0  0  0  0  0
  187.8210  173.4970  135.7930 S   0  0  0  0  0  0  0  0  0  0  0  0
  189.1980  173.5150  136.9800 C   0  0  0  0  0  2  0  0  0  0  0  0
  189.9760  174.8080  136.8510 C   0  0  1  0  0  3  0  0  0  0  0  0
  190.7110  175.0460  138.1020 N   0  0  0  0  0  0  0  0  0  0  0  0
  191.4070  174.5380  136.9100 C   0  0  0  0  0  2  0  0  0  0  0  0
  190.9380  176.9310  139.6040 C   0  0  0  0  0  1  0  0  0  0  0  0
  190.9780  176.4710  138.1620 C   0  0  0  0  0  2  0  0  0  0  0  0
  1 15  1  6  0  0  0
  1  2  1  0  0  0  0
  2  4  1  0  0  0  0
  3 13  1  0  0  0  0
  4  7  1  0  0  0  0
  4 19  1  1  0  0  0
  5  8  1  0  0  0  0
  5 11  1  0  0  0  0
  6  2  2  0  0  0  0
  8 14  1  0  0  0  0
  9  3  1  0  0  0  0
 10  1  1  0  0  0  0
 10 11  1  0  0  0  0
 11 23  1  6  0  0  0
 12  9  1  0  0  0  0
 12  8  2  0  0  0  0
 14 13  1  6  0  0  0
 14  7  1  0  0  0  0
 15 16  1  0  0  0  0
 16 17  1  0  0  0  0
 17 18  2  0  0  0  0
 19 22  1  0  0  0  0
 21 22  1  0  0  0  0
 22 20  2  0  0  0  0
 24 25  1  0  0  0  0
 24 23  1  0  0  0  0
 26 28  1  0  0  0  0
 26 25  1  1  0  0  0
 26 27  1  0  0  0  0
 27 30  1  0  0  0  0
 28 27  1  0  0  0  0
 30 29  1  0  0  0  0
M  END
>  <MODEL>
8

>  <REMARK>
 VINA RESULT:      -4.7      4.113      7.762
  Name = 
  10 active torsions:
  status: ('A' for Active; 'I' for Inactive)
    1  A    between atoms: C_1  and  C_4
    2  A    between atoms: C_1  and  O_22
    3  A    between atoms: C_2  and  O_22
    4  A    between atoms: C_3  and  S_11
    5  A    between atoms: C_3  and  C_19
    6  A    between atoms: O_6  and  C_8
    7  A    between atoms: O_6  and  C_21
    8  A    between atoms: S_11  and  C_24
    9  A    between atoms: C_20  and  N_28
   10  A    between atoms: C_24  and  C_25
                            x       y       z     vdW  Elec       q    Type
                         _______ _______ _______ _____ _____    ______ ____

>  <TORSDO>
F 10

$$$$
=
 OpenBabel10272413593D

 30 32  0  0  1  0  0  0  0  0999 V2000
  187.4530  177.3590  144.2340 C   0  0  1  0  0  3  0  0  0  0  0  0
  188.8730  176.9210  144.0060 C   0  0  0  0  0  0  0  0  0  0  0  0
  191.7260  177.2080  140.4300 O   0  0  0  0  0  0  0  0  0  0  0  0
  190.0050  177.8890  144.1960 C   0  0  1  0  0  3  0  0  0  0  0  0
  187.7640  178.4790  140.8870 C   0  0  0  0  0  2  0  0  0  0  0  0
  189.1150  175.7810  143.6400 O   0  0  0  0  0  0  0  0  0  0  0  0
  189.9440  179.0400  143.1860 C   0  0  0  0  0  2  0  0  0  0  0  0
  189.1290  177.8730  141.0570 C   0  0  0  0  0  0  0  0  0  0  0  0
  190.7840  176.1630  140.4640 C   0  0  0  0  0  2  0  0  0  0  0  0
  186.6990  177.4540  142.9190 C   0  0  0  0  0  2  0  0  0  0  0  0
  187.0720  178.7500  142.2150 C   0  0  2  0  0  3  0  0  0  0  0  0
  189.3950  176.7340  140.4040 C   0  0  0  0  0  3  0  0  0  0  0  0
  191.6030  177.8820  141.6600 C   0  0  0  0  0  2  0  0  0  0  0  0
  190.2610  178.6340  141.7400 C   0  0  2  0  0  3  0  0  0  0  0  0
  186.7310  176.4260  145.1900 C   0  0  0  0  0  2  0  0  0  0  0  0
  186.4470  177.1060  146.4000 O   0  0  0  0  0  0  0  0  0  0  0  0
  186.0340  178.4310  146.3750 C   0  0  0  0  0  3  0  0  0  0  0  0
  184.8550  178.7260  146.6970 O   0  0  0  0  0  0  0  0  0  0  0  0
  189.9780  178.4240  145.5140 O   0  0  0  0  0  0  0  0  0  0  0  0
  189.4080  177.6090  147.5810 O   0  0  0  0  0  0  0  0  0  0  0  0
  191.4620  176.9130  146.7570 N   0  0  0  0  0  1  0  0  0  0  0  0
  190.2480  177.6520  146.6460 C   0  0  0  0  0  0  0  0  0  0  0  0
  185.8320  179.5940  141.9960 C   0  0  0  0  0  2  0  0  0  0  0  0
  184.4090  178.8280  142.8300 S   0  0  0  0  0  0  0  0  0  0  0  0
  183.5210  178.5370  141.2710 C   0  0  0  0  0  2  0  0  0  0  0  0
  184.3190  179.0930  140.1090 C   0  0  1  0  0  3  0  0  0  0  0  0
  184.2130  178.1650  138.9740 N   0  0  0  0  0  0  0  0  0  0  0  0
  183.4300  179.4090  138.9980 C   0  0  0  0  0  2  0  0  0  0  0  0
  185.6970  177.1600  137.3460 C   0  0  0  0  0  1  0  0  0  0  0  0
  185.3630  178.4140  138.1250 C   0  0  0  0  0  2  0  0  0  0  0  0
  1 15  1  1  0  0  0
  2  4  1  0  0  0  0
  2  1  1  0  0  0  0
  3  9  1  0  0  0  0
  3 13  1  0  0  0  0
  4 19  1  1  0  0  0
  5  8  1  0  0  0  0
  5 11  1  0  0  0  0
  6  2  2  0  0  0  0
  7  4  1  0  0  0  0
  8 14  1  0  0  0  0
 10  1  1  0  0  0  0
 11 23  1  6  0  0  0
 11 10  1  0  0  0  0
 12  9  1  0  0  0  0
 12  8  2  0  0  0  0
 14 13  1  1  0  0  0
 14  7  1  0  0  0  0
 15 16  1  0  0  0  0
 17 16  1  0  0  0  0
 17 18  2  0  0  0  0
 19 22  1  0  0  0  0
 22 21  1  0  0  0  0
 22 20  2  0  0  0  0
 23 24  1  0  0  0  0
 25 24  1  0  0  0  0
 26 25  1  1  0  0  0
 27 28  1  0  0  0  0
 27 26  1  0  0  0  0
 28 26  1  0  0  0  0
 29 30  1  0  0  0  0
 30 27  1  0  0  0  0
M  END
>  <MODEL>
9

>  <REMARK>
 VINA RESULT:      -4.7      4.331      7.891
  Name = 
  10 active torsions:
  status: ('A' for Active; 'I' for Inactive)
    1  A    between atoms: C_1  and  C_4
    2  A    between atoms: C_1  and  O_22
    3  A    between atoms: C_2  and  O_22
    4  A    between atoms: C_3  and  S_11
    5  A    between atoms: C_3  and  C_19
    6  A    between atoms: O_6  and  C_8
    7  A    between atoms: O_6  and  C_21
    8  A    between atoms: S_11  and  C_24
    9  A    between atoms: C_20  and  N_28
   10  A    between atoms: C_24  and  C_25
                            x       y       z     vdW  Elec       q    Type
                         _______ _______ _______ _____ _____    ______ ____

>  <TORSDO>
F 10

$$$$
