=
 OpenBabel10272413413D

 30 35  0  0  1  0  0  0  0  0999 V2000
  187.8270  177.6140  142.2120 C   0  0  0  0  0  0  0  0  0  0  0  0
  188.9880  177.3530  139.7550 C   0  0  0  0  0  0  0  0  0  0  0  0
  191.6330  178.4750  142.9290 N   0  0  0  0  0  2  0  0  0  0  0  0
  187.9540  177.5680  143.6440 C   0  0  0  0  0  0  0  0  0  0  0  0
  186.6020  178.0200  141.6520 C   0  0  0  0  0  3  0  0  0  0  0  0
  184.5680  178.6870  144.3860 N   0  0  0  0  0  0  0  0  0  0  0  0
  186.9900  176.6450  146.5810 C   0  0  0  0  0  2  0  0  0  0  0  0
  185.7080  178.3280  143.8290 N   0  0  0  0  0  0  0  0  0  0  0  0
  184.3290  178.7510  142.1340 N   0  0  0  0  0  0  0  0  0  0  0  0
  190.7550  177.7190  146.0370 O   0  0  0  0  0  0  0  0  0  0  0  0
  190.9080  179.0270  144.0440 C   0  0  0  0  0  0  0  0  0  0  0  0
  185.5630  178.3620  142.5020 C   0  0  0  0  0  0  0  0  0  0  0  0
  186.8530  177.9450  144.4540 C   0  0  0  0  0  0  0  0  0  0  0  0
  190.1580  177.3240  138.9960 C   0  0  0  0  0  3  0  0  0  0  0  0
  189.9280  177.8880  147.1520 C   0  0  0  0  0  2  0  0  0  0  0  0
  187.8370  176.7170  147.8510 C   0  0  0  0  0  2  0  0  0  0  0  0
  182.3350  179.3850  143.5080 C   0  0  0  0  0  1  0  0  0  0  0  0
  187.7110  177.3840  138.9900 C   0  0  0  0  0  1  0  0  0  0  0  0
  191.3870  177.1670  142.3430 C   0  0  2  0  0  3  0  0  0  0  0  0
  191.6230  177.2680  139.5280 C   0  0  0  0  0  2  0  0  0  0  0  0
  183.7450  178.9420  143.3440 C   0  0  0  0  0  0  0  0  0  0  0  0
  188.9650  177.3200  141.2870 C   0  0  0  0  0  0  0  0  0  0  0  0
  189.2140  177.0850  144.3080 C   0  0  0  0  0  2  0  0  0  0  0  0
  191.0860  180.2400  144.3290 O   0  0  0  0  0  0  0  0  0  0  0  0
  190.0140  178.2180  144.9600 C   0  0  1  0  0  3  0  0  0  0  0  0
  189.3150  176.5540  147.5400 C   0  0  0  0  0  2  0  0  0  0  0  0
  186.5130  179.1140  146.6290 C   0  0  0  0  0  1  0  0  0  0  0  0
  191.5030  177.2160  140.9580 N   0  0  0  0  0  0  0  0  0  0  0  0
  190.1910  177.2320  141.6830 C   0  0  0  0  0  0  0  0  0  0  0  0
  186.9330  177.9300  145.8880 N   0  0  0  0  0  0  0  0  0  0  0  0
  1  4  1  0  0  0  0
  2 22  1  0  0  0  0
  3 11  1  0  0  0  0
  4 23  1  0  0  0  0
  4 13  2  0  0  0  0
  5  1  2  0  0  0  0
  5 12  1  0  0  0  0
  7 16  1  0  0  0  0
  8  6  1  0  0  0  0
  8 13  1  0  0  0  0
  9 12  2  0  0  0  0
  9 21  1  0  0  0  0
 10 15  1  0  0  0  0
 11 24  2  0  0  0  0
 11 25  1  0  0  0  0
 12  8  1  0  0  0  0
 13 30  1  0  0  0  0
 14 20  1  0  0  0  0
 14  2  2  0  0  0  0
 15 26  1  0  0  0  0
 18  2  1  0  0  0  0
 19 29  1  6  0  0  0
 19  3  1  0  0  0  0
 20 28  1  0  0  0  0
 21 17  1  0  0  0  0
 21  6  2  0  0  0  0
 22 29  2  0  0  0  0
 22  1  1  0  0  0  0
 25 23  1  6  0  0  0
 25 10  1  0  0  0  0
 26 16  1  0  0  0  0
 28 29  1  0  0  0  0
 28 19  1  0  0  0  0
 30  7  1  0  0  0  0
 30 27  1  0  0  0  0
M  END
>  <MODEL>
1

>  <REMARK>
 VINA RESULT:      -8.6      0.000      0.000
  Name = 
  0 active torsions:
  status: ('A' for Active; 'I' for Inactive)
                            x       y       z     vdW  Elec       q    Type
                         _______ _______ _______ _____ _____    ______ ____

>  <TORSDO>
F 0

$$$$
=
 OpenBabel10272413413D

 30 35  0  0  1  0  0  0  0  0999 V2000
  187.3280  177.7650  142.7030 C   0  0  0  0  0  0  0  0  0  0  0  0
  188.8950  177.3020  144.8910 C   0  0  0  0  0  0  0  0  0  0  0  0
  185.1980  179.3160  145.6690 N   0  0  0  0  0  2  0  0  0  0  0  0
  186.0160  177.9670  142.1510 C   0  0  0  0  0  0  0  0  0  0  0  0
  188.4460  177.8790  141.8580 C   0  0  0  0  0  3  0  0  0  0  0  0
  187.1130  178.6430  138.7430 N   0  0  0  0  0  0  0  0  0  0  0  0
  183.6920  177.3830  139.9910 C   0  0  0  0  0  2  0  0  0  0  0  0
  187.0150  178.3840  140.0320 N   0  0  0  0  0  0  0  0  0  0  0  0
  189.1920  178.3110  139.5790 N   0  0  0  0  0  0  0  0  0  0  0  0
  182.7220  178.9350  143.4950 O   0  0  0  0  0  0  0  0  0  0  0  0
  184.6680  179.9170  144.4730 C   0  0  0  0  0  0  0  0  0  0  0  0
  188.2410  178.1840  140.5210 C   0  0  0  0  0  0  0  0  0  0  0  0
  185.8810  178.2900  140.7760 C   0  0  0  0  0  0  0  0  0  0  0  0
  189.0290  177.3370  146.2790 C   0  0  0  0  0  3  0  0  0  0  0  0
  182.1550  179.1470  142.2340 C   0  0  0  0  0  2  0  0  0  0  0  0
  182.2260  177.7880  140.1410 C   0  0  0  0  0  2  0  0  0  0  0  0
  189.0190  178.8330  137.1380 C   0  0  0  0  0  1  0  0  0  0  0  0
  190.1340  177.0100  144.1190 C   0  0  0  0  0  1  0  0  0  0  0  0
  185.5380  177.9090  145.8120 C   0  0  2  0  0  3  0  0  0  0  0  0
  187.9040  177.5970  147.3260 C   0  0  0  0  0  2  0  0  0  0  0  0
  188.4400  178.5970  138.4870 C   0  0  0  0  0  0  0  0  0  0  0  0
  187.5650  177.5100  144.1580 C   0  0  0  0  0  0  0  0  0  0  0  0
  184.7760  177.7990  142.9840 C   0  0  0  0  0  2  0  0  0  0  0  0
  184.6000  181.1730  144.4170 O   0  0  0  0  0  0  0  0  0  0  0  0
  184.0950  179.1330  143.3110 C   0  0  1  0  0  3  0  0  0  0  0  0
  181.8050  177.8120  141.6010 C   0  0  0  0  0  2  0  0  0  0  0  0
  184.3890  179.7220  139.3850 C   0  0  0  0  0  1  0  0  0  0  0  0
  186.7020  177.7550  146.5570 N   0  0  0  0  0  0  0  0  0  0  0  0
  186.6560  177.6800  145.0610 C   0  0  0  0  0  0  0  0  0  0  0  0
  184.5940  178.5170  140.1790 N   0  0  0  0  0  0  0  0  0  0  0  0
  1 22  1  0  0  0  0
  2 14  2  0  0  0  0
  3 19  1  0  0  0  0
  4  1  1  0  0  0  0
  4 23  1  0  0  0  0
  5  1  2  0  0  0  0
  6  8  1  0  0  0  0
  7 16  1  0  0  0  0
  7 30  1  0  0  0  0
  8 12  1  0  0  0  0
  8 13  1  0  0  0  0
  9 12  2  0  0  0  0
 11  3  1  0  0  0  0
 12  5  1  0  0  0  0
 13  4  2  0  0  0  0
 14 20  1  0  0  0  0
 15 10  1  0  0  0  0
 16 26  1  0  0  0  0
 17 21  1  0  0  0  0
 18  2  1  0  0  0  0
 19 29  1  6  0  0  0
 19 28  1  0  0  0  0
 21  6  2  0  0  0  0
 21  9  1  0  0  0  0
 22  2  1  0  0  0  0
 22 29  2  0  0  0  0
 24 11  2  0  0  0  0
 25 23  1  1  0  0  0
 25 10  1  0  0  0  0
 25 11  1  0  0  0  0
 26 15  1  0  0  0  0
 27 30  1  0  0  0  0
 28 20  1  0  0  0  0
 29 28  1  0  0  0  0
 30 13  1  0  0  0  0
M  END
>  <MODEL>
2

>  <REMARK>
 VINA RESULT:      -8.5      2.794      6.489
  Name = 
  0 active torsions:
  status: ('A' for Active; 'I' for Inactive)
                            x       y       z     vdW  Elec       q    Type
                         _______ _______ _______ _____ _____    ______ ____

>  <TORSDO>
F 0

$$$$
=
 OpenBabel10272413413D

 30 35  0  0  1  0  0  0  0  0999 V2000
  188.6900  177.6390  140.9840 C   0  0  0  0  0  0  0  0  0  0  0  0
  190.7350  177.1490  139.2420 C   0  0  0  0  0  0  0  0  0  0  0  0
  191.9170  178.4570  143.1430 N   0  0  0  0  0  2  0  0  0  0  0  0
  188.2200  177.7060  142.3420 C   0  0  0  0  0  0  0  0  0  0  0  0
  187.8250  178.0290  139.9460 C   0  0  0  0  0  3  0  0  0  0  0  0
  184.8940  178.9680  141.5560 N   0  0  0  0  0  0  0  0  0  0  0  0
  186.0920  177.0500  144.6760 C   0  0  0  0  0  2  0  0  0  0  0  0
  186.1400  178.5360  141.5390 N   0  0  0  0  0  0  0  0  0  0  0  0
  185.5980  178.8550  139.4050 N   0  0  0  0  0  0  0  0  0  0  0  0
  189.8070  177.9790  145.6580 O   0  0  0  0  0  0  0  0  0  0  0  0
  190.8320  179.1160  143.8250 C   0  0  0  0  0  0  0  0  0  0  0  0
  186.5510  178.4660  140.2710 C   0  0  0  0  0  0  0  0  0  0  0  0
  186.9080  178.1760  142.6020 C   0  0  0  0  0  0  0  0  0  0  0  0
  192.1080  177.0280  139.0340 C   0  0  0  0  0  3  0  0  0  0  0  0
  188.6090  178.2600  146.3230 C   0  0  0  0  0  2  0  0  0  0  0  0
  186.3510  177.2040  146.1750 C   0  0  0  0  0  2  0  0  0  0  0  0
  183.2570  179.6500  139.7950 C   0  0  0  0  0  1  0  0  0  0  0  0
  189.8840  177.1500  138.0200 C   0  0  0  0  0  1  0  0  0  0  0  0
  191.8570  177.1120  142.5930 C   0  0  2  0  0  3  0  0  0  0  0  0
  193.2240  176.9780  140.1230 C   0  0  0  0  0  2  0  0  0  0  0  0
  184.5840  179.1590  140.2540 C   0  0  0  0  0  0  0  0  0  0  0  0
  190.0880  177.2410  140.6290 C   0  0  0  0  0  0  0  0  0  0  0  0
  189.0700  177.2460  143.4940 C   0  0  0  0  0  2  0  0  0  0  0  0
  190.9480  180.3440  144.0800 O   0  0  0  0  0  0  0  0  0  0  0  0
  189.5990  178.4070  144.3430 C   0  0  1  0  0  3  0  0  0  0  0  0
  187.8160  176.9780  146.5090 C   0  0  0  0  0  2  0  0  0  0  0  0
  185.7790  179.5260  144.3670 C   0  0  0  0  0  1  0  0  0  0  0  0
  192.5290  177.0460  141.3780 N   0  0  0  0  0  0  0  0  0  0  0  0
  191.0390  177.1540  141.4980 C   0  0  0  0  0  0  0  0  0  0  0  0
  186.3960  178.2760  143.9410 N   0  0  0  0  0  0  0  0  0  0  0  0
  1  4  1  0  0  0  0
  2 22  1  0  0  0  0
  3 11  1  0  0  0  0
  4 13  2  0  0  0  0
  4 23  1  0  0  0  0
  5 12  1  0  0  0  0
  5  1  2  0  0  0  0
  7 16  1  0  0  0  0
  8  6  1  0  0  0  0
  8 13  1  0  0  0  0
  9 21  1  0  0  0  0
  9 12  2  0  0  0  0
 10 15  1  0  0  0  0
 11 24  2  0  0  0  0
 11 25  1  0  0  0  0
 12  8  1  0  0  0  0
 13 30  1  0  0  0  0
 14  2  2  0  0  0  0
 14 20  1  0  0  0  0
 15 26  1  0  0  0  0
 16 26  1  0  0  0  0
 17 21  1  0  0  0  0
 18  2  1  0  0  0  0
 19 29  1  6  0  0  0
 19  3  1  0  0  0  0
 20 28  1  0  0  0  0
 21  6  2  0  0  0  0
 22  1  1  0  0  0  0
 22 29  2  0  0  0  0
 25 23  1  6  0  0  0
 25 10  1  0  0  0  0
 28 29  1  0  0  0  0
 28 19  1  0  0  0  0
 30 27  1  0  0  0  0
 30  7  1  0  0  0  0
M  END
>  <MODEL>
3

>  <REMARK>
 VINA RESULT:      -7.5      1.406      1.951
  Name = 
  0 active torsions:
  status: ('A' for Active; 'I' for Inactive)
                            x       y       z     vdW  Elec       q    Type
                         _______ _______ _______ _____ _____    ______ ____

>  <TORSDO>
F 0

$$$$
=
 OpenBabel10272413413D

 30 35  0  0  1  0  0  0  0  0999 V2000
  186.2160  178.4130  140.1020 C   0  0  0  0  0  0  0  0  0  0  0  0
  188.8450  177.9990  139.4900 C   0  0  0  0  0  0  0  0  0  0  0  0
  186.0280  176.3380  136.7270 N   0  0  0  0  0  2  0  0  0  0  0  0
  184.8560  178.5550  139.6560 C   0  0  0  0  0  0  0  0  0  0  0  0
  186.4810  178.4130  141.4840 C   0  0  0  0  0  3  0  0  0  0  0  0
  183.3650  178.7880  142.9710 N   0  0  0  0  0  0  0  0  0  0  0  0
  181.9980  180.0490  139.5960 C   0  0  0  0  0  2  0  0  0  0  0  0
  184.1620  178.6620  141.9280 N   0  0  0  0  0  0  0  0  0  0  0  0
  185.4980  178.5870  143.7060 N   0  0  0  0  0  0  0  0  0  0  0  0
  182.9900  177.6640  136.6040 O   0  0  0  0  0  0  0  0  0  0  0  0
  184.7270  176.1930  137.3280 C   0  0  0  0  0  0  0  0  0  0  0  0
  185.4190  178.5490  142.3650 C   0  0  0  0  0  0  0  0  0  0  0  0
  183.8170  178.6750  140.6130 C   0  0  0  0  0  0  0  0  0  0  0  0
  189.7860  177.5350  138.5720 C   0  0  0  0  0  3  0  0  0  0  0  0
  181.7370  177.9100  137.1740 C   0  0  0  0  0  2  0  0  0  0  0  0
  180.8990  179.8100  138.5620 C   0  0  0  0  0  2  0  0  0  0  0  0
  183.7160  178.8410  145.4450 C   0  0  0  0  0  1  0  0  0  0  0  0
  189.3620  178.3450  140.8420 C   0  0  0  0  0  1  0  0  0  0  0  0
  186.7770  177.5820  136.6550 C   0  0  2  0  0  3  0  0  0  0  0  0
  189.5310  177.1220  137.0900 C   0  0  0  0  0  2  0  0  0  0  0  0
  184.1920  178.7370  144.0400 C   0  0  0  0  0  0  0  0  0  0  0  0
  187.3590  178.1910  139.1630 C   0  0  0  0  0  0  0  0  0  0  0  0
  184.5110  178.6250  138.1940 C   0  0  0  0  0  2  0  0  0  0  0  0
  184.2750  175.0310  137.4980 O   0  0  0  0  0  0  0  0  0  0  0  0
  183.8230  177.3540  137.6850 C   0  0  1  0  0  3  0  0  0  0  0  0
  181.4820  179.4070  137.2170 C   0  0  0  0  0  2  0  0  0  0  0  0
  181.4500  177.9270  140.8290 C   0  0  0  0  0  1  0  0  0  0  0  0
  188.1310  177.3560  136.8690 N   0  0  0  0  0  0  0  0  0  0  0  0
  187.2000  177.8790  137.9200 C   0  0  0  0  0  0  0  0  0  0  0  0
  182.4420  178.8050  140.2200 N   0  0  0  0  0  0  0  0  0  0  0  0
  1  5  2  0  0  0  0
  2 18  1  0  0  0  0
  3 11  1  0  0  0  0
  4  1  1  0  0  0  0
  4 13  2  0  0  0  0
  5 12  1  0  0  0  0
  6 21  2  0  0  0  0
  7 30  1  0  0  0  0
  8 12  1  0  0  0  0
  8  6  1  0  0  0  0
  9 21  1  0  0  0  0
 10 15  1  0  0  0  0
 10 25  1  0  0  0  0
 11 24  2  0  0  0  0
 11 25  1  0  0  0  0
 12  9  2  0  0  0  0
 13  8  1  0  0  0  0
 14  2  2  0  0  0  0
 15 26  1  0  0  0  0
 16  7  1  0  0  0  0
 19  3  1  1  0  0  0
 19 28  1  0  0  0  0
 19 29  1  0  0  0  0
 20 14  1  0  0  0  0
 21 17  1  0  0  0  0
 22  2  1  0  0  0  0
 22  1  1  0  0  0  0
 23  4  1  0  0  0  0
 25 23  1  6  0  0  0
 26 16  1  0  0  0  0
 28 20  1  0  0  0  0
 28 29  1  0  0  0  0
 29 22  2  0  0  0  0
 30 13  1  0  0  0  0
 30 27  1  0  0  0  0
M  END
>  <MODEL>
4

>  <REMARK>
 VINA RESULT:      -7.2      4.239      7.037
  Name = 
  0 active torsions:
  status: ('A' for Active; 'I' for Inactive)
                            x       y       z     vdW  Elec       q    Type
                         _______ _______ _______ _____ _____    ______ ____

>  <TORSDO>
F 0

$$$$
=
 OpenBabel10272413413D

 30 35  0  0  1  0  0  0  0  0999 V2000
  185.9130  178.6100  142.2940 C   0  0  0  0  0  0  0  0  0  0  0  0
  185.0560  179.0300  144.8530 C   0  0  0  0  0  0  0  0  0  0  0  0
  188.5150  176.5380  144.4560 N   0  0  0  0  0  2  0  0  0  0  0  0
  186.9920  178.3140  141.3910 C   0  0  0  0  0  0  0  0  0  0  0  0
  184.6060  178.7100  141.7820 C   0  0  0  0  0  3  0  0  0  0  0  0
  184.9540  178.1100  138.3790 N   0  0  0  0  0  0  0  0  0  0  0  0
  188.7220  178.8390  138.7190 C   0  0  0  0  0  2  0  0  0  0  0  0
  185.4220  178.2270  139.6060 N   0  0  0  0  0  0  0  0  0  0  0  0
  183.2340  178.5940  139.7720 N   0  0  0  0  0  0  0  0  0  0  0  0
  190.3580  176.8460  141.7160 O   0  0  0  0  0  0  0  0  0  0  0  0
  188.6240  176.0020  143.1240 C   0  0  0  0  0  0  0  0  0  0  0  0
  184.4080  178.5170  140.4240 C   0  0  0  0  0  0  0  0  0  0  0  0
  186.7140  178.1150  140.0150 C   0  0  0  0  0  0  0  0  0  0  0  0
  185.2890  178.8730  146.2190 C   0  0  0  0  0  3  0  0  0  0  0  0
  190.5380  176.6960  140.3370 C   0  0  0  0  0  2  0  0  0  0  0  0
  190.1060  178.2550  138.4350 C   0  0  0  0  0  2  0  0  0  0  0  0
  182.6850  178.2990  137.3480 C   0  0  0  0  0  1  0  0  0  0  0  0
  183.7100  179.5380  144.4710 C   0  0  0  0  0  1  0  0  0  0  0  0
  188.4210  177.9540  144.7770 C   0  0  2  0  0  3  0  0  0  0  0  0
  186.6040  178.3840  146.8990 C   0  0  0  0  0  2  0  0  0  0  0  0
  183.6250  178.3320  138.5000 C   0  0  0  0  0  0  0  0  0  0  0  0
  186.1050  178.7450  143.7720 C   0  0  0  0  0  0  0  0  0  0  0  0
  188.4190  178.2550  141.8610 C   0  0  0  0  0  2  0  0  0  0  0  0
  188.5020  174.7580  142.9710 O   0  0  0  0  0  0  0  0  0  0  0  0
  188.9720  176.8260  141.9030 C   0  0  1  0  0  3  0  0  0  0  0  0
  190.8890  178.0380  139.7190 C   0  0  0  0  0  2  0  0  0  0  0  0
  187.5760  176.6670  138.1780 C   0  0  0  0  0  1  0  0  0  0  0  0
  187.5280  178.1650  145.8200 N   0  0  0  0  0  0  0  0  0  0  0  0
  187.1870  178.3830  144.3780 C   0  0  0  0  0  0  0  0  0  0  0  0
  187.7550  177.8030  139.0740 N   0  0  0  0  0  0  0  0  0  0  0  0
  1 22  1  0  0  0  0
  2 14  2  0  0  0  0
  3 19  1  0  0  0  0
  4 23  1  0  0  0  0
  4  1  1  0  0  0  0
  5  1  2  0  0  0  0
  6 21  2  0  0  0  0
  6  8  1  0  0  0  0
  7 30  1  0  0  0  0
  8 13  1  0  0  0  0
  8 12  1  0  0  0  0
  9 12  2  0  0  0  0
 10 25  1  0  0  0  0
 11  3  1  0  0  0  0
 12  5  1  0  0  0  0
 13  4  2  0  0  0  0
 14 20  1  0  0  0  0
 15 10  1  0  0  0  0
 16  7  1  0  0  0  0
 16 26  1  0  0  0  0
 17 21  1  0  0  0  0
 18  2  1  0  0  0  0
 19 29  1  6  0  0  0
 19 28  1  0  0  0  0
 21  9  1  0  0  0  0
 22 29  2  0  0  0  0
 22  2  1  0  0  0  0
 24 11  2  0  0  0  0
 25 23  1  1  0  0  0
 25 11  1  0  0  0  0
 26 15  1  0  0  0  0
 27 30  1  0  0  0  0
 28 20  1  0  0  0  0
 29 28  1  0  0  0  0
 30 13  1  0  0  0  0
M  END
>  <MODEL>
5

>  <REMARK>
 VINA RESULT:      -6.8      2.439      5.843
  Name = 
  0 active torsions:
  status: ('A' for Active; 'I' for Inactive)
                            x       y       z     vdW  Elec       q    Type
                         _______ _______ _______ _____ _____    ______ ____

>  <TORSDO>
F 0

$$$$
=
 OpenBabel10272413413D

 30 35  0  0  1  0  0  0  0  0999 V2000
  185.4370  178.5760  141.4660 C   0  0  0  0  0  0  0  0  0  0  0  0
  187.5790  178.2590  139.8020 C   0  0  0  0  0  0  0  0  0  0  0  0
  183.8270  176.9000  138.2500 N   0  0  0  0  0  2  0  0  0  0  0  0
  184.0190  178.7560  141.6250 C   0  0  0  0  0  0  0  0  0  0  0  0
  186.2350  178.4200  142.6130 C   0  0  0  0  0  3  0  0  0  0  0  0
  183.9980  178.5920  145.2640 N   0  0  0  0  0  0  0  0  0  0  0  0
  181.4370  180.2200  142.8880 C   0  0  0  0  0  2  0  0  0  0  0  0
  184.3030  178.5940  143.9810 N   0  0  0  0  0  0  0  0  0  0  0  0
  186.2370  178.3270  145.0480 N   0  0  0  0  0  0  0  0  0  0  0  0
  181.0500  178.2030  139.5110 O   0  0  0  0  0  0  0  0  0  0  0  0
  182.8740  176.6760  139.3060 C   0  0  0  0  0  0  0  0  0  0  0  0
  185.6230  178.4430  143.8570 C   0  0  0  0  0  0  0  0  0  0  0  0
  183.4590  178.7550  142.9280 C   0  0  0  0  0  0  0  0  0  0  0  0
  188.0530  177.9130  138.5370 C   0  0  0  0  0  3  0  0  0  0  0  0
  180.1420  178.3710  140.5620 C   0  0  0  0  0  2  0  0  0  0  0  0
  180.0060  180.0910  142.3670 C   0  0  0  0  0  2  0  0  0  0  0  0
  185.3160  178.3630  147.3750 C   0  0  0  0  0  1  0  0  0  0  0  0
  188.6100  178.4530  140.8590 C   0  0  0  0  0  1  0  0  0  0  0  0
  184.5310  178.1520  138.0170 C   0  0  2  0  0  3  0  0  0  0  0  0
  187.2080  177.6710  137.2490 C   0  0  0  0  0  2  0  0  0  0  0  0
  185.1820  178.4260  145.8950 C   0  0  0  0  0  0  0  0  0  0  0  0
  186.0960  178.4740  140.1270 C   0  0  0  0  0  0  0  0  0  0  0  0
  183.1170  178.9900  140.4450 C   0  0  0  0  0  2  0  0  0  0  0  0
  182.4850  175.4970  139.5160 O   0  0  0  0  0  0  0  0  0  0  0  0
  182.2350  177.7790  140.1220 C   0  0  1  0  0  3  0  0  0  0  0  0
  179.9830  179.8500  140.8670 C   0  0  0  0  0  2  0  0  0  0  0  0
  181.3510  177.9650  143.9990 C   0  0  0  0  0  1  0  0  0  0  0  0
  185.8470  177.9160  137.6400 N   0  0  0  0  0  0  0  0  0  0  0  0
  185.4380  178.3050  139.0280 C   0  0  0  0  0  0  0  0  0  0  0  0
  182.0470  178.9160  143.1400 N   0  0  0  0  0  0  0  0  0  0  0  0
  1  4  1  0  0  0  0
  1  5  2  0  0  0  0
  2 22  1  0  0  0  0
  2 18  1  0  0  0  0
  3 11  1  0  0  0  0
  4 13  2  0  0  0  0
  5 12  1  0  0  0  0
  6 21  2  0  0  0  0
  7 30  1  0  0  0  0
  8  6  1  0  0  0  0
  9 21  1  0  0  0  0
 10 25  1  0  0  0  0
 10 15  1  0  0  0  0
 11 24  2  0  0  0  0
 11 25  1  0  0  0  0
 12  8  1  0  0  0  0
 12  9  2  0  0  0  0
 13 30  1  0  0  0  0
 13  8  1  0  0  0  0
 14  2  2  0  0  0  0
 15 26  1  0  0  0  0
 16  7  1  0  0  0  0
 19  3  1  1  0  0  0
 19 29  1  0  0  0  0
 20 28  1  0  0  0  0
 20 14  1  0  0  0  0
 21 17  1  0  0  0  0
 22  1  1  0  0  0  0
 23  4  1  0  0  0  0
 25 23  1  6  0  0  0
 26 16  1  0  0  0  0
 28 19  1  0  0  0  0
 28 29  1  0  0  0  0
 29 22  2  0  0  0  0
 30 27  1  0  0  0  0
M  END
>  <MODEL>
6

>  <REMARK>
 VINA RESULT:      -6.6      3.995      6.754
  Name = 
  0 active torsions:
  status: ('A' for Active; 'I' for Inactive)
                            x       y       z     vdW  Elec       q    Type
                         _______ _______ _______ _____ _____    ______ ____

>  <TORSDO>
F 0

$$$$
=
 OpenBabel10272413413D

 30 35  0  0  1  0  0  0  0  0999 V2000
  190.8580  176.4420  139.1700 C   0  0  0  0  0  0  0  0  0  0  0  0
  190.6010  177.3680  141.7260 C   0  0  0  0  0  0  0  0  0  0  0  0
  187.6070  178.7070  138.9740 N   0  0  0  0  0  2  0  0  0  0  0  0
  190.2390  176.0940  137.9190 C   0  0  0  0  0  0  0  0  0  0  0  0
  192.2600  176.3820  139.2740 C   0  0  0  0  0  3  0  0  0  0  0  0
  193.3260  175.3390  136.1380 N   0  0  0  0  0  0  0  0  0  0  0  0
  189.7420  174.1200  135.4160 C   0  0  0  0  0  2  0  0  0  0  0  0
  192.3990  175.6870  137.0080 N   0  0  0  0  0  0  0  0  0  0  0  0
  194.3300  175.8620  138.1000 N   0  0  0  0  0  0  0  0  0  0  0  0
  187.0350  176.8710  136.2710 O   0  0  0  0  0  0  0  0  0  0  0  0
  188.0500  178.5690  137.6100 C   0  0  0  0  0  0  0  0  0  0  0  0
  192.9930  175.9900  138.1650 C   0  0  0  0  0  0  0  0  0  0  0  0
  191.0520  175.7150  136.8210 C   0  0  0  0  0  0  0  0  0  0  0  0
  189.8340  178.0630  142.6600 C   0  0  0  0  0  3  0  0  0  0  0  0
  187.4300  176.3600  135.0310 C   0  0  0  0  0  2  0  0  0  0  0  0
  188.5940  174.2380  134.4140 C   0  0  0  0  0  2  0  0  0  0  0  0
  195.8170  175.1570  136.2140 C   0  0  0  0  0  1  0  0  0  0  0  0
  191.9850  177.0160  142.1450 C   0  0  0  0  0  1  0  0  0  0  0  0
  187.5590  177.6270  139.9460 C   0  0  2  0  0  3  0  0  0  0  0  0
  188.3570  178.5380  142.4990 C   0  0  0  0  0  2  0  0  0  0  0  0
  194.4900  175.4540  136.8160 C   0  0  0  0  0  0  0  0  0  0  0  0
  190.0820  176.9380  140.3480 C   0  0  0  0  0  0  0  0  0  0  0  0
  188.7440  176.0770  137.7580 C   0  0  0  0  0  2  0  0  0  0  0  0
  188.2270  179.6140  136.9320 O   0  0  0  0  0  0  0  0  0  0  0  0
  188.2260  177.2400  136.9050 C   0  0  1  0  0  3  0  0  0  0  0  0
  187.3570  174.8430  135.0580 C   0  0  0  0  0  2  0  0  0  0  0  0
  191.0140  176.0070  134.3460 C   0  0  0  0  0  1  0  0  0  0  0  0
  187.9520  178.0750  141.2020 N   0  0  0  0  0  0  0  0  0  0  0  0
  188.8480  177.3130  140.2730 C   0  0  0  0  0  0  0  0  0  0  0  0
  190.4840  175.3720  135.5470 N   0  0  0  0  0  0  0  0  0  0  0  0
  1  5  2  0  0  0  0
  1 22  1  0  0  0  0
  2 18  1  0  0  0  0
  2 14  2  0  0  0  0
  4  1  1  0  0  0  0
  6 21  2  0  0  0  0
  6  8  1  0  0  0  0
  7 30  1  0  0  0  0
  8 12  1  0  0  0  0
  9 12  2  0  0  0  0
 10 25  1  0  0  0  0
 11  3  1  0  0  0  0
 12  5  1  0  0  0  0
 13  8  1  0  0  0  0
 13  4  2  0  0  0  0
 15 26  1  0  0  0  0
 15 10  1  0  0  0  0
 16 26  1  0  0  0  0
 16  7  1  0  0  0  0
 17 21  1  0  0  0  0
 19  3  1  6  0  0  0
 19 29  1  0  0  0  0
 19 28  1  0  0  0  0
 20 14  1  0  0  0  0
 21  9  1  0  0  0  0
 22  2  1  0  0  0  0
 23  4  1  0  0  0  0
 24 11  2  0  0  0  0
 25 11  1  0  0  0  0
 25 23  1  1  0  0  0
 27 30  1  0  0  0  0
 28 20  1  0  0  0  0
 29 22  2  0  0  0  0
 29 28  1  0  0  0  0
 30 13  1  0  0  0  0
M  END
>  <MODEL>
7

>  <REMARK>
 VINA RESULT:      -6.5      4.069      9.114
  Name = 
  0 active torsions:
  status: ('A' for Active; 'I' for Inactive)
                            x       y       z     vdW  Elec       q    Type
                         _______ _______ _______ _____ _____    ______ ____

>  <TORSDO>
F 0

$$$$
=
 OpenBabel10272413413D

 30 35  0  0  1  0  0  0  0  0999 V2000
  183.8600  177.8910  139.8770 C   0  0  0  0  0  0  0  0  0  0  0  0
  183.4210  178.7880  142.4180 C   0  0  0  0  0  0  0  0  0  0  0  0
  179.9870  178.7500  139.8610 N   0  0  0  0  0  2  0  0  0  0  0  0
  183.3470  177.2690  138.6860 C   0  0  0  0  0  0  0  0  0  0  0  0
  185.1830  178.3690  139.8780 C   0  0  0  0  0  3  0  0  0  0  0  0
  186.3800  177.6380  136.7010 N   0  0  0  0  0  0  0  0  0  0  0  0
  183.4910  175.1220  136.2830 C   0  0  0  0  0  2  0  0  0  0  0  0
  185.4430  177.6570  137.6280 N   0  0  0  0  0  0  0  0  0  0  0  0
  187.2230  178.6060  138.5670 N   0  0  0  0  0  0  0  0  0  0  0  0
  179.9970  176.6920  137.2600 O   0  0  0  0  0  0  0  0  0  0  0  0
  180.3690  178.7160  138.4730 C   0  0  0  0  0  0  0  0  0  0  0  0
  185.9440  178.2240  138.7290 C   0  0  0  0  0  0  0  0  0  0  0  0
  184.1780  177.1660  137.5410 C   0  0  0  0  0  0  0  0  0  0  0  0
  182.5030  179.1920  143.3880 C   0  0  0  0  0  3  0  0  0  0  0  0
  180.4840  176.3010  136.0090 C   0  0  0  0  0  2  0  0  0  0  0  0
  182.3280  174.7450  135.3650 C   0  0  0  0  0  2  0  0  0  0  0  0
  188.7530  178.4130  136.5960 C   0  0  0  0  0  1  0  0  0  0  0  0
  184.8570  179.0070  142.7430 C   0  0  0  0  0  1  0  0  0  0  0  0
  180.4100  177.7850  140.8640 C   0  0  2  0  0  3  0  0  0  0  0  0
  180.9500  179.0660  143.3240 C   0  0  0  0  0  2  0  0  0  0  0  0
  187.4500  178.2200  137.2870 C   0  0  0  0  0  0  0  0  0  0  0  0
  183.0240  178.1210  141.0960 C   0  0  0  0  0  0  0  0  0  0  0  0
  181.9640  176.6820  138.6370 C   0  0  0  0  0  2  0  0  0  0  0  0
  180.0950  179.7130  137.7550 O   0  0  0  0  0  0  0  0  0  0  0  0
  180.9940  177.5160  137.7940 C   0  0  1  0  0  3  0  0  0  0  0  0
  180.9940  174.8730  136.0830 C   0  0  0  0  0  2  0  0  0  0  0  0
  183.8870  177.2890  135.0690 C   0  0  0  0  0  1  0  0  0  0  0  0
  180.6760  178.4150  142.0740 N   0  0  0  0  0  0  0  0  0  0  0  0
  181.7380  177.9990  141.1030 C   0  0  0  0  0  0  0  0  0  0  0  0
  183.7090  176.5660  136.3230 N   0  0  0  0  0  0  0  0  0  0  0  0
  1  5  2  0  0  0  0
  1 22  1  0  0  0  0
  2 18  1  0  0  0  0
  2 14  2  0  0  0  0
  4  1  1  0  0  0  0
  6 21  2  0  0  0  0
  6  8  1  0  0  0  0
  7 30  1  0  0  0  0
  8 12  1  0  0  0  0
  9 12  2  0  0  0  0
 10 25  1  0  0  0  0
 11  3  1  0  0  0  0
 12  5  1  0  0  0  0
 13  8  1  0  0  0  0
 13  4  2  0  0  0  0
 15 26  1  0  0  0  0
 15 10  1  0  0  0  0
 16 26  1  0  0  0  0
 16  7  1  0  0  0  0
 17 21  1  0  0  0  0
 19  3  1  6  0  0  0
 19 29  1  0  0  0  0
 19 28  1  0  0  0  0
 20 14  1  0  0  0  0
 21  9  1  0  0  0  0
 22 29  2  0  0  0  0
 22  2  1  0  0  0  0
 23  4  1  0  0  0  0
 24 11  2  0  0  0  0
 25 11  1  0  0  0  0
 25 23  1  1  0  0  0
 27 30  1  0  0  0  0
 28 20  1  0  0  0  0
 29 28  1  0  0  0  0
 30 13  1  0  0  0  0
M  END
>  <MODEL>
8

>  <REMARK>
 VINA RESULT:      -6.3      5.685      9.793
  Name = 
  0 active torsions:
  status: ('A' for Active; 'I' for Inactive)
                            x       y       z     vdW  Elec       q    Type
                         _______ _______ _______ _____ _____    ______ ____

>  <TORSDO>
F 0

$$$$
=
 OpenBabel10272413413D

 30 35  0  0  1  0  0  0  0  0999 V2000
  184.5660  178.0870  140.0450 C   0  0  0  0  0  0  0  0  0  0  0  0
  185.0100  178.9660  142.5920 C   0  0  0  0  0  0  0  0  0  0  0  0
  181.0200  179.4960  141.1340 N   0  0  0  0  0  2  0  0  0  0  0  0
  183.6480  177.5790  139.0620 C   0  0  0  0  0  0  0  0  0  0  0  0
  185.8880  178.3700  139.6580 C   0  0  0  0  0  3  0  0  0  0  0  0
  186.0020  177.5630  136.2820 N   0  0  0  0  0  0  0  0  0  0  0  0
  182.7800  175.5020  136.7510 C   0  0  0  0  0  2  0  0  0  0  0  0
  185.3840  177.6910  137.4400 N   0  0  0  0  0  0  0  0  0  0  0  0
  187.4780  178.3470  137.8120 N   0  0  0  0  0  0  0  0  0  0  0  0
  179.9820  177.5310  138.6700 O   0  0  0  0  0  0  0  0  0  0  0  0
  180.9780  179.4460  139.6950 C   0  0  0  0  0  0  0  0  0  0  0  0
  186.2580  178.1480  138.3410 C   0  0  0  0  0  0  0  0  0  0  0  0
  184.0900  177.3900  137.7280 C   0  0  0  0  0  0  0  0  0  0  0  0
  184.4790  179.4710  143.7790 C   0  0  0  0  0  3  0  0  0  0  0  0
  180.0270  177.1100  137.3370 C   0  0  0  0  0  2  0  0  0  0  0  0
  181.3610  175.3230  136.2130 C   0  0  0  0  0  2  0  0  0  0  0  0
  188.3320  177.9910  135.4870 C   0  0  0  0  0  1  0  0  0  0  0  0
  186.4950  178.9660  142.4860 C   0  0  0  0  0  1  0  0  0  0  0  0
  181.5670  178.4520  141.9860 C   0  0  2  0  0  3  0  0  0  0  0  0
  182.9720  179.5720  144.1670 C   0  0  0  0  0  2  0  0  0  0  0  0
  187.2690  177.9680  136.5260 C   0  0  0  0  0  0  0  0  0  0  0  0
  184.1580  178.4010  141.4500 C   0  0  0  0  0  0  0  0  0  0  0  0
  182.2380  177.1990  139.4220 C   0  0  0  0  0  2  0  0  0  0  0  0
  180.6590  180.4920  139.0710 O   0  0  0  0  0  0  0  0  0  0  0  0
  181.2000  178.1870  138.8820 C   0  0  1  0  0  3  0  0  0  0  0  0
  180.3220  175.6210  137.2820 C   0  0  0  0  0  2  0  0  0  0  0  0
  183.1230  177.6230  135.4430 C   0  0  0  0  0  1  0  0  0  0  0  0
  182.2580  179.0020  143.0590 N   0  0  0  0  0  0  0  0  0  0  0  0
  182.9250  178.4650  141.8290 C   0  0  0  0  0  0  0  0  0  0  0  0
  183.2090  176.8980  136.7050 N   0  0  0  0  0  0  0  0  0  0  0  0
  1 22  1  0  0  0  0
  2 14  2  0  0  0  0
  4 23  1  0  0  0  0
  4  1  1  0  0  0  0
  5  1  2  0  0  0  0
  6 21  2  0  0  0  0
  6  8  1  0  0  0  0
  8 13  1  0  0  0  0
  8 12  1  0  0  0  0
  9 12  2  0  0  0  0
 10 25  1  0  0  0  0
 11  3  1  0  0  0  0
 12  5  1  0  0  0  0
 13  4  2  0  0  0  0
 14 20  1  0  0  0  0
 15 10  1  0  0  0  0
 16  7  1  0  0  0  0
 16 26  1  0  0  0  0
 17 21  1  0  0  0  0
 18  2  1  0  0  0  0
 19  3  1  6  0  0  0
 19 28  1  0  0  0  0
 21  9  1  0  0  0  0
 22 29  2  0  0  0  0
 22  2  1  0  0  0  0
 24 11  2  0  0  0  0
 25 23  1  1  0  0  0
 25 11  1  0  0  0  0
 26 15  1  0  0  0  0
 27 30  1  0  0  0  0
 28 20  1  0  0  0  0
 29 19  1  0  0  0  0
 29 28  1  0  0  0  0
 30  7  1  0  0  0  0
 30 13  1  0  0  0  0
M  END
>  <MODEL>
9

>  <REMARK>
 VINA RESULT:      -6.0      5.180      9.219
  Name = 
  0 active torsions:
  status: ('A' for Active; 'I' for Inactive)
                            x       y       z     vdW  Elec       q    Type
                         _______ _______ _______ _____ _____    ______ ____

>  <TORSDO>
F 0

$$$$
