=
 OpenBabel10272415003D

 37 44  0  0  1  0  0  0  0  0999 V2000
  184.7280  175.8540  136.1390 C   0  0  0  0  0  2  0  0  0  0  0  0
  179.9830  175.8920  134.3500 C   0  0  0  0  0  1  0  0  0  0  0  0
  182.9360  176.5120  139.4530 C   0  0  2  0  0  3  0  0  0  0  0  0
  186.6820  174.2110  135.9550 C   0  0  1  0  0  3  0  0  0  0  0  0
  186.2890  178.0170  138.3150 C   0  0  0  0  0  2  0  0  0  0  0  0
  179.9840  177.0240  136.5560 C   0  0  0  0  0  2  0  0  0  0  0  0
  184.0950  176.7810  138.4650 C   0  0  2  0  0  3  0  0  0  0  0  0
  181.9350  175.6380  138.7020 C   0  0  2  0  0  3  0  0  0  0  0  0
  184.7740  178.1640  138.4640 C   0  0  1  0  0  3  0  0  0  0  0  0
  180.6700  178.3230  136.9280 C   0  0  0  0  0  2  0  0  0  0  0  0
  187.7910  174.9160  135.4690 O   0  0  0  0  0  0  0  0  0  0  0  0
  182.5710  175.3490  137.3410 C   0  0  1  0  0  3  0  0  0  0  0  0
  181.5710  175.1200  136.2130 C   0  0  1  0  0  0  0  0  0  0  0  0
  182.1550  179.3930  138.4900 C   0  0  0  0  0  3  0  0  0  0  0  0
  181.5580  178.2430  138.1380 C   0  0  0  0  0  0  0  0  0  0  0  0
  180.9870  173.7640  136.1330 C   0  0  0  0  0  2  0  0  0  0  0  0
  188.2040  175.6860  136.5660 C   0  0  2  0  0  3  0  0  0  0  0  0
  186.6160  177.4600  137.0740 O   0  0  0  0  0  0  0  0  0  0  0  0
  181.5430  177.0710  139.1130 C   0  0  2  0  0  3  0  0  0  0  0  0
  183.6310  176.3830  137.0720 C   0  0  2  0  0  3  0  0  0  0  0  0
  180.8410  176.2930  135.5440 C   0  0  1  0  0  3  0  0  0  0  0  0
  184.4240  179.1450  139.6050 C   0  0  1  0  0  3  0  0  0  0  0  0
  182.0450  174.1710  135.2900 O   0  0  0  0  0  0  0  0  0  0  0  0
  186.9590  176.1210  137.3430 C   0  0  1  0  0  3  0  0  0  0  0  0
  185.8870  175.1440  136.8640 C   0  0  1  0  0  3  0  0  0  0  0  0
  182.9510  179.5420  139.7560 C   0  0  0  0  0  2  0  0  0  0  0  0
  186.4600  178.7110  141.0490 C   0  0  0  0  0  3  0  0  0  0  0  0
  185.0710  178.8460  140.9270 C   0  0  0  0  0  0  0  0  0  0  0  0
  184.2670  178.7090  142.0610 C   0  0  0  0  0  3  0  0  0  0  0  0
  184.0890  178.3050  144.4020 F   0  0  0  0  0  0  0  0  0  0  0  0
  186.2120  178.3120  143.3900 N   0  0  0  0  0  0  0  0  0  0  0  0
  184.8610  178.4390  143.2970 C   0  0  0  0  0  0  0  0  0  0  0  0
  187.0150  178.4410  142.3010 C   0  0  0  0  0  3  0  0  0  0  0  0
  189.1010  176.8310  136.1060 C   0  0  0  0  0  2  0  0  0  0  0  0
  190.1810  177.0990  137.1360 C   0  0  0  0  0  1  0  0  0  0  0  0
  185.3860  172.3700  134.9640 C   0  0  0  0  0  2  0  0  0  0  0  0
  185.8950  173.5920  134.8370 C   0  0  0  0  0  3  0  0  0  0  0  0
  1 25  1  0  0  0  0
  1 20  1  0  0  0  0
  2 21  1  0  0  0  0
  4 25  1  0  0  0  0
  5  9  1  0  0  0  0
  6 10  1  0  0  0  0
  7  3  1  0  0  0  0
  8 19  1  0  0  0  0
  8  3  1  0  0  0  0
  9  7  1  0  0  0  0
  9 22  1  0  0  0  0
 10 15  1  0  0  0  0
 11  4  1  0  0  0  0
 11 17  1  0  0  0  0
 12  8  1  0  0  0  0
 13 12  1  0  0  0  0
 14 26  1  0  0  0  0
 15 14  2  0  0  0  0
 15 19  1  0  0  0  0
 16 13  1  0  0  0  0
 17 24  1  0  0  0  0
 18 24  1  0  0  0  0
 18  5  1  0  0  0  0
 19  3  1  0  0  0  0
 20 12  1  0  0  0  0
 20  7  1  0  0  0  0
 21 13  1  0  0  0  0
 21  6  1  0  0  0  0
 22 26  1  0  0  0  0
 22 28  1  0  0  0  0
 23 16  1  0  0  0  0
 23 13  1  0  0  0  0
 25 24  1  0  0  0  0
 27 33  1  0  0  0  0
 28 27  2  0  0  0  0
 28 29  1  0  0  0  0
 29 32  2  0  0  0  0
 32 31  1  0  0  0  0
 32 30  1  0  0  0  0
 33 31  2  0  0  0  0
 34 17  1  0  0  0  0
 34 35  1  0  0  0  0
 37 36  2  0  0  0  0
 37  4  1  0  0  0  0
M  END
>  <MODEL>
1

>  <REMARK>
 VINA RESULT:      -6.5      0.000      0.000
  Name = 
  3 active torsions:
  status: ('A' for Active; 'I' for Inactive)
    1  A    between atoms: C_5  and  C_23
    2  A    between atoms: C_6  and  C_31
    3  A    between atoms: C_11  and  C_26
                            x       y       z     vdW  Elec       q    Type
                         _______ _______ _______ _____ _____    ______ ____

>  <TORSDO>
F 3

$$$$
=
 OpenBabel10272415003D

 37 44  0  0  1  0  0  0  0  0999 V2000
  188.5230  176.4500  138.5870 C   0  0  0  0  0  2  0  0  0  0  0  0
  184.5880  174.6200  135.9650 C   0  0  0  0  0  1  0  0  0  0  0  0
  190.2570  176.1670  135.1910 C   0  0  2  0  0  3  0  0  0  0  0  0
  188.8500  178.4770  140.1150 C   0  0  1  0  0  3  0  0  0  0  0  0
  191.8130  175.4380  138.6330 C   0  0  0  0  0  2  0  0  0  0  0  0
  186.6570  174.1280  134.6920 C   0  0  0  0  0  2  0  0  0  0  0  0
  190.2570  175.9980  136.7280 C   0  0  2  0  0  3  0  0  0  0  0  0
  188.8200  176.5030  134.8020 C   0  0  2  0  0  3  0  0  0  0  0  0
  191.1440  174.9100  137.3630 C   0  0  1  0  0  3  0  0  0  0  0  0
  187.7950  173.2130  135.0970 C   0  0  0  0  0  2  0  0  0  0  0  0
  189.3600  178.0170  141.3360 O   0  0  0  0  0  0  0  0  0  0  0  0
  188.0460  176.6080  136.1180 C   0  0  1  0  0  3  0  0  0  0  0  0
  186.5660  176.2530  136.0090 C   0  0  1  0  0  0  0  0  0  0  0  0
  190.1790  173.0370  135.3810 C   0  0  0  0  0  3  0  0  0  0  0  0
  189.1600  173.8430  135.0440 C   0  0  0  0  0  0  0  0  0  0  0  0
  185.6810  177.3230  135.5000 C   0  0  0  0  0  2  0  0  0  0  0  0
  190.6940  177.6970  141.0410 C   0  0  2  0  0  3  0  0  0  0  0  0
  190.8580  175.7330  139.6130 O   0  0  0  0  0  0  0  0  0  0  0  0
  189.4440  175.1690  134.3470 C   0  0  2  0  0  3  0  0  0  0  0  0
  188.8130  175.8840  137.1910 C   0  0  2  0  0  3  0  0  0  0  0  0
  186.1010  174.7920  135.9330 C   0  0  1  0  0  3  0  0  0  0  0  0
  192.1700  174.1900  136.4590 C   0  0  1  0  0  3  0  0  0  0  0  0
  185.7860  177.0330  136.8790 O   0  0  0  0  0  0  0  0  0  0  0  0
  190.7510  177.1370  139.6180 C   0  0  1  0  0  3  0  0  0  0  0  0
  189.4390  177.6180  138.9990 C   0  0  1  0  0  3  0  0  0  0  0  0
  191.6190  173.4430  135.2380 C   0  0  0  0  0  2  0  0  0  0  0  0
  193.3520  176.1040  135.2960 C   0  0  0  0  0  3  0  0  0  0  0  0
  193.4030  174.9820  136.1320 C   0  0  0  0  0  0  0  0  0  0  0  0
  194.6250  174.5940  136.6850 C   0  0  0  0  0  3  0  0  0  0  0  0
  196.9670  174.9610  136.9240 F   0  0  0  0  0  0  0  0  0  0  0  0
  195.7030  176.4160  135.5770 N   0  0  0  0  0  0  0  0  0  0  0  0
  195.7770  175.3300  136.3930 C   0  0  0  0  0  0  0  0  0  0  0  0
  194.5240  176.8130  135.0270 C   0  0  0  0  0  3  0  0  0  0  0  0
  191.2690  176.7760  142.1130 C   0  0  0  0  0  2  0  0  0  0  0  0
  190.1510  176.1550  142.9270 C   0  0  0  0  0  1  0  0  0  0  0  0
  186.7030  178.7940  141.2720 C   0  0  0  0  0  2  0  0  0  0  0  0
  187.3510  178.5460  140.1380 C   0  0  0  0  0  3  0  0  0  0  0  0
  1 25  1  0  0  0  0
  3  7  1  0  0  0  0
  4 37  1  0  0  0  0
  4 11  1  0  0  0  0
  5 18  1  0  0  0  0
  6 10  1  0  0  0  0
  6 21  1  0  0  0  0
  7 20  1  0  0  0  0
  7  9  1  0  0  0  0
  8  3  1  0  0  0  0
  8 12  1  0  0  0  0
  9  5  1  0  0  0  0
 12 20  1  0  0  0  0
 13 12  1  0  0  0  0
 13 23  1  0  0  0  0
 15 10  1  0  0  0  0
 15 14  2  0  0  0  0
 16 13  1  0  0  0  0
 16 23  1  0  0  0  0
 17 11  1  0  0  0  0
 17 34  1  0  0  0  0
 18 24  1  0  0  0  0
 19  8  1  0  0  0  0
 19 15  1  0  0  0  0
 19  3  1  0  0  0  0
 20  1  1  0  0  0  0
 21  2  1  0  0  0  0
 21 13  1  0  0  0  0
 22  9  1  0  0  0  0
 24 17  1  0  0  0  0
 25 24  1  0  0  0  0
 25  4  1  0  0  0  0
 26 14  1  0  0  0  0
 26 22  1  0  0  0  0
 27 28  1  0  0  0  0
 28 22  1  0  0  0  0
 28 29  2  0  0  0  0
 31 32  2  0  0  0  0
 32 29  1  0  0  0  0
 32 30  1  0  0  0  0
 33 27  2  0  0  0  0
 33 31  1  0  0  0  0
 34 35  1  0  0  0  0
 37 36  2  0  0  0  0
M  END
>  <MODEL>
2

>  <REMARK>
 VINA RESULT:      -6.3      4.500      8.331
  Name = 
  3 active torsions:
  status: ('A' for Active; 'I' for Inactive)
    1  A    between atoms: C_5  and  C_23
    2  A    between atoms: C_6  and  C_31
    3  A    between atoms: C_11  and  C_26
                            x       y       z     vdW  Elec       q    Type
                         _______ _______ _______ _____ _____    ______ ____

>  <TORSDO>
F 3

$$$$
=
 OpenBabel10272415003D

 37 44  0  0  1  0  0  0  0  0999 V2000
  186.3900  178.4990  142.9270 C   0  0  0  0  0  2  0  0  0  0  0  0
  188.8730  178.9260  147.3280 C   0  0  0  0  0  1  0  0  0  0  0  0
  189.1400  175.9380  142.2160 C   0  0  2  0  0  3  0  0  0  0  0  0
  183.9450  178.0750  142.3020 C   0  0  1  0  0  3  0  0  0  0  0  0
  187.5990  178.4130  139.7050 C   0  0  0  0  0  2  0  0  0  0  0  0
  190.4020  177.8810  145.6800 C   0  0  0  0  0  2  0  0  0  0  0  0
  188.2320  177.1070  141.7690 C   0  0  2  0  0  3  0  0  0  0  0  0
  188.9360  175.7950  143.7210 C   0  0  2  0  0  3  0  0  0  0  0  0
  188.7310  178.0700  140.6740 C   0  0  1  0  0  3  0  0  0  0  0  0
  190.9680  178.5050  144.4200 C   0  0  0  0  0  2  0  0  0  0  0  0
  183.5380  179.1020  141.4390 O   0  0  0  0  0  0  0  0  0  0  0  0
  187.8580  176.8160  144.0950 C   0  0  1  0  0  3  0  0  0  0  0  0
  187.9620  177.3500  145.5200 C   0  0  1  0  0  0  0  0  0  0  0  0
  191.2720  178.2330  142.0480 C   0  0  0  0  0  3  0  0  0  0  0  0
  190.7560  177.7010  143.1680 C   0  0  0  0  0  0  0  0  0  0  0  0
  187.3910  176.4860  146.5760 C   0  0  0  0  0  2  0  0  0  0  0  0
  184.1720  178.7900  140.2280 C   0  0  2  0  0  3  0  0  0  0  0  0
  186.5810  179.1170  140.3580 O   0  0  0  0  0  0  0  0  0  0  0  0
  190.3050  176.2440  143.1740 C   0  0  2  0  0  3  0  0  0  0  0  0
  187.7820  177.8590  143.0120 C   0  0  2  0  0  3  0  0  0  0  0  0
  189.0010  178.4140  145.8990 C   0  0  1  0  0  3  0  0  0  0  0  0
  190.0180  177.6910  139.9060 C   0  0  1  0  0  3  0  0  0  0  0  0
  186.6920  177.6030  146.0670 O   0  0  0  0  0  0  0  0  0  0  0  0
  185.5420  178.1850  140.5440 C   0  0  1  0  0  3  0  0  0  0  0  0
  185.4070  177.7550  142.0040 C   0  0  1  0  0  3  0  0  0  0  0  0
  191.2940  177.5020  140.7360 C   0  0  0  0  0  2  0  0  0  0  0  0
  188.6510  176.4630  138.1630 C   0  0  0  0  0  3  0  0  0  0  0  0
  189.8510  176.6200  138.8670 C   0  0  0  0  0  0  0  0  0  0  0  0
  190.9230  175.7680  138.5920 C   0  0  0  0  0  3  0  0  0  0  0  0
  191.8150  173.9430  137.3460 F   0  0  0  0  0  0  0  0  0  0  0  0
  189.6050  174.6400  136.9500 N   0  0  0  0  0  0  0  0  0  0  0  0
  190.7800  174.7740  137.6200 C   0  0  0  0  0  0  0  0  0  0  0  0
  188.5460  175.4570  137.2010 C   0  0  0  0  0  3  0  0  0  0  0  0
  184.2100  180.0140  139.3180 C   0  0  0  0  0  2  0  0  0  0  0  0
  182.8120  180.3610  138.8460 C   0  0  0  0  0  1  0  0  0  0  0  0
  182.4280  178.7880  144.1020 C   0  0  0  0  0  2  0  0  0  0  0  0
  183.6490  178.4130  143.7340 C   0  0  0  0  0  3  0  0  0  0  0  0
  1 20  1  0  0  0  0
  3 19  1  0  0  0  0
  3  8  1  0  0  0  0
  4 37  1  0  0  0  0
  5 18  1  0  0  0  0
  5  9  1  0  0  0  0
  6 21  1  0  0  0  0
  7  3  1  0  0  0  0
  7 20  1  0  0  0  0
  8 12  1  0  0  0  0
  9  7  1  0  0  0  0
 10  6  1  0  0  0  0
 11  4  1  0  0  0  0
 12 13  1  0  0  0  0
 13 21  1  0  0  0  0
 13 23  1  0  0  0  0
 13 16  1  0  0  0  0
 14 15  2  0  0  0  0
 15 19  1  0  0  0  0
 15 10  1  0  0  0  0
 17 24  1  0  0  0  0
 17 11  1  0  0  0  0
 18 24  1  0  0  0  0
 19  8  1  0  0  0  0
 20 12  1  0  0  0  0
 21  2  1  0  0  0  0
 22  9  1  0  0  0  0
 22 26  1  0  0  0  0
 23 16  1  0  0  0  0
 24 25  1  0  0  0  0
 25  4  1  0  0  0  0
 25  1  1  0  0  0  0
 26 14  1  0  0  0  0
 27 28  1  0  0  0  0
 28 22  1  0  0  0  0
 29 28  2  0  0  0  0
 30 32  1  0  0  0  0
 31 33  1  0  0  0  0
 31 32  2  0  0  0  0
 32 29  1  0  0  0  0
 33 27  2  0  0  0  0
 34 17  1  0  0  0  0
 35 34  1  0  0  0  0
 37 36  2  0  0  0  0
M  END
>  <MODEL>
3

>  <REMARK>
 VINA RESULT:      -6.2      4.367      9.029
  Name = 
  3 active torsions:
  status: ('A' for Active; 'I' for Inactive)
    1  A    between atoms: C_5  and  C_23
    2  A    between atoms: C_6  and  C_31
    3  A    between atoms: C_11  and  C_26
                            x       y       z     vdW  Elec       q    Type
                         _______ _______ _______ _____ _____    ______ ____

>  <TORSDO>
F 3

$$$$
=
 OpenBabel10272415003D

 37 44  0  0  1  0  0  0  0  0999 V2000
  186.7950  173.9730  136.7970 C   0  0  0  0  0  2  0  0  0  0  0  0
  191.2580  175.8210  138.3380 C   0  0  0  0  0  1  0  0  0  0  0  0
  186.1050  177.6610  136.0590 C   0  0  2  0  0  3  0  0  0  0  0  0
  186.1060  172.1120  135.1800 C   0  0  1  0  0  3  0  0  0  0  0  0
  183.6010  175.0850  137.4360 C   0  0  0  0  0  2  0  0  0  0  0  0
  189.6290  177.6880  138.2840 C   0  0  0  0  0  2  0  0  0  0  0  0
  185.6560  176.2820  136.5960 C   0  0  2  0  0  3  0  0  0  0  0  0
  187.6030  177.5440  135.7920 C   0  0  2  0  0  3  0  0  0  0  0  0
  184.5890  176.2200  137.7060 C   0  0  1  0  0  3  0  0  0  0  0  0
  188.3930  177.8620  139.1440 C   0  0  0  0  0  2  0  0  0  0  0  0
  185.2510  171.2400  135.8670 O   0  0  0  0  0  0  0  0  0  0  0  0
  187.9680  176.0890  136.0930 C   0  0  1  0  0  3  0  0  0  0  0  0
  189.4040  175.8840  136.5650 C   0  0  1  0  0  0  0  0  0  0  0  0
  186.0240  178.2890  139.1310 C   0  0  0  0  0  3  0  0  0  0  0  0
  187.1230  178.1130  138.3800 C   0  0  0  0  0  0  0  0  0  0  0  0
  190.4320  175.8340  135.5040 C   0  0  0  0  0  2  0  0  0  0  0  0
  184.0500  171.9570  135.9620 C   0  0  2  0  0  3  0  0  0  0  0  0
  184.2410  173.8420  137.4900 O   0  0  0  0  0  0  0  0  0  0  0  0
  187.0940  178.4860  136.9010 C   0  0  2  0  0  3  0  0  0  0  0  0
  186.9010  175.4930  136.9720 C   0  0  2  0  0  3  0  0  0  0  0  0
  189.8240  176.2130  138.0040 C   0  0  1  0  0  3  0  0  0  0  0  0
  183.8460  177.5240  138.0710 C   0  0  1  0  0  3  0  0  0  0  0  0
  189.9250  174.6610  136.1080 O   0  0  0  0  0  0  0  0  0  0  0  0
  184.3870  173.4380  136.1500 C   0  0  1  0  0  3  0  0  0  0  0  0
  185.8370  173.5310  135.6740 C   0  0  1  0  0  3  0  0  0  0  0  0
  184.7010  178.7030  138.5520 C   0  0  0  0  0  2  0  0  0  0  0  0
  182.6880  177.3780  135.8240 C   0  0  0  0  0  3  0  0  0  0  0  0
  182.7850  177.9510  137.0980 C   0  0  0  0  0  0  0  0  0  0  0  0
  181.8700  178.9360  137.4780 C   0  0  0  0  0  3  0  0  0  0  0  0
  179.9830  180.2880  136.9410 F   0  0  0  0  0  0  0  0  0  0  0  0
  180.8010  178.7630  135.3490 N   0  0  0  0  0  0  0  0  0  0  0  0
  180.8750  179.3340  136.5810 C   0  0  0  0  0  0  0  0  0  0  0  0
  181.6800  177.8030  134.9560 C   0  0  0  0  0  3  0  0  0  0  0  0
  183.1610  171.3640  137.0500 C   0  0  0  0  0  2  0  0  0  0  0  0
  181.7010  171.6390  136.7450 C   0  0  0  0  0  1  0  0  0  0  0  0
  187.8360  170.3830  135.4430 C   0  0  0  0  0  2  0  0  0  0  0  0
  187.5360  171.6680  135.2780 C   0  0  0  0  0  3  0  0  0  0  0  0
  1 20  1  0  0  0  0
  3  7  1  0  0  0  0
  3 19  1  0  0  0  0
  4 37  1  0  0  0  0
  4 25  1  0  0  0  0
  4 11  1  0  0  0  0
  5 18  1  0  0  0  0
  5  9  1  0  0  0  0
  6 10  1  0  0  0  0
  7 20  1  0  0  0  0
  7  9  1  0  0  0  0
  8  3  1  0  0  0  0
  8 12  1  0  0  0  0
  8 19  1  0  0  0  0
  9 22  1  0  0  0  0
 11 17  1  0  0  0  0
 12 13  1  0  0  0  0
 12 20  1  0  0  0  0
 13 21  1  0  0  0  0
 15 14  2  0  0  0  0
 15 10  1  0  0  0  0
 16 23  1  0  0  0  0
 16 13  1  0  0  0  0
 17 24  1  0  0  0  0
 17 34  1  0  0  0  0
 19 15  1  0  0  0  0
 21  6  1  0  0  0  0
 21  2  1  0  0  0  0
 22 26  1  0  0  0  0
 23 13  1  0  0  0  0
 24 18  1  0  0  0  0
 25 24  1  0  0  0  0
 25  1  1  0  0  0  0
 26 14  1  0  0  0  0
 27 28  1  0  0  0  0
 28 29  2  0  0  0  0
 28 22  1  0  0  0  0
 31 32  2  0  0  0  0
 32 30  1  0  0  0  0
 32 29  1  0  0  0  0
 33 31  1  0  0  0  0
 33 27  2  0  0  0  0
 35 34  1  0  0  0  0
 37 36  2  0  0  0  0
M  END
>  <MODEL>
4

>  <REMARK>
 VINA RESULT:      -6.0      2.937      6.445
  Name = 
  3 active torsions:
  status: ('A' for Active; 'I' for Inactive)
    1  A    between atoms: C_5  and  C_23
    2  A    between atoms: C_6  and  C_31
    3  A    between atoms: C_11  and  C_26
                            x       y       z     vdW  Elec       q    Type
                         _______ _______ _______ _____ _____    ______ ____

>  <TORSDO>
F 3

$$$$
=
 OpenBabel10272415003D

 37 44  0  0  1  0  0  0  0  0999 V2000
  184.5330  178.3560  139.0410 C   0  0  0  0  0  2  0  0  0  0  0  0
  189.0290  179.6580  137.0920 C   0  0  0  0  0  1  0  0  0  0  0  0
  185.1660  175.1630  137.0360 C   0  0  2  0  0  3  0  0  0  0  0  0
  183.5740  178.3020  141.4140 C   0  0  1  0  0  3  0  0  0  0  0  0
  181.7890  176.9410  137.5200 C   0  0  0  0  0  2  0  0  0  0  0  0
  188.1000  177.8140  135.7210 C   0  0  0  0  0  2  0  0  0  0  0  0
  184.2250  176.2880  137.5260 C   0  0  2  0  0  3  0  0  0  0  0  0
  186.5740  175.5770  137.4530 C   0  0  2  0  0  3  0  0  0  0  0  0
  183.0240  176.6960  136.6520 C   0  0  1  0  0  3  0  0  0  0  0  0
  186.8560  177.8430  134.8550 C   0  0  0  0  0  2  0  0  0  0  0  0
  182.3870  179.0470  141.4150 O   0  0  0  0  0  0  0  0  0  0  0  0
  186.4090  176.8750  138.2460 C   0  0  1  0  0  3  0  0  0  0  0  0
  187.6090  177.8150  138.1740 C   0  0  1  0  0  0  0  0  0  0  0  0
  184.7770  176.7390  134.3510 C   0  0  0  0  0  3  0  0  0  0  0  0
  185.8740  176.7370  135.1260 C   0  0  0  0  0  0  0  0  0  0  0  0
  188.7310  177.5000  139.0850 C   0  0  0  0  0  2  0  0  0  0  0  0
  181.4730  178.2190  140.7480 C   0  0  2  0  0  3  0  0  0  0  0  0
  181.9890  178.0280  138.3770 O   0  0  0  0  0  0  0  0  0  0  0  0
  186.2100  175.5030  135.9570 C   0  0  2  0  0  3  0  0  0  0  0  0
  185.0800  177.4890  137.9000 C   0  0  2  0  0  3  0  0  0  0  0  0
  187.8670  178.6860  136.9370 C   0  0  1  0  0  3  0  0  0  0  0  0
  182.6770  175.8080  135.4360 C   0  0  1  0  0  3  0  0  0  0  0  0
  187.7900  178.5100  139.3820 O   0  0  0  0  0  0  0  0  0  0  0  0
  182.2210  177.4650  139.6460 C   0  0  1  0  0  3  0  0  0  0  0  0
  183.6850  177.5860  140.0710 C   0  0  1  0  0  3  0  0  0  0  0  0
  183.7660  175.6280  134.3710 C   0  0  0  0  0  2  0  0  0  0  0  0
  180.5840  174.4310  135.8070 C   0  0  0  0  0  3  0  0  0  0  0  0
  181.9810  174.5190  135.7620 C   0  0  0  0  0  0  0  0  0  0  0  0
  182.7470  173.3790  136.0170 C   0  0  0  0  0  3  0  0  0  0  0  0
  182.8430  171.0620  136.5630 F   0  0  0  0  0  0  0  0  0  0  0  0
  180.7500  172.1120  136.3520 N   0  0  0  0  0  0  0  0  0  0  0  0
  182.1080  172.1720  136.3140 C   0  0  0  0  0  0  0  0  0  0  0  0
  179.9830  173.2080  136.1080 C   0  0  0  0  0  3  0  0  0  0  0  0
  180.2750  179.0300  140.2650 C   0  0  0  0  0  2  0  0  0  0  0  0
  179.9830  180.1620  141.2300 C   0  0  0  0  0  1  0  0  0  0  0  0
  185.8180  178.6180  142.3700 C   0  0  0  0  0  2  0  0  0  0  0  0
  184.7550  179.1530  141.7780 C   0  0  0  0  0  3  0  0  0  0  0  0
  1 25  1  0  0  0  0
  3  8  1  0  0  0  0
  3  7  1  0  0  0  0
  4 11  1  0  0  0  0
  4 37  1  0  0  0  0
  5 18  1  0  0  0  0
  6 21  1  0  0  0  0
  7 20  1  0  0  0  0
  8 12  1  0  0  0  0
  9  5  1  0  0  0  0
  9  7  1  0  0  0  0
 10 15  1  0  0  0  0
 10  6  1  0  0  0  0
 13 12  1  0  0  0  0
 13 16  1  0  0  0  0
 13 23  1  0  0  0  0
 14 26  1  0  0  0  0
 14 15  2  0  0  0  0
 15 19  1  0  0  0  0
 16 23  1  0  0  0  0
 17 11  1  0  0  0  0
 18 24  1  0  0  0  0
 19  3  1  0  0  0  0
 19  8  1  0  0  0  0
 20 12  1  0  0  0  0
 20  1  1  0  0  0  0
 21  2  1  0  0  0  0
 21 13  1  0  0  0  0
 22 28  1  0  0  0  0
 22  9  1  0  0  0  0
 24 25  1  0  0  0  0
 24 17  1  0  0  0  0
 25  4  1  0  0  0  0
 26 22  1  0  0  0  0
 27 33  1  0  0  0  0
 28 27  2  0  0  0  0
 28 29  1  0  0  0  0
 29 32  2  0  0  0  0
 32 31  1  0  0  0  0
 32 30  1  0  0  0  0
 33 31  2  0  0  0  0
 34 17  1  0  0  0  0
 34 35  1  0  0  0  0
 37 36  2  0  0  0  0
M  END
>  <MODEL>
5

>  <REMARK>
 VINA RESULT:      -6.0      3.262      7.493
  Name = 
  3 active torsions:
  status: ('A' for Active; 'I' for Inactive)
    1  A    between atoms: C_5  and  C_23
    2  A    between atoms: C_6  and  C_31
    3  A    between atoms: C_11  and  C_26
                            x       y       z     vdW  Elec       q    Type
                         _______ _______ _______ _____ _____    ______ ____

>  <TORSDO>
F 3

$$$$
=
 OpenBabel10272415003D

 37 44  0  0  1  0  0  0  0  0999 V2000
  190.7530  177.1050  138.9640 C   0  0  0  0  0  2  0  0  0  0  0  0
  194.8760  176.9060  136.0180 C   0  0  0  0  0  1  0  0  0  0  0  0
  189.7380  174.0740  136.8660 C   0  0  2  0  0  3  0  0  0  0  0  0
  190.3810  177.1920  141.4940 C   0  0  1  0  0  3  0  0  0  0  0  0
  187.4220  176.8760  138.1250 C   0  0  0  0  0  2  0  0  0  0  0  0
  193.0690  175.6280  134.9010 C   0  0  0  0  0  2  0  0  0  0  0  0
  189.3980  175.4120  137.5620 C   0  0  2  0  0  3  0  0  0  0  0  0
  191.2550  173.9310  136.9430 C   0  0  2  0  0  3  0  0  0  0  0  0
  188.2650  176.2880  136.9930 C   0  0  1  0  0  3  0  0  0  0  0  0
  191.7630  176.1640  134.3510 C   0  0  0  0  0  2  0  0  0  0  0  0
  189.5740  178.3030  141.7730 O   0  0  0  0  0  0  0  0  0  0  0  0
  191.7470  175.1330  137.7520 C   0  0  1  0  0  3  0  0  0  0  0  0
  193.1590  175.5940  137.4020 C   0  0  1  0  0  0  0  0  0  0  0  0
  189.3700  175.9060  134.3460 C   0  0  0  0  0  3  0  0  0  0  0  0
  190.5320  175.4540  134.8430 C   0  0  0  0  0  0  0  0  0  0  0  0
  194.2610  174.8300  138.0250 C   0  0  0  0  0  2  0  0  0  0  0  0
  188.3010  177.9070  141.3380 C   0  0  2  0  0  3  0  0  0  0  0  0
  188.1830  177.7480  138.9120 O   0  0  0  0  0  0  0  0  0  0  0  0
  190.5730  174.1160  135.5730 C   0  0  2  0  0  3  0  0  0  0  0  0
  190.6880  176.2010  137.7260 C   0  0  2  0  0  3  0  0  0  0  0  0
  193.4370  176.4200  136.1390 C   0  0  1  0  0  3  0  0  0  0  0  0
  187.3650  175.6840  135.8910 C   0  0  1  0  0  3  0  0  0  0  0  0
  193.8370  176.0770  138.5340 O   0  0  0  0  0  0  0  0  0  0  0  0
  188.4680  177.0350  140.0920 C   0  0  1  0  0  3  0  0  0  0  0  0
  189.9300  176.5980  140.1630 C   0  0  1  0  0  3  0  0  0  0  0  0
  188.0560  175.2230  134.6020 C   0  0  0  0  0  2  0  0  0  0  0  0
  186.5490  173.3170  136.2720 C   0  0  0  0  0  3  0  0  0  0  0  0
  186.3400  174.6980  136.3710 C   0  0  0  0  0  0  0  0  0  0  0  0
  185.1540  175.1730  136.9380 C   0  0  0  0  0  3  0  0  0  0  0  0
  183.0450  174.7130  137.9460 F   0  0  0  0  0  0  0  0  0  0  0  0
  184.4230  172.9260  137.2870 N   0  0  0  0  0  0  0  0  0  0  0  0
  184.1980  174.2620  137.3950 C   0  0  0  0  0  0  0  0  0  0  0  0
  185.5690  172.4390  136.7400 C   0  0  0  0  0  3  0  0  0  0  0  0
  187.4020  179.1250  141.1480 C   0  0  0  0  0  2  0  0  0  0  0  0
  185.9740  178.7880  141.5300 C   0  0  0  0  0  1  0  0  0  0  0  0
  192.3570  178.0380  142.6910 C   0  0  0  0  0  2  0  0  0  0  0  0
  191.8390  177.5400  141.5720 C   0  0  0  0  0  3  0  0  0  0  0  0
  1 25  1  0  0  0  0
  2 21  1  0  0  0  0
  3  8  1  0  0  0  0
  3  7  1  0  0  0  0
  4 37  1  0  0  0  0
  4 11  1  0  0  0  0
  5 18  1  0  0  0  0
  6 21  1  0  0  0  0
  7 20  1  0  0  0  0
  8 12  1  0  0  0  0
  9  7  1  0  0  0  0
  9  5  1  0  0  0  0
 10 15  1  0  0  0  0
 10  6  1  0  0  0  0
 13 12  1  0  0  0  0
 13 16  1  0  0  0  0
 13 23  1  0  0  0  0
 14 26  1  0  0  0  0
 14 15  2  0  0  0  0
 15 19  1  0  0  0  0
 16 23  1  0  0  0  0
 17 11  1  0  0  0  0
 18 24  1  0  0  0  0
 19  3  1  0  0  0  0
 19  8  1  0  0  0  0
 20 12  1  0  0  0  0
 20  1  1  0  0  0  0
 21 13  1  0  0  0  0
 22 28  1  0  0  0  0
 22  9  1  0  0  0  0
 24 25  1  0  0  0  0
 24 17  1  0  0  0  0
 25  4  1  0  0  0  0
 26 22  1  0  0  0  0
 27 28  2  0  0  0  0
 27 33  1  0  0  0  0
 28 29  1  0  0  0  0
 29 32  2  0  0  0  0
 31 32  1  0  0  0  0
 32 30  1  0  0  0  0
 33 31  2  0  0  0  0
 34 17  1  0  0  0  0
 34 35  1  0  0  0  0
 37 36  2  0  0  0  0
M  END
>  <MODEL>
6

>  <REMARK>
 VINA RESULT:      -6.0      3.651      8.710
  Name = 
  3 active torsions:
  status: ('A' for Active; 'I' for Inactive)
    1  A    between atoms: C_5  and  C_23
    2  A    between atoms: C_6  and  C_31
    3  A    between atoms: C_11  and  C_26
                            x       y       z     vdW  Elec       q    Type
                         _______ _______ _______ _____ _____    ______ ____

>  <TORSDO>
F 3

$$$$
=
 OpenBabel10272415003D

 37 44  0  0  1  0  0  0  0  0999 V2000
  190.7700  177.0540  139.0110 C   0  0  0  0  0  2  0  0  0  0  0  0
  194.8940  176.8110  136.0700 C   0  0  0  0  0  1  0  0  0  0  0  0
  189.6510  174.1430  136.7980 C   0  0  2  0  0  3  0  0  0  0  0  0
  190.3930  177.0590  141.5420 C   0  0  1  0  0  3  0  0  0  0  0  0
  187.4370  176.9810  138.1560 C   0  0  0  0  0  2  0  0  0  0  0  0
  193.0450  175.6440  134.9010 C   0  0  0  0  0  2  0  0  0  0  0  0
  189.3580  175.4660  137.5440 C   0  0  2  0  0  3  0  0  0  0  0  0
  191.1620  173.9400  136.8730 C   0  0  2  0  0  3  0  0  0  0  0  0
  188.2610  176.4040  137.0050 C   0  0  1  0  0  3  0  0  0  0  0  0
  191.7620  176.2490  134.3680 C   0  0  0  0  0  2  0  0  0  0  0  0
  189.6270  178.1880  141.8600 O   0  0  0  0  0  0  0  0  0  0  0  0
  191.6950  175.0920  137.7280 C   0  0  1  0  0  3  0  0  0  0  0  0
  193.1240  175.5130  137.3990 C   0  0  1  0  0  0  0  0  0  0  0  0
  189.3600  176.0810  134.3480 C   0  0  0  0  0  3  0  0  0  0  0  0
  190.5040  175.5670  134.8310 C   0  0  0  0  0  0  0  0  0  0  0  0
  194.1940  174.6850  137.9950 C   0  0  0  0  0  2  0  0  0  0  0  0
  188.3410  177.8570  141.4080 C   0  0  2  0  0  3  0  0  0  0  0  0
  188.2260  177.7930  138.9770 O   0  0  0  0  0  0  0  0  0  0  0  0
  190.4910  174.2020  135.5100 C   0  0  2  0  0  3  0  0  0  0  0  0
  190.6760  176.1990  137.7400 C   0  0  2  0  0  3  0  0  0  0  0  0
  193.4370  176.3750  136.1680 C   0  0  1  0  0  3  0  0  0  0  0  0
  187.3430  175.8760  135.8790 C   0  0  1  0  0  3  0  0  0  0  0  0
  193.8150  175.9280  138.5500 O   0  0  0  0  0  0  0  0  0  0  0  0
  188.4800  177.0260  140.1300 C   0  0  1  0  0  3  0  0  0  0  0  0
  189.9250  176.5320  140.1880 C   0  0  1  0  0  3  0  0  0  0  0  0
  188.0210  175.4380  134.5750 C   0  0  0  0  0  2  0  0  0  0  0  0
  185.1200  175.3480  136.9710 C   0  0  0  0  0  3  0  0  0  0  0  0
  186.2800  174.9120  136.3200 C   0  0  0  0  0  0  0  0  0  0  0  0
  186.4510  173.5490  136.0630 C   0  0  0  0  0  3  0  0  0  0  0  0
  185.6200  171.3220  136.2170 F   0  0  0  0  0  0  0  0  0  0  0  0
  184.3450  173.0920  137.0940 N   0  0  0  0  0  0  0  0  0  0  0  0
  185.4630  172.6450  136.4620 C   0  0  0  0  0  0  0  0  0  0  0  0
  184.1560  174.4140  137.3550 C   0  0  0  0  0  3  0  0  0  0  0  0
  187.4890  179.1130  141.2620 C   0  0  0  0  0  2  0  0  0  0  0  0
  186.0290  178.7910  141.5140 C   0  0  0  0  0  1  0  0  0  0  0  0
  192.3550  178.0140  142.6770 C   0  0  0  0  0  2  0  0  0  0  0  0
  191.8620  177.3490  141.6360 C   0  0  0  0  0  3  0  0  0  0  0  0
  1 25  1  0  0  0  0
  2 21  1  0  0  0  0
  3  8  1  0  0  0  0
  3  7  1  0  0  0  0
  4 37  1  0  0  0  0
  4 11  1  0  0  0  0
  5 18  1  0  0  0  0
  6 21  1  0  0  0  0
  7 20  1  0  0  0  0
  8 12  1  0  0  0  0
  9  7  1  0  0  0  0
  9  5  1  0  0  0  0
 10 15  1  0  0  0  0
 10  6  1  0  0  0  0
 12 20  1  0  0  0  0
 13 12  1  0  0  0  0
 13 16  1  0  0  0  0
 13 23  1  0  0  0  0
 14 26  1  0  0  0  0
 14 15  2  0  0  0  0
 15 19  1  0  0  0  0
 16 23  1  0  0  0  0
 17 11  1  0  0  0  0
 18 24  1  0  0  0  0
 19  3  1  0  0  0  0
 19  8  1  0  0  0  0
 20  1  1  0  0  0  0
 21 13  1  0  0  0  0
 22 28  1  0  0  0  0
 22  9  1  0  0  0  0
 24 25  1  0  0  0  0
 24 17  1  0  0  0  0
 25  4  1  0  0  0  0
 26 22  1  0  0  0  0
 27 33  1  0  0  0  0
 28 27  2  0  0  0  0
 29 28  1  0  0  0  0
 29 32  2  0  0  0  0
 30 32  1  0  0  0  0
 31 33  2  0  0  0  0
 32 31  1  0  0  0  0
 34 17  1  0  0  0  0
 34 35  1  0  0  0  0
 37 36  2  0  0  0  0
M  END
>  <MODEL>
7

>  <REMARK>
 VINA RESULT:      -5.9      3.847      8.802
  Name = 
  3 active torsions:
  status: ('A' for Active; 'I' for Inactive)
    1  A    between atoms: C_5  and  C_23
    2  A    between atoms: C_6  and  C_31
    3  A    between atoms: C_11  and  C_26
                            x       y       z     vdW  Elec       q    Type
                         _______ _______ _______ _____ _____    ______ ____

>  <TORSDO>
F 3

$$$$
=
 OpenBabel10272415003D

 37 44  0  0  1  0  0  0  0  0999 V2000
  184.0700  172.9140  135.3540 C   0  0  0  0  0  2  0  0  0  0  0  0
  180.1380  175.9650  134.3840 C   0  0  0  0  0  1  0  0  0  0  0  0
  185.2730  175.9490  137.3450 C   0  0  2  0  0  3  0  0  0  0  0  0
  184.2870  170.5270  136.2520 C   0  0  1  0  0  3  0  0  0  0  0  0
  187.4500  173.5620  135.2550 C   0  0  0  0  0  2  0  0  0  0  0  0
  182.0350  177.3700  135.1400 C   0  0  0  0  0  2  0  0  0  0  0  0
  185.5430  174.7700  136.3810 C   0  0  2  0  0  3  0  0  0  0  0  0
  183.7570  176.0300  137.5010 C   0  0  2  0  0  3  0  0  0  0  0  0
  186.6890  174.8850  135.3580 C   0  0  1  0  0  3  0  0  0  0  0  0
  183.3610  177.5880  134.4380 C   0  0  0  0  0  2  0  0  0  0  0  0
  185.0520  169.7920  135.3380 O   0  0  0  0  0  0  0  0  0  0  0  0
  183.1920  174.8530  136.7020 C   0  0  1  0  0  3  0  0  0  0  0  0
  181.7950  175.0880  136.1360 C   0  0  1  0  0  0  0  0  0  0  0  0
  185.7550  177.5390  134.6840 C   0  0  0  0  0  3  0  0  0  0  0  0
  184.5740  177.3300  135.2880 C   0  0  0  0  0  0  0  0  0  0  0  0
  180.6740  174.8780  137.0770 C   0  0  0  0  0  2  0  0  0  0  0  0
  186.3570  170.2630  135.5400 C   0  0  2  0  0  3  0  0  0  0  0  0
  186.6250  172.5500  134.7520 O   0  0  0  0  0  0  0  0  0  0  0  0
  184.5170  177.1760  136.8050 C   0  0  2  0  0  3  0  0  0  0  0  0
  184.2290  174.3970  135.7110 C   0  0  2  0  0  3  0  0  0  0  0  0
  181.5770  175.9500  134.8850 C   0  0  1  0  0  3  0  0  0  0  0  0
  187.6660  176.0740  135.4930 C   0  0  1  0  0  3  0  0  0  0  0  0
  181.0400  173.9020  136.1240 O   0  0  0  0  0  0  0  0  0  0  0  0
  186.2840  171.7570  135.8640 C   0  0  1  0  0  3  0  0  0  0  0  0
  184.8290  171.9530  136.2880 C   0  0  1  0  0  3  0  0  0  0  0  0
  187.0640  177.4830  135.4190 C   0  0  0  0  0  2  0  0  0  0  0  0
  189.7530  175.0510  136.4990 C   0  0  0  0  0  3  0  0  0  0  0  0
  188.6810  175.9470  136.5930 C   0  0  0  0  0  0  0  0  0  0  0  0
  188.5550  176.7490  137.7300 C   0  0  0  0  0  3  0  0  0  0  0  0
  189.3860  177.4170  139.8610 F   0  0  0  0  0  0  0  0  0  0  0  0
  190.5320  175.7650  138.6410 N   0  0  0  0  0  0  0  0  0  0  0  0
  189.4990  176.6430  138.7540 C   0  0  0  0  0  0  0  0  0  0  0  0
  190.6760  174.9740  137.5450 C   0  0  0  0  0  3  0  0  0  0  0  0
  187.2410  169.9120  134.3470 C   0  0  0  0  0  2  0  0  0  0  0  0
  188.6960  169.8580  134.7690 C   0  0  0  0  0  1  0  0  0  0  0  0
  182.3530  169.4050  135.2270 C   0  0  0  0  0  2  0  0  0  0  0  0
  182.8200  170.4140  135.9550 C   0  0  0  0  0  3  0  0  0  0  0  0
  1 20  1  0  0  0  0
  1 25  1  0  0  0  0
  2 21  1  0  0  0  0
  3  8  1  0  0  0  0
  4 25  1  0  0  0  0
  5  9  1  0  0  0  0
  7  3  1  0  0  0  0
  9 22  1  0  0  0  0
  9  7  1  0  0  0  0
 10  6  1  0  0  0  0
 10 15  1  0  0  0  0
 11 17  1  0  0  0  0
 11  4  1  0  0  0  0
 12  8  1  0  0  0  0
 13 12  1  0  0  0  0
 13 16  1  0  0  0  0
 14 15  2  0  0  0  0
 14 26  1  0  0  0  0
 15 19  1  0  0  0  0
 17 24  1  0  0  0  0
 18  5  1  0  0  0  0
 18 24  1  0  0  0  0
 19  3  1  0  0  0  0
 19  8  1  0  0  0  0
 20  7  1  0  0  0  0
 20 12  1  0  0  0  0
 21  6  1  0  0  0  0
 21 13  1  0  0  0  0
 22 28  1  0  0  0  0
 23 13  1  0  0  0  0
 23 16  1  0  0  0  0
 24 25  1  0  0  0  0
 26 22  1  0  0  0  0
 27 28  2  0  0  0  0
 27 33  1  0  0  0  0
 28 29  1  0  0  0  0
 29 32  2  0  0  0  0
 31 32  1  0  0  0  0
 32 30  1  0  0  0  0
 33 31  2  0  0  0  0
 34 35  1  0  0  0  0
 34 17  1  0  0  0  0
 36 37  2  0  0  0  0
 37  4  1  0  0  0  0
M  END
>  <MODEL>
8

>  <REMARK>
 VINA RESULT:      -4.8      3.197      4.884
  Name = 
  3 active torsions:
  status: ('A' for Active; 'I' for Inactive)
    1  A    between atoms: C_5  and  C_23
    2  A    between atoms: C_6  and  C_31
    3  A    between atoms: C_11  and  C_26
                            x       y       z     vdW  Elec       q    Type
                         _______ _______ _______ _____ _____    ______ ____

>  <TORSDO>
F 3

$$$$
=
 OpenBabel10272415003D

 37 44  0  0  1  0  0  0  0  0999 V2000
  185.9210  172.6490  135.3610 C   0  0  0  0  0  2  0  0  0  0  0  0
  180.9570  172.8470  134.3460 C   0  0  0  0  0  1  0  0  0  0  0  0
  184.9750  175.3040  137.9450 C   0  0  2  0  0  3  0  0  0  0  0  0
  187.5490  170.7490  135.8990 C   0  0  1  0  0  3  0  0  0  0  0  0
  188.1860  175.1980  135.8290 C   0  0  0  0  0  2  0  0  0  0  0  0
  181.5770  174.9150  135.5640 C   0  0  0  0  0  2  0  0  0  0  0  0
  185.9250  174.7540  136.8560 C   0  0  2  0  0  3  0  0  0  0  0  0
  183.7280  174.4250  137.9020 C   0  0  2  0  0  3  0  0  0  0  0  0
  186.7720  175.7430  136.0300 C   0  0  1  0  0  3  0  0  0  0  0  0
  182.4970  176.0240  135.0930 C   0  0  0  0  0  2  0  0  0  0  0  0
  188.6170  170.8290  134.9960 O   0  0  0  0  0  0  0  0  0  0  0  0
  184.0180  173.3420  136.8600 C   0  0  1  0  0  3  0  0  0  0  0  0
  182.7800  172.8010  136.1510 C   0  0  1  0  0  0  0  0  0  0  0  0
  184.4100  177.3720  135.6550 C   0  0  0  0  0  3  0  0  0  0  0  0
  183.6000  176.3760  136.0510 C   0  0  0  0  0  0  0  0  0  0  0  0
  182.0130  171.7720  136.8850 C   0  0  0  0  0  2  0  0  0  0  0  0
  189.3530  171.9350  135.4460 C   0  0  2  0  0  3  0  0  0  0  0  0
  188.1660  174.0260  135.0660 O   0  0  0  0  0  0  0  0  0  0  0  0
  183.6310  175.9100  137.5030 C   0  0  2  0  0  3  0  0  0  0  0  0
  185.1290  173.8160  135.9630 C   0  0  2  0  0  3  0  0  0  0  0  0
  182.0940  173.5950  135.0310 C   0  0  1  0  0  3  0  0  0  0  0  0
  186.8080  177.2200  136.4820 C   0  0  1  0  0  3  0  0  0  0  0  0
  182.9150  171.4350  135.8510 O   0  0  0  0  0  0  0  0  0  0  0  0
  188.3710  172.9790  135.9850 C   0  0  1  0  0  3  0  0  0  0  0  0
  187.0990  172.1690  136.2310 C   0  0  1  0  0  3  0  0  0  0  0  0
  185.4670  177.9630  136.5440 C   0  0  0  0  0  2  0  0  0  0  0  0
  189.0610  177.3340  137.6330 C   0  0  0  0  0  3  0  0  0  0  0  0
  187.6720  177.5040  137.6770 C   0  0  0  0  0  0  0  0  0  0  0  0
  187.0730  177.9560  138.8550 C   0  0  0  0  0  3  0  0  0  0  0  0
  187.2990  178.6690  141.1170 F   0  0  0  0  0  0  0  0  0  0  0  0
  189.2170  178.0570  139.9040 N   0  0  0  0  0  0  0  0  0  0  0  0
  187.8700  178.2300  139.9700 C   0  0  0  0  0  0  0  0  0  0  0  0
  189.8230  177.6180  138.7680 C   0  0  0  0  0  3  0  0  0  0  0  0
  190.2800  172.4400  134.3460 C   0  0  0  0  0  2  0  0  0  0  0  0
  191.4110  173.2550  134.9450 C   0  0  0  0  0  1  0  0  0  0  0  0
  186.6590  168.5290  135.3240 C   0  0  0  0  0  2  0  0  0  0  0  0
  186.4670  169.8430  135.3900 C   0  0  0  0  0  3  0  0  0  0  0  0
  1 20  1  0  0  0  0
  1 25  1  0  0  0  0
  2 21  1  0  0  0  0
  4 25  1  0  0  0  0
  5  9  1  0  0  0  0
  7  3  1  0  0  0  0
  8  3  1  0  0  0  0
  9 22  1  0  0  0  0
  9  7  1  0  0  0  0
 10  6  1  0  0  0  0
 10 15  1  0  0  0  0
 11 17  1  0  0  0  0
 11  4  1  0  0  0  0
 12  8  1  0  0  0  0
 13 12  1  0  0  0  0
 13 16  1  0  0  0  0
 14 15  2  0  0  0  0
 14 26  1  0  0  0  0
 15 19  1  0  0  0  0
 17 24  1  0  0  0  0
 18  5  1  0  0  0  0
 18 24  1  0  0  0  0
 19  8  1  0  0  0  0
 19  3  1  0  0  0  0
 20  7  1  0  0  0  0
 20 12  1  0  0  0  0
 21  6  1  0  0  0  0
 21 13  1  0  0  0  0
 22 26  1  0  0  0  0
 22 28  1  0  0  0  0
 23 13  1  0  0  0  0
 23 16  1  0  0  0  0
 24 25  1  0  0  0  0
 27 28  2  0  0  0  0
 27 33  1  0  0  0  0
 28 29  1  0  0  0  0
 29 32  2  0  0  0  0
 31 32  1  0  0  0  0
 32 30  1  0  0  0  0
 33 31  2  0  0  0  0
 34 35  1  0  0  0  0
 34 17  1  0  0  0  0
 36 37  2  0  0  0  0
 37  4  1  0  0  0  0
M  END
>  <MODEL>
9

>  <REMARK>
 VINA RESULT:      -4.0      2.588      3.782
  Name = 
  3 active torsions:
  status: ('A' for Active; 'I' for Inactive)
    1  A    between atoms: C_5  and  C_23
    2  A    between atoms: C_6  and  C_31
    3  A    between atoms: C_11  and  C_26
                            x       y       z     vdW  Elec       q    Type
                         _______ _______ _______ _____ _____    ______ ____

>  <TORSDO>
F 3

$$$$
