=
 OpenBabel10272414483D

 37 41  0  0  1  0  0  0  0  0999 V2000
  185.9090  178.0730  142.4730 C   0  0  0  0  0  0  0  0  0  0  0  0
  183.6730  178.8430  143.1580 C   0  0  0  0  0  2  0  0  0  0  0  0
  185.6120  178.0840  140.9990 C   0  0  2  0  0  3  0  0  0  0  0  0
  185.0530  178.3340  143.4050 C   0  0  0  0  0  0  0  0  0  0  0  0
  186.6360  178.7550  140.3130 O   0  0  0  0  0  0  0  0  0  0  0  0
  185.6950  178.2650  144.6520 N   0  0  0  0  0  2  0  0  0  0  0  0
  183.1760  178.4540  141.7570 C   0  0  2  0  0  3  0  0  0  0  0  0
  188.3200  178.5630  142.5810 C   0  0  0  0  0  2  0  0  0  0  0  0
  187.0160  177.9390  144.5200 O   0  0  0  0  0  0  0  0  0  0  0  0
  187.1900  177.6950  143.1280 C   0  0  1  0  0  3  0  0  0  0  0  0
  184.2570  178.7490  140.6790 C   0  0  2  0  0  3  0  0  0  0  0  0
  187.6810  177.8250  140.1920 C   0  0  2  0  0  3  0  0  0  0  0  0
  188.8070  178.1100  141.1970 C   0  0  0  0  0  2  0  0  0  0  0  0
  183.7400  176.8490  139.0340 C   0  0  0  0  0  2  0  0  0  0  0  0
  182.3310  176.3170  139.2550 C   0  0  0  0  0  2  0  0  0  0  0  0
  181.1280  177.8590  137.6130 C   0  0  2  0  0  3  0  0  0  0  0  0
  181.5300  176.4160  137.9600 C   0  0  2  0  0  3  0  0  0  0  0  0
  182.2410  178.7210  137.4500 O   0  0  0  0  0  0  0  0  0  0  0  0
  182.6650  179.1840  138.7120 C   0  0  1  0  0  3  0  0  0  0  0  0
  179.9820  178.4340  138.4550 C   0  0  0  0  0  1  0  0  0  0  0  0
  183.8520  178.3670  139.2420 C   0  0  1  0  0  3  0  0  0  0  0  0
  181.7890  181.5030  138.5060 C   0  0  0  0  0  1  0  0  0  0  0  0
  183.0400  180.6540  138.6160 C   0  0  0  0  0  2  0  0  0  0  0  0
  180.0530  174.9560  139.0990 C   0  0  0  0  0  2  0  0  0  0  0  0
  180.3660  175.5680  138.0160 N   0  0  0  0  0  0  0  0  0  0  0  0
  189.4940  177.2900  138.5590 C   0  0  0  0  0  3  0  0  0  0  0  0
  188.2110  177.7960  138.7960 C   0  0  0  0  0  0  0  0  0  0  0  0
  187.4550  178.2980  137.7250 C   0  0  0  0  0  3  0  0  0  0  0  0
  187.2360  178.7430  135.3930 F   0  0  0  0  0  0  0  0  0  0  0  0
  189.2570  177.7670  136.1970 C   0  0  0  0  0  3  0  0  0  0  0  0
  187.9770  178.2790  136.4290 C   0  0  0  0  0  0  0  0  0  0  0  0
  190.0160  177.2740  137.2620 C   0  0  0  0  0  3  0  0  0  0  0  0
  181.8920  179.2290  141.4790 C   0  0  0  0  0  2  0  0  0  0  0  0
  180.6970  178.5470  142.0700 C   0  0  0  0  0  0  0  0  0  0  0  0
  180.3130  177.4860  141.6020 O   0  0  0  0  0  0  0  0  0  0  0  0
  179.9820  179.1470  143.2370 C   0  0  0  0  0  2  0  0  0  0  0  0
  179.9960  178.1880  144.4120 C   0  0  0  0  0  1  0  0  0  0  0  0
  1 10  1  0  0  0  0
  1  4  2  0  0  0  0
  2  4  1  0  0  0  0
  3  5  1  6  0  0  0
  3  1  1  0  0  0  0
  4  6  1  0  0  0  0
  7 33  1  6  0  0  0
  7  2  1  0  0  0  0
  9  6  1  0  0  0  0
 10  8  1  6  0  0  0
 10  9  1  0  0  0  0
 11 21  1  6  0  0  0
 11  3  1  0  0  0  0
 11  7  1  0  0  0  0
 12 27  1  6  0  0  0
 12  5  1  0  0  0  0
 12 13  1  0  0  0  0
 13  8  1  0  0  0  0
 14 15  1  0  0  0  0
 16 17  1  0  0  0  0
 16 20  1  1  0  0  0
 17 25  1  1  0  0  0
 17 15  1  0  0  0  0
 18 16  1  0  0  0  0
 18 19  1  0  0  0  0
 19 23  1  6  0  0  0
 19 21  1  0  0  0  0
 21 14  1  1  0  0  0
 22 23  1  0  0  0  0
 25 24  2  0  0  0  0
 26 27  1  0  0  0  0
 28 27  2  0  0  0  0
 29 31  1  0  0  0  0
 30 31  2  0  0  0  0
 30 32  1  0  0  0  0
 31 28  1  0  0  0  0
 32 26  2  0  0  0  0
 33 34  1  0  0  0  0
 34 36  1  0  0  0  0
 35 34  2  0  0  0  0
 36 37  1  0  0  0  0
M  END
>  <MODEL>
1

>  <REMARK>
 VINA RESULT:      -6.4      0.000      0.000
  Name = 
  7 active torsions:
  status: ('A' for Active; 'I' for Inactive)
    1  A    between atoms: C_3  and  C_21
    2  A    between atoms: C_6  and  C_31
    3  A    between atoms: C_17  and  N_23
    4  A    between atoms: C_20  and  C_25
    5  A    between atoms: C_21  and  C_25
    6  A    between atoms: C_27  and  C_33
    7  A    between atoms: C_29  and  C_36
                            x       y       z     vdW  Elec       q    Type
                         _______ _______ _______ _____ _____    ______ ____

>  <TORSDO>
F 7

$$$$
=
 OpenBabel10272414483D

 37 41  0  0  1  0  0  0  0  0999 V2000
  190.8100  176.8880  139.6060 C   0  0  0  0  0  0  0  0  0  0  0  0
  191.6520  177.8640  141.7040 C   0  0  0  0  0  2  0  0  0  0  0  0
  189.3760  176.8210  140.0520 C   0  0  2  0  0  3  0  0  0  0  0  0
  191.7990  177.2730  140.3420 C   0  0  0  0  0  0  0  0  0  0  0  0
  188.5440  177.3680  139.0620 O   0  0  0  0  0  0  0  0  0  0  0  0
  192.9790  177.2410  139.5800 N   0  0  0  0  0  2  0  0  0  0  0  0
  190.3390  177.4180  142.3670 C   0  0  2  0  0  3  0  0  0  0  0  0
  190.6450  177.2070  137.1690 C   0  0  0  0  0  2  0  0  0  0  0  0
  192.7430  176.8120  138.3050 O   0  0  0  0  0  0  0  0  0  0  0  0
  191.3630  176.4620  138.2920 C   0  0  1  0  0  3  0  0  0  0  0  0
  189.1420  177.5610  141.3850 C   0  0  2  0  0  3  0  0  0  0  0  0
  188.3910  176.3580  138.0980 C   0  0  2  0  0  3  0  0  0  0  0  0
  189.2570  176.6280  136.8580 C   0  0  0  0  0  2  0  0  0  0  0  0
  187.9220  176.2610  143.2330 C   0  0  0  0  0  2  0  0  0  0  0  0
  187.8580  177.0830  144.5130 C   0  0  0  0  0  2  0  0  0  0  0  0
  185.6240  178.2340  144.0600 C   0  0  2  0  0  3  0  0  0  0  0  0
  186.4050  177.2510  144.9470 C   0  0  2  0  0  3  0  0  0  0  0  0
  185.5800  177.8380  142.6990 O   0  0  0  0  0  0  0  0  0  0  0  0
  186.7610  178.2540  142.0530 C   0  0  1  0  0  3  0  0  0  0  0  0
  185.9440  179.7150  144.2940 C   0  0  0  0  0  1  0  0  0  0  0  0
  187.7840  177.1120  141.9610 C   0  0  1  0  0  3  0  0  0  0  0  0
  184.9480  179.0990  140.5730 C   0  0  0  0  0  1  0  0  0  0  0  0
  186.4250  178.7710  140.6630 C   0  0  0  0  0  2  0  0  0  0  0  0
  187.3850  177.6760  147.0620 C   0  0  0  0  0  2  0  0  0  0  0  0
  186.3320  177.6520  146.3300 N   0  0  0  0  0  0  0  0  0  0  0  0
  186.4880  174.9380  137.3250 C   0  0  0  0  0  3  0  0  0  0  0  0
  186.9560  176.1960  137.7180 C   0  0  0  0  0  0  0  0  0  0  0  0
  186.0810  177.2940  137.7170 C   0  0  0  0  0  3  0  0  0  0  0  0
  183.8970  178.1820  137.3620 F   0  0  0  0  0  0  0  0  0  0  0  0
  184.2810  175.8640  136.9530 C   0  0  0  0  0  3  0  0  0  0  0  0
  184.7450  177.1250  137.3400 C   0  0  0  0  0  0  0  0  0  0  0  0
  185.1520  174.7710  136.9450 C   0  0  0  0  0  3  0  0  0  0  0  0
  190.1320  178.2640  143.6190 C   0  0  0  0  0  2  0  0  0  0  0  0
  191.2980  178.1630  144.5530 C   0  0  0  0  0  0  0  0  0  0  0  0
  192.0260  179.1310  144.7180 O   0  0  0  0  0  0  0  0  0  0  0  0
  191.5680  176.8950  145.2950 C   0  0  0  0  0  2  0  0  0  0  0  0
  190.8820  176.9200  146.6470 C   0  0  0  0  0  1  0  0  0  0  0  0
  1  3  1  0  0  0  0
  1  4  2  0  0  0  0
  2  7  1  0  0  0  0
  3  5  1  6  0  0  0
  3 11  1  0  0  0  0
  4  2  1  0  0  0  0
  6  4  1  0  0  0  0
  7 33  1  1  0  0  0
  9  6  1  0  0  0  0
 10  8  1  6  0  0  0
 10  9  1  0  0  0  0
 10  1  1  0  0  0  0
 11 21  1  1  0  0  0
 11  7  1  0  0  0  0
 12 27  1  6  0  0  0
 12  5  1  0  0  0  0
 13  8  1  0  0  0  0
 13 12  1  0  0  0  0
 14 15  1  0  0  0  0
 15 17  1  0  0  0  0
 16 20  1  6  0  0  0
 16 17  1  0  0  0  0
 17 25  1  1  0  0  0
 18 16  1  0  0  0  0
 19 23  1  6  0  0  0
 19 18  1  0  0  0  0
 21 19  1  0  0  0  0
 21 14  1  1  0  0  0
 22 23  1  0  0  0  0
 25 24  2  0  0  0  0
 26 27  1  0  0  0  0
 28 27  2  0  0  0  0
 30 31  2  0  0  0  0
 31 29  1  0  0  0  0
 31 28  1  0  0  0  0
 32 30  1  0  0  0  0
 32 26  2  0  0  0  0
 33 34  1  0  0  0  0
 34 35  2  0  0  0  0
 34 36  1  0  0  0  0
 36 37  1  0  0  0  0
M  END
>  <MODEL>
2

>  <REMARK>
 VINA RESULT:      -6.3      3.548      7.178
  Name = 
  7 active torsions:
  status: ('A' for Active; 'I' for Inactive)
    1  A    between atoms: C_3  and  C_21
    2  A    between atoms: C_6  and  C_31
    3  A    between atoms: C_17  and  N_23
    4  A    between atoms: C_20  and  C_25
    5  A    between atoms: C_21  and  C_25
    6  A    between atoms: C_27  and  C_33
    7  A    between atoms: C_29  and  C_36
                            x       y       z     vdW  Elec       q    Type
                         _______ _______ _______ _____ _____    ______ ____

>  <TORSDO>
F 7

$$$$
=
 OpenBabel10272414483D

 37 41  0  0  1  0  0  0  0  0999 V2000
  187.0540  178.2730  139.5370 C   0  0  0  0  0  0  0  0  0  0  0  0
  186.2420  177.6220  137.3060 C   0  0  0  0  0  2  0  0  0  0  0  0
  185.6870  178.3710  140.1570 C   0  0  2  0  0  3  0  0  0  0  0  0
  187.2880  178.0170  138.2930 C   0  0  0  0  0  0  0  0  0  0  0  0
  185.6660  177.6730  141.3740 O   0  0  0  0  0  0  0  0  0  0  0  0
  188.6760  177.9660  138.0870 N   0  0  0  0  0  2  0  0  0  0  0  0
  184.8540  178.1290  137.7300 C   0  0  2  0  0  3  0  0  0  0  0  0
  188.4970  177.6090  141.4200 C   0  0  0  0  0  2  0  0  0  0  0  0
  189.3650  178.2050  139.2430 O   0  0  0  0  0  0  0  0  0  0  0  0
  188.3610  178.5200  140.2020 C   0  0  1  0  0  3  0  0  0  0  0  0
  184.5830  177.8230  139.2300 C   0  0  2  0  0  3  0  0  0  0  0  0
  186.2580  178.5330  142.3130 C   0  0  2  0  0  3  0  0  0  0  0  0
  187.6990  178.1090  142.6340 C   0  0  0  0  0  2  0  0  0  0  0  0
  183.0370  179.8380  139.6040 C   0  0  0  0  0  2  0  0  0  0  0  0
  182.3530  180.2370  138.3030 C   0  0  0  0  0  2  0  0  0  0  0  0
  180.2680  178.7850  138.5620 C   0  0  2  0  0  3  0  0  0  0  0  0
  180.8380  180.2110  138.4860 C   0  0  2  0  0  3  0  0  0  0  0  0
  180.8030  178.0300  139.6360 O   0  0  0  0  0  0  0  0  0  0  0  0
  182.0380  177.4740  139.2480 C   0  0  1  0  0  3  0  0  0  0  0  0
  180.1960  178.0430  137.2220 C   0  0  0  0  0  1  0  0  0  0  0  0
  183.2180  178.3190  139.7490 C   0  0  1  0  0  3  0  0  0  0  0  0
  180.9630  175.2320  139.3100 C   0  0  0  0  0  1  0  0  0  0  0  0
  182.1460  176.0530  139.7790 C   0  0  0  0  0  2  0  0  0  0  0  0
  180.6890  182.0610  137.0130 C   0  0  0  0  0  2  0  0  0  0  0  0
  180.1880  180.9600  137.4400 N   0  0  0  0  0  0  0  0  0  0  0  0
  184.0700  178.8840  143.4650 C   0  0  0  0  0  3  0  0  0  0  0  0
  185.4380  178.6090  143.5600 C   0  0  0  0  0  0  0  0  0  0  0  0
  186.0270  178.4410  144.8220 C   0  0  0  0  0  3  0  0  0  0  0  0
  185.8130  178.3490  147.1950 F   0  0  0  0  0  0  0  0  0  0  0  0
  183.8780  178.8040  145.8780 C   0  0  0  0  0  3  0  0  0  0  0  0
  185.2470  178.5340  145.9780 C   0  0  0  0  0  0  0  0  0  0  0  0
  183.2900  178.9800  144.6220 C   0  0  0  0  0  3  0  0  0  0  0  0
  183.8140  177.4640  136.8330 C   0  0  0  0  0  2  0  0  0  0  0  0
  184.2750  176.1240  136.3520 C   0  0  0  0  0  0  0  0  0  0  0  0
  184.8110  176.0250  135.2590 O   0  0  0  0  0  0  0  0  0  0  0  0
  184.1000  174.9100  137.2070 C   0  0  0  0  0  2  0  0  0  0  0  0
  185.3620  174.0700  137.1930 C   0  0  0  0  0  1  0  0  0  0  0  0
  1 10  1  0  0  0  0
  2  7  1  0  0  0  0
  2  4  1  0  0  0  0
  3  1  1  6  0  0  0
  3  5  1  0  0  0  0
  4  1  2  0  0  0  0
  5 12  1  0  0  0  0
  6  4  1  0  0  0  0
  6  9  1  0  0  0  0
  7 33  1  6  0  0  0
  7 11  1  0  0  0  0
  8 13  1  0  0  0  0
  9 10  1  0  0  0  0
 10  8  1  1  0  0  0
 11 21  1  1  0  0  0
 11  3  1  0  0  0  0
 12 13  1  0  0  0  0
 12 27  1  1  0  0  0
 15 17  1  0  0  0  0
 15 14  1  0  0  0  0
 16 20  1  6  0  0  0
 16 18  1  0  0  0  0
 17 25  1  6  0  0  0
 17 16  1  0  0  0  0
 19 18  1  0  0  0  0
 19 21  1  0  0  0  0
 19 23  1  1  0  0  0
 21 14  1  6  0  0  0
 22 23  1  0  0  0  0
 24 25  2  0  0  0  0
 26 27  2  0  0  0  0
 26 32  1  0  0  0  0
 27 28  1  0  0  0  0
 28 31  2  0  0  0  0
 30 31  1  0  0  0  0
 31 29  1  0  0  0  0
 32 30  2  0  0  0  0
 34 33  1  0  0  0  0
 34 36  1  0  0  0  0
 35 34  2  0  0  0  0
 37 36  1  0  0  0  0
M  END
>  <MODEL>
3

>  <REMARK>
 VINA RESULT:      -6.3      3.036      6.021
  Name = 
  7 active torsions:
  status: ('A' for Active; 'I' for Inactive)
    1  A    between atoms: C_3  and  C_21
    2  A    between atoms: C_6  and  C_31
    3  A    between atoms: C_17  and  N_23
    4  A    between atoms: C_20  and  C_25
    5  A    between atoms: C_21  and  C_25
    6  A    between atoms: C_27  and  C_33
    7  A    between atoms: C_29  and  C_36
                            x       y       z     vdW  Elec       q    Type
                         _______ _______ _______ _____ _____    ______ ____

>  <TORSDO>
F 7

$$$$
=
 OpenBabel10272414483D

 37 41  0  0  1  0  0  0  0  0999 V2000
  189.3850  177.2850  140.0440 C   0  0  0  0  0  0  0  0  0  0  0  0
  187.2370  178.4880  140.0110 C   0  0  0  0  0  2  0  0  0  0  0  0
  189.2350  176.6990  138.6670 C   0  0  2  0  0  3  0  0  0  0  0  0
  188.4950  177.9990  140.6480 C   0  0  0  0  0  0  0  0  0  0  0  0
  190.4100  176.9120  137.9290 O   0  0  0  0  0  0  0  0  0  0  0  0
  188.9970  178.4030  141.8950 N   0  0  0  0  0  2  0  0  0  0  0  0
  186.8230  177.5920  138.8330 C   0  0  2  0  0  3  0  0  0  0  0  0
  191.8220  177.5370  140.3030 C   0  0  0  0  0  2  0  0  0  0  0  0
  190.2590  177.9250  142.1080 O   0  0  0  0  0  0  0  0  0  0  0  0
  190.5260  177.0980  140.9800 C   0  0  1  0  0  3  0  0  0  0  0  0
  188.0340  177.2950  137.9040 C   0  0  2  0  0  3  0  0  0  0  0  0
  191.3080  175.9210  138.3560 C   0  0  2  0  0  3  0  0  0  0  0  0
  192.3640  176.4940  139.3140 C   0  0  0  0  0  2  0  0  0  0  0  0
  187.1690  175.0070  137.1260 C   0  0  0  0  0  2  0  0  0  0  0  0
  185.6490  174.9590  137.1880 C   0  0  0  0  0  2  0  0  0  0  0  0
  185.1910  175.7690  134.8100 C   0  0  2  0  0  3  0  0  0  0  0  0
  185.0860  174.6100  135.8130 C   0  0  2  0  0  3  0  0  0  0  0  0
  186.5260  176.1910  134.5880 O   0  0  0  0  0  0  0  0  0  0  0  0
  186.9100  177.0880  135.6050 C   0  0  1  0  0  3  0  0  0  0  0  0
  184.1810  176.9030  135.0200 C   0  0  0  0  0  1  0  0  0  0  0  0
  187.7140  176.3810  136.7050 C   0  0  1  0  0  3  0  0  0  0  0  0
  188.9750  177.6700  134.3460 C   0  0  0  0  0  1  0  0  0  0  0  0
  187.7260  178.2210  135.0030 C   0  0  0  0  0  2  0  0  0  0  0  0
  183.3810  173.3110  136.8240 C   0  0  0  0  0  2  0  0  0  0  0  0
  183.7210  174.1600  135.9240 N   0  0  0  0  0  0  0  0  0  0  0  0
  191.4110  175.4120  135.9130 C   0  0  0  0  0  3  0  0  0  0  0  0
  191.9590  175.2510  137.1900 C   0  0  0  0  0  0  0  0  0  0  0  0
  193.0890  174.4370  137.3640 C   0  0  0  0  0  3  0  0  0  0  0  0
  194.7770  173.0360  136.4290 F   0  0  0  0  0  0  0  0  0  0  0  0
  193.1240  173.9720  134.9870 C   0  0  0  0  0  3  0  0  0  0  0  0
  193.6720  173.8030  136.2630 C   0  0  0  0  0  0  0  0  0  0  0  0
  191.9940  174.7750  134.8130 C   0  0  0  0  0  3  0  0  0  0  0  0
  185.7030  178.2970  138.0740 C   0  0  0  0  0  2  0  0  0  0  0  0
  184.6420  178.8030  139.0000 C   0  0  0  0  0  0  0  0  0  0  0  0
  184.5280  180.0040  139.1920 O   0  0  0  0  0  0  0  0  0  0  0  0
  183.7100  177.8510  139.6780 C   0  0  0  0  0  2  0  0  0  0  0  0
  183.6690  178.1250  141.1680 C   0  0  0  0  0  1  0  0  0  0  0  0
  1  4  2  0  0  0  0
  1 10  1  0  0  0  0
  2  4  1  0  0  0  0
  3  5  1  6  0  0  0
  3  1  1  0  0  0  0
  4  6  1  0  0  0  0
  5 12  1  0  0  0  0
  6  9  1  0  0  0  0
  7 33  1  6  0  0  0
  7  2  1  0  0  0  0
 10  8  1  6  0  0  0
 10  9  1  0  0  0  0
 11 21  1  6  0  0  0
 11  3  1  0  0  0  0
 11  7  1  0  0  0  0
 12 27  1  6  0  0  0
 12 13  1  0  0  0  0
 13  8  1  0  0  0  0
 14 15  1  0  0  0  0
 16 20  1  1  0  0  0
 16 17  1  0  0  0  0
 17 25  1  1  0  0  0
 17 15  1  0  0  0  0
 18 16  1  0  0  0  0
 18 19  1  0  0  0  0
 19 23  1  6  0  0  0
 19 21  1  0  0  0  0
 21 14  1  1  0  0  0
 22 23  1  0  0  0  0
 25 24  2  0  0  0  0
 26 27  1  0  0  0  0
 27 28  2  0  0  0  0
 30 31  2  0  0  0  0
 31 29  1  0  0  0  0
 31 28  1  0  0  0  0
 32 30  1  0  0  0  0
 32 26  2  0  0  0  0
 33 34  1  0  0  0  0
 34 35  2  0  0  0  0
 34 36  1  0  0  0  0
 36 37  1  0  0  0  0
M  END
>  <MODEL>
4

>  <REMARK>
 VINA RESULT:      -5.8      3.467      5.293
  Name = 
  7 active torsions:
  status: ('A' for Active; 'I' for Inactive)
    1  A    between atoms: C_3  and  C_21
    2  A    between atoms: C_6  and  C_31
    3  A    between atoms: C_17  and  N_23
    4  A    between atoms: C_20  and  C_25
    5  A    between atoms: C_21  and  C_25
    6  A    between atoms: C_27  and  C_33
    7  A    between atoms: C_29  and  C_36
                            x       y       z     vdW  Elec       q    Type
                         _______ _______ _______ _____ _____    ______ ____

>  <TORSDO>
F 7

$$$$
=
 OpenBabel10272414483D

 37 41  0  0  1  0  0  0  0  0999 V2000
  187.5280  178.1540  139.7310 C   0  0  0  0  0  0  0  0  0  0  0  0
  189.4610  178.6960  141.1570 C   0  0  0  0  0  2  0  0  0  0  0  0
  186.5730  177.9380  140.8720 C   0  0  2  0  0  3  0  0  0  0  0  0
  188.7870  178.4130  139.8560 C   0  0  0  0  0  0  0  0  0  0  0  0
  185.3850  178.6490  140.6390 O   0  0  0  0  0  0  0  0  0  0  0  0
  189.3500  178.5900  138.5820 N   0  0  0  0  0  2  0  0  0  0  0  0
  188.6930  178.0680  142.3320 C   0  0  2  0  0  3  0  0  0  0  0  0
  186.0830  178.9750  137.9130 C   0  0  0  0  0  2  0  0  0  0  0  0
  188.4180  178.4320  137.5950 O   0  0  0  0  0  0  0  0  0  0  0  0
  187.2320  178.0380  138.2780 C   0  0  1  0  0  3  0  0  0  0  0  0
  187.1710  178.3680  142.2270 C   0  0  2  0  0  3  0  0  0  0  0  0
  184.6440  177.8610  139.7440 C   0  0  2  0  0  3  0  0  0  0  0  0
  184.7080  178.4210  138.3150 C   0  0  0  0  0  2  0  0  0  0  0  0
  187.0450  176.6380  144.1190 C   0  0  0  0  0  2  0  0  0  0  0  0
  187.7830  177.1380  145.3530 C   0  0  0  0  0  2  0  0  0  0  0  0
  185.8040  178.2890  146.4820 C   0  0  2  0  0  3  0  0  0  0  0  0
  186.8370  177.1530  146.5500 C   0  0  2  0  0  3  0  0  0  0  0  0
  184.9760  178.2190  145.3340 O   0  0  0  0  0  0  0  0  0  0  0  0
  185.6400  178.8110  144.2410 C   0  0  1  0  0  3  0  0  0  0  0  0
  186.3520  179.6850  146.8010 C   0  0  0  0  0  1  0  0  0  0  0  0
  186.3180  177.7550  143.3560 C   0  0  1  0  0  3  0  0  0  0  0  0
  183.2730  179.5520  144.0530 C   0  0  0  0  0  1  0  0  0  0  0  0
  184.6500  179.6250  143.4240 C   0  0  0  0  0  2  0  0  0  0  0  0
  188.8620  177.1540  147.7800 C   0  0  0  0  0  2  0  0  0  0  0  0
  187.5810  177.2200  147.7830 N   0  0  0  0  0  0  0  0  0  0  0  0
  182.5360  176.5360  139.9470 C   0  0  0  0  0  3  0  0  0  0  0  0
  183.2270  177.7270  140.1970 C   0  0  0  0  0  0  0  0  0  0  0  0
  182.5710  178.7890  140.8400 C   0  0  0  0  0  3  0  0  0  0  0  0
  180.6140  179.6680  141.8800 F   0  0  0  0  0  0  0  0  0  0  0  0
  180.5540  177.4560  140.9920 C   0  0  0  0  0  3  0  0  0  0  0  0
  181.2390  178.6500  141.2390 C   0  0  0  0  0  0  0  0  0  0  0  0
  181.2020  176.4000  140.3450 C   0  0  0  0  0  3  0  0  0  0  0  0
  189.2790  178.6210  143.6270 C   0  0  0  0  0  2  0  0  0  0  0  0
  190.7280  178.2750  143.7700 C   0  0  0  0  0  0  0  0  0  0  0  0
  191.5620  179.1680  143.8120 O   0  0  0  0  0  0  0  0  0  0  0  0
  191.1610  176.8490  143.8770 C   0  0  0  0  0  2  0  0  0  0  0  0
  191.6060  176.5390  145.2930 C   0  0  0  0  0  1  0  0  0  0  0  0
  1  4  2  0  0  0  0
  2  7  1  0  0  0  0
  3  1  1  6  0  0  0
  3 11  1  0  0  0  0
  4  2  1  0  0  0  0
  5  3  1  0  0  0  0
  6  4  1  0  0  0  0
  7 33  1  1  0  0  0
  8 13  1  0  0  0  0
  9 10  1  0  0  0  0
  9  6  1  0  0  0  0
 10  8  1  6  0  0  0
 10  1  1  0  0  0  0
 11  7  1  0  0  0  0
 11 21  1  1  0  0  0
 12 27  1  1  0  0  0
 12  5  1  0  0  0  0
 13 12  1  0  0  0  0
 14 15  1  0  0  0  0
 15 17  1  0  0  0  0
 16 17  1  0  0  0  0
 16 20  1  6  0  0  0
 17 25  1  1  0  0  0
 18 16  1  0  0  0  0
 19 23  1  6  0  0  0
 19 18  1  0  0  0  0
 21 14  1  1  0  0  0
 21 19  1  0  0  0  0
 23 22  1  0  0  0  0
 24 25  2  0  0  0  0
 26 27  2  0  0  0  0
 26 32  1  0  0  0  0
 27 28  1  0  0  0  0
 28 31  2  0  0  0  0
 30 31  1  0  0  0  0
 31 29  1  0  0  0  0
 32 30  2  0  0  0  0
 33 34  1  0  0  0  0
 34 35  2  0  0  0  0
 34 36  1  0  0  0  0
 36 37  1  0  0  0  0
M  END
>  <MODEL>
5

>  <REMARK>
 VINA RESULT:      -5.7      3.117      7.795
  Name = 
  7 active torsions:
  status: ('A' for Active; 'I' for Inactive)
    1  A    between atoms: C_3  and  C_21
    2  A    between atoms: C_6  and  C_31
    3  A    between atoms: C_17  and  N_23
    4  A    between atoms: C_20  and  C_25
    5  A    between atoms: C_21  and  C_25
    6  A    between atoms: C_27  and  C_33
    7  A    between atoms: C_29  and  C_36
                            x       y       z     vdW  Elec       q    Type
                         _______ _______ _______ _____ _____    ______ ____

>  <TORSDO>
F 7

$$$$
=
 OpenBabel10272414483D

 37 41  0  0  1  0  0  0  0  0999 V2000
  182.1000  178.7250  142.3520 C   0  0  0  0  0  0  0  0  0  0  0  0
  180.4940  178.9990  140.5070 C   0  0  0  0  0  2  0  0  0  0  0  0
  183.1590  178.0620  141.5150 C   0  0  2  0  0  3  0  0  0  0  0  0
  180.9280  179.0670  141.9330 C   0  0  0  0  0  0  0  0  0  0  0  0
  184.4000  178.6770  141.7420 O   0  0  0  0  0  0  0  0  0  0  0  0
  180.2290  179.6930  142.9780 N   0  0  0  0  0  2  0  0  0  0  0  0
  181.3080  177.9570  139.7240 C   0  0  2  0  0  3  0  0  0  0  0  0
  183.3910  179.9140  144.0820 C   0  0  0  0  0  2  0  0  0  0  0  0
  180.9780  179.7520  144.1190 O   0  0  0  0  0  0  0  0  0  0  0  0
  182.1700  179.0390  143.8050 C   0  0  1  0  0  3  0  0  0  0  0  0
  182.8290  178.1080  140.0090 C   0  0  2  0  0  3  0  0  0  0  0  0
  184.8760  178.1340  142.9460 C   0  0  2  0  0  3  0  0  0  0  0  0
  184.7040  179.1160  144.1140 C   0  0  0  0  0  2  0  0  0  0  0  0
  183.0490  175.7140  139.1080 C   0  0  0  0  0  2  0  0  0  0  0  0
  182.3150  175.5710  137.7820 C   0  0  0  0  0  2  0  0  0  0  0  0
  184.2720  176.1630  136.2520 C   0  0  2  0  0  3  0  0  0  0  0  0
  183.2810  175.0800  136.7070 C   0  0  2  0  0  3  0  0  0  0  0  0
  185.0820  176.6530  137.3070 O   0  0  0  0  0  0  0  0  0  0  0  0
  184.3780  177.6490  138.0130 C   0  0  1  0  0  3  0  0  0  0  0  0
  183.6810  177.2400  135.3350 C   0  0  0  0  0  1  0  0  0  0  0  0
  183.7230  177.0840  139.2810 C   0  0  1  0  0  3  0  0  0  0  0  0
  186.7460  178.4130  137.9990 C   0  0  0  0  0  1  0  0  0  0  0  0
  185.3250  178.7840  138.3710 C   0  0  0  0  0  2  0  0  0  0  0  0
  181.3820  174.0580  135.7270 C   0  0  0  0  0  2  0  0  0  0  0  0
  182.5570  174.5510  135.5790 N   0  0  0  0  0  0  0  0  0  0  0  0
  186.8820  176.9270  143.8160 C   0  0  0  0  0  3  0  0  0  0  0  0
  186.3030  177.7120  142.8140 C   0  0  0  0  0  0  0  0  0  0  0  0
  187.0780  178.1200  141.7170 C   0  0  0  0  0  3  0  0  0  0  0  0
  189.1570  178.1070  140.5500 F   0  0  0  0  0  0  0  0  0  0  0  0
  188.9890  176.9410  142.6240 C   0  0  0  0  0  3  0  0  0  0  0  0
  188.4170  177.7310  141.6220 C   0  0  0  0  0  0  0  0  0  0  0  0
  188.2230  176.5400  143.7210 C   0  0  0  0  0  3  0  0  0  0  0  0
  181.0020  178.1360  138.2400 C   0  0  0  0  0  2  0  0  0  0  0  0
  180.9420  179.5820  137.8600 C   0  0  0  0  0  0  0  0  0  0  0  0
  179.9910  179.9990  137.2150 O   0  0  0  0  0  0  0  0  0  0  0  0
  182.0260  180.5220  138.2770 C   0  0  0  0  0  2  0  0  0  0  0  0
  181.4860  181.9350  138.3840 C   0  0  0  0  0  1  0  0  0  0  0  0
  1 10  1  0  0  0  0
  2  4  1  0  0  0  0
  3  5  1  6  0  0  0
  3  1  1  0  0  0  0
  4  1  2  0  0  0  0
  4  6  1  0  0  0  0
  5 12  1  0  0  0  0
  6  9  1  0  0  0  0
  7 33  1  6  0  0  0
  7 11  1  0  0  0  0
  7  2  1  0  0  0  0
  8 13  1  0  0  0  0
 10  8  1  6  0  0  0
 10  9  1  0  0  0  0
 11 21  1  6  0  0  0
 11  3  1  0  0  0  0
 12 27  1  6  0  0  0
 12 13  1  0  0  0  0
 15 14  1  0  0  0  0
 16 20  1  1  0  0  0
 16 17  1  0  0  0  0
 16 18  1  0  0  0  0
 17 25  1  6  0  0  0
 17 15  1  0  0  0  0
 18 19  1  0  0  0  0
 19 23  1  1  0  0  0
 19 21  1  0  0  0  0
 21 14  1  6  0  0  0
 22 23  1  0  0  0  0
 25 24  2  0  0  0  0
 27 26  2  0  0  0  0
 28 27  1  0  0  0  0
 29 31  1  0  0  0  0
 30 32  2  0  0  0  0
 31 28  2  0  0  0  0
 31 30  1  0  0  0  0
 32 26  1  0  0  0  0
 34 33  1  0  0  0  0
 34 36  1  0  0  0  0
 35 34  2  0  0  0  0
 36 37  1  0  0  0  0
M  END
>  <MODEL>
6

>  <REMARK>
 VINA RESULT:      -5.7      2.310      4.483
  Name = 
  7 active torsions:
  status: ('A' for Active; 'I' for Inactive)
    1  A    between atoms: C_3  and  C_21
    2  A    between atoms: C_6  and  C_31
    3  A    between atoms: C_17  and  N_23
    4  A    between atoms: C_20  and  C_25
    5  A    between atoms: C_21  and  C_25
    6  A    between atoms: C_27  and  C_33
    7  A    between atoms: C_29  and  C_36
                            x       y       z     vdW  Elec       q    Type
                         _______ _______ _______ _____ _____    ______ ____

>  <TORSDO>
F 7

$$$$
=
 OpenBabel10272414483D

 37 41  0  0  1  0  0  0  0  0999 V2000
  184.0310  178.1590  138.1710 C   0  0  0  0  0  0  0  0  0  0  0  0
  186.3570  178.4610  138.9200 C   0  0  0  0  0  2  0  0  0  0  0  0
  184.3220  176.9700  137.2980 C   0  0  2  0  0  3  0  0  0  0  0  0
  184.9190  178.8420  138.8150 C   0  0  0  0  0  0  0  0  0  0  0  0
  183.4020  175.9440  137.5700 O   0  0  0  0  0  0  0  0  0  0  0  0
  184.2780  179.8510  139.5530 N   0  0  0  0  0  2  0  0  0  0  0  0
  186.7880  177.5750  137.7410 C   0  0  2  0  0  3  0  0  0  0  0  0
  181.7160  177.7760  138.9200 C   0  0  0  0  0  2  0  0  0  0  0  0
  182.9240  179.8220  139.3720 O   0  0  0  0  0  0  0  0  0  0  0  0
  182.7110  178.8080  138.3950 C   0  0  1  0  0  3  0  0  0  0  0  0
  185.7570  176.4380  137.4910 C   0  0  2  0  0  3  0  0  0  0  0  0
  182.2340  176.2910  136.8730 C   0  0  2  0  0  3  0  0  0  0  0  0
  181.1640  176.8610  137.8160 C   0  0  0  0  0  2  0  0  0  0  0  0
  186.8330  176.2370  135.1690 C   0  0  0  0  0  2  0  0  0  0  0  0
  188.3490  176.1530  135.2870 C   0  0  0  0  0  2  0  0  0  0  0  0
  188.5330  173.6090  135.4230 C   0  0  2  0  0  3  0  0  0  0  0  0
  188.8490  174.8780  134.6140 C   0  0  2  0  0  3  0  0  0  0  0  0
  187.1440  173.4180  135.6340 O   0  0  0  0  0  0  0  0  0  0  0  0
  186.7300  174.1820  136.7430 C   0  0  1  0  0  3  0  0  0  0  0  0
  189.4120  173.3920  136.6600 C   0  0  0  0  0  1  0  0  0  0  0  0
  186.0980  175.5120  136.3060 C   0  0  1  0  0  3  0  0  0  0  0  0
  185.2510  172.1820  136.7840 C   0  0  0  0  0  1  0  0  0  0  0  0
  185.7410  173.3780  137.5740 C   0  0  0  0  0  2  0  0  0  0  0  0
  190.9280  176.0130  134.6770 C   0  0  0  0  0  2  0  0  0  0  0  0
  190.2630  174.9660  134.3470 N   0  0  0  0  0  0  0  0  0  0  0  0
  180.8010  175.3400  135.0610 C   0  0  0  0  0  3  0  0  0  0  0  0
  181.7000  175.1220  136.1110 C   0  0  0  0  0  0  0  0  0  0  0  0
  182.0620  173.8100  136.4540 C   0  0  0  0  0  3  0  0  0  0  0  0
  181.9050  171.4640  136.0590 F   0  0  0  0  0  0  0  0  0  0  0  0
  180.6430  172.9530  134.6890 C   0  0  0  0  0  3  0  0  0  0  0  0
  181.5360  172.7290  135.7410 C   0  0  0  0  0  0  0  0  0  0  0  0
  180.2740  174.2580  134.3500 C   0  0  0  0  0  3  0  0  0  0  0  0
  188.1700  177.0090  138.0540 C   0  0  0  0  0  2  0  0  0  0  0  0
  189.1230  178.0840  138.4750 C   0  0  0  0  0  0  0  0  0  0  0  0
  189.1040  179.1660  137.9080 O   0  0  0  0  0  0  0  0  0  0  0  0
  190.0860  177.8480  139.5930 C   0  0  0  0  0  2  0  0  0  0  0  0
  189.3480  177.3850  140.8340 C   0  0  0  0  0  1  0  0  0  0  0  0
  1 10  1  0  0  0  0
  1  4  2  0  0  0  0
  3 11  1  0  0  0  0
  3  5  1  1  0  0  0
  3  1  1  0  0  0  0
  4  2  1  0  0  0  0
  4  6  1  0  0  0  0
  7 33  1  1  0  0  0
  7  2  1  0  0  0  0
  9  6  1  0  0  0  0
 10  8  1  1  0  0  0
 10  9  1  0  0  0  0
 11 21  1  6  0  0  0
 11  7  1  0  0  0  0
 12 27  1  1  0  0  0
 12  5  1  0  0  0  0
 12 13  1  0  0  0  0
 13  8  1  0  0  0  0
 14 15  1  0  0  0  0
 16 18  1  0  0  0  0
 16 20  1  1  0  0  0
 17 25  1  1  0  0  0
 17 15  1  0  0  0  0
 17 16  1  0  0  0  0
 18 19  1  0  0  0  0
 19 23  1  6  0  0  0
 21 14  1  6  0  0  0
 21 19  1  0  0  0  0
 22 23  1  0  0  0  0
 25 24  2  0  0  0  0
 26 27  1  0  0  0  0
 27 28  2  0  0  0  0
 30 31  2  0  0  0  0
 31 29  1  0  0  0  0
 31 28  1  0  0  0  0
 32 30  1  0  0  0  0
 32 26  2  0  0  0  0
 33 34  1  0  0  0  0
 34 36  1  0  0  0  0
 35 34  2  0  0  0  0
 36 37  1  0  0  0  0
M  END
>  <MODEL>
7

>  <REMARK>
 VINA RESULT:      -4.9      3.869      7.962
  Name = 
  7 active torsions:
  status: ('A' for Active; 'I' for Inactive)
    1  A    between atoms: C_3  and  C_21
    2  A    between atoms: C_6  and  C_31
    3  A    between atoms: C_17  and  N_23
    4  A    between atoms: C_20  and  C_25
    5  A    between atoms: C_21  and  C_25
    6  A    between atoms: C_27  and  C_33
    7  A    between atoms: C_29  and  C_36
                            x       y       z     vdW  Elec       q    Type
                         _______ _______ _______ _____ _____    ______ ____

>  <TORSDO>
F 7

$$$$
=
 OpenBabel10272414483D

 37 41  0  0  1  0  0  0  0  0999 V2000
  182.5580  178.7690  141.4600 C   0  0  0  0  0  0  0  0  0  0  0  0
  181.2690  179.0900  139.3880 C   0  0  0  0  0  2  0  0  0  0  0  0
  183.7200  178.0850  140.7940 C   0  0  2  0  0  3  0  0  0  0  0  0
  181.4740  179.1400  140.8640 C   0  0  0  0  0  0  0  0  0  0  0  0
  184.9240  178.6700  141.2190 O   0  0  0  0  0  0  0  0  0  0  0  0
  180.6340  179.7770  141.7920 N   0  0  0  0  0  2  0  0  0  0  0  0
  182.1730  178.0330  138.7330 C   0  0  2  0  0  3  0  0  0  0  0  0
  183.5870  179.9170  143.3820 C   0  0  0  0  0  2  0  0  0  0  0  0
  181.1950  179.8120  143.0370 O   0  0  0  0  0  0  0  0  0  0  0  0
  182.4050  179.0730  142.9080 C   0  0  1  0  0  3  0  0  0  0  0  0
  183.6330  178.1470  139.2560 C   0  0  2  0  0  3  0  0  0  0  0  0
  185.1920  178.1090  142.4770 C   0  0  2  0  0  3  0  0  0  0  0  0
  184.8600  179.0890  143.6130 C   0  0  0  0  0  2  0  0  0  0  0  0
  183.9630  175.7260  138.4690 C   0  0  0  0  0  2  0  0  0  0  0  0
  183.3830  175.5320  137.0750 C   0  0  0  0  0  2  0  0  0  0  0  0
  185.4960  176.0870  135.7530 C   0  0  2  0  0  3  0  0  0  0  0  0
  184.4650  175.0120  136.1320 C   0  0  2  0  0  3  0  0  0  0  0  0
  186.1800  176.6200  136.8740 O   0  0  0  0  0  0  0  0  0  0  0  0
  185.3980  177.6330  137.4620 C   0  0  1  0  0  3  0  0  0  0  0  0
  185.0060  177.1270  134.7390 C   0  0  0  0  0  1  0  0  0  0  0  0
  184.6070  177.1060  138.6680 C   0  0  1  0  0  3  0  0  0  0  0  0
  187.3760  179.0110  136.8470 C   0  0  0  0  0  1  0  0  0  0  0  0
  186.2930  178.7880  137.8840 C   0  0  0  0  0  2  0  0  0  0  0  0
  184.0880  173.2130  134.6380 C   0  0  0  0  0  2  0  0  0  0  0  0
  183.8740  174.4390  134.9490 N   0  0  0  0  0  0  0  0  0  0  0  0
  187.0440  176.9750  143.7120 C   0  0  0  0  0  3  0  0  0  0  0  0
  186.6120  177.6550  142.5680 C   0  0  0  0  0  0  0  0  0  0  0  0
  187.5250  177.9300  141.5380 C   0  0  0  0  0  3  0  0  0  0  0  0
  189.7290  177.7590  140.6440 F   0  0  0  0  0  0  0  0  0  0  0  0
  189.2790  176.8280  142.7930 C   0  0  0  0  0  3  0  0  0  0  0  0
  188.8550  177.5130  141.6500 C   0  0  0  0  0  0  0  0  0  0  0  0
  188.3750  176.5610  143.8240 C   0  0  0  0  0  3  0  0  0  0  0  0
  182.1090  178.2270  137.2220 C   0  0  0  0  0  2  0  0  0  0  0  0
  180.7210  178.0270  136.6980 C   0  0  0  0  0  0  0  0  0  0  0  0
  180.0230  177.1360  137.1580 O   0  0  0  0  0  0  0  0  0  0  0  0
  180.1780  178.9180  135.6280 C   0  0  0  0  0  2  0  0  0  0  0  0
  179.9820  180.3230  136.1630 C   0  0  0  0  0  1  0  0  0  0  0  0
  1 10  1  0  0  0  0
  2  4  1  0  0  0  0
  3  5  1  1  0  0  0
  3  1  1  0  0  0  0
  4  1  2  0  0  0  0
  4  6  1  0  0  0  0
  5 12  1  0  0  0  0
  6  9  1  0  0  0  0
  7 33  1  6  0  0  0
  7 11  1  0  0  0  0
  7  2  1  0  0  0  0
  8 13  1  0  0  0  0
 10  9  1  0  0  0  0
 10  8  1  6  0  0  0
 11 21  1  6  0  0  0
 11  3  1  0  0  0  0
 12 27  1  6  0  0  0
 12 13  1  0  0  0  0
 15 14  1  0  0  0  0
 16 20  1  1  0  0  0
 16 17  1  0  0  0  0
 16 18  1  0  0  0  0
 17 25  1  6  0  0  0
 17 15  1  0  0  0  0
 18 19  1  0  0  0  0
 19 23  1  1  0  0  0
 19 21  1  0  0  0  0
 21 14  1  6  0  0  0
 22 23  1  0  0  0  0
 24 25  2  0  0  0  0
 26 32  1  0  0  0  0
 27 26  2  0  0  0  0
 28 31  2  0  0  0  0
 28 27  1  0  0  0  0
 29 31  1  0  0  0  0
 30 32  2  0  0  0  0
 31 30  1  0  0  0  0
 34 35  2  0  0  0  0
 34 33  1  0  0  0  0
 36 37  1  0  0  0  0
 36 34  1  0  0  0  0
M  END
>  <MODEL>
8

>  <REMARK>
 VINA RESULT:      -4.8      2.566      4.902
  Name = 
  7 active torsions:
  status: ('A' for Active; 'I' for Inactive)
    1  A    between atoms: C_3  and  C_21
    2  A    between atoms: C_6  and  C_31
    3  A    between atoms: C_17  and  N_23
    4  A    between atoms: C_20  and  C_25
    5  A    between atoms: C_21  and  C_25
    6  A    between atoms: C_27  and  C_33
    7  A    between atoms: C_29  and  C_36
                            x       y       z     vdW  Elec       q    Type
                         _______ _______ _______ _____ _____    ______ ____

>  <TORSDO>
F 7

$$$$
=
 OpenBabel10272414483D

 37 41  0  0  1  0  0  0  0  0999 V2000
  187.5070  177.9320  139.3690 C   0  0  0  0  0  0  0  0  0  0  0  0
  188.0370  178.1660  136.9760 C   0  0  0  0  0  2  0  0  0  0  0  0
  188.8120  177.2810  139.7360 C   0  0  2  0  0  3  0  0  0  0  0  0
  187.1470  178.2500  138.1710 C   0  0  0  0  0  0  0  0  0  0  0  0
  189.3630  177.9200  140.8580 O   0  0  0  0  0  0  0  0  0  0  0  0
  185.8880  178.8720  138.2170 N   0  0  0  0  0  2  0  0  0  0  0  0
  189.1550  177.1320  137.1860 C   0  0  2  0  0  3  0  0  0  0  0  0
  186.8750  179.1540  141.4130 C   0  0  0  0  0  2  0  0  0  0  0  0
  185.4140  178.9510  139.4960 O   0  0  0  0  0  0  0  0  0  0  0  0
  186.3780  178.2570  140.2820 C   0  0  1  0  0  3  0  0  0  0  0  0
  189.8280  177.3120  138.5760 C   0  0  2  0  0  3  0  0  0  0  0  0
  188.6800  177.3930  141.9650 C   0  0  2  0  0  3  0  0  0  0  0  0
  187.6320  178.3800  142.5020 C   0  0  0  0  0  2  0  0  0  0  0  0
  190.5990  174.8670  138.4490 C   0  0  0  0  0  2  0  0  0  0  0  0
  191.0840  174.5300  137.0460 C   0  0  0  0  0  2  0  0  0  0  0  0
  193.5430  175.1270  137.3890 C   0  0  2  0  0  3  0  0  0  0  0  0
  192.5200  174.0160  137.1040 C   0  0  2  0  0  3  0  0  0  0  0  0
  193.3160  175.7880  138.6220 O   0  0  0  0  0  0  0  0  0  0  0  0
  192.3390  176.7870  138.4450 C   0  0  1  0  0  3  0  0  0  0  0  0
  193.8420  176.0530  136.2040 C   0  0  0  0  0  1  0  0  0  0  0  0
  190.9500  176.2990  138.8810 C   0  0  1  0  0  3  0  0  0  0  0  0
  192.9800  177.6660  140.6820 C   0  0  0  0  0  1  0  0  0  0  0  0
  192.7310  178.0280  139.2320 C   0  0  0  0  0  2  0  0  0  0  0  0
  193.0230  172.0450  135.8900 C   0  0  0  0  0  2  0  0  0  0  0  0
  192.8580  173.3170  135.8890 N   0  0  0  0  0  0  0  0  0  0  0  0
  190.7170  176.1660  142.7300 C   0  0  0  0  0  3  0  0  0  0  0  0
  189.6350  176.9950  143.0430 C   0  0  0  0  0  0  0  0  0  0  0  0
  189.4430  177.4160  144.3690 C   0  0  0  0  0  3  0  0  0  0  0  0
  190.1640  177.4430  146.6410 F   0  0  0  0  0  0  0  0  0  0  0  0
  191.4210  176.1930  145.0460 C   0  0  0  0  0  3  0  0  0  0  0  0
  190.3380  177.0170  145.3660 C   0  0  0  0  0  0  0  0  0  0  0  0
  191.6090  175.7660  143.7290 C   0  0  0  0  0  3  0  0  0  0  0  0
  190.1670  177.2960  136.0560 C   0  0  0  0  0  2  0  0  0  0  0  0
  189.8840  176.3610  134.9210 C   0  0  0  0  0  0  0  0  0  0  0  0
  190.8110  175.8090  134.3480 O   0  0  0  0  0  0  0  0  0  0  0  0
  188.4780  176.0870  134.4980 C   0  0  0  0  0  2  0  0  0  0  0  0
  188.1170  174.6410  134.7750 C   0  0  0  0  0  1  0  0  0  0  0  0
  1 10  1  0  0  0  0
  2  7  1  0  0  0  0
  2  4  1  0  0  0  0
  3  1  1  6  0  0  0
  3  5  1  0  0  0  0
  4  6  1  0  0  0  0
  4  1  2  0  0  0  0
  5 12  1  0  0  0  0
  6  9  1  0  0  0  0
  7 33  1  6  0  0  0
  7 11  1  0  0  0  0
  8 13  1  0  0  0  0
  9 10  1  0  0  0  0
 10  8  1  1  0  0  0
 11 21  1  1  0  0  0
 11  3  1  0  0  0  0
 12 13  1  0  0  0  0
 12 27  1  1  0  0  0
 15 17  1  0  0  0  0
 15 14  1  0  0  0  0
 16 20  1  6  0  0  0
 16 18  1  0  0  0  0
 17 25  1  6  0  0  0
 17 16  1  0  0  0  0
 19 18  1  0  0  0  0
 19 21  1  0  0  0  0
 19 23  1  1  0  0  0
 21 14  1  6  0  0  0
 23 22  1  0  0  0  0
 25 24  2  0  0  0  0
 26 27  2  0  0  0  0
 26 32  1  0  0  0  0
 27 28  1  0  0  0  0
 28 31  2  0  0  0  0
 30 31  1  0  0  0  0
 31 29  1  0  0  0  0
 32 30  2  0  0  0  0
 34 33  1  0  0  0  0
 35 34  2  0  0  0  0
 36 37  1  0  0  0  0
 36 34  1  0  0  0  0
M  END
>  <MODEL>
9

>  <REMARK>
 VINA RESULT:      -4.7      4.584      9.012
  Name = 
  7 active torsions:
  status: ('A' for Active; 'I' for Inactive)
    1  A    between atoms: C_3  and  C_21
    2  A    between atoms: C_6  and  C_31
    3  A    between atoms: C_17  and  N_23
    4  A    between atoms: C_20  and  C_25
    5  A    between atoms: C_21  and  C_25
    6  A    between atoms: C_27  and  C_33
    7  A    between atoms: C_29  and  C_36
                            x       y       z     vdW  Elec       q    Type
                         _______ _______ _______ _____ _____    ______ ____

>  <TORSDO>
F 7

$$$$
