=
 OpenBabel10272400583D

 27 31  0  0  1  0  0  0  0  0999 V2000
  187.5520  177.9780  142.0650 N   0  0  0  0  0  0  0  0  0  0  0  0
  186.7200  177.5120  144.1680 C   0  0  2  0  0  3  0  0  0  0  0  0
  189.9720  176.9370  142.6160 N   0  0  0  0  0  0  0  0  0  0  0  0
  189.6460  177.4600  147.3420 C   0  0  0  0  0  3  0  0  0  0  0  0
  191.0190  177.2830  147.4080 C   0  0  0  0  0  3  0  0  0  0  0  0
  187.6490  177.1220  146.3160 N   0  0  0  0  0  2  0  0  0  0  0  0
  191.0230  176.5550  145.1030 C   0  0  0  0  0  0  0  0  0  0  0  0
  190.1480  177.3900  138.8880 C   0  0  0  0  0  2  0  0  0  0  0  0
  191.7800  175.9940  144.0790 O   0  0  0  0  0  1  0  0  0  0  0  0
  189.3090  178.5860  138.8860 N   0  0  0  0  0  0  0  0  0  0  0  0
  189.6310  176.8840  144.9470 C   0  0  0  0  0  0  0  0  0  0  0  0
  187.7840  177.5490  143.3400 C   0  0  0  0  0  0  0  0  0  0  0  0
  191.6930  176.7900  146.3050 C   0  0  0  0  0  3  0  0  0  0  0  0
  188.9330  177.1930  146.1710 C   0  0  0  0  0  0  0  0  0  0  0  0
  188.4680  177.9000  141.0770 C   0  0  0  0  0  0  0  0  0  0  0  0
  189.1050  177.0580  143.6690 C   0  0  0  0  0  0  0  0  0  0  0  0
  190.7440  177.1790  140.2810 C   0  0  0  0  0  2  0  0  0  0  0  0
  186.7390  176.6060  145.3290 C   0  0  0  0  0  2  0  0  0  0  0  0
  188.8700  178.7870  137.5170 C   0  0  0  0  0  1  0  0  0  0  0  0
  188.1090  178.3100  139.6770 C   0  0  0  0  0  2  0  0  0  0  0  0
  189.6900  177.2960  141.3430 C   0  0  0  0  0  0  0  0  0  0  0  0
  182.9640  179.4180  143.2900 C   0  0  0  0  0  3  0  0  0  0  0  0
  185.4310  178.1950  143.8610 C   0  0  0  0  0  0  0  0  0  0  0  0
  184.8400  178.0560  142.5950 C   0  0  0  0  0  3  0  0  0  0  0  0
  183.6160  178.6670  142.3090 C   0  0  0  0  0  3  0  0  0  0  0  0
  183.5340  179.5540  144.5580 C   0  0  0  0  0  3  0  0  0  0  0  0
  184.7570  178.9420  144.8440 C   0  0  0  0  0  3  0  0  0  0  0  0
  1 12  1  0  0  0  0
  2 23  1  6  0  0  0
  2 18  1  0  0  0  0
  3 16  1  0  0  0  0
  4  5  1  0  0  0  0
  7 13  1  0  0  0  0
  8 17  1  0  0  0  0
  9  7  1  0  0  0  0
 10  8  1  0  0  0  0
 10 20  1  0  0  0  0
 11  7  2  0  0  0  0
 11 14  1  0  0  0  0
 12 16  2  0  0  0  0
 12  2  1  0  0  0  0
 13  5  2  0  0  0  0
 14  6  1  0  0  0  0
 14  4  2  0  0  0  0
 15 21  1  0  0  0  0
 15  1  2  0  0  0  0
 16 11  1  0  0  0  0
 17 21  1  0  0  0  0
 18  6  1  0  0  0  0
 19 10  1  0  0  0  0
 20 15  1  0  0  0  0
 21  3  2  0  0  0  0
 22 26  1  0  0  0  0
 23 27  1  0  0  0  0
 24 23  2  0  0  0  0
 25 24  1  0  0  0  0
 25 22  2  0  0  0  0
 26 27  2  0  0  0  0
M  END
>  <MODEL>
1

>  <REMARK>
 VINA RESULT:     -10.4      0.000      0.000
  Name = 
  1 active torsions:
  status: ('A' for Active; 'I' for Inactive)
    1  A    between atoms: C_2  and  C_9
                            x       y       z     vdW  Elec       q    Type
                         _______ _______ _______ _____ _____    ______ ____

>  <TORSDO>
F 1

$$$$
=
 OpenBabel10272400583D

 27 31  0  0  1  0  0  0  0  0999 V2000
  187.4880  177.9320  142.8320 N   0  0  0  0  0  0  0  0  0  0  0  0
  189.7510  177.7300  142.4220 C   0  0  2  0  0  3  0  0  0  0  0  0
  187.8190  178.0690  145.4980 N   0  0  0  0  0  0  0  0  0  0  0  0
  192.0350  175.8470  145.5670 C   0  0  0  0  0  3  0  0  0  0  0  0
  191.8560  175.6520  146.9270 C   0  0  0  0  0  3  0  0  0  0  0  0
  191.6470  177.0220  143.6630 N   0  0  0  0  0  2  0  0  0  0  0  0
  189.9940  177.1930  146.8900 C   0  0  0  0  0  0  0  0  0  0  0  0
  184.2160  179.0700  145.1070 C   0  0  0  0  0  2  0  0  0  0  0  0
  189.0840  177.9100  147.6600 O   0  0  0  0  0  1  0  0  0  0  0  0
  183.9900  178.2060  143.9510 N   0  0  0  0  0  0  0  0  0  0  0  0
  190.0440  177.2930  145.4550 C   0  0  0  0  0  0  0  0  0  0  0  0
  188.7490  177.7640  143.3250 C   0  0  0  0  0  0  0  0  0  0  0  0
  190.8670  176.3580  147.5890 C   0  0  0  0  0  3  0  0  0  0  0  0
  191.2100  176.7090  144.8400 C   0  0  0  0  0  0  0  0  0  0  0  0
  186.4110  178.1670  143.6100 C   0  0  0  0  0  0  0  0  0  0  0  0
  188.9300  177.7600  144.7600 C   0  0  0  0  0  0  0  0  0  0  0  0
  185.4320  178.5760  145.8920 C   0  0  0  0  0  2  0  0  0  0  0  0
  191.1180  178.0820  142.8460 C   0  0  0  0  0  2  0  0  0  0  0  0
  182.7660  178.6630  143.3190 C   0  0  0  0  0  1  0  0  0  0  0  0
  185.0690  178.4300  142.9880 C   0  0  0  0  0  2  0  0  0  0  0  0
  186.5940  178.3110  144.9790 C   0  0  0  0  0  0  0  0  0  0  0  0
  189.1200  177.2680  138.1920 C   0  0  0  0  0  3  0  0  0  0  0  0
  189.5190  177.5480  140.9610 C   0  0  0  0  0  0  0  0  0  0  0  0
  188.5480  178.3150  140.2980 C   0  0  0  0  0  3  0  0  0  0  0  0
  188.3460  178.1730  138.9220 C   0  0  0  0  0  3  0  0  0  0  0  0
  190.0980  176.5070  138.8370 C   0  0  0  0  0  3  0  0  0  0  0  0
  190.3000  176.6500  140.2120 C   0  0  0  0  0  3  0  0  0  0  0  0
  1 12  2  0  0  0  0
  1 15  1  0  0  0  0
  2 23  1  6  0  0  0
  2 18  1  0  0  0  0
  2 12  1  0  0  0  0
  4  5  1  0  0  0  0
  5 13  2  0  0  0  0
  6 14  1  0  0  0  0
  7 13  1  0  0  0  0
  7  9  1  0  0  0  0
  8 17  1  0  0  0  0
 10  8  1  0  0  0  0
 11  7  2  0  0  0  0
 12 16  1  0  0  0  0
 14 11  1  0  0  0  0
 14  4  2  0  0  0  0
 15 21  2  0  0  0  0
 16 11  1  0  0  0  0
 16  3  2  0  0  0  0
 18  6  1  0  0  0  0
 19 10  1  0  0  0  0
 20 15  1  0  0  0  0
 20 10  1  0  0  0  0
 21  3  1  0  0  0  0
 21 17  1  0  0  0  0
 22 26  2  0  0  0  0
 22 25  1  0  0  0  0
 24 23  1  0  0  0  0
 25 24  2  0  0  0  0
 26 27  1  0  0  0  0
 27 23  2  0  0  0  0
M  END
>  <MODEL>
2

>  <REMARK>
 VINA RESULT:     -10.2      1.616      5.242
  Name = 
  1 active torsions:
  status: ('A' for Active; 'I' for Inactive)
    1  A    between atoms: C_2  and  C_9
                            x       y       z     vdW  Elec       q    Type
                         _______ _______ _______ _____ _____    ______ ____

>  <TORSDO>
F 1

$$$$
=
 OpenBabel10272400583D

 27 31  0  0  1  0  0  0  0  0999 V2000
  186.6240  178.0890  142.3080 N   0  0  0  0  0  0  0  0  0  0  0  0
  188.8970  178.0420  142.7120 C   0  0  2  0  0  3  0  0  0  0  0  0
  186.0080  178.4500  144.9020 N   0  0  0  0  0  0  0  0  0  0  0  0
  190.0490  176.5910  146.6130 C   0  0  0  0  0  3  0  0  0  0  0  0
  189.4220  176.4840  147.8440 C   0  0  0  0  0  3  0  0  0  0  0  0
  190.2820  177.5860  144.5850 N   0  0  0  0  0  2  0  0  0  0  0  0
  187.6120  177.8610  147.0280 C   0  0  0  0  0  0  0  0  0  0  0  0
  182.7150  179.1220  143.2160 C   0  0  0  0  0  2  0  0  0  0  0  0
  186.4560  178.5570  147.3690 O   0  0  0  0  0  1  0  0  0  0  0  0
  182.9460  178.1590  142.1430 N   0  0  0  0  0  0  0  0  0  0  0  0
  188.1470  177.8580  145.6920 C   0  0  0  0  0  0  0  0  0  0  0  0
  187.6450  178.0610  143.2140 C   0  0  0  0  0  0  0  0  0  0  0  0
  188.2310  177.1550  148.0590 C   0  0  0  0  0  3  0  0  0  0  0  0
  189.4830  177.3270  145.5690 C   0  0  0  0  0  0  0  0  0  0  0  0
  185.3340  178.2920  142.6480 C   0  0  0  0  0  0  0  0  0  0  0  0
  187.3190  178.1790  144.6180 C   0  0  0  0  0  0  0  0  0  0  0  0
  183.6090  178.7890  144.4120 C   0  0  0  0  0  2  0  0  0  0  0  0
  190.0140  178.5340  143.5380 C   0  0  0  0  0  2  0  0  0  0  0  0
  181.9930  178.4660  141.0920 C   0  0  0  0  0  1  0  0  0  0  0  0
  184.2780  178.3980  141.5850 C   0  0  0  0  0  2  0  0  0  0  0  0
  185.0260  178.5520  143.9770 C   0  0  0  0  0  0  0  0  0  0  0  0
  189.7920  177.2140  138.5870 C   0  0  0  0  0  3  0  0  0  0  0  0
  189.1930  177.7330  141.2840 C   0  0  0  0  0  0  0  0  0  0  0  0
  188.5180  178.4130  140.2580 C   0  0  0  0  0  3  0  0  0  0  0  0
  188.8120  178.1530  138.9170 C   0  0  0  0  0  3  0  0  0  0  0  0
  190.4800  176.5380  139.5960 C   0  0  0  0  0  3  0  0  0  0  0  0
  190.1870  176.8000  140.9380 C   0  0  0  0  0  3  0  0  0  0  0  0
  1 15  2  0  0  0  0
  1 12  1  0  0  0  0
  2 23  1  6  0  0  0
  2 12  1  0  0  0  0
  2 18  1  0  0  0  0
  4  5  1  0  0  0  0
  5 13  2  0  0  0  0
  6 14  1  0  0  0  0
  7  9  1  0  0  0  0
  7 13  1  0  0  0  0
  8 17  1  0  0  0  0
 10  8  1  0  0  0  0
 11  7  2  0  0  0  0
 12 16  2  0  0  0  0
 14 11  1  0  0  0  0
 14  4  2  0  0  0  0
 15 21  1  0  0  0  0
 16  3  1  0  0  0  0
 16 11  1  0  0  0  0
 18  6  1  0  0  0  0
 19 10  1  0  0  0  0
 20 10  1  0  0  0  0
 20 15  1  0  0  0  0
 21 17  1  0  0  0  0
 21  3  2  0  0  0  0
 22 25  2  0  0  0  0
 22 26  1  0  0  0  0
 24 23  2  0  0  0  0
 25 24  1  0  0  0  0
 26 27  2  0  0  0  0
 27 23  1  0  0  0  0
M  END
>  <MODEL>
3

>  <REMARK>
 VINA RESULT:      -9.7      1.978      5.291
  Name = 
  1 active torsions:
  status: ('A' for Active; 'I' for Inactive)
    1  A    between atoms: C_2  and  C_9
                            x       y       z     vdW  Elec       q    Type
                         _______ _______ _______ _____ _____    ______ ____

>  <TORSDO>
F 1

$$$$
=
 OpenBabel10272400583D

 27 31  0  0  1  0  0  0  0  0999 V2000
  187.2920  178.1360  142.3940 N   0  0  0  0  0  0  0  0  0  0  0  0
  185.5140  178.7980  143.7100 C   0  0  2  0  0  3  0  0  0  0  0  0
  186.0070  178.6900  140.0960 N   0  0  0  0  0  0  0  0  0  0  0  0
  181.6150  178.3340  141.9120 C   0  0  0  0  0  3  0  0  0  0  0  0
  181.1380  178.2380  140.6150 C   0  0  0  0  0  3  0  0  0  0  0  0
  183.1720  179.0390  143.4070 N   0  0  0  0  0  2  0  0  0  0  0  0
  183.3060  178.9060  139.7820 C   0  0  0  0  0  0  0  0  0  0  0  0
  189.5300  178.1390  138.9060 C   0  0  0  0  0  2  0  0  0  0  0  0
  184.0370  179.2870  138.6600 O   0  0  0  0  0  1  0  0  0  0  0  0
  189.8300  177.1320  139.9210 N   0  0  0  0  0  0  0  0  0  0  0  0
  183.8810  178.8550  141.1000 C   0  0  0  0  0  0  0  0  0  0  0  0
  185.9890  178.5350  142.4750 C   0  0  0  0  0  0  0  0  0  0  0  0
  181.9710  178.5670  139.5600 C   0  0  0  0  0  3  0  0  0  0  0  0
  182.9330  178.7130  142.1780 C   0  0  0  0  0  0  0  0  0  0  0  0
  187.9610  178.0130  141.2280 C   0  0  0  0  0  0  0  0  0  0  0  0
  185.2640  178.7630  141.2440 C   0  0  0  0  0  0  0  0  0  0  0  0
  188.0150  178.2560  138.7240 C   0  0  0  0  0  2  0  0  0  0  0  0
  184.3630  179.7050  143.8630 C   0  0  0  0  0  2  0  0  0  0  0  0
  191.2740  176.9950  139.9620 C   0  0  0  0  0  1  0  0  0  0  0  0
  189.4200  177.6540  141.2250 C   0  0  0  0  0  2  0  0  0  0  0  0
  187.3200  178.3690  140.0490 C   0  0  0  0  0  0  0  0  0  0  0  0
  187.5950  177.6320  147.2890 C   0  0  0  0  0  3  0  0  0  0  0  0
  186.2160  178.3760  144.9550 C   0  0  0  0  0  0  0  0  0  0  0  0
  187.3550  177.5570  144.8820 C   0  0  0  0  0  3  0  0  0  0  0  0
  188.0390  177.1840  146.0420 C   0  0  0  0  0  3  0  0  0  0  0  0
  186.4720  178.4560  147.3750 C   0  0  0  0  0  3  0  0  0  0  0  0
  185.7890  178.8310  146.2150 C   0  0  0  0  0  3  0  0  0  0  0  0
  1 12  1  0  0  0  0
  2 18  1  0  0  0  0
  2 23  1  1  0  0  0
  3 16  1  0  0  0  0
  4 14  1  0  0  0  0
  5  4  2  0  0  0  0
  6 18  1  0  0  0  0
  7 11  1  0  0  0  0
  8 10  1  0  0  0  0
  9  7  1  0  0  0  0
 10 19  1  0  0  0  0
 10 20  1  0  0  0  0
 11 16  1  0  0  0  0
 11 14  2  0  0  0  0
 12  2  1  0  0  0  0
 13  7  2  0  0  0  0
 13  5  1  0  0  0  0
 14  6  1  0  0  0  0
 15  1  2  0  0  0  0
 16 12  2  0  0  0  0
 17  8  1  0  0  0  0
 17 21  1  0  0  0  0
 20 15  1  0  0  0  0
 21  3  2  0  0  0  0
 21 15  1  0  0  0  0
 22 26  1  0  0  0  0
 23 27  1  0  0  0  0
 24 23  2  0  0  0  0
 24 25  1  0  0  0  0
 25 22  2  0  0  0  0
 27 26  2  0  0  0  0
M  END
>  <MODEL>
4

>  <REMARK>
 VINA RESULT:      -9.5      2.674      5.911
  Name = 
  1 active torsions:
  status: ('A' for Active; 'I' for Inactive)
    1  A    between atoms: C_2  and  C_9
                            x       y       z     vdW  Elec       q    Type
                         _______ _______ _______ _____ _____    ______ ____

>  <TORSDO>
F 1

$$$$
=
 OpenBabel10272400583D

 27 31  0  0  1  0  0  0  0  0999 V2000
  186.3490  178.3750  141.9630 N   0  0  0  0  0  0  0  0  0  0  0  0
  187.8130  177.4230  143.4740 C   0  0  2  0  0  3  0  0  0  0  0  0
  187.8830  177.7550  139.8410 N   0  0  0  0  0  0  0  0  0  0  0  0
  191.9640  177.4390  142.2810 C   0  0  0  0  0  3  0  0  0  0  0  0
  192.6370  177.5260  141.0740 C   0  0  0  0  0  3  0  0  0  0  0  0
  190.1240  176.8830  143.4910 N   0  0  0  0  0  2  0  0  0  0  0  0
  190.5500  177.1940  139.9000 C   0  0  0  0  0  0  0  0  0  0  0  0
  184.6740  178.8270  138.2000 C   0  0  0  0  0  2  0  0  0  0  0  0
  189.9530  176.9640  138.6650 O   0  0  0  0  0  1  0  0  0  0  0  0
  184.3560  179.8190  139.2230 N   0  0  0  0  0  0  0  0  0  0  0  0
  189.7960  177.2620  141.1240 C   0  0  0  0  0  0  0  0  0  0  0  0
  187.5640  177.8010  142.2030 C   0  0  0  0  0  0  0  0  0  0  0  0
  191.9360  177.3590  139.8920 C   0  0  0  0  0  3  0  0  0  0  0  0
  190.5830  177.2280  142.3320 C   0  0  0  0  0  0  0  0  0  0  0  0
  185.8830  178.6380  140.7240 C   0  0  0  0  0  0  0  0  0  0  0  0
  188.4300  177.5320  141.0750 C   0  0  0  0  0  0  0  0  0  0  0  0
  186.1720  178.5160  138.2280 C   0  0  0  0  0  2  0  0  0  0  0  0
  188.8050  176.3640  143.7300 C   0  0  0  0  0  2  0  0  0  0  0  0
  182.9510  180.1460  139.0680 C   0  0  0  0  0  1  0  0  0  0  0  0
  184.4980  179.1900  140.5370 C   0  0  0  0  0  2  0  0  0  0  0  0
  186.6420  178.2510  139.6280 C   0  0  0  0  0  0  0  0  0  0  0  0
  185.4070  178.6740  146.8120 C   0  0  0  0  0  3  0  0  0  0  0  0
  186.9920  177.8800  144.6300 C   0  0  0  0  0  0  0  0  0  0  0  0
  185.6640  178.2920  144.4370 C   0  0  0  0  0  3  0  0  0  0  0  0
  184.8770  178.6910  145.5200 C   0  0  0  0  0  3  0  0  0  0  0  0
  186.7220  178.2550  147.0220 C   0  0  0  0  0  3  0  0  0  0  0  0
  187.5090  177.8550  145.9380 C   0  0  0  0  0  3  0  0  0  0  0  0
  1 12  1  0  0  0  0
  2 18  1  0  0  0  0
  2 23  1  6  0  0  0
  3 16  1  0  0  0  0
  4 14  1  0  0  0  0
  5  4  2  0  0  0  0
  6 18  1  0  0  0  0
  7 11  1  0  0  0  0
  8 17  1  0  0  0  0
  8 10  1  0  0  0  0
  9  7  1  0  0  0  0
 10 20  1  0  0  0  0
 11 14  2  0  0  0  0
 12  2  1  0  0  0  0
 13  7  2  0  0  0  0
 13  5  1  0  0  0  0
 14  6  1  0  0  0  0
 15  1  2  0  0  0  0
 16 11  1  0  0  0  0
 16 12  2  0  0  0  0
 17 21  1  0  0  0  0
 19 10  1  0  0  0  0
 20 15  1  0  0  0  0
 21  3  2  0  0  0  0
 21 15  1  0  0  0  0
 22 26  1  0  0  0  0
 23 27  1  0  0  0  0
 24 23  2  0  0  0  0
 24 25  1  0  0  0  0
 25 22  2  0  0  0  0
 27 26  2  0  0  0  0
M  END
>  <MODEL>
5

>  <REMARK>
 VINA RESULT:      -9.3      2.269      4.219
  Name = 
  1 active torsions:
  status: ('A' for Active; 'I' for Inactive)
    1  A    between atoms: C_2  and  C_9
                            x       y       z     vdW  Elec       q    Type
                         _______ _______ _______ _____ _____    ______ ____

>  <TORSDO>
F 1

$$$$
=
 OpenBabel10272400583D

 27 31  0  0  1  0  0  0  0  0999 V2000
  187.0250  177.9740  144.0340 N   0  0  0  0  0  0  0  0  0  0  0  0
  186.3130  178.5740  141.9200 C   0  0  2  0  0  3  0  0  0  0  0  0
  189.5850  177.6750  143.2620 N   0  0  0  0  0  0  0  0  0  0  0  0
  188.6070  176.9140  138.6600 C   0  0  0  0  0  3  0  0  0  0  0  0
  189.8890  176.4080  138.5210 C   0  0  0  0  0  3  0  0  0  0  0  0
  187.1090  178.2630  139.7060 N   0  0  0  0  0  2  0  0  0  0  0  0
  190.4520  177.2650  140.7090 C   0  0  0  0  0  0  0  0  0  0  0  0
  189.8800  177.5580  147.0080 C   0  0  0  0  0  2  0  0  0  0  0  0
  191.4770  177.4940  141.6230 O   0  0  0  0  0  1  0  0  0  0  0  0
  188.5820  176.9130  147.1980 N   0  0  0  0  0  0  0  0  0  0  0  0
  189.0900  177.6580  140.9580 C   0  0  0  0  0  0  0  0  0  0  0  0
  187.3090  178.1140  142.7060 C   0  0  0  0  0  0  0  0  0  0  0  0
  190.8170  176.6240  139.5250 C   0  0  0  0  0  3  0  0  0  0  0  0
  188.2170  177.6020  139.8120 C   0  0  0  0  0  0  0  0  0  0  0  0
  187.9590  177.7010  144.9690 C   0  0  0  0  0  0  0  0  0  0  0  0
  188.6680  177.8810  142.2670 C   0  0  0  0  0  0  0  0  0  0  0  0
  190.3710  177.3220  145.5780 C   0  0  0  0  0  2  0  0  0  0  0  0
  186.6460  179.2440  140.6500 C   0  0  0  0  0  2  0  0  0  0  0  0
  188.2320  177.0810  148.5960 C   0  0  0  0  0  1  0  0  0  0  0  0
  187.5830  177.6500  146.4230 C   0  0  0  0  0  2  0  0  0  0  0  0
  189.2900  177.6200  144.5810 C   0  0  0  0  0  0  0  0  0  0  0  0
  182.2070  178.7880  143.1860 C   0  0  0  0  0  3  0  0  0  0  0  0
  184.8900  178.6220  142.3610 C   0  0  0  0  0  0  0  0  0  0  0  0
  184.5680  179.0100  143.6720 C   0  0  0  0  0  3  0  0  0  0  0  0
  183.2350  179.0880  144.0840 C   0  0  0  0  0  3  0  0  0  0  0  0
  182.5130  178.4140  141.8760 C   0  0  0  0  0  3  0  0  0  0  0  0
  183.8460  178.3370  141.4640 C   0  0  0  0  0  3  0  0  0  0  0  0
  1 15  1  0  0  0  0
  2 23  1  1  0  0  0
  2 12  1  0  0  0  0
  3 21  1  0  0  0  0
  4 14  1  0  0  0  0
  5  4  2  0  0  0  0
  5 13  1  0  0  0  0
  6 14  1  0  0  0  0
  6 18  1  0  0  0  0
  7 11  1  0  0  0  0
  7  9  1  0  0  0  0
  8 10  1  0  0  0  0
 10 19  1  0  0  0  0
 11 16  1  0  0  0  0
 12  1  2  0  0  0  0
 13  7  2  0  0  0  0
 14 11  2  0  0  0  0
 15 20  1  0  0  0  0
 16 12  1  0  0  0  0
 16  3  2  0  0  0  0
 17  8  1  0  0  0  0
 18  2  1  0  0  0  0
 20 10  1  0  0  0  0
 21 15  2  0  0  0  0
 21 17  1  0  0  0  0
 22 25  1  0  0  0  0
 23 24  1  0  0  0  0
 24 25  2  0  0  0  0
 26 22  2  0  0  0  0
 27 26  1  0  0  0  0
 27 23  2  0  0  0  0
M  END
>  <MODEL>
6

>  <REMARK>
 VINA RESULT:      -9.1      1.387      5.365
  Name = 
  1 active torsions:
  status: ('A' for Active; 'I' for Inactive)
    1  A    between atoms: C_2  and  C_9
                            x       y       z     vdW  Elec       q    Type
                         _______ _______ _______ _____ _____    ______ ____

>  <TORSDO>
F 1

$$$$
=
 OpenBabel10272400583D

 27 31  0  0  1  0  0  0  0  0999 V2000
  187.7380  177.9210  143.6160 N   0  0  0  0  0  0  0  0  0  0  0  0
  186.3750  178.6220  141.8890 C   0  0  2  0  0  3  0  0  0  0  0  0
  189.8890  177.6500  142.0220 N   0  0  0  0  0  0  0  0  0  0  0  0
  187.4210  177.1100  137.9810 C   0  0  0  0  0  3  0  0  0  0  0  0
  188.5730  176.6070  137.4010 C   0  0  0  0  0  3  0  0  0  0  0  0
  186.3830  178.4130  139.5250 N   0  0  0  0  0  2  0  0  0  0  0  0
  189.8490  177.3580  139.3110 C   0  0  0  0  0  0  0  0  0  0  0  0
  191.4120  177.3550  145.4470 C   0  0  0  0  0  2  0  0  0  0  0  0
  191.1230  177.5400  139.8400 O   0  0  0  0  0  1  0  0  0  0  0  0
  190.2400  176.7070  146.0300 N   0  0  0  0  0  0  0  0  0  0  0  0
  188.6550  177.7430  140.0170 C   0  0  0  0  0  0  0  0  0  0  0  0
  187.5660  178.1220  142.2770 C   0  0  0  0  0  0  0  0  0  0  0  0
  189.7860  176.7720  138.0460 C   0  0  0  0  0  3  0  0  0  0  0  0
  187.4490  177.7440  139.2260 C   0  0  0  0  0  0  0  0  0  0  0  0
  188.9250  177.6010  144.1730 C   0  0  0  0  0  0  0  0  0  0  0  0
  188.6970  177.9060  141.4000 C   0  0  0  0  0  0  0  0  0  0  0  0
  191.3940  177.1860  143.9270 C   0  0  0  0  0  2  0  0  0  0  0  0
  186.2780  179.3500  140.6110 C   0  0  0  0  0  2  0  0  0  0  0  0
  190.3780  176.8090  147.4710 C   0  0  0  0  0  1  0  0  0  0  0  0
  189.0540  177.4820  145.6650 C   0  0  0  0  0  2  0  0  0  0  0  0
  190.0490  177.5340  143.3610 C   0  0  0  0  0  0  0  0  0  0  0  0
  182.9390  178.7890  144.4720 C   0  0  0  0  0  3  0  0  0  0  0  0
  185.1810  178.6540  142.7800 C   0  0  0  0  0  0  0  0  0  0  0  0
  185.3400  178.7250  144.1740 C   0  0  0  0  0  3  0  0  0  0  0  0
  184.2260  178.7880  145.0160 C   0  0  0  0  0  3  0  0  0  0  0  0
  182.7660  178.7310  143.0880 C   0  0  0  0  0  3  0  0  0  0  0  0
  183.8800  178.6700  142.2460 C   0  0  0  0  0  3  0  0  0  0  0  0
  1 15  1  0  0  0  0
  2 12  1  0  0  0  0
  2 23  1  1  0  0  0
  3 21  1  0  0  0  0
  4 14  1  0  0  0  0
  5  4  2  0  0  0  0
  5 13  1  0  0  0  0
  6 18  1  0  0  0  0
  7  9  1  0  0  0  0
  7 11  1  0  0  0  0
  8 10  1  0  0  0  0
 10 19  1  0  0  0  0
 11 16  1  0  0  0  0
 12  1  2  0  0  0  0
 13  7  2  0  0  0  0
 14  6  1  0  0  0  0
 14 11  2  0  0  0  0
 15 20  1  0  0  0  0
 16  3  2  0  0  0  0
 16 12  1  0  0  0  0
 17  8  1  0  0  0  0
 18  2  1  0  0  0  0
 20 10  1  0  0  0  0
 21 17  1  0  0  0  0
 21 15  2  0  0  0  0
 22 25  1  0  0  0  0
 23 24  1  0  0  0  0
 24 25  2  0  0  0  0
 26 22  2  0  0  0  0
 27 23  2  0  0  0  0
 27 26  1  0  0  0  0
M  END
>  <MODEL>
7

>  <REMARK>
 VINA RESULT:      -8.9      1.616      5.432
  Name = 
  1 active torsions:
  status: ('A' for Active; 'I' for Inactive)
    1  A    between atoms: C_2  and  C_9
                            x       y       z     vdW  Elec       q    Type
                         _______ _______ _______ _____ _____    ______ ____

>  <TORSDO>
F 1

$$$$
=
 OpenBabel10272400583D

 27 31  0  0  1  0  0  0  0  0999 V2000
  189.4390  177.2330  142.7570 N   0  0  0  0  0  0  0  0  0  0  0  0
  188.7480  177.8050  144.8850 C   0  0  2  0  0  3  0  0  0  0  0  0
  187.3270  178.4140  141.5800 N   0  0  0  0  0  0  0  0  0  0  0  0
  184.4780  178.2010  145.3940 C   0  0  0  0  0  3  0  0  0  0  0  0
  183.4080  178.4420  144.5490 C   0  0  0  0  0  3  0  0  0  0  0  0
  186.6840  178.3810  145.9040 N   0  0  0  0  0  2  0  0  0  0  0  0
  184.9510  179.0100  142.7770 C   0  0  0  0  0  0  0  0  0  0  0  0
  189.5680  177.7150  138.6430 C   0  0  0  0  0  2  0  0  0  0  0  0
  185.0830  179.5330  141.4940 O   0  0  0  0  0  1  0  0  0  0  0  0
  190.1140  176.4860  139.2140 N   0  0  0  0  0  0  0  0  0  0  0  0
  186.0830  178.6110  143.5710 C   0  0  0  0  0  0  0  0  0  0  0  0
  188.4720  177.7570  143.5650 C   0  0  0  0  0  0  0  0  0  0  0  0
  183.6480  178.8880  143.2610 C   0  0  0  0  0  3  0  0  0  0  0  0
  185.7980  178.3560  144.9620 C   0  0  0  0  0  0  0  0  0  0  0  0
  189.3890  177.2830  141.4090 C   0  0  0  0  0  0  0  0  0  0  0  0
  187.2960  178.3280  142.9460 C   0  0  0  0  0  0  0  0  0  0  0  0
  188.2320  178.0470  139.3090 C   0  0  0  0  0  2  0  0  0  0  0  0
  188.0520  178.7880  145.7330 C   0  0  0  0  0  2  0  0  0  0  0  0
  191.3160  176.1730  138.4650 C   0  0  0  0  0  1  0  0  0  0  0  0
  190.5350  176.7620  140.5880 C   0  0  0  0  0  2  0  0  0  0  0  0
  188.3370  177.9570  140.8040 C   0  0  0  0  0  0  0  0  0  0  0  0
  192.0340  175.6770  146.6680 C   0  0  0  0  0  3  0  0  0  0  0  0
  189.8710  177.0460  145.5050 C   0  0  0  0  0  0  0  0  0  0  0  0
  190.9090  176.5380  144.7060 C   0  0  0  0  0  3  0  0  0  0  0  0
  191.9820  175.8540  145.2830 C   0  0  0  0  0  3  0  0  0  0  0  0
  191.0160  176.1870  147.4760 C   0  0  0  0  0  3  0  0  0  0  0  0
  189.9440  176.8730  146.8990 C   0  0  0  0  0  3  0  0  0  0  0  0
  1 12  1  0  0  0  0
  2 23  1  6  0  0  0
  2 18  1  0  0  0  0
  3 16  1  0  0  0  0
  5  4  2  0  0  0  0
  7 13  2  0  0  0  0
  7 11  1  0  0  0  0
  8 10  1  0  0  0  0
  8 17  1  0  0  0  0
  9  7  1  0  0  0  0
 10 20  1  0  0  0  0
 11 14  2  0  0  0  0
 12  2  1  0  0  0  0
 13  5  1  0  0  0  0
 14  4  1  0  0  0  0
 14  6  1  0  0  0  0
 15  1  2  0  0  0  0
 16 12  2  0  0  0  0
 16 11  1  0  0  0  0
 17 21  1  0  0  0  0
 18  6  1  0  0  0  0
 19 10  1  0  0  0  0
 20 15  1  0  0  0  0
 21 15  1  0  0  0  0
 21  3  2  0  0  0  0
 22 26  1  0  0  0  0
 23 27  1  0  0  0  0
 24 25  1  0  0  0  0
 24 23  2  0  0  0  0
 25 22  2  0  0  0  0
 27 26  2  0  0  0  0
M  END
>  <MODEL>
8

>  <REMARK>
 VINA RESULT:      -8.8      1.878      5.332
  Name = 
  1 active torsions:
  status: ('A' for Active; 'I' for Inactive)
    1  A    between atoms: C_2  and  C_9
                            x       y       z     vdW  Elec       q    Type
                         _______ _______ _______ _____ _____    ______ ____

>  <TORSDO>
F 1

$$$$
=
 OpenBabel10272400583D

 27 31  0  0  1  0  0  0  0  0999 V2000
  187.6210  178.0260  142.8160 N   0  0  0  0  0  0  0  0  0  0  0  0
  185.7720  178.7840  141.6580 C   0  0  2  0  0  3  0  0  0  0  0  0
  189.1390  177.8570  140.6010 N   0  0  0  0  0  0  0  0  0  0  0  0
  185.4940  177.4590  137.5570 C   0  0  0  0  0  3  0  0  0  0  0  0
  186.3960  176.9980  136.6120 C   0  0  0  0  0  3  0  0  0  0  0  0
  185.0130  178.6780  139.4120 N   0  0  0  0  0  2  0  0  0  0  0  0
  188.2220  177.6830  138.0390 C   0  0  0  0  0  0  0  0  0  0  0  0
  191.6900  177.4330  143.3300 C   0  0  0  0  0  2  0  0  0  0  0  0
  189.5990  177.8590  138.1340 O   0  0  0  0  0  1  0  0  0  0  0  0
  190.7700  176.7430  144.2320 N   0  0  0  0  0  0  0  0  0  0  0  0
  187.3220  178.0200  139.1100 C   0  0  0  0  0  0  0  0  0  0  0  0
  187.0250  178.2840  141.6150 C   0  0  0  0  0  0  0  0  0  0  0  0
  187.7520  177.1520  136.8370 C   0  0  0  0  0  3  0  0  0  0  0  0
  185.9250  178.0380  138.7530 C   0  0  0  0  0  0  0  0  0  0  0  0
  188.9240  177.6990  142.9430 C   0  0  0  0  0  0  0  0  0  0  0  0
  187.8100  178.1220  140.4110 C   0  0  0  0  0  0  0  0  0  0  0  0
  191.1800  177.3300  141.8920 C   0  0  0  0  0  2  0  0  0  0  0  0
  185.2670  179.5650  140.5150 C   0  0  0  0  0  2  0  0  0  0  0  0
  191.3670  176.7850  145.5530 C   0  0  0  0  0  1  0  0  0  0  0  0
  189.5300  177.5170  144.3060 C   0  0  0  0  0  2  0  0  0  0  0  0
  189.7240  177.6840  141.8090 C   0  0  0  0  0  0  0  0  0  0  0  0
  183.3600  178.7880  145.2190 C   0  0  0  0  0  3  0  0  0  0  0  0
  184.9320  178.7600  142.8880 C   0  0  0  0  0  0  0  0  0  0  0  0
  185.5340  178.7720  144.1570 C   0  0  0  0  0  3  0  0  0  0  0  0
  184.7530  178.7820  145.3160 C   0  0  0  0  0  3  0  0  0  0  0  0
  182.7470  178.7880  143.9640 C   0  0  0  0  0  3  0  0  0  0  0  0
  183.5280  178.7800  142.8050 C   0  0  0  0  0  3  0  0  0  0  0  0
  1 15  1  0  0  0  0
  2 23  1  1  0  0  0
  3 21  1  0  0  0  0
  4 14  1  0  0  0  0
  5 13  1  0  0  0  0
  5  4  2  0  0  0  0
  6 18  1  0  0  0  0
  7  9  1  0  0  0  0
  7 11  1  0  0  0  0
  8 10  1  0  0  0  0
 10 20  1  0  0  0  0
 10 19  1  0  0  0  0
 11 16  1  0  0  0  0
 12  2  1  0  0  0  0
 12  1  2  0  0  0  0
 13  7  2  0  0  0  0
 14 11  2  0  0  0  0
 14  6  1  0  0  0  0
 15 20  1  0  0  0  0
 16  3  2  0  0  0  0
 16 12  1  0  0  0  0
 17  8  1  0  0  0  0
 18  2  1  0  0  0  0
 21 17  1  0  0  0  0
 21 15  2  0  0  0  0
 22 25  1  0  0  0  0
 23 24  1  0  0  0  0
 24 25  2  0  0  0  0
 26 22  2  0  0  0  0
 27 23  2  0  0  0  0
 27 26  1  0  0  0  0
M  END
>  <MODEL>
9

>  <REMARK>
 VINA RESULT:      -8.7      2.154      5.699
  Name = 
  1 active torsions:
  status: ('A' for Active; 'I' for Inactive)
    1  A    between atoms: C_2  and  C_9
                            x       y       z     vdW  Elec       q    Type
                         _______ _______ _______ _____ _____    ______ ____

>  <TORSDO>
F 1

$$$$
