=
 OpenBabel10272414523D

 37 43  0  0  1  0  0  0  0  0999 V2000
  192.3470  176.7340  137.2510 C   0  0  2  0  0  3  0  0  0  0  0  0
  187.0730  172.5210  137.5150 C   0  0  0  0  0  2  0  0  0  0  0  0
  187.7260  176.6830  137.5000 C   0  0  0  0  0  0  0  0  0  0  0  0
  192.9170  175.9650  136.0720 C   0  0  1  0  0  3  0  0  0  0  0  0
  191.4570  176.2770  139.5390 C   0  0  0  0  0  2  0  0  0  0  0  0
  186.6460  174.7530  136.3470 C   0  0  2  0  0  3  0  0  0  0  0  0
  189.0740  177.2080  137.8800 C   0  0  1  0  0  3  0  0  0  0  0  0
  187.8180  175.4670  136.9760 C   0  0  0  0  0  0  0  0  0  0  0  0
  189.2110  177.4290  139.3780 C   0  0  0  0  0  0  0  0  0  0  0  0
  185.5380  175.7320  135.9290 C   0  0  0  0  0  2  0  0  0  0  0  0
  189.2210  175.0420  136.9820 C   0  0  2  0  0  3  0  0  0  0  0  0
  189.0300  172.6940  136.0050 C   0  0  0  0  0  3  0  0  0  0  0  0
  186.4120  178.6340  137.8570 O   0  0  0  0  0  0  0  0  0  0  0  0
  185.2090  176.7380  137.0390 C   0  0  0  0  0  2  0  0  0  0  0  0
  189.7380  173.6250  136.9480 C   0  0  0  0  0  2  0  0  0  0  0  0
  190.0940  176.5130  140.2060 C   0  0  0  0  0  2  0  0  0  0  0  0
  186.4580  177.4330  137.4860 C   0  0  0  0  0  0  0  0  0  0  0  0
  189.9460  176.0580  137.4600 C   0  0  2  0  0  3  0  0  0  0  0  0
  186.0780  173.6480  137.2400 C   0  0  0  0  0  2  0  0  0  0  0  0
  187.8340  172.1540  136.2750 C   0  0  0  0  0  3  0  0  0  0  0  0
  192.4130  175.1990  137.2770 C   0  0  2  0  0  0  0  0  0  0  0  0
  191.3240  175.9410  138.0470 C   0  0  1  0  0  0  0  0  0  0  0  0
  188.5330  178.4300  139.9540 C   0  0  0  0  0  3  0  0  0  0  0  0
  191.8810  174.5130  134.3490 C   0  0  0  0  0  1  0  0  0  0  0  0
  191.9040  175.9060  134.9420 C   0  0  0  0  0  2  0  0  0  0  0  0
  193.5690  174.6410  138.1400 C   0  0  0  0  0  2  0  0  0  0  0  0
  194.2720  173.3590  137.6670 C   0  0  0  0  0  2  0  0  0  0  0  0
  195.8990  174.0440  139.0060 C   0  0  0  0  0  1  0  0  0  0  0  0
  195.1880  172.9060  138.6230 O   0  0  0  0  0  0  0  0  0  0  0  0
  188.6230  178.7410  141.4150 C   0  0  0  0  0  2  0  0  0  0  0  0
  186.1370  178.8630  141.3860 C   0  0  0  0  0  3  0  0  0  0  0  0
  187.3060  178.5230  142.0740 C   0  0  0  0  0  0  0  0  0  0  0  0
  187.2250  178.0230  143.3810 C   0  0  0  0  0  3  0  0  0  0  0  0
  185.8950  177.3840  145.2520 F   0  0  0  0  0  0  0  0  0  0  0  0
  184.8100  178.2090  143.2990 C   0  0  0  0  0  3  0  0  0  0  0  0
  185.9770  177.8700  143.9910 C   0  0  0  0  0  0  0  0  0  0  0  0
  184.8900  178.7030  141.9950 C   0  0  0  0  0  3  0  0  0  0  0  0
  1 21  1  0  0  0  0
  1 22  1  0  0  0  0
  3  7  1  0  0  0  0
  4  1  1  0  0  0  0
  4 21  1  0  0  0  0
  5 16  1  0  0  0  0
  6  8  1  0  0  0  0
  6 19  1  0  0  0  0
  7  9  1  0  0  0  0
  8 11  1  0  0  0  0
  8  3  2  0  0  0  0
  9 23  2  0  0  0  0
  9 16  1  0  0  0  0
 10  6  1  0  0  0  0
 10 14  1  0  0  0  0
 11 18  1  0  0  0  0
 12 20  2  0  0  0  0
 12 15  1  0  0  0  0
 14 17  1  0  0  0  0
 15 11  1  0  0  0  0
 17  3  1  0  0  0  0
 17 13  2  0  0  0  0
 18  7  1  0  0  0  0
 18 22  1  0  0  0  0
 19  2  1  0  0  0  0
 20  2  1  0  0  0  0
 21 22  1  0  0  0  0
 21 26  1  0  0  0  0
 22  5  1  0  0  0  0
 23 30  1  0  0  0  0
 24 25  1  0  0  0  0
 25  4  1  0  0  0  0
 27 26  1  0  0  0  0
 27 29  1  0  0  0  0
 29 28  1  0  0  0  0
 30 32  1  0  0  0  0
 31 37  2  0  0  0  0
 31 32  1  0  0  0  0
 32 33  2  0  0  0  0
 33 36  1  0  0  0  0
 35 36  2  0  0  0  0
 36 34  1  0  0  0  0
 37 35  1  0  0  0  0
M  END
>  <MODEL>
1

>  <REMARK>
 VINA RESULT:      -7.5      0.000      0.000
  Name = 
  6 active torsions:
  status: ('A' for Active; 'I' for Inactive)
    1  A    between atoms: C_5  and  C_23
    2  A    between atoms: C_6  and  C_31
    3  A    between atoms: C_17  and  C_26
    4  A    between atoms: C_17  and  C_33
    5  A    between atoms: C_26  and  O_34
    6  A    between atoms: C_31  and  C_37
                            x       y       z     vdW  Elec       q    Type
                         _______ _______ _______ _____ _____    ______ ____

>  <TORSDO>
F 6

$$$$
=
 OpenBabel10272414523D

 37 43  0  0  1  0  0  0  0  0999 V2000
  189.2070  178.5590  137.2040 C   0  0  2  0  0  3  0  0  0  0  0  0
  185.1680  173.1700  137.7270 C   0  0  0  0  0  2  0  0  0  0  0  0
  184.8050  177.3600  137.9770 C   0  0  0  0  0  0  0  0  0  0  0  0
  189.7840  178.0160  135.9080 C   0  0  1  0  0  3  0  0  0  0  0  0
  188.7600  177.7800  139.5340 C   0  0  0  0  0  2  0  0  0  0  0  0
  184.0730  175.2860  136.8030 C   0  0  2  0  0  3  0  0  0  0  0  0
  186.0280  178.1800  138.2420 C   0  0  1  0  0  3  0  0  0  0  0  0
  185.1140  176.2330  137.3480 C   0  0  0  0  0  0  0  0  0  0  0  0
  186.3040  178.3510  139.7270 C   0  0  0  0  0  0  0  0  0  0  0  0
  182.7180  175.9820  136.5970 C   0  0  0  0  0  2  0  0  0  0  0  0
  186.5660  176.1660  137.1580 C   0  0  2  0  0  3  0  0  0  0  0  0
  186.8110  173.8970  136.0210 C   0  0  0  0  0  3  0  0  0  0  0  0
  183.1240  178.9070  138.6430 O   0  0  0  0  0  0  0  0  0  0  0  0
  182.3090  176.8180  137.8150 C   0  0  0  0  0  2  0  0  0  0  0  0
  187.3950  174.9240  136.9490 C   0  0  0  0  0  2  0  0  0  0  0  0
  187.4810  177.6390  140.3700 C   0  0  0  0  0  2  0  0  0  0  0  0
  183.4050  177.7750  138.1710 C   0  0  0  0  0  0  0  0  0  0  0  0
  187.0850  177.3030  137.6310 C   0  0  2  0  0  3  0  0  0  0  0  0
  183.9060  174.0310  137.6610 C   0  0  0  0  0  2  0  0  0  0  0  0
  185.8240  173.0660  136.3810 C   0  0  0  0  0  3  0  0  0  0  0  0
  189.6390  177.0890  137.0960 C   0  0  2  0  0  0  0  0  0  0  0  0
  188.5160  177.4990  138.0440 C   0  0  1  0  0  0  0  0  0  0  0  0
  185.4890  179.1240  140.4570 C   0  0  0  0  0  3  0  0  0  0  0  0
  188.7900  176.3620  134.3500 C   0  0  0  0  0  1  0  0  0  0  0  0
  188.6740  177.7680  134.9010 C   0  0  0  0  0  2  0  0  0  0  0  0
  190.9980  176.7880  137.7720 C   0  0  0  0  0  2  0  0  0  0  0  0
  191.4240  175.3190  137.9180 C   0  0  0  0  0  2  0  0  0  0  0  0
  192.9090  175.4170  136.2760 C   0  0  0  0  0  1  0  0  0  0  0  0
  192.7880  175.1620  137.6430 O   0  0  0  0  0  0  0  0  0  0  0  0
  185.6940  179.3710  141.9180 C   0  0  0  0  0  2  0  0  0  0  0  0
  184.4530  179.1280  144.0620 C   0  0  0  0  0  3  0  0  0  0  0  0
  184.4240  179.1580  142.6640 C   0  0  0  0  0  0  0  0  0  0  0  0
  183.2140  178.9480  141.9880 C   0  0  0  0  0  3  0  0  0  0  0  0
  180.8730  178.5080  142.0630 F   0  0  0  0  0  0  0  0  0  0  0  0
  182.0760  178.6800  144.1110 C   0  0  0  0  0  3  0  0  0  0  0  0
  182.0430  178.7070  142.7140 C   0  0  0  0  0  0  0  0  0  0  0  0
  183.2810  178.8930  144.7860 C   0  0  0  0  0  3  0  0  0  0  0  0
  1 22  1  0  0  0  0
  3 17  1  0  0  0  0
  3  7  1  0  0  0  0
  4 21  1  0  0  0  0
  4  1  1  0  0  0  0
  5 16  1  0  0  0  0
  6  8  1  0  0  0  0
  6 19  1  0  0  0  0
  7  9  1  0  0  0  0
  8  3  2  0  0  0  0
  9 16  1  0  0  0  0
  9 23  2  0  0  0  0
 10  6  1  0  0  0  0
 10 14  1  0  0  0  0
 11  8  1  0  0  0  0
 11 18  1  0  0  0  0
 12 20  2  0  0  0  0
 12 15  1  0  0  0  0
 14 17  1  0  0  0  0
 15 11  1  0  0  0  0
 17 13  2  0  0  0  0
 18 22  1  0  0  0  0
 18  7  1  0  0  0  0
 19  2  1  0  0  0  0
 20  2  1  0  0  0  0
 21  1  1  0  0  0  0
 21 26  1  0  0  0  0
 21 22  1  0  0  0  0
 22  5  1  0  0  0  0
 23 30  1  0  0  0  0
 24 25  1  0  0  0  0
 25  4  1  0  0  0  0
 26 27  1  0  0  0  0
 28 29  1  0  0  0  0
 29 27  1  0  0  0  0
 30 32  1  0  0  0  0
 31 37  1  0  0  0  0
 32 31  2  0  0  0  0
 33 32  1  0  0  0  0
 33 36  2  0  0  0  0
 34 36  1  0  0  0  0
 35 37  2  0  0  0  0
 36 35  1  0  0  0  0
M  END
>  <MODEL>
2

>  <REMARK>
 VINA RESULT:      -6.5      2.106      3.313
  Name = 
  6 active torsions:
  status: ('A' for Active; 'I' for Inactive)
    1  A    between atoms: C_5  and  C_23
    2  A    between atoms: C_6  and  C_31
    3  A    between atoms: C_17  and  C_26
    4  A    between atoms: C_17  and  C_33
    5  A    between atoms: C_26  and  O_34
    6  A    between atoms: C_31  and  C_37
                            x       y       z     vdW  Elec       q    Type
                         _______ _______ _______ _____ _____    ______ ____

>  <TORSDO>
F 6

$$$$
=
 OpenBabel10272414523D

 37 43  0  0  1  0  0  0  0  0999 V2000
  189.2670  178.3540  136.7370 C   0  0  2  0  0  3  0  0  0  0  0  0
  183.6310  174.9870  138.3290 C   0  0  0  0  0  2  0  0  0  0  0  0
  185.7200  178.3750  139.7100 C   0  0  0  0  0  0  0  0  0  0  0  0
  188.8560  178.3740  135.2750 C   0  0  1  0  0  3  0  0  0  0  0  0
  189.4940  176.7100  138.6030 C   0  0  0  0  0  2  0  0  0  0  0  0
  183.5790  177.5010  138.7770 C   0  0  2  0  0  3  0  0  0  0  0  0
  187.1670  178.5270  139.3630 C   0  0  1  0  0  3  0  0  0  0  0  0
  185.0780  177.6750  138.7830 C   0  0  0  0  0  0  0  0  0  0  0  0
  188.0810  177.8450  140.3670 C   0  0  0  0  0  0  0  0  0  0  0  0
  182.8740  178.5920  139.5990 C   0  0  0  0  0  2  0  0  0  0  0  0
  186.0270  177.2610  137.7450 C   0  0  2  0  0  3  0  0  0  0  0  0
  184.5130  175.9060  136.2040 C   0  0  0  0  0  3  0  0  0  0  0  0
  185.5970  179.8260  141.5910 O   0  0  0  0  0  0  0  0  0  0  0  0
  183.5320  178.7950  140.9700 C   0  0  0  0  0  2  0  0  0  0  0  0
  185.8800  176.0970  136.7960 C   0  0  0  0  0  2  0  0  0  0  0  0
  188.8300  176.5820  139.9810 C   0  0  0  0  0  2  0  0  0  0  0  0
  184.9970  179.0530  140.8000 C   0  0  0  0  0  0  0  0  0  0  0  0
  187.2160  177.7870  138.0550 C   0  0  2  0  0  3  0  0  0  0  0  0
  183.1410  176.1110  139.2410 C   0  0  0  0  0  2  0  0  0  0  0  0
  183.4940  175.3620  136.8830 C   0  0  0  0  0  3  0  0  0  0  0  0
  188.7480  177.0800  136.0540 C   0  0  2  0  0  0  0  0  0  0  0  0
  188.5420  177.2950  137.5500 C   0  0  1  0  0  0  0  0  0  0  0  0
  188.2040  178.3660  141.5950 C   0  0  0  0  0  3  0  0  0  0  0  0
  186.5730  178.0910  134.3480 C   0  0  0  0  0  1  0  0  0  0  0  0
  187.4890  179.0170  135.1210 C   0  0  0  0  0  2  0  0  0  0  0  0
  189.8650  176.0770  135.6780 C   0  0  0  0  0  2  0  0  0  0  0  0
  189.4890  174.5940  135.5380 C   0  0  0  0  0  2  0  0  0  0  0  0
  191.0970  173.9970  136.9390 C   0  0  0  0  0  1  0  0  0  0  0  0
  190.6190  173.7760  135.6470 O   0  0  0  0  0  0  0  0  0  0  0  0
  189.0980  177.7800  142.6430 C   0  0  0  0  0  2  0  0  0  0  0  0
  186.9860  177.7860  143.9600 C   0  0  0  0  0  3  0  0  0  0  0  0
  188.3810  177.6870  143.9440 C   0  0  0  0  0  0  0  0  0  0  0  0
  189.0840  177.5420  145.1480 C   0  0  0  0  0  3  0  0  0  0  0  0
  189.0630  177.3580  147.5240 F   0  0  0  0  0  0  0  0  0  0  0  0
  186.9930  177.5980  146.3720 C   0  0  0  0  0  3  0  0  0  0  0  0
  188.3870  177.5010  146.3600 C   0  0  0  0  0  0  0  0  0  0  0  0
  186.2920  177.7380  145.1720 C   0  0  0  0  0  3  0  0  0  0  0  0
  1 22  1  0  0  0  0
  2 19  1  0  0  0  0
  3 17  1  0  0  0  0
  4 21  1  0  0  0  0
  4  1  1  0  0  0  0
  5 16  1  0  0  0  0
  6  8  1  0  0  0  0
  6 19  1  0  0  0  0
  6 10  1  0  0  0  0
  7  3  1  0  0  0  0
  7  9  1  0  0  0  0
  8  3  2  0  0  0  0
  9 23  2  0  0  0  0
 10 14  1  0  0  0  0
 11 18  1  0  0  0  0
 11  8  1  0  0  0  0
 12 15  1  0  0  0  0
 12 20  2  0  0  0  0
 15 11  1  0  0  0  0
 16  9  1  0  0  0  0
 17 14  1  0  0  0  0
 17 13  2  0  0  0  0
 18  7  1  0  0  0  0
 20  2  1  0  0  0  0
 21  1  1  0  0  0  0
 21 22  1  0  0  0  0
 22 18  1  0  0  0  0
 22  5  1  0  0  0  0
 23 30  1  0  0  0  0
 24 25  1  0  0  0  0
 25  4  1  0  0  0  0
 26 21  1  0  0  0  0
 27 29  1  0  0  0  0
 27 26  1  0  0  0  0
 29 28  1  0  0  0  0
 30 32  1  0  0  0  0
 31 37  1  0  0  0  0
 32 31  2  0  0  0  0
 32 33  1  0  0  0  0
 33 36  2  0  0  0  0
 36 35  1  0  0  0  0
 36 34  1  0  0  0  0
 37 35  2  0  0  0  0
M  END
>  <MODEL>
3

>  <REMARK>
 VINA RESULT:      -6.2      2.409      4.086
  Name = 
  6 active torsions:
  status: ('A' for Active; 'I' for Inactive)
    1  A    between atoms: C_5  and  C_23
    2  A    between atoms: C_6  and  C_31
    3  A    between atoms: C_17  and  C_26
    4  A    between atoms: C_17  and  C_33
    5  A    between atoms: C_26  and  O_34
    6  A    between atoms: C_31  and  C_37
                            x       y       z     vdW  Elec       q    Type
                         _______ _______ _______ _____ _____    ______ ____

>  <TORSDO>
F 6

$$$$
=
 OpenBabel10272414523D

 37 43  0  0  1  0  0  0  0  0999 V2000
  181.7360  178.2540  138.2400 C   0  0  2  0  0  3  0  0  0  0  0  0
  187.8520  177.5310  141.0140 C   0  0  0  0  0  2  0  0  0  0  0  0
  186.1630  177.4560  137.1550 C   0  0  0  0  0  0  0  0  0  0  0  0
  181.5080  179.5230  139.0420 C   0  0  1  0  0  3  0  0  0  0  0  0
  182.4660  175.8960  138.6180 C   0  0  0  0  0  2  0  0  0  0  0  0
  187.8150  178.5470  138.6700 C   0  0  2  0  0  3  0  0  0  0  0  0
  184.6930  177.2190  137.0100 C   0  0  1  0  0  3  0  0  0  0  0  0
  186.4400  178.0360  138.3160 C   0  0  0  0  0  0  0  0  0  0  0  0
  184.3470  175.7410  136.9340 C   0  0  0  0  0  0  0  0  0  0  0  0
  188.6750  178.7900  137.4190 C   0  0  0  0  0  2  0  0  0  0  0  0
  185.2000  178.2150  139.0760 C   0  0  2  0  0  3  0  0  0  0  0  0
  186.0870  179.2560  141.2290 C   0  0  0  0  0  3  0  0  0  0  0  0
  186.8890  176.8650  134.9680 O   0  0  0  0  0  0  0  0  0  0  0  0
  188.6170  177.6090  136.4420 C   0  0  0  0  0  2  0  0  0  0  0  0
  185.0690  178.3680  140.5710 C   0  0  0  0  0  2  0  0  0  0  0  0
  183.6450  175.0620  138.0970 C   0  0  0  0  0  2  0  0  0  0  0  0
  187.1910  177.2880  136.1140 C   0  0  0  0  0  0  0  0  0  0  0  0
  184.1930  177.7870  138.3090 C   0  0  2  0  0  3  0  0  0  0  0  0
  188.5490  177.6390  139.6580 C   0  0  0  0  0  2  0  0  0  0  0  0
  187.3450  178.8670  141.4720 C   0  0  0  0  0  3  0  0  0  0  0  0
  182.0610  178.2990  139.7400 C   0  0  2  0  0  0  0  0  0  0  0  0
  182.8370  177.3740  138.8060 C   0  0  1  0  0  0  0  0  0  0  0  0
  184.6820  175.0480  135.8380 C   0  0  0  0  0  3  0  0  0  0  0  0
  182.0150  181.8830  138.4720 C   0  0  0  0  0  1  0  0  0  0  0  0
  182.6160  180.5250  138.7680 C   0  0  0  0  0  2  0  0  0  0  0  0
  181.0020  177.6030  140.6270 C   0  0  0  0  0  2  0  0  0  0  0  0
  180.3800  178.4090  141.7790 C   0  0  0  0  0  2  0  0  0  0  0  0
  181.1540  178.7880  143.8200 C   0  0  0  0  0  1  0  0  0  0  0  0
  181.3610  179.1200  142.4800 O   0  0  0  0  0  0  0  0  0  0  0  0
  184.3620  173.5970  135.6620 C   0  0  0  0  0  2  0  0  0  0  0  0
  185.6490  171.5610  135.0320 C   0  0  0  0  0  3  0  0  0  0  0  0
  185.6050  172.7800  135.7160 C   0  0  0  0  0  0  0  0  0  0  0  0
  186.7110  173.1950  136.4710 C   0  0  0  0  0  3  0  0  0  0  0  0
  188.9210  172.7880  137.2630 F   0  0  0  0  0  0  0  0  0  0  0  0
  187.8910  171.1710  135.8510 C   0  0  0  0  0  3  0  0  0  0  0  0
  187.8510  172.3880  136.5380 C   0  0  0  0  0  0  0  0  0  0  0  0
  186.7900  170.7590  135.0960 C   0  0  0  0  0  3  0  0  0  0  0  0
  1 22  1  0  0  0  0
  1  4  1  0  0  0  0
  1 21  1  0  0  0  0
  2 20  1  0  0  0  0
  3  8  2  0  0  0  0
  4 21  1  0  0  0  0
  5 22  1  0  0  0  0
  6 19  1  0  0  0  0
  7  3  1  0  0  0  0
  7 18  1  0  0  0  0
  8  6  1  0  0  0  0
  8 11  1  0  0  0  0
  9  7  1  0  0  0  0
  9 16  1  0  0  0  0
 10  6  1  0  0  0  0
 11 15  1  0  0  0  0
 12 20  2  0  0  0  0
 13 17  2  0  0  0  0
 14 10  1  0  0  0  0
 15 12  1  0  0  0  0
 16  5  1  0  0  0  0
 17 14  1  0  0  0  0
 17  3  1  0  0  0  0
 18 22  1  0  0  0  0
 18 11  1  0  0  0  0
 19  2  1  0  0  0  0
 21 26  1  0  0  0  0
 22 21  1  0  0  0  0
 23  9  2  0  0  0  0
 24 25  1  0  0  0  0
 25  4  1  0  0  0  0
 26 27  1  0  0  0  0
 27 29  1  0  0  0  0
 29 28  1  0  0  0  0
 30 32  1  0  0  0  0
 30 23  1  0  0  0  0
 31 37  2  0  0  0  0
 31 32  1  0  0  0  0
 32 33  2  0  0  0  0
 33 36  1  0  0  0  0
 35 36  2  0  0  0  0
 36 34  1  0  0  0  0
 37 35  1  0  0  0  0
M  END
>  <MODEL>
4

>  <REMARK>
 VINA RESULT:      -5.4      3.815      9.085
  Name = 
  6 active torsions:
  status: ('A' for Active; 'I' for Inactive)
    1  A    between atoms: C_5  and  C_23
    2  A    between atoms: C_6  and  C_31
    3  A    between atoms: C_17  and  C_26
    4  A    between atoms: C_17  and  C_33
    5  A    between atoms: C_26  and  O_34
    6  A    between atoms: C_31  and  C_37
                            x       y       z     vdW  Elec       q    Type
                         _______ _______ _______ _____ _____    ______ ____

>  <TORSDO>
F 6

$$$$
