=
 OpenBabel10272415163D

 34 39  0  0  1  0  0  0  0  0999 V2000
  185.0160  174.2790  134.5320 C   0  0  0  0  0  0  0  0  0  0  0  0
  183.7120  176.7910  135.0680 C   0  0  0  0  0  0  0  0  0  0  0  0
  187.2020  176.9340  135.3060 C   0  0  2  0  0  0  0  0  0  0  0  0
  180.4000  176.1590  134.7650 C   0  0  0  0  0  2  0  0  0  0  0  0
  180.3500  174.7460  134.3700 C   0  0  0  0  0  2  0  0  0  0  0  0
  187.3750  175.5180  134.7050 C   0  0  0  0  0  2  0  0  0  0  0  0
  186.1160  174.7620  134.6310 C   0  0  0  0  0  0  0  0  0  0  0  0
  181.7100  175.4710  134.3460 C   0  0  0  0  0  0  0  0  0  0  0  0
  186.1410  177.7810  134.5530 C   0  0  0  0  0  2  0  0  0  0  0  0
  184.7670  177.3130  134.8010 C   0  0  0  0  0  0  0  0  0  0  0  0
  188.5310  177.6410  135.1300 C   0  0  0  0  0  1  0  0  0  0  0  0
  182.5260  176.0470  135.5030 C   0  0  1  0  0  3  0  0  0  0  0  0
  183.6250  173.8530  134.3460 C   0  0  0  0  0  2  0  0  0  0  0  0
  182.6000  174.5540  135.2730 C   0  0  2  0  0  0  0  0  0  0  0  0
  180.8890  174.3300  137.2560 C   0  0  0  0  0  2  0  0  0  0  0  0
  184.1280  172.3180  137.0780 C   0  0  0  0  0  2  0  0  0  0  0  0
  183.7640  174.6470  138.0970 C   0  0  0  0  0  2  0  0  0  0  0  0
  180.3760  176.3180  138.6870 C   0  0  0  0  0  3  0  0  0  0  0  0
  182.0730  177.4640  139.9790 C   0  0  0  0  0  3  0  0  0  0  0  0
  180.7410  177.3340  139.5730 C   0  0  0  0  0  3  0  0  0  0  0  0
  182.6830  175.5470  138.6280 C   0  0  0  0  0  0  0  0  0  0  0  0
  181.3360  175.4270  138.1980 C   0  0  0  0  0  0  0  0  0  0  0  0
  183.0400  176.5750  139.5040 C   0  0  0  0  0  3  0  0  0  0  0  0
  183.3530  171.0630  136.6450 C   0  0  1  0  0  3  0  0  0  0  0  0
  181.5590  172.3250  135.9020 C   0  0  0  0  0  2  0  0  0  0  0  0
  181.9420  171.2200  136.6970 O   0  0  0  0  0  0  0  0  0  0  0  0
  183.1420  173.3850  137.5210 C   0  0  1  0  0  3  0  0  0  0  0  0
  182.0470  173.6750  136.4730 C   0  0  1  0  0  0  0  0  0  0  0  0
  183.8440  170.5510  135.2910 C   0  0  0  0  0  2  0  0  0  0  0  0
  185.9160  169.3960  134.9970 O   0  0  0  0  0  1  0  0  0  0  0  0
  185.3540  170.6600  135.1780 C   0  0  0  0  0  2  0  0  0  0  0  0
  186.9180  176.8690  136.7920 C   0  0  0  0  0  0  0  0  0  0  0  0
  186.4940  177.8870  137.4030 O   0  0  0  0  0  0  0  0  0  0  0  0
  187.1760  175.7090  137.5120 O   0  0  0  0  0  1  0  0  0  0  0  0
  1  7  3  0  0  0  0
  3 11  1  6  0  0  0
  3 32  1  0  0  0  0
  5  4  1  0  0  0  0
  6  3  1  0  0  0  0
  7  6  1  0  0  0  0
  8  5  1  0  0  0  0
  8  4  1  0  0  0  0
  8 14  1  0  0  0  0
  8 12  1  0  0  0  0
  9 10  1  0  0  0  0
  9  3  1  0  0  0  0
 10  2  3  0  0  0  0
 12  2  1  6  0  0  0
 13  1  1  0  0  0  0
 14 13  1  6  0  0  0
 14 12  1  0  0  0  0
 14 28  1  0  0  0  0
 15 22  1  0  0  0  0
 17 21  1  0  0  0  0
 18 20  1  0  0  0  0
 20 19  2  0  0  0  0
 21 23  2  0  0  0  0
 22 21  1  0  0  0  0
 22 18  2  0  0  0  0
 23 19  1  0  0  0  0
 24 29  1  6  0  0  0
 24 26  1  0  0  0  0
 24 16  1  0  0  0  0
 25 26  1  0  0  0  0
 27 16  1  6  0  0  0
 27 17  1  0  0  0  0
 28 25  1  6  0  0  0
 28 15  1  0  0  0  0
 28 27  1  0  0  0  0
 30 31  1  0  0  0  0
 31 29  1  0  0  0  0
 32 33  2  0  0  0  0
 32 34  1  0  0  0  0
M  END
>  <MODEL>
1

>  <REMARK>
 VINA RESULT:      -4.3      0.000      0.000
  Name = 
  4 active torsions:
  status: ('A' for Active; 'I' for Inactive)
    1  A    between atoms: C_3  and  C_23
    2  A    between atoms: C_3  and  C_24
    3  A    between atoms: C_7  and  C_11
    4  A    between atoms: C_33  and  C_34
                            x       y       z     vdW  Elec       q    Type
                         _______ _______ _______ _____ _____    ______ ____

>  <TORSDO>
F 4

$$$$
=
 OpenBabel10272415163D

 34 39  0  0  1  0  0  0  0  0999 V2000
  189.2840  174.1000  134.6350 C   0  0  0  0  0  0  0  0  0  0  0  0
  189.9870  176.8760  134.9470 C   0  0  0  0  0  0  0  0  0  0  0  0
  192.7170  174.6970  135.1700 C   0  0  2  0  0  0  0  0  0  0  0  0
  187.0640  178.5680  134.7020 C   0  0  0  0  0  2  0  0  0  0  0  0
  186.0760  177.5170  134.4340 C   0  0  0  0  0  2  0  0  0  0  0  0
  191.8820  173.4830  134.6970 C   0  0  0  0  0  2  0  0  0  0  0  0
  190.4350  173.7430  134.6900 C   0  0  0  0  0  0  0  0  0  0  0  0
  187.5720  177.1610  134.3460 C   0  0  0  0  0  0  0  0  0  0  0  0
  192.4320  175.9820  134.3460 C   0  0  0  0  0  2  0  0  0  0  0  0
  191.1070  176.5540  134.6350 C   0  0  0  0  0  0  0  0  0  0  0  0
  194.1700  174.3370  134.9320 C   0  0  0  0  0  1  0  0  0  0  0  0
  188.6320  177.1310  135.4470 C   0  0  1  0  0  3  0  0  0  0  0  0
  187.9480  174.6860  134.4880 C   0  0  0  0  0  2  0  0  0  0  0  0
  187.6930  175.9490  135.3500 C   0  0  2  0  0  0  0  0  0  0  0  0
  186.6680  176.9690  137.5450 C   0  0  0  0  0  2  0  0  0  0  0  0
  186.9910  173.2100  136.9620 C   0  0  0  0  0  2  0  0  0  0  0  0
  188.7180  174.8080  137.9930 C   0  0  0  0  0  2  0  0  0  0  0  0
  188.0710  178.4370  139.0080 C   0  0  0  0  0  3  0  0  0  0  0  0
  190.1160  177.6640  140.0480 C   0  0  0  0  0  3  0  0  0  0  0  0
  189.1780  178.6760  139.8250 C   0  0  0  0  0  3  0  0  0  0  0  0
  188.8340  176.1540  138.6520 C   0  0  0  0  0  0  0  0  0  0  0  0
  187.8940  177.1880  138.4060 C   0  0  0  0  0  0  0  0  0  0  0  0
  189.9450  176.4080  139.4600 C   0  0  0  0  0  3  0  0  0  0  0  0
  185.4900  173.1050  136.6510 C   0  0  1  0  0  3  0  0  0  0  0  0
  185.3530  175.3590  136.1380 C   0  0  0  0  0  2  0  0  0  0  0  0
  184.7740  174.3090  136.8880 O   0  0  0  0  0  0  0  0  0  0  0  0
  187.2890  174.5910  137.5200 C   0  0  1  0  0  3  0  0  0  0  0  0
  186.7700  175.7350  136.6230 C   0  0  1  0  0  0  0  0  0  0  0  0
  185.2540  172.5410  135.2500 C   0  0  0  0  0  2  0  0  0  0  0  0
  183.8920  171.1120  136.5980 O   0  0  0  0  0  1  0  0  0  0  0  0
  184.3420  171.3280  135.2950 C   0  0  0  0  0  2  0  0  0  0  0  0
  192.5480  174.9350  136.6560 C   0  0  0  0  0  0  0  0  0  0  0  0
  192.0060  174.0590  137.3820 O   0  0  0  0  0  1  0  0  0  0  0  0
  192.9320  176.1410  137.2280 O   0  0  0  0  0  0  0  0  0  0  0  0
  1  7  3  0  0  0  0
  3 11  1  6  0  0  0
  3 32  1  0  0  0  0
  5  4  1  0  0  0  0
  6  3  1  0  0  0  0
  7  6  1  0  0  0  0
  8  5  1  0  0  0  0
  8  4  1  0  0  0  0
  8 14  1  0  0  0  0
  8 12  1  0  0  0  0
  9 10  1  0  0  0  0
  9  3  1  0  0  0  0
 10  2  3  0  0  0  0
 12  2  1  6  0  0  0
 13  1  1  0  0  0  0
 14 13  1  6  0  0  0
 14 12  1  0  0  0  0
 14 28  1  0  0  0  0
 15 22  1  0  0  0  0
 17 21  1  0  0  0  0
 18 20  1  0  0  0  0
 20 19  2  0  0  0  0
 21 23  2  0  0  0  0
 22 21  1  0  0  0  0
 22 18  2  0  0  0  0
 23 19  1  0  0  0  0
 24 29  1  6  0  0  0
 24 26  1  0  0  0  0
 24 16  1  0  0  0  0
 25 26  1  0  0  0  0
 27 16  1  6  0  0  0
 27 17  1  0  0  0  0
 28 25  1  6  0  0  0
 28 27  1  0  0  0  0
 28 15  1  0  0  0  0
 29 31  1  0  0  0  0
 31 30  1  0  0  0  0
 32 34  2  0  0  0  0
 32 33  1  0  0  0  0
M  END
>  <MODEL>
2

>  <REMARK>
 VINA RESULT:      -3.3      3.263      5.717
  Name = 
  4 active torsions:
  status: ('A' for Active; 'I' for Inactive)
    1  A    between atoms: C_3  and  C_23
    2  A    between atoms: C_3  and  C_24
    3  A    between atoms: C_7  and  C_11
    4  A    between atoms: C_33  and  C_34
                            x       y       z     vdW  Elec       q    Type
                         _______ _______ _______ _____ _____    ______ ____

>  <TORSDO>
F 4

$$$$
=
 OpenBabel10272415163D

 34 39  0  0  1  0  0  0  0  0999 V2000
  187.5740  173.9650  137.4050 C   0  0  0  0  0  0  0  0  0  0  0  0
  187.3450  174.6360  134.6130 C   0  0  0  0  0  0  0  0  0  0  0  0
  188.0630  171.2610  135.1970 C   0  0  2  0  0  0  0  0  0  0  0  0
  186.6990  177.9600  134.5450 C   0  0  0  0  0  2  0  0  0  0  0  0
  186.6210  178.3270  135.9640 C   0  0  0  0  0  2  0  0  0  0  0  0
  187.8200  171.3950  136.7200 C   0  0  0  0  0  2  0  0  0  0  0  0
  187.7270  172.7920  137.1700 C   0  0  0  0  0  0  0  0  0  0  0  0
  186.6420  176.8320  135.5900 C   0  0  0  0  0  0  0  0  0  0  0  0
  186.9930  172.0000  134.3490 C   0  0  0  0  0  2  0  0  0  0  0  0
  187.1300  173.4640  134.4230 C   0  0  0  0  0  0  0  0  0  0  0  0
  187.9360  169.7850  134.8720 C   0  0  0  0  0  1  0  0  0  0  0  0
  187.7510  176.0070  134.9410 C   0  0  1  0  0  3  0  0  0  0  0  0
  187.2810  175.3960  137.5430 C   0  0  0  0  0  2  0  0  0  0  0  0
  187.8690  176.2910  136.4220 C   0  0  2  0  0  0  0  0  0  0  0  0
  190.2320  177.2210  135.7420 C   0  0  0  0  0  2  0  0  0  0  0  0
  189.0950  176.9070  139.3730 C   0  0  0  0  0  2  0  0  0  0  0  0
  190.2710  175.1440  137.9230 C   0  0  0  0  0  2  0  0  0  0  0  0
  191.8300  175.7600  134.4870 C   0  0  0  0  0  3  0  0  0  0  0  0
  192.6570  173.6680  135.3800 C   0  0  0  0  0  3  0  0  0  0  0  0
  192.6240  174.6190  134.3560 C   0  0  0  0  0  3  0  0  0  0  0  0
  191.1130  175.0040  136.6850 C   0  0  0  0  0  0  0  0  0  0  0  0
  191.0610  175.9590  135.6370 C   0  0  0  0  0  0  0  0  0  0  0  0
  191.9000  173.8590  136.5380 C   0  0  0  0  0  3  0  0  0  0  0  0
  188.8380  178.4200  139.4490 C   0  0  1  0  0  3  0  0  0  0  0  0
  188.6650  178.5910  137.1460 C   0  0  0  0  0  2  0  0  0  0  0  0
  189.2790  179.1310  138.3000 O   0  0  0  0  0  0  0  0  0  0  0  0
  189.8340  176.5910  138.0840 C   0  0  1  0  0  3  0  0  0  0  0  0
  189.1360  177.1550  136.8280 C   0  0  1  0  0  0  0  0  0  0  0  0
  187.3810  178.7160  139.8060 C   0  0  0  0  0  2  0  0  0  0  0  0
  185.8670  179.1110  141.6140 O   0  0  0  0  0  1  0  0  0  0  0  0
  187.1920  178.7940  141.3110 C   0  0  0  0  0  2  0  0  0  0  0  0
  189.4670  171.6860  134.8250 C   0  0  0  0  0  0  0  0  0  0  0  0
  189.6780  172.8330  134.3470 O   0  0  0  0  0  0  0  0  0  0  0  0
  190.5310  170.8000  134.9470 O   0  0  0  0  0  1  0  0  0  0  0  0
  1 13  1  0  0  0  0
  3 11  1  6  0  0  0
  3  6  1  0  0  0  0
  4  8  1  0  0  0  0
  4  5  1  0  0  0  0
  6  7  1  0  0  0  0
  7  1  3  0  0  0  0
  8  5  1  0  0  0  0
  8 14  1  0  0  0  0
  9 10  1  0  0  0  0
  9  3  1  0  0  0  0
 10  2  3  0  0  0  0
 12  2  1  1  0  0  0
 12  8  1  0  0  0  0
 12 14  1  0  0  0  0
 14 28  1  0  0  0  0
 14 13  1  1  0  0  0
 16 24  1  0  0  0  0
 18 22  1  0  0  0  0
 19 23  2  0  0  0  0
 20 18  2  0  0  0  0
 20 19  1  0  0  0  0
 21 17  1  0  0  0  0
 22 15  1  0  0  0  0
 22 21  2  0  0  0  0
 23 21  1  0  0  0  0
 24 29  1  6  0  0  0
 25 26  1  0  0  0  0
 26 24  1  0  0  0  0
 27 17  1  6  0  0  0
 27 16  1  0  0  0  0
 28 15  1  6  0  0  0
 28 25  1  0  0  0  0
 28 27  1  0  0  0  0
 29 31  1  0  0  0  0
 31 30  1  0  0  0  0
 32 34  1  0  0  0  0
 32  3  1  0  0  0  0
 33 32  2  0  0  0  0
M  END
>  <MODEL>
3

>  <REMARK>
 VINA RESULT:      -2.8      4.547      8.140
  Name = 
  4 active torsions:
  status: ('A' for Active; 'I' for Inactive)
    1  A    between atoms: C_3  and  C_23
    2  A    between atoms: C_3  and  C_24
    3  A    between atoms: C_7  and  C_11
    4  A    between atoms: C_33  and  C_34
                            x       y       z     vdW  Elec       q    Type
                         _______ _______ _______ _____ _____    ______ ____

>  <TORSDO>
F 4

$$$$
=
 OpenBabel10272415163D

 34 39  0  0  1  0  0  0  0  0999 V2000
  184.3940  173.7470  137.7140 C   0  0  0  0  0  0  0  0  0  0  0  0
  183.8320  173.3690  134.9140 C   0  0  0  0  0  0  0  0  0  0  0  0
  186.9640  172.1560  135.9000 C   0  0  2  0  0  0  0  0  0  0  0  0
  180.7630  174.7170  134.4320 C   0  0  0  0  0  2  0  0  0  0  0  0
  180.3600  175.1530  135.7730 C   0  0  0  0  0  2  0  0  0  0  0  0
  186.6500  172.3520  137.4030 C   0  0  0  0  0  2  0  0  0  0  0  0
  185.4440  173.1590  137.6430 C   0  0  0  0  0  0  0  0  0  0  0  0
  181.6000  174.2490  135.6340 C   0  0  0  0  0  0  0  0  0  0  0  0
  185.7750  171.5450  135.1110 C   0  0  0  0  0  2  0  0  0  0  0  0
  184.6650  172.4970  134.9390 C   0  0  0  0  0  0  0  0  0  0  0  0
  188.0990  171.1550  135.8260 C   0  0  0  0  0  1  0  0  0  0  0  0
  182.9440  174.5360  134.9670 C   0  0  1  0  0  3  0  0  0  0  0  0
  183.0570  174.3500  137.6720 C   0  0  0  0  0  2  0  0  0  0  0  0
  182.7210  175.0950  136.3540 C   0  0  2  0  0  0  0  0  0  0  0  0
  183.5280  177.3620  135.2970 C   0  0  0  0  0  2  0  0  0  0  0  0
  182.4980  177.0340  138.9590 C   0  0  0  0  0  2  0  0  0  0  0  0
  184.8210  176.6630  137.9260 C   0  0  0  0  0  2  0  0  0  0  0  0
  185.8360  177.5390  134.3460 C   0  0  0  0  0  3  0  0  0  0  0  0
  187.8250  177.1900  135.6830 C   0  0  0  0  0  3  0  0  0  0  0  0
  187.2280  177.4930  134.4550 C   0  0  0  0  0  3  0  0  0  0  0  0
  185.6380  176.9950  136.7090 C   0  0  0  0  0  0  0  0  0  0  0  0
  185.0310  177.2810  135.4590 C   0  0  0  0  0  0  0  0  0  0  0  0
  187.0310  176.9380  136.8040 C   0  0  0  0  0  3  0  0  0  0  0  0
  181.1490  177.7080  138.6640 C   0  0  1  0  0  3  0  0  0  0  0  0
  181.2850  177.1880  136.4120 C   0  0  0  0  0  2  0  0  0  0  0  0
  181.0460  178.2240  137.3440 O   0  0  0  0  0  0  0  0  0  0  0  0
  183.4000  177.1730  137.7440 C   0  0  1  0  0  3  0  0  0  0  0  0
  182.7430  176.6790  136.4380 C   0  0  1  0  0  0  0  0  0  0  0  0
  179.9820  176.7930  139.0360 C   0  0  0  0  0  2  0  0  0  0  0  0
  180.0650  174.4520  139.5160 O   0  0  0  0  0  1  0  0  0  0  0  0
  180.4220  175.7100  140.0050 C   0  0  0  0  0  2  0  0  0  0  0  0
  187.4540  173.4430  135.2700 C   0  0  0  0  0  0  0  0  0  0  0  0
  188.5660  173.9320  135.6060 O   0  0  0  0  0  1  0  0  0  0  0  0
  186.6620  174.1320  134.3600 O   0  0  0  0  0  0  0  0  0  0  0  0
  2 10  3  0  0  0  0
  3 11  1  6  0  0  0
  3  6  1  0  0  0  0
  4  8  1  0  0  0  0
  4  5  1  0  0  0  0
  6  7  1  0  0  0  0
  7  1  3  0  0  0  0
  8  5  1  0  0  0  0
  8 14  1  0  0  0  0
  9  3  1  0  0  0  0
 10  9  1  0  0  0  0
 12  2  1  1  0  0  0
 12  8  1  0  0  0  0
 12 14  1  0  0  0  0
 13  1  1  0  0  0  0
 14 28  1  0  0  0  0
 14 13  1  1  0  0  0
 15 22  1  0  0  0  0
 18 20  2  0  0  0  0
 18 22  1  0  0  0  0
 19 23  2  0  0  0  0
 20 19  1  0  0  0  0
 21 23  1  0  0  0  0
 21 17  1  0  0  0  0
 22 21  2  0  0  0  0
 24 16  1  0  0  0  0
 24 29  1  6  0  0  0
 25 28  1  0  0  0  0
 25 26  1  0  0  0  0
 26 24  1  0  0  0  0
 27 17  1  1  0  0  0
 27 16  1  0  0  0  0
 28 15  1  6  0  0  0
 28 27  1  0  0  0  0
 29 31  1  0  0  0  0
 30 31  1  0  0  0  0
 32 33  1  0  0  0  0
 32  3  1  0  0  0  0
 34 32  2  0  0  0  0
M  END
>  <MODEL>
4

>  <REMARK>
 VINA RESULT:      -2.7      1.990      5.183
  Name = 
  4 active torsions:
  status: ('A' for Active; 'I' for Inactive)
    1  A    between atoms: C_3  and  C_23
    2  A    between atoms: C_3  and  C_24
    3  A    between atoms: C_7  and  C_11
    4  A    between atoms: C_33  and  C_34
                            x       y       z     vdW  Elec       q    Type
                         _______ _______ _______ _____ _____    ______ ____

>  <TORSDO>
F 4

$$$$
=
 OpenBabel10272415163D

 34 39  0  0  1  0  0  0  0  0999 V2000
  191.4210  177.2870  140.0250 C   0  0  0  0  0  0  0  0  0  0  0  0
  188.6090  177.9020  140.1320 C   0  0  0  0  0  0  0  0  0  0  0  0
  190.0700  177.4270  143.2780 C   0  0  2  0  0  0  0  0  0  0  0  0
  187.6440  178.2280  136.9030 C   0  0  0  0  0  2  0  0  0  0  0  0
  188.8880  178.0380  136.1480 C   0  0  0  0  0  2  0  0  0  0  0  0
  191.5020  177.4040  142.6920 C   0  0  0  0  0  2  0  0  0  0  0  0
  191.5270  177.2880  141.2260 C   0  0  0  0  0  0  0  0  0  0  0  0
  188.9740  178.2230  137.6750 C   0  0  0  0  0  0  0  0  0  0  0  0
  189.1850  178.5440  142.6620 C   0  0  0  0  0  2  0  0  0  0  0  0
  188.8030  178.2560  141.2690 C   0  0  0  0  0  0  0  0  0  0  0  0
  190.2140  177.7460  144.7520 C   0  0  0  0  0  1  0  0  0  0  0  0
  188.4620  177.3180  138.7950 C   0  0  1  0  0  3  0  0  0  0  0  0
  191.1650  177.4150  138.5860 C   0  0  0  0  0  2  0  0  0  0  0  0
  189.7640  176.9340  138.1290 C   0  0  2  0  0  0  0  0  0  0  0  0
  190.9060  174.6010  137.7210 C   0  0  0  0  0  2  0  0  0  0  0  0
  188.4720  176.1790  135.2390 C   0  0  0  0  0  2  0  0  0  0  0  0
  191.0170  176.4900  135.3780 C   0  0  0  0  0  2  0  0  0  0  0  0
  193.3990  174.4470  137.5620 C   0  0  0  0  0  3  0  0  0  0  0  0
  194.6700  175.6230  135.8700 C   0  0  0  0  0  3  0  0  0  0  0  0
  194.6240  174.7630  136.9710 C   0  0  0  0  0  3  0  0  0  0  0  0
  192.2570  175.8430  135.9290 C   0  0  0  0  0  0  0  0  0  0  0  0
  192.2120  174.9880  137.0600 C   0  0  0  0  0  0  0  0  0  0  0  0
  193.4900  176.1630  135.3540 C   0  0  0  0  0  3  0  0  0  0  0  0
  187.3520  175.2300  135.6970 C   0  0  1  0  0  3  0  0  0  0  0  0
  188.4060  174.8290  137.7200 C   0  0  0  0  0  2  0  0  0  0  0  0
  187.7930  174.2240  136.5980 O   0  0  0  0  0  0  0  0  0  0  0  0
  189.7900  175.7210  135.8400 C   0  0  1  0  0  3  0  0  0  0  0  0
  189.7310  175.5400  137.3710 C   0  0  1  0  0  0  0  0  0  0  0  0
  186.1470  176.0100  136.2220 C   0  0  0  0  0  2  0  0  0  0  0  0
  184.4050  174.9070  137.4310 O   0  0  0  0  0  1  0  0  0  0  0  0
  184.8810  175.1760  136.1470 C   0  0  0  0  0  2  0  0  0  0  0  0
  189.4110  176.0670  143.1720 C   0  0  0  0  0  0  0  0  0  0  0  0
  190.1070  175.0400  142.9470 O   0  0  0  0  0  0  0  0  0  0  0  0
  188.0310  175.9400  143.2620 O   0  0  0  0  0  1  0  0  0  0  0  0
  1  7  3  0  0  0  0
  2 10  3  0  0  0  0
  3 11  1  1  0  0  0
  4  8  1  0  0  0  0
  5  4  1  0  0  0  0
  5  8  1  0  0  0  0
  6  3  1  0  0  0  0
  7  6  1  0  0  0  0
  8 14  1  0  0  0  0
  8 12  1  0  0  0  0
  9  3  1  0  0  0  0
 10  9  1  0  0  0  0
 12  2  1  1  0  0  0
 13  1  1  0  0  0  0
 14 13  1  1  0  0  0
 14 12  1  0  0  0  0
 16 24  1  0  0  0  0
 17 27  1  0  0  0  0
 17 21  1  0  0  0  0
 19 20  1  0  0  0  0
 20 18  2  0  0  0  0
 21 22  2  0  0  0  0
 22 18  1  0  0  0  0
 22 15  1  0  0  0  0
 23 19  2  0  0  0  0
 23 21  1  0  0  0  0
 24 29  1  1  0  0  0
 24 26  1  0  0  0  0
 26 25  1  0  0  0  0
 27 16  1  1  0  0  0
 27 28  1  0  0  0  0
 28 25  1  1  0  0  0
 28 15  1  0  0  0  0
 28 14  1  0  0  0  0
 31 29  1  0  0  0  0
 31 30  1  0  0  0  0
 32 34  1  0  0  0  0
 32  3  1  0  0  0  0
 33 32  2  0  0  0  0
M  END
>  <MODEL>
5

>  <REMARK>
 VINA RESULT:      -2.2      4.778      8.748
  Name = 
  4 active torsions:
  status: ('A' for Active; 'I' for Inactive)
    1  A    between atoms: C_3  and  C_23
    2  A    between atoms: C_3  and  C_24
    3  A    between atoms: C_7  and  C_11
    4  A    between atoms: C_33  and  C_34
                            x       y       z     vdW  Elec       q    Type
                         _______ _______ _______ _____ _____    ______ ____

>  <TORSDO>
F 4

$$$$
=
 OpenBabel10272415163D

 34 39  0  0  1  0  0  0  0  0999 V2000
  183.6300  177.1750  135.7970 C   0  0  0  0  0  0  0  0  0  0  0  0
  184.6080  179.0440  137.7590 C   0  0  0  0  0  0  0  0  0  0  0  0
  187.1250  177.1350  136.2530 C   0  0  2  0  0  0  0  0  0  0  0  0
  181.8510  180.6050  138.9540 C   0  0  0  0  0  2  0  0  0  0  0  0
  180.7560  180.0260  138.1680 C   0  0  0  0  0  2  0  0  0  0  0  0
  186.1570  176.5590  135.1910 C   0  0  0  0  0  2  0  0  0  0  0  0
  184.7430  176.8200  135.4960 C   0  0  0  0  0  0  0  0  0  0  0  0
  182.2060  179.7510  137.7250 C   0  0  0  0  0  0  0  0  0  0  0  0
  186.9260  178.6560  136.4870 C   0  0  0  0  0  2  0  0  0  0  0  0
  185.6760  178.9560  137.2050 C   0  0  0  0  0  0  0  0  0  0  0  0
  188.5250  176.9570  135.6980 C   0  0  0  0  0  1  0  0  0  0  0  0
  183.3080  178.9670  138.4340 C   0  0  1  0  0  3  0  0  0  0  0  0
  182.3500  177.7700  136.1960 C   0  0  0  0  0  2  0  0  0  0  0  0
  182.2570  178.1740  137.6890 C   0  0  2  0  0  0  0  0  0  0  0  0
  180.7190  177.9300  139.8070 C   0  0  0  0  0  2  0  0  0  0  0  0
  182.5390  174.9750  138.2160 C   0  0  0  0  0  2  0  0  0  0  0  0
  183.4000  176.5760  140.0300 C   0  0  0  0  0  2  0  0  0  0  0  0
  181.2960  179.1540  141.9120 C   0  0  0  0  0  3  0  0  0  0  0  0
  183.3760  178.7940  143.0980 C   0  0  0  0  0  3  0  0  0  0  0  0
  182.1410  179.4410  142.9860 C   0  0  0  0  0  3  0  0  0  0  0  0
  182.9200  177.5500  141.0680 C   0  0  0  0  0  0  0  0  0  0  0  0
  181.6770  178.2220  140.9420 C   0  0  0  0  0  0  0  0  0  0  0  0
  183.7650  177.8550  142.1390 C   0  0  0  0  0  3  0  0  0  0  0  0
  181.2340  174.4900  137.5650 C   0  0  1  0  0  3  0  0  0  0  0  0
  180.2730  176.5910  137.7300 C   0  0  0  0  0  2  0  0  0  0  0  0
  180.0850  175.2130  137.9860 O   0  0  0  0  0  0  0  0  0  0  0  0
  182.2200  176.0770  139.2110 C   0  0  1  0  0  3  0  0  0  0  0  0
  181.3790  177.2210  138.6050 C   0  0  1  0  0  0  0  0  0  0  0  0
  181.3660  174.4230  136.0430 C   0  0  0  0  0  2  0  0  0  0  0  0
  183.2380  173.6580  134.7680 O   0  0  0  0  0  1  0  0  0  0  0  0
  182.2160  173.2380  135.6200 C   0  0  0  0  0  2  0  0  0  0  0  0
  187.0500  176.3520  137.5470 C   0  0  0  0  0  0  0  0  0  0  0  0
  186.4320  175.2550  137.5910 O   0  0  0  0  0  0  0  0  0  0  0  0
  187.6080  176.8600  138.7140 O   0  0  0  0  0  1  0  0  0  0  0  0
  1 13  1  0  0  0  0
  3 11  1  6  0  0  0
  3  9  1  0  0  0  0
  3 32  1  0  0  0  0
  5  4  1  0  0  0  0
  6  7  1  0  0  0  0
  6  3  1  0  0  0  0
  7  1  3  0  0  0  0
  8  5  1  0  0  0  0
  8 12  1  0  0  0  0
  8  4  1  0  0  0  0
  9 10  1  0  0  0  0
 10  2  3  0  0  0  0
 12  2  1  6  0  0  0
 14 13  1  6  0  0  0
 14  8  1  0  0  0  0
 14 12  1  0  0  0  0
 14 28  1  0  0  0  0
 15 22  1  0  0  0  0
 17 21  1  0  0  0  0
 18 20  1  0  0  0  0
 20 19  2  0  0  0  0
 21 23  2  0  0  0  0
 22 21  1  0  0  0  0
 22 18  2  0  0  0  0
 23 19  1  0  0  0  0
 24 29  1  6  0  0  0
 24 26  1  0  0  0  0
 24 16  1  0  0  0  0
 25 26  1  0  0  0  0
 27 16  1  6  0  0  0
 27 17  1  0  0  0  0
 28 25  1  6  0  0  0
 28 27  1  0  0  0  0
 28 15  1  0  0  0  0
 30 31  1  0  0  0  0
 31 29  1  0  0  0  0
 32 33  2  0  0  0  0
 32 34  1  0  0  0  0
M  END
>  <MODEL>
6

>  <REMARK>
 VINA RESULT:      -2.1      2.160      3.863
  Name = 
  4 active torsions:
  status: ('A' for Active; 'I' for Inactive)
    1  A    between atoms: C_3  and  C_23
    2  A    between atoms: C_3  and  C_24
    3  A    between atoms: C_7  and  C_11
    4  A    between atoms: C_33  and  C_34
                            x       y       z     vdW  Elec       q    Type
                         _______ _______ _______ _____ _____    ______ ____

>  <TORSDO>
F 4

$$$$
=
 OpenBabel10272415163D

 34 39  0  0  1  0  0  0  0  0999 V2000
  189.8720  177.9720  137.8690 C   0  0  0  0  0  0  0  0  0  0  0  0
  187.1020  177.5480  138.5380 C   0  0  0  0  0  0  0  0  0  0  0  0
  189.1880  177.9040  141.3270 C   0  0  2  0  0  0  0  0  0  0  0  0
  185.5080  177.2230  135.5680 C   0  0  0  0  0  2  0  0  0  0  0  0
  186.5720  177.4250  134.5790 C   0  0  0  0  0  2  0  0  0  0  0  0
  190.3940  178.3440  140.4620 C   0  0  0  0  0  2  0  0  0  0  0  0
  190.1890  178.1160  139.0240 C   0  0  0  0  0  0  0  0  0  0  0  0
  186.8650  177.7610  136.0540 C   0  0  0  0  0  0  0  0  0  0  0  0
  187.8570  178.5730  140.8880 C   0  0  0  0  0  2  0  0  0  0  0  0
  187.3590  178.0470  139.6060 C   0  0  0  0  0  0  0  0  0  0  0  0
  189.4750  178.3820  142.7360 C   0  0  0  0  0  1  0  0  0  0  0  0
  186.9370  176.8350  137.2670 C   0  0  1  0  0  3  0  0  0  0  0  0
  189.3270  177.8730  136.5110 C   0  0  0  0  0  2  0  0  0  0  0  0
  188.1430  176.8850  136.3560 C   0  0  2  0  0  0  0  0  0  0  0  0
  187.3090  174.8980  134.8500 C   0  0  0  0  0  2  0  0  0  0  0  0
  190.3250  174.6130  137.1740 C   0  0  0  0  0  2  0  0  0  0  0  0
  187.8550  174.1660  137.7200 C   0  0  0  0  0  2  0  0  0  0  0  0
  185.0080  173.9710  135.1760 C   0  0  0  0  0  3  0  0  0  0  0  0
  184.2840  172.9910  137.2680 C   0  0  0  0  0  3  0  0  0  0  0  0
  184.0200  173.3490  135.9430 C   0  0  0  0  0  3  0  0  0  0  0  0
  186.5380  173.8570  137.0640 C   0  0  0  0  0  0  0  0  0  0  0  0
  186.2640  174.2410  135.7260 C   0  0  0  0  0  0  0  0  0  0  0  0
  185.5390  173.2480  137.8270 C   0  0  0  0  0  3  0  0  0  0  0  0
  191.2860  174.7370  135.9810 C   0  0  1  0  0  3  0  0  0  0  0  0
  189.6650  175.7480  134.6720 C   0  0  0  0  0  2  0  0  0  0  0  0
  190.6330  174.7170  134.7190 O   0  0  0  0  0  0  0  0  0  0  0  0
  188.9090  174.4280  136.6560 C   0  0  1  0  0  3  0  0  0  0  0  0
  188.4850  175.5110  135.6400 C   0  0  1  0  0  0  0  0  0  0  0  0
  192.2200  175.9350  136.1460 C   0  0  0  0  0  2  0  0  0  0  0  0
  193.4750  176.7670  138.0030 O   0  0  0  0  0  1  0  0  0  0  0  0
  193.2940  175.6530  137.1820 C   0  0  0  0  0  2  0  0  0  0  0  0
  189.0690  176.3960  141.3770 C   0  0  0  0  0  0  0  0  0  0  0  0
  189.4450  175.6950  140.3980 O   0  0  0  0  0  0  0  0  0  0  0  0
  188.4890  175.7680  142.4730 O   0  0  0  0  0  1  0  0  0  0  0  0
  1  7  3  0  0  0  0
  2 10  3  0  0  0  0
  3 32  1  0  0  0  0
  3 11  1  1  0  0  0
  4  8  1  0  0  0  0
  5  4  1  0  0  0  0
  5  8  1  0  0  0  0
  6  3  1  0  0  0  0
  7  6  1  0  0  0  0
  8 14  1  0  0  0  0
  8 12  1  0  0  0  0
  9  3  1  0  0  0  0
 10  9  1  0  0  0  0
 12  2  1  1  0  0  0
 13  1  1  0  0  0  0
 14 13  1  1  0  0  0
 14 12  1  0  0  0  0
 15 28  1  0  0  0  0
 15 22  1  0  0  0  0
 18 22  2  0  0  0  0
 18 20  1  0  0  0  0
 19 23  1  0  0  0  0
 20 19  2  0  0  0  0
 21 17  1  0  0  0  0
 21 23  2  0  0  0  0
 22 21  1  0  0  0  0
 24 29  1  1  0  0  0
 24 16  1  0  0  0  0
 25 26  1  0  0  0  0
 26 24  1  0  0  0  0
 27 16  1  1  0  0  0
 27 17  1  0  0  0  0
 28 25  1  6  0  0  0
 28 14  1  0  0  0  0
 28 27  1  0  0  0  0
 29 31  1  0  0  0  0
 31 30  1  0  0  0  0
 32 34  1  0  0  0  0
 33 32  2  0  0  0  0
M  END
>  <MODEL>
7

>  <REMARK>
 VINA RESULT:      -2.0      3.624      6.803
  Name = 
  4 active torsions:
  status: ('A' for Active; 'I' for Inactive)
    1  A    between atoms: C_3  and  C_23
    2  A    between atoms: C_3  and  C_24
    3  A    between atoms: C_7  and  C_11
    4  A    between atoms: C_33  and  C_34
                            x       y       z     vdW  Elec       q    Type
                         _______ _______ _______ _____ _____    ______ ____

>  <TORSDO>
F 4

$$$$
