=
 OpenBabel10272400543D

 25 28  0  0  1  0  0  0  0  0999 V2000
  187.7130  177.9040  145.8140 N   0  0  0  0  0  0  0  0  0  0  0  0
  186.7420  177.6150  144.7550 C   0  0  0  0  0  0  0  0  0  0  0  0
  186.0150  178.6250  147.3400 C   0  0  0  0  0  3  0  0  0  0  0  0
  189.0320  177.3770  145.8990 C   0  0  0  0  0  0  0  0  0  0  0  0
  191.5890  176.3740  146.3570 C   0  0  0  0  0  3  0  0  0  0  0  0
  185.0940  178.6800  146.2390 N   0  0  0  0  0  0  0  0  0  0  0  0
  189.5840  177.4350  147.1700 C   0  0  0  0  0  0  0  0  0  0  0  0
  190.8640  176.9330  147.4170 C   0  0  0  0  0  3  0  0  0  0  0  0
  184.4950  178.4710  143.9030 C   0  0  1  0  0  3  0  0  0  0  0  0
  183.0410  178.7110  144.1170 C   0  0  0  0  0  1  0  0  0  0  0  0
  187.2430  178.0040  143.3900 C   0  0  0  0  0  3  0  0  0  0  0  0
  191.0320  176.3140  145.0690 C   0  0  0  0  0  3  0  0  0  0  0  0
  187.2820  178.2790  147.1200 C   0  0  0  0  0  0  0  0  0  0  0  0
  188.5130  178.1440  148.4220 S   0  0  0  0  0  0  0  0  0  0  0  0
  184.9790  178.4970  142.6950 N   0  0  0  0  0  0  0  0  0  0  0  0
  189.7430  176.8140  144.8350 C   0  0  0  0  0  3  0  0  0  0  0  0
  186.3850  178.3420  142.4180 C   0  0  0  0  0  0  0  0  0  0  0  0
  185.4090  178.2740  145.0410 C   0  0  0  0  0  0  0  0  0  0  0  0
  186.9040  178.6660  141.0630 C   0  0  0  0  0  2  0  0  0  0  0  0
  188.4210  178.5220  141.0360 C   0  0  0  0  0  2  0  0  0  0  0  0
  189.0950  178.5690  138.5990 C   0  0  0  0  0  1  0  0  0  0  0  0
  188.9170  177.7100  139.8400 C   0  0  1  0  0  3  0  0  0  0  0  0
  190.1560  176.9330  140.1550 C   0  0  0  0  0  0  0  0  0  0  0  0
  190.6120  175.9440  139.2900 O   0  0  0  0  0  1  0  0  0  0  0  0
  190.8340  177.2010  141.2600 C   0  0  0  0  0  2  0  0  0  0  0  0
  1  4  1  0  0  0  0
  1 13  1  0  0  0  0
  2 18  1  0  0  0  0
  2  1  1  0  0  0  0
  4  7  1  0  0  0  0
  5  8  1  0  0  0  0
  6  3  1  0  0  0  0
  7  8  2  0  0  0  0
  7 14  1  0  0  0  0
  9 10  1  1  0  0  0
  9 18  1  0  0  0  0
 11  2  2  0  0  0  0
 12  5  2  0  0  0  0
 13  3  2  0  0  0  0
 13 14  1  0  0  0  0
 15  9  1  0  0  0  0
 16 12  1  0  0  0  0
 16  4  2  0  0  0  0
 17 15  2  0  0  0  0
 17 11  1  0  0  0  0
 18  6  2  0  0  0  0
 19 17  1  0  0  0  0
 20 19  1  0  0  0  0
 22 21  1  6  0  0  0
 22 23  1  0  0  0  0
 22 20  1  0  0  0  0
 23 25  2  0  0  0  0
 24 23  1  0  0  0  0
M  END
>  <MODEL>
1

>  <REMARK>
 VINA RESULT:      -9.2      0.000      0.000
  Name = 
  4 active torsions:
  status: ('A' for Active; 'I' for Inactive)
    1  A    between atoms: C_2  and  C_25
    2  A    between atoms: C_6  and  C_15
    3  A    between atoms: C_6  and  C_23
    4  A    between atoms: C_15  and  C_25
                            x       y       z     vdW  Elec       q    Type
                         _______ _______ _______ _____ _____    ______ ____

>  <TORSDO>
F 4

$$$$
=
 OpenBabel10272400543D

 25 28  0  0  1  0  0  0  0  0999 V2000
  188.1600  177.6980  145.5500 N   0  0  0  0  0  0  0  0  0  0  0  0
  187.3350  177.4480  144.3640 C   0  0  0  0  0  0  0  0  0  0  0  0
  186.2710  178.3170  146.8830 C   0  0  0  0  0  3  0  0  0  0  0  0
  189.4690  177.1880  145.7750 C   0  0  0  0  0  0  0  0  0  0  0  0
  191.9700  176.2000  146.5010 C   0  0  0  0  0  3  0  0  0  0  0  0
  185.4930  178.4130  145.6800 N   0  0  0  0  0  0  0  0  0  0  0  0
  189.8570  177.1900  147.1060 C   0  0  0  0  0  0  0  0  0  0  0  0
  191.1060  176.6960  147.4880 C   0  0  0  0  0  3  0  0  0  0  0  0
  185.1950  178.3130  143.2800 C   0  0  1  0  0  3  0  0  0  0  0  0
  183.7210  178.5200  143.3210 C   0  0  0  0  0  1  0  0  0  0  0  0
  187.9940  177.9120  143.0940 C   0  0  0  0  0  3  0  0  0  0  0  0
  191.5780  176.1960  145.1530 C   0  0  0  0  0  3  0  0  0  0  0  0
  187.5620  178.0010  146.8080 C   0  0  0  0  0  0  0  0  0  0  0  0
  188.6240  177.8200  148.2460 S   0  0  0  0  0  0  0  0  0  0  0  0
  185.8240  178.4060  142.1440 N   0  0  0  0  0  0  0  0  0  0  0  0
  190.3190  176.6880  144.7820 C   0  0  0  0  0  3  0  0  0  0  0  0
  187.2570  178.2860  142.0390 C   0  0  0  0  0  0  0  0  0  0  0  0
  185.9630  178.0730  144.5120 C   0  0  0  0  0  0  0  0  0  0  0  0
  187.9340  178.6850  140.7760 C   0  0  0  0  0  2  0  0  0  0  0  0
  188.6710  177.4910  140.1800 C   0  0  0  0  0  2  0  0  0  0  0  0
  190.9230  176.8690  139.2110 C   0  0  0  0  0  1  0  0  0  0  0  0
  189.8120  177.9060  139.2510 C   0  0  1  0  0  3  0  0  0  0  0  0
  189.3300  178.2510  137.8770 C   0  0  0  0  0  0  0  0  0  0  0  0
  189.0050  179.5620  137.5470 O   0  0  0  0  0  1  0  0  0  0  0  0
  189.2270  177.3000  136.9610 C   0  0  0  0  0  2  0  0  0  0  0  0
  1  4  1  0  0  0  0
  1 13  1  0  0  0  0
  2 18  1  0  0  0  0
  2  1  1  0  0  0  0
  4  7  1  0  0  0  0
  5  8  1  0  0  0  0
  6  3  1  0  0  0  0
  7  8  2  0  0  0  0
  7 14  1  0  0  0  0
  9 10  1  1  0  0  0
  9 18  1  0  0  0  0
 11  2  2  0  0  0  0
 12  5  2  0  0  0  0
 13  3  2  0  0  0  0
 13 14  1  0  0  0  0
 15  9  1  0  0  0  0
 16 12  1  0  0  0  0
 16  4  2  0  0  0  0
 17 15  2  0  0  0  0
 17 11  1  0  0  0  0
 18  6  2  0  0  0  0
 19 17  1  0  0  0  0
 20 19  1  0  0  0  0
 22 21  1  6  0  0  0
 22 20  1  0  0  0  0
 23 22  1  0  0  0  0
 24 23  1  0  0  0  0
 25 23  2  0  0  0  0
M  END
>  <MODEL>
2

>  <REMARK>
 VINA RESULT:      -8.8      1.195      1.637
  Name = 
  4 active torsions:
  status: ('A' for Active; 'I' for Inactive)
    1  A    between atoms: C_2  and  C_25
    2  A    between atoms: C_6  and  C_15
    3  A    between atoms: C_6  and  C_23
    4  A    between atoms: C_15  and  C_25
                            x       y       z     vdW  Elec       q    Type
                         _______ _______ _______ _____ _____    ______ ____

>  <TORSDO>
F 4

$$$$
=
 OpenBabel10272400543D

 25 28  0  0  1  0  0  0  0  0999 V2000
  187.0360  178.1960  142.5120 N   0  0  0  0  0  0  0  0  0  0  0  0
  188.2230  177.3490  142.3640 C   0  0  0  0  0  0  0  0  0  0  0  0
  186.7580  178.4280  140.1460 C   0  0  0  0  0  3  0  0  0  0  0  0
  186.2110  178.2770  143.6690 C   0  0  0  0  0  0  0  0  0  0  0  0
  184.3770  178.5020  145.7520 C   0  0  0  0  0  3  0  0  0  0  0  0
  188.0830  177.9020  139.9700 N   0  0  0  0  0  0  0  0  0  0  0  0
  184.9440  178.7840  143.4270 C   0  0  0  0  0  0  0  0  0  0  0  0
  184.0110  178.9010  144.4590 C   0  0  0  0  0  3  0  0  0  0  0  0
  190.1980  177.0470  140.7780 C   0  0  1  0  0  3  0  0  0  0  0  0
  190.7290  176.7090  139.4290 C   0  0  0  0  0  1  0  0  0  0  0  0
  189.2810  177.6530  143.3900 C   0  0  0  0  0  3  0  0  0  0  0  0
  185.6600  177.9870  145.9990 C   0  0  0  0  0  3  0  0  0  0  0  0
  186.2740  178.5940  141.3750 C   0  0  0  0  0  0  0  0  0  0  0  0
  184.6210  179.2110  141.7140 S   0  0  0  0  0  0  0  0  0  0  0  0
  191.0020  177.0460  141.8020 N   0  0  0  0  0  0  0  0  0  0  0  0
  186.5850  177.8670  144.9530 C   0  0  0  0  0  3  0  0  0  0  0  0
  190.5750  177.4300  143.1240 C   0  0  0  0  0  0  0  0  0  0  0  0
  188.7940  177.4490  140.9650 C   0  0  0  0  0  0  0  0  0  0  0  0
  191.5940  177.6840  144.1770 C   0  0  0  0  0  2  0  0  0  0  0  0
  191.5360  176.5880  145.2350 C   0  0  0  0  0  2  0  0  0  0  0  0
  189.6600  176.8920  146.9040 C   0  0  0  0  0  1  0  0  0  0  0  0
  191.1350  177.1170  146.6120 C   0  0  1  0  0  3  0  0  0  0  0  0
  192.0020  176.5750  147.7040 C   0  0  0  0  0  0  0  0  0  0  0  0
  192.3700  177.3740  148.7820 O   0  0  0  0  0  1  0  0  0  0  0  0
  192.4110  175.3160  147.6520 C   0  0  0  0  0  2  0  0  0  0  0  0
  1  4  1  0  0  0  0
  2  1  1  0  0  0  0
  2 11  2  0  0  0  0
  3 13  2  0  0  0  0
  4 16  1  0  0  0  0
  5 12  1  0  0  0  0
  6  3  1  0  0  0  0
  6 18  2  0  0  0  0
  7  4  2  0  0  0  0
  7  8  1  0  0  0  0
  8  5  2  0  0  0  0
  9 10  1  6  0  0  0
  9 18  1  0  0  0  0
  9 15  1  0  0  0  0
 13 14  1  0  0  0  0
 13  1  1  0  0  0  0
 14  7  1  0  0  0  0
 15 17  2  0  0  0  0
 16 12  2  0  0  0  0
 17 11  1  0  0  0  0
 17 19  1  0  0  0  0
 18  2  1  0  0  0  0
 19 20  1  0  0  0  0
 20 22  1  0  0  0  0
 22 21  1  1  0  0  0
 22 23  1  0  0  0  0
 23 24  1  0  0  0  0
 25 23  2  0  0  0  0
M  END
>  <MODEL>
3

>  <REMARK>
 VINA RESULT:      -8.6      3.057      6.442
  Name = 
  4 active torsions:
  status: ('A' for Active; 'I' for Inactive)
    1  A    between atoms: C_2  and  C_25
    2  A    between atoms: C_6  and  C_15
    3  A    between atoms: C_6  and  C_23
    4  A    between atoms: C_15  and  C_25
                            x       y       z     vdW  Elec       q    Type
                         _______ _______ _______ _____ _____    ______ ____

>  <TORSDO>
F 4

$$$$
=
 OpenBabel10272400543D

 25 28  0  0  1  0  0  0  0  0999 V2000
  187.0350  178.2980  141.8600 N   0  0  0  0  0  0  0  0  0  0  0  0
  188.2520  177.4820  141.9090 C   0  0  0  0  0  0  0  0  0  0  0  0
  187.0700  178.4210  139.4700 C   0  0  0  0  0  3  0  0  0  0  0  0
  186.0620  178.4020  142.8920 C   0  0  0  0  0  0  0  0  0  0  0  0
  183.9600  178.6580  144.7020 C   0  0  0  0  0  3  0  0  0  0  0  0
  188.4190  177.9290  139.4950 N   0  0  0  0  0  0  0  0  0  0  0  0
  184.8260  178.8600  142.4620 C   0  0  0  0  0  0  0  0  0  0  0  0
  183.7610  178.9910  143.3550 C   0  0  0  0  0  3  0  0  0  0  0  0
  190.4280  177.1740  140.6140 C   0  0  1  0  0  3  0  0  0  0  0  0
  191.1420  176.7950  139.3630 C   0  0  0  0  0  1  0  0  0  0  0  0
  189.1560  177.8610  143.0510 C   0  0  0  0  0  3  0  0  0  0  0  0
  185.2110  178.1940  145.1400 C   0  0  0  0  0  3  0  0  0  0  0  0
  186.4220  178.6240  140.6150 C   0  0  0  0  0  0  0  0  0  0  0  0
  184.7240  179.2040  140.7040 S   0  0  0  0  0  0  0  0  0  0  0  0
  191.0880  177.2410  141.7340 N   0  0  0  0  0  0  0  0  0  0  0  0
  186.2710  178.0590  144.2320 C   0  0  0  0  0  3  0  0  0  0  0  0
  190.4790  177.6660  142.9690 C   0  0  0  0  0  0  0  0  0  0  0  0
  189.0020  177.5400  140.5940 C   0  0  0  0  0  0  0  0  0  0  0  0
  191.3410  177.9960  144.1350 C   0  0  0  0  0  2  0  0  0  0  0  0
  190.4780  178.3240  145.3470 C   0  0  0  0  0  2  0  0  0  0  0  0
  191.4640  176.5420  146.8470 C   0  0  0  0  0  1  0  0  0  0  0  0
  190.1970  177.1010  146.2200 C   0  0  1  0  0  3  0  0  0  0  0  0
  189.1440  177.3660  147.2500 C   0  0  0  0  0  0  0  0  0  0  0  0
  187.8940  176.7640  147.1590 O   0  0  0  0  0  1  0  0  0  0  0  0
  189.4110  178.1720  148.2660 C   0  0  0  0  0  2  0  0  0  0  0  0
  1  2  1  0  0  0  0
  1  4  1  0  0  0  0
  2 11  2  0  0  0  0
  3  6  1  0  0  0  0
  3 13  2  0  0  0  0
  4 16  1  0  0  0  0
  5 12  1  0  0  0  0
  6 18  2  0  0  0  0
  7  4  2  0  0  0  0
  7  8  1  0  0  0  0
  8  5  2  0  0  0  0
  9 10  1  6  0  0  0
  9 15  1  0  0  0  0
 13 14  1  0  0  0  0
 13  1  1  0  0  0  0
 14  7  1  0  0  0  0
 15 17  2  0  0  0  0
 16 12  2  0  0  0  0
 17 11  1  0  0  0  0
 17 19  1  0  0  0  0
 18  9  1  0  0  0  0
 18  2  1  0  0  0  0
 19 20  1  0  0  0  0
 20 22  1  0  0  0  0
 22 21  1  1  0  0  0
 22 23  1  0  0  0  0
 23 25  2  0  0  0  0
 24 23  1  0  0  0  0
M  END
>  <MODEL>
4

>  <REMARK>
 VINA RESULT:      -8.3      3.043      6.633
  Name = 
  4 active torsions:
  status: ('A' for Active; 'I' for Inactive)
    1  A    between atoms: C_2  and  C_25
    2  A    between atoms: C_6  and  C_15
    3  A    between atoms: C_6  and  C_23
    4  A    between atoms: C_15  and  C_25
                            x       y       z     vdW  Elec       q    Type
                         _______ _______ _______ _____ _____    ______ ____

>  <TORSDO>
F 4

$$$$
=
 OpenBabel10272400543D

 25 28  0  0  1  0  0  0  0  0999 V2000
  189.4430  177.6420  143.5830 N   0  0  0  0  0  0  0  0  0  0  0  0
  188.3860  177.2710  144.5280 C   0  0  2  0  0  3  0  0  0  0  0  0
  191.1770  177.2850  145.1940 C   0  0  0  0  0  3  0  0  0  0  0  0
  189.3260  177.6470  142.1650 C   0  0  0  0  0  0  0  0  0  0  0  0
  189.3850  177.6020  139.3810 C   0  0  0  0  0  3  0  0  0  0  0  0
  190.1730  177.2500  146.2200 N   0  0  0  0  0  0  0  0  0  0  0  0
  190.5400  177.6030  141.4960 C   0  0  0  0  0  0  0  0  0  0  0  0
  190.5870  177.5770  140.1010 C   0  0  0  0  0  3  0  0  0  0  0  0
  187.8960  177.3950  147.0280 C   0  0  0  0  0  0  0  0  0  0  0  0
  188.2270  177.0110  148.4280 C   0  0  0  0  0  1  0  0  0  0  0  0
  187.1610  178.1330  144.3930 C   0  0  0  0  0  3  0  0  0  0  0  0
  188.1540  177.6450  140.0560 C   0  0  0  0  0  3  0  0  0  0  0  0
  190.8190  177.5040  143.9300 C   0  0  0  0  0  0  0  0  0  0  0  0
  191.9810  177.5370  142.5620 S   0  0  0  0  0  0  0  0  0  0  0  0
  186.7220  177.8880  146.7590 N   0  0  0  0  0  0  0  0  0  0  0  0
  188.1190  177.6640  141.4580 C   0  0  0  0  0  3  0  0  0  0  0  0
  186.3550  178.3440  145.4420 C   0  0  0  0  0  0  0  0  0  0  0  0
  188.8970  177.2910  145.9540 C   0  0  0  0  0  0  0  0  0  0  0  0
  185.1190  179.1530  145.2660 C   0  0  0  0  0  2  0  0  0  0  0  0
  184.9670  179.5620  143.8050 C   0  0  0  0  0  2  0  0  0  0  0  0
  182.5560  178.9170  143.3950 C   0  0  0  0  0  1  0  0  0  0  0  0
  184.0090  178.6540  143.0350 C   0  0  1  0  0  3  0  0  0  0  0  0
  184.2300  178.7170  141.5560 C   0  0  0  0  0  0  0  0  0  0  0  0
  185.2160  179.5380  141.0200 O   0  0  0  0  0  1  0  0  0  0  0  0
  183.4900  177.9700  140.7510 C   0  0  0  0  0  2  0  0  0  0  0  0
  1 13  1  0  0  0  0
  1  2  1  0  0  0  0
  2 11  1  1  0  0  0
  2 18  1  0  0  0  0
  3  6  1  0  0  0  0
  4  1  1  0  0  0  0
  5 12  2  0  0  0  0
  5  8  1  0  0  0  0
  7  4  1  0  0  0  0
  7 14  1  0  0  0  0
  8  7  2  0  0  0  0
  9 10  1  0  0  0  0
 11 17  2  0  0  0  0
 12 16  1  0  0  0  0
 13  3  2  0  0  0  0
 14 13  1  0  0  0  0
 15  9  2  0  0  0  0
 16  4  2  0  0  0  0
 17 15  1  0  0  0  0
 18  6  2  0  0  0  0
 18  9  1  0  0  0  0
 19 17  1  0  0  0  0
 20 19  1  0  0  0  0
 22 21  1  6  0  0  0
 22 20  1  0  0  0  0
 23 22  1  0  0  0  0
 24 23  1  0  0  0  0
 25 23  2  0  0  0  0
M  END
>  <MODEL>
5

>  <REMARK>
 VINA RESULT:      -8.2      2.450      5.462
  Name = 
  4 active torsions:
  status: ('A' for Active; 'I' for Inactive)
    1  A    between atoms: C_2  and  C_25
    2  A    between atoms: C_6  and  C_15
    3  A    between atoms: C_6  and  C_23
    4  A    between atoms: C_15  and  C_25
                            x       y       z     vdW  Elec       q    Type
                         _______ _______ _______ _____ _____    ______ ____

>  <TORSDO>
F 4

$$$$
=
 OpenBabel10272400543D

 25 28  0  0  1  0  0  0  0  0999 V2000
  187.4650  177.9790  145.4770 N   0  0  0  0  0  0  0  0  0  0  0  0
  186.3580  177.6990  144.5570 C   0  0  0  0  0  0  0  0  0  0  0  0
  185.9910  178.6740  147.2300 C   0  0  0  0  0  3  0  0  0  0  0  0
  188.7840  177.4570  145.3730 C   0  0  0  0  0  0  0  0  0  0  0  0
  191.3820  176.4580  145.4620 C   0  0  0  0  0  3  0  0  0  0  0  0
  184.9270  178.7390  146.2680 N   0  0  0  0  0  0  0  0  0  0  0  0
  189.5060  177.5010  146.5570 C   0  0  0  0  0  0  0  0  0  0  0  0
  190.8080  177.0020  146.6190 C   0  0  0  0  0  3  0  0  0  0  0  0
  184.0130  178.5570  144.0340 C   0  0  1  0  0  3  0  0  0  0  0  0
  182.6020  178.7870  144.4480 C   0  0  0  0  0  1  0  0  0  0  0  0
  186.6650  178.1070  143.1420 C   0  0  0  0  0  3  0  0  0  0  0  0
  190.6530  176.4110  144.2630 C   0  0  0  0  0  3  0  0  0  0  0  0
  187.2160  178.3360  146.8350 C   0  0  0  0  0  0  0  0  0  0  0  0
  188.6150  178.1910  147.9530 S   0  0  0  0  0  0  0  0  0  0  0  0
  184.3260  178.5990  142.7710 N   0  0  0  0  0  0  0  0  0  0  0  0
  189.3430  176.9090  144.2140 C   0  0  0  0  0  3  0  0  0  0  0  0
  185.6810  178.4530  142.3020 C   0  0  0  0  0  0  0  0  0  0  0  0
  185.0750  178.3490  145.0320 C   0  0  0  0  0  0  0  0  0  0  0  0
  186.0080  178.7960  140.8920 C   0  0  0  0  0  2  0  0  0  0  0  0
  184.7360  179.1620  140.1350 C   0  0  0  0  0  2  0  0  0  0  0  0
  186.0200  178.1230  138.2190 C   0  0  0  0  0  1  0  0  0  0  0  0
  184.6490  178.4880  138.7660 C   0  0  1  0  0  3  0  0  0  0  0  0
  183.7250  177.3120  138.7680 C   0  0  0  0  0  0  0  0  0  0  0  0
  183.7460  176.3900  137.7270 O   0  0  0  0  0  1  0  0  0  0  0  0
  182.8900  177.1370  139.7810 C   0  0  0  0  0  2  0  0  0  0  0  0
  1 13  1  0  0  0  0
  2 18  1  0  0  0  0
  2  1  1  0  0  0  0
  4  1  1  0  0  0  0
  4  7  1  0  0  0  0
  5  8  1  0  0  0  0
  6  3  1  0  0  0  0
  7  8  2  0  0  0  0
  7 14  1  0  0  0  0
  9 10  1  1  0  0  0
  9 18  1  0  0  0  0
 11  2  2  0  0  0  0
 12  5  2  0  0  0  0
 13  3  2  0  0  0  0
 13 14  1  0  0  0  0
 15  9  1  0  0  0  0
 16 12  1  0  0  0  0
 16  4  2  0  0  0  0
 17 15  2  0  0  0  0
 17 11  1  0  0  0  0
 18  6  2  0  0  0  0
 19 17  1  0  0  0  0
 20 19  1  0  0  0  0
 22 21  1  1  0  0  0
 22 23  1  0  0  0  0
 22 20  1  0  0  0  0
 23 25  2  0  0  0  0
 24 23  1  0  0  0  0
M  END
>  <MODEL>
6

>  <REMARK>
 VINA RESULT:      -8.2      2.183      2.900
  Name = 
  4 active torsions:
  status: ('A' for Active; 'I' for Inactive)
    1  A    between atoms: C_2  and  C_25
    2  A    between atoms: C_6  and  C_15
    3  A    between atoms: C_6  and  C_23
    4  A    between atoms: C_15  and  C_25
                            x       y       z     vdW  Elec       q    Type
                         _______ _______ _______ _____ _____    ______ ____

>  <TORSDO>
F 4

$$$$
=
 OpenBabel10272400543D

 25 28  0  0  1  0  0  0  0  0999 V2000
  189.3930  177.4020  143.4910 N   0  0  0  0  0  0  0  0  0  0  0  0
  188.7250  178.2460  142.4960 C   0  0  0  0  0  0  0  0  0  0  0  0
  191.1860  176.8580  142.0020 C   0  0  0  0  0  3  0  0  0  0  0  0
  189.1890  177.4560  144.8980 C   0  0  0  0  0  0  0  0  0  0  0  0
  189.0670  177.4660  147.6800 C   0  0  0  0  0  3  0  0  0  0  0  0
  190.4040  177.3840  140.9180 N   0  0  0  0  0  0  0  0  0  0  0  0
  190.2170  176.8950  145.6410 C   0  0  0  0  0  0  0  0  0  0  0  0
  190.1730  176.8940  147.0360 C   0  0  0  0  0  3  0  0  0  0  0  0
  188.4140  178.3800  139.9680 C   0  0  1  0  0  3  0  0  0  0  0  0
  188.9880  178.5510  138.6050 C   0  0  0  0  0  1  0  0  0  0  0  0
  187.2280  178.1010  142.5260 C   0  0  0  0  0  3  0  0  0  0  0  0
  188.0260  178.0350  146.9300 C   0  0  0  0  0  3  0  0  0  0  0  0
  190.6790  176.8430  143.2330 C   0  0  0  0  0  0  0  0  0  0  0  0
  191.5760  176.2420  144.6680 S   0  0  0  0  0  0  0  0  0  0  0  0
  187.1330  178.5310  140.1470 N   0  0  0  0  0  0  0  0  0  0  0  0
  188.0840  178.0360  145.5290 C   0  0  0  0  0  3  0  0  0  0  0  0
  186.4980  178.3140  141.4230 C   0  0  0  0  0  0  0  0  0  0  0  0
  189.2580  177.9770  141.1040 C   0  0  0  0  0  0  0  0  0  0  0  0
  185.0150  178.2200  141.4950 C   0  0  0  0  0  2  0  0  0  0  0  0
  184.4840  179.1670  142.5650 C   0  0  0  0  0  2  0  0  0  0  0  0
  183.7690  178.8050  144.9640 C   0  0  0  0  0  1  0  0  0  0  0  0
  183.4820  178.4950  143.5040 C   0  0  1  0  0  3  0  0  0  0  0  0
  182.0650  178.8080  143.1420 C   0  0  0  0  0  0  0  0  0  0  0  0
  181.6990  179.0120  141.8160 O   0  0  0  0  0  1  0  0  0  0  0  0
  181.1460  178.8750  144.0930 C   0  0  0  0  0  2  0  0  0  0  0  0
  1  4  1  0  0  0  0
  2 11  2  0  0  0  0
  2  1  1  0  0  0  0
  3 13  2  0  0  0  0
  4 16  2  0  0  0  0
  4  7  1  0  0  0  0
  6 18  2  0  0  0  0
  6  3  1  0  0  0  0
  7  8  2  0  0  0  0
  8  5  1  0  0  0  0
  9 10  1  6  0  0  0
  9 15  1  0  0  0  0
  9 18  1  0  0  0  0
 12  5  2  0  0  0  0
 13  1  1  0  0  0  0
 13 14  1  0  0  0  0
 14  7  1  0  0  0  0
 15 17  2  0  0  0  0
 16 12  1  0  0  0  0
 17 19  1  0  0  0  0
 17 11  1  0  0  0  0
 18  2  1  0  0  0  0
 19 20  1  0  0  0  0
 20 22  1  0  0  0  0
 22 21  1  1  0  0  0
 23 22  1  0  0  0  0
 23 25  2  0  0  0  0
 24 23  1  0  0  0  0
M  END
>  <MODEL>
7

>  <REMARK>
 VINA RESULT:      -8.1      2.830      5.575
  Name = 
  4 active torsions:
  status: ('A' for Active; 'I' for Inactive)
    1  A    between atoms: C_2  and  C_25
    2  A    between atoms: C_6  and  C_15
    3  A    between atoms: C_6  and  C_23
    4  A    between atoms: C_15  and  C_25
                            x       y       z     vdW  Elec       q    Type
                         _______ _______ _______ _____ _____    ______ ____

>  <TORSDO>
F 4

$$$$
=
 OpenBabel10272400543D

 25 28  0  0  1  0  0  0  0  0999 V2000
  186.2550  178.3090  144.8450 N   0  0  0  0  0  0  0  0  0  0  0  0
  185.9600  177.8540  143.4830 C   0  0  0  0  0  0  0  0  0  0  0  0
  184.0040  179.0340  145.2180 C   0  0  0  0  0  3  0  0  0  0  0  0
  187.3590  177.8930  145.6400 C   0  0  0  0  0  0  0  0  0  0  0  0
  189.3510  177.1300  147.4310 C   0  0  0  0  0  3  0  0  0  0  0  0
  183.7670  178.9200  143.8060 N   0  0  0  0  0  0  0  0  0  0  0  0
  187.1900  178.1060  147.0000 C   0  0  0  0  0  0  0  0  0  0  0  0
  188.1770  177.7270  147.9110 C   0  0  0  0  0  3  0  0  0  0  0  0
  184.4390  178.4580  141.5270 C   0  0  1  0  0  3  0  0  0  0  0  0
  183.0720  178.6060  140.9540 C   0  0  0  0  0  1  0  0  0  0  0  0
  187.0760  178.1550  142.5190 C   0  0  0  0  0  3  0  0  0  0  0  0
  189.5240  176.9130  146.0540 C   0  0  0  0  0  3  0  0  0  0  0  0
  185.2140  178.7660  145.7050 C   0  0  0  0  0  0  0  0  0  0  0  0
  185.6180  178.8420  147.4540 S   0  0  0  0  0  0  0  0  0  0  0  0
  185.4670  178.4120  140.7300 N   0  0  0  0  0  0  0  0  0  0  0  0
  188.5220  177.2910  145.1490 C   0  0  0  0  0  3  0  0  0  0  0  0
  186.8220  178.3390  141.2160 C   0  0  0  0  0  0  0  0  0  0  0  0
  184.6530  178.4330  142.9830 C   0  0  0  0  0  0  0  0  0  0  0  0
  187.9500  178.5790  140.2770 C   0  0  0  0  0  2  0  0  0  0  0  0
  189.2790  178.4410  141.0110 C   0  0  0  0  0  2  0  0  0  0  0  0
  190.7780  176.9400  139.6340 C   0  0  0  0  0  1  0  0  0  0  0  0
  189.8930  177.0490  140.8650 C   0  0  1  0  0  3  0  0  0  0  0  0
  190.6130  176.6130  142.1020 C   0  0  0  0  0  0  0  0  0  0  0  0
  190.2900  175.4130  142.7250 O   0  0  0  0  0  1  0  0  0  0  0  0
  191.5790  177.3700  142.5980 C   0  0  0  0  0  2  0  0  0  0  0  0
  1  4  1  0  0  0  0
  1 13  1  0  0  0  0
  2  1  1  0  0  0  0
  3 13  2  0  0  0  0
  4  7  1  0  0  0  0
  5  8  1  0  0  0  0
  6  3  1  0  0  0  0
  7 14  1  0  0  0  0
  7  8  2  0  0  0  0
  9 10  1  1  0  0  0
  9 18  1  0  0  0  0
 11  2  2  0  0  0  0
 12  5  2  0  0  0  0
 13 14  1  0  0  0  0
 15 17  2  0  0  0  0
 15  9  1  0  0  0  0
 16  4  2  0  0  0  0
 16 12  1  0  0  0  0
 17 11  1  0  0  0  0
 18  2  1  0  0  0  0
 18  6  2  0  0  0  0
 19 20  1  0  0  0  0
 19 17  1  0  0  0  0
 22 21  1  6  0  0  0
 22 20  1  0  0  0  0
 22 23  1  0  0  0  0
 23 25  2  0  0  0  0
 23 24  1  0  0  0  0
M  END
>  <MODEL>
8

>  <REMARK>
 VINA RESULT:      -8.1      1.596      2.237
  Name = 
  4 active torsions:
  status: ('A' for Active; 'I' for Inactive)
    1  A    between atoms: C_2  and  C_25
    2  A    between atoms: C_6  and  C_15
    3  A    between atoms: C_6  and  C_23
    4  A    between atoms: C_15  and  C_25
                            x       y       z     vdW  Elec       q    Type
                         _______ _______ _______ _____ _____    ______ ____

>  <TORSDO>
F 4

$$$$
=
 OpenBabel10272400543D

 25 28  0  0  1  0  0  0  0  0999 V2000
  188.1040  177.9650  140.3490 N   0  0  0  0  0  0  0  0  0  0  0  0
  186.9610  178.7990  140.7340 C   0  0  0  0  0  0  0  0  0  0  0  0
  187.4230  177.8790  138.0560 C   0  0  0  0  0  3  0  0  0  0  0  0
  189.3180  177.8300  141.0790 C   0  0  0  0  0  0  0  0  0  0  0  0
  191.8250  177.5140  142.2510 C   0  0  0  0  0  3  0  0  0  0  0  0
  186.1400  178.3910  138.4500 N   0  0  0  0  0  0  0  0  0  0  0  0
  190.3830  177.3600  140.3260 C   0  0  0  0  0  0  0  0  0  0  0  0
  191.6470  177.1990  140.8970 C   0  0  0  0  0  3  0  0  0  0  0  0
  184.5230  179.1600  140.0780 C   0  0  1  0  0  3  0  0  0  0  0  0
  183.5050  179.5690  139.0720 C   0  0  0  0  0  1  0  0  0  0  0  0
  186.3930  178.4160  142.0740 C   0  0  0  0  0  3  0  0  0  0  0  0
  190.7480  177.9910  143.0150 C   0  0  0  0  0  3  0  0  0  0  0  0
  188.3520  177.6490  138.9810 C   0  0  0  0  0  0  0  0  0  0  0  0
  190.0000  177.0410  138.6020 S   0  0  0  0  0  0  0  0  0  0  0  0
  184.1890  179.0860  141.3340 N   0  0  0  0  0  0  0  0  0  0  0  0
  189.4850  178.1560  142.4290 C   0  0  0  0  0  3  0  0  0  0  0  0
  185.1010  178.6320  142.3540 C   0  0  0  0  0  0  0  0  0  0  0  0
  185.8830  178.7720  139.6710 C   0  0  0  0  0  0  0  0  0  0  0  0
  184.5790  178.2980  143.7070 C   0  0  0  0  0  2  0  0  0  0  0  0
  185.4460  178.9500  144.7770 C   0  0  0  0  0  2  0  0  0  0  0  0
  187.2930  177.2580  145.1240 C   0  0  0  0  0  1  0  0  0  0  0  0
  186.0730  177.9330  145.7300 C   0  0  1  0  0  3  0  0  0  0  0  0
  186.3780  178.5210  147.0710 C   0  0  0  0  0  0  0  0  0  0  0  0
  185.6100  179.5620  147.5810 O   0  0  0  0  0  1  0  0  0  0  0  0
  187.3800  178.0340  147.7870 C   0  0  0  0  0  2  0  0  0  0  0  0
  1  2  1  0  0  0  0
  1  4  1  0  0  0  0
  2 11  2  0  0  0  0
  3  6  1  0  0  0  0
  3 13  2  0  0  0  0
  4 16  1  0  0  0  0
  5 12  1  0  0  0  0
  6 18  2  0  0  0  0
  7  8  1  0  0  0  0
  7  4  2  0  0  0  0
  8  5  2  0  0  0  0
  9 10  1  6  0  0  0
  9 15  1  0  0  0  0
 11 17  1  0  0  0  0
 13  1  1  0  0  0  0
 14 13  1  0  0  0  0
 14  7  1  0  0  0  0
 15 17  2  0  0  0  0
 16 12  2  0  0  0  0
 17 19  1  0  0  0  0
 18  9  1  0  0  0  0
 18  2  1  0  0  0  0
 19 20  1  0  0  0  0
 20 22  1  0  0  0  0
 22 21  1  6  0  0  0
 22 23  1  0  0  0  0
 23 24  1  0  0  0  0
 23 25  2  0  0  0  0
M  END
>  <MODEL>
9

>  <REMARK>
 VINA RESULT:      -8.0      3.617      6.144
  Name = 
  4 active torsions:
  status: ('A' for Active; 'I' for Inactive)
    1  A    between atoms: C_2  and  C_25
    2  A    between atoms: C_6  and  C_15
    3  A    between atoms: C_6  and  C_23
    4  A    between atoms: C_15  and  C_25
                            x       y       z     vdW  Elec       q    Type
                         _______ _______ _______ _____ _____    ______ ____

>  <TORSDO>
F 4

$$$$
