=
 OpenBabel10272401063D

 27 29  0  0  1  0  0  0  0  0999 V2000
  188.6900  178.0390  143.9120 C   0  0  2  0  0  3  0  0  0  0  0  0
  191.6250  176.6680  146.8160 C   0  0  0  0  0  2  0  0  0  0  0  0
  189.6390  177.3780  144.8800 C   0  0  0  0  0  0  0  0  0  0  0  0
  191.0000  176.9010  144.4120 C   0  0  0  0  0  2  0  0  0  0  0  0
  191.7170  176.0260  145.4400 C   0  0  0  0  0  2  0  0  0  0  0  0
  190.1610  176.7140  147.2380 C   0  0  0  0  0  2  0  0  0  0  0  0
  189.3020  177.3570  146.1820 C   0  0  0  0  0  3  0  0  0  0  0  0
  187.4290  177.1990  143.6710 C   0  0  0  0  0  2  0  0  0  0  0  0
  183.9880  178.7970  143.9990 C   0  0  0  0  0  3  0  0  0  0  0  0
  183.8830  178.9270  145.3860 C   0  0  0  0  0  3  0  0  0  0  0  0
  186.1920  177.8140  144.2550 C   0  0  0  0  0  0  0  0  0  0  0  0
  185.2280  178.1290  142.0470 O   0  0  0  0  0  1  0  0  0  0  0  0
  184.9300  178.5040  146.2090 C   0  0  0  0  0  3  0  0  0  0  0  0
  186.0810  177.9490  145.6440 C   0  0  0  0  0  3  0  0  0  0  0  0
  185.1390  178.2430  143.4290 C   0  0  0  0  0  0  0  0  0  0  0  0
  189.3400  178.3710  142.6520 N   0  0  0  0  0  2  0  0  0  0  0  0
  188.4540  177.9300  141.5880 C   0  0  0  0  0  2  0  0  0  0  0  0
  191.2060  176.4860  139.4540 C   0  0  0  0  0  3  0  0  0  0  0  0
  191.6310  176.3780  137.0170 C   0  0  0  0  0  1  0  0  0  0  0  0
  189.5890  177.5340  137.9690 C   0  0  0  0  0  0  0  0  0  0  0  0
  189.0330  177.8160  136.3150 Cl  0  0  0  0  0  0  0  0  0  0  0  0
  188.8240  177.9360  139.0950 C   0  0  0  0  0  0  0  0  0  0  0  0
  190.7880  176.8180  138.1650 C   0  0  0  0  0  0  0  0  0  0  0  0
  189.2580  177.5730  140.3840 C   0  0  0  0  0  0  0  0  0  0  0  0
  190.4410  176.8560  140.5570 C   0  0  0  0  0  3  0  0  0  0  0  0
  186.3990  178.1350  138.5360 C   0  0  0  0  0  1  0  0  0  0  0  0
  187.6320  178.6710  138.9930 O   0  0  0  0  0  0  0  0  0  0  0  0
  1  8  1  6  0  0  0
  1  3  1  0  0  0  0
  2  6  1  0  0  0  0
  3  7  2  0  0  0  0
  4  3  1  0  0  0  0
  4  5  1  0  0  0  0
  5  2  1  0  0  0  0
  7  6  1  0  0  0  0
  8 11  1  0  0  0  0
  9 10  1  0  0  0  0
 10 13  2  0  0  0  0
 11 14  2  0  0  0  0
 12 15  1  0  0  0  0
 14 13  1  0  0  0  0
 15  9  2  0  0  0  0
 15 11  1  0  0  0  0
 16  1  1  0  0  0  0
 17 16  1  0  0  0  0
 18 25  1  0  0  0  0
 19 23  1  0  0  0  0
 20 23  1  0  0  0  0
 20 22  2  0  0  0  0
 21 20  1  0  0  0  0
 22 24  1  0  0  0  0
 23 18  2  0  0  0  0
 24 25  2  0  0  0  0
 24 17  1  0  0  0  0
 26 27  1  0  0  0  0
 27 22  1  0  0  0  0
M  END
>  <MODEL>
1

>  <REMARK>
 VINA RESULT:      -8.9      0.000      0.000
  Name = 
  7 active torsions:
  status: ('A' for Active; 'I' for Inactive)
    1  A    between atoms: C_1  and  C_15
    2  A    between atoms: C_1  and  C_18
    3  A    between atoms: N_2  and  C_6
    4  A    between atoms: N_2  and  C_15
    5  A    between atoms: C_6  and  C_17
    6  A    between atoms: C_9  and  C_15
    7  A    between atoms: C_14  and  O_19
                            x       y       z     vdW  Elec       q    Type
                         _______ _______ _______ _____ _____    ______ ____

>  <TORSDO>
F 7

$$$$
=
 OpenBabel10272401063D

 27 29  0  0  1  0  0  0  0  0999 V2000
  187.9970  177.2400  144.0050 C   0  0  2  0  0  3  0  0  0  0  0  0
  184.0710  178.6530  145.2370 C   0  0  0  0  0  2  0  0  0  0  0  0
  186.7130  177.9160  144.4160 C   0  0  0  0  0  0  0  0  0  0  0  0
  185.6910  178.3180  143.3700 C   0  0  0  0  0  2  0  0  0  0  0  0
  184.5870  179.2180  143.9220 C   0  0  0  0  0  2  0  0  0  0  0  0
  185.2010  178.6830  146.2590 C   0  0  0  0  0  2  0  0  0  0  0  0
  186.4430  178.0170  145.7300 C   0  0  0  0  0  3  0  0  0  0  0  0
  189.2340  178.0580  144.3970 C   0  0  0  0  0  2  0  0  0  0  0  0
  191.9960  176.0410  146.0730 C   0  0  0  0  0  3  0  0  0  0  0  0
  191.6460  176.1750  147.4200 C   0  0  0  0  0  3  0  0  0  0  0  0
  190.0770  177.3870  145.4400 C   0  0  0  0  0  0  0  0  0  0  0  0
  191.5740  176.4920  143.7470 O   0  0  0  0  0  1  0  0  0  0  0  0
  190.5140  176.9110  147.7790 C   0  0  0  0  0  3  0  0  0  0  0  0
  189.7320  177.5150  146.7910 C   0  0  0  0  0  3  0  0  0  0  0  0
  191.2150  176.6430  145.0810 C   0  0  0  0  0  0  0  0  0  0  0  0
  188.0150  176.9210  142.5840 N   0  0  0  0  0  2  0  0  0  0  0  0
  188.9370  177.8500  141.9530 C   0  0  0  0  0  2  0  0  0  0  0  0
  187.5030  178.1390  138.4790 C   0  0  0  0  0  3  0  0  0  0  0  0
  188.3440  177.6190  136.2090 C   0  0  0  0  0  1  0  0  0  0  0  0
  189.7320  177.1870  138.2820 C   0  0  0  0  0  0  0  0  0  0  0  0
  191.0630  176.6860  137.2320 Cl  0  0  0  0  0  0  0  0  0  0  0  0
  189.8650  177.2210  139.6960 C   0  0  0  0  0  0  0  0  0  0  0  0
  188.5360  177.6390  137.6870 C   0  0  0  0  0  0  0  0  0  0  0  0
  188.8150  177.7470  140.4710 C   0  0  0  0  0  0  0  0  0  0  0  0
  187.6440  178.1990  139.8630 C   0  0  0  0  0  3  0  0  0  0  0  0
  192.2440  177.4700  140.4120 C   0  0  0  0  0  1  0  0  0  0  0  0
  191.0090  176.7690  140.3720 O   0  0  0  0  0  0  0  0  0  0  0  0
  1  8  1  6  0  0  0
  1  3  1  0  0  0  0
  2  6  1  0  0  0  0
  3  7  2  0  0  0  0
  4  5  1  0  0  0  0
  4  3  1  0  0  0  0
  5  2  1  0  0  0  0
  7  6  1  0  0  0  0
  8 11  1  0  0  0  0
  9 10  1  0  0  0  0
 10 13  2  0  0  0  0
 11 14  2  0  0  0  0
 12 15  1  0  0  0  0
 14 13  1  0  0  0  0
 15 11  1  0  0  0  0
 15  9  2  0  0  0  0
 16  1  1  0  0  0  0
 17 16  1  0  0  0  0
 18 25  1  0  0  0  0
 19 23  1  0  0  0  0
 20 22  2  0  0  0  0
 21 20  1  0  0  0  0
 22 27  1  0  0  0  0
 22 24  1  0  0  0  0
 23 20  1  0  0  0  0
 23 18  2  0  0  0  0
 24 17  1  0  0  0  0
 25 24  2  0  0  0  0
 27 26  1  0  0  0  0
M  END
>  <MODEL>
2

>  <REMARK>
 VINA RESULT:      -8.9      1.821      4.828
  Name = 
  7 active torsions:
  status: ('A' for Active; 'I' for Inactive)
    1  A    between atoms: C_1  and  C_15
    2  A    between atoms: C_1  and  C_18
    3  A    between atoms: N_2  and  C_6
    4  A    between atoms: N_2  and  C_15
    5  A    between atoms: C_6  and  C_17
    6  A    between atoms: C_9  and  C_15
    7  A    between atoms: C_14  and  O_19
                            x       y       z     vdW  Elec       q    Type
                         _______ _______ _______ _____ _____    ______ ____

>  <TORSDO>
F 7

$$$$
=
 OpenBabel10272401063D

 27 29  0  0  1  0  0  0  0  0999 V2000
  187.8750  177.2600  144.3210 C   0  0  2  0  0  3  0  0  0  0  0  0
  183.9060  178.6010  145.4950 C   0  0  0  0  0  2  0  0  0  0  0  0
  186.5780  177.9100  144.7330 C   0  0  0  0  0  0  0  0  0  0  0  0
  185.6110  178.4210  143.6820 C   0  0  0  0  0  2  0  0  0  0  0  0
  184.4890  179.2790  144.2640 C   0  0  0  0  0  2  0  0  0  0  0  0
  184.9860  178.5220  146.5670 C   0  0  0  0  0  2  0  0  0  0  0  0
  186.2470  177.8920  146.0360 C   0  0  0  0  0  3  0  0  0  0  0  0
  189.0980  178.0760  144.7590 C   0  0  0  0  0  2  0  0  0  0  0  0
  191.1600  176.3890  147.4800 C   0  0  0  0  0  3  0  0  0  0  0  0
  192.0800  175.6700  146.7120 C   0  0  0  0  0  3  0  0  0  0  0  0
  190.1390  177.2500  145.4530 C   0  0  0  0  0  0  0  0  0  0  0  0
  189.2880  177.8940  147.6370 O   0  0  0  0  0  1  0  0  0  0  0  0
  192.0340  175.7410  145.3170 C   0  0  0  0  0  3  0  0  0  0  0  0
  191.0660  176.5290  144.6900 C   0  0  0  0  0  3  0  0  0  0  0  0
  190.1910  177.1800  146.8560 C   0  0  0  0  0  0  0  0  0  0  0  0
  187.9180  176.9870  142.8910 N   0  0  0  0  0  2  0  0  0  0  0  0
  188.6740  178.0650  142.2760 C   0  0  0  0  0  2  0  0  0  0  0  0
  190.4250  176.5750  139.2890 C   0  0  0  0  0  3  0  0  0  0  0  0
  189.9630  176.5260  136.8570 C   0  0  0  0  0  1  0  0  0  0  0  0
  188.4460  177.7360  138.4830 C   0  0  0  0  0  0  0  0  0  0  0  0
  187.3600  178.0940  137.1350 Cl  0  0  0  0  0  0  0  0  0  0  0  0
  188.1450  178.1350  139.8130 C   0  0  0  0  0  0  0  0  0  0  0  0
  189.6000  176.9650  138.2350 C   0  0  0  0  0  0  0  0  0  0  0  0
  188.9850  177.7140  140.8610 C   0  0  0  0  0  0  0  0  0  0  0  0
  190.1160  176.9420  140.5960 C   0  0  0  0  0  3  0  0  0  0  0  0
  185.6830  178.5020  140.0040 C   0  0  0  0  0  1  0  0  0  0  0  0
  187.0320  178.9220  140.1470 O   0  0  0  0  0  0  0  0  0  0  0  0
  1  3  1  0  0  0  0
  1  8  1  6  0  0  0
  2  6  1  0  0  0  0
  3  7  2  0  0  0  0
  4  5  1  0  0  0  0
  4  3  1  0  0  0  0
  5  2  1  0  0  0  0
  7  6  1  0  0  0  0
  8 11  1  0  0  0  0
 10  9  2  0  0  0  0
 11 15  2  0  0  0  0
 13 10  1  0  0  0  0
 14 13  2  0  0  0  0
 14 11  1  0  0  0  0
 15  9  1  0  0  0  0
 15 12  1  0  0  0  0
 16  1  1  0  0  0  0
 17 16  1  0  0  0  0
 18 25  1  0  0  0  0
 19 23  1  0  0  0  0
 20 22  2  0  0  0  0
 21 20  1  0  0  0  0
 22 27  1  0  0  0  0
 22 24  1  0  0  0  0
 23 20  1  0  0  0  0
 23 18  2  0  0  0  0
 24 17  1  0  0  0  0
 25 24  2  0  0  0  0
 26 27  1  0  0  0  0
M  END
>  <MODEL>
3

>  <REMARK>
 VINA RESULT:      -8.8      1.636      4.622
  Name = 
  7 active torsions:
  status: ('A' for Active; 'I' for Inactive)
    1  A    between atoms: C_1  and  C_15
    2  A    between atoms: C_1  and  C_18
    3  A    between atoms: N_2  and  C_6
    4  A    between atoms: N_2  and  C_15
    5  A    between atoms: C_6  and  C_17
    6  A    between atoms: C_9  and  C_15
    7  A    between atoms: C_14  and  O_19
                            x       y       z     vdW  Elec       q    Type
                         _______ _______ _______ _____ _____    ______ ____

>  <TORSDO>
F 7

$$$$
=
 OpenBabel10272401063D

 27 29  0  0  1  0  0  0  0  0999 V2000
  187.9600  177.1700  143.8840 C   0  0  2  0  0  3  0  0  0  0  0  0
  184.2620  179.2960  144.7380 C   0  0  0  0  0  2  0  0  0  0  0  0
  186.6040  177.7270  144.2350 C   0  0  0  0  0  0  0  0  0  0  0  0
  186.3140  178.2060  145.6450 C   0  0  0  0  0  2  0  0  0  0  0  0
  184.8330  178.4870  145.8930 C   0  0  0  0  0  2  0  0  0  0  0  0
  184.3330  178.4550  143.4700 C   0  0  0  0  0  2  0  0  0  0  0  0
  185.7210  177.9180  143.2390 C   0  0  0  0  0  3  0  0  0  0  0  0
  189.1010  178.0780  144.3580 C   0  0  0  0  0  2  0  0  0  0  0  0
  191.9280  176.1860  146.0720 C   0  0  0  0  0  3  0  0  0  0  0  0
  191.5530  176.3010  147.4130 C   0  0  0  0  0  3  0  0  0  0  0  0
  189.9590  177.4440  145.4120 C   0  0  0  0  0  0  0  0  0  0  0  0
  191.5210  176.6230  143.7400 O   0  0  0  0  0  1  0  0  0  0  0  0
  190.3830  176.9830  147.7560 C   0  0  0  0  0  3  0  0  0  0  0  0
  189.5890  177.5520  146.7580 C   0  0  0  0  0  3  0  0  0  0  0  0
  191.1350  176.7540  145.0700 C   0  0  0  0  0  0  0  0  0  0  0  0
  188.0810  176.8850  142.4610 N   0  0  0  0  0  2  0  0  0  0  0  0
  188.8980  177.9400  141.8850 C   0  0  0  0  0  2  0  0  0  0  0  0
  190.8090  176.4040  139.0220 C   0  0  0  0  0  3  0  0  0  0  0  0
  190.4850  176.3240  136.5690 C   0  0  0  0  0  1  0  0  0  0  0  0
  188.8830  177.5610  138.0900 C   0  0  0  0  0  0  0  0  0  0  0  0
  187.8780  177.9050  136.6780 Cl  0  0  0  0  0  0  0  0  0  0  0  0
  188.5100  177.9790  139.3950 C   0  0  0  0  0  0  0  0  0  0  0  0
  190.0460  176.7820  137.9170 C   0  0  0  0  0  0  0  0  0  0  0  0
  189.2870  177.5680  140.4950 C   0  0  0  0  0  0  0  0  0  0  0  0
  190.4280  176.7890  140.3040 C   0  0  0  0  0  3  0  0  0  0  0  0
  186.0410  178.3400  139.4900 C   0  0  0  0  0  1  0  0  0  0  0  0
  187.3830  178.7740  139.6560 O   0  0  0  0  0  0  0  0  0  0  0  0
  1  3  1  0  0  0  0
  1  8  1  6  0  0  0
  2  5  1  0  0  0  0
  3  4  1  0  0  0  0
  4  5  1  0  0  0  0
  6  2  1  0  0  0  0
  7  6  1  0  0  0  0
  7  3  2  0  0  0  0
  8 11  1  0  0  0  0
  9 10  1  0  0  0  0
 10 13  2  0  0  0  0
 11 14  2  0  0  0  0
 12 15  1  0  0  0  0
 14 13  1  0  0  0  0
 15 11  1  0  0  0  0
 15  9  2  0  0  0  0
 16  1  1  0  0  0  0
 17 16  1  0  0  0  0
 18 25  1  0  0  0  0
 19 23  1  0  0  0  0
 20 22  2  0  0  0  0
 21 20  1  0  0  0  0
 22 27  1  0  0  0  0
 22 24  1  0  0  0  0
 23 20  1  0  0  0  0
 23 18  2  0  0  0  0
 24 17  1  0  0  0  0
 25 24  2  0  0  0  0
 26 27  1  0  0  0  0
M  END
>  <MODEL>
4

>  <REMARK>
 VINA RESULT:      -8.8      1.463      4.456
  Name = 
  7 active torsions:
  status: ('A' for Active; 'I' for Inactive)
    1  A    between atoms: C_1  and  C_15
    2  A    between atoms: C_1  and  C_18
    3  A    between atoms: N_2  and  C_6
    4  A    between atoms: N_2  and  C_15
    5  A    between atoms: C_6  and  C_17
    6  A    between atoms: C_9  and  C_15
    7  A    between atoms: C_14  and  O_19
                            x       y       z     vdW  Elec       q    Type
                         _______ _______ _______ _____ _____    ______ ____

>  <TORSDO>
F 7

$$$$
=
 OpenBabel10272401063D

 27 29  0  0  1  0  0  0  0  0999 V2000
  187.4290  177.9930  143.6580 C   0  0  2  0  0  3  0  0  0  0  0  0
  191.5460  176.6050  143.4280 C   0  0  0  0  0  2  0  0  0  0  0  0
  188.8500  177.5700  143.3860 C   0  0  0  0  0  0  0  0  0  0  0  0
  189.9910  178.5500  143.5830 C   0  0  0  0  0  2  0  0  0  0  0  0
  191.3180  178.0510  143.0130 C   0  0  0  0  0  2  0  0  0  0  0  0
  190.4580  175.7400  142.8040 C   0  0  0  0  0  2  0  0  0  0  0  0
  189.0840  176.2750  143.1070 C   0  0  0  0  0  3  0  0  0  0  0  0
  186.8190  177.2430  144.8490 C   0  0  0  0  0  2  0  0  0  0  0  0
  187.4750  178.6910  148.3100 C   0  0  0  0  0  3  0  0  0  0  0  0
  188.7300  178.1460  148.5960 C   0  0  0  0  0  3  0  0  0  0  0  0
  187.4790  177.5750  146.1550 C   0  0  0  0  0  0  0  0  0  0  0  0
  185.6030  178.9680  146.8240 O   0  0  0  0  0  1  0  0  0  0  0  0
  189.3610  177.3180  147.6640 C   0  0  0  0  0  3  0  0  0  0  0  0
  188.7370  177.0340  146.4470 C   0  0  0  0  0  3  0  0  0  0  0  0
  186.8480  178.4100  147.0930 C   0  0  0  0  0  0  0  0  0  0  0  0
  186.5860  177.8640  142.4780 N   0  0  0  0  0  2  0  0  0  0  0  0
  185.9330  179.1470  142.2810 C   0  0  0  0  0  2  0  0  0  0  0  0
  182.6860  179.1120  144.1950 C   0  0  0  0  0  3  0  0  0  0  0  0
  180.3120  178.7860  143.5720 C   0  0  0  0  0  1  0  0  0  0  0  0
  182.1730  178.6690  141.8590 C   0  0  0  0  0  0  0  0  0  0  0  0
  180.9440  178.4700  140.6040 Cl  0  0  0  0  0  0  0  0  0  0  0  0
  183.5570  178.7330  141.5480 C   0  0  0  0  0  0  0  0  0  0  0  0
  181.7520  178.8490  143.1930 C   0  0  0  0  0  0  0  0  0  0  0  0
  184.4770  179.0180  142.5750 C   0  0  0  0  0  0  0  0  0  0  0  0
  184.0400  179.2020  143.8870 C   0  0  0  0  0  3  0  0  0  0  0  0
  184.0620  179.5370  139.2390 C   0  0  0  0  0  1  0  0  0  0  0  0
  184.0650  178.5430  140.2540 O   0  0  0  0  0  0  0  0  0  0  0  0
  1  8  1  1  0  0  0
  3  4  1  0  0  0  0
  3  1  1  0  0  0  0
  5  2  1  0  0  0  0
  5  4  1  0  0  0  0
  6  7  1  0  0  0  0
  6  2  1  0  0  0  0
  7  3  2  0  0  0  0
  8 11  1  0  0  0  0
  9 10  1  0  0  0  0
 11 14  2  0  0  0  0
 11 15  1  0  0  0  0
 12 15  1  0  0  0  0
 13 10  2  0  0  0  0
 14 13  1  0  0  0  0
 15  9  2  0  0  0  0
 16  1  1  0  0  0  0
 17 16  1  0  0  0  0
 17 24  1  0  0  0  0
 20 23  1  0  0  0  0
 21 20  1  0  0  0  0
 22 20  2  0  0  0  0
 22 24  1  0  0  0  0
 23 19  1  0  0  0  0
 23 18  2  0  0  0  0
 24 25  2  0  0  0  0
 25 18  1  0  0  0  0
 26 27  1  0  0  0  0
 27 22  1  0  0  0  0
M  END
>  <MODEL>
5

>  <REMARK>
 VINA RESULT:      -8.7      3.241      5.811
  Name = 
  7 active torsions:
  status: ('A' for Active; 'I' for Inactive)
    1  A    between atoms: C_1  and  C_15
    2  A    between atoms: C_1  and  C_18
    3  A    between atoms: N_2  and  C_6
    4  A    between atoms: N_2  and  C_15
    5  A    between atoms: C_6  and  C_17
    6  A    between atoms: C_9  and  C_15
    7  A    between atoms: C_14  and  O_19
                            x       y       z     vdW  Elec       q    Type
                         _______ _______ _______ _____ _____    ______ ____

>  <TORSDO>
F 7

$$$$
=
 OpenBabel10272401063D

 27 29  0  0  1  0  0  0  0  0999 V2000
  187.8270  177.1670  144.1270 C   0  0  2  0  0  3  0  0  0  0  0  0
  184.1020  179.2910  144.8640 C   0  0  0  0  0  2  0  0  0  0  0  0
  186.4590  177.7240  144.4300 C   0  0  0  0  0  0  0  0  0  0  0  0
  186.1110  178.1760  145.8360 C   0  0  0  0  0  2  0  0  0  0  0  0
  184.6220  178.4580  146.0260 C   0  0  0  0  0  2  0  0  0  0  0  0
  184.2250  178.4740  143.5840 C   0  0  0  0  0  2  0  0  0  0  0  0
  185.6200  177.9370  143.4010 C   0  0  0  0  0  3  0  0  0  0  0  0
  188.9500  178.0750  144.6430 C   0  0  0  0  0  2  0  0  0  0  0  0
  190.9990  176.6040  147.4980 C   0  0  0  0  0  3  0  0  0  0  0  0
  191.9770  175.9000  146.7910 C   0  0  0  0  0  3  0  0  0  0  0  0
  190.0060  177.3300  145.4050 C   0  0  0  0  0  0  0  0  0  0  0  0
  189.0530  178.0210  147.5310 O   0  0  0  0  0  1  0  0  0  0  0  0
  191.9740  175.9100  145.3930 C   0  0  0  0  0  3  0  0  0  0  0  0
  190.9910  176.6240  144.7030 C   0  0  0  0  0  3  0  0  0  0  0  0
  190.0140  177.3200  146.8100 C   0  0  0  0  0  0  0  0  0  0  0  0
  187.9990  176.8860  142.7080 N   0  0  0  0  0  2  0  0  0  0  0  0
  188.6960  178.0230  142.1310 C   0  0  0  0  0  2  0  0  0  0  0  0
  187.8720  178.1430  138.4550 C   0  0  0  0  0  3  0  0  0  0  0  0
  189.0670  177.4790  136.3900 C   0  0  0  0  0  1  0  0  0  0  0  0
  190.0760  177.1390  138.6880 C   0  0  0  0  0  0  0  0  0  0  0  0
  191.5490  176.5550  137.9050 Cl  0  0  0  0  0  0  0  0  0  0  0  0
  189.9710  177.2500  140.0990 C   0  0  0  0  0  0  0  0  0  0  0  0
  189.0090  177.5790  137.8770 C   0  0  0  0  0  0  0  0  0  0  0  0
  188.8200  177.8390  140.6580 C   0  0  0  0  0  0  0  0  0  0  0  0
  187.7810  178.2780  139.8370 C   0  0  0  0  0  3  0  0  0  0  0  0
  192.1760  177.5260  141.2390 C   0  0  0  0  0  1  0  0  0  0  0  0
  190.9730  176.8160  140.9820 O   0  0  0  0  0  0  0  0  0  0  0  0
  1  3  1  0  0  0  0
  1  8  1  6  0  0  0
  2  5  1  0  0  0  0
  3  4  1  0  0  0  0
  4  5  1  0  0  0  0
  6  2  1  0  0  0  0
  7  6  1  0  0  0  0
  7  3  2  0  0  0  0
  8 11  1  0  0  0  0
 10  9  2  0  0  0  0
 11 15  2  0  0  0  0
 13 10  1  0  0  0  0
 14 13  2  0  0  0  0
 14 11  1  0  0  0  0
 15  9  1  0  0  0  0
 15 12  1  0  0  0  0
 16  1  1  0  0  0  0
 17 16  1  0  0  0  0
 18 25  1  0  0  0  0
 19 23  1  0  0  0  0
 20 22  2  0  0  0  0
 21 20  1  0  0  0  0
 22 24  1  0  0  0  0
 22 27  1  0  0  0  0
 23 18  2  0  0  0  0
 23 20  1  0  0  0  0
 24 17  1  0  0  0  0
 25 24  2  0  0  0  0
 27 26  1  0  0  0  0
M  END
>  <MODEL>
6

>  <REMARK>
 VINA RESULT:      -8.7      1.878      5.015
  Name = 
  7 active torsions:
  status: ('A' for Active; 'I' for Inactive)
    1  A    between atoms: C_1  and  C_15
    2  A    between atoms: C_1  and  C_18
    3  A    between atoms: N_2  and  C_6
    4  A    between atoms: N_2  and  C_15
    5  A    between atoms: C_6  and  C_17
    6  A    between atoms: C_9  and  C_15
    7  A    between atoms: C_14  and  O_19
                            x       y       z     vdW  Elec       q    Type
                         _______ _______ _______ _____ _____    ______ ____

>  <TORSDO>
F 7

$$$$
=
 OpenBabel10272401063D

 27 29  0  0  1  0  0  0  0  0999 V2000
  187.8580  177.2380  143.6280 C   0  0  2  0  0  3  0  0  0  0  0  0
  189.0040  178.0360  147.7480 C   0  0  0  0  0  2  0  0  0  0  0  0
  188.2340  177.3170  145.0860 C   0  0  0  0  0  0  0  0  0  0  0  0
  189.6790  177.1540  145.5140 C   0  0  0  0  0  2  0  0  0  0  0  0
  189.8450  176.9960  147.0250 C   0  0  0  0  0  2  0  0  0  0  0  0
  187.5340  177.7720  147.4480 C   0  0  0  0  0  2  0  0  0  0  0  0
  187.2820  177.6740  145.9660 C   0  0  0  0  0  3  0  0  0  0  0  0
  188.4250  178.4110  142.8190 C   0  0  0  0  0  2  0  0  0  0  0  0
  189.8970  177.6590  139.3880 C   0  0  0  0  0  3  0  0  0  0  0  0
  191.1670  177.1930  139.7370 C   0  0  0  0  0  3  0  0  0  0  0  0
  189.3670  177.9790  141.7350 C   0  0  0  0  0  0  0  0  0  0  0  0
  187.7330  178.5060  140.0150 O   0  0  0  0  0  1  0  0  0  0  0  0
  191.5390  177.1160  141.0820 C   0  0  0  0  0  3  0  0  0  0  0  0
  190.6400  177.5080  142.0780 C   0  0  0  0  0  3  0  0  0  0  0  0
  188.9950  178.0520  140.3810 C   0  0  0  0  0  0  0  0  0  0  0  0
  186.4190  177.1260  143.4400 N   0  0  0  0  0  2  0  0  0  0  0  0
  185.9820  178.3400  142.7730 C   0  0  0  0  0  2  0  0  0  0  0  0
  182.6550  178.8960  144.4550 C   0  0  0  0  0  3  0  0  0  0  0  0
  180.3250  179.1270  143.6510 C   0  0  0  0  0  1  0  0  0  0  0  0
  182.2530  178.7120  142.0640 C   0  0  0  0  0  0  0  0  0  0  0  0
  181.1170  178.8560  140.7170 Cl  0  0  0  0  0  0  0  0  0  0  0  0
  183.6400  178.4930  141.8530 C   0  0  0  0  0  0  0  0  0  0  0  0
  181.7720  178.9000  143.3760 C   0  0  0  0  0  0  0  0  0  0  0  0
  184.5130  178.5120  142.9580 C   0  0  0  0  0  0  0  0  0  0  0  0
  184.0180  178.7100  144.2470 C   0  0  0  0  0  3  0  0  0  0  0  0
  184.3360  179.2730  139.5860 C   0  0  0  0  0  1  0  0  0  0  0  0
  184.2020  178.2730  140.5850 O   0  0  0  0  0  0  0  0  0  0  0  0
  1  8  1  6  0  0  0
  1  3  1  0  0  0  0
  3  4  1  0  0  0  0
  3  7  2  0  0  0  0
  4  5  1  0  0  0  0
  5  2  1  0  0  0  0
  6  2  1  0  0  0  0
  7  6  1  0  0  0  0
  9 10  2  0  0  0  0
  9 15  1  0  0  0  0
 10 13  1  0  0  0  0
 11 14  1  0  0  0  0
 11  8  1  0  0  0  0
 12 15  1  0  0  0  0
 13 14  2  0  0  0  0
 15 11  2  0  0  0  0
 16  1  1  0  0  0  0
 17 24  1  0  0  0  0
 17 16  1  0  0  0  0
 20 23  1  0  0  0  0
 21 20  1  0  0  0  0
 22 20  2  0  0  0  0
 22 24  1  0  0  0  0
 23 19  1  0  0  0  0
 23 18  2  0  0  0  0
 24 25  2  0  0  0  0
 25 18  1  0  0  0  0
 26 27  1  0  0  0  0
 27 22  1  0  0  0  0
M  END
>  <MODEL>
7

>  <REMARK>
 VINA RESULT:      -8.4      2.437      6.250
  Name = 
  7 active torsions:
  status: ('A' for Active; 'I' for Inactive)
    1  A    between atoms: C_1  and  C_15
    2  A    between atoms: C_1  and  C_18
    3  A    between atoms: N_2  and  C_6
    4  A    between atoms: N_2  and  C_15
    5  A    between atoms: C_6  and  C_17
    6  A    between atoms: C_9  and  C_15
    7  A    between atoms: C_14  and  O_19
                            x       y       z     vdW  Elec       q    Type
                         _______ _______ _______ _____ _____    ______ ____

>  <TORSDO>
F 7

$$$$
=
 OpenBabel10272401063D

 27 29  0  0  1  0  0  0  0  0999 V2000
  188.1000  177.7040  141.1310 C   0  0  2  0  0  3  0  0  0  0  0  0
  190.3970  176.3390  137.6980 C   0  0  0  0  0  2  0  0  0  0  0  0
  188.9870  177.4110  139.9480 C   0  0  0  0  0  0  0  0  0  0  0  0
  190.3540  176.7860  140.1520 C   0  0  0  0  0  2  0  0  0  0  0  0
  191.2170  176.8030  138.8910 C   0  0  0  0  0  2  0  0  0  0  0  0
  189.2710  177.3380  137.4610 C   0  0  0  0  0  2  0  0  0  0  0  0
  188.4760  177.5840  138.7160 C   0  0  0  0  0  3  0  0  0  0  0  0
  187.3230  179.0160  140.9630 C   0  0  0  0  0  2  0  0  0  0  0  0
  183.5650  178.7180  140.4220 C   0  0  0  0  0  3  0  0  0  0  0  0
  183.1170  178.5530  141.7350 C   0  0  0  0  0  3  0  0  0  0  0  0
  185.8530  178.8670  141.2190 C   0  0  0  0  0  0  0  0  0  0  0  0
  185.3550  179.0470  138.8470 O   0  0  0  0  0  1  0  0  0  0  0  0
  184.0330  178.5460  142.7910 C   0  0  0  0  0  3  0  0  0  0  0  0
  185.3970  178.7030  142.5320 C   0  0  0  0  0  3  0  0  0  0  0  0
  184.9290  178.8760  140.1590 C   0  0  0  0  0  0  0  0  0  0  0  0
  188.8430  177.6990  142.3840 N   0  0  0  0  0  2  0  0  0  0  0  0
  188.3130  176.6090  143.1870 C   0  0  0  0  0  2  0  0  0  0  0  0
  187.1240  177.7140  146.5880 C   0  0  0  0  0  3  0  0  0  0  0  0
  188.2160  178.0190  148.7900 C   0  0  0  0  0  1  0  0  0  0  0  0
  189.5110  177.2730  146.7460 C   0  0  0  0  0  0  0  0  0  0  0  0
  190.9410  177.0990  147.7700 Cl  0  0  0  0  0  0  0  0  0  0  0  0
  189.5370  176.9520  145.3630 C   0  0  0  0  0  0  0  0  0  0  0  0
  188.2960  177.6660  147.3440 C   0  0  0  0  0  0  0  0  0  0  0  0
  188.3380  176.9920  144.6270 C   0  0  0  0  0  0  0  0  0  0  0  0
  187.1440  177.3730  145.2400 C   0  0  0  0  0  3  0  0  0  0  0  0
  191.7270  177.4790  144.2870 C   0  0  0  0  0  1  0  0  0  0  0  0
  190.7050  176.5750  144.6820 O   0  0  0  0  0  0  0  0  0  0  0  0
  1  8  1  6  0  0  0
  1 16  1  0  0  0  0
  2  5  1  0  0  0  0
  3  4  1  0  0  0  0
  3  1  1  0  0  0  0
  5  4  1  0  0  0  0
  6  2  1  0  0  0  0
  6  7  1  0  0  0  0
  7  3  2  0  0  0  0
  8 11  1  0  0  0  0
  9 10  1  0  0  0  0
 10 13  2  0  0  0  0
 11 14  2  0  0  0  0
 12 15  1  0  0  0  0
 14 13  1  0  0  0  0
 15  9  2  0  0  0  0
 15 11  1  0  0  0  0
 16 17  1  0  0  0  0
 17 24  1  0  0  0  0
 18 23  1  0  0  0  0
 20 23  2  0  0  0  0
 20 21  1  0  0  0  0
 22 20  1  0  0  0  0
 23 19  1  0  0  0  0
 24 25  1  0  0  0  0
 24 22  2  0  0  0  0
 25 18  2  0  0  0  0
 26 27  1  0  0  0  0
 27 22  1  0  0  0  0
M  END
>  <MODEL>
8

>  <REMARK>
 VINA RESULT:      -8.4      2.960      6.551
  Name = 
  7 active torsions:
  status: ('A' for Active; 'I' for Inactive)
    1  A    between atoms: C_1  and  C_15
    2  A    between atoms: C_1  and  C_18
    3  A    between atoms: N_2  and  C_6
    4  A    between atoms: N_2  and  C_15
    5  A    between atoms: C_6  and  C_17
    6  A    between atoms: C_9  and  C_15
    7  A    between atoms: C_14  and  O_19
                            x       y       z     vdW  Elec       q    Type
                         _______ _______ _______ _____ _____    ______ ____

>  <TORSDO>
F 7

$$$$
=
 OpenBabel10272401063D

 27 29  0  0  1  0  0  0  0  0999 V2000
  189.5310  177.7610  140.5270 C   0  0  2  0  0  3  0  0  0  0  0  0
  189.6440  177.3380  136.1980 C   0  0  0  0  0  2  0  0  0  0  0  0
  189.3710  177.5890  139.0380 C   0  0  0  0  0  0  0  0  0  0  0  0
  189.0980  178.7900  138.1520 C   0  0  0  0  0  2  0  0  0  0  0  0
  188.7020  178.4090  136.7270 C   0  0  0  0  0  2  0  0  0  0  0  0
  189.4750  176.0800  137.0410 C   0  0  0  0  0  2  0  0  0  0  0  0
  189.6170  176.3760  138.5110 C   0  0  0  0  0  3  0  0  0  0  0  0
  190.8450  177.1600  141.0420 C   0  0  0  0  0  2  0  0  0  0  0  0
  191.0580  176.4170  144.7720 C   0  0  0  0  0  3  0  0  0  0  0  0
  191.4120  177.6710  145.2750 C   0  0  0  0  0  3  0  0  0  0  0  0
  191.0280  177.3270  142.5210 C   0  0  0  0  0  0  0  0  0  0  0  0
  190.5050  174.9870  142.9160 O   0  0  0  0  0  1  0  0  0  0  0  0
  191.5730  178.7540  144.4070 C   0  0  0  0  0  3  0  0  0  0  0  0
  191.3810  178.5810  143.0330 C   0  0  0  0  0  3  0  0  0  0  0  0
  190.8640  176.2410  143.3980 C   0  0  0  0  0  0  0  0  0  0  0  0
  188.3930  177.2290  141.2640 N   0  0  0  0  0  2  0  0  0  0  0  0
  187.4350  178.3120  141.4050 C   0  0  0  0  0  2  0  0  0  0  0  0
  187.0780  177.8360  145.1270 C   0  0  0  0  0  3  0  0  0  0  0  0
  185.2360  178.1680  146.7470 C   0  0  0  0  0  1  0  0  0  0  0  0
  184.9370  178.6100  144.2710 C   0  0  0  0  0  0  0  0  0  0  0  0
  183.3040  179.1900  144.6170 Cl  0  0  0  0  0  0  0  0  0  0  0  0
  185.4730  178.6200  142.9560 C   0  0  0  0  0  0  0  0  0  0  0  0
  185.7510  178.2020  145.3480 C   0  0  0  0  0  0  0  0  0  0  0  0
  186.8210  178.2620  142.7620 C   0  0  0  0  0  0  0  0  0  0  0  0
  187.6120  177.8720  143.8420 C   0  0  0  0  0  3  0  0  0  0  0  0
  183.7500  178.1630  141.2080 C   0  0  0  0  0  1  0  0  0  0  0  0
  184.7280  178.9880  141.8240 O   0  0  0  0  0  0  0  0  0  0  0  0
  1  8  1  1  0  0  0
  1 16  1  0  0  0  0
  2  5  1  0  0  0  0
  2  6  1  0  0  0  0
  3  1  1  0  0  0  0
  4  3  1  0  0  0  0
  5  4  1  0  0  0  0
  6  7  1  0  0  0  0
  7  3  2  0  0  0  0
  8 11  1  0  0  0  0
  9 10  1  0  0  0  0
 11 14  2  0  0  0  0
 11 15  1  0  0  0  0
 12 15  1  0  0  0  0
 13 10  2  0  0  0  0
 14 13  1  0  0  0  0
 15  9  2  0  0  0  0
 16 17  1  0  0  0  0
 17 24  1  0  0  0  0
 18 23  1  0  0  0  0
 20 21  1  0  0  0  0
 20 23  2  0  0  0  0
 22 20  1  0  0  0  0
 23 19  1  0  0  0  0
 24 22  2  0  0  0  0
 24 25  1  0  0  0  0
 25 18  2  0  0  0  0
 26 27  1  0  0  0  0
 27 22  1  0  0  0  0
M  END
>  <MODEL>
9

>  <REMARK>
 VINA RESULT:      -8.4      2.651      6.972
  Name = 
  7 active torsions:
  status: ('A' for Active; 'I' for Inactive)
    1  A    between atoms: C_1  and  C_15
    2  A    between atoms: C_1  and  C_18
    3  A    between atoms: N_2  and  C_6
    4  A    between atoms: N_2  and  C_15
    5  A    between atoms: C_6  and  C_17
    6  A    between atoms: C_9  and  C_15
    7  A    between atoms: C_14  and  O_19
                            x       y       z     vdW  Elec       q    Type
                         _______ _______ _______ _____ _____    ______ ____

>  <TORSDO>
F 7

$$$$
