=
 OpenBabel10272401053D

 27 31  0  0  1  0  0  0  0  0999 V2000
  187.8400  176.3810  143.4630 C   0  0  0  0  0  2  0  0  0  0  0  0
  187.1490  177.8040  141.5730 C   0  0  0  0  0  0  0  0  0  0  0  0
  189.6730  177.9190  141.6810 N   0  0  0  0  0  2  0  0  0  0  0  0
  187.5050  178.6810  137.4720 C   0  0  0  0  0  2  0  0  0  0  0  0
  189.3820  180.0810  137.0320 F   0  0  0  0  0  0  0  0  0  0  0  0
  186.0250  177.9560  140.8080 N   0  0  0  0  0  0  0  0  0  0  0  0
  189.6340  178.4240  138.7290 C   0  0  2  0  0  3  0  0  0  0  0  0
  191.5720  177.8640  144.8770 C   0  0  0  0  0  3  0  0  0  0  0  0
  190.4370  177.1420  138.5990 C   0  0  0  0  0  1  0  0  0  0  0  0
  190.6940  177.1670  145.7040 C   0  0  0  0  0  0  0  0  0  0  0  0
  188.4470  178.2020  139.5930 C   0  0  0  0  0  0  0  0  0  0  0  0
  187.0070  177.4580  142.9560 N   0  0  0  0  0  0  0  0  0  0  0  0
  189.0330  178.7850  137.3600 C   0  0  1  0  0  3  0  0  0  0  0  0
  187.2880  178.3470  138.8920 C   0  0  0  0  0  0  0  0  0  0  0  0
  189.1320  176.9380  143.9260 C   0  0  0  0  0  0  0  0  0  0  0  0
  188.4230  177.9360  140.9660 C   0  0  0  0  0  0  0  0  0  0  0  0
  191.2090  178.1020  143.5510 C   0  0  0  0  0  3  0  0  0  0  0  0
  186.0860  178.2290  139.5010 N   0  0  0  0  0  0  0  0  0  0  0  0
  191.0450  176.9140  147.0590 N   0  0  0  0  0  1  0  0  0  0  0  0
  189.5090  176.7170  145.2150 N   0  0  0  0  0  0  0  0  0  0  0  0
  189.9780  177.6560  143.0600 C   0  0  0  0  0  0  0  0  0  0  0  0
  184.1610  179.3570  145.4870 C   0  0  0  0  0  3  0  0  0  0  0  0
  186.0510  178.1120  143.8180 C   0  0  0  0  0  0  0  0  0  0  0  0
  186.1370  177.9880  145.2150 C   0  0  0  0  0  3  0  0  0  0  0  0
  185.2000  178.6090  146.0450 C   0  0  0  0  0  3  0  0  0  0  0  0
  184.0580  179.4840  144.1000 C   0  0  0  0  0  3  0  0  0  0  0  0
  184.9960  178.8640  143.2710 C   0  0  0  0  0  3  0  0  0  0  0  0
  1 15  1  0  0  0  0
  2 12  1  0  0  0  0
  3 21  1  0  0  0  0
  4 14  1  0  0  0  0
  6  2  2  0  0  0  0
  7  9  1  6  0  0  0
  7 11  1  0  0  0  0
  8 10  1  0  0  0  0
 10 19  1  0  0  0  0
 11 16  2  0  0  0  0
 12  1  1  0  0  0  0
 12 23  1  0  0  0  0
 13  5  1  1  0  0  0
 13  4  1  0  0  0  0
 13  7  1  0  0  0  0
 14 18  2  0  0  0  0
 14 11  1  0  0  0  0
 15 20  1  0  0  0  0
 16  2  1  0  0  0  0
 16  3  1  0  0  0  0
 17  8  2  0  0  0  0
 18  6  1  0  0  0  0
 20 10  2  0  0  0  0
 21 17  1  0  0  0  0
 21 15  2  0  0  0  0
 22 25  1  0  0  0  0
 23 24  1  0  0  0  0
 24 25  2  0  0  0  0
 26 22  2  0  0  0  0
 27 23  2  0  0  0  0
 27 26  1  0  0  0  0
M  END
>  <MODEL>
1

>  <REMARK>
 VINA RESULT:      -8.7      0.000      0.000
  Name = 
  1 active torsions:
  status: ('A' for Active; 'I' for Inactive)
    1  A    between atoms: C_9  and  N_15
                            x       y       z     vdW  Elec       q    Type
                         _______ _______ _______ _____ _____    ______ ____

>  <TORSDO>
F 1

$$$$
=
 OpenBabel10272401053D

 27 31  0  0  1  0  0  0  0  0999 V2000
  188.6130  175.8130  143.0710 C   0  0  0  0  0  2  0  0  0  0  0  0
  187.1890  177.2240  144.5040 C   0  0  0  0  0  0  0  0  0  0  0  0
  187.0160  178.1640  142.1620 N   0  0  0  0  0  2  0  0  0  0  0  0
  183.3780  178.8680  145.2060 C   0  0  0  0  0  2  0  0  0  0  0  0
  183.0430  180.8730  143.9630 F   0  0  0  0  0  0  0  0  0  0  0  0
  186.6180  177.1190  145.7420 N   0  0  0  0  0  0  0  0  0  0  0  0
  184.2800  179.1300  142.9040 C   0  0  2  0  0  3  0  0  0  0  0  0
  189.8660  178.1990  139.7750 C   0  0  0  0  0  3  0  0  0  0  0  0
  183.7700  178.2380  141.7870 C   0  0  0  0  0  1  0  0  0  0  0  0
  190.6150  177.1140  140.2260 C   0  0  0  0  0  0  0  0  0  0  0  0
  185.2090  178.3740  143.7830 C   0  0  0  0  0  0  0  0  0  0  0  0
  188.4660  176.6160  144.2720 N   0  0  0  0  0  0  0  0  0  0  0  0
  183.1100  179.4990  143.8320 C   0  0  1  0  0  3  0  0  0  0  0  0
  184.7020  178.2400  145.0410 C   0  0  0  0  0  0  0  0  0  0  0  0
  189.0310  176.6840  141.9480 C   0  0  0  0  0  0  0  0  0  0  0  0
  186.4790  177.8820  143.4670 C   0  0  0  0  0  0  0  0  0  0  0  0
  188.6810  178.5270  140.4340 C   0  0  0  0  0  3  0  0  0  0  0  0
  185.4090  177.6190  146.0130 N   0  0  0  0  0  0  0  0  0  0  0  0
  191.8260  176.7640  139.5690 N   0  0  0  0  0  1  0  0  0  0  0  0
  190.1830  176.3830  141.2870 N   0  0  0  0  0  0  0  0  0  0  0  0
  188.2540  177.7840  141.5390 C   0  0  0  0  0  0  0  0  0  0  0  0
  191.6840  176.9710  147.0340 C   0  0  0  0  0  3  0  0  0  0  0  0
  189.5600  176.7500  145.2030 C   0  0  0  0  0  0  0  0  0  0  0  0
  190.8880  176.5470  144.7880 C   0  0  0  0  0  3  0  0  0  0  0  0
  191.9440  176.6590  145.6970 C   0  0  0  0  0  3  0  0  0  0  0  0
  190.3700  177.1700  147.4620 C   0  0  0  0  0  3  0  0  0  0  0  0
  189.3150  177.0570  146.5530 C   0  0  0  0  0  3  0  0  0  0  0  0
  1 12  1  0  0  0  0
  2  6  1  0  0  0  0
  3 16  1  0  0  0  0
  6 18  2  0  0  0  0
  7  9  1  6  0  0  0
  7 11  1  0  0  0  0
  7 13  1  0  0  0  0
  8 10  2  0  0  0  0
  8 17  1  0  0  0  0
 10 20  1  0  0  0  0
 11 14  2  0  0  0  0
 12  2  1  0  0  0  0
 12 23  1  0  0  0  0
 13  5  1  1  0  0  0
 13  4  1  0  0  0  0
 14  4  1  0  0  0  0
 14 18  1  0  0  0  0
 15  1  1  0  0  0  0
 16 11  1  0  0  0  0
 16  2  2  0  0  0  0
 17 21  2  0  0  0  0
 19 10  1  0  0  0  0
 20 15  2  0  0  0  0
 21 15  1  0  0  0  0
 21  3  1  0  0  0  0
 22 26  1  0  0  0  0
 23 27  1  0  0  0  0
 24 23  2  0  0  0  0
 24 25  1  0  0  0  0
 25 22  2  0  0  0  0
 27 26  2  0  0  0  0
M  END
>  <MODEL>
2

>  <REMARK>
 VINA RESULT:      -8.5      2.492      5.838
  Name = 
  1 active torsions:
  status: ('A' for Active; 'I' for Inactive)
    1  A    between atoms: C_9  and  N_15
                            x       y       z     vdW  Elec       q    Type
                         _______ _______ _______ _____ _____    ______ ____

>  <TORSDO>
F 1

$$$$
=
 OpenBabel10272401053D

 27 31  0  0  1  0  0  0  0  0999 V2000
  186.4170  179.5510  141.6250 C   0  0  0  0  0  2  0  0  0  0  0  0
  185.9100  178.4940  143.7930 C   0  0  0  0  0  0  0  0  0  0  0  0
  188.1560  177.5950  143.0570 N   0  0  0  0  0  2  0  0  0  0  0  0
  187.1440  177.7230  147.7430 C   0  0  0  0  0  2  0  0  0  0  0  0
  188.5840  175.8280  147.8600 F   0  0  0  0  0  0  0  0  0  0  0  0
  185.0550  178.7310  144.8340 N   0  0  0  0  0  0  0  0  0  0  0  0
  188.8110  177.2510  145.9600 C   0  0  2  0  0  3  0  0  0  0  0  0
  189.0050  176.9220  139.5010 C   0  0  0  0  0  3  0  0  0  0  0  0
  189.9510  178.2240  145.7160 C   0  0  0  0  0  1  0  0  0  0  0  0
  188.1690  177.8220  138.8440 C   0  0  0  0  0  0  0  0  0  0  0  0
  187.5440  177.7950  145.4070 C   0  0  0  0  0  0  0  0  0  0  0  0
  185.4880  178.8090  142.4610 N   0  0  0  0  0  0  0  0  0  0  0  0
  188.5440  177.1530  147.4710 C   0  0  1  0  0  3  0  0  0  0  0  0
  186.6400  178.0470  146.3950 C   0  0  0  0  0  0  0  0  0  0  0  0
  187.3080  178.6000  140.9200 C   0  0  0  0  0  0  0  0  0  0  0  0
  187.2100  177.9980  144.0650 C   0  0  0  0  0  0  0  0  0  0  0  0
  188.9800  176.8650  140.8940 C   0  0  0  0  0  3  0  0  0  0  0  0
  185.4020  178.5080  146.1050 N   0  0  0  0  0  0  0  0  0  0  0  0
  188.1790  177.8960  137.4250 N   0  0  0  0  0  1  0  0  0  0  0  0
  187.3520  178.6380  139.5610 N   0  0  0  0  0  0  0  0  0  0  0  0
  188.1210  177.6910  141.6240 C   0  0  0  0  0  0  0  0  0  0  0  0
  181.6320  177.7860  140.9770 C   0  0  0  0  0  3  0  0  0  0  0  0
  184.1820  178.4490  141.9630 C   0  0  0  0  0  0  0  0  0  0  0  0
  184.0430  177.6600  140.8080 C   0  0  0  0  0  3  0  0  0  0  0  0
  182.7760  177.3290  140.3190 C   0  0  0  0  0  3  0  0  0  0  0  0
  181.7540  178.5760  142.1230 C   0  0  0  0  0  3  0  0  0  0  0  0
  183.0210  178.9070  142.6110 C   0  0  0  0  0  3  0  0  0  0  0  0
  1 12  1  0  0  0  0
  2 16  2  0  0  0  0
  2  6  1  0  0  0  0
  3 16  1  0  0  0  0
  6 18  2  0  0  0  0
  7  9  1  1  0  0  0
  7 13  1  0  0  0  0
  8 17  1  0  0  0  0
 10  8  2  0  0  0  0
 10 20  1  0  0  0  0
 11  7  1  0  0  0  0
 11 14  2  0  0  0  0
 12  2  1  0  0  0  0
 13  4  1  0  0  0  0
 13  5  1  6  0  0  0
 14  4  1  0  0  0  0
 15 21  1  0  0  0  0
 15  1  1  0  0  0  0
 16 11  1  0  0  0  0
 17 21  2  0  0  0  0
 18 14  1  0  0  0  0
 19 10  1  0  0  0  0
 20 15  2  0  0  0  0
 21  3  1  0  0  0  0
 22 26  1  0  0  0  0
 23 12  1  0  0  0  0
 23 27  1  0  0  0  0
 24 23  2  0  0  0  0
 25 24  1  0  0  0  0
 25 22  2  0  0  0  0
 26 27  2  0  0  0  0
M  END
>  <MODEL>
3

>  <REMARK>
 VINA RESULT:      -8.5      3.149      6.180
  Name = 
  1 active torsions:
  status: ('A' for Active; 'I' for Inactive)
    1  A    between atoms: C_9  and  N_15
                            x       y       z     vdW  Elec       q    Type
                         _______ _______ _______ _____ _____    ______ ____

>  <TORSDO>
F 1

$$$$
=
 OpenBabel10272401053D

 27 31  0  0  1  0  0  0  0  0999 V2000
  189.1620  179.0340  141.8330 C   0  0  0  0  0  2  0  0  0  0  0  0
  187.0880  178.4550  140.6330 C   0  0  0  0  0  0  0  0  0  0  0  0
  186.6560  178.0040  143.0840 N   0  0  0  0  0  2  0  0  0  0  0  0
  182.9360  179.0290  140.2360 C   0  0  0  0  0  2  0  0  0  0  0  0
  181.7100  177.6540  141.7470 F   0  0  0  0  0  0  0  0  0  0  0  0
  186.5500  178.7170  139.4040 N   0  0  0  0  0  0  0  0  0  0  0  0
  183.7670  178.5710  142.5340 C   0  0  2  0  0  3  0  0  0  0  0  0
  189.2620  176.7090  145.3980 C   0  0  0  0  0  3  0  0  0  0  0  0
  183.9030  179.7100  143.5290 C   0  0  0  0  0  1  0  0  0  0  0  0
  190.4250  177.1740  144.7890 C   0  0  0  0  0  0  0  0  0  0  0  0
  184.8720  178.6190  141.5430 C   0  0  0  0  0  0  0  0  0  0  0  0
  188.5080  178.3110  140.7550 N   0  0  0  0  0  0  0  0  0  0  0  0
  182.5000  178.7860  141.6890 C   0  0  1  0  0  3  0  0  0  0  0  0
  184.4020  178.8700  140.2880 C   0  0  0  0  0  0  0  0  0  0  0  0
  189.1580  178.1980  143.0560 C   0  0  0  0  0  0  0  0  0  0  0  0
  186.2330  178.3900  141.7630 C   0  0  0  0  0  0  0  0  0  0  0  0
  188.0280  176.9950  144.8130 C   0  0  0  0  0  3  0  0  0  0  0  0
  185.2400  178.9130  139.2270 N   0  0  0  0  0  0  0  0  0  0  0  0
  191.6920  176.8930  145.3690 N   0  0  0  0  0  1  0  0  0  0  0  0
  190.3490  177.9070  143.6470 N   0  0  0  0  0  0  0  0  0  0  0  0
  187.9580  177.7300  143.6260 C   0  0  0  0  0  0  0  0  0  0  0  0
  190.7870  176.0050  137.9980 C   0  0  0  0  0  3  0  0  0  0  0  0
  189.2820  177.5180  139.8300 C   0  0  0  0  0  0  0  0  0  0  0  0
  190.6770  177.4150  139.9620 C   0  0  0  0  0  3  0  0  0  0  0  0
  191.4250  176.6610  139.0530 C   0  0  0  0  0  3  0  0  0  0  0  0
  189.4010  176.1030  137.8510 C   0  0  0  0  0  3  0  0  0  0  0  0
  188.6540  176.8570  138.7590 C   0  0  0  0  0  3  0  0  0  0  0  0
  1 15  1  0  0  0  0
  2 12  1  0  0  0  0
  2 16  1  0  0  0  0
  3 21  1  0  0  0  0
  4 14  1  0  0  0  0
  4 13  1  0  0  0  0
  6  2  2  0  0  0  0
  7  9  1  1  0  0  0
 10 19  1  0  0  0  0
 10  8  2  0  0  0  0
 11 16  2  0  0  0  0
 11  7  1  0  0  0  0
 12  1  1  0  0  0  0
 13  5  1  6  0  0  0
 13  7  1  0  0  0  0
 14 11  1  0  0  0  0
 15 21  1  0  0  0  0
 15 20  2  0  0  0  0
 16  3  1  0  0  0  0
 17  8  1  0  0  0  0
 18  6  1  0  0  0  0
 18 14  2  0  0  0  0
 20 10  1  0  0  0  0
 21 17  2  0  0  0  0
 22 25  1  0  0  0  0
 23 24  1  0  0  0  0
 23 12  1  0  0  0  0
 25 24  2  0  0  0  0
 26 22  2  0  0  0  0
 26 27  1  0  0  0  0
 27 23  2  0  0  0  0
M  END
>  <MODEL>
4

>  <REMARK>
 VINA RESULT:      -8.2      2.441      5.438
  Name = 
  1 active torsions:
  status: ('A' for Active; 'I' for Inactive)
    1  A    between atoms: C_9  and  N_15
                            x       y       z     vdW  Elec       q    Type
                         _______ _______ _______ _____ _____    ______ ____

>  <TORSDO>
F 1

$$$$
=
 OpenBabel10272401053D

 27 31  0  0  1  0  0  0  0  0999 V2000
  187.2360  176.4000  143.4180 C   0  0  0  0  0  2  0  0  0  0  0  0
  185.4320  178.0290  143.0060 C   0  0  0  0  0  0  0  0  0  0  0  0
  187.0510  178.2370  141.0740 N   0  0  0  0  0  2  0  0  0  0  0  0
  182.4640  179.4540  140.3830 C   0  0  0  0  0  2  0  0  0  0  0  0
  183.3600  180.9790  138.7880 F   0  0  0  0  0  0  0  0  0  0  0  0
  184.1590  178.2310  143.4630 N   0  0  0  0  0  0  0  0  0  0  0  0
  184.7260  179.1250  139.4070 C   0  0  2  0  0  3  0  0  0  0  0  0
  190.7280  177.8430  141.4570 C   0  0  0  0  0  3  0  0  0  0  0  0
  185.0070  177.9070  138.5450 C   0  0  0  0  0  1  0  0  0  0  0  0
  190.7990  177.0060  142.5680 C   0  0  0  0  0  0  0  0  0  0  0  0
  184.6780  178.7400  140.8410 C   0  0  0  0  0  0  0  0  0  0  0  0
  186.4160  177.4970  143.9020 N   0  0  0  0  0  0  0  0  0  0  0  0
  183.3060  179.6370  139.1130 C   0  0  1  0  0  3  0  0  0  0  0  0
  183.4330  178.9260  141.3630 C   0  0  0  0  0  0  0  0  0  0  0  0
  188.4270  176.9460  142.7280 C   0  0  0  0  0  0  0  0  0  0  0  0
  185.7310  178.2940  141.6450 C   0  0  0  0  0  0  0  0  0  0  0  0
  189.4760  178.2380  140.9850 C   0  0  0  0  0  3  0  0  0  0  0  0
  183.1810  178.6770  142.6680 N   0  0  0  0  0  0  0  0  0  0  0  0
  192.0660  176.5920  143.0660 N   0  0  0  0  0  1  0  0  0  0  0  0
  189.6600  176.5740  143.1690 N   0  0  0  0  0  0  0  0  0  0  0  0
  188.3090  177.8080  141.6210 C   0  0  0  0  0  0  0  0  0  0  0  0
  186.8500  178.9260  147.8870 C   0  0  0  0  0  3  0  0  0  0  0  0
  186.5740  177.9900  145.2490 C   0  0  0  0  0  0  0  0  0  0  0  0
  187.6090  177.5160  146.0730 C   0  0  0  0  0  3  0  0  0  0  0  0
  187.7480  177.9830  147.3830 C   0  0  0  0  0  3  0  0  0  0  0  0
  185.8120  179.4020  147.0830 C   0  0  0  0  0  3  0  0  0  0  0  0
  185.6740  178.9360  145.7730 C   0  0  0  0  0  3  0  0  0  0  0  0
  1 12  1  0  0  0  0
  2  6  1  0  0  0  0
  2 12  1  0  0  0  0
  3 21  1  0  0  0  0
  3 16  1  0  0  0  0
  4 14  1  0  0  0  0
  7  9  1  6  0  0  0
  7 11  1  0  0  0  0
  8 10  1  0  0  0  0
 10 19  1  0  0  0  0
 10 20  2  0  0  0  0
 11 14  2  0  0  0  0
 11 16  1  0  0  0  0
 12 23  1  0  0  0  0
 13  5  1  1  0  0  0
 13  7  1  0  0  0  0
 13  4  1  0  0  0  0
 14 18  1  0  0  0  0
 15 20  1  0  0  0  0
 15  1  1  0  0  0  0
 16  2  2  0  0  0  0
 17  8  2  0  0  0  0
 17 21  1  0  0  0  0
 18  6  2  0  0  0  0
 21 15  2  0  0  0  0
 23 27  2  0  0  0  0
 23 24  1  0  0  0  0
 24 25  2  0  0  0  0
 25 22  1  0  0  0  0
 26 22  2  0  0  0  0
 27 26  1  0  0  0  0
M  END
>  <MODEL>
5

>  <REMARK>
 VINA RESULT:      -8.0      2.472      3.656
  Name = 
  1 active torsions:
  status: ('A' for Active; 'I' for Inactive)
    1  A    between atoms: C_9  and  N_15
                            x       y       z     vdW  Elec       q    Type
                         _______ _______ _______ _____ _____    ______ ____

>  <TORSDO>
F 1

$$$$
=
 OpenBabel10272401053D

 27 31  0  0  1  0  0  0  0  0999 V2000
  189.7840  178.6850  144.3720 C   0  0  0  0  0  2  0  0  0  0  0  0
  190.8260  177.3600  142.5730 C   0  0  0  0  0  0  0  0  0  0  0  0
  188.3740  177.5710  141.9900 N   0  0  0  0  0  2  0  0  0  0  0  0
  191.5410  176.9130  138.4490 C   0  0  0  0  0  2  0  0  0  0  0  0
  189.7280  175.8200  137.3560 F   0  0  0  0  0  0  0  0  0  0  0  0
  192.0970  177.1310  142.1220 N   0  0  0  0  0  0  0  0  0  0  0  0
  189.1840  177.3350  139.1160 C   0  0  2  0  0  3  0  0  0  0  0  0
  185.6750  177.5870  144.5460 C   0  0  0  0  0  3  0  0  0  0  0  0
  188.5840  178.7190  138.9360 C   0  0  0  0  0  1  0  0  0  0  0  0
  186.3530  178.0840  145.6570 C   0  0  0  0  0  0  0  0  0  0  0  0
  190.0980  177.3190  140.2860 C   0  0  0  0  0  0  0  0  0  0  0  0
  190.6110  177.5580  143.9760 N   0  0  0  0  0  0  0  0  0  0  0  0
  190.1020  177.0230  137.9220 C   0  0  1  0  0  3  0  0  0  0  0  0
  191.3860  177.0850  139.9060 C   0  0  0  0  0  0  0  0  0  0  0  0
  188.3640  178.2640  144.4010 C   0  0  0  0  0  0  0  0  0  0  0  0
  189.7650  177.4540  141.6370 C   0  0  0  0  0  0  0  0  0  0  0  0
  186.3670  177.4240  143.3460 C   0  0  0  0  0  3  0  0  0  0  0  0
  192.3750  176.9880  140.8230 N   0  0  0  0  0  0  0  0  0  0  0  0
  185.6660  178.2570  146.8900 N   0  0  0  0  0  1  0  0  0  0  0  0
  187.6670  178.4150  145.5600 N   0  0  0  0  0  0  0  0  0  0  0  0
  187.7240  177.7460  143.2590 C   0  0  0  0  0  0  0  0  0  0  0  0
  192.3570  175.0380  146.9280 C   0  0  0  0  0  3  0  0  0  0  0  0
  191.2160  176.7070  144.9730 C   0  0  0  0  0  0  0  0  0  0  0  0
  191.7870  175.4740  144.6170 C   0  0  0  0  0  3  0  0  0  0  0  0
  192.3570  174.6450  145.5880 C   0  0  0  0  0  3  0  0  0  0  0  0
  191.7870  176.2590  147.2980 C   0  0  0  0  0  3  0  0  0  0  0  0
  191.2190  177.0870  146.3270 C   0  0  0  0  0  3  0  0  0  0  0  0
  1 15  1  0  0  0  0
  2 12  1  0  0  0  0
  3 21  1  0  0  0  0
  4 14  1  0  0  0  0
  6  2  1  0  0  0  0
  7  9  1  6  0  0  0
  7 11  1  0  0  0  0
  8 10  1  0  0  0  0
 10 19  1  0  0  0  0
 11 16  1  0  0  0  0
 12  1  1  0  0  0  0
 12 23  1  0  0  0  0
 13  5  1  1  0  0  0
 13  4  1  0  0  0  0
 13  7  1  0  0  0  0
 14 11  2  0  0  0  0
 14 18  1  0  0  0  0
 15 20  1  0  0  0  0
 16  3  1  0  0  0  0
 16  2  2  0  0  0  0
 17  8  2  0  0  0  0
 18  6  2  0  0  0  0
 20 10  2  0  0  0  0
 21 17  1  0  0  0  0
 21 15  2  0  0  0  0
 22 26  1  0  0  0  0
 23 27  1  0  0  0  0
 24 23  2  0  0  0  0
 24 25  1  0  0  0  0
 25 22  2  0  0  0  0
 27 26  2  0  0  0  0
M  END
>  <MODEL>
6

>  <REMARK>
 VINA RESULT:      -7.9      2.065      5.012
  Name = 
  1 active torsions:
  status: ('A' for Active; 'I' for Inactive)
    1  A    between atoms: C_9  and  N_15
                            x       y       z     vdW  Elec       q    Type
                         _______ _______ _______ _____ _____    ______ ____

>  <TORSDO>
F 1

$$$$
=
 OpenBabel10272401053D

 27 31  0  0  1  0  0  0  0  0999 V2000
  189.8970  177.8010  136.9690 C   0  0  0  0  0  2  0  0  0  0  0  0
  188.5130  177.6380  139.0020 C   0  0  0  0  0  0  0  0  0  0  0  0
  190.5830  176.2470  139.4220 N   0  0  0  0  0  2  0  0  0  0  0  0
  188.2620  178.1230  143.1750 C   0  0  0  0  0  2  0  0  0  0  0  0
  189.0850  176.2110  144.3340 F   0  0  0  0  0  0  0  0  0  0  0  0
  187.4690  178.3340  139.5460 N   0  0  0  0  0  0  0  0  0  0  0  0
  190.2200  176.8450  142.3340 C   0  0  2  0  0  3  0  0  0  0  0  0
  192.2770  174.2770  136.7630 C   0  0  0  0  0  3  0  0  0  0  0  0
  191.5840  177.5110  142.2660 C   0  0  0  0  0  1  0  0  0  0  0  0
  191.9280  174.9980  135.6230 C   0  0  0  0  0  0  0  0  0  0  0  0
  189.3560  177.3290  141.2280 C   0  0  0  0  0  0  0  0  0  0  0  0
  188.6070  177.5260  137.5770 N   0  0  0  0  0  0  0  0  0  0  0  0
  189.4930  177.3130  143.6060 C   0  0  1  0  0  3  0  0  0  0  0  0
  188.2860  178.0260  141.7040 C   0  0  0  0  0  0  0  0  0  0  0  0
  190.6980  176.5550  136.9350 C   0  0  0  0  0  0  0  0  0  0  0  0
  189.5060  177.0970  139.8580 C   0  0  0  0  0  0  0  0  0  0  0  0
  191.8170  174.7100  138.0070 C   0  0  0  0  0  3  0  0  0  0  0  0
  187.3480  178.5200  140.8640 N   0  0  0  0  0  0  0  0  0  0  0  0
  192.3860  174.5740  134.3460 N   0  0  0  0  0  1  0  0  0  0  0  0
  191.1600  176.1140  135.7330 N   0  0  0  0  0  0  0  0  0  0  0  0
  191.0090  175.8450  138.1100 C   0  0  0  0  0  0  0  0  0  0  0  0
  185.2710  176.5360  135.1260 C   0  0  0  0  0  3  0  0  0  0  0  0
  187.4660  177.1950  136.7560 C   0  0  0  0  0  0  0  0  0  0  0  0
  186.7080  176.0390  137.0080 C   0  0  0  0  0  3  0  0  0  0  0  0
  185.6150  175.7130  136.2000 C   0  0  0  0  0  3  0  0  0  0  0  0
  186.0180  177.6850  134.8590 C   0  0  0  0  0  3  0  0  0  0  0  0
  187.1100  178.0110  135.6670 C   0  0  0  0  0  3  0  0  0  0  0  0
  1 12  1  0  0  0  0
  2  6  2  0  0  0  0
  2 16  1  0  0  0  0
  3 16  1  0  0  0  0
  4 13  1  0  0  0  0
  6 18  1  0  0  0  0
  7  9  1  6  0  0  0
  7 13  1  0  0  0  0
  8 17  1  0  0  0  0
 10 20  1  0  0  0  0
 10  8  2  0  0  0  0
 11 14  1  0  0  0  0
 11  7  1  0  0  0  0
 12  2  1  0  0  0  0
 13  5  1  6  0  0  0
 14  4  1  0  0  0  0
 15  1  1  0  0  0  0
 15 21  1  0  0  0  0
 16 11  2  0  0  0  0
 17 21  2  0  0  0  0
 18 14  2  0  0  0  0
 19 10  1  0  0  0  0
 20 15  2  0  0  0  0
 21  3  1  0  0  0  0
 22 25  1  0  0  0  0
 23 24  1  0  0  0  0
 23 12  1  0  0  0  0
 25 24  2  0  0  0  0
 26 22  2  0  0  0  0
 26 27  1  0  0  0  0
 27 23  2  0  0  0  0
M  END
>  <MODEL>
7

>  <REMARK>
 VINA RESULT:      -7.8      3.421      7.119
  Name = 
  1 active torsions:
  status: ('A' for Active; 'I' for Inactive)
    1  A    between atoms: C_9  and  N_15
                            x       y       z     vdW  Elec       q    Type
                         _______ _______ _______ _____ _____    ______ ____

>  <TORSDO>
F 1

$$$$
=
 OpenBabel10272401053D

 27 31  0  0  1  0  0  0  0  0999 V2000
  187.0850  176.4300  143.1490 C   0  0  0  0  0  2  0  0  0  0  0  0
  189.2320  176.9880  144.2240 C   0  0  0  0  0  0  0  0  0  0  0  0
  187.4260  178.1240  145.5820 N   0  0  0  0  0  2  0  0  0  0  0  0
  191.5540  176.9770  147.7350 C   0  0  0  0  0  2  0  0  0  0  0  0
  191.0880  178.8710  149.1040 F   0  0  0  0  0  0  0  0  0  0  0  0
  190.5090  176.5000  144.1960 N   0  0  0  0  0  0  0  0  0  0  0  0
  189.2500  177.8860  147.9460 C   0  0  2  0  0  3  0  0  0  0  0  0
  184.3500  179.5610  144.0670 C   0  0  0  0  0  3  0  0  0  0  0  0
  188.1590  177.0390  148.5770 C   0  0  0  0  0  1  0  0  0  0  0  0
  184.2180  178.7790  142.9210 C   0  0  0  0  0  0  0  0  0  0  0  0
  189.5370  177.4110  146.5680 C   0  0  0  0  0  0  0  0  0  0  0  0
  188.4410  176.9390  143.0310 N   0  0  0  0  0  0  0  0  0  0  0  0
  190.5700  177.6550  148.7000 C   0  0  1  0  0  3  0  0  0  0  0  0
  190.8030  176.9170  146.4670 C   0  0  0  0  0  0  0  0  0  0  0  0
  186.1720  177.5470  143.4870 C   0  0  0  0  0  0  0  0  0  0  0  0
  188.7040  177.4770  145.4470 C   0  0  0  0  0  0  0  0  0  0  0  0
  185.4210  179.3260  144.9290 C   0  0  0  0  0  3  0  0  0  0  0  0
  191.2830  176.4690  145.2850 N   0  0  0  0  0  0  0  0  0  0  0  0
  183.1340  179.0030  142.0290 N   0  0  0  0  0  1  0  0  0  0  0  0
  185.1180  177.7950  142.6620 N   0  0  0  0  0  0  0  0  0  0  0  0
  186.3560  178.3270  144.6450 C   0  0  0  0  0  0  0  0  0  0  0  0
  189.9780  178.0630  139.2250 C   0  0  0  0  0  3  0  0  0  0  0  0
  188.9650  177.3330  141.7450 C   0  0  0  0  0  0  0  0  0  0  0  0
  188.2190  178.1560  140.8840 C   0  0  0  0  0  3  0  0  0  0  0  0
  188.7230  178.5210  139.6330 C   0  0  0  0  0  3  0  0  0  0  0  0
  190.7280  177.2400  140.0670 C   0  0  0  0  0  3  0  0  0  0  0  0
  190.2250  176.8760  141.3180 C   0  0  0  0  0  3  0  0  0  0  0  0
  1 15  1  0  0  0  0
  2 16  1  0  0  0  0
  4 13  1  0  0  0  0
  6  2  2  0  0  0  0
  6 18  1  0  0  0  0
  7  9  1  1  0  0  0
  7 13  1  0  0  0  0
  8 17  1  0  0  0  0
 10  8  2  0  0  0  0
 11  7  1  0  0  0  0
 12  1  1  0  0  0  0
 12  2  1  0  0  0  0
 13  5  1  6  0  0  0
 14 11  1  0  0  0  0
 14  4  1  0  0  0  0
 15 21  1  0  0  0  0
 16  3  1  0  0  0  0
 16 11  2  0  0  0  0
 18 14  2  0  0  0  0
 19 10  1  0  0  0  0
 20 10  1  0  0  0  0
 20 15  2  0  0  0  0
 21 17  2  0  0  0  0
 21  3  1  0  0  0  0
 22 25  2  0  0  0  0
 22 26  1  0  0  0  0
 23 12  1  0  0  0  0
 24 23  2  0  0  0  0
 25 24  1  0  0  0  0
 26 27  2  0  0  0  0
 27 23  1  0  0  0  0
M  END
>  <MODEL>
8

>  <REMARK>
 VINA RESULT:      -7.7      2.939      7.271
  Name = 
  1 active torsions:
  status: ('A' for Active; 'I' for Inactive)
    1  A    between atoms: C_9  and  N_15
                            x       y       z     vdW  Elec       q    Type
                         _______ _______ _______ _____ _____    ______ ____

>  <TORSDO>
F 1

$$$$
=
 OpenBabel10272401053D

 27 31  0  0  1  0  0  0  0  0999 V2000
  184.4110  179.3550  140.1930 C   0  0  0  0  0  2  0  0  0  0  0  0
  186.6580  178.4300  139.7790 C   0  0  0  0  0  0  0  0  0  0  0  0
  185.0930  177.2830  138.1570 N   0  0  0  0  0  2  0  0  0  0  0  0
  189.7320  177.6730  137.0040 C   0  0  0  0  0  2  0  0  0  0  0  0
  189.3560  175.6470  135.8080 F   0  0  0  0  0  0  0  0  0  0  0  0
  187.9450  178.7890  140.0720 N   0  0  0  0  0  0  0  0  0  0  0  0
  187.4440  176.9750  136.3270 C   0  0  2  0  0  3  0  0  0  0  0  0
  181.5810  176.4060  139.0030 C   0  0  0  0  0  3  0  0  0  0  0  0
  186.6590  177.8180  135.3380 C   0  0  0  0  0  1  0  0  0  0  0  0
  181.2850  177.3640  139.9710 C   0  0  0  0  0  0  0  0  0  0  0  0
  187.4550  177.6250  137.6620 C   0  0  0  0  0  0  0  0  0  0  0  0
  185.6190  178.7400  140.7160 N   0  0  0  0  0  0  0  0  0  0  0  0
  188.9250  176.9560  135.9120 C   0  0  1  0  0  3  0  0  0  0  0  0
  188.7140  178.0010  138.0210 C   0  0  0  0  0  0  0  0  0  0  0  0
  183.4640  178.2960  139.7740 C   0  0  0  0  0  0  0  0  0  0  0  0
  186.3770  177.8140  138.5330 C   0  0  0  0  0  0  0  0  0  0  0  0
  182.8480  176.4000  138.4200 C   0  0  0  0  0  3  0  0  0  0  0  0
  188.9540  178.5750  139.2220 N   0  0  0  0  0  0  0  0  0  0  0  0
  179.9990  177.3870  140.5770 N   0  0  0  0  0  1  0  0  0  0  0  0
  182.2200  178.2830  140.3270 N   0  0  0  0  0  0  0  0  0  0  0  0
  183.8130  177.3330  138.8070 C   0  0  0  0  0  0  0  0  0  0  0  0
  186.0130  177.9980  144.8880 C   0  0  0  0  0  3  0  0  0  0  0  0
  185.7640  178.4980  142.1310 C   0  0  0  0  0  0  0  0  0  0  0  0
  186.7940  177.6760  142.6200 C   0  0  0  0  0  3  0  0  0  0  0  0
  186.9200  177.4300  143.9900 C   0  0  0  0  0  3  0  0  0  0  0  0
  184.9810  178.8110  144.4170 C   0  0  0  0  0  3  0  0  0  0  0  0
  184.8550  179.0580  143.0470 C   0  0  0  0  0  3  0  0  0  0  0  0
  1 12  1  0  0  0  0
  2  6  1  0  0  0  0
  2 12  1  0  0  0  0
  3 16  1  0  0  0  0
  3 21  1  0  0  0  0
  4 14  1  0  0  0  0
  7  9  1  6  0  0  0
  7 11  1  0  0  0  0
  8 10  1  0  0  0  0
 10 20  2  0  0  0  0
 10 19  1  0  0  0  0
 11 14  2  0  0  0  0
 11 16  1  0  0  0  0
 12 23  1  0  0  0  0
 13  5  1  1  0  0  0
 13  7  1  0  0  0  0
 13  4  1  0  0  0  0
 14 18  1  0  0  0  0
 15  1  1  0  0  0  0
 15 20  1  0  0  0  0
 16  2  2  0  0  0  0
 17 21  1  0  0  0  0
 17  8  2  0  0  0  0
 18  6  2  0  0  0  0
 21 15  2  0  0  0  0
 23 24  2  0  0  0  0
 23 27  1  0  0  0  0
 24 25  1  0  0  0  0
 25 22  2  0  0  0  0
 26 22  1  0  0  0  0
 27 26  2  0  0  0  0
M  END
>  <MODEL>
9

>  <REMARK>
 VINA RESULT:      -7.6      2.989      5.818
  Name = 
  1 active torsions:
  status: ('A' for Active; 'I' for Inactive)
    1  A    between atoms: C_9  and  N_15
                            x       y       z     vdW  Elec       q    Type
                         _______ _______ _______ _____ _____    ______ ____

>  <TORSDO>
F 1

$$$$
