=
 OpenBabel10272400193D

 31 34  0  0  1  0  0  0  0  0999 V2000
  184.5440  176.1760  137.3400 C   0  0  2  0  0  3  0  0  0  0  0  0
  182.9740  178.2010  139.5670 C   0  0  2  0  0  3  0  0  0  0  0  0
  182.2370  180.2960  138.7640 C   0  0  0  0  0  1  0  0  0  0  0  0
  181.8430  178.9070  138.9360 N   0  0  0  0  0  0  0  0  0  0  0  0
  183.0400  176.7080  139.1710 C   0  0  1  0  0  3  0  0  0  0  0  0
  181.8600  175.9110  139.7090 C   0  0  0  0  0  1  0  0  0  0  0  0
  183.1490  176.4980  137.7090 N   0  0  0  0  0  0  0  0  0  0  0  0
  181.5320  178.3890  137.5950 C   0  0  0  0  0  2  0  0  0  0  0  0
  182.7310  177.6910  136.9460 C   0  0  0  0  0  2  0  0  0  0  0  0
  184.2200  178.4790  143.1590 C   0  0  0  0  0  0  0  0  0  0  0  0
  181.8530  178.9830  143.1050 C   0  0  0  0  0  3  0  0  0  0  0  0
  185.7130  178.3020  144.0570 Cl  0  0  0  0  0  0  0  0  0  0  0  0
  184.2070  178.2650  141.7780 C   0  0  0  0  0  3  0  0  0  0  0  0
  181.8380  178.7680  141.7240 C   0  0  0  0  0  3  0  0  0  0  0  0
  183.0120  178.4030  141.0560 C   0  0  0  0  0  0  0  0  0  0  0  0
  183.0430  178.8370  143.8230 C   0  0  0  0  0  3  0  0  0  0  0  0
  185.2530  177.3010  136.5430 C   0  0  2  0  0  3  0  0  0  0  0  0
  186.8620  176.8620  134.6920 C   0  0  0  0  0  3  0  0  0  0  0  0
  185.6170  176.8090  135.1670 C   0  0  0  0  0  3  0  0  0  0  0  0
  186.2470  178.5210  138.3640 O   0  0  0  0  0  0  0  0  0  0  0  0
  187.9570  177.4260  135.4990 C   0  0  0  0  0  0  0  0  0  0  0  0
  189.3370  177.4360  134.9490 C   0  0  0  0  0  1  0  0  0  0  0  0
  186.4210  177.9480  137.2570 C   0  0  0  0  0  0  0  0  0  0  0  0
  187.7300  177.9280  136.6750 N   0  0  0  0  0  0  0  0  0  0  0  0
  184.7560  172.7310  137.7070 O   0  0  0  0  0  0  0  0  0  0  0  0
  184.6960  174.7940  136.6590 C   0  0  1  0  0  3  0  0  0  0  0  0
  183.4920  172.8930  137.2030 N   0  0  0  0  0  0  0  0  0  0  0  0
  185.6040  173.8360  137.4350 C   0  0  0  0  0  2  0  0  0  0  0  0
  183.4100  174.0360  136.6190 C   0  0  0  0  0  0  0  0  0  0  0  0
  182.4980  174.8090  134.4600 C   0  0  0  0  0  1  0  0  0  0  0  0
  182.1810  174.4940  135.9090 C   0  0  0  0  0  2  0  0  0  0  0  0
  1  7  1  6  0  0  0
  2 15  1  1  0  0  0
  3  4  1  0  0  0  0
  4  2  1  0  0  0  0
  5  2  1  0  0  0  0
  5  6  1  6  0  0  0
  7  5  1  0  0  0  0
  8  4  1  0  0  0  0
  9  8  1  0  0  0  0
  9  7  1  0  0  0  0
 10 16  1  0  0  0  0
 10 12  1  0  0  0  0
 11 16  2  0  0  0  0
 13 10  2  0  0  0  0
 14 11  1  0  0  0  0
 15 14  2  0  0  0  0
 15 13  1  0  0  0  0
 17 23  1  0  0  0  0
 17  1  1  1  0  0  0
 18 19  2  0  0  0  0
 18 21  1  0  0  0  0
 19 17  1  0  0  0  0
 21 24  2  0  0  0  0
 22 21  1  0  0  0  0
 23 20  2  0  0  0  0
 24 23  1  0  0  0  0
 26  1  1  1  0  0  0
 26 28  1  0  0  0  0
 27 25  1  0  0  0  0
 28 25  1  0  0  0  0
 29 26  1  0  0  0  0
 29 27  2  0  0  0  0
 30 31  1  0  0  0  0
 31 29  1  0  0  0  0
M  END
>  <MODEL>
1

>  <REMARK>
 VINA RESULT:      -6.3      0.000      0.000
  Name = 
  5 active torsions:
  status: ('A' for Active; 'I' for Inactive)
    1  A    between atoms: C_3  and  C_22
    2  A    between atoms: C_4  and  C_5
    3  A    between atoms: C_4  and  C_12
    4  A    between atoms: C_4  and  N_21
    5  A    between atoms: C_27  and  C_28
                            x       y       z     vdW  Elec       q    Type
                         _______ _______ _______ _____ _____    ______ ____

>  <TORSDO>
F 5

$$$$
=
 OpenBabel10272400193D

 31 34  0  0  1  0  0  0  0  0999 V2000
  189.0220  175.5470  137.6270 C   0  0  2  0  0  3  0  0  0  0  0  0
  188.8670  177.0440  140.6700 C   0  0  2  0  0  3  0  0  0  0  0  0
  190.5360  176.4510  142.2320 C   0  0  0  0  0  1  0  0  0  0  0  0
  190.2150  177.3830  141.1630 N   0  0  0  0  0  0  0  0  0  0  0  0
  188.6760  177.3860  139.1740 C   0  0  1  0  0  3  0  0  0  0  0  0
  188.7160  178.8850  138.9110 C   0  0  0  0  0  1  0  0  0  0  0  0
  189.6530  176.7070  138.2930 N   0  0  0  0  0  0  0  0  0  0  0  0
  191.2520  177.2140  140.1330 C   0  0  0  0  0  2  0  0  0  0  0  0
  190.8320  176.2270  139.0390 C   0  0  0  0  0  2  0  0  0  0  0  0
  186.6520  177.8260  143.6720 C   0  0  0  0  0  0  0  0  0  0  0  0
  185.9020  179.1350  141.7780 C   0  0  0  0  0  3  0  0  0  0  0  0
  186.4960  177.3650  145.3540 Cl  0  0  0  0  0  0  0  0  0  0  0  0
  187.6550  177.2570  142.8830 C   0  0  0  0  0  3  0  0  0  0  0  0
  186.9050  178.5660  140.9880 C   0  0  0  0  0  3  0  0  0  0  0  0
  187.7820  177.6220  141.5350 C   0  0  0  0  0  0  0  0  0  0  0  0
  185.7740  178.7630  143.1200 C   0  0  0  0  0  3  0  0  0  0  0  0
  189.8140  175.0240  136.4020 C   0  0  2  0  0  3  0  0  0  0  0  0
  191.8420  173.5890  136.5920 C   0  0  0  0  0  3  0  0  0  0  0  0
  190.5270  173.7460  136.7550 C   0  0  0  0  0  3  0  0  0  0  0  0
  190.2590  177.1100  135.2880 O   0  0  0  0  0  0  0  0  0  0  0  0
  192.6710  174.6720  136.0400 C   0  0  0  0  0  0  0  0  0  0  0  0
  194.1370  174.4720  135.9070 C   0  0  0  0  0  1  0  0  0  0  0  0
  190.7300  176.0410  135.7540 C   0  0  0  0  0  0  0  0  0  0  0  0
  192.1370  175.7910  135.6520 N   0  0  0  0  0  0  0  0  0  0  0  0
  186.5930  176.1140  135.2130 O   0  0  0  0  0  0  0  0  0  0  0  0
  187.5240  175.7650  137.3030 C   0  0  1  0  0  3  0  0  0  0  0  0
  186.3800  174.7990  135.5370 N   0  0  0  0  0  0  0  0  0  0  0  0
  187.2870  176.8260  136.2250 C   0  0  0  0  0  2  0  0  0  0  0  0
  186.8930  174.5580  136.6920 C   0  0  0  0  0  0  0  0  0  0  0  0
  185.3370  172.9520  137.7380 C   0  0  0  0  0  1  0  0  0  0  0  0
  186.7800  173.2310  137.3640 C   0  0  0  0  0  2  0  0  0  0  0  0
  1  7  1  6  0  0  0
  2  4  1  0  0  0  0
  2 15  1  1  0  0  0
  4  3  1  0  0  0  0
  5  6  1  1  0  0  0
  5  2  1  0  0  0  0
  7  9  1  0  0  0  0
  7  5  1  0  0  0  0
  8  4  1  0  0  0  0
  9  8  1  0  0  0  0
 10 12  1  0  0  0  0
 11 16  2  0  0  0  0
 13 10  2  0  0  0  0
 14 15  2  0  0  0  0
 14 11  1  0  0  0  0
 15 13  1  0  0  0  0
 16 10  1  0  0  0  0
 17 19  1  0  0  0  0
 17  1  1  1  0  0  0
 18 19  2  0  0  0  0
 20 23  2  0  0  0  0
 21 18  1  0  0  0  0
 22 21  1  0  0  0  0
 23 17  1  0  0  0  0
 24 23  1  0  0  0  0
 24 21  2  0  0  0  0
 25 27  1  0  0  0  0
 25 28  1  0  0  0  0
 26  1  1  6  0  0  0
 27 29  2  0  0  0  0
 28 26  1  0  0  0  0
 29 26  1  0  0  0  0
 29 31  1  0  0  0  0
 31 30  1  0  0  0  0
M  END
>  <MODEL>
2

>  <REMARK>
 VINA RESULT:      -5.3      3.710      5.667
  Name = 
  5 active torsions:
  status: ('A' for Active; 'I' for Inactive)
    1  A    between atoms: C_3  and  C_22
    2  A    between atoms: C_4  and  C_5
    3  A    between atoms: C_4  and  C_12
    4  A    between atoms: C_4  and  N_21
    5  A    between atoms: C_27  and  C_28
                            x       y       z     vdW  Elec       q    Type
                         _______ _______ _______ _____ _____    ______ ____

>  <TORSDO>
F 5

$$$$
=
 OpenBabel10272400193D

 31 34  0  0  1  0  0  0  0  0999 V2000
  186.1630  177.1820  137.8020 C   0  0  2  0  0  3  0  0  0  0  0  0
  184.2130  177.9740  140.4660 C   0  0  2  0  0  3  0  0  0  0  0  0
  185.1950  177.7630  142.6030 C   0  0  0  0  0  1  0  0  0  0  0  0
  184.9890  178.6860  141.4980 N   0  0  0  0  0  0  0  0  0  0  0  0
  184.5210  178.4770  139.0360 C   0  0  1  0  0  3  0  0  0  0  0  0
  184.0610  179.9100  138.8130 C   0  0  0  0  0  1  0  0  0  0  0  0
  185.9510  178.3570  138.6740 N   0  0  0  0  0  0  0  0  0  0  0  0
  186.3250  179.0820  141.0270 C   0  0  0  0  0  2  0  0  0  0  0  0
  186.8140  178.2140  139.8630 C   0  0  0  0  0  2  0  0  0  0  0  0
  180.8140  178.8050  141.9800 C   0  0  0  0  0  0  0  0  0  0  0  0
  180.5260  177.0980  140.2870 C   0  0  0  0  0  3  0  0  0  0  0  0
  180.1330  179.8700  143.1910 Cl  0  0  0  0  0  0  0  0  0  0  0  0
  182.1900  178.8180  141.7340 C   0  0  0  0  0  3  0  0  0  0  0  0
  181.9020  177.1090  140.0410 C   0  0  0  0  0  3  0  0  0  0  0  0
  182.7400  177.9640  140.7670 C   0  0  0  0  0  0  0  0  0  0  0  0
  179.9820  177.9450  141.2580 C   0  0  0  0  0  3  0  0  0  0  0  0
  187.5410  177.1700  137.0940 C   0  0  2  0  0  3  0  0  0  0  0  0
  189.4930  175.8570  137.9170 C   0  0  0  0  0  3  0  0  0  0  0  0
  188.2650  175.8840  137.3950 C   0  0  0  0  0  3  0  0  0  0  0  0
  187.9800  179.5350  137.0230 O   0  0  0  0  0  0  0  0  0  0  0  0
  190.2140  177.1040  138.2180 C   0  0  0  0  0  0  0  0  0  0  0  0
  191.5660  177.0340  138.8320 C   0  0  0  0  0  1  0  0  0  0  0  0
  188.3980  178.3930  137.3460 C   0  0  0  0  0  0  0  0  0  0  0  0
  189.6950  178.2610  137.9390 N   0  0  0  0  0  0  0  0  0  0  0  0
  185.1670  176.2060  134.6230 O   0  0  0  0  0  0  0  0  0  0  0  0
  184.9970  176.9320  136.8140 C   0  0  1  0  0  3  0  0  0  0  0  0
  184.8180  175.1210  135.3830 N   0  0  0  0  0  0  0  0  0  0  0  0
  185.3060  177.3940  135.3880 C   0  0  0  0  0  2  0  0  0  0  0  0
  184.7230  175.4780  136.6150 C   0  0  0  0  0  0  0  0  0  0  0  0
  185.2340  173.3530  137.7630 C   0  0  0  0  0  1  0  0  0  0  0  0
  184.2960  174.5430  137.6960 C   0  0  0  0  0  2  0  0  0  0  0  0
  1  7  1  6  0  0  0
  2 15  1  1  0  0  0
  2  4  1  0  0  0  0
  4  3  1  0  0  0  0
  5  6  1  1  0  0  0
  5  2  1  0  0  0  0
  7  5  1  0  0  0  0
  7  9  1  0  0  0  0
  8  4  1  0  0  0  0
  9  8  1  0  0  0  0
 10 12  1  0  0  0  0
 11 16  1  0  0  0  0
 13 10  1  0  0  0  0
 14 11  2  0  0  0  0
 14 15  1  0  0  0  0
 15 13  2  0  0  0  0
 16 10  2  0  0  0  0
 17 23  1  0  0  0  0
 17 19  1  0  0  0  0
 17  1  1  1  0  0  0
 18 21  1  0  0  0  0
 19 18  2  0  0  0  0
 20 23  2  0  0  0  0
 21 22  1  0  0  0  0
 23 24  1  0  0  0  0
 24 21  2  0  0  0  0
 25 27  1  0  0  0  0
 25 28  1  0  0  0  0
 26  1  1  1  0  0  0
 27 29  2  0  0  0  0
 28 26  1  0  0  0  0
 29 26  1  0  0  0  0
 29 31  1  0  0  0  0
 31 30  1  0  0  0  0
M  END
>  <MODEL>
3

>  <REMARK>
 VINA RESULT:      -5.1      2.490      3.640
  Name = 
  5 active torsions:
  status: ('A' for Active; 'I' for Inactive)
    1  A    between atoms: C_3  and  C_22
    2  A    between atoms: C_4  and  C_5
    3  A    between atoms: C_4  and  C_12
    4  A    between atoms: C_4  and  N_21
    5  A    between atoms: C_27  and  C_28
                            x       y       z     vdW  Elec       q    Type
                         _______ _______ _______ _____ _____    ______ ____

>  <TORSDO>
F 5

$$$$
=
 OpenBabel10272400193D

 31 34  0  0  1  0  0  0  0  0999 V2000
  188.1570  177.4690  141.4510 C   0  0  2  0  0  3  0  0  0  0  0  0
  188.3100  176.9050  138.1070 C   0  0  2  0  0  3  0  0  0  0  0  0
  187.7000  178.6990  136.6970 C   0  0  0  0  0  1  0  0  0  0  0  0
  188.8230  178.0890  137.3930 N   0  0  0  0  0  0  0  0  0  0  0  0
  189.1080  176.5950  139.3950 C   0  0  1  0  0  3  0  0  0  0  0  0
  190.5390  176.1660  139.1030 C   0  0  0  0  0  1  0  0  0  0  0  0
  189.1190  177.7200  140.3570 N   0  0  0  0  0  0  0  0  0  0  0  0
  189.3570  179.1120  138.3060 C   0  0  0  0  0  2  0  0  0  0  0  0
  188.7660  179.0020  139.7150 C   0  0  0  0  0  2  0  0  0  0  0  0
  187.0140  173.7100  136.4810 C   0  0  0  0  0  0  0  0  0  0  0  0
  189.0200  174.4220  135.3280 C   0  0  0  0  0  3  0  0  0  0  0  0
  185.6870  172.5810  136.6600 Cl  0  0  0  0  0  0  0  0  0  0  0  0
  187.1210  174.8030  137.3450 C   0  0  0  0  0  3  0  0  0  0  0  0
  189.1280  175.5160  136.1920 C   0  0  0  0  0  3  0  0  0  0  0  0
  188.1840  175.7080  137.2070 C   0  0  0  0  0  0  0  0  0  0  0  0
  187.9630  173.5180  135.4730 C   0  0  0  0  0  3  0  0  0  0  0  0
  187.1710  178.6400  141.6960 C   0  0  2  0  0  3  0  0  0  0  0  0
  185.6860  178.7850  143.6910 C   0  0  0  0  0  3  0  0  0  0  0  0
  186.9140  178.7990  143.1710 C   0  0  0  0  0  3  0  0  0  0  0  0
  185.9400  178.5710  139.6290 O   0  0  0  0  0  0  0  0  0  0  0  0
  184.5020  178.6230  142.8320 C   0  0  0  0  0  0  0  0  0  0  0  0
  183.1520  178.5780  143.4520 C   0  0  0  0  0  1  0  0  0  0  0  0
  185.8930  178.5770  140.8860 C   0  0  0  0  0  0  0  0  0  0  0  0
  184.6200  178.5370  141.5420 N   0  0  0  0  0  0  0  0  0  0  0  0
  190.4250  175.3250  142.9710 O   0  0  0  0  0  0  0  0  0  0  0  0
  188.8280  176.9870  142.7610 C   0  0  1  0  0  3  0  0  0  0  0  0
  191.0820  176.5280  143.0220 N   0  0  0  0  0  0  0  0  0  0  0  0
  189.0220  175.4690  142.8160 C   0  0  0  0  0  2  0  0  0  0  0  0
  190.2290  177.4820  142.8970 C   0  0  0  0  0  0  0  0  0  0  0  0
  191.6070  179.1430  144.0960 C   0  0  0  0  0  1  0  0  0  0  0  0
  190.6130  178.9220  142.9730 C   0  0  0  0  0  2  0  0  0  0  0  0
  1  7  1  6  0  0  0
  2 15  1  6  0  0  0
  2  5  1  0  0  0  0
  3  4  1  0  0  0  0
  4  2  1  0  0  0  0
  4  8  1  0  0  0  0
  5  6  1  6  0  0  0
  5  7  1  0  0  0  0
  8  9  1  0  0  0  0
  9  7  1  0  0  0  0
 10 12  1  0  0  0  0
 10 13  1  0  0  0  0
 11 16  1  0  0  0  0
 11 14  2  0  0  0  0
 14 15  1  0  0  0  0
 15 13  2  0  0  0  0
 16 10  2  0  0  0  0
 17  1  1  1  0  0  0
 17 19  1  0  0  0  0
 19 18  2  0  0  0  0
 20 23  2  0  0  0  0
 21 22  1  0  0  0  0
 21 18  1  0  0  0  0
 23 24  1  0  0  0  0
 23 17  1  0  0  0  0
 24 21  2  0  0  0  0
 25 27  1  0  0  0  0
 26  1  1  6  0  0  0
 26 28  1  0  0  0  0
 26 29  1  0  0  0  0
 28 25  1  0  0  0  0
 29 31  1  0  0  0  0
 29 27  2  0  0  0  0
 31 30  1  0  0  0  0
M  END
>  <MODEL>
4

>  <REMARK>
 VINA RESULT:      -5.0      4.229      8.310
  Name = 
  5 active torsions:
  status: ('A' for Active; 'I' for Inactive)
    1  A    between atoms: C_3  and  C_22
    2  A    between atoms: C_4  and  C_5
    3  A    between atoms: C_4  and  C_12
    4  A    between atoms: C_4  and  N_21
    5  A    between atoms: C_27  and  C_28
                            x       y       z     vdW  Elec       q    Type
                         _______ _______ _______ _____ _____    ______ ____

>  <TORSDO>
F 5

$$$$
=
 OpenBabel10272400193D

 31 34  0  0  1  0  0  0  0  0999 V2000
  191.1040  175.0380  135.9290 C   0  0  2  0  0  3  0  0  0  0  0  0
  189.3640  177.1970  137.8870 C   0  0  2  0  0  3  0  0  0  0  0  0
  189.1050  179.3980  137.0720 C   0  0  0  0  0  1  0  0  0  0  0  0
  188.5030  178.0750  137.0730 N   0  0  0  0  0  0  0  0  0  0  0  0
  189.3180  175.7220  137.4250 C   0  0  1  0  0  3  0  0  0  0  0  0
  187.9540  175.0850  137.6490 C   0  0  0  0  0  1  0  0  0  0  0  0
  189.7170  175.5430  136.0100 N   0  0  0  0  0  0  0  0  0  0  0  0
  188.4290  177.6460  135.6670 C   0  0  0  0  0  2  0  0  0  0  0  0
  189.6390  176.8050  135.2490 C   0  0  0  0  0  2  0  0  0  0  0  0
  189.6910  176.9360  141.6760 C   0  0  0  0  0  0  0  0  0  0  0  0
  187.7510  178.2830  141.1440 C   0  0  0  0  0  3  0  0  0  0  0  0
  190.7490  176.2040  142.8630 Cl  0  0  0  0  0  0  0  0  0  0  0  0
  189.9460  176.7640  140.3130 C   0  0  0  0  0  3  0  0  0  0  0  0
  188.0050  178.1110  139.7810 C   0  0  0  0  0  3  0  0  0  0  0  0
  189.0990  177.3460  139.3590 C   0  0  0  0  0  0  0  0  0  0  0  0
  188.5930  177.6950  142.0920 C   0  0  0  0  0  3  0  0  0  0  0  0
  192.1720  176.1580  135.8430 C   0  0  2  0  0  3  0  0  0  0  0  0
  194.1600  176.0420  134.3470 C   0  0  0  0  0  3  0  0  0  0  0  0
  192.8380  176.1340  134.4930 C   0  0  0  0  0  3  0  0  0  0  0  0
  192.7710  176.3240  138.1680 O   0  0  0  0  0  0  0  0  0  0  0  0
  195.0480  175.9710  135.5180 C   0  0  0  0  0  0  0  0  0  0  0  0
  196.5140  175.8340  135.3150 C   0  0  0  0  0  1  0  0  0  0  0  0
  193.1690  176.1770  136.9830 C   0  0  0  0  0  0  0  0  0  0  0  0
  194.5710  176.0430  136.7230 N   0  0  0  0  0  0  0  0  0  0  0  0
  191.7800  171.7180  135.1730 O   0  0  0  0  0  0  0  0  0  0  0  0
  191.3020  173.9580  134.8380 C   0  0  1  0  0  3  0  0  0  0  0  0
  190.4390  171.8100  134.9050 N   0  0  0  0  0  0  0  0  0  0  0  0
  192.4330  172.9770  135.1570 C   0  0  0  0  0  2  0  0  0  0  0  0
  190.1260  173.0450  134.7220 C   0  0  0  0  0  0  0  0  0  0  0  0
  187.7180  172.5730  134.9840 C   0  0  0  0  0  1  0  0  0  0  0  0
  188.7510  173.4820  134.3480 C   0  0  0  0  0  2  0  0  0  0  0  0
  1  7  1  6  0  0  0
  2 15  1  1  0  0  0
  3  4  1  0  0  0  0
  4  2  1  0  0  0  0
  5  6  1  6  0  0  0
  5  2  1  0  0  0  0
  7  5  1  0  0  0  0
  8  4  1  0  0  0  0
  9  8  1  0  0  0  0
  9  7  1  0  0  0  0
 10 16  1  0  0  0  0
 10 12  1  0  0  0  0
 11 16  2  0  0  0  0
 13 10  2  0  0  0  0
 14 11  1  0  0  0  0
 15 14  2  0  0  0  0
 15 13  1  0  0  0  0
 17  1  1  1  0  0  0
 17 23  1  0  0  0  0
 18 19  2  0  0  0  0
 18 21  1  0  0  0  0
 19 17  1  0  0  0  0
 21 24  2  0  0  0  0
 22 21  1  0  0  0  0
 23 20  2  0  0  0  0
 24 23  1  0  0  0  0
 26 28  1  0  0  0  0
 26  1  1  1  0  0  0
 27 25  1  0  0  0  0
 28 25  1  0  0  0  0
 29 26  1  0  0  0  0
 29 27  2  0  0  0  0
 31 29  1  0  0  0  0
 31 30  1  0  0  0  0
M  END
>  <MODEL>
5

>  <REMARK>
 VINA RESULT:      -4.7      5.041      6.808
  Name = 
  5 active torsions:
  status: ('A' for Active; 'I' for Inactive)
    1  A    between atoms: C_3  and  C_22
    2  A    between atoms: C_4  and  C_5
    3  A    between atoms: C_4  and  C_12
    4  A    between atoms: C_4  and  N_21
    5  A    between atoms: C_27  and  C_28
                            x       y       z     vdW  Elec       q    Type
                         _______ _______ _______ _____ _____    ______ ____

>  <TORSDO>
F 5

$$$$
=
 OpenBabel10272400193D

 31 34  0  0  1  0  0  0  0  0999 V2000
  189.2520  175.1120  136.4070 C   0  0  2  0  0  3  0  0  0  0  0  0
  187.0820  177.2600  137.8910 C   0  0  2  0  0  3  0  0  0  0  0  0
  187.7220  178.1380  139.9880 C   0  0  0  0  0  1  0  0  0  0  0  0
  187.8000  178.3650  138.5530 N   0  0  0  0  0  0  0  0  0  0  0  0
  187.6500  176.9350  136.4900 C   0  0  1  0  0  3  0  0  0  0  0  0
  187.4280  178.0660  135.4970 C   0  0  0  0  0  1  0  0  0  0  0  0
  189.0870  176.5770  136.5140 N   0  0  0  0  0  0  0  0  0  0  0  0
  189.2300  178.3950  138.2100 C   0  0  0  0  0  2  0  0  0  0  0  0
  189.7500  177.0280  137.7540 C   0  0  0  0  0  2  0  0  0  0  0  0
  183.6330  178.7900  138.4330 C   0  0  0  0  0  0  0  0  0  0  0  0
  183.3970  176.7510  137.1490 C   0  0  0  0  0  3  0  0  0  0  0  0
  182.9140  180.1880  139.2020 Cl  0  0  0  0  0  0  0  0  0  0  0  0
  185.0160  178.5980  138.4840 C   0  0  0  0  0  3  0  0  0  0  0  0
  184.7800  176.5580  137.2000 C   0  0  0  0  0  3  0  0  0  0  0  0
  185.5950  177.4770  137.8720 C   0  0  0  0  0  0  0  0  0  0  0  0
  182.8220  177.8650  137.7670 C   0  0  0  0  0  3  0  0  0  0  0  0
  190.6470  174.6770  135.8920 C   0  0  2  0  0  3  0  0  0  0  0  0
  192.5800  174.2160  137.3950 C   0  0  0  0  0  3  0  0  0  0  0  0
  191.3660  173.8860  136.9520 C   0  0  0  0  0  3  0  0  0  0  0  0
  191.0840  176.4690  134.3460 O   0  0  0  0  0  0  0  0  0  0  0  0
  193.2920  175.3830  136.8500 C   0  0  0  0  0  0  0  0  0  0  0  0
  194.6290  175.7400  137.3940 C   0  0  0  0  0  1  0  0  0  0  0  0
  191.4950  175.7970  135.3270 C   0  0  0  0  0  0  0  0  0  0  0  0
  192.7780  176.0930  135.8930 N   0  0  0  0  0  0  0  0  0  0  0  0
  188.1920  172.3730  134.5570 O   0  0  0  0  0  0  0  0  0  0  0  0
  188.1030  174.4190  135.6340 C   0  0  1  0  0  3  0  0  0  0  0  0
  187.5670  172.1700  135.7600 N   0  0  0  0  0  0  0  0  0  0  0  0
  188.5700  173.7250  134.3520 C   0  0  0  0  0  2  0  0  0  0  0  0
  187.5060  173.2850  136.3990 C   0  0  0  0  0  0  0  0  0  0  0  0
  185.3960  172.9320  137.6300 C   0  0  0  0  0  1  0  0  0  0  0  0
  186.8280  173.4210  137.7210 C   0  0  0  0  0  2  0  0  0  0  0  0
  1  7  1  6  0  0  0
  2 15  1  6  0  0  0
  2  4  1  0  0  0  0
  4  3  1  0  0  0  0
  5  6  1  6  0  0  0
  5  7  1  0  0  0  0
  5  2  1  0  0  0  0
  7  9  1  0  0  0  0
  8  4  1  0  0  0  0
  9  8  1  0  0  0  0
 10 13  1  0  0  0  0
 10 12  1  0  0  0  0
 11 14  2  0  0  0  0
 11 16  1  0  0  0  0
 14 15  1  0  0  0  0
 15 13  2  0  0  0  0
 16 10  2  0  0  0  0
 17  1  1  1  0  0  0
 17 19  1  0  0  0  0
 19 18  2  0  0  0  0
 20 23  2  0  0  0  0
 21 22  1  0  0  0  0
 21 18  1  0  0  0  0
 23 17  1  0  0  0  0
 23 24  1  0  0  0  0
 24 21  2  0  0  0  0
 25 27  1  0  0  0  0
 26 29  1  0  0  0  0
 26  1  1  1  0  0  0
 27 29  2  0  0  0  0
 28 25  1  0  0  0  0
 28 26  1  0  0  0  0
 29 31  1  0  0  0  0
 30 31  1  0  0  0  0
M  END
>  <MODEL>
6

>  <REMARK>
 VINA RESULT:      -4.6      3.415      5.655
  Name = 
  5 active torsions:
  status: ('A' for Active; 'I' for Inactive)
    1  A    between atoms: C_3  and  C_22
    2  A    between atoms: C_4  and  C_5
    3  A    between atoms: C_4  and  C_12
    4  A    between atoms: C_4  and  N_21
    5  A    between atoms: C_27  and  C_28
                            x       y       z     vdW  Elec       q    Type
                         _______ _______ _______ _____ _____    ______ ____

>  <TORSDO>
F 5

$$$$
=
 OpenBabel10272400193D

 31 34  0  0  1  0  0  0  0  0999 V2000
  186.5150  178.1070  139.5570 C   0  0  2  0  0  3  0  0  0  0  0  0
  188.2080  177.4550  142.4260 C   0  0  2  0  0  3  0  0  0  0  0  0
  189.6950  175.6200  142.3890 C   0  0  0  0  0  1  0  0  0  0  0  0
  189.5980  177.0500  142.1410 N   0  0  0  0  0  0  0  0  0  0  0  0
  187.7520  178.6600  141.5720 C   0  0  1  0  0  3  0  0  0  0  0  0
  188.5060  179.9360  141.9170 C   0  0  0  0  0  1  0  0  0  0  0  0
  187.8500  178.4110  140.1150 N   0  0  0  0  0  0  0  0  0  0  0  0
  189.9690  177.2580  140.7320 C   0  0  0  0  0  2  0  0  0  0  0  0
  188.7500  177.2830  139.8050 C   0  0  0  0  0  2  0  0  0  0  0  0
  186.4770  178.0880  145.7630 C   0  0  0  0  0  0  0  0  0  0  0  0
  188.8430  177.7490  146.1540 C   0  0  0  0  0  3  0  0  0  0  0  0
  184.8690  178.4030  146.3770 Cl  0  0  0  0  0  0  0  0  0  0  0  0
  186.6790  177.9170  144.3910 C   0  0  0  0  0  3  0  0  0  0  0  0
  189.0450  177.5780  144.7820 C   0  0  0  0  0  3  0  0  0  0  0  0
  187.9670  177.6670  143.8940 C   0  0  0  0  0  0  0  0  0  0  0  0
  187.5590  178.0050  146.6450 C   0  0  0  0  0  3  0  0  0  0  0  0
  186.5220  177.8510  138.0280 C   0  0  2  0  0  3  0  0  0  0  0  0
  187.0020  175.6260  137.0140 C   0  0  0  0  0  3  0  0  0  0  0  0
  186.2040  176.4070  137.7450 C   0  0  0  0  0  3  0  0  0  0  0  0
  188.0940  179.5390  137.3430 O   0  0  0  0  0  0  0  0  0  0  0  0
  188.2460  176.1520  136.4300 C   0  0  0  0  0  0  0  0  0  0  0  0
  189.1270  175.2430  135.6510 C   0  0  0  0  0  1  0  0  0  0  0  0
  187.7670  178.3250  137.3080 C   0  0  0  0  0  0  0  0  0  0  0  0
  188.5750  177.4000  136.5710 N   0  0  0  0  0  0  0  0  0  0  0  0
  183.3400  179.4000  139.0110 O   0  0  0  0  0  0  0  0  0  0  0  0
  185.4280  179.1280  139.9720 C   0  0  1  0  0  3  0  0  0  0  0  0
  183.1650  178.6750  140.1610 N   0  0  0  0  0  0  0  0  0  0  0  0
  184.6960  179.7490  138.7790 C   0  0  0  0  0  2  0  0  0  0  0  0
  184.3070  178.4910  140.7240 C   0  0  0  0  0  0  0  0  0  0  0  0
  183.5470  178.4130  143.0710 C   0  0  0  0  0  1  0  0  0  0  0  0
  184.4580  177.7900  142.0320 C   0  0  0  0  0  2  0  0  0  0  0  0
  1  7  1  6  0  0  0
  2 15  1  1  0  0  0
  4  3  1  0  0  0  0
  4  2  1  0  0  0  0
  5  6  1  1  0  0  0
  5  2  1  0  0  0  0
  7  5  1  0  0  0  0
  8  4  1  0  0  0  0
  9  7  1  0  0  0  0
  9  8  1  0  0  0  0
 10 12  1  0  0  0  0
 10 16  1  0  0  0  0
 11 16  2  0  0  0  0
 13 10  2  0  0  0  0
 14 11  1  0  0  0  0
 15 13  1  0  0  0  0
 15 14  2  0  0  0  0
 17  1  1  1  0  0  0
 18 19  2  0  0  0  0
 19 17  1  0  0  0  0
 21 24  2  0  0  0  0
 21 18  1  0  0  0  0
 22 21  1  0  0  0  0
 23 20  2  0  0  0  0
 23 17  1  0  0  0  0
 24 23  1  0  0  0  0
 25 27  1  0  0  0  0
 26  1  1  6  0  0  0
 26 29  1  0  0  0  0
 27 29  2  0  0  0  0
 28 25  1  0  0  0  0
 28 26  1  0  0  0  0
 29 31  1  0  0  0  0
 31 30  1  0  0  0  0
M  END
>  <MODEL>
7

>  <REMARK>
 VINA RESULT:      -4.5      3.367      5.838
  Name = 
  5 active torsions:
  status: ('A' for Active; 'I' for Inactive)
    1  A    between atoms: C_3  and  C_22
    2  A    between atoms: C_4  and  C_5
    3  A    between atoms: C_4  and  C_12
    4  A    between atoms: C_4  and  N_21
    5  A    between atoms: C_27  and  C_28
                            x       y       z     vdW  Elec       q    Type
                         _______ _______ _______ _____ _____    ______ ____

>  <TORSDO>
F 5

$$$$
=
 OpenBabel10272400193D

 31 34  0  0  1  0  0  0  0  0999 V2000
  186.6150  174.6940  136.5060 C   0  0  2  0  0  3  0  0  0  0  0  0
  188.6530  176.7920  138.2270 C   0  0  2  0  0  3  0  0  0  0  0  0
  190.8240  177.1180  137.3550 C   0  0  0  0  0  1  0  0  0  0  0  0
  189.4590  177.6190  137.3100 N   0  0  0  0  0  0  0  0  0  0  0  0
  187.1760  176.6800  137.7850 C   0  0  1  0  0  3  0  0  0  0  0  0
  186.4420  178.0100  137.8680 C   0  0  0  0  0  1  0  0  0  0  0  0
  187.0170  176.1140  136.4260 N   0  0  0  0  0  0  0  0  0  0  0  0
  189.0170  177.5060  135.9110 C   0  0  0  0  0  2  0  0  0  0  0  0
  188.2640  176.1990  135.6420 C   0  0  0  0  0  2  0  0  0  0  0  0
  189.7620  176.9800  141.8700 C   0  0  0  0  0  0  0  0  0  0  0  0
  188.2310  178.8010  141.4170 C   0  0  0  0  0  3  0  0  0  0  0  0
  190.8050  176.1170  142.9790 Cl  0  0  0  0  0  0  0  0  0  0  0  0
  189.6310  176.5410  140.5500 C   0  0  0  0  0  3  0  0  0  0  0  0
  188.0990  178.3620  140.0970 C   0  0  0  0  0  3  0  0  0  0  0  0
  188.7940  177.2290  139.6590 C   0  0  0  0  0  0  0  0  0  0  0  0
  189.0610  178.1090  142.3050 C   0  0  0  0  0  3  0  0  0  0  0  0
  187.4490  173.7570  135.5950 C   0  0  2  0  0  3  0  0  0  0  0  0
  186.4930  171.7740  134.4290 C   0  0  0  0  0  3  0  0  0  0  0  0
  186.5560  173.0980  134.5770 C   0  0  0  0  0  3  0  0  0  0  0  0
  189.2120  173.1710  137.1240 O   0  0  0  0  0  0  0  0  0  0  0  0
  187.3150  170.8790  135.2590 C   0  0  0  0  0  0  0  0  0  0  0  0
  187.1910  169.4080  135.0880 C   0  0  0  0  0  1  0  0  0  0  0  0
  188.3230  172.7650  136.3310 C   0  0  0  0  0  0  0  0  0  0  0  0
  188.1580  171.3570  136.1240 N   0  0  0  0  0  0  0  0  0  0  0  0
  183.4030  175.3450  137.6530 O   0  0  0  0  0  0  0  0  0  0  0  0
  185.0920  174.4760  136.3290 C   0  0  1  0  0  3  0  0  0  0  0  0
  183.4720  176.1180  136.5220 N   0  0  0  0  0  0  0  0  0  0  0  0
  184.3510  174.2890  137.6560 C   0  0  0  0  0  2  0  0  0  0  0  0
  184.4080  175.6750  135.7610 C   0  0  0  0  0  0  0  0  0  0  0  0
  184.2020  177.6870  134.3460 C   0  0  0  0  0  1  0  0  0  0  0  0
  184.7020  176.2570  134.4200 C   0  0  0  0  0  2  0  0  0  0  0  0
  1  7  1  6  0  0  0
  2 15  1  1  0  0  0
  4  3  1  0  0  0  0
  4  2  1  0  0  0  0
  5  6  1  6  0  0  0
  5  2  1  0  0  0  0
  7  5  1  0  0  0  0
  8  4  1  0  0  0  0
  9  8  1  0  0  0  0
  9  7  1  0  0  0  0
 10 16  1  0  0  0  0
 10 12  1  0  0  0  0
 11 16  2  0  0  0  0
 13 10  2  0  0  0  0
 14 11  1  0  0  0  0
 15 14  2  0  0  0  0
 15 13  1  0  0  0  0
 17 23  1  0  0  0  0
 17  1  1  1  0  0  0
 18 19  2  0  0  0  0
 18 21  1  0  0  0  0
 19 17  1  0  0  0  0
 21 24  2  0  0  0  0
 22 21  1  0  0  0  0
 23 20  2  0  0  0  0
 24 23  1  0  0  0  0
 25 28  1  0  0  0  0
 26  1  1  1  0  0  0
 26 28  1  0  0  0  0
 27 25  1  0  0  0  0
 29 26  1  0  0  0  0
 29 27  2  0  0  0  0
 30 31  1  0  0  0  0
 31 29  1  0  0  0  0
M  END
>  <MODEL>
8

>  <REMARK>
 VINA RESULT:      -4.5      3.507      5.526
  Name = 
  5 active torsions:
  status: ('A' for Active; 'I' for Inactive)
    1  A    between atoms: C_3  and  C_22
    2  A    between atoms: C_4  and  C_5
    3  A    between atoms: C_4  and  C_12
    4  A    between atoms: C_4  and  N_21
    5  A    between atoms: C_27  and  C_28
                            x       y       z     vdW  Elec       q    Type
                         _______ _______ _______ _____ _____    ______ ____

>  <TORSDO>
F 5

$$$$
=
 OpenBabel10272400193D

 31 34  0  0  1  0  0  0  0  0999 V2000
  185.8270  178.2230  140.2330 C   0  0  2  0  0  3  0  0  0  0  0  0
  188.6190  177.0390  138.7070 C   0  0  2  0  0  3  0  0  0  0  0  0
  188.3290  175.2380  137.2070 C   0  0  0  0  0  1  0  0  0  0  0  0
  188.3470  176.6890  137.3010 N   0  0  0  0  0  0  0  0  0  0  0  0
  187.9800  178.3840  139.1210 C   0  0  1  0  0  3  0  0  0  0  0  0
  188.6020  179.5700  138.3980 C   0  0  0  0  0  1  0  0  0  0  0  0
  186.5110  178.4120  138.9360 N   0  0  0  0  0  0  0  0  0  0  0  0
  187.0270  177.1560  136.8480 C   0  0  0  0  0  2  0  0  0  0  0  0
  186.0500  177.3580  138.0110 C   0  0  0  0  0  2  0  0  0  0  0  0
  192.3890  176.5690  138.3960 C   0  0  0  0  0  0  0  0  0  0  0  0
  191.8690  177.2910  140.6480 C   0  0  0  0  0  3  0  0  0  0  0  0
  193.5670  176.1010  137.1880 Cl  0  0  0  0  0  0  0  0  0  0  0  0
  191.0310  176.6010  138.0710 C   0  0  0  0  0  3  0  0  0  0  0  0
  190.5100  177.3230  140.3240 C   0  0  0  0  0  3  0  0  0  0  0  0
  190.0840  176.9730  139.0370 C   0  0  0  0  0  0  0  0  0  0  0  0
  192.8090  176.9130  139.6850 C   0  0  0  0  0  3  0  0  0  0  0  0
  184.3080  178.5280  140.1880 C   0  0  2  0  0  3  0  0  0  0  0  0
  182.6030  176.8820  139.4210 C   0  0  0  0  0  3  0  0  0  0  0  0
  183.5210  177.2510  140.3150 C   0  0  0  0  0  3  0  0  0  0  0  0
  184.3370  180.5250  138.8460 O   0  0  0  0  0  0  0  0  0  0  0  0
  182.3020  177.7260  138.2530 C   0  0  0  0  0  0  0  0  0  0  0  0
  181.2970  177.2640  137.2600 C   0  0  0  0  0  1  0  0  0  0  0  0
  183.8620  179.3720  139.0130 C   0  0  0  0  0  0  0  0  0  0  0  0
  182.8880  178.8730  138.0890 N   0  0  0  0  0  0  0  0  0  0  0  0
  185.6480  179.3630  143.5070 O   0  0  0  0  0  0  0  0  0  0  0  0
  186.5320  178.9410  141.4100 C   0  0  1  0  0  3  0  0  0  0  0  0
  186.4650  178.2690  143.6240 N   0  0  0  0  0  0  0  0  0  0  0  0
  185.6050  179.8800  142.1860 C   0  0  0  0  0  2  0  0  0  0  0  0
  186.9710  177.9910  142.4750 C   0  0  0  0  0  0  0  0  0  0  0  0
  188.5870  176.4970  143.5920 C   0  0  0  0  0  1  0  0  0  0  0  0
  187.9560  176.8900  142.2710 C   0  0  0  0  0  2  0  0  0  0  0  0
  1  7  1  6  0  0  0
  2 15  1  6  0  0  0
  2  5  1  0  0  0  0
  3  4  1  0  0  0  0
  4  2  1  0  0  0  0
  5  6  1  6  0  0  0
  7  5  1  0  0  0  0
  8  4  1  0  0  0  0
  8  9  1  0  0  0  0
  9  7  1  0  0  0  0
 10 16  1  0  0  0  0
 12 10  1  0  0  0  0
 13 10  2  0  0  0  0
 13 15  1  0  0  0  0
 14 11  1  0  0  0  0
 15 14  2  0  0  0  0
 16 11  2  0  0  0  0
 17  1  1  6  0  0  0
 17 19  1  0  0  0  0
 18 19  2  0  0  0  0
 20 23  2  0  0  0  0
 21 18  1  0  0  0  0
 22 21  1  0  0  0  0
 23 17  1  0  0  0  0
 24 21  2  0  0  0  0
 24 23  1  0  0  0  0
 25 27  1  0  0  0  0
 26  1  1  6  0  0  0
 26 28  1  0  0  0  0
 26 29  1  0  0  0  0
 28 25  1  0  0  0  0
 29 27  2  0  0  0  0
 31 29  1  0  0  0  0
 31 30  1  0  0  0  0
M  END
>  <MODEL>
9

>  <REMARK>
 VINA RESULT:      -4.4      3.861      7.428
  Name = 
  5 active torsions:
  status: ('A' for Active; 'I' for Inactive)
    1  A    between atoms: C_3  and  C_22
    2  A    between atoms: C_4  and  C_5
    3  A    between atoms: C_4  and  C_12
    4  A    between atoms: C_4  and  N_21
    5  A    between atoms: C_27  and  C_28
                            x       y       z     vdW  Elec       q    Type
                         _______ _______ _______ _____ _____    ______ ____

>  <TORSDO>
F 5

$$$$
