=
 OpenBabel10272414463D

 37 46  0  0  1  0  0  0  0  0999 V2000
  187.3490  177.1850  136.7490 C   0  0  2  0  0  3  0  0  0  0  0  0
  183.0040  173.3360  136.2570 O   0  0  0  0  0  0  0  0  0  0  0  0
  186.9890  177.7740  143.2950 C   0  0  0  0  0  2  0  0  0  0  0  0
  183.8920  179.0360  139.0400 C   0  0  1  0  0  3  0  0  0  0  0  0
  186.9490  178.0810  135.6010 C   0  0  0  0  0  2  0  0  0  0  0  0
  183.3690  174.0130  137.4510 C   0  0  1  0  0  3  0  0  0  0  0  0
  184.8510  174.3920  137.4840 C   0  0  0  0  0  2  0  0  0  0  0  0
  182.3690  175.0760  137.9840 C   0  0  2  0  0  3  0  0  0  0  0  0
  183.8130  178.3780  141.4740 C   0  0  0  0  0  2  0  0  0  0  0  0
  184.7810  178.2960  138.0160 C   0  0  2  0  0  3  0  0  0  0  0  0
  188.5030  177.4190  139.0930 C   0  0  2  0  0  3  0  0  0  0  0  0
  184.6410  179.0490  140.3800 C   0  0  1  0  0  3  0  0  0  0  0  0
  184.3780  176.7900  137.9750 C   0  0  2  0  0  3  0  0  0  0  0  0
  179.9860  175.5930  137.8830 F   0  0  0  0  0  0  0  0  0  0  0  0
  184.6800  177.6230  142.4860 C   0  0  0  0  0  2  0  0  0  0  0  0
  186.6990  177.1110  134.4580 C   0  0  0  0  0  2  0  0  0  0  0  0
  180.9440  174.5620  135.9240 C   0  0  0  0  0  2  0  0  0  0  0  0
  180.9680  174.7230  137.4470 C   0  0  1  0  0  3  0  0  0  0  0  0
  185.8990  178.2690  140.1080 C   0  0  2  0  0  3  0  0  0  0  0  0
  188.2890  177.7640  140.5910 C   0  0  0  0  0  2  0  0  0  0  0  0
  181.8760  177.6220  137.5590 C   0  0  0  0  0  2  0  0  0  0  0  0
  188.5880  178.6870  138.2660 C   0  0  0  0  0  2  0  0  0  0  0  0
  187.1100  178.7000  140.9060 C   0  0  2  0  0  3  0  0  0  0  0  0
  186.5900  175.7110  135.0700 C   0  0  2  0  0  3  0  0  0  0  0  0
  185.1080  175.8190  137.0120 C   0  0  1  0  0  3  0  0  0  0  0  0
  186.1390  178.5200  138.6570 C   0  0  1  0  0  3  0  0  0  0  0  0
  185.6830  178.5330  143.1880 C   0  0  2  0  0  3  0  0  0  0  0  0
  182.8680  176.5260  137.7310 C   0  0  2  0  0  0  0  0  0  0  0  0
  186.9340  179.0130  142.4170 C   0  0  1  0  0  3  0  0  0  0  0  0
  186.5830  175.8970  136.5800 C   0  0  2  0  0  3  0  0  0  0  0  0
  182.3410  174.2230  135.3880 C   0  0  0  0  0  2  0  0  0  0  0  0
  187.3610  177.7970  138.1310 C   0  0  1  0  0  0  0  0  0  0  0  0
  182.4910  177.0030  136.4560 O   0  0  0  0  0  0  0  0  0  0  0  0
  187.7800  174.8560  134.6590 C   0  0  0  0  0  2  0  0  0  0  0  0
  187.9990  173.7400  135.6640 C   0  0  0  0  0  1  0  0  0  0  0  0
  182.3050  180.8060  138.8130 O   0  0  0  0  0  1  0  0  0  0  0  0
  183.6340  180.4580  138.5690 C   0  0  0  0  0  2  0  0  0  0  0  0
  1  5  1  6  0  0  0
  1 32  1  0  0  0  0
  2  6  1  0  0  0  0
  4 37  1  6  0  0  0
  4 12  1  0  0  0  0
  6  7  1  6  0  0  0
  6  8  1  0  0  0  0
  9 15  1  0  0  0  0
 10 26  1  0  0  0  0
 10  4  1  0  0  0  0
 11 20  1  0  0  0  0
 12  9  1  0  0  0  0
 13 10  1  0  0  0  0
 15 27  1  0  0  0  0
 16 24  1  0  0  0  0
 16  5  1  0  0  0  0
 17 18  1  0  0  0  0
 18 14  1  0  0  0  0
 18  8  1  0  0  0  0
 19 12  1  0  0  0  0
 19 23  1  0  0  0  0
 20 23  1  0  0  0  0
 21 28  1  0  0  0  0
 22 11  1  0  0  0  0
 23 29  1  0  0  0  0
 24 30  1  0  0  0  0
 25  7  1  0  0  0  0
 25 13  1  0  0  0  0
 26 19  1  0  0  0  0
 27  3  1  0  0  0  0
 28 13  1  0  0  0  0
 28  8  1  0  0  0  0
 29 27  1  0  0  0  0
 29  3  1  0  0  0  0
 30  1  1  0  0  0  0
 30 25  1  0  0  0  0
 31 17  1  0  0  0  0
 31  2  1  0  0  0  0
 32 22  1  0  0  0  0
 32 26  1  0  0  0  0
 32 11  1  0  0  0  0
 33 21  1  0  0  0  0
 33 28  1  0  0  0  0
 34 24  1  0  0  0  0
 34 35  1  0  0  0  0
 37 36  1  0  0  0  0
M  END
>  <MODEL>
1

>  <REMARK>
 VINA RESULT:      -5.8      0.000      0.000
  Name = 
  2 active torsions:
  status: ('A' for Active; 'I' for Inactive)
    1  A    between atoms: C_4  and  C_28
    2  A    between atoms: C_11  and  C_26
                            x       y       z     vdW  Elec       q    Type
                         _______ _______ _______ _____ _____    ______ ____

>  <TORSDO>
F 2

$$$$
=
 OpenBabel10272414463D

 37 46  0  0  1  0  0  0  0  0999 V2000
  186.7740  176.2980  136.4150 C   0  0  2  0  0  3  0  0  0  0  0  0
  184.3300  171.0090  136.4600 O   0  0  0  0  0  0  0  0  0  0  0  0
  183.3040  178.6860  141.4740 C   0  0  0  0  0  2  0  0  0  0  0  0
  182.3010  177.0850  136.4020 C   0  0  1  0  0  3  0  0  0  0  0  0
  186.7260  176.5240  134.9230 C   0  0  0  0  0  2  0  0  0  0  0  0
  183.9130  172.1130  137.2510 C   0  0  1  0  0  3  0  0  0  0  0  0
  185.0540  173.0840  137.5560 C   0  0  0  0  0  2  0  0  0  0  0  0
  182.5390  172.7460  136.8940 C   0  0  2  0  0  3  0  0  0  0  0  0
  181.2880  177.2550  138.7070 C   0  0  0  0  0  2  0  0  0  0  0  0
  183.7210  176.5230  136.1660 C   0  0  2  0  0  3  0  0  0  0  0  0
  186.6130  177.7270  138.6090 C   0  0  2  0  0  3  0  0  0  0  0  0
  182.3160  177.8380  137.7390 C   0  0  1  0  0  3  0  0  0  0  0  0
  183.7950  175.0610  136.7070 C   0  0  2  0  0  3  0  0  0  0  0  0
  180.4290  172.1220  135.8410 F   0  0  0  0  0  0  0  0  0  0  0  0
  181.7580  177.3070  140.1630 C   0  0  0  0  0  2  0  0  0  0  0  0
  187.2960  175.2390  134.3460 C   0  0  0  0  0  2  0  0  0  0  0  0
  182.4140  171.0510  134.9840 C   0  0  0  0  0  2  0  0  0  0  0  0
  181.6920  171.6740  136.1820 C   0  0  1  0  0  3  0  0  0  0  0  0
  183.7150  177.6370  138.2610 C   0  0  2  0  0  3  0  0  0  0  0  0
  185.6520  178.3950  139.6280 C   0  0  0  0  0  2  0  0  0  0  0  0
  181.6460  174.5540  135.2090 C   0  0  0  0  0  2  0  0  0  0  0  0
  186.7310  178.5780  137.3600 C   0  0  0  0  0  2  0  0  0  0  0  0
  184.2610  178.7750  139.0950 C   0  0  2  0  0  3  0  0  0  0  0  0
  187.2910  174.1980  135.4710 C   0  0  2  0  0  3  0  0  0  0  0  0
  185.1130  174.2560  136.5810 C   0  0  1  0  0  3  0  0  0  0  0  0
  184.5180  177.4990  137.0120 C   0  0  1  0  0  3  0  0  0  0  0  0
  182.0450  178.7300  140.6330 C   0  0  2  0  0  3  0  0  0  0  0  0
  182.6960  174.1090  136.1640 C   0  0  2  0  0  0  0  0  0  0  0  0
  183.3340  179.4360  140.1530 C   0  0  1  0  0  3  0  0  0  0  0  0
  186.5420  174.8240  136.6380 C   0  0  2  0  0  3  0  0  0  0  0  0
  183.9340  171.2010  135.1230 C   0  0  0  0  0  2  0  0  0  0  0  0
  185.9870  177.2530  137.2840 C   0  0  1  0  0  0  0  0  0  0  0  0
  182.8370  173.9520  134.7680 O   0  0  0  0  0  0  0  0  0  0  0  0
  188.7140  173.8610  135.8900 C   0  0  0  0  0  2  0  0  0  0  0  0
  188.7070  172.7990  136.9740 C   0  0  0  0  0  1  0  0  0  0  0  0
  181.1940  179.1060  135.7750 O   0  0  0  0  0  1  0  0  0  0  0  0
  181.9230  178.0280  135.2720 C   0  0  0  0  0  2  0  0  0  0  0  0
  1  5  1  6  0  0  0
  1 30  1  0  0  0  0
  1 32  1  0  0  0  0
  2  6  1  0  0  0  0
  4 37  1  6  0  0  0
  4 12  1  0  0  0  0
  6  7  1  6  0  0  0
  8  6  1  0  0  0  0
  9 15  1  0  0  0  0
 10  4  1  0  0  0  0
 10 13  1  0  0  0  0
 10 26  1  0  0  0  0
 11 20  1  0  0  0  0
 12 19  1  0  0  0  0
 12  9  1  0  0  0  0
 14 18  1  0  0  0  0
 15 27  1  0  0  0  0
 16  5  1  0  0  0  0
 16 24  1  0  0  0  0
 17 31  1  0  0  0  0
 17 18  1  0  0  0  0
 18  8  1  0  0  0  0
 19 23  1  0  0  0  0
 21 28  1  0  0  0  0
 22 11  1  0  0  0  0
 23 20  1  0  0  0  0
 23 29  1  0  0  0  0
 24 34  1  0  0  0  0
 24 30  1  0  0  0  0
 25 30  1  0  0  0  0
 25 13  1  0  0  0  0
 25  7  1  0  0  0  0
 26 32  1  0  0  0  0
 26 19  1  0  0  0  0
 27  3  1  0  0  0  0
 28 13  1  0  0  0  0
 28  8  1  0  0  0  0
 29 27  1  0  0  0  0
 29  3  1  0  0  0  0
 31  2  1  0  0  0  0
 32 22  1  0  0  0  0
 32 11  1  0  0  0  0
 33 21  1  0  0  0  0
 33 28  1  0  0  0  0
 34 35  1  0  0  0  0
 37 36  1  0  0  0  0
M  END
>  <MODEL>
2

>  <REMARK>
 VINA RESULT:      -5.6      1.882      3.009
  Name = 
  2 active torsions:
  status: ('A' for Active; 'I' for Inactive)
    1  A    between atoms: C_4  and  C_28
    2  A    between atoms: C_11  and  C_26
                            x       y       z     vdW  Elec       q    Type
                         _______ _______ _______ _____ _____    ______ ____

>  <TORSDO>
F 2

$$$$
=
 OpenBabel10272414463D

 37 46  0  0  1  0  0  0  0  0999 V2000
  183.0890  175.0410  136.7030 C   0  0  2  0  0  3  0  0  0  0  0  0
  188.1580  177.2790  134.9020 O   0  0  0  0  0  0  0  0  0  0  0  0
  179.9820  180.8130  137.3070 C   0  0  0  0  0  2  0  0  0  0  0  0
  184.0840  178.2620  139.7470 C   0  0  1  0  0  3  0  0  0  0  0  0
  183.6520  174.0550  137.6980 C   0  0  0  0  0  2  0  0  0  0  0  0
  187.0460  178.0330  135.3640 C   0  0  1  0  0  3  0  0  0  0  0  0
  185.7120  177.3230  135.1230 C   0  0  0  0  0  2  0  0  0  0  0  0
  187.2110  178.7540  136.7310 C   0  0  2  0  0  3  0  0  0  0  0  0
  183.1940  180.5450  139.1450 C   0  0  0  0  0  2  0  0  0  0  0  0
  184.1340  177.1020  138.7280 C   0  0  2  0  0  3  0  0  0  0  0  0
  180.9430  176.5250  136.4310 C   0  0  2  0  0  3  0  0  0  0  0  0
  182.8290  179.0920  139.4450 C   0  0  1  0  0  3  0  0  0  0  0  0
  185.0060  177.5250  137.5060 C   0  0  2  0  0  3  0  0  0  0  0  0
  188.9820  179.6460  138.1520 F   0  0  0  0  0  0  0  0  0  0  0  0
  182.2750  181.1750  138.0960 C   0  0  0  0  0  2  0  0  0  0  0  0
  184.7500  173.3470  136.9220 C   0  0  0  0  0  2  0  0  0  0  0  0
  189.5340  177.6920  136.8490 C   0  0  0  0  0  2  0  0  0  0  0  0
  188.7160  178.9820  136.9690 C   0  0  1  0  0  3  0  0  0  0  0  0
  182.2310  178.4300  138.2330 C   0  0  2  0  0  3  0  0  0  0  0  0
  180.2630  177.8660  136.8150 C   0  0  0  0  0  2  0  0  0  0  0  0
  186.9150  178.1380  139.2670 C   0  0  0  0  0  2  0  0  0  0  0  0
  180.8310  175.5320  137.5710 C   0  0  0  0  0  2  0  0  0  0  0  0
  180.7220  178.5010  138.1380 C   0  0  2  0  0  3  0  0  0  0  0  0
  185.0330  174.1880  135.6720 C   0  0  2  0  0  3  0  0  0  0  0  0
  185.2330  176.5330  136.3370 C   0  0  1  0  0  3  0  0  0  0  0  0
  182.6570  177.0090  138.3850 C   0  0  1  0  0  3  0  0  0  0  0  0
  180.8100  181.1700  138.5240 C   0  0  2  0  0  3  0  0  0  0  0  0
  186.4250  178.0420  137.8660 C   0  0  2  0  0  0  0  0  0  0  0  0
  180.0170  179.8440  138.4770 C   0  0  1  0  0  3  0  0  0  0  0  0
  184.2370  175.4760  135.8270 C   0  0  2  0  0  3  0  0  0  0  0  0
  188.7980  176.6560  135.9900 C   0  0  0  0  0  2  0  0  0  0  0  0
  182.1910  176.1310  137.2440 C   0  0  1  0  0  0  0  0  0  0  0  0
  187.1780  177.0110  138.4690 O   0  0  0  0  0  0  0  0  0  0  0  0
  184.5830  173.4500  134.4210 C   0  0  0  0  0  2  0  0  0  0  0  0
  184.8420  171.9620  134.5650 C   0  0  0  0  0  1  0  0  0  0  0  0
  184.5650  178.6240  142.0580 O   0  0  0  0  0  1  0  0  0  0  0  0
  184.0190  177.7070  141.1600 C   0  0  0  0  0  2  0  0  0  0  0  0
  1 32  1  0  0  0  0
  1  5  1  1  0  0  0
  2  6  1  0  0  0  0
  2 31  1  0  0  0  0
  3 29  1  0  0  0  0
  3 27  1  0  0  0  0
  4 37  1  1  0  0  0
  6  7  1  1  0  0  0
  6  8  1  0  0  0  0
  7 25  1  0  0  0  0
  8 18  1  0  0  0  0
  8 28  1  0  0  0  0
  9 12  1  0  0  0  0
 10  4  1  0  0  0  0
 11 20  1  0  0  0  0
 11 32  1  0  0  0  0
 11 22  1  0  0  0  0
 12  4  1  0  0  0  0
 13 28  1  0  0  0  0
 13 10  1  0  0  0  0
 15 27  1  0  0  0  0
 15  9  1  0  0  0  0
 16  5  1  0  0  0  0
 17 18  1  0  0  0  0
 18 14  1  0  0  0  0
 19 26  1  0  0  0  0
 19 12  1  0  0  0  0
 20 23  1  0  0  0  0
 23 19  1  0  0  0  0
 23 29  1  0  0  0  0
 24 30  1  0  0  0  0
 24 16  1  0  0  0  0
 25 13  1  0  0  0  0
 26 10  1  0  0  0  0
 28 33  1  0  0  0  0
 28 21  1  0  0  0  0
 29 27  1  0  0  0  0
 30 25  1  0  0  0  0
 30  1  1  0  0  0  0
 31 17  1  0  0  0  0
 32 22  1  0  0  0  0
 32 26  1  0  0  0  0
 33 21  1  0  0  0  0
 34 35  1  0  0  0  0
 34 24  1  0  0  0  0
 37 36  1  0  0  0  0
M  END
>  <MODEL>
3

>  <REMARK>
 VINA RESULT:      -5.0      2.715      5.821
  Name = 
  2 active torsions:
  status: ('A' for Active; 'I' for Inactive)
    1  A    between atoms: C_4  and  C_28
    2  A    between atoms: C_11  and  C_26
                            x       y       z     vdW  Elec       q    Type
                         _______ _______ _______ _____ _____    ______ ____

>  <TORSDO>
F 2

$$$$
=
 OpenBabel10272414463D

 37 46  0  0  1  0  0  0  0  0999 V2000
  189.6460  174.5530  136.4930 C   0  0  2  0  0  3  0  0  0  0  0  0
  184.4590  171.9180  136.7930 O   0  0  0  0  0  0  0  0  0  0  0  0
  188.9810  177.9840  142.0720 C   0  0  0  0  0  2  0  0  0  0  0  0
  186.6720  177.9160  137.1770 C   0  0  1  0  0  3  0  0  0  0  0  0
  189.5940  174.9250  135.0310 C   0  0  0  0  0  2  0  0  0  0  0  0
  184.9070  172.9480  137.6610 C   0  0  1  0  0  3  0  0  0  0  0  0
  186.4290  172.9710  137.8110 C   0  0  0  0  0  2  0  0  0  0  0  0
  184.2010  174.3260  137.5320 C   0  0  2  0  0  3  0  0  0  0  0  0
  186.2370  178.4130  139.6120 C   0  0  0  0  0  2  0  0  0  0  0  0
  187.3960  176.6320  136.7160 C   0  0  2  0  0  3  0  0  0  0  0  0
  190.6440  175.5220  138.7170 C   0  0  2  0  0  3  0  0  0  0  0  0
  187.2950  178.3450  138.5130 C   0  0  1  0  0  3  0  0  0  0  0  0
  186.5990  175.3840  137.2070 C   0  0  2  0  0  3  0  0  0  0  0  0
  182.0670  175.2520  136.7980 F   0  0  0  0  0  0  0  0  0  0  0  0
  186.7860  178.0030  140.9810 C   0  0  0  0  0  2  0  0  0  0  0  0
  189.1720  173.6360  134.3460 C   0  0  0  0  0  2  0  0  0  0  0  0
  182.8460  173.2930  135.6260 C   0  0  0  0  0  2  0  0  0  0  0  0
  182.8010  174.0890  136.9330 C   0  0  1  0  0  3  0  0  0  0  0  0
  188.3070  177.2710  138.8110 C   0  0  2  0  0  3  0  0  0  0  0  0
  190.4240  176.5200  139.8850 C   0  0  0  0  0  2  0  0  0  0  0  0
  184.4600  176.4750  136.0430 C   0  0  0  0  0  2  0  0  0  0  0  0
  191.1350  176.2540  137.4830 C   0  0  0  0  0  2  0  0  0  0  0  0
  189.5280  177.7310  139.5780 C   0  0  2  0  0  3  0  0  0  0  0  0
  188.6370  172.7000  135.4350 C   0  0  2  0  0  3  0  0  0  0  0  0
  187.1030  173.9600  136.8640 C   0  0  1  0  0  3  0  0  0  0  0  0
  188.7120  176.8100  137.4520 C   0  0  1  0  0  3  0  0  0  0  0  0
  187.9460  178.8850  141.4330 C   0  0  2  0  0  3  0  0  0  0  0  0
  185.0960  175.3760  136.8170 C   0  0  2  0  0  0  0  0  0  0  0  0
  189.3340  178.6980  140.7780 C   0  0  1  0  0  3  0  0  0  0  0  0
  188.5700  173.5190  136.7160 C   0  0  2  0  0  3  0  0  0  0  0  0
  184.1310  172.4610  135.5360 C   0  0  0  0  0  2  0  0  0  0  0  0
  189.7240  175.6840  137.4930 C   0  0  1  0  0  0  0  0  0  0  0  0
  184.9610  175.3230  135.4120 O   0  0  0  0  0  0  0  0  0  0  0  0
  189.5730  171.5160  135.6260 C   0  0  0  0  0  2  0  0  0  0  0  0
  190.4180  171.3070  134.3830 C   0  0  0  0  0  1  0  0  0  0  0  0
  187.0840  178.4470  134.8850 O   0  0  0  0  0  1  0  0  0  0  0  0
  186.8500  179.0120  136.1390 C   0  0  0  0  0  2  0  0  0  0  0  0
  1  5  1  6  0  0  0
  1 30  1  0  0  0  0
  1 32  1  0  0  0  0
  2  6  1  0  0  0  0
  4 37  1  6  0  0  0
  4 12  1  0  0  0  0
  6  7  1  6  0  0  0
  8  6  1  0  0  0  0
  9 15  1  0  0  0  0
 10  4  1  0  0  0  0
 10 13  1  0  0  0  0
 10 26  1  0  0  0  0
 11 20  1  0  0  0  0
 12 19  1  0  0  0  0
 12  9  1  0  0  0  0
 14 18  1  0  0  0  0
 15 27  1  0  0  0  0
 16  5  1  0  0  0  0
 16 24  1  0  0  0  0
 17 18  1  0  0  0  0
 18  8  1  0  0  0  0
 19 23  1  0  0  0  0
 21 28  1  0  0  0  0
 22 32  1  0  0  0  0
 22 11  1  0  0  0  0
 23 20  1  0  0  0  0
 23 29  1  0  0  0  0
 24 34  1  0  0  0  0
 24 30  1  0  0  0  0
 25 13  1  0  0  0  0
 25  7  1  0  0  0  0
 26 32  1  0  0  0  0
 26 19  1  0  0  0  0
 27  3  1  0  0  0  0
 28 13  1  0  0  0  0
 28  8  1  0  0  0  0
 29 27  1  0  0  0  0
 29  3  1  0  0  0  0
 30 25  1  0  0  0  0
 31 17  1  0  0  0  0
 31  2  1  0  0  0  0
 32 11  1  0  0  0  0
 33 21  1  0  0  0  0
 33 28  1  0  0  0  0
 35 34  1  0  0  0  0
 36 37  1  0  0  0  0
M  END
>  <MODEL>
4

>  <REMARK>
 VINA RESULT:      -4.6      2.183      3.212
  Name = 
  2 active torsions:
  status: ('A' for Active; 'I' for Inactive)
    1  A    between atoms: C_4  and  C_28
    2  A    between atoms: C_11  and  C_26
                            x       y       z     vdW  Elec       q    Type
                         _______ _______ _______ _____ _____    ______ ____

>  <TORSDO>
F 2

$$$$
=
 OpenBabel10272414463D

 37 46  0  0  1  0  0  0  0  0999 V2000
  186.5390  177.3290  137.2730 C   0  0  2  0  0  3  0  0  0  0  0  0
  185.8180  171.6340  136.2740 O   0  0  0  0  0  0  0  0  0  0  0  0
  181.4540  177.9350  141.4090 C   0  0  0  0  0  2  0  0  0  0  0  0
  182.1620  176.8920  136.1460 C   0  0  1  0  0  3  0  0  0  0  0  0
  186.7720  177.7510  135.8430 C   0  0  0  0  0  2  0  0  0  0  0  0
  184.9250  172.4580  137.0090 C   0  0  1  0  0  3  0  0  0  0  0  0
  185.6280  173.6420  137.6760 C   0  0  0  0  0  2  0  0  0  0  0  0
  183.5460  172.7490  136.3530 C   0  0  2  0  0  3  0  0  0  0  0  0
  180.6420  176.4450  138.1100 C   0  0  0  0  0  2  0  0  0  0  0  0
  183.6980  176.7690  136.2490 C   0  0  2  0  0  3  0  0  0  0  0  0
  185.4660  178.3240  139.4490 C   0  0  2  0  0  3  0  0  0  0  0  0
  181.6470  177.4160  137.4940 C   0  0  1  0  0  3  0  0  0  0  0  0
  184.0730  175.3160  136.6780 C   0  0  2  0  0  3  0  0  0  0  0  0
  182.0140  171.7490  134.7390 F   0  0  0  0  0  0  0  0  0  0  0  0
  180.7280  176.4040  139.6380 C   0  0  0  0  0  2  0  0  0  0  0  0
  187.8110  176.7630  135.3390 C   0  0  0  0  0  2  0  0  0  0  0  0
  184.3680  171.3830  134.3540 C   0  0  0  0  0  2  0  0  0  0  0  0
  183.2390  171.6080  135.3640 C   0  0  1  0  0  3  0  0  0  0  0  0
  182.8830  177.5190  138.3470 C   0  0  2  0  0  3  0  0  0  0  0  0
  184.1430  178.5540  140.2280 C   0  0  0  0  0  2  0  0  0  0  0  0
  182.5730  174.4820  134.6350 C   0  0  0  0  0  2  0  0  0  0  0  0
  185.6120  179.3500  138.3430 C   0  0  0  0  0  2  0  0  0  0  0  0
  182.8630  178.6250  139.3790 C   0  0  2  0  0  3  0  0  0  0  0  0
  187.8540  175.6050  136.3410 C   0  0  2  0  0  3  0  0  0  0  0  0
  185.5610  174.9170  136.8410 C   0  0  1  0  0  3  0  0  0  0  0  0
  183.9560  177.7860  137.3460 C   0  0  1  0  0  3  0  0  0  0  0  0
  180.4670  177.7670  140.2730 C   0  0  2  0  0  3  0  0  0  0  0  0
  183.4580  174.1970  135.7950 C   0  0  2  0  0  0  0  0  0  0  0  0
  181.5660  178.8530  140.2030 C   0  0  1  0  0  3  0  0  0  0  0  0
  186.7070  175.8300  137.3140 C   0  0  2  0  0  3  0  0  0  0  0  0
  185.7020  171.9090  134.8980 C   0  0  0  0  0  2  0  0  0  0  0  0
  185.3290  177.9010  137.9750 C   0  0  1  0  0  0  0  0  0  0  0  0
  183.9560  174.2910  134.4770 O   0  0  0  0  0  0  0  0  0  0  0  0
  189.1770  175.6000  137.0920 C   0  0  0  0  0  2  0  0  0  0  0  0
  189.0020  176.2100  138.4710 C   0  0  0  0  0  1  0  0  0  0  0  0
  180.8890  178.8080  135.5050 O   0  0  0  0  0  1  0  0  0  0  0  0
  181.7930  177.8570  135.0320 C   0  0  0  0  0  2  0  0  0  0  0  0
  1  5  1  6  0  0  0
  1 30  1  0  0  0  0
  1 32  1  0  0  0  0
  2  6  1  0  0  0  0
  4 37  1  6  0  0  0
  4 10  1  0  0  0  0
  4 12  1  0  0  0  0
  6  7  1  6  0  0  0
  8  6  1  0  0  0  0
  9 15  1  0  0  0  0
 10 13  1  0  0  0  0
 10 26  1  0  0  0  0
 11 20  1  0  0  0  0
 12  9  1  0  0  0  0
 12 19  1  0  0  0  0
 13 25  1  0  0  0  0
 14 18  1  0  0  0  0
 15 27  1  0  0  0  0
 16  5  1  0  0  0  0
 16 24  1  0  0  0  0
 17 31  1  0  0  0  0
 17 18  1  0  0  0  0
 18  8  1  0  0  0  0
 19 23  1  0  0  0  0
 21 28  1  0  0  0  0
 22 11  1  0  0  0  0
 23 29  1  0  0  0  0
 23 20  1  0  0  0  0
 24 34  1  0  0  0  0
 24 30  1  0  0  0  0
 25 30  1  0  0  0  0
 25  7  1  0  0  0  0
 26 32  1  0  0  0  0
 26 19  1  0  0  0  0
 27  3  1  0  0  0  0
 28  8  1  0  0  0  0
 28 13  1  0  0  0  0
 29 27  1  0  0  0  0
 29  3  1  0  0  0  0
 31  2  1  0  0  0  0
 32 22  1  0  0  0  0
 32 11  1  0  0  0  0
 33 21  1  0  0  0  0
 33 28  1  0  0  0  0
 34 35  1  0  0  0  0
 37 36  1  0  0  0  0
M  END
>  <MODEL>
5

>  <REMARK>
 VINA RESULT:      -4.0      2.153      3.718
  Name = 
  2 active torsions:
  status: ('A' for Active; 'I' for Inactive)
    1  A    between atoms: C_4  and  C_28
    2  A    between atoms: C_11  and  C_26
                            x       y       z     vdW  Elec       q    Type
                         _______ _______ _______ _____ _____    ______ ____

>  <TORSDO>
F 2

$$$$
=
 OpenBabel10272414463D

 37 46  0  0  1  0  0  0  0  0999 V2000
  191.4700  175.3750  136.6720 C   0  0  2  0  0  3  0  0  0  0  0  0
  186.6940  172.0960  136.0570 O   0  0  0  0  0  0  0  0  0  0  0  0
  190.2250  177.2230  142.8670 C   0  0  0  0  0  2  0  0  0  0  0  0
  188.0450  178.0540  137.9830 C   0  0  1  0  0  3  0  0  0  0  0  0
  191.3950  176.0840  135.3410 C   0  0  0  0  0  2  0  0  0  0  0  0
  186.9780  172.9320  137.1700 C   0  0  1  0  0  3  0  0  0  0  0  0
  188.4790  173.1160  137.4010 C   0  0  0  0  0  2  0  0  0  0  0  0
  186.0900  174.1960  137.3370 C   0  0  2  0  0  3  0  0  0  0  0  0
  187.4970  177.8800  140.4400 C   0  0  0  0  0  2  0  0  0  0  0  0
  188.9490  177.0260  137.2670 C   0  0  2  0  0  3  0  0  0  0  0  0
  192.2800  175.8930  139.1120 C   0  0  2  0  0  3  0  0  0  0  0  0
  188.5750  178.2210  139.4140 C   0  0  1  0  0  3  0  0  0  0  0  0
  188.3230  175.6040  137.4020 C   0  0  2  0  0  3  0  0  0  0  0  0
  183.8620  174.9880  136.7340 F   0  0  0  0  0  0  0  0  0  0  0  0
  188.0710  177.2220  141.6980 C   0  0  0  0  0  2  0  0  0  0  0  0
  191.1700  174.9580  134.3460 C   0  0  0  0  0  2  0  0  0  0  0  0
  184.9290  173.4930  135.1700 C   0  0  0  0  0  2  0  0  0  0  0  0
  184.7490  173.9330  136.6260 C   0  0  1  0  0  3  0  0  0  0  0  0
  189.7210  177.2470  139.4990 C   0  0  2  0  0  3  0  0  0  0  0  0
  191.9000  176.5380  140.4720 C   0  0  0  0  0  2  0  0  0  0  0  0
  186.0770  176.6590  136.4210 C   0  0  0  0  0  2  0  0  0  0  0  0
  192.6880  176.9620  138.1180 C   0  0  0  0  0  2  0  0  0  0  0  0
  190.8510  177.6610  140.4170 C   0  0  2  0  0  3  0  0  0  0  0  0
  190.7490  173.7230  135.1500 C   0  0  2  0  0  3  0  0  0  0  0  0
  189.0270  174.3840  136.7550 C   0  0  1  0  0  3  0  0  0  0  0  0
  190.2130  177.1890  138.0930 C   0  0  1  0  0  3  0  0  0  0  0  0
  189.0870  178.1110  142.4080 C   0  0  2  0  0  3  0  0  0  0  0  0
  186.8440  175.4960  136.9420 C   0  0  2  0  0  0  0  0  0  0  0  0
  190.5010  178.2720  141.8020 C   0  0  1  0  0  3  0  0  0  0  0  0
  190.5440  174.1880  136.5840 C   0  0  2  0  0  3  0  0  0  0  0  0
  186.3190  172.8820  134.9520 C   0  0  0  0  0  2  0  0  0  0  0  0
  191.3710  176.2290  137.9160 C   0  0  1  0  0  0  0  0  0  0  0  0
  186.7450  175.7710  135.5610 O   0  0  0  0  0  0  0  0  0  0  0  0
  191.8360  172.6600  135.1000 C   0  0  0  0  0  2  0  0  0  0  0  0
  191.2230  171.2880  134.8870 C   0  0  0  0  0  1  0  0  0  0  0  0
  189.3370  179.9810  137.4190 O   0  0  0  0  0  1  0  0  0  0  0  0
  188.0890  179.3840  137.2480 C   0  0  0  0  0  2  0  0  0  0  0  0
  1  5  1  6  0  0  0
  1 32  1  0  0  0  0
  2  6  1  0  0  0  0
  4 37  1  6  0  0  0
  4 12  1  0  0  0  0
  6  8  1  0  0  0  0
  6  7  1  6  0  0  0
  9 15  1  0  0  0  0
 10 13  1  0  0  0  0
 10  4  1  0  0  0  0
 10 26  1  0  0  0  0
 11 20  1  0  0  0  0
 12 19  1  0  0  0  0
 12  9  1  0  0  0  0
 15 27  1  0  0  0  0
 16 24  1  0  0  0  0
 16  5  1  0  0  0  0
 17 18  1  0  0  0  0
 18 14  1  0  0  0  0
 18  8  1  0  0  0  0
 19 23  1  0  0  0  0
 21 28  1  0  0  0  0
 22 11  1  0  0  0  0
 23 20  1  0  0  0  0
 23 29  1  0  0  0  0
 24 30  1  0  0  0  0
 25  7  1  0  0  0  0
 25 13  1  0  0  0  0
 26 19  1  0  0  0  0
 27  3  1  0  0  0  0
 28  8  1  0  0  0  0
 28 13  1  0  0  0  0
 29 27  1  0  0  0  0
 29  3  1  0  0  0  0
 30  1  1  0  0  0  0
 30 25  1  0  0  0  0
 31 17  1  0  0  0  0
 31  2  1  0  0  0  0
 32 26  1  0  0  0  0
 32 22  1  0  0  0  0
 32 11  1  0  0  0  0
 33 21  1  0  0  0  0
 33 28  1  0  0  0  0
 34 24  1  0  0  0  0
 35 34  1  0  0  0  0
 37 36  1  0  0  0  0
M  END
>  <MODEL>
6

>  <REMARK>
 VINA RESULT:      -3.9      2.976      4.291
  Name = 
  2 active torsions:
  status: ('A' for Active; 'I' for Inactive)
    1  A    between atoms: C_4  and  C_28
    2  A    between atoms: C_11  and  C_26
                            x       y       z     vdW  Elec       q    Type
                         _______ _______ _______ _____ _____    ______ ____

>  <TORSDO>
F 2

$$$$
