=
 OpenBabel10272414503D

 37 41  0  0  1  0  0  0  0  0999 V2000
  182.2880  176.1490  136.0430 C   0  0  0  0  0  0  0  0  0  0  0  0
  180.9600  173.2860  136.9700 C   0  0  0  0  0  0  0  0  0  0  0  0
  185.0860  174.1150  136.8020 C   0  0  2  0  0  3  0  0  0  0  0  0
  181.3260  175.9250  137.1730 C   0  0  2  0  0  0  0  0  0  0  0  0
  186.4570  176.1890  136.7680 C   0  0  1  0  0  3  0  0  0  0  0  0
  182.5310  171.2650  136.6430 C   0  0  0  0  0  3  0  0  0  0  0  0
  184.5250  176.8600  135.1990 C   0  0  0  0  0  2  0  0  0  0  0  0
  182.1270  175.2100  138.2690 C   0  0  2  0  0  3  0  0  0  0  0  0
  183.0600  173.3640  135.6900 O   0  0  0  0  0  0  0  0  0  0  0  0
  183.7040  170.7630  136.2530 C   0  0  0  0  0  3  0  0  0  0  0  0
  182.7730  177.2780  139.5950 C   0  0  0  0  0  2  0  0  0  0  0  0
  181.9770  175.7680  134.8830 O   0  0  0  0  0  0  0  0  0  0  0  0
  180.8270  174.6010  137.7850 C   0  0  2  0  0  3  0  0  0  0  0  0
  184.8730  171.6710  135.9750 C   0  0  0  0  0  2  0  0  0  0  0  0
  180.2610  173.4310  135.6260 C   0  0  0  0  0  1  0  0  0  0  0  0
  183.9850  177.3290  138.6610 C   0  0  0  0  0  2  0  0  0  0  0  0
  185.9420  177.1600  135.6990 C   0  0  0  0  0  2  0  0  0  0  0  0
  184.4560  173.1530  135.7970 C   0  0  2  0  0  3  0  0  0  0  0  0
  183.5200  176.8720  136.2640 N   0  0  0  0  0  0  0  0  0  0  0  0
  182.4170  172.7610  136.7910 C   0  0  1  0  0  3  0  0  0  0  0  0
  186.3990  174.7210  136.3040 C   0  0  1  0  0  3  0  0  0  0  0  0
  180.1420  172.2780  137.7690 C   0  0  0  0  0  1  0  0  0  0  0  0
  183.5900  177.9080  137.3010 C   0  0  0  0  0  2  0  0  0  0  0  0
  182.0560  175.9190  139.6180 C   0  0  0  0  0  2  0  0  0  0  0  0
  185.1950  173.5650  138.0840 O   0  0  0  0  0  1  0  0  0  0  0  0
  188.8970  176.7830  136.4340 C   0  0  0  0  0  3  0  0  0  0  0  0
  187.7890  176.6500  137.2860 C   0  0  0  0  0  0  0  0  0  0  0  0
  187.9270  176.9340  138.6490 C   0  0  0  0  0  3  0  0  0  0  0  0
  189.2890  177.6300  140.4780 F   0  0  0  0  0  0  0  0  0  0  0  0
  190.2600  177.4880  138.3060 C   0  0  0  0  0  3  0  0  0  0  0  0
  189.1610  177.3540  139.1580 C   0  0  0  0  0  0  0  0  0  0  0  0
  190.1290  177.2020  136.9440 C   0  0  0  0  0  3  0  0  0  0  0  0
  179.9950  177.8680  136.3290 C   0  0  0  0  0  1  0  0  0  0  0  0
  180.4540  177.1190  137.5650 C   0  0  0  0  0  2  0  0  0  0  0  0
  187.6100  173.8660  136.6980 C   0  0  0  0  0  2  0  0  0  0  0  0
  187.9930  174.0060  134.3460 O   0  0  0  0  0  1  0  0  0  0  0  0
  188.2400  173.2240  135.4750 C   0  0  0  0  0  2  0  0  0  0  0  0
  1 19  1  0  0  0  0
  1  4  1  0  0  0  0
  2 22  1  0  0  0  0
  3 25  1  1  0  0  0
  4 34  1  1  0  0  0
  4 13  1  0  0  0  0
  4  8  1  0  0  0  0
  5 27  1  6  0  0  0
  7 17  1  0  0  0  0
  7 19  1  0  0  0  0
  8 24  1  1  0  0  0
  9 18  1  0  0  0  0
  9 20  1  0  0  0  0
 10  6  2  0  0  0  0
 11 24  1  0  0  0  0
 12  1  2  0  0  0  0
 13  2  1  6  0  0  0
 13  8  1  0  0  0  0
 14 10  1  0  0  0  0
 15  2  1  0  0  0  0
 16 11  1  0  0  0  0
 17  5  1  0  0  0  0
 18 14  1  1  0  0  0
 18  3  1  0  0  0  0
 19 23  1  0  0  0  0
 20  6  1  6  0  0  0
 20  2  1  0  0  0  0
 21 35  1  1  0  0  0
 21  5  1  0  0  0  0
 21  3  1  0  0  0  0
 23 16  1  0  0  0  0
 26 32  2  0  0  0  0
 26 27  1  0  0  0  0
 27 28  2  0  0  0  0
 28 31  1  0  0  0  0
 30 31  2  0  0  0  0
 31 29  1  0  0  0  0
 32 30  1  0  0  0  0
 33 34  1  0  0  0  0
 36 37  1  0  0  0  0
 37 35  1  0  0  0  0
M  END
>  <MODEL>
1

>  <REMARK>
 VINA RESULT:      -5.2      0.000      0.000
  Name = 
  4 active torsions:
  status: ('A' for Active; 'I' for Inactive)
    1  A    between atoms: C_5  and  C_23
    2  A    between atoms: C_6  and  C_7
    3  A    between atoms: C_14  and  C_31
    4  A    between atoms: C_14  and  C_37
                            x       y       z     vdW  Elec       q    Type
                         _______ _______ _______ _____ _____    ______ ____

>  <TORSDO>
F 4

$$$$
=
 OpenBabel10272414503D

 37 41  0  0  1  0  0  0  0  0999 V2000
  187.3870  177.4430  135.6120 C   0  0  0  0  0  0  0  0  0  0  0  0
  188.4930  177.8470  138.6840 C   0  0  0  0  0  0  0  0  0  0  0  0
  184.5080  176.9880  137.6250 C   0  0  2  0  0  3  0  0  0  0  0  0
  188.4660  176.6540  136.2930 C   0  0  2  0  0  0  0  0  0  0  0  0
  183.3950  176.0390  135.6150 C   0  0  1  0  0  3  0  0  0  0  0  0
  186.6690  178.5980  140.3480 C   0  0  0  0  0  3  0  0  0  0  0  0
  185.1500  177.5750  134.5170 C   0  0  0  0  0  2  0  0  0  0  0  0
  187.7510  175.7650  137.3190 C   0  0  2  0  0  3  0  0  0  0  0  0
  186.2560  178.6290  138.0190 O   0  0  0  0  0  0  0  0  0  0  0  0
  185.4030  178.9310  140.6030 C   0  0  0  0  0  3  0  0  0  0  0  0
  187.5410  173.6960  135.8590 C   0  0  0  0  0  2  0  0  0  0  0  0
  187.4850  178.6980  135.5520 O   0  0  0  0  0  0  0  0  0  0  0  0
  188.8910  176.6530  137.7750 C   0  0  2  0  0  3  0  0  0  0  0  0
  184.3190  178.6580  139.5940 C   0  0  0  0  0  2  0  0  0  0  0  0
  189.0070  179.1510  138.0880 C   0  0  0  0  0  1  0  0  0  0  0  0
  186.2240  174.3250  135.3980 C   0  0  0  0  0  2  0  0  0  0  0  0
  183.8620  176.7620  134.3460 C   0  0  0  0  0  2  0  0  0  0  0  0
  184.8740  178.3640  138.1780 C   0  0  2  0  0  3  0  0  0  0  0  0
  186.2900  176.7680  134.9560 N   0  0  0  0  0  0  0  0  0  0  0  0
  186.9740  177.9460  139.0230 C   0  0  1  0  0  3  0  0  0  0  0  0
  183.2170  177.0010  136.8050 C   0  0  1  0  0  3  0  0  0  0  0  0
  189.2940  177.6170  139.9600 C   0  0  0  0  0  1  0  0  0  0  0  0
  186.4870  175.4340  134.3770 C   0  0  0  0  0  2  0  0  0  0  0  0
  188.0930  174.2860  137.1670 C   0  0  0  0  0  2  0  0  0  0  0  0
  184.5190  175.9900  138.6050 O   0  0  0  0  0  1  0  0  0  0  0  0
  181.0850  175.6760  134.6390 C   0  0  0  0  0  3  0  0  0  0  0  0
  182.2110  175.1680  135.3060 C   0  0  0  0  0  0  0  0  0  0  0  0
  182.2300  173.8280  135.7090 C   0  0  0  0  0  3  0  0  0  0  0  0
  181.1590  171.7020  135.8340 F   0  0  0  0  0  0  0  0  0  0  0  0
  180.0170  173.5080  134.7770 C   0  0  0  0  0  3  0  0  0  0  0  0
  181.1350  172.9990  135.4440 C   0  0  0  0  0  0  0  0  0  0  0  0
  179.9920  174.8470  134.3750 C   0  0  0  0  0  3  0  0  0  0  0  0
  190.0160  177.0290  134.3660 C   0  0  0  0  0  1  0  0  0  0  0  0
  189.5170  176.0190  135.3810 C   0  0  0  0  0  2  0  0  0  0  0  0
  181.9830  176.7340  137.6770 C   0  0  0  0  0  2  0  0  0  0  0  0
  181.5340  178.9330  136.8640 O   0  0  0  0  0  1  0  0  0  0  0  0
  181.1290  177.9840  137.8030 C   0  0  0  0  0  2  0  0  0  0  0  0
  1  4  1  0  0  0  0
  2 20  1  0  0  0  0
  2 22  1  0  0  0  0
  3 18  1  0  0  0  0
  3 25  1  1  0  0  0
  4 34  1  6  0  0  0
  4  8  1  0  0  0  0
  4 13  1  0  0  0  0
  5 27  1  6  0  0  0
  5 21  1  0  0  0  0
  6 10  2  0  0  0  0
  7 19  1  0  0  0  0
  8 24  1  6  0  0  0
  8 13  1  0  0  0  0
  9 18  1  0  0  0  0
  9 20  1  0  0  0  0
 11 24  1  0  0  0  0
 12  1  2  0  0  0  0
 13  2  1  1  0  0  0
 14 10  1  0  0  0  0
 15  2  1  0  0  0  0
 16 11  1  0  0  0  0
 17  7  1  0  0  0  0
 17  5  1  0  0  0  0
 18 14  1  1  0  0  0
 19  1  1  0  0  0  0
 20  6  1  1  0  0  0
 21  3  1  0  0  0  0
 21 35  1  1  0  0  0
 23 19  1  0  0  0  0
 23 16  1  0  0  0  0
 26 27  1  0  0  0  0
 27 28  2  0  0  0  0
 30 31  2  0  0  0  0
 31 28  1  0  0  0  0
 31 29  1  0  0  0  0
 32 26  2  0  0  0  0
 32 30  1  0  0  0  0
 33 34  1  0  0  0  0
 35 37  1  0  0  0  0
 36 37  1  0  0  0  0
M  END
>  <MODEL>
2

>  <REMARK>
 VINA RESULT:      -4.3      2.780      7.546
  Name = 
  4 active torsions:
  status: ('A' for Active; 'I' for Inactive)
    1  A    between atoms: C_5  and  C_23
    2  A    between atoms: C_6  and  C_7
    3  A    between atoms: C_14  and  C_31
    4  A    between atoms: C_14  and  C_37
                            x       y       z     vdW  Elec       q    Type
                         _______ _______ _______ _____ _____    ______ ____

>  <TORSDO>
F 4

$$$$
=
 OpenBabel10272414503D

 37 41  0  0  1  0  0  0  0  0999 V2000
  183.0930  176.7240  135.5590 C   0  0  0  0  0  0  0  0  0  0  0  0
  180.9940  174.6640  137.0340 C   0  0  0  0  0  0  0  0  0  0  0  0
  185.1020  173.9430  136.4430 C   0  0  2  0  0  3  0  0  0  0  0  0
  182.2600  177.0040  136.7750 C   0  0  2  0  0  0  0  0  0  0  0  0
  187.0820  175.3700  135.9740 C   0  0  1  0  0  3  0  0  0  0  0  0
  181.7290  172.1930  136.9320 C   0  0  0  0  0  3  0  0  0  0  0  0
  185.3160  176.4760  134.4550 C   0  0  0  0  0  2  0  0  0  0  0  0
  182.8980  176.1980  137.9150 C   0  0  2  0  0  3  0  0  0  0  0  0
  182.8200  173.8250  135.6140 O   0  0  0  0  0  0  0  0  0  0  0  0
  182.6020  171.2610  136.5490 C   0  0  0  0  0  3  0  0  0  0  0  0
  184.3690  178.0530  138.8350 C   0  0  0  0  0  2  0  0  0  0  0  0
  182.5300  176.3310  134.5020 O   0  0  0  0  0  0  0  0  0  0  0  0
  181.4190  176.0340  137.6290 C   0  0  2  0  0  3  0  0  0  0  0  0
  183.9680  171.6500  136.0450 C   0  0  0  0  0  2  0  0  0  0  0  0
  180.2260  174.8740  135.7360 C   0  0  0  0  0  1  0  0  0  0  0  0
  185.4000  177.5490  137.8220 C   0  0  0  0  0  2  0  0  0  0  0  0
  186.8010  176.3150  134.7990 C   0  0  0  0  0  2  0  0  0  0  0  0
  184.0630  173.1470  135.6560 C   0  0  2  0  0  3  0  0  0  0  0  0
  184.5150  176.9820  135.5710 N   0  0  0  0  0  0  0  0  0  0  0  0
  182.1510  173.6370  136.8410 C   0  0  1  0  0  3  0  0  0  0  0  0
  186.4700  173.9720  135.7610 C   0  0  1  0  0  3  0  0  0  0  0  0
  179.9870  174.1250  138.0430 C   0  0  0  0  0  1  0  0  0  0  0  0
  185.0620  178.0500  136.4170 C   0  0  0  0  0  2  0  0  0  0  0  0
  183.2400  177.0530  139.1310 C   0  0  0  0  0  2  0  0  0  0  0  0
  185.1730  173.5600  137.7870 O   0  0  0  0  0  1  0  0  0  0  0  0
  188.9870  175.6680  137.6170 C   0  0  0  0  0  3  0  0  0  0  0  0
  188.5440  175.3900  136.3140 C   0  0  0  0  0  0  0  0  0  0  0  0
  189.4810  175.1430  135.3040 C   0  0  0  0  0  3  0  0  0  0  0  0
  191.7520  174.9250  134.6120 F   0  0  0  0  0  0  0  0  0  0  0  0
  191.2850  175.4420  136.8920 C   0  0  0  0  0  3  0  0  0  0  0  0
  190.8490  175.1670  135.5930 C   0  0  0  0  0  0  0  0  0  0  0  0
  190.3540  175.6920  137.9040 C   0  0  0  0  0  3  0  0  0  0  0  0
  181.1040  179.0260  135.8640 C   0  0  0  0  0  1  0  0  0  0  0  0
  181.9020  178.4700  137.0270 C   0  0  0  0  0  2  0  0  0  0  0  0
  187.3560  172.8010  136.2040 C   0  0  0  0  0  2  0  0  0  0  0  0
  187.5040  170.5330  135.4780 O   0  0  0  0  0  1  0  0  0  0  0  0
  187.6200  171.8550  135.0460 C   0  0  0  0  0  2  0  0  0  0  0  0
  1 19  1  0  0  0  0
  1  4  1  0  0  0  0
  2 22  1  0  0  0  0
  3 25  1  1  0  0  0
  4 34  1  1  0  0  0
  4 13  1  0  0  0  0
  4  8  1  0  0  0  0
  5 27  1  6  0  0  0
  7 17  1  0  0  0  0
  7 19  1  0  0  0  0
  8 24  1  1  0  0  0
  9 18  1  0  0  0  0
  9 20  1  0  0  0  0
 10  6  2  0  0  0  0
 11 24  1  0  0  0  0
 12  1  2  0  0  0  0
 13  2  1  6  0  0  0
 13  8  1  0  0  0  0
 14 10  1  0  0  0  0
 15  2  1  0  0  0  0
 16 11  1  0  0  0  0
 17  5  1  0  0  0  0
 18 14  1  1  0  0  0
 18  3  1  0  0  0  0
 19 23  1  0  0  0  0
 20  6  1  6  0  0  0
 20  2  1  0  0  0  0
 21  5  1  0  0  0  0
 21 35  1  1  0  0  0
 21  3  1  0  0  0  0
 23 16  1  0  0  0  0
 26 32  1  0  0  0  0
 27 26  2  0  0  0  0
 28 31  2  0  0  0  0
 28 27  1  0  0  0  0
 29 31  1  0  0  0  0
 30 32  2  0  0  0  0
 31 30  1  0  0  0  0
 33 34  1  0  0  0  0
 37 36  1  0  0  0  0
 37 35  1  0  0  0  0
M  END
>  <MODEL>
3

>  <REMARK>
 VINA RESULT:      -4.2      1.796      2.124
  Name = 
  4 active torsions:
  status: ('A' for Active; 'I' for Inactive)
    1  A    between atoms: C_5  and  C_23
    2  A    between atoms: C_6  and  C_7
    3  A    between atoms: C_14  and  C_31
    4  A    between atoms: C_14  and  C_37
                            x       y       z     vdW  Elec       q    Type
                         _______ _______ _______ _____ _____    ______ ____

>  <TORSDO>
F 4

$$$$
=
 OpenBabel10272414503D

 37 41  0  0  1  0  0  0  0  0999 V2000
  193.3870  175.1360  135.1520 C   0  0  0  0  0  0  0  0  0  0  0  0
  195.3390  174.6620  137.7570 C   0  0  0  0  0  0  0  0  0  0  0  0
  191.3430  175.9830  137.9180 C   0  0  2  0  0  3  0  0  0  0  0  0
  194.0670  173.8590  135.5480 C   0  0  2  0  0  0  0  0  0  0  0  0
  189.4040  175.8940  136.3650 C   0  0  1  0  0  3  0  0  0  0  0  0
  194.6690  176.0610  139.8180 C   0  0  0  0  0  3  0  0  0  0  0  0
  191.3120  176.4540  134.7260 C   0  0  0  0  0  2  0  0  0  0  0  0
  193.3170  173.3510  136.7860 C   0  0  2  0  0  3  0  0  0  0  0  0
  193.7070  176.5030  137.7030 O   0  0  0  0  0  0  0  0  0  0  0  0
  193.8630  176.9520  140.4000 C   0  0  0  0  0  3  0  0  0  0  0  0
  191.7140  171.7970  135.5740 C   0  0  0  0  0  2  0  0  0  0  0  0
  194.0760  176.1790  134.9900 O   0  0  0  0  0  0  0  0  0  0  0  0
  194.8220  173.5150  136.8470 C   0  0  2  0  0  3  0  0  0  0  0  0
  192.5590  177.3420  139.7550 C   0  0  0  0  0  2  0  0  0  0  0  0
  196.2490  175.5890  136.9620 C   0  0  0  0  0  1  0  0  0  0  0  0
  190.8170  173.0330  135.4640 C   0  0  0  0  0  2  0  0  0  0  0  0
  189.8010  176.4030  134.9750 C   0  0  0  0  0  2  0  0  0  0  0  0
  192.4810  176.9420  138.2600 C   0  0  2  0  0  3  0  0  0  0  0  0
  191.9680  175.1540  134.8740 N   0  0  0  0  0  0  0  0  0  0  0  0
  194.2320  175.4670  138.5040 C   0  0  1  0  0  3  0  0  0  0  0  0
  190.0630  176.7060  137.4970 C   0  0  1  0  0  3  0  0  0  0  0  0
  196.2320  173.9520  138.7670 C   0  0  0  0  0  1  0  0  0  0  0  0
  191.3070  173.9550  134.3460 C   0  0  0  0  0  2  0  0  0  0  0  0
  192.8190  171.9170  136.6350 C   0  0  0  0  0  2  0  0  0  0  0  0
  191.1230  175.0260  138.9150 O   0  0  0  0  0  1  0  0  0  0  0  0
  187.0530  176.7590  135.9870 C   0  0  0  0  0  3  0  0  0  0  0  0
  187.9110  175.7530  136.4570 C   0  0  0  0  0  0  0  0  0  0  0  0
  187.3720  174.6000  137.0390 C   0  0  0  0  0  3  0  0  0  0  0  0
  185.4670  173.3320  137.7090 F   0  0  0  0  0  0  0  0  0  0  0  0
  185.1340  175.4540  136.6740 C   0  0  0  0  0  3  0  0  0  0  0  0
  185.9850  174.4500  137.1460 C   0  0  0  0  0  0  0  0  0  0  0  0
  185.6680  176.6090  136.0950 C   0  0  0  0  0  3  0  0  0  0  0  0
  195.8450  172.5420  134.3800 C   0  0  0  0  0  1  0  0  0  0  0  0
  194.3650  172.8730  134.4170 C   0  0  0  0  0  2  0  0  0  0  0  0
  189.1540  177.0060  138.6950 C   0  0  0  0  0  2  0  0  0  0  0  0
  189.1070  179.2040  137.7680 O   0  0  0  0  0  1  0  0  0  0  0  0
  189.0970  178.4980  138.9710 C   0  0  0  0  0  2  0  0  0  0  0  0
  1  4  1  0  0  0  0
  2 20  1  0  0  0  0
  2 22  1  0  0  0  0
  3 18  1  0  0  0  0
  3 25  1  1  0  0  0
  4 34  1  6  0  0  0
  4  8  1  0  0  0  0
  4 13  1  0  0  0  0
  5 27  1  1  0  0  0
  5 21  1  0  0  0  0
  6 10  2  0  0  0  0
  7 19  1  0  0  0  0
  7 17  1  0  0  0  0
  8 24  1  6  0  0  0
  8 13  1  0  0  0  0
  9 18  1  0  0  0  0
  9 20  1  0  0  0  0
 11 24  1  0  0  0  0
 12  1  2  0  0  0  0
 13  2  1  1  0  0  0
 14 10  1  0  0  0  0
 15  2  1  0  0  0  0
 16 11  1  0  0  0  0
 17  5  1  0  0  0  0
 18 14  1  1  0  0  0
 19  1  1  0  0  0  0
 20  6  1  1  0  0  0
 21  3  1  0  0  0  0
 21 35  1  1  0  0  0
 23 19  1  0  0  0  0
 23 16  1  0  0  0  0
 26 32  2  0  0  0  0
 26 27  1  0  0  0  0
 27 28  2  0  0  0  0
 28 31  1  0  0  0  0
 30 31  2  0  0  0  0
 31 29  1  0  0  0  0
 32 30  1  0  0  0  0
 33 34  1  0  0  0  0
 35 37  1  0  0  0  0
 36 37  1  0  0  0  0
M  END
>  <MODEL>
4

>  <REMARK>
 VINA RESULT:      -2.8      4.540     10.023
  Name = 
  4 active torsions:
  status: ('A' for Active; 'I' for Inactive)
    1  A    between atoms: C_5  and  C_23
    2  A    between atoms: C_6  and  C_7
    3  A    between atoms: C_14  and  C_31
    4  A    between atoms: C_14  and  C_37
                            x       y       z     vdW  Elec       q    Type
                         _______ _______ _______ _____ _____    ______ ____

>  <TORSDO>
F 4

$$$$
=
 OpenBabel10272414503D

 37 41  0  0  1  0  0  0  0  0999 V2000
  189.2200  175.8610  134.9200 C   0  0  0  0  0  0  0  0  0  0  0  0
  191.3170  175.6560  137.4470 C   0  0  0  0  0  0  0  0  0  0  0  0
  187.3180  176.9560  137.7010 C   0  0  2  0  0  3  0  0  0  0  0  0
  189.9370  174.6330  135.3990 C   0  0  2  0  0  0  0  0  0  0  0  0
  185.2990  176.7030  136.2720 C   0  0  1  0  0  3  0  0  0  0  0  0
  190.7410  177.2430  139.3980 C   0  0  0  0  0  3  0  0  0  0  0  0
  187.1090  177.1160  134.4840 C   0  0  0  0  0  2  0  0  0  0  0  0
  189.2610  174.2420  136.7200 C   0  0  2  0  0  3  0  0  0  0  0  0
  189.6600  177.4710  137.3060 O   0  0  0  0  0  0  0  0  0  0  0  0
  189.9560  178.1800  139.9350 C   0  0  0  0  0  3  0  0  0  0  0  0
  187.6150  172.5660  135.7520 C   0  0  0  0  0  2  0  0  0  0  0  0
  189.8860  176.8880  134.6210 O   0  0  0  0  0  0  0  0  0  0  0  0
  190.7660  174.4220  136.6820 C   0  0  2  0  0  3  0  0  0  0  0  0
  188.6140  178.4960  139.3290 C   0  0  0  0  0  2  0  0  0  0  0  0
  192.1700  176.5080  136.5180 C   0  0  0  0  0  1  0  0  0  0  0  0
  186.6990  173.7790  135.5740 C   0  0  0  0  0  2  0  0  0  0  0  0
  185.6140  177.0780  134.8190 C   0  0  0  0  0  2  0  0  0  0  0  0
  188.4610  177.9520  137.8860 C   0  0  2  0  0  3  0  0  0  0  0  0
  187.7890  175.8410  134.7210 N   0  0  0  0  0  0  0  0  0  0  0  0
  190.2410  176.5210  138.1730 C   0  0  1  0  0  3  0  0  0  0  0  0
  186.0080  177.6250  137.2830 C   0  0  1  0  0  3  0  0  0  0  0  0
  192.2720  175.0530  138.4700 C   0  0  0  0  0  1  0  0  0  0  0  0
  187.1150  174.5920  134.3470 C   0  0  0  0  0  2  0  0  0  0  0  0
  188.7750  172.7960  136.7340 C   0  0  0  0  0  2  0  0  0  0  0  0
  187.1650  176.0980  138.7950 O   0  0  0  0  0  1  0  0  0  0  0  0
  182.9120  177.3990  135.7880 C   0  0  0  0  0  3  0  0  0  0  0  0
  183.8160  176.5600  136.4590 C   0  0  0  0  0  0  0  0  0  0  0  0
  183.3320  175.5800  137.3330 C   0  0  0  0  0  3  0  0  0  0  0  0
  181.4910  174.4840  138.3790 F   0  0  0  0  0  0  0  0  0  0  0  0
  181.0590  176.2710  136.8610 C   0  0  0  0  0  3  0  0  0  0  0  0
  181.9550  175.4350  137.5330 C   0  0  0  0  0  0  0  0  0  0  0  0
  181.5370  177.2530  135.9890 C   0  0  0  0  0  3  0  0  0  0  0  0
  191.6010  173.0120  134.4710 C   0  0  0  0  0  1  0  0  0  0  0  0
  190.1860  173.5450  134.3530 C   0  0  0  0  0  2  0  0  0  0  0  0
  185.1610  178.0330  138.4950 C   0  0  0  0  0  2  0  0  0  0  0  0
  184.3860  179.9500  139.6870 O   0  0  0  0  0  1  0  0  0  0  0  0
  184.7970  179.5050  138.4290 C   0  0  0  0  0  2  0  0  0  0  0  0
  1  4  1  0  0  0  0
  2 20  1  0  0  0  0
  2 22  1  0  0  0  0
  3 18  1  0  0  0  0
  3 25  1  1  0  0  0
  4 34  1  6  0  0  0
  4 13  1  0  0  0  0
  4  8  1  0  0  0  0
  5 27  1  6  0  0  0
  5 21  1  0  0  0  0
  6 10  2  0  0  0  0
  7 19  1  0  0  0  0
  7 17  1  0  0  0  0
  8 24  1  6  0  0  0
  9 18  1  0  0  0  0
  9 20  1  0  0  0  0
 11 24  1  0  0  0  0
 12  1  2  0  0  0  0
 13  8  1  0  0  0  0
 13  2  1  1  0  0  0
 14 10  1  0  0  0  0
 15  2  1  0  0  0  0
 16 11  1  0  0  0  0
 17  5  1  0  0  0  0
 18 14  1  1  0  0  0
 19  1  1  0  0  0  0
 20  6  1  1  0  0  0
 21  3  1  0  0  0  0
 21 35  1  1  0  0  0
 23 19  1  0  0  0  0
 23 16  1  0  0  0  0
 26 32  2  0  0  0  0
 26 27  1  0  0  0  0
 27 28  2  0  0  0  0
 28 31  1  0  0  0  0
 30 31  2  0  0  0  0
 31 29  1  0  0  0  0
 32 30  1  0  0  0  0
 34 33  1  0  0  0  0
 37 35  1  0  0  0  0
 37 36  1  0  0  0  0
M  END
>  <MODEL>
5

>  <REMARK>
 VINA RESULT:      -2.6      2.995      7.900
  Name = 
  4 active torsions:
  status: ('A' for Active; 'I' for Inactive)
    1  A    between atoms: C_5  and  C_23
    2  A    between atoms: C_6  and  C_7
    3  A    between atoms: C_14  and  C_31
    4  A    between atoms: C_14  and  C_37
                            x       y       z     vdW  Elec       q    Type
                         _______ _______ _______ _____ _____    ______ ____

>  <TORSDO>
F 4

$$$$
=
 OpenBabel10272414503D

 37 41  0  0  1  0  0  0  0  0999 V2000
  189.1860  177.4640  136.2480 C   0  0  0  0  0  0  0  0  0  0  0  0
  191.4400  175.2810  135.2590 C   0  0  0  0  0  0  0  0  0  0  0  0
  190.7800  176.4610  139.2480 C   0  0  2  0  0  3  0  0  0  0  0  0
  188.9380  176.1900  135.4950 C   0  0  2  0  0  0  0  0  0  0  0  0
  188.9000  177.5340  140.4700 C   0  0  1  0  0  3  0  0  0  0  0  0
  193.4390  175.0570  136.8740 C   0  0  0  0  0  3  0  0  0  0  0  0
  188.8860  178.8860  138.2750 C   0  0  0  0  0  2  0  0  0  0  0  0
  189.1700  175.0560  136.5020 C   0  0  2  0  0  3  0  0  0  0  0  0
  191.8910  176.8290  137.1190 O   0  0  0  0  0  0  0  0  0  0  0  0
  194.0650  175.4140  137.9970 C   0  0  0  0  0  3  0  0  0  0  0  0
  186.7520  174.7730  137.2280 C   0  0  0  0  0  2  0  0  0  0  0  0
  189.9920  178.3120  135.7790 O   0  0  0  0  0  0  0  0  0  0  0  0
  189.9090  175.0350  135.1800 C   0  0  2  0  0  3  0  0  0  0  0  0
  193.3500  176.2190  139.0510 C   0  0  0  0  0  2  0  0  0  0  0  0
  191.8310  176.4350  134.3460 C   0  0  0  0  0  1  0  0  0  0  0  0
  187.0840  175.8450  138.2690 C   0  0  0  0  0  2  0  0  0  0  0  0
  188.4250  178.7920  139.7330 C   0  0  0  0  0  2  0  0  0  0  0  0
  192.0550  176.8870  138.5240 C   0  0  2  0  0  3  0  0  0  0  0  0
  188.4460  177.7560  137.4550 N   0  0  0  0  0  0  0  0  0  0  0  0
  192.0060  175.4870  136.6970 C   0  0  1  0  0  3  0  0  0  0  0  0
  190.4310  177.3720  140.4250 C   0  0  1  0  0  3  0  0  0  0  0  0
  192.0440  174.0250  134.6410 C   0  0  0  0  0  1  0  0  0  0  0  0
  187.0850  177.2340  137.6280 C   0  0  0  0  0  2  0  0  0  0  0  0
  187.9860  174.1000  136.6060 C   0  0  0  0  0  2  0  0  0  0  0  0
  190.7810  175.1050  139.5930 O   0  0  0  0  0  1  0  0  0  0  0  0
  188.8400  176.6810  142.8540 C   0  0  0  0  0  3  0  0  0  0  0  0
  188.2830  177.4730  141.8380 C   0  0  0  0  0  0  0  0  0  0  0  0
  187.1210  178.2090  142.0930 C   0  0  0  0  0  3  0  0  0  0  0  0
  185.3960  178.8750  143.5990 F   0  0  0  0  0  0  0  0  0  0  0  0
  187.0800  177.3710  144.3660 C   0  0  0  0  0  3  0  0  0  0  0  0
  186.5210  178.1590  143.3560 C   0  0  0  0  0  0  0  0  0  0  0  0
  188.2400  176.6320  144.1150 C   0  0  0  0  0  3  0  0  0  0  0  0
  186.9270  177.4650  134.7290 C   0  0  0  0  0  1  0  0  0  0  0  0
  187.6790  176.1520  134.6270 C   0  0  0  0  0  2  0  0  0  0  0  0
  191.0720  176.8890  141.7330 C   0  0  0  0  0  2  0  0  0  0  0  0
  191.0090  178.8670  143.0670 O   0  0  0  0  0  1  0  0  0  0  0  0
  191.8690  178.0020  142.3890 C   0  0  0  0  0  2  0  0  0  0  0  0
  1 19  1  0  0  0  0
  2 20  1  0  0  0  0
  3 25  1  1  0  0  0
  3 21  1  0  0  0  0
  4 34  1  6  0  0  0
  4  1  1  0  0  0  0
  4  8  1  0  0  0  0
  5 27  1  1  0  0  0
  6 10  2  0  0  0  0
  7 17  1  0  0  0  0
  8 24  1  6  0  0  0
  9 18  1  0  0  0  0
 10 14  1  0  0  0  0
 11 16  1  0  0  0  0
 12  1  2  0  0  0  0
 13  2  1  1  0  0  0
 13  4  1  0  0  0  0
 13  8  1  0  0  0  0
 15  2  1  0  0  0  0
 17  5  1  0  0  0  0
 18 14  1  1  0  0  0
 18  3  1  0  0  0  0
 19 23  1  0  0  0  0
 19  7  1  0  0  0  0
 20  6  1  6  0  0  0
 20  9  1  0  0  0  0
 21  5  1  0  0  0  0
 21 35  1  1  0  0  0
 22  2  1  0  0  0  0
 23 16  1  0  0  0  0
 24 11  1  0  0  0  0
 26 32  1  0  0  0  0
 27 28  1  0  0  0  0
 27 26  2  0  0  0  0
 28 31  2  0  0  0  0
 31 29  1  0  0  0  0
 31 30  1  0  0  0  0
 32 30  2  0  0  0  0
 34 33  1  0  0  0  0
 35 37  1  0  0  0  0
 37 36  1  0  0  0  0
M  END
>  <MODEL>
6

>  <REMARK>
 VINA RESULT:      -2.2      4.651      7.860
  Name = 
  4 active torsions:
  status: ('A' for Active; 'I' for Inactive)
    1  A    between atoms: C_5  and  C_23
    2  A    between atoms: C_6  and  C_7
    3  A    between atoms: C_14  and  C_31
    4  A    between atoms: C_14  and  C_37
                            x       y       z     vdW  Elec       q    Type
                         _______ _______ _______ _____ _____    ______ ____

>  <TORSDO>
F 4

$$$$
