=
 OpenBabel10272401123D

 27 30  0  0  1  0  0  0  0  0999 V2000
  187.9290  178.7640  141.5530 C   0  0  0  0  0  2  0  0  0  0  0  0
  188.5030  177.7900  143.8310 C   0  0  2  0  0  3  0  0  0  0  0  0
  189.9650  176.5520  142.2900 C   0  0  0  0  0  2  0  0  0  0  0  0
  190.3540  176.8760  138.5470 C   0  0  0  0  0  3  0  0  0  0  0  0
  189.3860  177.8220  138.2100 C   0  0  0  0  0  0  0  0  0  0  0  0
  187.4500  177.8760  142.6930 C   0  0  1  0  0  3  0  0  0  0  0  0
  188.7560  178.0270  140.5460 C   0  0  0  0  0  0  0  0  0  0  0  0
  189.8830  177.5490  143.3730 N   0  0  1  0  0  0  0  0  0  0  0  0
  190.5300  176.5060  139.8810 C   0  0  0  0  0  3  0  0  0  0  0  0
  189.1670  178.2920  136.5390 Cl  0  0  0  0  0  0  0  0  0  0  0  0
  188.5980  178.3980  139.2070 C   0  0  0  0  0  3  0  0  0  0  0  0
  189.7540  177.0820  140.8920 C   0  0  0  0  0  0  0  0  0  0  0  0
  184.7740  179.5570  144.8200 C   0  0  0  0  0  3  0  0  0  0  0  0
  186.1280  178.3840  143.1800 C   0  0  0  0  0  0  0  0  0  0  0  0
  184.9870  178.1760  142.3960 C   0  0  0  0  0  3  0  0  0  0  0  0
  183.7440  178.6490  142.8250 C   0  0  0  0  0  3  0  0  0  0  0  0
  183.6370  179.3380  144.0370 C   0  0  0  0  0  3  0  0  0  0  0  0
  186.0180  179.0830  144.3930 C   0  0  0  0  0  3  0  0  0  0  0  0
  190.8180  179.5770  144.3490 C   0  0  0  0  0  2  0  0  0  0  0  0
  191.9480  178.7990  143.7150 C   0  0  0  0  0  2  0  0  0  0  0  0
  190.5740  178.8020  143.0670 C   0  0  0  0  0  3  0  0  0  0  0  0
  188.1620  176.7840  144.9440 C   0  0  2  0  0  3  0  0  0  0  0  0
  186.6940  176.3720  144.9700 C   0  0  0  0  0  1  0  0  0  0  0  0
  189.8540  176.8850  146.6410 O   0  0  0  0  0  0  0  0  0  0  0  0
  188.6840  177.1950  146.2940 C   0  0  0  0  0  0  0  0  0  0  0  0
  188.1900  178.0020  148.5750 C   0  0  0  0  0  1  0  0  0  0  0  0
  187.8820  177.9040  147.1930 O   0  0  0  0  0  0  0  0  0  0  0  0
  1  6  1  0  0  0  0
  2 22  1  1  0  0  0
  3  8  1  0  0  0  0
  4  9  1  0  0  0  0
  5  4  2  0  0  0  0
  5 11  1  0  0  0  0
  6 14  1  1  0  0  0
  6  2  1  0  0  0  0
  7 12  1  0  0  0  0
  7  1  1  0  0  0  0
  8 21  1  6  0  0  0
  8  2  1  0  0  0  0
  9 12  2  0  0  0  0
 10  5  1  0  0  0  0
 11  7  2  0  0  0  0
 12  3  1  0  0  0  0
 14 18  2  0  0  0  0
 15 16  2  0  0  0  0
 15 14  1  0  0  0  0
 16 17  1  0  0  0  0
 17 13  2  0  0  0  0
 18 13  1  0  0  0  0
 20 19  1  0  0  0  0
 21 20  1  0  0  0  0
 21 19  1  0  0  0  0
 22 23  1  1  0  0  0
 22 25  1  0  0  0  0
 25 24  2  0  0  0  0
 25 27  1  0  0  0  0
 27 26  1  0  0  0  0
M  END
>  <MODEL>
1

>  <REMARK>
 VINA RESULT:      -7.3      0.000      0.000
  Name = 
  5 active torsions:
  status: ('A' for Active; 'I' for Inactive)
    1  A    between atoms: C_2  and  C_6
    2  A    between atoms: C_6  and  C_17
    3  A    between atoms: C_9  and  C_15
    4  A    between atoms: C_14  and  N_19
    5  A    between atoms: O_16  and  C_17
                            x       y       z     vdW  Elec       q    Type
                         _______ _______ _______ _____ _____    ______ ____

>  <TORSDO>
F 5

$$$$
=
 OpenBabel10272401123D

 27 30  0  0  1  0  0  0  0  0999 V2000
  188.3330  178.4500  142.7300 C   0  0  0  0  0  2  0  0  0  0  0  0
  189.7500  177.5520  144.6410 C   0  0  2  0  0  3  0  0  0  0  0  0
  190.7480  176.5150  142.6470 C   0  0  0  0  0  2  0  0  0  0  0  0
  189.8170  176.8950  139.0070 C   0  0  0  0  0  3  0  0  0  0  0  0
  188.6870  177.7110  139.0530 C   0  0  0  0  0  0  0  0  0  0  0  0
  188.3740  177.5050  143.9220 C   0  0  1  0  0  3  0  0  0  0  0  0
  188.8570  177.8270  141.4730 C   0  0  0  0  0  0  0  0  0  0  0  0
  190.9150  177.4900  143.7400 N   0  0  1  0  0  0  0  0  0  0  0  0
  190.4740  176.5470  140.1880 C   0  0  0  0  0  3  0  0  0  0  0  0
  187.8650  178.1540  137.5730 Cl  0  0  0  0  0  0  0  0  0  0  0  0
  188.2150  178.1790  140.2810 C   0  0  0  0  0  3  0  0  0  0  0  0
  190.0190  177.0170  141.4250 C   0  0  0  0  0  0  0  0  0  0  0  0
  186.4000  178.5670  147.0020 C   0  0  0  0  0  3  0  0  0  0  0  0
  187.2410  177.8390  144.8440 C   0  0  0  0  0  0  0  0  0  0  0  0
  185.9280  177.7600  144.3650 C   0  0  0  0  0  3  0  0  0  0  0  0
  184.8550  178.0760  145.2030 C   0  0  0  0  0  3  0  0  0  0  0  0
  185.0910  178.4780  146.5220 C   0  0  0  0  0  3  0  0  0  0  0  0
  187.4740  178.2500  146.1660 C   0  0  0  0  0  3  0  0  0  0  0  0
  190.9950  179.8480  144.3530 C   0  0  0  0  0  2  0  0  0  0  0  0
  192.4150  179.3640  144.1670 C   0  0  0  0  0  2  0  0  0  0  0  0
  191.3090  178.8220  143.2790 C   0  0  0  0  0  3  0  0  0  0  0  0
  189.9250  176.5080  145.7570 C   0  0  2  0  0  3  0  0  0  0  0  0
  189.1780  176.8510  147.0410 C   0  0  0  0  0  1  0  0  0  0  0  0
  191.9290  175.2950  145.2390 O   0  0  0  0  0  0  0  0  0  0  0  0
  191.3620  176.1290  145.9940 C   0  0  0  0  0  0  0  0  0  0  0  0
  192.6200  175.8700  148.1020 C   0  0  0  0  0  1  0  0  0  0  0  0
  192.0860  176.6700  147.0590 O   0  0  0  0  0  0  0  0  0  0  0  0
  1  6  1  0  0  0  0
  2 22  1  1  0  0  0
  3  8  1  0  0  0  0
  4  5  2  0  0  0  0
  4  9  1  0  0  0  0
  5 11  1  0  0  0  0
  6  2  1  0  0  0  0
  6 14  1  1  0  0  0
  7  1  1  0  0  0  0
  8 21  1  6  0  0  0
  8  2  1  0  0  0  0
  9 12  2  0  0  0  0
 10  5  1  0  0  0  0
 11  7  2  0  0  0  0
 12  7  1  0  0  0  0
 12  3  1  0  0  0  0
 14 18  1  0  0  0  0
 15 14  2  0  0  0  0
 15 16  1  0  0  0  0
 16 17  2  0  0  0  0
 17 13  1  0  0  0  0
 18 13  2  0  0  0  0
 20 19  1  0  0  0  0
 21 20  1  0  0  0  0
 21 19  1  0  0  0  0
 22 25  1  0  0  0  0
 22 23  1  1  0  0  0
 24 25  2  0  0  0  0
 25 27  1  0  0  0  0
 27 26  1  0  0  0  0
M  END
>  <MODEL>
2

>  <REMARK>
 VINA RESULT:      -6.3      1.693      2.212
  Name = 
  5 active torsions:
  status: ('A' for Active; 'I' for Inactive)
    1  A    between atoms: C_2  and  C_6
    2  A    between atoms: C_6  and  C_17
    3  A    between atoms: C_9  and  C_15
    4  A    between atoms: C_14  and  N_19
    5  A    between atoms: O_16  and  C_17
                            x       y       z     vdW  Elec       q    Type
                         _______ _______ _______ _____ _____    ______ ____

>  <TORSDO>
F 5

$$$$
=
 OpenBabel10272401123D

 27 30  0  0  1  0  0  0  0  0999 V2000
  191.8690  177.1210  139.0660 C   0  0  0  0  0  2  0  0  0  0  0  0
  190.3810  176.1940  137.2250 C   0  0  2  0  0  3  0  0  0  0  0  0
  188.8850  176.3040  139.1730 C   0  0  0  0  0  2  0  0  0  0  0  0
  189.5740  177.5270  142.6790 C   0  0  0  0  0  3  0  0  0  0  0  0
  190.9360  177.8280  142.6460 C   0  0  0  0  0  0  0  0  0  0  0  0
  191.5570  175.9110  138.1990 C   0  0  1  0  0  3  0  0  0  0  0  0
  191.0340  177.1810  140.3080 C   0  0  0  0  0  0  0  0  0  0  0  0
  189.2160  176.8500  137.8440 N   0  0  1  0  0  0  0  0  0  0  0  0
  188.9370  177.0590  141.5290 C   0  0  0  0  0  3  0  0  0  0  0  0
  191.7360  178.4220  144.0850 Cl  0  0  0  0  0  0  0  0  0  0  0  0
  191.6580  177.6620  141.4640 C   0  0  0  0  0  3  0  0  0  0  0  0
  189.6470  176.8960  140.3340 C   0  0  0  0  0  0  0  0  0  0  0  0
  194.5680  175.9220  135.8650 C   0  0  0  0  0  3  0  0  0  0  0  0
  192.8030  175.4960  137.4780 C   0  0  0  0  0  0  0  0  0  0  0  0
  193.3950  174.2680  137.7920 C   0  0  0  0  0  3  0  0  0  0  0  0
  194.5640  173.8640  137.1410 C   0  0  0  0  0  3  0  0  0  0  0  0
  195.1490  174.6890  136.1760 C   0  0  0  0  0  3  0  0  0  0  0  0
  193.3980  176.3270  136.5150 C   0  0  0  0  0  3  0  0  0  0  0  0
  189.3510  178.8050  136.3940 C   0  0  0  0  0  2  0  0  0  0  0  0
  188.0980  178.9290  137.2310 C   0  0  0  0  0  2  0  0  0  0  0  0
  189.3490  178.3080  137.8280 C   0  0  0  0  0  3  0  0  0  0  0  0
  189.9000  174.9690  136.4280 C   0  0  2  0  0  3  0  0  0  0  0  0
  190.0260  173.6530  137.1890 C   0  0  0  0  0  1  0  0  0  0  0  0
  190.5930  175.9530  134.3530 O   0  0  0  0  0  0  0  0  0  0  0  0
  190.4740  174.9030  135.0390 C   0  0  0  0  0  0  0  0  0  0  0  0
  192.2250  173.3050  134.3470 C   0  0  0  0  0  1  0  0  0  0  0  0
  190.8640  173.6860  134.4740 O   0  0  0  0  0  0  0  0  0  0  0  0
  1  7  1  0  0  0  0
  2 22  1  1  0  0  0
  2  8  1  0  0  0  0
  2  6  1  0  0  0  0
  3 12  1  0  0  0  0
  5  4  1  0  0  0  0
  5 10  1  0  0  0  0
  6 14  1  6  0  0  0
  6  1  1  0  0  0  0
  7 12  2  0  0  0  0
  7 11  1  0  0  0  0
  8 21  1  1  0  0  0
  8  3  1  0  0  0  0
  9  4  2  0  0  0  0
 11  5  2  0  0  0  0
 12  9  1  0  0  0  0
 13 17  2  0  0  0  0
 13 18  1  0  0  0  0
 14 15  1  0  0  0  0
 16 15  2  0  0  0  0
 17 16  1  0  0  0  0
 18 14  2  0  0  0  0
 19 20  1  0  0  0  0
 19 21  1  0  0  0  0
 20 21  1  0  0  0  0
 22 23  1  1  0  0  0
 24 25  2  0  0  0  0
 25 22  1  0  0  0  0
 26 27  1  0  0  0  0
 27 25  1  0  0  0  0
M  END
>  <MODEL>
3

>  <REMARK>
 VINA RESULT:      -5.9      5.011      9.045
  Name = 
  5 active torsions:
  status: ('A' for Active; 'I' for Inactive)
    1  A    between atoms: C_2  and  C_6
    2  A    between atoms: C_6  and  C_17
    3  A    between atoms: C_9  and  C_15
    4  A    between atoms: C_14  and  N_19
    5  A    between atoms: O_16  and  C_17
                            x       y       z     vdW  Elec       q    Type
                         _______ _______ _______ _____ _____    ______ ____

>  <TORSDO>
F 5

$$$$
=
 OpenBabel10272401123D

 27 30  0  0  1  0  0  0  0  0999 V2000
  191.8500  177.0490  139.0450 C   0  0  0  0  0  2  0  0  0  0  0  0
  190.3260  176.1040  137.2420 C   0  0  2  0  0  3  0  0  0  0  0  0
  188.8510  176.2960  139.2000 C   0  0  0  0  0  2  0  0  0  0  0  0
  189.5980  177.5970  142.6660 C   0  0  0  0  0  3  0  0  0  0  0  0
  190.9650  177.8700  142.6130 C   0  0  0  0  0  0  0  0  0  0  0  0
  191.5050  175.8230  138.2130 C   0  0  1  0  0  3  0  0  0  0  0  0
  191.0280  177.1580  140.2920 C   0  0  0  0  0  0  0  0  0  0  0  0
  189.1800  176.8000  137.8540 N   0  0  1  0  0  0  0  0  0  0  0  0
  188.9410  177.1120  141.5340 C   0  0  0  0  0  3  0  0  0  0  0  0
  191.7900  178.4850  144.0280 Cl  0  0  0  0  0  0  0  0  0  0  0  0
  191.6730  177.6570  141.4290 C   0  0  0  0  0  3  0  0  0  0  0  0
  189.6350  176.9030  140.3380 C   0  0  0  0  0  0  0  0  0  0  0  0
  194.3410  173.6360  136.9130 C   0  0  0  0  0  3  0  0  0  0  0  0
  192.7360  175.3640  137.4930 C   0  0  0  0  0  0  0  0  0  0  0  0
  193.4240  176.2690  136.6760 C   0  0  0  0  0  3  0  0  0  0  0  0
  194.5700  175.8620  135.9860 C   0  0  0  0  0  3  0  0  0  0  0  0
  195.0290  174.5470  136.1060 C   0  0  0  0  0  3  0  0  0  0  0  0
  193.1960  174.0420  137.6040 C   0  0  0  0  0  3  0  0  0  0  0  0
  189.3750  178.7080  136.3500 C   0  0  0  0  0  2  0  0  0  0  0  0
  188.1130  178.8810  137.1640 C   0  0  0  0  0  2  0  0  0  0  0  0
  189.3420  178.2540  137.7980 C   0  0  0  0  0  3  0  0  0  0  0  0
  189.8130  174.8680  136.4820 C   0  0  2  0  0  3  0  0  0  0  0  0
  190.5580  174.5950  135.1800 C   0  0  0  0  0  1  0  0  0  0  0  0
  187.6200  174.0320  136.9770 O   0  0  0  0  0  0  0  0  0  0  0  0
  188.3170  174.8510  136.3210 C   0  0  0  0  0  0  0  0  0  0  0  0
  186.2990  176.0420  135.5450 C   0  0  0  0  0  1  0  0  0  0  0  0
  187.6760  175.7180  135.4330 O   0  0  0  0  0  0  0  0  0  0  0  0
  1  7  1  0  0  0  0
  2 22  1  1  0  0  0
  2  8  1  0  0  0  0
  2  6  1  0  0  0  0
  3 12  1  0  0  0  0
  5  4  1  0  0  0  0
  5 10  1  0  0  0  0
  6 14  1  6  0  0  0
  6  1  1  0  0  0  0
  7 12  2  0  0  0  0
  7 11  1  0  0  0  0
  8 21  1  1  0  0  0
  8  3  1  0  0  0  0
  9  4  2  0  0  0  0
 11  5  2  0  0  0  0
 12  9  1  0  0  0  0
 13 18  1  0  0  0  0
 14 18  2  0  0  0  0
 15 14  1  0  0  0  0
 16 17  1  0  0  0  0
 16 15  2  0  0  0  0
 17 13  2  0  0  0  0
 19 20  1  0  0  0  0
 19 21  1  0  0  0  0
 20 21  1  0  0  0  0
 22 23  1  6  0  0  0
 25 22  1  0  0  0  0
 25 24  2  0  0  0  0
 27 26  1  0  0  0  0
 27 25  1  0  0  0  0
M  END
>  <MODEL>
4

>  <REMARK>
 VINA RESULT:      -5.9      4.615      8.729
  Name = 
  5 active torsions:
  status: ('A' for Active; 'I' for Inactive)
    1  A    between atoms: C_2  and  C_6
    2  A    between atoms: C_6  and  C_17
    3  A    between atoms: C_9  and  C_15
    4  A    between atoms: C_14  and  N_19
    5  A    between atoms: O_16  and  C_17
                            x       y       z     vdW  Elec       q    Type
                         _______ _______ _______ _____ _____    ______ ____

>  <TORSDO>
F 5

$$$$
=
 OpenBabel10272401123D

 27 30  0  0  1  0  0  0  0  0999 V2000
  190.9320  175.2970  138.0710 C   0  0  0  0  0  2  0  0  0  0  0  0
  188.8540  176.6680  137.5530 C   0  0  2  0  0  3  0  0  0  0  0  0
  189.9850  176.4920  135.3770 C   0  0  0  0  0  2  0  0  0  0  0  0
  193.1840  174.7070  134.4570 C   0  0  0  0  0  3  0  0  0  0  0  0
  193.6430  174.2300  135.6840 C   0  0  0  0  0  0  0  0  0  0  0  0
  190.2500  176.6480  138.2310 C   0  0  1  0  0  3  0  0  0  0  0  0
  191.7020  175.1790  136.7930 C   0  0  0  0  0  0  0  0  0  0  0  0
  188.8230  176.0970  136.1950 N   0  0  1  0  0  0  0  0  0  0  0  0
  191.9830  175.4150  134.3910 C   0  0  0  0  0  3  0  0  0  0  0  0
  195.1460  173.3370  135.7700 Cl  0  0  0  0  0  0  0  0  0  0  0  0
  192.9010  174.4600  136.8440 C   0  0  0  0  0  3  0  0  0  0  0  0
  191.2230  175.6450  135.5430 C   0  0  0  0  0  0  0  0  0  0  0  0
  188.9270  177.2210  141.7570 C   0  0  0  0  0  3  0  0  0  0  0  0
  190.1780  176.9850  139.6890 C   0  0  0  0  0  0  0  0  0  0  0  0
  191.3480  177.3550  140.3620 C   0  0  0  0  0  3  0  0  0  0  0  0
  191.3080  177.6640  141.7240 C   0  0  0  0  0  3  0  0  0  0  0  0
  190.0980  177.5980  142.4220 C   0  0  0  0  0  3  0  0  0  0  0  0
  188.9660  176.9130  140.3940 C   0  0  0  0  0  3  0  0  0  0  0  0
  187.3070  174.3540  136.9710 C   0  0  0  0  0  2  0  0  0  0  0  0
  187.3240  174.3200  135.4600 C   0  0  0  0  0  2  0  0  0  0  0  0
  188.5940  174.6520  136.2240 C   0  0  0  0  0  3  0  0  0  0  0  0
  188.1710  178.0470  137.5320 C   0  0  2  0  0  3  0  0  0  0  0  0
  189.0540  179.1770  138.0510 C   0  0  0  0  0  1  0  0  0  0  0  0
  185.8730  177.3660  137.6250 O   0  0  0  0  0  0  0  0  0  0  0  0
  186.8000  178.0380  138.1500 C   0  0  0  0  0  0  0  0  0  0  0  0
  185.2410  178.7880  139.9120 C   0  0  0  0  0  1  0  0  0  0  0  0
  186.5200  178.7860  139.2970 O   0  0  0  0  0  0  0  0  0  0  0  0
  1  6  1  0  0  0  0
  2 22  1  6  0  0  0
  2  6  1  0  0  0  0
  3 12  1  0  0  0  0
  3  8  1  0  0  0  0
  4  5  1  0  0  0  0
  5 10  1  0  0  0  0
  5 11  2  0  0  0  0
  6 14  1  1  0  0  0
  7 11  1  0  0  0  0
  7  1  1  0  0  0  0
  8 21  1  1  0  0  0
  8  2  1  0  0  0  0
  9  4  2  0  0  0  0
  9 12  1  0  0  0  0
 12  7  2  0  0  0  0
 13 17  1  0  0  0  0
 14 15  2  0  0  0  0
 14 18  1  0  0  0  0
 15 16  1  0  0  0  0
 16 17  2  0  0  0  0
 18 13  2  0  0  0  0
 20 21  1  0  0  0  0
 20 19  1  0  0  0  0
 21 19  1  0  0  0  0
 22 23  1  1  0  0  0
 22 25  1  0  0  0  0
 24 25  2  0  0  0  0
 25 27  1  0  0  0  0
 27 26  1  0  0  0  0
M  END
>  <MODEL>
5

>  <REMARK>
 VINA RESULT:      -5.6      4.229      7.255
  Name = 
  5 active torsions:
  status: ('A' for Active; 'I' for Inactive)
    1  A    between atoms: C_2  and  C_6
    2  A    between atoms: C_6  and  C_17
    3  A    between atoms: C_9  and  C_15
    4  A    between atoms: C_14  and  N_19
    5  A    between atoms: O_16  and  C_17
                            x       y       z     vdW  Elec       q    Type
                         _______ _______ _______ _____ _____    ______ ____

>  <TORSDO>
F 5

$$$$
=
 OpenBabel10272401123D

 27 30  0  0  1  0  0  0  0  0999 V2000
  191.1330  175.9990  138.1070 C   0  0  0  0  0  2  0  0  0  0  0  0
  188.6550  176.0410  137.5380 C   0  0  2  0  0  3  0  0  0  0  0  0
  189.7520  176.1780  135.3420 C   0  0  0  0  0  2  0  0  0  0  0  0
  193.4280  176.1620  134.4750 C   0  0  0  0  0  3  0  0  0  0  0  0
  194.0470  176.1520  135.7250 C   0  0  0  0  0  0  0  0  0  0  0  0
  189.8550  176.8240  138.1370 C   0  0  1  0  0  3  0  0  0  0  0  0
  191.8760  176.1210  136.8120 C   0  0  0  0  0  0  0  0  0  0  0  0
  188.9420  175.3600  136.2630 N   0  0  1  0  0  0  0  0  0  0  0  0
  192.0350  176.1450  134.3880 C   0  0  0  0  0  3  0  0  0  0  0  0
  195.7930  176.1670  135.8370 Cl  0  0  0  0  0  0  0  0  0  0  0  0
  193.2730  176.1250  136.8860 C   0  0  0  0  0  3  0  0  0  0  0  0
  191.2460  176.1070  135.5430 C   0  0  0  0  0  0  0  0  0  0  0  0
  188.2380  178.4150  141.1980 C   0  0  0  0  0  3  0  0  0  0  0  0
  189.5970  177.2670  139.5450 C   0  0  0  0  0  0  0  0  0  0  0  0
  190.4970  176.8970  140.5500 C   0  0  0  0  0  3  0  0  0  0  0  0
  190.2740  177.2900  141.8730 C   0  0  0  0  0  3  0  0  0  0  0  0
  189.1460  178.0500  142.1960 C   0  0  0  0  0  3  0  0  0  0  0  0
  188.4610  178.0240  139.8740 C   0  0  0  0  0  3  0  0  0  0  0  0
  188.3810  173.0980  136.9750 C   0  0  0  0  0  2  0  0  0  0  0  0
  188.8180  173.0380  135.5290 C   0  0  0  0  0  2  0  0  0  0  0  0
  189.4820  174.0170  136.4810 C   0  0  0  0  0  3  0  0  0  0  0  0
  187.3650  176.8650  137.3850 C   0  0  2  0  0  3  0  0  0  0  0  0
  186.1360  176.0270  137.0500 C   0  0  0  0  0  1  0  0  0  0  0  0
  187.6790  179.2080  136.9770 O   0  0  0  0  0  0  0  0  0  0  0  0
  187.5280  178.0590  136.4840 C   0  0  0  0  0  0  0  0  0  0  0  0
  186.2920  178.0370  134.3460 C   0  0  0  0  0  1  0  0  0  0  0  0
  187.4930  177.9240  135.0940 O   0  0  0  0  0  0  0  0  0  0  0  0
  1  6  1  0  0  0  0
  2 22  1  6  0  0  0
  2  6  1  0  0  0  0
  3 12  1  0  0  0  0
  3  8  1  0  0  0  0
  4  5  1  0  0  0  0
  5 10  1  0  0  0  0
  5 11  2  0  0  0  0
  6 14  1  1  0  0  0
  7 11  1  0  0  0  0
  7  1  1  0  0  0  0
  8 21  1  1  0  0  0
  8  2  1  0  0  0  0
  9  4  2  0  0  0  0
  9 12  1  0  0  0  0
 12  7  2  0  0  0  0
 13 17  1  0  0  0  0
 14 18  1  0  0  0  0
 14 15  2  0  0  0  0
 15 16  1  0  0  0  0
 16 17  2  0  0  0  0
 18 13  2  0  0  0  0
 20 21  1  0  0  0  0
 20 19  1  0  0  0  0
 21 19  1  0  0  0  0
 22 23  1  6  0  0  0
 25 24  2  0  0  0  0
 25 22  1  0  0  0  0
 26 27  1  0  0  0  0
 27 25  1  0  0  0  0
M  END
>  <MODEL>
6

>  <REMARK>
 VINA RESULT:      -5.6      4.641      7.666
  Name = 
  5 active torsions:
  status: ('A' for Active; 'I' for Inactive)
    1  A    between atoms: C_2  and  C_6
    2  A    between atoms: C_6  and  C_17
    3  A    between atoms: C_9  and  C_15
    4  A    between atoms: C_14  and  N_19
    5  A    between atoms: O_16  and  C_17
                            x       y       z     vdW  Elec       q    Type
                         _______ _______ _______ _____ _____    ______ ____

>  <TORSDO>
F 5

$$$$
=
 OpenBabel10272401123D

 27 30  0  0  1  0  0  0  0  0999 V2000
  184.4980  174.6790  136.1480 C   0  0  0  0  0  2  0  0  0  0  0  0
  185.5910  176.7920  137.0440 C   0  0  2  0  0  3  0  0  0  0  0  0
  187.4360  175.1670  136.9930 C   0  0  0  0  0  2  0  0  0  0  0  0
  187.4510  171.5690  135.8460 C   0  0  0  0  0  3  0  0  0  0  0  0
  186.1130  171.3320  135.5320 C   0  0  0  0  0  0  0  0  0  0  0  0
  184.6220  175.6160  137.3400 C   0  0  1  0  0  3  0  0  0  0  0  0
  185.5570  173.6200  136.1240 C   0  0  0  0  0  0  0  0  0  0  0  0
  186.8620  176.3950  136.4130 N   0  0  1  0  0  0  0  0  0  0  0  0
  187.8480  172.8300  136.2930 C   0  0  0  0  0  3  0  0  0  0  0  0
  185.6120  169.7540  134.9660 Cl  0  0  0  0  0  0  0  0  0  0  0  0
  185.1740  172.3560  135.6650 C   0  0  0  0  0  3  0  0  0  0  0  0
  186.9200  173.8690  136.4220 C   0  0  0  0  0  0  0  0  0  0  0  0
  181.1600  177.2000  137.1970 C   0  0  0  0  0  3  0  0  0  0  0  0
  183.2540  176.0910  137.7270 C   0  0  0  0  0  0  0  0  0  0  0  0
  182.7790  175.8220  139.0150 C   0  0  0  0  0  3  0  0  0  0  0  0
  181.5030  176.2460  139.3960 C   0  0  0  0  0  3  0  0  0  0  0  0
  180.6940  176.9370  138.4880 C   0  0  0  0  0  3  0  0  0  0  0  0
  182.4370  176.7780  136.8150 C   0  0  0  0  0  3  0  0  0  0  0  0
  186.0650  177.6170  134.4600 C   0  0  0  0  0  2  0  0  0  0  0  0
  187.5660  177.4800  134.3460 C   0  0  0  0  0  2  0  0  0  0  0  0
  186.7480  176.3550  134.9550 C   0  0  0  0  0  3  0  0  0  0  0  0
  185.8930  177.6930  138.2550 C   0  0  2  0  0  3  0  0  0  0  0  0
  184.8630  178.7960  138.4720 C   0  0  0  0  0  1  0  0  0  0  0  0
  187.6890  179.0610  137.4450 O   0  0  0  0  0  0  0  0  0  0  0  0
  187.3110  178.1960  138.2790 C   0  0  0  0  0  0  0  0  0  0  0  0
  188.2970  178.1680  140.5430 C   0  0  0  0  0  1  0  0  0  0  0  0
  188.2370  177.7040  139.2030 O   0  0  0  0  0  0  0  0  0  0  0  0
  1  6  1  0  0  0  0
  2  6  1  0  0  0  0
  2 22  1  1  0  0  0
  4  9  1  0  0  0  0
  5 11  1  0  0  0  0
  5  4  2  0  0  0  0
  6 14  1  6  0  0  0
  7  1  1  0  0  0  0
  7 12  1  0  0  0  0
  8 21  1  6  0  0  0
  8  3  1  0  0  0  0
  8  2  1  0  0  0  0
  9 12  2  0  0  0  0
 10  5  1  0  0  0  0
 11  7  2  0  0  0  0
 12  3  1  0  0  0  0
 13 17  1  0  0  0  0
 14 15  2  0  0  0  0
 15 16  1  0  0  0  0
 17 16  2  0  0  0  0
 18 13  2  0  0  0  0
 18 14  1  0  0  0  0
 19 21  1  0  0  0  0
 20 19  1  0  0  0  0
 20 21  1  0  0  0  0
 22 25  1  0  0  0  0
 22 23  1  6  0  0  0
 24 25  2  0  0  0  0
 25 27  1  0  0  0  0
 27 26  1  0  0  0  0
M  END
>  <MODEL>
7

>  <REMARK>
 VINA RESULT:      -5.4      5.813      7.747
  Name = 
  5 active torsions:
  status: ('A' for Active; 'I' for Inactive)
    1  A    between atoms: C_2  and  C_6
    2  A    between atoms: C_6  and  C_17
    3  A    between atoms: C_9  and  C_15
    4  A    between atoms: C_14  and  N_19
    5  A    between atoms: O_16  and  C_17
                            x       y       z     vdW  Elec       q    Type
                         _______ _______ _______ _____ _____    ______ ____

>  <TORSDO>
F 5

$$$$
=
 OpenBabel10272401123D

 27 30  0  0  1  0  0  0  0  0999 V2000
  188.0780  178.0230  138.7890 C   0  0  0  0  0  2  0  0  0  0  0  0
  189.4860  176.2540  137.6280 C   0  0  2  0  0  3  0  0  0  0  0  0
  187.2110  175.8070  136.8090 C   0  0  0  0  0  2  0  0  0  0  0  0
  183.9800  177.6130  137.5550 C   0  0  0  0  0  3  0  0  0  0  0  0
  184.3610  178.5660  138.5000 C   0  0  0  0  0  0  0  0  0  0  0  0
  188.8630  176.7320  138.9670 C   0  0  1  0  0  3  0  0  0  0  0  0
  186.6590  177.7910  138.3700 C   0  0  0  0  0  0  0  0  0  0  0  0
  188.5660  176.2850  136.4770 N   0  0  1  0  0  0  0  0  0  0  0  0
  184.9340  176.7520  137.0110 C   0  0  0  0  0  3  0  0  0  0  0  0
  183.1690  179.6510  139.1800 Cl  0  0  0  0  0  0  0  0  0  0  0  0
  185.6960  178.6560  138.8990 C   0  0  0  0  0  3  0  0  0  0  0  0
  186.2770  176.8380  137.3930 C   0  0  0  0  0  0  0  0  0  0  0  0
  190.6120  176.8160  142.3500 C   0  0  0  0  0  3  0  0  0  0  0  0
  189.8960  176.9370  140.0330 C   0  0  0  0  0  0  0  0  0  0  0  0
  191.1580  177.4230  139.6740 C   0  0  0  0  0  3  0  0  0  0  0  0
  192.1410  177.6130  140.6490 C   0  0  0  0  0  3  0  0  0  0  0  0
  191.8680  177.3120  141.9870 C   0  0  0  0  0  3  0  0  0  0  0  0
  189.6280  176.6270  141.3760 C   0  0  0  0  0  3  0  0  0  0  0  0
  189.6700  177.6140  134.7580 C   0  0  0  0  0  2  0  0  0  0  0  0
  188.2280  177.4200  134.3460 C   0  0  0  0  0  2  0  0  0  0  0  0
  188.5800  177.5890  135.8140 C   0  0  0  0  0  3  0  0  0  0  0  0
  190.1600  174.8710  137.6930 C   0  0  2  0  0  3  0  0  0  0  0  0
  191.6820  174.9270  137.6330 C   0  0  0  0  0  1  0  0  0  0  0  0
  188.7820  172.9860  137.1460 O   0  0  0  0  0  0  0  0  0  0  0  0
  189.5670  173.8780  136.7310 C   0  0  0  0  0  0  0  0  0  0  0  0
  190.5770  172.8490  134.7260 C   0  0  0  0  0  1  0  0  0  0  0  0
  189.8890  173.9090  135.3710 O   0  0  0  0  0  0  0  0  0  0  0  0
  1  6  1  0  0  0  0
  2 22  1  1  0  0  0
  2  6  1  0  0  0  0
  3 12  1  0  0  0  0
  4  5  1  0  0  0  0
  5 11  2  0  0  0  0
  5 10  1  0  0  0  0
  6 14  1  1  0  0  0
  7  1  1  0  0  0  0
  7 11  1  0  0  0  0
  8 21  1  1  0  0  0
  8  3  1  0  0  0  0
  8  2  1  0  0  0  0
  9 12  1  0  0  0  0
  9  4  2  0  0  0  0
 12  7  2  0  0  0  0
 14 18  1  0  0  0  0
 15 14  2  0  0  0  0
 15 16  1  0  0  0  0
 16 17  2  0  0  0  0
 17 13  1  0  0  0  0
 18 13  2  0  0  0  0
 19 21  1  0  0  0  0
 20 19  1  0  0  0  0
 20 21  1  0  0  0  0
 22 23  1  6  0  0  0
 25 24  2  0  0  0  0
 25 22  1  0  0  0  0
 26 27  1  0  0  0  0
 27 25  1  0  0  0  0
M  END
>  <MODEL>
8

>  <REMARK>
 VINA RESULT:      -5.3      4.822      7.805
  Name = 
  5 active torsions:
  status: ('A' for Active; 'I' for Inactive)
    1  A    between atoms: C_2  and  C_6
    2  A    between atoms: C_6  and  C_17
    3  A    between atoms: C_9  and  C_15
    4  A    between atoms: C_14  and  N_19
    5  A    between atoms: O_16  and  C_17
                            x       y       z     vdW  Elec       q    Type
                         _______ _______ _______ _____ _____    ______ ____

>  <TORSDO>
F 5

$$$$
=
 OpenBabel10272401123D

 27 30  0  0  1  0  0  0  0  0999 V2000
  184.3260  176.9060  138.7120 C   0  0  0  0  0  2  0  0  0  0  0  0
  182.1710  178.1370  139.2670 C   0  0  2  0  0  3  0  0  0  0  0  0
  182.2150  178.1320  136.8080 C   0  0  0  0  0  2  0  0  0  0  0  0
  184.7450  176.6280  134.4420 C   0  0  0  0  0  3  0  0  0  0  0  0
  185.7290  176.1390  135.3010 C   0  0  0  0  0  0  0  0  0  0  0  0
  183.7230  178.1950  139.2500 C   0  0  1  0  0  3  0  0  0  0  0  0
  184.4460  176.8960  137.2190 C   0  0  0  0  0  0  0  0  0  0  0  0
  181.5640  177.6190  138.0280 N   0  0  1  0  0  0  0  0  0  0  0  0
  183.6090  177.2470  134.9660 C   0  0  0  0  0  3  0  0  0  0  0  0
  187.1520  175.3580  134.6480 Cl  0  0  0  0  0  0  0  0  0  0  0  0
  185.5750  176.2670  136.6820 C   0  0  0  0  0  3  0  0  0  0  0  0
  183.4360  177.3730  136.3480 C   0  0  0  0  0  0  0  0  0  0  0  0
  184.0730  178.5930  143.0230 C   0  0  0  0  0  3  0  0  0  0  0  0
  184.2950  178.4670  140.6080 C   0  0  0  0  0  0  0  0  0  0  0  0
  185.6430  178.8270  140.7190 C   0  0  0  0  0  3  0  0  0  0  0  0
  186.2020  179.0770  141.9750 C   0  0  0  0  0  3  0  0  0  0  0  0
  185.4170  178.9620  143.1270 C   0  0  0  0  0  3  0  0  0  0  0  0
  183.5120  178.3450  141.7670 C   0  0  0  0  0  3  0  0  0  0  0  0
  180.8980  175.7210  139.4030 C   0  0  0  0  0  2  0  0  0  0  0  0
  179.9820  175.7720  138.2020 C   0  0  0  0  0  2  0  0  0  0  0  0
  181.4430  176.1610  138.0570 C   0  0  0  0  0  3  0  0  0  0  0  0
  181.4850  179.4610  139.6460 C   0  0  2  0  0  3  0  0  0  0  0  0
  179.9820  179.3320  139.8690 C   0  0  0  0  0  1  0  0  0  0  0  0
  182.9890  181.1310  138.8090 O   0  0  0  0  0  0  0  0  0  0  0  0
  181.8500  180.5990  138.7330 C   0  0  0  0  0  0  0  0  0  0  0  0
  180.3270  182.3760  137.9460 C   0  0  0  0  0  1  0  0  0  0  0  0
  180.9360  181.1020  137.8030 O   0  0  0  0  0  0  0  0  0  0  0  0
  1  6  1  0  0  0  0
  2 22  1  6  0  0  0
  3  8  1  0  0  0  0
  4  9  2  0  0  0  0
  4  5  1  0  0  0  0
  5 11  2  0  0  0  0
  6  2  1  0  0  0  0
  6 14  1  1  0  0  0
  7  1  1  0  0  0  0
  8 21  1  1  0  0  0
  8  2  1  0  0  0  0
  9 12  1  0  0  0  0
 10  5  1  0  0  0  0
 11  7  1  0  0  0  0
 12  3  1  0  0  0  0
 12  7  2  0  0  0  0
 13 17  1  0  0  0  0
 14 15  2  0  0  0  0
 14 18  1  0  0  0  0
 15 16  1  0  0  0  0
 16 17  2  0  0  0  0
 18 13  2  0  0  0  0
 20 19  1  0  0  0  0
 21 20  1  0  0  0  0
 21 19  1  0  0  0  0
 22 23  1  6  0  0  0
 25 24  2  0  0  0  0
 25 22  1  0  0  0  0
 27 26  1  0  0  0  0
 27 25  1  0  0  0  0
M  END
>  <MODEL>
9

>  <REMARK>
 VINA RESULT:      -5.3      5.650      8.157
  Name = 
  5 active torsions:
  status: ('A' for Active; 'I' for Inactive)
    1  A    between atoms: C_2  and  C_6
    2  A    between atoms: C_6  and  C_17
    3  A    between atoms: C_9  and  C_15
    4  A    between atoms: C_14  and  N_19
    5  A    between atoms: O_16  and  C_17
                            x       y       z     vdW  Elec       q    Type
                         _______ _______ _______ _____ _____    ______ ____

>  <TORSDO>
F 5

$$$$
