=
 OpenBabel10272400533D

 25 29  0  0  1  0  0  0  0  0999 V2000
  186.9070  177.9730  143.0930 N   0  0  0  0  0  0  0  0  0  0  0  0
  187.9680  176.9680  143.0380 C   0  0  2  0  0  3  0  0  0  0  0  0
  187.4870  178.9530  140.9970 C   0  0  0  0  0  3  0  0  0  0  0  0
  185.6380  177.8490  143.7910 C   0  0  2  0  0  3  0  0  0  0  0  0
  189.9340  177.2900  144.5380 N   0  0  2  0  0  0  0  0  0  0  0  0
  183.3350  178.8340  145.1230 C   0  0  0  0  0  2  0  0  0  0  0  0
  188.7090  178.1980  141.0270 N   0  0  0  0  0  0  0  0  0  0  0  0
  184.7760  178.8630  143.0800 C   0  0  0  0  0  0  0  0  0  0  0  0
  183.5270  179.4110  143.7070 C   0  0  0  0  0  2  0  0  0  0  0  0
  190.2420  176.5920  141.8620 N   0  0  0  0  0  0  0  0  0  0  0  0
  191.1570  176.8150  140.7520 C   0  0  0  0  0  1  0  0  0  0  0  0
  188.5640  176.7620  144.4400 C   0  0  0  0  0  2  0  0  0  0  0  0
  184.6480  178.7170  145.8660 C   0  0  0  0  0  3  0  0  0  0  0  0
  186.6330  178.8260  142.0010 C   0  0  0  0  0  0  0  0  0  0  0  0
  185.3470  179.4170  142.0580 N   0  0  0  0  0  0  0  0  0  0  0  0
  190.6130  175.5880  142.8520 C   0  0  0  0  0  2  0  0  0  0  0  0
  185.7410  178.2490  145.2370 C   0  0  0  0  0  3  0  0  0  0  0  0
  190.8940  176.2320  144.2140 C   0  0  0  0  0  2  0  0  0  0  0  0
  188.9890  177.3020  141.9390 C   0  0  0  0  0  0  0  0  0  0  0  0
  191.1440  176.8580  146.8850 S   0  0  0  0  0  0  0  0  0  0  0  0
  191.1040  175.3570  146.8020 O   0  0  0  0  0  0  0  0  0  0  0  0
  191.9140  177.4330  148.0390 O   0  0  0  0  0  0  0  0  0  0  0  0
  190.3180  177.8710  145.8440 C   0  0  2  0  0  3  0  0  0  0  0  0
  188.1990  177.6000  147.5320 C   0  0  0  0  0  2  0  0  0  0  0  0
  189.3860  177.5080  146.9400 C   0  0  0  0  0  0  0  0  0  0  0  0
  1  4  1  0  0  0  0
  2  1  1  0  0  0  0
  2 12  1  1  0  0  0
  3  7  1  0  0  0  0
  3 14  2  0  0  0  0
  4 17  1  1  0  0  0
  5 18  1  1  0  0  0
  5 23  1  0  0  0  0
  6 13  1  0  0  0  0
  7 19  2  0  0  0  0
  8  9  1  0  0  0  0
  8  4  1  0  0  0  0
  9  6  1  0  0  0  0
 10 19  1  0  0  0  0
 10 16  1  0  0  0  0
 11 10  1  0  0  0  0
 12  5  1  0  0  0  0
 14 15  1  0  0  0  0
 14  1  1  0  0  0  0
 15  8  2  0  0  0  0
 16 18  1  0  0  0  0
 17 13  2  0  0  0  0
 19  2  1  0  0  0  0
 20 25  1  0  0  0  0
 20 22  2  0  0  0  0
 21 20  2  0  0  0  0
 23 20  1  0  0  0  0
 23 25  1  1  0  0  0
 25 24  2  0  0  0  0
M  END
>  <MODEL>
1

>  <REMARK>
 VINA RESULT:      -9.2      0.000      0.000
  Name = 
  1 active torsions:
  status: ('A' for Active; 'I' for Inactive)
    1  A    between atoms: N_6  and  C_15
                            x       y       z     vdW  Elec       q    Type
                         _______ _______ _______ _____ _____    ______ ____

>  <TORSDO>
F 1

$$$$
=
 OpenBabel10272400533D

 25 29  0  0  1  0  0  0  0  0999 V2000
  187.4070  178.0830  145.2080 N   0  0  0  0  0  0  0  0  0  0  0  0
  188.8300  178.3040  144.9590 C   0  0  2  0  0  3  0  0  0  0  0  0
  187.7710  176.8090  147.1910 C   0  0  0  0  0  3  0  0  0  0  0  0
  186.3150  178.9500  144.7950 C   0  0  2  0  0  3  0  0  0  0  0  0
  189.8830  177.0270  143.0940 N   0  0  2  0  0  0  0  0  0  0  0  0
  183.6360  179.5350  144.0690 C   0  0  0  0  0  2  0  0  0  0  0  0
  189.1630  176.7390  146.8430 N   0  0  0  0  0  0  0  0  0  0  0  0
  185.2110  178.5580  145.7470 C   0  0  0  0  0  0  0  0  0  0  0  0
  183.7710  178.8570  145.4470 C   0  0  0  0  0  2  0  0  0  0  0  0
  191.1090  177.2470  145.5830 N   0  0  0  0  0  0  0  0  0  0  0  0
  191.9520  176.4710  146.4800 C   0  0  0  0  0  1  0  0  0  0  0  0
  189.1150  178.2290  143.4510 C   0  0  0  0  0  2  0  0  0  0  0  0
  184.5830  178.9370  143.0510 C   0  0  0  0  0  3  0  0  0  0  0  0
  186.9440  177.4640  146.3910 C   0  0  0  0  0  0  0  0  0  0  0  0
  185.5750  177.7110  146.6560 N   0  0  0  0  0  0  0  0  0  0  0  0
  191.7550  177.9270  144.4680 C   0  0  0  0  0  2  0  0  0  0  0  0
  185.8540  178.6600  143.3930 C   0  0  0  0  0  3  0  0  0  0  0  0
  191.3160  177.3310  143.1270 C   0  0  0  0  0  2  0  0  0  0  0  0
  189.6930  177.3770  145.8300 C   0  0  0  0  0  0  0  0  0  0  0  0
  190.6990  176.6720  140.5700 S   0  0  0  0  0  0  0  0  0  0  0  0
  191.6940  177.8000  140.5740 O   0  0  0  0  0  0  0  0  0  0  0  0
  190.6960  175.8010  139.3480 O   0  0  0  0  0  0  0  0  0  0  0  0
  189.5740  176.4200  141.7800 C   0  0  2  0  0  3  0  0  0  0  0  0
  187.9720  178.1490  140.4200 C   0  0  0  0  0  2  0  0  0  0  0  0
  188.9800  177.3810  140.8190 C   0  0  0  0  0  0  0  0  0  0  0  0
  1 14  1  0  0  0  0
  2 12  1  6  0  0  0
  2  1  1  0  0  0  0
  2 19  1  0  0  0  0
  4 17  1  6  0  0  0
  4  1  1  0  0  0  0
  4  8  1  0  0  0  0
  5 18  1  6  0  0  0
  5 12  1  0  0  0  0
  6  9  1  0  0  0  0
  7  3  1  0  0  0  0
  8 15  2  0  0  0  0
  9  8  1  0  0  0  0
 10 19  1  0  0  0  0
 10 11  1  0  0  0  0
 13 17  2  0  0  0  0
 13  6  1  0  0  0  0
 14 15  1  0  0  0  0
 14  3  2  0  0  0  0
 16 10  1  0  0  0  0
 18 16  1  0  0  0  0
 19  7  2  0  0  0  0
 20 21  2  0  0  0  0
 20 25  1  0  0  0  0
 20 23  1  0  0  0  0
 22 20  2  0  0  0  0
 23 25  1  6  0  0  0
 23  5  1  0  0  0  0
 24 25  2  0  0  0  0
M  END
>  <MODEL>
2

>  <REMARK>
 VINA RESULT:      -8.1      2.820      4.546
  Name = 
  1 active torsions:
  status: ('A' for Active; 'I' for Inactive)
    1  A    between atoms: N_6  and  C_15
                            x       y       z     vdW  Elec       q    Type
                         _______ _______ _______ _____ _____    ______ ____

>  <TORSDO>
F 1

$$$$
=
 OpenBabel10272400533D

 25 29  0  0  1  0  0  0  0  0999 V2000
  190.0430  177.2110  144.1450 N   0  0  0  0  0  0  0  0  0  0  0  0
  189.4100  178.0230  143.1070 C   0  0  2  0  0  3  0  0  0  0  0  0
  191.0340  175.6900  142.5980 C   0  0  0  0  0  3  0  0  0  0  0  0
  190.4560  177.6660  145.4630 C   0  0  2  0  0  3  0  0  0  0  0  0
  186.9420  177.8100  142.8250 N   0  0  2  0  0  0  0  0  0  0  0  0
  191.0670  177.3450  148.2140 C   0  0  0  0  0  2  0  0  0  0  0  0
  190.2090  176.2600  141.5700 N   0  0  0  0  0  0  0  0  0  0  0  0
  191.4870  176.6360  145.8540 C   0  0  0  0  0  0  0  0  0  0  0  0
  191.8840  176.4250  147.2860 C   0  0  0  0  0  2  0  0  0  0  0  0
  188.6630  177.8010  140.6390 N   0  0  0  0  0  0  0  0  0  0  0  0
  188.7820  177.1990  139.3190 C   0  0  0  0  0  1  0  0  0  0  0  0
  188.0180  178.4770  143.5740 C   0  0  0  0  0  2  0  0  0  0  0  0
  189.6250  177.4600  147.7660 C   0  0  0  0  0  3  0  0  0  0  0  0
  190.9390  176.1660  143.8310 C   0  0  0  0  0  0  0  0  0  0  0  0
  191.7610  175.7820  144.9190 N   0  0  0  0  0  0  0  0  0  0  0  0
  187.7820  178.9530  140.7790 C   0  0  0  0  0  2  0  0  0  0  0  0
  189.3340  177.6140  146.4630 C   0  0  0  0  0  3  0  0  0  0  0  0
  186.5750  178.6220  141.6630 C   0  0  0  0  0  2  0  0  0  0  0  0
  189.4380  177.3030  141.7490 C   0  0  0  0  0  0  0  0  0  0  0  0
  184.6270  178.7770  143.7580 S   0  0  0  0  0  0  0  0  0  0  0  0
  185.0090  180.2260  143.6350 O   0  0  0  0  0  0  0  0  0  0  0  0
  183.2030  178.5020  144.1480 O   0  0  0  0  0  0  0  0  0  0  0  0
  185.7060  177.5120  143.5840 C   0  0  2  0  0  3  0  0  0  0  0  0
  186.2540  177.8360  146.2300 C   0  0  0  0  0  2  0  0  0  0  0  0
  185.7700  177.9540  144.9980 C   0  0  0  0  0  0  0  0  0  0  0  0
  1  4  1  0  0  0  0
  2 12  1  1  0  0  0
  2  1  1  0  0  0  0
  3 14  2  0  0  0  0
  4  8  1  0  0  0  0
  4 17  1  1  0  0  0
  5 18  1  6  0  0  0
  5 12  1  0  0  0  0
  5 23  1  0  0  0  0
  7 19  2  0  0  0  0
  7  3  1  0  0  0  0
  8  9  1  0  0  0  0
  9  6  1  0  0  0  0
 10 16  1  0  0  0  0
 10 19  1  0  0  0  0
 11 10  1  0  0  0  0
 13  6  1  0  0  0  0
 14  1  1  0  0  0  0
 14 15  1  0  0  0  0
 15  8  2  0  0  0  0
 16 18  1  0  0  0  0
 17 13  2  0  0  0  0
 19  2  1  0  0  0  0
 20 22  2  0  0  0  0
 20 25  1  0  0  0  0
 21 20  2  0  0  0  0
 23 20  1  0  0  0  0
 23 25  1  1  0  0  0
 25 24  2  0  0  0  0
M  END
>  <MODEL>
3

>  <REMARK>
 VINA RESULT:      -7.7      3.120      5.594
  Name = 
  1 active torsions:
  status: ('A' for Active; 'I' for Inactive)
    1  A    between atoms: N_6  and  C_15
                            x       y       z     vdW  Elec       q    Type
                         _______ _______ _______ _____ _____    ______ ____

>  <TORSDO>
F 1

$$$$
=
 OpenBabel10272400533D

 25 29  0  0  1  0  0  0  0  0999 V2000
  187.9960  177.6070  141.7260 N   0  0  0  0  0  0  0  0  0  0  0  0
  188.6530  178.0400  140.4940 C   0  0  2  0  0  3  0  0  0  0  0  0
  189.7770  176.1600  142.3760 C   0  0  0  0  0  3  0  0  0  0  0  0
  187.0280  178.3680  142.5000 C   0  0  2  0  0  3  0  0  0  0  0  0
  187.7660  177.1470  138.3410 N   0  0  2  0  0  0  0  0  0  0  0  0
  184.8540  178.6820  144.2940 C   0  0  0  0  0  2  0  0  0  0  0  0
  190.3310  176.3150  141.0600 N   0  0  0  0  0  0  0  0  0  0  0  0
  187.1220  177.7230  143.8610 C   0  0  0  0  0  0  0  0  0  0  0  0
  186.0250  177.8650  144.8750 C   0  0  0  0  0  2  0  0  0  0  0  0
  190.4970  177.2210  138.8730 N   0  0  0  0  0  0  0  0  0  0  0  0
  191.7050  176.4590  138.5950 C   0  0  0  0  0  1  0  0  0  0  0  0
  187.6140  178.1870  139.3710 C   0  0  0  0  0  2  0  0  0  0  0  0
  184.5950  178.3400  142.8420 C   0  0  0  0  0  3  0  0  0  0  0  0
  188.6540  176.7940  142.6760 C   0  0  0  0  0  0  0  0  0  0  0  0
  188.0510  176.8260  143.9570 N   0  0  0  0  0  0  0  0  0  0  0  0
  190.0050  178.1110  137.8280 C   0  0  0  0  0  2  0  0  0  0  0  0
  185.6240  178.1930  141.9900 C   0  0  0  0  0  3  0  0  0  0  0  0
  188.6560  177.6290  137.2830 C   0  0  0  0  0  2  0  0  0  0  0  0
  189.8500  177.1350  140.1590 C   0  0  0  0  0  0  0  0  0  0  0  0
  186.5940  175.1700  136.9720 S   0  0  0  0  0  0  0  0  0  0  0  0
  187.8730  174.5270  136.5100 O   0  0  0  0  0  0  0  0  0  0  0  0
  185.3310  174.4230  136.6540 O   0  0  0  0  0  0  0  0  0  0  0  0
  186.5170  176.6680  137.7070 C   0  0  2  0  0  3  0  0  0  0  0  0
  186.4080  177.7090  135.1940 C   0  0  0  0  0  2  0  0  0  0  0  0
  186.4850  176.8940  136.2410 C   0  0  0  0  0  0  0  0  0  0  0  0
  1  4  1  0  0  0  0
  1 14  1  0  0  0  0
  2 12  1  6  0  0  0
  2  1  1  0  0  0  0
  3 14  2  0  0  0  0
  4 17  1  6  0  0  0
  4  8  1  0  0  0  0
  5 18  1  6  0  0  0
  5 12  1  0  0  0  0
  6  9  1  0  0  0  0
  7  3  1  0  0  0  0
  8 15  2  0  0  0  0
  8  9  1  0  0  0  0
 10 19  1  0  0  0  0
 11 10  1  0  0  0  0
 13  6  1  0  0  0  0
 14 15  1  0  0  0  0
 16 10  1  0  0  0  0
 17 13  2  0  0  0  0
 18 16  1  0  0  0  0
 19  2  1  0  0  0  0
 19  7  2  0  0  0  0
 20 23  1  0  0  0  0
 21 20  2  0  0  0  0
 22 20  2  0  0  0  0
 23 25  1  6  0  0  0
 23  5  1  0  0  0  0
 24 25  2  0  0  0  0
 25 20  1  0  0  0  0
M  END
>  <MODEL>
4

>  <REMARK>
 VINA RESULT:      -7.6      4.605      6.517
  Name = 
  1 active torsions:
  status: ('A' for Active; 'I' for Inactive)
    1  A    between atoms: N_6  and  C_15
                            x       y       z     vdW  Elec       q    Type
                         _______ _______ _______ _____ _____    ______ ____

>  <TORSDO>
F 1

$$$$
=
 OpenBabel10272400533D

 25 29  0  0  1  0  0  0  0  0999 V2000
  187.9560  177.6140  141.8120 N   0  0  0  0  0  0  0  0  0  0  0  0
  188.6470  178.0470  140.5990 C   0  0  2  0  0  3  0  0  0  0  0  0
  189.6980  176.1320  142.4870 C   0  0  0  0  0  3  0  0  0  0  0  0
  186.9840  178.3840  142.5720 C   0  0  2  0  0  3  0  0  0  0  0  0
  187.7930  177.1880  138.4190 N   0  0  2  0  0  0  0  0  0  0  0  0
  184.7760  178.7180  144.3210 C   0  0  0  0  0  2  0  0  0  0  0  0
  190.2830  176.2890  141.1850 N   0  0  0  0  0  0  0  0  0  0  0  0
  187.0370  177.7250  143.9280 C   0  0  0  0  0  0  0  0  0  0  0  0
  185.9200  177.8770  144.9200 C   0  0  0  0  0  2  0  0  0  0  0  0
  190.5120  177.2110  139.0110 N   0  0  0  0  0  0  0  0  0  0  0  0
  191.7130  176.4310  138.7530 C   0  0  0  0  0  1  0  0  0  0  0  0
  187.6360  178.2210  139.4550 C   0  0  0  0  0  2  0  0  0  0  0  0
  184.5430  178.3940  142.8610 C   0  0  0  0  0  3  0  0  0  0  0  0
  188.5790  176.7810  142.7680 C   0  0  0  0  0  0  0  0  0  0  0  0
  187.9490  176.8120  144.0360 N   0  0  0  0  0  0  0  0  0  0  0  0
  190.0580  178.1180  137.9640 C   0  0  0  0  0  2  0  0  0  0  0  0
  185.5890  178.2370  142.0300 C   0  0  0  0  0  3  0  0  0  0  0  0
  188.7130  177.6640  137.3850 C   0  0  0  0  0  2  0  0  0  0  0  0
  189.8360  177.1250  140.2820 C   0  0  0  0  0  0  0  0  0  0  0  0
  186.3040  177.2970  136.1990 S   0  0  0  0  0  0  0  0  0  0  0  0
  186.9560  178.5310  135.6400 O   0  0  0  0  0  0  0  0  0  0  0  0
  185.3140  176.6120  135.3010 O   0  0  0  0  0  0  0  0  0  0  0  0
  186.5500  176.7360  137.7540 C   0  0  2  0  0  3  0  0  0  0  0  0
  184.5460  178.4200  138.4990 C   0  0  0  0  0  2  0  0  0  0  0  0
  185.4590  177.7380  137.8150 C   0  0  0  0  0  0  0  0  0  0  0  0
  1  4  1  0  0  0  0
  1 14  1  0  0  0  0
  2 12  1  6  0  0  0
  2  1  1  0  0  0  0
  3 14  2  0  0  0  0
  4 17  1  6  0  0  0
  4  8  1  0  0  0  0
  5 18  1  6  0  0  0
  5 12  1  0  0  0  0
  6  9  1  0  0  0  0
  7  3  1  0  0  0  0
  8 15  2  0  0  0  0
  8  9  1  0  0  0  0
 10 19  1  0  0  0  0
 11 10  1  0  0  0  0
 13  6  1  0  0  0  0
 14 15  1  0  0  0  0
 16 10  1  0  0  0  0
 17 13  2  0  0  0  0
 18 16  1  0  0  0  0
 19  2  1  0  0  0  0
 19  7  2  0  0  0  0
 20 23  1  0  0  0  0
 20 25  1  0  0  0  0
 21 20  2  0  0  0  0
 22 20  2  0  0  0  0
 23 25  1  1  0  0  0
 23  5  1  0  0  0  0
 25 24  2  0  0  0  0
M  END
>  <MODEL>
5

>  <REMARK>
 VINA RESULT:      -7.4      4.789      6.456
  Name = 
  1 active torsions:
  status: ('A' for Active; 'I' for Inactive)
    1  A    between atoms: N_6  and  C_15
                            x       y       z     vdW  Elec       q    Type
                         _______ _______ _______ _____ _____    ______ ____

>  <TORSDO>
F 1

$$$$
=
 OpenBabel10272400533D

 25 29  0  0  1  0  0  0  0  0999 V2000
  187.9370  177.6170  145.4410 N   0  0  0  0  0  0  0  0  0  0  0  0
  186.9080  177.3780  144.4310 C   0  0  2  0  0  3  0  0  0  0  0  0
  186.5450  179.0160  146.7810 C   0  0  0  0  0  3  0  0  0  0  0  0
  189.0360  176.7270  145.7800 C   0  0  2  0  0  3  0  0  0  0  0  0
  187.1650  178.5310  142.2340 N   0  0  2  0  0  0  0  0  0  0  0  0
  191.6220  176.1010  146.7620 C   0  0  0  0  0  2  0  0  0  0  0  0
  185.6100  179.0610  145.6920 N   0  0  0  0  0  0  0  0  0  0  0  0
  189.4050  177.1810  147.1710 C   0  0  0  0  0  0  0  0  0  0  0  0
  190.7440  176.8670  147.7710 C   0  0  0  0  0  2  0  0  0  0  0  0
  184.7250  178.4700  143.5710 N   0  0  0  0  0  0  0  0  0  0  0  0
  183.5470  179.3010  143.7750 C   0  0  0  0  0  1  0  0  0  0  0  0
  187.5460  177.3550  143.0320 C   0  0  0  0  0  2  0  0  0  0  0  0
  191.4540  176.6310  145.3540 C   0  0  0  0  0  3  0  0  0  0  0  0
  187.6580  178.3120  146.6390 C   0  0  0  0  0  0  0  0  0  0  0  0
  188.6160  178.0850  147.6580 N   0  0  0  0  0  0  0  0  0  0  0  0
  184.8130  177.7180  142.3260 C   0  0  0  0  0  2  0  0  0  0  0  0
  190.2290  176.9270  144.8860 C   0  0  0  0  0  3  0  0  0  0  0  0
  185.9640  178.2280  141.4520 C   0  0  0  0  0  2  0  0  0  0  0  0
  185.7350  178.3580  144.5950 C   0  0  0  0  0  0  0  0  0  0  0  0
  188.1730  178.4300  139.7570 S   0  0  0  0  0  0  0  0  0  0  0  0
  187.5430  177.1140  139.3920 O   0  0  0  0  0  0  0  0  0  0  0  0
  188.8860  179.1490  138.6480 O   0  0  0  0  0  0  0  0  0  0  0  0
  188.1950  179.0530  141.3080 C   0  0  2  0  0  3  0  0  0  0  0  0
  190.4640  177.5970  141.6800 C   0  0  0  0  0  2  0  0  0  0  0  0
  189.3690  178.1560  141.1760 C   0  0  0  0  0  0  0  0  0  0  0  0
  1  4  1  0  0  0  0
  1 14  1  0  0  0  0
  2 12  1  6  0  0  0
  2 19  1  0  0  0  0
  2  1  1  0  0  0  0
  4 17  1  6  0  0  0
  4  8  1  0  0  0  0
  5 18  1  6  0  0  0
  5 12  1  0  0  0  0
  6  9  1  0  0  0  0
  7  3  1  0  0  0  0
  8 15  2  0  0  0  0
  8  9  1  0  0  0  0
 10 11  1  0  0  0  0
 10 19  1  0  0  0  0
 13  6  1  0  0  0  0
 14  3  2  0  0  0  0
 14 15  1  0  0  0  0
 16 10  1  0  0  0  0
 17 13  2  0  0  0  0
 18 16  1  0  0  0  0
 19  7  2  0  0  0  0
 20 25  1  0  0  0  0
 20 23  1  0  0  0  0
 21 20  2  0  0  0  0
 22 20  2  0  0  0  0
 23 25  1  1  0  0  0
 23  5  1  0  0  0  0
 25 24  2  0  0  0  0
M  END
>  <MODEL>
6

>  <REMARK>
 VINA RESULT:      -7.4      3.345      6.265
  Name = 
  1 active torsions:
  status: ('A' for Active; 'I' for Inactive)
    1  A    between atoms: N_6  and  C_15
                            x       y       z     vdW  Elec       q    Type
                         _______ _______ _______ _____ _____    ______ ____

>  <TORSDO>
F 1

$$$$
=
 OpenBabel10272400533D

 25 29  0  0  1  0  0  0  0  0999 V2000
  189.3750  177.4500  144.0140 N   0  0  0  0  0  0  0  0  0  0  0  0
  189.1680  178.1120  142.7270 C   0  0  2  0  0  3  0  0  0  0  0  0
  190.7400  175.7200  143.1010 C   0  0  0  0  0  3  0  0  0  0  0  0
  189.3510  178.0820  145.3230 C   0  0  2  0  0  3  0  0  0  0  0  0
  186.9250  177.8800  141.6620 N   0  0  2  0  0  0  0  0  0  0  0  0
  188.9960  178.1450  148.1360 C   0  0  0  0  0  2  0  0  0  0  0  0
  190.3350  176.1460  141.7910 N   0  0  0  0  0  0  0  0  0  0  0  0
  190.1370  177.1100  146.1680 C   0  0  0  0  0  0  0  0  0  0  0  0
  190.0240  177.0980  147.6640 C   0  0  0  0  0  2  0  0  0  0  0  0
  189.2710  177.5520  140.2030 N   0  0  0  0  0  0  0  0  0  0  0  0
  189.7890  176.7700  139.0900 C   0  0  0  0  0  1  0  0  0  0  0  0
  187.7260  178.6370  142.6360 C   0  0  0  0  0  2  0  0  0  0  0  0
  187.7930  178.2070  147.2190 C   0  0  0  0  0  3  0  0  0  0  0  0
  190.2670  176.3640  144.1570 C   0  0  0  0  0  0  0  0  0  0  0  0
  190.6590  176.1310  145.4990 N   0  0  0  0  0  0  0  0  0  0  0  0
  188.4570  178.7190  139.8880 C   0  0  0  0  0  2  0  0  0  0  0  0
  187.9590  178.1780  145.8850 C   0  0  0  0  0  3  0  0  0  0  0  0
  187.0090  178.5230  140.3490 C   0  0  0  0  0  2  0  0  0  0  0  0
  189.6050  177.2090  141.5640 C   0  0  0  0  0  0  0  0  0  0  0  0
  184.4070  178.5360  141.0370 S   0  0  0  0  0  0  0  0  0  0  0  0
  184.7650  179.7560  140.2320 O   0  0  0  0  0  0  0  0  0  0  0  0
  182.9600  178.1360  141.0160 O   0  0  0  0  0  0  0  0  0  0  0  0
  185.4930  177.7000  141.9930 C   0  0  2  0  0  3  0  0  0  0  0  0
  184.8640  179.4710  143.9620 C   0  0  0  0  0  2  0  0  0  0  0  0
  184.9410  178.8060  142.8140 C   0  0  0  0  0  0  0  0  0  0  0  0
  1 14  1  0  0  0  0
  1  4  1  0  0  0  0
  2 12  1  6  0  0  0
  2  1  1  0  0  0  0
  3 14  2  0  0  0  0
  4 17  1  1  0  0  0
  4  8  1  0  0  0  0
  5 18  1  6  0  0  0
  5 23  1  0  0  0  0
  5 12  1  0  0  0  0
  7  3  1  0  0  0  0
  8  9  1  0  0  0  0
  9  6  1  0  0  0  0
 10 19  1  0  0  0  0
 11 10  1  0  0  0  0
 13  6  1  0  0  0  0
 14 15  1  0  0  0  0
 15  8  2  0  0  0  0
 16 10  1  0  0  0  0
 16 18  1  0  0  0  0
 17 13  2  0  0  0  0
 19  7  2  0  0  0  0
 19  2  1  0  0  0  0
 20 23  1  0  0  0  0
 20 25  1  0  0  0  0
 21 20  2  0  0  0  0
 22 20  2  0  0  0  0
 23 25  1  1  0  0  0
 25 24  2  0  0  0  0
M  END
>  <MODEL>
7

>  <REMARK>
 VINA RESULT:      -7.3      3.707      5.692
  Name = 
  1 active torsions:
  status: ('A' for Active; 'I' for Inactive)
    1  A    between atoms: N_6  and  C_15
                            x       y       z     vdW  Elec       q    Type
                         _______ _______ _______ _____ _____    ______ ____

>  <TORSDO>
F 1

$$$$
=
 OpenBabel10272400533D

 25 29  0  0  1  0  0  0  0  0999 V2000
  189.3830  177.4180  143.1130 N   0  0  0  0  0  0  0  0  0  0  0  0
  188.4660  177.0710  144.1970 C   0  0  2  0  0  3  0  0  0  0  0  0
  191.1280  178.1240  144.5770 C   0  0  0  0  0  3  0  0  0  0  0  0
  189.4060  176.8310  141.7830 C   0  0  2  0  0  3  0  0  0  0  0  0
  186.5380  178.5990  144.6060 N   0  0  2  0  0  0  0  0  0  0  0  0
  189.9430  176.8050  138.9980 C   0  0  0  0  0  2  0  0  0  0  0  0
  190.1830  178.0840  145.6580 N   0  0  0  0  0  0  0  0  0  0  0  0
  190.8100  177.1320  141.3190 C   0  0  0  0  0  0  0  0  0  0  0  0
  191.1800  177.1120  139.8650 C   0  0  0  0  0  2  0  0  0  0  0  0
  188.0990  177.6310  146.6970 N   0  0  0  0  0  0  0  0  0  0  0  0
  188.6000  178.0500  147.9980 C   0  0  0  0  0  1  0  0  0  0  0  0
  187.0300  177.4630  143.8130 C   0  0  0  0  0  2  0  0  0  0  0  0
  188.7010  177.4930  139.5240 C   0  0  0  0  0  3  0  0  0  0  0  0
  190.7210  177.7960  143.3600 C   0  0  0  0  0  0  0  0  0  0  0  0
  191.5580  177.6820  142.2230 N   0  0  0  0  0  0  0  0  0  0  0  0
  186.7240  177.1530  146.6250 C   0  0  0  0  0  2  0  0  0  0  0  0
  188.4440  177.5050  140.8430 C   0  0  0  0  0  3  0  0  0  0  0  0
  185.8500  178.1050  145.8010 C   0  0  0  0  0  2  0  0  0  0  0  0
  188.9580  177.6390  145.5380 C   0  0  0  0  0  0  0  0  0  0  0  0
  183.9980  179.3470  144.2200 S   0  0  0  0  0  0  0  0  0  0  0  0
  183.3860  178.0730  144.7340 O   0  0  0  0  0  0  0  0  0  0  0  0
  183.0380  180.4560  143.8980 O   0  0  0  0  0  0  0  0  0  0  0  0
  185.6290  179.5380  143.9100 C   0  0  2  0  0  3  0  0  0  0  0  0
  185.1090  178.5150  141.4420 C   0  0  0  0  0  2  0  0  0  0  0  0
  185.0140  178.9560  142.6920 C   0  0  0  0  0  0  0  0  0  0  0  0
  1 14  1  0  0  0  0
  1  2  1  0  0  0  0
  2 12  1  6  0  0  0
  2 19  1  0  0  0  0
  3  7  1  0  0  0  0
  4 17  1  6  0  0  0
  4  1  1  0  0  0  0
  5 12  1  6  0  0  0
  5 18  1  0  0  0  0
  6 13  1  0  0  0  0
  6  9  1  0  0  0  0
  8  4  1  0  0  0  0
  8 15  2  0  0  0  0
  9  8  1  0  0  0  0
 10 11  1  0  0  0  0
 13 17  2  0  0  0  0
 14  3  2  0  0  0  0
 15 14  1  0  0  0  0
 16 10  1  0  0  0  0
 18 16  1  0  0  0  0
 19  7  2  0  0  0  0
 19 10  1  0  0  0  0
 20 21  2  0  0  0  0
 22 20  2  0  0  0  0
 23 25  1  6  0  0  0
 23 20  1  0  0  0  0
 23  5  1  0  0  0  0
 24 25  2  0  0  0  0
 25 20  1  0  0  0  0
M  END
>  <MODEL>
8

>  <REMARK>
 VINA RESULT:      -7.0      3.379      6.226
  Name = 
  1 active torsions:
  status: ('A' for Active; 'I' for Inactive)
    1  A    between atoms: N_6  and  C_15
                            x       y       z     vdW  Elec       q    Type
                         _______ _______ _______ _____ _____    ______ ____

>  <TORSDO>
F 1

$$$$
=
 OpenBabel10272400533D

 25 29  0  0  1  0  0  0  0  0999 V2000
  187.5600  177.8540  143.0900 N   0  0  0  0  0  0  0  0  0  0  0  0
  187.9040  178.3850  141.7730 C   0  0  2  0  0  3  0  0  0  0  0  0
  189.1940  176.1190  143.0130 C   0  0  0  0  0  3  0  0  0  0  0  0
  186.9850  178.6010  144.1980 C   0  0  2  0  0  3  0  0  0  0  0  0
  186.3150  177.9440  139.9030 N   0  0  2  0  0  0  0  0  0  0  0  0
  185.4850  178.9040  146.5860 C   0  0  0  0  0  2  0  0  0  0  0  0
  189.3720  176.4020  141.6160 N   0  0  0  0  0  0  0  0  0  0  0  0
  187.3530  177.7510  145.3890 C   0  0  0  0  0  0  0  0  0  0  0  0
  186.6240  177.8710  146.6950 C   0  0  0  0  0  2  0  0  0  0  0  0
  189.0590  177.6020  139.5930 N   0  0  0  0  0  0  0  0  0  0  0  0
  190.0000  176.7480  138.8830 C   0  0  0  0  0  1  0  0  0  0  0  0
  186.6290  178.8260  141.0370 C   0  0  0  0  0  2  0  0  0  0  0  0
  184.7760  178.8200  145.2510 C   0  0  0  0  0  3  0  0  0  0  0  0
  188.3180  176.8320  143.7040 C   0  0  0  0  0  0  0  0  0  0  0  0
  188.1140  176.7430  145.1030 N   0  0  0  0  0  0  0  0  0  0  0  0
  188.4420  178.6920  138.8480 C   0  0  0  0  0  2  0  0  0  0  0  0
  185.4850  178.6790  144.1180 C   0  0  0  0  0  3  0  0  0  0  0  0
  186.9350  178.4670  138.6840 C   0  0  0  0  0  2  0  0  0  0  0  0
  188.7960  177.4020  140.9970 C   0  0  0  0  0  0  0  0  0  0  0  0
  184.0590  179.0010  138.9270 S   0  0  0  0  0  0  0  0  0  0  0  0
  184.5180  180.4310  139.0000 O   0  0  0  0  0  0  0  0  0  0  0  0
  182.7380  178.7680  138.2510 O   0  0  0  0  0  0  0  0  0  0  0  0
  184.8770  177.7230  139.6260 C   0  0  2  0  0  3  0  0  0  0  0  0
  183.4930  178.2980  141.8980 C   0  0  0  0  0  2  0  0  0  0  0  0
  183.9890  178.2980  140.6650 C   0  0  0  0  0  0  0  0  0  0  0  0
  1 14  1  0  0  0  0
  1  4  1  0  0  0  0
  2 12  1  6  0  0  0
  2  1  1  0  0  0  0
  3 14  2  0  0  0  0
  4 17  1  6  0  0  0
  4  8  1  0  0  0  0
  5 18  1  6  0  0  0
  5 12  1  0  0  0  0
  6  9  1  0  0  0  0
  7  3  1  0  0  0  0
  8  9  1  0  0  0  0
 10 19  1  0  0  0  0
 11 10  1  0  0  0  0
 13  6  1  0  0  0  0
 14 15  1  0  0  0  0
 15  8  2  0  0  0  0
 16 10  1  0  0  0  0
 17 13  2  0  0  0  0
 18 16  1  0  0  0  0
 19  7  2  0  0  0  0
 19  2  1  0  0  0  0
 20 21  2  0  0  0  0
 20 23  1  0  0  0  0
 20 25  1  0  0  0  0
 22 20  2  0  0  0  0
 23  5  1  0  0  0  0
 23 25  1  1  0  0  0
 25 24  2  0  0  0  0
M  END
>  <MODEL>
9

>  <REMARK>
 VINA RESULT:      -6.9      4.339      5.911
  Name = 
  1 active torsions:
  status: ('A' for Active; 'I' for Inactive)
    1  A    between atoms: N_6  and  C_15
                            x       y       z     vdW  Elec       q    Type
                         _______ _______ _______ _____ _____    ______ ____

>  <TORSDO>
F 1

$$$$
