=
 OpenBabel10272415133D

 34 38  0  0  1  0  0  0  0  0999 V2000
  187.9140  177.6180  144.2290 C   0  0  2  0  0  3  0  0  0  0  0  0
  184.0510  178.1400  144.8120 C   0  0  0  0  0  2  0  0  0  0  0  0
  182.8310  179.0840  141.9200 C   0  0  0  0  0  0  0  0  0  0  0  0
  185.9500  177.9590  146.3150 O   0  0  0  0  0  0  0  0  0  0  0  0
  189.6480  177.7060  146.0520 C   0  0  0  0  0  3  0  0  0  0  0  0
  189.0210  177.9660  148.3780 C   0  0  0  0  0  3  0  0  0  0  0  0
  182.9410  178.8540  140.5530 O   0  0  0  0  0  0  0  0  0  0  0  0
  190.0070  177.8150  147.3990 C   0  0  0  0  0  3  0  0  0  0  0  0
  187.3040  177.8950  146.6700 C   0  0  0  0  0  0  0  0  0  0  0  0
  188.2990  177.7490  145.6800 C   0  0  0  0  0  0  0  0  0  0  0  0
  187.6710  178.0090  148.0140 C   0  0  0  0  0  3  0  0  0  0  0  0
  183.9040  179.5050  144.1520 C   0  0  0  0  0  2  0  0  0  0  0  0
  181.6940  179.0550  142.4600 O   0  0  0  0  0  1  0  0  0  0  0  0
  184.0010  179.3530  142.7040 N   0  0  0  0  0  0  0  0  0  0  0  0
  185.3170  179.3230  142.0780 C   0  0  0  0  0  2  0  0  0  0  0  0
  185.5050  177.6860  144.9860 C   0  0  2  0  0  3  0  0  0  0  0  0
  186.0900  178.0850  142.5110 C   0  0  0  0  0  2  0  0  0  0  0  0
  186.5260  178.2300  143.9670 C   0  0  2  0  0  3  0  0  0  0  0  0
  188.0660  176.1800  143.7090 C   0  0  0  0  0  2  0  0  0  0  0  0
  189.3840  175.9430  142.9810 C   0  0  0  0  0  2  0  0  0  0  0  0
  189.7800  177.1480  142.2690 N   0  0  0  0  0  2  0  0  0  0  0  0
  188.6350  178.3210  138.9020 C   0  0  0  0  0  3  0  0  0  0  0  0
  190.4410  176.4950  140.0100 C   0  0  0  0  0  3  0  0  0  0  0  0
  190.0580  176.6270  135.7860 C   0  0  1  0  0  3  0  0  0  0  0  0
  189.3130  177.7100  136.5770 C   0  0  0  0  0  2  0  0  0  0  0  0
  189.4180  177.5240  138.0620 C   0  0  0  0  0  0  0  0  0  0  0  0
  191.1360  175.7020  137.7440 C   0  0  0  0  0  2  0  0  0  0  0  0
  190.3400  176.6190  138.6220 C   0  0  0  0  0  0  0  0  0  0  0  0
  191.3400  176.2760  136.4110 N   0  0  0  0  0  2  0  0  0  0  0  0
  189.6550  177.2910  140.8500 C   0  0  0  0  0  0  0  0  0  0  0  0
  188.7500  178.2030  140.2880 C   0  0  0  0  0  3  0  0  0  0  0  0
  189.2170  175.4210  135.4840 C   0  0  0  0  0  0  0  0  0  0  0  0
  187.9010  175.3800  135.9230 O   0  0  0  0  0  1  0  0  0  0  0  0
  189.6810  174.4630  134.8110 O   0  0  0  0  0  0  0  0  0  0  0  0
  1 19  1  1  0  0  0
  1 10  1  0  0  0  0
  3 13  1  0  0  0  0
  3 14  1  0  0  0  0
  4  9  1  0  0  0  0
  5  8  1  0  0  0  0
  7  3  2  0  0  0  0
  8  6  2  0  0  0  0
  9 11  2  0  0  0  0
 10  5  2  0  0  0  0
 10  9  1  0  0  0  0
 11  6  1  0  0  0  0
 12  2  1  0  0  0  0
 14 12  1  0  0  0  0
 15 17  1  0  0  0  0
 15 14  1  0  0  0  0
 16  2  1  6  0  0  0
 16  4  1  0  0  0  0
 18 17  1  6  0  0  0
 18  1  1  0  0  0  0
 18 16  1  0  0  0  0
 20 19  1  0  0  0  0
 21 20  1  0  0  0  0
 22 31  1  0  0  0  0
 23 30  1  0  0  0  0
 24 32  1  1  0  0  0
 24 29  1  0  0  0  0
 24 25  1  0  0  0  0
 25 26  1  0  0  0  0
 26 28  1  0  0  0  0
 26 22  2  0  0  0  0
 27 28  1  0  0  0  0
 28 23  2  0  0  0  0
 29 27  1  0  0  0  0
 30 21  1  0  0  0  0
 31 30  2  0  0  0  0
 32 33  1  0  0  0  0
 34 32  2  0  0  0  0
M  END
>  <MODEL>
1

>  <REMARK>
 VINA RESULT:      -9.1      0.000      0.000
  Name = 
  5 active torsions:
  status: ('A' for Active; 'I' for Inactive)
    1  A    between atoms: C_1  and  C_9
    2  A    between atoms: CA_7  and  C_11
    3  A    between atoms: C_8  and  C_9
    4  A    between atoms: C_8  and  N_18
    5  A    between atoms: N_18  and  C_30
                            x       y       z     vdW  Elec       q    Type
                         _______ _______ _______ _____ _____    ______ ____

>  <TORSDO>
F 5

$$$$
=
 OpenBabel10272415133D

 34 38  0  0  1  0  0  0  0  0999 V2000
  184.9930  178.2640  142.6910 C   0  0  2  0  0  3  0  0  0  0  0  0
  185.7960  179.2190  146.4290 C   0  0  0  0  0  2  0  0  0  0  0  0
  188.6800  177.8180  147.1080 C   0  0  0  0  0  0  0  0  0  0  0  0
  183.7640  179.2700  145.1000 O   0  0  0  0  0  0  0  0  0  0  0  0
  182.6770  178.2330  141.7010 C   0  0  0  0  0  3  0  0  0  0  0  0
  180.7510  178.9650  142.9750 C   0  0  0  0  0  3  0  0  0  0  0  0
  189.9240  177.5380  146.5530 O   0  0  0  0  0  0  0  0  0  0  0  0
  181.3020  178.4650  141.7920 C   0  0  0  0  0  3  0  0  0  0  0  0
  182.9520  179.0130  143.9880 C   0  0  0  0  0  0  0  0  0  0  0  0
  183.5080  178.5020  142.7950 C   0  0  0  0  0  0  0  0  0  0  0  0
  181.5740  179.2360  144.0720 C   0  0  0  0  0  3  0  0  0  0  0  0
  186.1740  177.8350  146.9410 C   0  0  0  0  0  2  0  0  0  0  0  0
  188.6200  178.3820  148.2320 O   0  0  0  0  0  1  0  0  0  0  0  0
  187.4810  177.4640  146.4080 N   0  0  0  0  0  0  0  0  0  0  0  0
  187.5640  176.8670  145.0800 C   0  0  0  0  0  2  0  0  0  0  0  0
  185.1890  179.2170  145.0210 C   0  0  2  0  0  3  0  0  0  0  0  0
  187.1330  177.8650  144.0140 C   0  0  0  0  0  2  0  0  0  0  0  0
  185.6230  178.0750  144.0820 C   0  0  2  0  0  3  0  0  0  0  0  0
  185.6970  179.3240  141.8290 C   0  0  0  0  0  2  0  0  0  0  0  0
  186.1740  178.7850  140.4860 C   0  0  0  0  0  2  0  0  0  0  0  0
  187.6280  178.7380  140.4600 N   0  0  0  0  0  2  0  0  0  0  0  0
  188.5170  177.2630  137.1340 C   0  0  0  0  0  3  0  0  0  0  0  0
  189.6970  177.7470  139.6240 C   0  0  0  0  0  3  0  0  0  0  0  0
  191.9840  175.7210  136.6770 C   0  0  1  0  0  3  0  0  0  0  0  0
  190.6270  176.2810  136.2300 C   0  0  0  0  0  2  0  0  0  0  0  0
  189.8440  176.8860  137.3570 C   0  0  0  0  0  0  0  0  0  0  0  0
  191.8400  176.6870  138.8900 C   0  0  0  0  0  2  0  0  0  0  0  0
  190.4430  177.1480  138.6040 C   0  0  0  0  0  0  0  0  0  0  0  0
  192.6360  176.5910  137.6640 N   0  0  0  0  0  2  0  0  0  0  0  0
  188.3680  178.1220  139.4010 C   0  0  0  0  0  0  0  0  0  0  0  0
  187.7810  177.8740  138.1510 C   0  0  0  0  0  3  0  0  0  0  0  0
  191.9210  174.2900  137.1260 C   0  0  0  0  0  0  0  0  0  0  0  0
  190.6860  173.6970  137.3470 O   0  0  0  0  0  1  0  0  0  0  0  0
  192.9730  173.6130  137.2720 O   0  0  0  0  0  0  0  0  0  0  0  0
  1 19  1  1  0  0  0
  1 10  1  0  0  0  0
  1 18  1  0  0  0  0
  2 12  1  0  0  0  0
  3 13  1  0  0  0  0
  5  8  2  0  0  0  0
  5 10  1  0  0  0  0
  6 11  2  0  0  0  0
  7  3  2  0  0  0  0
  8  6  1  0  0  0  0
  9 11  1  0  0  0  0
  9  4  1  0  0  0  0
 10  9  2  0  0  0  0
 14 12  1  0  0  0  0
 14  3  1  0  0  0  0
 15 14  1  0  0  0  0
 16  4  1  0  0  0  0
 16  2  1  1  0  0  0
 17 15  1  0  0  0  0
 18 17  1  6  0  0  0
 18 16  1  0  0  0  0
 20 19  1  0  0  0  0
 21 20  1  0  0  0  0
 22 26  2  0  0  0  0
 22 31  1  0  0  0  0
 24 32  1  1  0  0  0
 24 29  1  0  0  0  0
 25 24  1  0  0  0  0
 25 26  1  0  0  0  0
 26 28  1  0  0  0  0
 28 27  1  0  0  0  0
 28 23  2  0  0  0  0
 29 27  1  0  0  0  0
 30 23  1  0  0  0  0
 30 21  1  0  0  0  0
 31 30  2  0  0  0  0
 32 34  2  0  0  0  0
 32 33  1  0  0  0  0
M  END
>  <MODEL>
2

>  <REMARK>
 VINA RESULT:      -9.1      2.067      4.986
  Name = 
  5 active torsions:
  status: ('A' for Active; 'I' for Inactive)
    1  A    between atoms: C_1  and  C_9
    2  A    between atoms: CA_7  and  C_11
    3  A    between atoms: C_8  and  C_9
    4  A    between atoms: C_8  and  N_18
    5  A    between atoms: N_18  and  C_30
                            x       y       z     vdW  Elec       q    Type
                         _______ _______ _______ _____ _____    ______ ____

>  <TORSDO>
F 5

$$$$
=
 OpenBabel10272415133D

 34 38  0  0  1  0  0  0  0  0999 V2000
  184.4160  178.1150  142.0860 C   0  0  2  0  0  3  0  0  0  0  0  0
  185.2310  179.4000  145.7210 C   0  0  0  0  0  2  0  0  0  0  0  0
  187.9580  177.8270  146.6340 C   0  0  0  0  0  0  0  0  0  0  0  0
  183.2400  179.4880  144.3340 O   0  0  0  0  0  0  0  0  0  0  0  0
  182.1290  178.1850  141.0370 C   0  0  0  0  0  3  0  0  0  0  0  0
  180.2540  179.2240  142.1660 C   0  0  0  0  0  3  0  0  0  0  0  0
  189.1820  177.3760  146.1490 O   0  0  0  0  0  0  0  0  0  0  0  0
  180.7790  178.5480  141.0610 C   0  0  0  0  0  3  0  0  0  0  0  0
  182.4290  179.1840  143.2330 C   0  0  0  0  0  0  0  0  0  0  0  0
  182.9590  178.4960  142.1200 C   0  0  0  0  0  0  0  0  0  0  0  0
  181.0770  179.5390  143.2520 C   0  0  0  0  0  3  0  0  0  0  0  0
  185.4690  178.0530  146.3910 C   0  0  0  0  0  2  0  0  0  0  0  0
  187.9290  178.5150  147.6880 O   0  0  0  0  0  1  0  0  0  0  0  0
  186.7460  177.5080  145.9400 N   0  0  0  0  0  0  0  0  0  0  0  0
  186.7990  176.7630  144.6880 C   0  0  0  0  0  2  0  0  0  0  0  0
  184.6550  179.2980  144.3040 C   0  0  2  0  0  3  0  0  0  0  0  0
  186.4840  177.6720  143.5080 C   0  0  0  0  0  2  0  0  0  0  0  0
  184.9990  178.0240  143.5080 C   0  0  2  0  0  3  0  0  0  0  0  0
  185.2330  179.0050  141.1360 C   0  0  0  0  0  2  0  0  0  0  0  0
  185.5350  178.3380  139.8000 C   0  0  0  0  0  2  0  0  0  0  0  0
  186.8240  178.7900  139.2990 N   0  0  0  0  0  2  0  0  0  0  0  0
  190.1380  177.0650  139.5530 C   0  0  0  0  0  3  0  0  0  0  0  0
  188.4290  178.6190  141.1310 C   0  0  0  0  0  3  0  0  0  0  0  0
  191.9830  177.1170  142.9000 C   0  0  1  0  0  3  0  0  0  0  0  0
  191.8230  176.9020  141.3900 C   0  0  0  0  0  2  0  0  0  0  0  0
  190.4960  177.3700  140.8700 C   0  0  0  0  0  0  0  0  0  0  0  0
  189.9700  178.4450  143.0920 C   0  0  0  0  0  2  0  0  0  0  0  0
  189.6430  178.1670  141.6560 C   0  0  0  0  0  0  0  0  0  0  0  0
  191.4150  178.4010  143.3340 N   0  0  0  0  0  2  0  0  0  0  0  0
  188.0710  178.3130  139.8150 C   0  0  0  0  0  0  0  0  0  0  0  0
  188.9300  177.5300  139.0290 C   0  0  0  0  0  3  0  0  0  0  0  0
  191.4890  175.9630  143.7230 C   0  0  0  0  0  0  0  0  0  0  0  0
  191.8710  175.8610  145.0530 O   0  0  0  0  0  1  0  0  0  0  0  0
  190.7070  175.1070  143.2310 O   0  0  0  0  0  0  0  0  0  0  0  0
  1 19  1  6  0  0  0
  1 10  1  0  0  0  0
  1 18  1  0  0  0  0
  2 12  1  0  0  0  0
  3 13  1  0  0  0  0
  5  8  2  0  0  0  0
  5 10  1  0  0  0  0
  6 11  2  0  0  0  0
  7  3  2  0  0  0  0
  8  6  1  0  0  0  0
  9 11  1  0  0  0  0
  9  4  1  0  0  0  0
 10  9  2  0  0  0  0
 14 12  1  0  0  0  0
 14  3  1  0  0  0  0
 15 14  1  0  0  0  0
 16  4  1  0  0  0  0
 16  2  1  1  0  0  0
 17 15  1  0  0  0  0
 18 17  1  6  0  0  0
 18 16  1  0  0  0  0
 20 19  1  0  0  0  0
 21 20  1  0  0  0  0
 21 30  1  0  0  0  0
 22 26  1  0  0  0  0
 23 28  1  0  0  0  0
 24 29  1  0  0  0  0
 24 32  1  1  0  0  0
 25 24  1  0  0  0  0
 26 25  1  0  0  0  0
 26 28  2  0  0  0  0
 27 29  1  0  0  0  0
 28 27  1  0  0  0  0
 30 23  2  0  0  0  0
 31 22  2  0  0  0  0
 31 30  1  0  0  0  0
 32 33  1  0  0  0  0
 34 32  2  0  0  0  0
M  END
>  <MODEL>
3

>  <REMARK>
 VINA RESULT:      -8.8      2.979      6.148
  Name = 
  5 active torsions:
  status: ('A' for Active; 'I' for Inactive)
    1  A    between atoms: C_1  and  C_9
    2  A    between atoms: CA_7  and  C_11
    3  A    between atoms: C_8  and  C_9
    4  A    between atoms: C_8  and  N_18
    5  A    between atoms: N_18  and  C_30
                            x       y       z     vdW  Elec       q    Type
                         _______ _______ _______ _____ _____    ______ ____

>  <TORSDO>
F 5

$$$$
=
 OpenBabel10272415133D

 34 38  0  0  1  0  0  0  0  0999 V2000
  184.8900  178.2840  142.7000 C   0  0  2  0  0  3  0  0  0  0  0  0
  185.9400  179.1190  146.4060 C   0  0  0  0  0  2  0  0  0  0  0  0
  188.9010  177.7760  146.8190 C   0  0  0  0  0  0  0  0  0  0  0  0
  183.8150  179.1630  145.2300 O   0  0  0  0  0  0  0  0  0  0  0  0
  182.5100  178.2250  141.8800 C   0  0  0  0  0  3  0  0  0  0  0  0
  180.6640  178.8530  143.3180 C   0  0  0  0  0  3  0  0  0  0  0  0
  190.1080  177.5520  146.1650 O   0  0  0  0  0  0  0  0  0  0  0  0
  181.1390  178.4140  142.0790 C   0  0  0  0  0  3  0  0  0  0  0  0
  182.9310  178.9250  144.1700 C   0  0  0  0  0  0  0  0  0  0  0  0
  183.4110  178.4750  142.9210 C   0  0  0  0  0  0  0  0  0  0  0  0
  181.5580  179.1060  144.3630 C   0  0  0  0  0  3  0  0  0  0  0  0
  186.3890  177.7280  146.8340 C   0  0  0  0  0  2  0  0  0  0  0  0
  188.9080  178.2950  147.9660 O   0  0  0  0  0  1  0  0  0  0  0  0
  187.6630  177.4150  146.1930 N   0  0  0  0  0  0  0  0  0  0  0  0
  187.6640  176.8710  144.8410 C   0  0  0  0  0  2  0  0  0  0  0  0
  185.2320  179.1530  145.0460 C   0  0  2  0  0  3  0  0  0  0  0  0
  187.1310  177.8950  143.8490 C   0  0  0  0  0  2  0  0  0  0  0  0
  185.6250  178.0600  144.0340 C   0  0  2  0  0  3  0  0  0  0  0  0
  185.5010  179.3950  141.8330 C   0  0  0  0  0  2  0  0  0  0  0  0
  185.8090  178.9440  140.4100 C   0  0  0  0  0  2  0  0  0  0  0  0
  184.8570  179.5380  139.4850 N   0  0  0  0  0  2  0  0  0  0  0  0
  181.6030  178.6450  137.8610 C   0  0  0  0  0  3  0  0  0  0  0  0
  184.0020  177.4220  138.6180 C   0  0  0  0  0  3  0  0  0  0  0  0
  180.9520  174.9940  136.9410 C   0  0  1  0  0  3  0  0  0  0  0  0
  180.7100  176.5080  136.9270 C   0  0  0  0  0  2  0  0  0  0  0  0
  181.7870  177.2790  137.6320 C   0  0  0  0  0  0  0  0  0  0  0  0
  183.1940  175.1920  137.8270 C   0  0  0  0  0  2  0  0  0  0  0  0
  183.0020  176.6690  137.9960 C   0  0  0  0  0  0  0  0  0  0  0  0
  182.3680  174.6630  136.7380 N   0  0  0  0  0  2  0  0  0  0  0  0
  183.8170  178.7890  138.8500 C   0  0  0  0  0  0  0  0  0  0  0  0
  182.6100  179.3960  138.4710 C   0  0  0  0  0  3  0  0  0  0  0  0
  180.3690  174.3070  138.1410 C   0  0  0  0  0  0  0  0  0  0  0  0
  179.9920  175.0600  139.2440 O   0  0  0  0  0  1  0  0  0  0  0  0
  180.1860  173.0600  138.1460 O   0  0  0  0  0  0  0  0  0  0  0  0
  1 19  1  1  0  0  0
  1 10  1  0  0  0  0
  1 18  1  0  0  0  0
  2 12  1  0  0  0  0
  3 13  1  0  0  0  0
  5  8  2  0  0  0  0
  5 10  1  0  0  0  0
  6 11  2  0  0  0  0
  7  3  2  0  0  0  0
  8  6  1  0  0  0  0
  9 11  1  0  0  0  0
  9  4  1  0  0  0  0
 10  9  2  0  0  0  0
 14  3  1  0  0  0  0
 14 12  1  0  0  0  0
 15 14  1  0  0  0  0
 16  4  1  0  0  0  0
 16  2  1  1  0  0  0
 17 15  1  0  0  0  0
 18 17  1  6  0  0  0
 18 16  1  0  0  0  0
 20 19  1  0  0  0  0
 21 20  1  0  0  0  0
 22 31  1  0  0  0  0
 23 30  1  0  0  0  0
 24 32  1  1  0  0  0
 25 24  1  0  0  0  0
 25 26  1  0  0  0  0
 26 22  2  0  0  0  0
 26 28  1  0  0  0  0
 27 28  1  0  0  0  0
 28 23  2  0  0  0  0
 29 24  1  0  0  0  0
 29 27  1  0  0  0  0
 30 21  1  0  0  0  0
 31 30  2  0  0  0  0
 32 34  2  0  0  0  0
 32 33  1  0  0  0  0
M  END
>  <MODEL>
4

>  <REMARK>
 VINA RESULT:      -8.5      4.235      6.986
  Name = 
  5 active torsions:
  status: ('A' for Active; 'I' for Inactive)
    1  A    between atoms: C_1  and  C_9
    2  A    between atoms: CA_7  and  C_11
    3  A    between atoms: C_8  and  C_9
    4  A    between atoms: C_8  and  N_18
    5  A    between atoms: N_18  and  C_30
                            x       y       z     vdW  Elec       q    Type
                         _______ _______ _______ _____ _____    ______ ____

>  <TORSDO>
F 5

$$$$
=
 OpenBabel10272415133D

 34 38  0  0  1  0  0  0  0  0999 V2000
  188.6520  178.3410  141.6060 C   0  0  2  0  0  3  0  0  0  0  0  0
  190.9020  175.6170  143.3500 C   0  0  0  0  0  2  0  0  0  0  0  0
  191.2510  176.6020  146.4560 C   0  0  0  0  0  0  0  0  0  0  0  0
  190.4540  176.1630  141.0270 O   0  0  0  0  0  0  0  0  0  0  0  0
  188.6060  178.7660  139.1240 C   0  0  0  0  0  3  0  0  0  0  0  0
  189.8600  177.3790  137.5840 C   0  0  0  0  0  3  0  0  0  0  0  0
  190.5570  177.1940  147.5060 O   0  0  0  0  0  1  0  0  0  0  0  0
  188.9940  178.4510  137.8190 C   0  0  0  0  0  3  0  0  0  0  0  0
  189.9510  176.9220  139.9610 C   0  0  0  0  0  0  0  0  0  0  0  0
  189.0820  178.0080  140.2000 C   0  0  0  0  0  0  0  0  0  0  0  0
  190.3400  176.6170  138.6530 C   0  0  0  0  0  3  0  0  0  0  0  0
  191.8990  176.5460  144.0300 C   0  0  0  0  0  2  0  0  0  0  0  0
  191.8820  175.5310  146.6610 O   0  0  0  0  0  0  0  0  0  0  0  0
  191.2490  177.2080  145.1580 N   0  0  0  0  0  0  0  0  0  0  0  0
  190.4650  178.4130  144.9190 C   0  0  0  0  0  2  0  0  0  0  0  0
  189.9680  176.3220  142.3610 C   0  0  2  0  0  3  0  0  0  0  0  0
  189.2390  178.0990  144.0740 C   0  0  0  0  0  2  0  0  0  0  0  0
  189.6620  177.8080  142.6370 C   0  0  2  0  0  3  0  0  0  0  0  0
  187.1990  177.9250  141.8880 C   0  0  0  0  0  2  0  0  0  0  0  0
  186.2880  179.1050  142.2020 C   0  0  0  0  0  2  0  0  0  0  0  0
  185.6030  179.5380  140.9940 N   0  0  0  0  0  2  0  0  0  0  0  0
  182.8740  177.1870  139.9710 C   0  0  0  0  0  3  0  0  0  0  0  0
  185.1320  178.4220  138.8740 C   0  0  0  0  0  3  0  0  0  0  0  0
  182.9530  175.7050  136.4490 C   0  0  1  0  0  3  0  0  0  0  0  0
  182.3360  176.0600  137.8080 C   0  0  0  0  0  2  0  0  0  0  0  0
  183.2220  176.9400  138.6400 C   0  0  0  0  0  0  0  0  0  0  0  0
  184.7810  177.2710  136.6820 C   0  0  0  0  0  2  0  0  0  0  0  0
  184.3470  177.5770  138.0840 C   0  0  0  0  0  0  0  0  0  0  0  0
  183.6520  176.8490  135.8500 N   0  0  0  0  0  2  0  0  0  0  0  0
  184.7860  178.6670  140.2070 C   0  0  0  0  0  0  0  0  0  0  0  0
  183.6540  178.0420  140.7520 C   0  0  0  0  0  3  0  0  0  0  0  0
  183.8000  174.4670  136.4820 C   0  0  0  0  0  0  0  0  0  0  0  0
  184.1140  173.8860  137.7030 O   0  0  0  0  0  1  0  0  0  0  0  0
  184.2020  173.9310  135.4150 O   0  0  0  0  0  0  0  0  0  0  0  0
  1 19  1  1  0  0  0
  1 18  1  0  0  0  0
  2 12  1  0  0  0  0
  3 13  2  0  0  0  0
  3  7  1  0  0  0  0
  4 16  1  0  0  0  0
  5 10  1  0  0  0  0
  6  8  1  0  0  0  0
  6 11  2  0  0  0  0
  8  5  2  0  0  0  0
  9 10  2  0  0  0  0
  9  4  1  0  0  0  0
 10  1  1  0  0  0  0
 11  9  1  0  0  0  0
 12 14  1  0  0  0  0
 14  3  1  0  0  0  0
 15 14  1  0  0  0  0
 16 18  1  0  0  0  0
 16  2  1  1  0  0  0
 17 15  1  0  0  0  0
 18 17  1  1  0  0  0
 19 20  1  0  0  0  0
 21 20  1  0  0  0  0
 22 31  1  0  0  0  0
 23 30  1  0  0  0  0
 24 32  1  1  0  0  0
 24 25  1  0  0  0  0
 25 26  1  0  0  0  0
 26 22  2  0  0  0  0
 27 28  1  0  0  0  0
 28 26  1  0  0  0  0
 28 23  2  0  0  0  0
 29 24  1  0  0  0  0
 29 27  1  0  0  0  0
 30 31  2  0  0  0  0
 30 21  1  0  0  0  0
 32 33  1  0  0  0  0
 34 32  2  0  0  0  0
M  END
>  <MODEL>
5

>  <REMARK>
 VINA RESULT:      -8.3      3.480      6.988
  Name = 
  5 active torsions:
  status: ('A' for Active; 'I' for Inactive)
    1  A    between atoms: C_1  and  C_9
    2  A    between atoms: CA_7  and  C_11
    3  A    between atoms: C_8  and  C_9
    4  A    between atoms: C_8  and  N_18
    5  A    between atoms: N_18  and  C_30
                            x       y       z     vdW  Elec       q    Type
                         _______ _______ _______ _____ _____    ______ ____

>  <TORSDO>
F 5

$$$$
=
 OpenBabel10272415133D

 34 38  0  0  1  0  0  0  0  0999 V2000
  188.4300  177.4980  144.0950 C   0  0  2  0  0  3  0  0  0  0  0  0
  184.8260  177.7150  145.6740 C   0  0  0  0  0  2  0  0  0  0  0  0
  182.9080  178.9990  143.3460 C   0  0  0  0  0  0  0  0  0  0  0  0
  187.0420  177.4230  146.6230 O   0  0  0  0  0  0  0  0  0  0  0  0
  190.5620  177.4160  145.4330 C   0  0  0  0  0  3  0  0  0  0  0  0
  190.5280  177.3010  147.8530 C   0  0  0  0  0  3  0  0  0  0  0  0
  182.6790  178.9760  141.9740 O   0  0  0  0  0  0  0  0  0  0  0  0
  191.2420  177.3480  146.6520 C   0  0  0  0  0  3  0  0  0  0  0  0
  188.4420  177.3840  146.6240 C   0  0  0  0  0  0  0  0  0  0  0  0
  189.1620  177.4370  145.4110 C   0  0  0  0  0  0  0  0  0  0  0  0
  189.1300  177.3210  147.8390 C   0  0  0  0  0  3  0  0  0  0  0  0
  184.4940  179.1500  145.2870 C   0  0  0  0  0  2  0  0  0  0  0  0
  181.9420  178.8300  144.1350 O   0  0  0  0  0  1  0  0  0  0  0  0
  184.2310  179.2160  143.8540 N   0  0  0  0  0  0  0  0  0  0  0  0
  185.3500  179.3490  142.9290 C   0  0  0  0  0  2  0  0  0  0  0  0
  186.2850  177.3220  145.4160 C   0  0  2  0  0  3  0  0  0  0  0  0
  186.2280  178.1070  142.9660 C   0  0  0  0  0  2  0  0  0  0  0  0
  187.0100  178.0630  144.2760 C   0  0  2  0  0  3  0  0  0  0  0  0
  188.4740  176.1600  143.3390 C   0  0  0  0  0  2  0  0  0  0  0  0
  189.6670  176.0440  142.3970 C   0  0  0  0  0  2  0  0  0  0  0  0
  189.5980  177.0810  141.3790 N   0  0  0  0  0  2  0  0  0  0  0  0
  189.7190  176.7390  137.6520 C   0  0  0  0  0  3  0  0  0  0  0  0
  191.4530  176.6700  139.8460 C   0  0  0  0  0  3  0  0  0  0  0  0
  193.0570  175.8980  135.9930 C   0  0  1  0  0  3  0  0  0  0  0  0
  191.5960  176.3610  136.0490 C   0  0  0  0  0  2  0  0  0  0  0  0
  191.0820  176.5080  137.4510 C   0  0  0  0  0  0  0  0  0  0  0  0
  193.4100  176.1750  138.3700 C   0  0  0  0  0  2  0  0  0  0  0  0
  191.9570  176.4930  138.5540 C   0  0  0  0  0  0  0  0  0  0  0  0
  193.8750  176.5410  137.0300 N   0  0  0  0  0  2  0  0  0  0  0  0
  190.0880  176.8990  140.0470 C   0  0  0  0  0  0  0  0  0  0  0  0
  189.2230  176.9290  138.9440 C   0  0  0  0  0  3  0  0  0  0  0  0
  193.2110  174.4050  135.9840 C   0  0  0  0  0  0  0  0  0  0  0  0
  194.3870  173.8370  136.4530 O   0  0  0  0  0  1  0  0  0  0  0  0
  192.2750  173.6620  135.5880 O   0  0  0  0  0  0  0  0  0  0  0  0
  1 19  1  1  0  0  0
  1 18  1  0  0  0  0
  1 10  1  0  0  0  0
  3 14  1  0  0  0  0
  3 13  1  0  0  0  0
  4  9  1  0  0  0  0
  5  8  1  0  0  0  0
  7  3  2  0  0  0  0
  8  6  2  0  0  0  0
  9 11  2  0  0  0  0
 10  5  2  0  0  0  0
 10  9  1  0  0  0  0
 11  6  1  0  0  0  0
 12  2  1  0  0  0  0
 14 12  1  0  0  0  0
 15 17  1  0  0  0  0
 15 14  1  0  0  0  0
 16  2  1  1  0  0  0
 16  4  1  0  0  0  0
 18 17  1  6  0  0  0
 18 16  1  0  0  0  0
 20 19  1  0  0  0  0
 21 20  1  0  0  0  0
 22 31  1  0  0  0  0
 23 30  1  0  0  0  0
 24 32  1  1  0  0  0
 24 25  1  0  0  0  0
 24 29  1  0  0  0  0
 25 26  1  0  0  0  0
 26 22  2  0  0  0  0
 26 28  1  0  0  0  0
 27 28  1  0  0  0  0
 28 23  2  0  0  0  0
 29 27  1  0  0  0  0
 30 21  1  0  0  0  0
 31 30  2  0  0  0  0
 32 33  1  0  0  0  0
 34 32  2  0  0  0  0
M  END
>  <MODEL>
6

>  <REMARK>
 VINA RESULT:      -8.3      1.651      2.075
  Name = 
  5 active torsions:
  status: ('A' for Active; 'I' for Inactive)
    1  A    between atoms: C_1  and  C_9
    2  A    between atoms: CA_7  and  C_11
    3  A    between atoms: C_8  and  C_9
    4  A    between atoms: C_8  and  N_18
    5  A    between atoms: N_18  and  C_30
                            x       y       z     vdW  Elec       q    Type
                         _______ _______ _______ _____ _____    ______ ____

>  <TORSDO>
F 5

$$$$
=
 OpenBabel10272415133D

 34 38  0  0  1  0  0  0  0  0999 V2000
  185.6420  178.1090  142.4870 C   0  0  2  0  0  3  0  0  0  0  0  0
  185.6080  179.2930  146.2460 C   0  0  0  0  0  2  0  0  0  0  0  0
  188.2620  177.9550  147.6270 C   0  0  0  0  0  0  0  0  0  0  0  0
  183.9200  179.2510  144.5010 O   0  0  0  0  0  0  0  0  0  0  0  0
  183.6020  178.0040  141.0150 C   0  0  0  0  0  3  0  0  0  0  0  0
  181.4470  178.7980  141.7870 C   0  0  0  0  0  3  0  0  0  0  0  0
  189.5960  177.6500  147.3780 O   0  0  0  0  0  0  0  0  0  0  0  0
  182.2420  178.2310  140.7870 C   0  0  0  0  0  3  0  0  0  0  0  0
  183.3710  178.9220  143.2550 C   0  0  0  0  0  0  0  0  0  0  0  0
  184.1730  178.3430  142.2470 C   0  0  0  0  0  0  0  0  0  0  0  0
  182.0100  179.1410  143.0200 C   0  0  0  0  0  3  0  0  0  0  0  0
  185.8550  177.9460  146.9110 C   0  0  0  0  0  2  0  0  0  0  0  0
  187.9600  178.5850  148.6740 O   0  0  0  0  0  1  0  0  0  0  0  0
  187.2440  177.5510  146.7020 N   0  0  0  0  0  0  0  0  0  0  0  0
  187.6140  176.8760  145.4640 C   0  0  0  0  0  2  0  0  0  0  0  0
  185.3270  179.2030  144.7420 C   0  0  2  0  0  3  0  0  0  0  0  0
  187.4360  177.8040  144.2720 C   0  0  0  0  0  2  0  0  0  0  0  0
  185.9490  178.0080  143.9920 C   0  0  2  0  0  3  0  0  0  0  0  0
  186.5260  179.1200  141.7400 C   0  0  0  0  0  2  0  0  0  0  0  0
  187.8300  178.5150  141.2320 C   0  0  0  0  0  2  0  0  0  0  0  0
  187.9830  178.7890  139.8120 N   0  0  0  0  0  2  0  0  0  0  0  0
  185.8040  177.1320  137.2570 C   0  0  0  0  0  3  0  0  0  0  0  0
  188.3660  176.8720  138.3490 C   0  0  0  0  0  3  0  0  0  0  0  0
  187.1010  174.0020  135.4890 C   0  0  1  0  0  3  0  0  0  0  0  0
  186.1720  175.2020  135.7160 C   0  0  0  0  0  2  0  0  0  0  0  0
  186.6450  176.1080  136.8150 C   0  0  0  0  0  0  0  0  0  0  0  0
  188.8330  174.8560  136.9460 C   0  0  0  0  0  2  0  0  0  0  0  0
  187.9410  175.9900  137.3510 C   0  0  0  0  0  0  0  0  0  0  0  0
  188.5170  174.3780  135.5970 N   0  0  0  0  0  2  0  0  0  0  0  0
  187.5230  177.8960  138.7930 C   0  0  0  0  0  0  0  0  0  0  0  0
  186.2380  178.0200  138.2440 C   0  0  0  0  0  3  0  0  0  0  0  0
  186.7570  172.8120  136.3350 C   0  0  0  0  0  0  0  0  0  0  0  0
  185.8350  172.9480  137.3640 O   0  0  0  0  0  1  0  0  0  0  0  0
  187.2680  171.6850  136.1020 O   0  0  0  0  0  0  0  0  0  0  0  0
  1 19  1  1  0  0  0
  1 18  1  0  0  0  0
  2 12  1  0  0  0  0
  3 13  1  0  0  0  0
  4 16  1  0  0  0  0
  5 10  1  0  0  0  0
  6 11  2  0  0  0  0
  7  3  2  0  0  0  0
  8  5  2  0  0  0  0
  8  6  1  0  0  0  0
  9  4  1  0  0  0  0
 10  1  1  0  0  0  0
 10  9  2  0  0  0  0
 11  9  1  0  0  0  0
 14 12  1  0  0  0  0
 14  3  1  0  0  0  0
 15 14  1  0  0  0  0
 16  2  1  1  0  0  0
 17 15  1  0  0  0  0
 18 17  1  6  0  0  0
 18 16  1  0  0  0  0
 20 19  1  0  0  0  0
 21 20  1  0  0  0  0
 22 31  1  0  0  0  0
 23 30  1  0  0  0  0
 24 29  1  0  0  0  0
 24 25  1  0  0  0  0
 24 32  1  1  0  0  0
 25 26  1  0  0  0  0
 26 22  2  0  0  0  0
 26 28  1  0  0  0  0
 27 28  1  0  0  0  0
 28 23  2  0  0  0  0
 29 27  1  0  0  0  0
 30 21  1  0  0  0  0
 31 30  2  0  0  0  0
 32 33  1  0  0  0  0
 34 32  2  0  0  0  0
M  END
>  <MODEL>
7

>  <REMARK>
 VINA RESULT:      -8.3      2.456      5.156
  Name = 
  5 active torsions:
  status: ('A' for Active; 'I' for Inactive)
    1  A    between atoms: C_1  and  C_9
    2  A    between atoms: CA_7  and  C_11
    3  A    between atoms: C_8  and  C_9
    4  A    between atoms: C_8  and  N_18
    5  A    between atoms: N_18  and  C_30
                            x       y       z     vdW  Elec       q    Type
                         _______ _______ _______ _____ _____    ______ ____

>  <TORSDO>
F 5

$$$$
=
 OpenBabel10272415133D

 34 38  0  0  1  0  0  0  0  0999 V2000
  187.5490  177.5920  144.6330 C   0  0  2  0  0  3  0  0  0  0  0  0
  191.2220  178.3910  143.4490 C   0  0  0  0  0  2  0  0  0  0  0  0
  191.4340  177.2660  140.3780 C   0  0  0  0  0  0  0  0  0  0  0  0
  190.1600  178.3080  145.6310 O   0  0  0  0  0  0  0  0  0  0  0  0
  186.8510  177.3770  147.0430 C   0  0  0  0  0  3  0  0  0  0  0  0
  188.4040  177.8170  148.8500 C   0  0  0  0  0  3  0  0  0  0  0  0
  190.7110  177.1560  139.1950 O   0  0  0  0  0  0  0  0  0  0  0  0
  187.1270  177.4540  148.4110 C   0  0  0  0  0  3  0  0  0  0  0  0
  189.1390  178.0360  146.5520 C   0  0  0  0  0  0  0  0  0  0  0  0
  187.8520  177.6630  146.1080 C   0  0  0  0  0  0  0  0  0  0  0  0
  189.4090  178.1050  147.9220 C   0  0  0  0  0  3  0  0  0  0  0  0
  191.5770  177.0260  142.8740 C   0  0  0  0  0  2  0  0  0  0  0  0
  192.5960  177.7490  140.3460 O   0  0  0  0  0  1  0  0  0  0  0  0
  190.8610  176.8310  141.6170 N   0  0  0  0  0  0  0  0  0  0  0  0
  189.4920  176.3310  141.6490 C   0  0  0  0  0  2  0  0  0  0  0  0
  189.9030  178.4130  144.2300 C   0  0  2  0  0  3  0  0  0  0  0  0
  188.5660  177.3410  142.3100 C   0  0  0  0  0  2  0  0  0  0  0  0
  188.8340  177.3850  143.8120 C   0  0  2  0  0  3  0  0  0  0  0  0
  186.6900  178.7740  144.1540 C   0  0  0  0  0  2  0  0  0  0  0  0
  185.2520  178.3810  143.8400 C   0  0  0  0  0  2  0  0  0  0  0  0
  184.7230  179.2340  142.7870 N   0  0  0  0  0  2  0  0  0  0  0  0
  183.3430  178.0190  139.5260 C   0  0  0  0  0  3  0  0  0  0  0  0
  185.7910  178.7880  140.6370 C   0  0  0  0  0  3  0  0  0  0  0  0
  185.7570  177.3880  136.6310 C   0  0  1  0  0  3  0  0  0  0  0  0
  184.3910  177.5910  137.2990 C   0  0  0  0  0  2  0  0  0  0  0  0
  184.5000  177.9850  138.7430 C   0  0  0  0  0  0  0  0  0  0  0  0
  186.9940  178.2940  138.5020 C   0  0  0  0  0  2  0  0  0  0  0  0
  185.7280  178.3910  139.2980 C   0  0  0  0  0  0  0  0  0  0  0  0
  186.7340  178.3970  137.0630 N   0  0  0  0  0  2  0  0  0  0  0  0
  184.6330  178.8200  141.4200 C   0  0  0  0  0  0  0  0  0  0  0  0
  183.4080  178.4300  140.8580 C   0  0  0  0  0  3  0  0  0  0  0  0
  186.2820  175.9880  136.7580 C   0  0  0  0  0  0  0  0  0  0  0  0
  185.4620  174.9940  137.2710 O   0  0  0  0  0  1  0  0  0  0  0  0
  187.4460  175.6990  136.3730 O   0  0  0  0  0  0  0  0  0  0  0  0
  1 19  1  6  0  0  0
  1 10  1  0  0  0  0
  3 14  1  0  0  0  0
  4  9  1  0  0  0  0
  5  8  1  0  0  0  0
  7  3  2  0  0  0  0
  8  6  2  0  0  0  0
  9 11  2  0  0  0  0
 10  9  1  0  0  0  0
 10  5  2  0  0  0  0
 11  6  1  0  0  0  0
 12  2  1  0  0  0  0
 13  3  1  0  0  0  0
 14 15  1  0  0  0  0
 14 12  1  0  0  0  0
 15 17  1  0  0  0  0
 16  2  1  6  0  0  0
 16  4  1  0  0  0  0
 18 17  1  6  0  0  0
 18 16  1  0  0  0  0
 18  1  1  0  0  0  0
 20 19  1  0  0  0  0
 21 20  1  0  0  0  0
 22 31  1  0  0  0  0
 23 30  1  0  0  0  0
 24 32  1  1  0  0  0
 24 29  1  0  0  0  0
 24 25  1  0  0  0  0
 25 26  1  0  0  0  0
 26 28  1  0  0  0  0
 26 22  2  0  0  0  0
 27 28  1  0  0  0  0
 28 23  2  0  0  0  0
 29 27  1  0  0  0  0
 30 21  1  0  0  0  0
 31 30  2  0  0  0  0
 32 33  1  0  0  0  0
 34 32  2  0  0  0  0
M  END
>  <MODEL>
8

>  <REMARK>
 VINA RESULT:      -8.3      2.651      5.134
  Name = 
  5 active torsions:
  status: ('A' for Active; 'I' for Inactive)
    1  A    between atoms: C_1  and  C_9
    2  A    between atoms: CA_7  and  C_11
    3  A    between atoms: C_8  and  C_9
    4  A    between atoms: C_8  and  N_18
    5  A    between atoms: N_18  and  C_30
                            x       y       z     vdW  Elec       q    Type
                         _______ _______ _______ _____ _____    ______ ____

>  <TORSDO>
F 5

$$$$
=
 OpenBabel10272415133D

 34 38  0  0  1  0  0  0  0  0999 V2000
  188.9990  177.5630  143.9440 C   0  0  2  0  0  3  0  0  0  0  0  0
  185.1340  177.7940  143.2120 C   0  0  0  0  0  2  0  0  0  0  0  0
  184.8720  178.8680  140.1270 C   0  0  0  0  0  0  0  0  0  0  0  0
  186.4310  177.6240  145.2580 O   0  0  0  0  0  0  0  0  0  0  0  0
  190.0120  177.6270  146.2480 C   0  0  0  0  0  3  0  0  0  0  0  0
  188.6270  177.6750  148.2350 C   0  0  0  0  0  3  0  0  0  0  0  0
  185.4500  178.7470  138.8680 O   0  0  0  0  0  0  0  0  0  0  0  0
  189.8920  177.6590  147.6400 C   0  0  0  0  0  3  0  0  0  0  0  0
  187.5890  177.6210  146.0460 C   0  0  0  0  0  0  0  0  0  0  0  0
  188.8670  177.6110  145.4450 C   0  0  0  0  0  0  0  0  0  0  0  0
  187.4770  177.6590  147.4390 C   0  0  0  0  0  3  0  0  0  0  0  0
  185.1000  179.1910  142.6070 C   0  0  0  0  0  2  0  0  0  0  0  0
  183.6260  178.7280  140.2490 O   0  0  0  0  0  1  0  0  0  0  0  0
  185.6860  179.1530  141.2710 N   0  0  0  0  0  0  0  0  0  0  0  0
  187.1340  179.2520  141.1260 C   0  0  0  0  0  2  0  0  0  0  0  0
  186.4790  177.4220  143.8450 C   0  0  2  0  0  3  0  0  0  0  0  0
  187.8190  178.0380  141.7360 C   0  0  0  0  0  2  0  0  0  0  0  0
  187.7320  178.1030  143.2580 C   0  0  2  0  0  3  0  0  0  0  0  0
  189.4370  176.1790  143.4390 C   0  0  0  0  0  2  0  0  0  0  0  0
  190.9340  176.0870  143.1660 C   0  0  0  0  0  2  0  0  0  0  0  0
  191.3280  177.1150  142.2150 N   0  0  0  0  0  2  0  0  0  0  0  0
  192.4110  176.9180  138.6360 C   0  0  0  0  0  3  0  0  0  0  0  0
  190.1100  176.5380  140.1800 C   0  0  0  0  0  3  0  0  0  0  0  0
  189.7970  176.1070  135.9690 C   0  0  1  0  0  3  0  0  0  0  0  0
  191.2100  176.2940  136.5370 C   0  0  0  0  0  2  0  0  0  0  0  0
  191.2160  176.5430  138.0170 C   0  0  0  0  0  0  0  0  0  0  0  0
  188.7530  176.0030  138.1490 C   0  0  0  0  0  2  0  0  0  0  0  0
  190.0630  176.3330  138.7970 C   0  0  0  0  0  0  0  0  0  0  0  0
  188.9450  175.3170  136.8680 N   0  0  0  0  0  2  0  0  0  0  0  0
  191.3060  176.9150  140.7980 C   0  0  0  0  0  0  0  0  0  0  0  0
  192.4560  177.1080  140.0190 C   0  0  0  0  0  3  0  0  0  0  0  0
  189.1480  177.3920  135.5450 C   0  0  0  0  0  0  0  0  0  0  0  0
  188.2720  177.3920  134.4690 O   0  0  0  0  0  0  0  0  0  0  0  0
  189.3640  178.4620  136.1730 O   0  0  0  0  0  1  0  0  0  0  0  0
  1 19  1  6  0  0  0
  1 10  1  0  0  0  0
  3 13  1  0  0  0  0
  3 14  1  0  0  0  0
  4  9  1  0  0  0  0
  5  8  1  0  0  0  0
  7  3  2  0  0  0  0
  8  6  2  0  0  0  0
  9 11  2  0  0  0  0
 10  9  1  0  0  0  0
 10  5  2  0  0  0  0
 11  6  1  0  0  0  0
 12  2  1  0  0  0  0
 14 12  1  0  0  0  0
 15 14  1  0  0  0  0
 15 17  1  0  0  0  0
 16  2  1  6  0  0  0
 16  4  1  0  0  0  0
 18 17  1  6  0  0  0
 18 16  1  0  0  0  0
 18  1  1  0  0  0  0
 20 19  1  0  0  0  0
 21 20  1  0  0  0  0
 22 31  1  0  0  0  0
 23 30  1  0  0  0  0
 24 32  1  1  0  0  0
 24 25  1  0  0  0  0
 24 29  1  0  0  0  0
 25 26  1  0  0  0  0
 26 22  2  0  0  0  0
 26 28  1  0  0  0  0
 27 28  1  0  0  0  0
 28 23  2  0  0  0  0
 29 27  1  0  0  0  0
 30 21  1  0  0  0  0
 31 30  2  0  0  0  0
 32 34  1  0  0  0  0
 33 32  2  0  0  0  0
M  END
>  <MODEL>
9

>  <REMARK>
 VINA RESULT:      -8.2      1.551      2.081
  Name = 
  5 active torsions:
  status: ('A' for Active; 'I' for Inactive)
    1  A    between atoms: C_1  and  C_9
    2  A    between atoms: CA_7  and  C_11
    3  A    between atoms: C_8  and  C_9
    4  A    between atoms: C_8  and  N_18
    5  A    between atoms: N_18  and  C_30
                            x       y       z     vdW  Elec       q    Type
                         _______ _______ _______ _____ _____    ______ ____

>  <TORSDO>
F 5

$$$$
