=
 OpenBabel10272414303D

 43 47  0  0  1  0  0  0  0  0999 V2000
  190.4340  176.7870  141.1660 C   0  0  0  0  0  2  0  0  0  0  0  0
  188.2330  177.6610  141.5270 O   0  0  0  0  0  0  0  0  0  0  0  0
  188.2800  178.4970  140.3960 C   0  0  1  0  0  3  0  0  0  0  0  0
  189.2700  178.7280  138.1990 O   0  0  0  0  0  1  0  0  0  0  0  0
  189.5290  177.6190  142.0700 C   0  0  1  0  0  3  0  0  0  0  0  0
  190.5070  177.4440  139.7890 C   0  0  2  0  0  3  0  0  0  0  0  0
  189.1190  177.8430  139.2680 C   0  0  1  0  0  3  0  0  0  0  0  0
  192.4390  172.9680  135.5660 C   0  0  0  0  0  0  0  0  0  0  0  0
  191.1950  176.5310  138.8270 C   0  0  0  0  0  0  0  0  0  0  0  0
  192.5070  174.8480  137.0890 C   0  0  0  0  0  0  0  0  0  0  0  0
  191.0670  172.8230  135.8020 C   0  0  0  0  0  3  0  0  0  0  0  0
  193.0710  172.1270  134.7130 F   0  0  0  0  0  0  0  0  0  0  0  0
  191.1260  174.6960  137.3310 C   0  0  0  0  0  0  0  0  0  0  0  0
  193.1590  173.9820  136.2060 C   0  0  0  0  0  3  0  0  0  0  0  0
  190.4080  173.6860  136.6860 C   0  0  0  0  0  3  0  0  0  0  0  0
  190.5060  175.5390  138.1970 N   0  0  0  0  0  0  0  0  0  0  0  0
  192.5640  176.6800  138.5830 C   0  0  0  0  0  3  0  0  0  0  0  0
  193.1910  175.8350  137.7210 N   0  0  0  0  0  0  0  0  0  0  0  0
  189.9320  177.5970  145.9350 C   0  0  0  0  0  2  0  0  0  0  0  0
  191.7160  176.3170  144.5450 C   0  0  0  0  0  2  0  0  0  0  0  0
  191.1650  176.7430  145.8730 C   0  0  0  0  0  0  0  0  0  0  0  0
  189.5890  178.1500  144.5530 C   0  0  0  0  0  2  0  0  0  0  0  0
  189.4970  177.0420  143.4830 C   0  0  0  0  0  3  0  0  0  0  0  0
  191.7230  176.4030  146.9030 O   0  0  0  0  0  0  0  0  0  0  0  0
  190.5610  175.9350  143.6220 C   0  0  0  0  0  2  0  0  0  0  0  0
  186.9080  178.8260  139.9920 N   0  0  0  0  0  0  0  0  0  0  0  0
  186.7150  178.4260  138.7120 O   0  0  0  0  0  1  0  0  0  0  0  0
  185.7010  178.0260  141.0940 P   0  0  1  0  0  0  0  0  0  0  0  0
  185.2770  179.5480  142.1110 C   0  0  0  0  0  2  0  0  0  0  0  0
  185.3260  179.3210  143.5590 N   0  0  0  0  0  0  0  0  0  0  0  0
  186.0950  177.7930  145.3350 C   0  0  0  0  0  2  0  0  0  0  0  0
  183.8210  178.8510  145.5170 C   0  0  0  0  0  2  0  0  0  0  0  0
  185.1710  178.6570  146.1970 C   0  0  0  0  0  2  0  0  0  0  0  0
  183.9880  179.5210  144.1440 C   0  0  0  0  0  2  0  0  0  0  0  0
  185.8380  177.9760  143.8360 C   0  0  0  0  0  2  0  0  0  0  0  0
  184.1790  178.0320  140.0090 C   0  0  0  0  0  2  0  0  0  0  0  0
  183.3670  179.2900  140.2610 C   0  0  1  0  0  3  0  0  0  0  0  0
  183.4670  180.1350  139.1540 O   0  0  0  0  0  0  0  0  0  0  0  0
  182.1550  180.2920  138.7050 C   0  0  0  0  0  2  0  0  0  0  0  0
  181.9010  181.7490  138.3820 C   0  0  0  0  0  1  0  0  0  0  0  0
  181.9110  178.9170  140.4940 C   0  0  0  0  0  2  0  0  0  0  0  0
  180.5550  179.3380  142.1810 C   0  0  0  0  0  1  0  0  0  0  0  0
  181.7060  178.6290  141.8430 O   0  0  0  0  0  0  0  0  0  0  0  0
  1  5  1  0  0  0  0
  2  5  1  0  0  0  0
  3 26  1  6  0  0  0
  3  2  1  0  0  0  0
  5 23  1  1  0  0  0
  6  9  1  6  0  0  0
  6  1  1  0  0  0  0
  7  4  1  6  0  0  0
  7  6  1  0  0  0  0
  7  3  1  0  0  0  0
  8 11  2  0  0  0  0
  8 14  1  0  0  0  0
 10 13  1  0  0  0  0
 10 18  1  0  0  0  0
 11 15  1  0  0  0  0
 12  8  1  0  0  0  0
 13 16  1  0  0  0  0
 14 10  2  0  0  0  0
 15 13  2  0  0  0  0
 16  9  2  0  0  0  0
 17  9  1  0  0  0  0
 18 17  2  0  0  0  0
 20 21  1  0  0  0  0
 21 19  1  0  0  0  0
 21 24  2  0  0  0  0
 22 19  1  0  0  0  0
 23 25  1  0  0  0  0
 23 22  1  0  0  0  0
 25 20  1  0  0  0  0
 26 28  1  0  0  0  0
 27 26  1  0  0  0  0
 28 36  1  6  0  0  0
 28 29  1  0  0  0  0
 29 30  1  0  0  0  0
 30 35  1  0  0  0  0
 30 34  1  0  0  0  0
 31 33  1  0  0  0  0
 32 33  1  0  0  0  0
 34 32  1  0  0  0  0
 35 31  1  0  0  0  0
 37 36  1  6  0  0  0
 37 41  1  0  0  0  0
 38 37  1  0  0  0  0
 39 38  1  0  0  0  0
 40 39  1  0  0  0  0
 41 43  1  0  0  0  0
 43 42  1  0  0  0  0
M  END
>  <MODEL>
1

>  <REMARK>
 VINA RESULT:      -8.2      0.000      0.000
  Name = 
  12 active torsions:
  status: ('A' for Active; 'I' for Inactive)
    1  A    between atoms: N_2  and  C_13
    2  A    between atoms: N_2  and  P_41
    3  A    between atoms: O_3  and  C_4
    4  A    between atoms: O_3  and  C_12
    5  A    between atoms: C_4  and  C_15
    6  A    between atoms: C_4  and  C_22
    7  A    between atoms: C_8  and  C_34
    8  A    between atoms: N_11  and  C_14
    9  A    between atoms: C_14  and  P_41
   10  A    between atoms: C_15  and  O_42
   11  A    between atoms: C_22  and  P_41
   12  A    between atoms: C_28  and  C_35
                            x       y       z     vdW  Elec       q    Type
                         _______ _______ _______ _____ _____    ______ ____

>  <TORSDO>
F 12

$$$$
=
 OpenBabel10272414303D

 43 47  0  0  1  0  0  0  0  0999 V2000
  187.3730  178.1210  141.4180 C   0  0  0  0  0  2  0  0  0  0  0  0
  186.0890  179.1400  139.6710 O   0  0  0  0  0  0  0  0  0  0  0  0
  184.8600  178.6850  140.1840 C   0  0  1  0  0  3  0  0  0  0  0  0
  183.7320  178.0510  142.2300 O   0  0  0  0  0  1  0  0  0  0  0  0
  187.0450  178.1420  139.9280 C   0  0  1  0  0  3  0  0  0  0  0  0
  186.1060  177.7930  142.2060 C   0  0  2  0  0  3  0  0  0  0  0  0
  184.9040  178.6230  141.7330 C   0  0  1  0  0  3  0  0  0  0  0  0
  188.1420  178.0530  148.3210 C   0  0  0  0  0  0  0  0  0  0  0  0
  186.3510  177.9950  143.6660 C   0  0  0  0  0  0  0  0  0  0  0  0
  186.7480  178.3550  146.3660 C   0  0  0  0  0  0  0  0  0  0  0  0
  189.1090  177.4140  147.5350 C   0  0  0  0  0  3  0  0  0  0  0  0
  188.3500  178.2160  149.6500 F   0  0  0  0  0  0  0  0  0  0  0  0
  187.7200  177.7060  145.5770 C   0  0  0  0  0  0  0  0  0  0  0  0
  186.9630  178.5270  147.7370 C   0  0  0  0  0  3  0  0  0  0  0  0
  188.8990  177.2380  146.1630 C   0  0  0  0  0  3  0  0  0  0  0  0
  187.4940  177.5380  144.2480 N   0  0  0  0  0  0  0  0  0  0  0  0
  185.3890  178.6410  144.4510 C   0  0  0  0  0  3  0  0  0  0  0  0
  185.6070  178.8050  145.7830 N   0  0  0  0  0  0  0  0  0  0  0  0
  189.4910  177.7340  136.9360 C   0  0  0  0  0  2  0  0  0  0  0  0
  190.1660  176.6220  139.1860 C   0  0  0  0  0  2  0  0  0  0  0  0
  190.4700  176.9420  137.7530 C   0  0  0  0  0  0  0  0  0  0  0  0
  188.1510  177.8460  137.6620 C   0  0  0  0  0  2  0  0  0  0  0  0
  188.3040  178.3830  139.1000 C   0  0  0  0  0  3  0  0  0  0  0  0
  191.5100  176.5530  137.2470 O   0  0  0  0  0  0  0  0  0  0  0  0
  189.5370  177.8460  139.8500 C   0  0  0  0  0  2  0  0  0  0  0  0
  183.7840  179.5360  139.6610 N   0  0  0  0  0  0  0  0  0  0  0  0
  184.3300  180.5660  138.9700 O   0  0  0  0  0  1  0  0  0  0  0  0
  182.6650  178.5780  138.5940 P   0  0  1  0  0  0  0  0  0  0  0  0
  183.5450  176.9270  138.7630 C   0  0  0  0  0  2  0  0  0  0  0  0
  184.3530  176.5690  137.5930 N   0  0  0  0  0  0  0  0  0  0  0  0
  184.8090  177.0810  135.2240 C   0  0  0  0  0  2  0  0  0  0  0  0
  184.7210  174.6810  135.9730 C   0  0  0  0  0  2  0  0  0  0  0  0
  185.5660  175.7520  135.2940 C   0  0  0  0  0  2  0  0  0  0  0  0
  184.3360  175.1080  137.3990 C   0  0  0  0  0  2  0  0  0  0  0  0
  183.8560  177.2740  136.4090 C   0  0  0  0  0  2  0  0  0  0  0  0
  181.2650  178.2260  139.7820 C   0  0  0  0  0  2  0  0  0  0  0  0
  180.1860  179.2840  139.6410 C   0  0  1  0  0  3  0  0  0  0  0  0
  180.0730  179.9920  140.8390 O   0  0  0  0  0  0  0  0  0  0  0  0
  180.2150  179.0270  141.8390 C   0  0  0  0  0  2  0  0  0  0  0  0
  180.2440  179.7030  143.1930 C   0  0  0  0  0  1  0  0  0  0  0  0
  180.5520  180.2360  138.5130 C   0  0  0  0  0  2  0  0  0  0  0  0
  181.3180  182.2540  138.0620 C   0  0  0  0  0  1  0  0  0  0  0  0
  180.5400  181.5500  138.9790 O   0  0  0  0  0  0  0  0  0  0  0  0
  1  6  1  0  0  0  0
  2  5  1  0  0  0  0
  2  3  1  0  0  0  0
  3 26  1  1  0  0  0
  3  7  1  0  0  0  0
  5 23  1  6  0  0  0
  5  1  1  0  0  0  0
  6  9  1  1  0  0  0
  7  6  1  0  0  0  0
  7  4  1  6  0  0  0
  8 12  1  0  0  0  0
  9 16  2  0  0  0  0
  9 17  1  0  0  0  0
 10 14  2  0  0  0  0
 11  8  2  0  0  0  0
 13 15  2  0  0  0  0
 13 10  1  0  0  0  0
 14  8  1  0  0  0  0
 15 11  1  0  0  0  0
 16 13  1  0  0  0  0
 17 18  2  0  0  0  0
 18 10  1  0  0  0  0
 19 22  1  0  0  0  0
 19 21  1  0  0  0  0
 20 25  1  0  0  0  0
 21 20  1  0  0  0  0
 22 23  1  0  0  0  0
 23 25  1  0  0  0  0
 24 21  2  0  0  0  0
 27 26  1  0  0  0  0
 28 29  1  1  0  0  0
 28 26  1  0  0  0  0
 28 36  1  0  0  0  0
 30 29  1  0  0  0  0
 31 33  1  0  0  0  0
 31 35  1  0  0  0  0
 32 34  1  0  0  0  0
 33 32  1  0  0  0  0
 34 30  1  0  0  0  0
 35 30  1  0  0  0  0
 37 41  1  6  0  0  0
 37 36  1  0  0  0  0
 37 38  1  0  0  0  0
 38 39  1  0  0  0  0
 39 40  1  0  0  0  0
 41 43  1  0  0  0  0
 42 43  1  0  0  0  0
M  END
>  <MODEL>
2

>  <REMARK>
 VINA RESULT:      -7.9      4.086      7.911
  Name = 
  12 active torsions:
  status: ('A' for Active; 'I' for Inactive)
    1  A    between atoms: N_2  and  C_13
    2  A    between atoms: N_2  and  P_41
    3  A    between atoms: O_3  and  C_4
    4  A    between atoms: O_3  and  C_12
    5  A    between atoms: C_4  and  C_15
    6  A    between atoms: C_4  and  C_22
    7  A    between atoms: C_8  and  C_34
    8  A    between atoms: N_11  and  C_14
    9  A    between atoms: C_14  and  P_41
   10  A    between atoms: C_15  and  O_42
   11  A    between atoms: C_22  and  P_41
   12  A    between atoms: C_28  and  C_35
                            x       y       z     vdW  Elec       q    Type
                         _______ _______ _______ _____ _____    ______ ____

>  <TORSDO>
F 12

$$$$
=
 OpenBabel10272414303D

 43 47  0  0  1  0  0  0  0  0999 V2000
  190.1180  176.7040  140.8630 C   0  0  0  0  0  2  0  0  0  0  0  0
  187.9660  177.6110  141.3980 O   0  0  0  0  0  0  0  0  0  0  0  0
  187.9460  178.4620  140.2770 C   0  0  1  0  0  3  0  0  0  0  0  0
  188.7760  178.7080  138.0160 O   0  0  0  0  0  1  0  0  0  0  0  0
  189.2970  177.5380  141.8430 C   0  0  1  0  0  3  0  0  0  0  0  0
  190.1010  177.3790  139.4940 C   0  0  2  0  0  3  0  0  0  0  0  0
  188.6870  177.8100  139.0820 C   0  0  1  0  0  3  0  0  0  0  0  0
  193.6720  174.0340  135.2910 C   0  0  0  0  0  0  0  0  0  0  0  0
  190.7000  176.4680  138.4720 C   0  0  0  0  0  0  0  0  0  0  0  0
  191.7560  174.7960  136.5570 C   0  0  0  0  0  0  0  0  0  0  0  0
  194.4880  174.9460  135.9720 C   0  0  0  0  0  3  0  0  0  0  0  0
  194.2070  173.2230  134.3470 F   0  0  0  0  0  0  0  0  0  0  0  0
  192.5770  175.7180  137.2390 C   0  0  0  0  0  0  0  0  0  0  0  0
  192.3070  173.9560  135.5860 C   0  0  0  0  0  3  0  0  0  0  0  0
  193.9420  175.7900  136.9460 C   0  0  0  0  0  3  0  0  0  0  0  0
  192.0270  176.5340  138.1750 N   0  0  0  0  0  0  0  0  0  0  0  0
  189.8880  175.5510  137.7960 C   0  0  0  0  0  3  0  0  0  0  0  0
  190.4320  174.7360  136.8530 N   0  0  0  0  0  0  0  0  0  0  0  0
  189.9880  177.4490  145.6660 C   0  0  0  0  0  2  0  0  0  0  0  0
  191.6330  176.1510  144.1280 C   0  0  0  0  0  2  0  0  0  0  0  0
  191.1940  176.5690  145.4990 C   0  0  0  0  0  0  0  0  0  0  0  0
  189.5560  178.0290  144.3210 C   0  0  0  0  0  2  0  0  0  0  0  0
  189.3580  176.9400  143.2460 C   0  0  0  0  0  3  0  0  0  0  0  0
  191.8190  176.2010  146.4800 O   0  0  0  0  0  0  0  0  0  0  0  0
  190.4030  175.8090  143.2900 C   0  0  0  0  0  2  0  0  0  0  0  0
  186.5530  178.8210  139.9800 N   0  0  0  0  0  0  0  0  0  0  0  0
  186.2050  178.2900  138.7830 O   0  0  0  0  0  1  0  0  0  0  0  0
  185.4390  178.2240  141.2880 P   0  0  1  0  0  0  0  0  0  0  0  0
  185.5930  179.7170  142.4180 C   0  0  0  0  0  2  0  0  0  0  0  0
  185.4680  179.3910  143.8430 N   0  0  0  0  0  0  0  0  0  0  0  0
  186.0000  177.7300  145.5850 C   0  0  0  0  0  2  0  0  0  0  0  0
  183.7360  178.8270  145.5760 C   0  0  0  0  0  2  0  0  0  0  0  0
  184.9940  178.5560  146.3920 C   0  0  0  0  0  2  0  0  0  0  0  0
  184.0740  179.5830  144.2810 C   0  0  0  0  0  2  0  0  0  0  0  0
  185.9230  178.0190  144.0830 C   0  0  0  0  0  2  0  0  0  0  0  0
  183.7750  178.6520  140.5520 C   0  0  0  0  0  2  0  0  0  0  0  0
  182.9070  177.4090  140.4730 C   0  0  1  0  0  3  0  0  0  0  0  0
  181.5750  177.7600  140.7000 O   0  0  0  0  0  0  0  0  0  0  0  0
  181.6350  178.8570  141.5610 C   0  0  0  0  0  2  0  0  0  0  0  0
  180.5860  178.7100  142.6430 C   0  0  0  0  0  1  0  0  0  0  0  0
  183.0470  176.7780  139.0960 C   0  0  0  0  0  2  0  0  0  0  0  0
  182.4510  175.1480  137.7370 C   0  0  0  0  0  1  0  0  0  0  0  0
  182.3930  175.5470  139.0710 O   0  0  0  0  0  0  0  0  0  0  0  0
  1  5  1  0  0  0  0
  2  5  1  0  0  0  0
  3 26  1  6  0  0  0
  3  2  1  0  0  0  0
  5 23  1  1  0  0  0
  6  9  1  6  0  0  0
  6  1  1  0  0  0  0
  7  4  1  6  0  0  0
  7  6  1  0  0  0  0
  7  3  1  0  0  0  0
  8 14  2  0  0  0  0
  8 11  1  0  0  0  0
 10 18  2  0  0  0  0
 10 13  1  0  0  0  0
 11 15  2  0  0  0  0
 12  8  1  0  0  0  0
 13 16  2  0  0  0  0
 14 10  1  0  0  0  0
 15 13  1  0  0  0  0
 16  9  1  0  0  0  0
 17  9  2  0  0  0  0
 18 17  1  0  0  0  0
 20 21  1  0  0  0  0
 21 19  1  0  0  0  0
 21 24  2  0  0  0  0
 22 19  1  0  0  0  0
 23 25  1  0  0  0  0
 23 22  1  0  0  0  0
 25 20  1  0  0  0  0
 26 28  1  0  0  0  0
 27 26  1  0  0  0  0
 28 36  1  6  0  0  0
 28 29  1  0  0  0  0
 29 30  1  0  0  0  0
 30 35  1  0  0  0  0
 30 34  1  0  0  0  0
 31 33  1  0  0  0  0
 32 33  1  0  0  0  0
 34 32  1  0  0  0  0
 35 31  1  0  0  0  0
 37 41  1  6  0  0  0
 37 36  1  0  0  0  0
 37 38  1  0  0  0  0
 38 39  1  0  0  0  0
 39 40  1  0  0  0  0
 42 43  1  0  0  0  0
 43 41  1  0  0  0  0
M  END
>  <MODEL>
3

>  <REMARK>
 VINA RESULT:      -7.9      1.253      2.111
  Name = 
  12 active torsions:
  status: ('A' for Active; 'I' for Inactive)
    1  A    between atoms: N_2  and  C_13
    2  A    between atoms: N_2  and  P_41
    3  A    between atoms: O_3  and  C_4
    4  A    between atoms: O_3  and  C_12
    5  A    between atoms: C_4  and  C_15
    6  A    between atoms: C_4  and  C_22
    7  A    between atoms: C_8  and  C_34
    8  A    between atoms: N_11  and  C_14
    9  A    between atoms: C_14  and  P_41
   10  A    between atoms: C_15  and  O_42
   11  A    between atoms: C_22  and  P_41
   12  A    between atoms: C_28  and  C_35
                            x       y       z     vdW  Elec       q    Type
                         _______ _______ _______ _____ _____    ______ ____

>  <TORSDO>
F 12

$$$$
=
 OpenBabel10272414303D

 43 47  0  0  1  0  0  0  0  0999 V2000
  187.3410  178.1430  141.3060 C   0  0  0  0  0  2  0  0  0  0  0  0
  186.0740  179.1830  139.5590 O   0  0  0  0  0  0  0  0  0  0  0  0
  184.8390  178.7350  140.0640 C   0  0  1  0  0  3  0  0  0  0  0  0
  183.6960  178.1000  142.1020 O   0  0  0  0  0  1  0  0  0  0  0  0
  187.0200  178.1750  139.8150 C   0  0  1  0  0  3  0  0  0  0  0  0
  186.0680  177.8220  142.0860 C   0  0  2  0  0  3  0  0  0  0  0  0
  184.8760  178.6640  141.6120 C   0  0  1  0  0  3  0  0  0  0  0  0
  188.0820  178.0370  148.2100 C   0  0  0  0  0  0  0  0  0  0  0  0
  186.3080  178.0130  143.5490 C   0  0  0  0  0  0  0  0  0  0  0  0
  186.6960  178.3550  146.2520 C   0  0  0  0  0  0  0  0  0  0  0  0
  189.0510  177.4010  147.4240 C   0  0  0  0  0  3  0  0  0  0  0  0
  188.2860  178.1910  149.5400 F   0  0  0  0  0  0  0  0  0  0  0  0
  187.6690  177.7090  145.4620 C   0  0  0  0  0  0  0  0  0  0  0  0
  186.9070  178.5180  147.6250 C   0  0  0  0  0  3  0  0  0  0  0  0
  188.8460  177.2350  146.0490 C   0  0  0  0  0  3  0  0  0  0  0  0
  187.4480  177.5510  144.1320 N   0  0  0  0  0  0  0  0  0  0  0  0
  185.3450  178.6560  144.3340 C   0  0  0  0  0  3  0  0  0  0  0  0
  185.5590  178.8120  145.6680 N   0  0  0  0  0  0  0  0  0  0  0  0
  189.2750  178.2080  136.6500 C   0  0  0  0  0  2  0  0  0  0  0  0
  189.7600  176.3870  138.4380 C   0  0  0  0  0  2  0  0  0  0  0  0
  190.0940  177.0470  137.1340 C   0  0  0  0  0  0  0  0  0  0  0  0
  187.9990  178.3500  137.4780 C   0  0  0  0  0  2  0  0  0  0  0  0
  188.2850  178.4090  138.9930 C   0  0  0  0  0  3  0  0  0  0  0  0
  191.0250  176.6360  136.4610 O   0  0  0  0  0  0  0  0  0  0  0  0
  189.4020  177.4590  139.4650 C   0  0  0  0  0  2  0  0  0  0  0  0
  183.7730  179.5980  139.5410 N   0  0  0  0  0  0  0  0  0  0  0  0
  184.3300  180.6900  138.9620 O   0  0  0  0  0  1  0  0  0  0  0  0
  182.7450  178.6990  138.3390 P   0  0  1  0  0  0  0  0  0  0  0  0
  183.3030  176.9680  138.8130 C   0  0  0  0  0  2  0  0  0  0  0  0
  183.6180  176.1160  137.6610 N   0  0  0  0  0  0  0  0  0  0  0  0
  183.8080  173.7890  136.8690 C   0  0  0  0  0  2  0  0  0  0  0  0
  185.5350  175.4770  136.1660 C   0  0  0  0  0  2  0  0  0  0  0  0
  184.5030  174.4650  135.6840 C   0  0  0  0  0  2  0  0  0  0  0  0
  184.8770  176.5580  137.0380 C   0  0  0  0  0  2  0  0  0  0  0  0
  183.6900  174.7140  138.0840 C   0  0  0  0  0  2  0  0  0  0  0  0
  181.1040  178.6740  139.2320 C   0  0  0  0  0  2  0  0  0  0  0  0
  180.7800  180.0590  139.7630 C   0  0  1  0  0  3  0  0  0  0  0  0
  180.0360  180.7580  138.8100 O   0  0  0  0  0  0  0  0  0  0  0  0
  180.8440  181.8370  138.4460 C   0  0  0  0  0  2  0  0  0  0  0  0
  180.6910  182.1060  136.9640 C   0  0  0  0  0  1  0  0  0  0  0  0
  179.9820  179.9350  141.0510 C   0  0  0  0  0  2  0  0  0  0  0  0
  180.7220  179.5240  143.0880 C   0  0  0  0  0  1  0  0  0  0  0  0
  180.5200  178.9240  141.8460 O   0  0  0  0  0  0  0  0  0  0  0  0
  1  6  1  0  0  0  0
  2  5  1  0  0  0  0
  2  3  1  0  0  0  0
  3 26  1  1  0  0  0
  3  7  1  0  0  0  0
  5 23  1  6  0  0  0
  5  1  1  0  0  0  0
  6  9  1  1  0  0  0
  7  6  1  0  0  0  0
  7  4  1  6  0  0  0
  8 12  1  0  0  0  0
  9 16  2  0  0  0  0
  9 17  1  0  0  0  0
 10 14  2  0  0  0  0
 11  8  2  0  0  0  0
 13 15  2  0  0  0  0
 13 10  1  0  0  0  0
 14  8  1  0  0  0  0
 15 11  1  0  0  0  0
 16 13  1  0  0  0  0
 17 18  2  0  0  0  0
 18 10  1  0  0  0  0
 19 21  1  0  0  0  0
 19 22  1  0  0  0  0
 20 25  1  0  0  0  0
 21 20  1  0  0  0  0
 22 23  1  0  0  0  0
 23 25  1  0  0  0  0
 24 21  2  0  0  0  0
 27 26  1  0  0  0  0
 28 29  1  1  0  0  0
 28 36  1  0  0  0  0
 28 26  1  0  0  0  0
 30 35  1  0  0  0  0
 30 29  1  0  0  0  0
 31 35  1  0  0  0  0
 32 34  1  0  0  0  0
 33 32  1  0  0  0  0
 33 31  1  0  0  0  0
 34 30  1  0  0  0  0
 37 36  1  6  0  0  0
 37 41  1  0  0  0  0
 38 37  1  0  0  0  0
 39 38  1  0  0  0  0
 40 39  1  0  0  0  0
 41 43  1  0  0  0  0
 43 42  1  0  0  0  0
M  END
>  <MODEL>
4

>  <REMARK>
 VINA RESULT:      -7.7      4.123      7.790
  Name = 
  12 active torsions:
  status: ('A' for Active; 'I' for Inactive)
    1  A    between atoms: N_2  and  C_13
    2  A    between atoms: N_2  and  P_41
    3  A    between atoms: O_3  and  C_4
    4  A    between atoms: O_3  and  C_12
    5  A    between atoms: C_4  and  C_15
    6  A    between atoms: C_4  and  C_22
    7  A    between atoms: C_8  and  C_34
    8  A    between atoms: N_11  and  C_14
    9  A    between atoms: C_14  and  P_41
   10  A    between atoms: C_15  and  O_42
   11  A    between atoms: C_22  and  P_41
   12  A    between atoms: C_28  and  C_35
                            x       y       z     vdW  Elec       q    Type
                         _______ _______ _______ _____ _____    ______ ____

>  <TORSDO>
F 12

$$$$
=
 OpenBabel10272414303D

 43 47  0  0  1  0  0  0  0  0999 V2000
  187.4920  178.1150  141.4760 C   0  0  0  0  0  2  0  0  0  0  0  0
  186.2390  179.0880  139.6810 O   0  0  0  0  0  0  0  0  0  0  0  0
  185.0050  178.6220  140.1680 C   0  0  1  0  0  3  0  0  0  0  0  0
  183.8320  178.0010  142.1940 O   0  0  0  0  0  1  0  0  0  0  0  0
  187.2030  178.1090  139.9780 C   0  0  1  0  0  3  0  0  0  0  0  0
  186.2100  177.7800  142.2360 C   0  0  2  0  0  3  0  0  0  0  0  0
  185.0090  178.5830  141.7180 C   0  0  1  0  0  3  0  0  0  0  0  0
  188.0690  178.1460  148.4010 C   0  0  0  0  0  0  0  0  0  0  0  0
  186.4130  178.0070  143.6980 C   0  0  0  0  0  0  0  0  0  0  0  0
  186.7330  178.4150  146.4020 C   0  0  0  0  0  0  0  0  0  0  0  0
  189.0570  177.4910  147.6550 C   0  0  0  0  0  3  0  0  0  0  0  0
  188.2390  178.3320  149.7320 F   0  0  0  0  0  0  0  0  0  0  0  0
  187.7250  177.7500  145.6530 C   0  0  0  0  0  0  0  0  0  0  0  0
  186.9080  178.6120  147.7750 C   0  0  0  0  0  3  0  0  0  0  0  0
  188.8860  177.2910  146.2810 C   0  0  0  0  0  3  0  0  0  0  0  0
  187.5380  177.5590  144.3210 N   0  0  0  0  0  0  0  0  0  0  0  0
  185.4310  178.6690  144.4430 C   0  0  0  0  0  3  0  0  0  0  0  0
  185.6110  178.8580  145.7780 N   0  0  0  0  0  0  0  0  0  0  0  0
  189.6420  177.8550  136.9640 C   0  0  0  0  0  2  0  0  0  0  0  0
  190.2360  176.4900  139.0940 C   0  0  0  0  0  2  0  0  0  0  0  0
  190.5690  176.9310  137.7000 C   0  0  0  0  0  0  0  0  0  0  0  0
  188.3060  177.9730  137.6950 C   0  0  0  0  0  2  0  0  0  0  0  0
  188.4800  178.3570  139.1790 C   0  0  0  0  0  3  0  0  0  0  0  0
  191.5880  176.5340  137.1600 O   0  0  0  0  0  0  0  0  0  0  0  0
  189.6750  177.6760  139.8740 C   0  0  0  0  0  2  0  0  0  0  0  0
  183.9300  179.4480  139.6040 N   0  0  0  0  0  0  0  0  0  0  0  0
  184.4780  180.4580  138.8860 O   0  0  0  0  0  1  0  0  0  0  0  0
  182.8310  178.4480  138.5540 P   0  0  1  0  0  0  0  0  0  0  0  0
  184.1740  177.6670  137.4970 C   0  0  0  0  0  2  0  0  0  0  0  0
  184.0520  176.2110  137.3730 N   0  0  0  0  0  0  0  0  0  0  0  0
  185.2920  174.0800  137.3420 C   0  0  0  0  0  2  0  0  0  0  0  0
  183.4100  174.4360  135.7120 C   0  0  0  0  0  2  0  0  0  0  0  0
  183.9550  173.5450  136.8210 C   0  0  0  0  0  2  0  0  0  0  0  0
  183.2070  175.8750  136.2140 C   0  0  0  0  0  2  0  0  0  0  0  0
  185.3830  175.6070  137.2610 C   0  0  0  0  0  2  0  0  0  0  0  0
  182.5200  176.9810  139.6690 C   0  0  0  0  0  2  0  0  0  0  0  0
  181.0480  176.9050  140.0290 C   0  0  1  0  0  3  0  0  0  0  0  0
  180.5380  178.1980  140.1690 O   0  0  0  0  0  0  0  0  0  0  0  0
  180.2410  178.3190  141.5280 C   0  0  0  0  0  2  0  0  0  0  0  0
  180.3360  179.7740  141.9380 C   0  0  0  0  0  1  0  0  0  0  0  0
  180.2940  176.1700  138.9310 C   0  0  0  0  0  2  0  0  0  0  0  0
  180.3990  174.1730  138.0030 C   0  0  0  0  0  1  0  0  0  0  0  0
  180.2280  174.8100  139.2310 O   0  0  0  0  0  0  0  0  0  0  0  0
  1  6  1  0  0  0  0
  2  5  1  0  0  0  0
  2  3  1  0  0  0  0
  3 26  1  1  0  0  0
  3  7  1  0  0  0  0
  5 23  1  6  0  0  0
  5  1  1  0  0  0  0
  6  9  1  1  0  0  0
  7  4  1  6  0  0  0
  7  6  1  0  0  0  0
  8 12  1  0  0  0  0
  9 16  2  0  0  0  0
  9 17  1  0  0  0  0
 10 14  2  0  0  0  0
 11  8  2  0  0  0  0
 13 15  2  0  0  0  0
 13 10  1  0  0  0  0
 14  8  1  0  0  0  0
 15 11  1  0  0  0  0
 16 13  1  0  0  0  0
 17 18  2  0  0  0  0
 18 10  1  0  0  0  0
 19 22  1  0  0  0  0
 19 21  1  0  0  0  0
 20 25  1  0  0  0  0
 21 20  1  0  0  0  0
 22 23  1  0  0  0  0
 23 25  1  0  0  0  0
 24 21  2  0  0  0  0
 27 26  1  0  0  0  0
 28 29  1  6  0  0  0
 28 26  1  0  0  0  0
 28 36  1  0  0  0  0
 30 29  1  0  0  0  0
 32 34  1  0  0  0  0
 32 33  1  0  0  0  0
 33 31  1  0  0  0  0
 34 30  1  0  0  0  0
 35 31  1  0  0  0  0
 35 30  1  0  0  0  0
 36 37  1  0  0  0  0
 37 41  1  6  0  0  0
 37 38  1  0  0  0  0
 38 39  1  0  0  0  0
 39 40  1  0  0  0  0
 41 43  1  0  0  0  0
 42 43  1  0  0  0  0
M  END
>  <MODEL>
5

>  <REMARK>
 VINA RESULT:      -7.6      4.184      7.916
  Name = 
  12 active torsions:
  status: ('A' for Active; 'I' for Inactive)
    1  A    between atoms: N_2  and  C_13
    2  A    between atoms: N_2  and  P_41
    3  A    between atoms: O_3  and  C_4
    4  A    between atoms: O_3  and  C_12
    5  A    between atoms: C_4  and  C_15
    6  A    between atoms: C_4  and  C_22
    7  A    between atoms: C_8  and  C_34
    8  A    between atoms: N_11  and  C_14
    9  A    between atoms: C_14  and  P_41
   10  A    between atoms: C_15  and  O_42
   11  A    between atoms: C_22  and  P_41
   12  A    between atoms: C_28  and  C_35
                            x       y       z     vdW  Elec       q    Type
                         _______ _______ _______ _____ _____    ______ ____

>  <TORSDO>
F 12

$$$$
=
 OpenBabel10272414303D

 43 47  0  0  1  0  0  0  0  0999 V2000
  186.2000  178.1130  141.7730 C   0  0  0  0  0  2  0  0  0  0  0  0
  185.4580  178.0450  139.4970 O   0  0  0  0  0  0  0  0  0  0  0  0
  186.5960  178.7130  139.0100 C   0  0  1  0  0  3  0  0  0  0  0  0
  188.9430  179.1150  139.4500 O   0  0  0  0  0  1  0  0  0  0  0  0
  185.1630  178.5870  140.7600 C   0  0  1  0  0  3  0  0  0  0  0  0
  187.5810  178.6060  141.3450 C   0  0  2  0  0  3  0  0  0  0  0  0
  187.8450  178.3520  139.8550 C   0  0  1  0  0  3  0  0  0  0  0  0
  191.5330  176.2980  145.8890 C   0  0  0  0  0  0  0  0  0  0  0  0
  188.6330  177.9650  142.1900 C   0  0  0  0  0  0  0  0  0  0  0  0
  190.6100  176.7980  143.7090 C   0  0  0  0  0  0  0  0  0  0  0  0
  190.4590  176.9570  146.4990 C   0  0  0  0  0  3  0  0  0  0  0  0
  192.5020  175.7350  146.6520 F   0  0  0  0  0  0  0  0  0  0  0  0
  189.5310  177.4680  144.3240 C   0  0  0  0  0  0  0  0  0  0  0  0
  191.6080  176.2140  144.4950 C   0  0  0  0  0  3  0  0  0  0  0  0
  189.4570  177.5450  145.7170 C   0  0  0  0  0  3  0  0  0  0  0  0
  188.5730  178.0380  143.5480 N   0  0  0  0  0  0  0  0  0  0  0  0
  189.7020  177.2970  141.5830 C   0  0  0  0  0  3  0  0  0  0  0  0
  190.6680  176.7300  142.3550 N   0  0  0  0  0  0  0  0  0  0  0  0
  181.3300  178.9720  141.2730 C   0  0  0  0  0  2  0  0  0  0  0  0
  182.8390  179.1710  143.3790 C   0  0  0  0  0  2  0  0  0  0  0  0
  181.4760  179.1630  142.7550 C   0  0  0  0  0  0  0  0  0  0  0  0
  182.6830  179.1060  140.5770 C   0  0  0  0  0  2  0  0  0  0  0  0
  183.7560  178.1860  141.1970 C   0  0  0  0  0  3  0  0  0  0  0  0
  180.4850  179.3200  143.4490 O   0  0  0  0  0  0  0  0  0  0  0  0
  183.6930  178.0830  142.7330 C   0  0  0  0  0  2  0  0  0  0  0  0
  186.7470  178.4130  137.5810 N   0  0  0  0  0  0  0  0  0  0  0  0
  187.4810  179.3920  136.9980 O   0  0  0  0  0  1  0  0  0  0  0  0
  187.5420  176.7950  137.3400 P   0  0  1  0  0  0  0  0  0  0  0  0
  186.4470  176.2110  135.9290 C   0  0  0  0  0  2  0  0  0  0  0  0
  185.5880  175.0760  136.2830 N   0  0  0  0  0  0  0  0  0  0  0  0
  183.4920  174.4040  137.3930 C   0  0  0  0  0  2  0  0  0  0  0  0
  185.5630  173.0140  137.7210 C   0  0  0  0  0  2  0  0  0  0  0  0
  184.1090  173.0080  137.2630 C   0  0  0  0  0  2  0  0  0  0  0  0
  186.3960  174.0050  136.8920 C   0  0  0  0  0  2  0  0  0  0  0  0
  184.5190  175.5200  137.1810 C   0  0  0  0  0  2  0  0  0  0  0  0
  189.0220  177.2820  136.3080 C   0  0  0  0  0  2  0  0  0  0  0  0
  190.2370  176.4760  136.7310 C   0  0  1  0  0  3  0  0  0  0  0  0
  190.7820  177.0330  137.8900 O   0  0  0  0  0  0  0  0  0  0  0  0
  191.7350  176.1070  138.3180 C   0  0  0  0  0  2  0  0  0  0  0  0
  193.1070  176.5380  137.8460 C   0  0  0  0  0  1  0  0  0  0  0  0
  189.8240  175.0370  136.9960 C   0  0  0  0  0  2  0  0  0  0  0  0
  190.7330  173.2790  136.0230 C   0  0  0  0  0  1  0  0  0  0  0  0
  189.8280  174.3160  135.8020 O   0  0  0  0  0  0  0  0  0  0  0  0
  2  5  1  0  0  0  0
  3 26  1  6  0  0  0
  3  2  1  0  0  0  0
  3  7  1  0  0  0  0
  5 23  1  1  0  0  0
  5  1  1  0  0  0  0
  6  1  1  0  0  0  0
  6  9  1  1  0  0  0
  7  4  1  6  0  0  0
  7  6  1  0  0  0  0
  8 11  1  0  0  0  0
  8 12  1  0  0  0  0
  9 16  1  0  0  0  0
 10 13  1  0  0  0  0
 10 14  1  0  0  0  0
 13 15  1  0  0  0  0
 14  8  2  0  0  0  0
 15 11  2  0  0  0  0
 16 13  2  0  0  0  0
 17  9  2  0  0  0  0
 17 18  1  0  0  0  0
 18 10  2  0  0  0  0
 19 21  1  0  0  0  0
 21 20  1  0  0  0  0
 21 24  2  0  0  0  0
 22 23  1  0  0  0  0
 22 19  1  0  0  0  0
 23 25  1  0  0  0  0
 25 20  1  0  0  0  0
 27 26  1  0  0  0  0
 28 29  1  6  0  0  0
 28 26  1  0  0  0  0
 29 30  1  0  0  0  0
 30 34  1  0  0  0  0
 30 35  1  0  0  0  0
 33 31  1  0  0  0  0
 33 32  1  0  0  0  0
 34 32  1  0  0  0  0
 35 31  1  0  0  0  0
 36 28  1  0  0  0  0
 37 36  1  1  0  0  0
 37 41  1  0  0  0  0
 37 38  1  0  0  0  0
 38 39  1  0  0  0  0
 40 39  1  0  0  0  0
 43 42  1  0  0  0  0
 43 41  1  0  0  0  0
M  END
>  <MODEL>
6

>  <REMARK>
 VINA RESULT:      -7.5      3.261      8.176
  Name = 
  12 active torsions:
  status: ('A' for Active; 'I' for Inactive)
    1  A    between atoms: N_2  and  C_13
    2  A    between atoms: N_2  and  P_41
    3  A    between atoms: O_3  and  C_4
    4  A    between atoms: O_3  and  C_12
    5  A    between atoms: C_4  and  C_15
    6  A    between atoms: C_4  and  C_22
    7  A    between atoms: C_8  and  C_34
    8  A    between atoms: N_11  and  C_14
    9  A    between atoms: C_14  and  P_41
   10  A    between atoms: C_15  and  O_42
   11  A    between atoms: C_22  and  P_41
   12  A    between atoms: C_28  and  C_35
                            x       y       z     vdW  Elec       q    Type
                         _______ _______ _______ _____ _____    ______ ____

>  <TORSDO>
F 12

$$$$
=
 OpenBabel10272414303D

 43 47  0  0  1  0  0  0  0  0999 V2000
  184.4280  178.1670  141.1010 C   0  0  0  0  0  2  0  0  0  0  0  0
  184.8750  177.7590  138.7830 O   0  0  0  0  0  0  0  0  0  0  0  0
  186.0610  178.5150  138.7850 C   0  0  1  0  0  3  0  0  0  0  0  0
  187.8780  179.2650  140.1990 O   0  0  0  0  0  1  0  0  0  0  0  0
  183.9760  178.3890  139.6610 C   0  0  1  0  0  3  0  0  0  0  0  0
  185.8100  178.7890  141.2940 C   0  0  2  0  0  3  0  0  0  0  0  0
  186.7720  178.4140  140.1590 C   0  0  1  0  0  3  0  0  0  0  0  0
  187.3360  177.6780  147.4620 C   0  0  0  0  0  0  0  0  0  0  0  0
  186.3660  178.3850  142.6210 C   0  0  0  0  0  0  0  0  0  0  0  0
  187.4440  177.6490  145.0450 C   0  0  0  0  0  0  0  0  0  0  0  0
  186.1520  178.4250  147.4030 C   0  0  0  0  0  3  0  0  0  0  0  0
  187.8560  177.3300  148.6630 F   0  0  0  0  0  0  0  0  0  0  0  0
  186.2550  178.4070  144.9860 C   0  0  0  0  0  0  0  0  0  0  0  0
  187.9800  177.2870  146.2840 C   0  0  0  0  0  3  0  0  0  0  0  0
  185.6110  178.7910  146.1650 C   0  0  0  0  0  3  0  0  0  0  0  0
  185.7500  178.7590  143.7760 N   0  0  0  0  0  0  0  0  0  0  0  0
  187.5440  177.6310  142.6810 C   0  0  0  0  0  3  0  0  0  0  0  0
  188.0580  177.2810  143.8910 N   0  0  0  0  0  0  0  0  0  0  0  0
  181.2110  175.7300  139.0390 C   0  0  0  0  0  2  0  0  0  0  0  0
  181.8230  177.2970  137.0580 C   0  0  0  0  0  2  0  0  0  0  0  0
  180.9920  176.1850  137.6240 C   0  0  0  0  0  0  0  0  0  0  0  0
  182.5030  176.3220  139.6010 C   0  0  0  0  0  2  0  0  0  0  0  0
  182.5610  177.8560  139.4490 C   0  0  0  0  0  3  0  0  0  0  0  0
  180.1450  175.6420  136.9350 O   0  0  0  0  0  0  0  0  0  0  0  0
  181.9950  178.3840  138.1170 C   0  0  0  0  0  2  0  0  0  0  0  0
  186.8980  178.0860  137.6570 N   0  0  0  0  0  0  0  0  0  0  0  0
  187.5270  179.1680  137.1360 O   0  0  0  0  0  1  0  0  0  0  0  0
  188.1130  176.8420  138.1910 P   0  0  1  0  0  0  0  0  0  0  0  0
  187.6290  175.5080  136.9600 C   0  0  0  0  0  2  0  0  0  0  0  0
  186.3040  174.9300  137.2090 N   0  0  0  0  0  0  0  0  0  0  0  0
  185.0730  172.8550  137.7170 C   0  0  0  0  0  2  0  0  0  0  0  0
  184.1170  174.4810  136.0540 C   0  0  0  0  0  2  0  0  0  0  0  0
  183.8660  173.7230  137.3510 C   0  0  0  0  0  2  0  0  0  0  0  0
  185.3570  175.3820  136.1740 C   0  0  0  0  0  2  0  0  0  0  0  0
  186.3980  173.4680  137.2510 C   0  0  0  0  0  2  0  0  0  0  0  0
  189.6440  177.4440  137.3020 C   0  0  0  0  0  2  0  0  0  0  0  0
  190.8800  176.8060  137.9090 C   0  0  1  0  0  3  0  0  0  0  0  0
  190.5840  176.3550  139.1960 O   0  0  0  0  0  0  0  0  0  0  0  0
  191.4770  177.0340  140.0280 C   0  0  0  0  0  2  0  0  0  0  0  0
  190.8250  177.2910  141.3700 C   0  0  0  0  0  1  0  0  0  0  0  0
  191.3260  175.6380  137.0430 C   0  0  0  0  0  2  0  0  0  0  0  0
  190.7390  173.5380  136.7180 C   0  0  0  0  0  1  0  0  0  0  0  0
  191.1050  174.4380  137.7170 O   0  0  0  0  0  0  0  0  0  0  0  0
  1  6  1  0  0  0  0
  2  3  1  0  0  0  0
  2  5  1  0  0  0  0
  3 26  1  6  0  0  0
  3  7  1  0  0  0  0
  5 23  1  1  0  0  0
  5  1  1  0  0  0  0
  6  9  1  1  0  0  0
  7  4  1  6  0  0  0
  7  6  1  0  0  0  0
  8 12  1  0  0  0  0
  9 17  2  0  0  0  0
  9 16  1  0  0  0  0
 10 14  1  0  0  0  0
 11  8  1  0  0  0  0
 13 10  1  0  0  0  0
 13 15  1  0  0  0  0
 14  8  2  0  0  0  0
 15 11  2  0  0  0  0
 16 13  2  0  0  0  0
 17 18  1  0  0  0  0
 18 10  2  0  0  0  0
 19 22  1  0  0  0  0
 20 21  1  0  0  0  0
 20 25  1  0  0  0  0
 21 19  1  0  0  0  0
 23 22  1  0  0  0  0
 24 21  2  0  0  0  0
 25 23  1  0  0  0  0
 26 28  1  0  0  0  0
 27 26  1  0  0  0  0
 28 29  1  6  0  0  0
 29 30  1  0  0  0  0
 30 35  1  0  0  0  0
 32 34  1  0  0  0  0
 32 33  1  0  0  0  0
 33 31  1  0  0  0  0
 34 30  1  0  0  0  0
 35 31  1  0  0  0  0
 36 37  1  0  0  0  0
 36 28  1  0  0  0  0
 37 41  1  6  0  0  0
 37 38  1  0  0  0  0
 38 39  1  0  0  0  0
 39 40  1  0  0  0  0
 41 43  1  0  0  0  0
 42 43  1  0  0  0  0
M  END
>  <MODEL>
7

>  <REMARK>
 VINA RESULT:      -7.5      3.761      9.342
  Name = 
  12 active torsions:
  status: ('A' for Active; 'I' for Inactive)
    1  A    between atoms: N_2  and  C_13
    2  A    between atoms: N_2  and  P_41
    3  A    between atoms: O_3  and  C_4
    4  A    between atoms: O_3  and  C_12
    5  A    between atoms: C_4  and  C_15
    6  A    between atoms: C_4  and  C_22
    7  A    between atoms: C_8  and  C_34
    8  A    between atoms: N_11  and  C_14
    9  A    between atoms: C_14  and  P_41
   10  A    between atoms: C_15  and  O_42
   11  A    between atoms: C_22  and  P_41
   12  A    between atoms: C_28  and  C_35
                            x       y       z     vdW  Elec       q    Type
                         _______ _______ _______ _____ _____    ______ ____

>  <TORSDO>
F 12

$$$$
=
 OpenBabel10272414303D

 43 47  0  0  1  0  0  0  0  0999 V2000
  185.1350  178.4090  140.4210 C   0  0  0  0  0  2  0  0  0  0  0  0
  185.3220  177.7520  138.1240 O   0  0  0  0  0  0  0  0  0  0  0  0
  186.6200  178.2770  137.9850 C   0  0  1  0  0  3  0  0  0  0  0  0
  188.6450  178.7880  139.2110 O   0  0  0  0  0  1  0  0  0  0  0  0
  184.6190  178.6000  138.9970 C   0  0  1  0  0  3  0  0  0  0  0  0
  186.6160  178.7810  140.4720 C   0  0  2  0  0  3  0  0  0  0  0  0
  187.4060  178.1520  139.3160 C   0  0  1  0  0  3  0  0  0  0  0  0
  188.0510  177.3270  146.5890 C   0  0  0  0  0  0  0  0  0  0  0  0
  187.1930  178.3830  141.7910 C   0  0  0  0  0  0  0  0  0  0  0  0
  188.3040  177.6780  144.2090 C   0  0  0  0  0  0  0  0  0  0  0  0
  186.6970  177.6720  146.4990 C   0  0  0  0  0  3  0  0  0  0  0  0
  188.5830  176.9880  147.7880 F   0  0  0  0  0  0  0  0  0  0  0  0
  186.9420  178.0320  144.1190 C   0  0  0  0  0  0  0  0  0  0  0  0
  188.8540  177.3250  145.4440 C   0  0  0  0  0  3  0  0  0  0  0  0
  186.1400  178.0260  145.2640 C   0  0  0  0  0  3  0  0  0  0  0  0
  186.4230  178.3800  142.9140 N   0  0  0  0  0  0  0  0  0  0  0  0
  188.5440  178.0300  141.8820 C   0  0  0  0  0  3  0  0  0  0  0  0
  189.0700  177.6860  143.0880 N   0  0  0  0  0  0  0  0  0  0  0  0
  181.0920  177.6280  140.3070 C   0  0  0  0  0  2  0  0  0  0  0  0
  182.3480  175.8760  138.8550 C   0  0  0  0  0  2  0  0  0  0  0  0
  181.1320  176.2880  139.6300 C   0  0  0  0  0  0  0  0  0  0  0  0
  182.4810  178.2630  140.3260 C   0  0  0  0  0  2  0  0  0  0  0  0
  183.1210  178.3200  138.9220 C   0  0  0  0  0  3  0  0  0  0  0  0
  180.1790  175.5320  139.7190 O   0  0  0  0  0  0  0  0  0  0  0  0
  182.8620  177.0720  138.0570 C   0  0  0  0  0  2  0  0  0  0  0  0
  187.2780  177.6190  136.8500 N   0  0  0  0  0  0  0  0  0  0  0  0
  188.3350  178.3700  136.4540 O   0  0  0  0  0  1  0  0  0  0  0  0
  187.8260  175.9450  137.3030 P   0  0  1  0  0  0  0  0  0  0  0  0
  187.2770  175.0900  135.7210 C   0  0  0  0  0  2  0  0  0  0  0  0
  186.1980  174.1180  135.9220 N   0  0  0  0  0  0  0  0  0  0  0  0
  183.7670  173.7420  135.7550 C   0  0  0  0  0  2  0  0  0  0  0  0
  185.0190  172.8520  137.7470 C   0  0  0  0  0  2  0  0  0  0  0  0
  184.1090  172.4970  136.5780 C   0  0  0  0  0  2  0  0  0  0  0  0
  186.3250  173.4940  137.2510 C   0  0  0  0  0  2  0  0  0  0  0  0
  184.8980  174.7750  135.7590 C   0  0  0  0  0  2  0  0  0  0  0  0
  189.6480  176.0500  136.8970 C   0  0  0  0  0  2  0  0  0  0  0  0
  190.4690  175.5070  138.0520 C   0  0  1  0  0  3  0  0  0  0  0  0
  190.8980  174.2140  137.7470 O   0  0  0  0  0  0  0  0  0  0  0  0
  192.1740  174.3800  137.2030 C   0  0  0  0  0  2  0  0  0  0  0  0
  192.4610  173.2550  136.2320 C   0  0  0  0  0  1  0  0  0  0  0  0
  191.6710  176.4070  138.2880 C   0  0  0  0  0  2  0  0  0  0  0  0
  192.9090  177.2980  139.8810 C   0  0  0  0  0  1  0  0  0  0  0  0
  191.5910  176.9820  139.5560 O   0  0  0  0  0  0  0  0  0  0  0  0
  1  6  1  0  0  0  0
  2  5  1  0  0  0  0
  3 26  1  6  0  0  0
  3  2  1  0  0  0  0
  3  7  1  0  0  0  0
  5 23  1  1  0  0  0
  5  1  1  0  0  0  0
  6  9  1  1  0  0  0
  7  4  1  6  0  0  0
  7  6  1  0  0  0  0
  8 12  1  0  0  0  0
  9 17  2  0  0  0  0
  9 16  1  0  0  0  0
 10 14  1  0  0  0  0
 11  8  1  0  0  0  0
 13 10  1  0  0  0  0
 13 15  1  0  0  0  0
 14  8  2  0  0  0  0
 15 11  2  0  0  0  0
 16 13  2  0  0  0  0
 17 18  1  0  0  0  0
 18 10  2  0  0  0  0
 19 22  1  0  0  0  0
 20 21  1  0  0  0  0
 21 24  2  0  0  0  0
 21 19  1  0  0  0  0
 23 22  1  0  0  0  0
 25 20  1  0  0  0  0
 25 23  1  0  0  0  0
 26 28  1  0  0  0  0
 27 26  1  0  0  0  0
 28 29  1  6  0  0  0
 29 30  1  0  0  0  0
 30 34  1  0  0  0  0
 31 35  1  0  0  0  0
 31 33  1  0  0  0  0
 33 32  1  0  0  0  0
 34 32  1  0  0  0  0
 35 30  1  0  0  0  0
 36 28  1  0  0  0  0
 37 36  1  6  0  0  0
 37 41  1  0  0  0  0
 38 37  1  0  0  0  0
 39 38  1  0  0  0  0
 40 39  1  0  0  0  0
 41 43  1  0  0  0  0
 43 42  1  0  0  0  0
M  END
>  <MODEL>
8

>  <REMARK>
 VINA RESULT:      -7.5      3.700      9.104
  Name = 
  12 active torsions:
  status: ('A' for Active; 'I' for Inactive)
    1  A    between atoms: N_2  and  C_13
    2  A    between atoms: N_2  and  P_41
    3  A    between atoms: O_3  and  C_4
    4  A    between atoms: O_3  and  C_12
    5  A    between atoms: C_4  and  C_15
    6  A    between atoms: C_4  and  C_22
    7  A    between atoms: C_8  and  C_34
    8  A    between atoms: N_11  and  C_14
    9  A    between atoms: C_14  and  P_41
   10  A    between atoms: C_15  and  O_42
   11  A    between atoms: C_22  and  P_41
   12  A    between atoms: C_28  and  C_35
                            x       y       z     vdW  Elec       q    Type
                         _______ _______ _______ _____ _____    ______ ____

>  <TORSDO>
F 12

$$$$
=
 OpenBabel10272414303D

 43 47  0  0  1  0  0  0  0  0999 V2000
  189.9450  175.1770  136.9680 C   0  0  0  0  0  2  0  0  0  0  0  0
  188.5020  176.6850  138.1440 O   0  0  0  0  0  0  0  0  0  0  0  0
  189.3690  176.7970  139.2480 C   0  0  1  0  0  3  0  0  0  0  0  0
  191.6960  176.6740  139.9030 O   0  0  0  0  0  1  0  0  0  0  0  0
  188.6020  175.3670  137.6670 C   0  0  1  0  0  3  0  0  0  0  0  0
  191.0710  175.4150  137.9720 C   0  0  2  0  0  3  0  0  0  0  0  0
  190.8470  176.6920  138.7940 C   0  0  1  0  0  3  0  0  0  0  0  0
  197.1520  175.0770  135.8480 C   0  0  0  0  0  0  0  0  0  0  0  0
  192.3840  175.4620  137.2600 C   0  0  0  0  0  0  0  0  0  0  0  0
  194.7910  175.6010  135.9320 C   0  0  0  0  0  0  0  0  0  0  0  0
  197.0510  174.4170  137.0790 C   0  0  0  0  0  3  0  0  0  0  0  0
  198.3450  175.1420  135.2110 F   0  0  0  0  0  0  0  0  0  0  0  0
  194.6920  174.9420  137.1750 C   0  0  0  0  0  0  0  0  0  0  0  0
  196.0210  175.6660  135.2720 C   0  0  0  0  0  3  0  0  0  0  0  0
  195.8220  174.3490  137.7450 C   0  0  0  0  0  3  0  0  0  0  0  0
  193.4920  174.8930  137.8090 N   0  0  0  0  0  0  0  0  0  0  0  0
  192.4830  176.1130  136.0260 C   0  0  0  0  0  3  0  0  0  0  0  0
  193.6840  176.1700  135.3890 N   0  0  0  0  0  0  0  0  0  0  0  0
  184.9620  175.4570  136.3090 C   0  0  0  0  0  2  0  0  0  0  0  0
  185.7690  173.2440  137.4050 C   0  0  0  0  0  2  0  0  0  0  0  0
  184.7030  174.0320  136.7060 C   0  0  0  0  0  0  0  0  0  0  0  0
  186.2370  175.9770  136.9700 C   0  0  0  0  0  2  0  0  0  0  0  0
  187.4480  175.0550  136.7170 C   0  0  0  0  0  3  0  0  0  0  0  0
  183.6210  173.5210  136.4670 O   0  0  0  0  0  0  0  0  0  0  0  0
  187.1210  173.5500  136.7640 C   0  0  0  0  0  2  0  0  0  0  0  0
  189.0620  178.0390  139.9670 N   0  0  0  0  0  0  0  0  0  0  0  0
  188.1140  178.7250  139.2830 O   0  0  0  0  0  1  0  0  0  0  0  0
  188.4910  177.6840  141.6570 P   0  0  1  0  0  0  0  0  0  0  0  0
  189.7880  178.7030  142.5550 C   0  0  0  0  0  2  0  0  0  0  0  0
  190.5280  177.9500  143.5730 N   0  0  0  0  0  0  0  0  0  0  0  0
  191.6060  175.7960  144.0990 C   0  0  0  0  0  2  0  0  0  0  0  0
  190.2420  176.9560  145.8640 C   0  0  0  0  0  2  0  0  0  0  0  0
  191.6060  176.3740  145.5170 C   0  0  0  0  0  2  0  0  0  0  0  0
  189.8490  178.0660  144.8760 C   0  0  0  0  0  2  0  0  0  0  0  0
  190.6610  176.5500  143.1590 C   0  0  0  0  0  2  0  0  0  0  0  0
  187.0800  178.9000  141.8130 C   0  0  0  0  0  2  0  0  0  0  0  0
  185.8080  178.1720  142.2080 C   0  0  1  0  0  3  0  0  0  0  0  0
  185.5450  178.3990  143.5600 O   0  0  0  0  0  0  0  0  0  0  0  0
  184.1680  178.6230  143.6230 C   0  0  0  0  0  2  0  0  0  0  0  0
  183.7480  178.7910  145.0680 C   0  0  0  0  0  1  0  0  0  0  0  0
  184.6490  178.6810  141.3640 C   0  0  0  0  0  2  0  0  0  0  0  0
  184.1100  179.5390  139.4060 C   0  0  0  0  0  1  0  0  0  0  0  0
  185.1290  179.5170  140.3560 O   0  0  0  0  0  0  0  0  0  0  0  0
  1  5  1  0  0  0  0
  1  6  1  0  0  0  0
  2  3  1  0  0  0  0
  3 26  1  6  0  0  0
  5 23  1  6  0  0  0
  5  2  1  0  0  0  0
  6  9  1  6  0  0  0
  6  7  1  0  0  0  0
  7  3  1  0  0  0  0
  7  4  1  1  0  0  0
  8 11  1  0  0  0  0
  9 16  1  0  0  0  0
 10 13  1  0  0  0  0
 11 15  2  0  0  0  0
 12  8  1  0  0  0  0
 13 15  1  0  0  0  0
 13 16  2  0  0  0  0
 14  8  2  0  0  0  0
 14 10  1  0  0  0  0
 17  9  2  0  0  0  0
 18 10  2  0  0  0  0
 18 17  1  0  0  0  0
 19 21  1  0  0  0  0
 19 22  1  0  0  0  0
 21 20  1  0  0  0  0
 23 25  1  0  0  0  0
 23 22  1  0  0  0  0
 24 21  2  0  0  0  0
 25 20  1  0  0  0  0
 26 28  1  0  0  0  0
 27 26  1  0  0  0  0
 28 36  1  6  0  0  0
 28 29  1  0  0  0  0
 29 30  1  0  0  0  0
 30 34  1  0  0  0  0
 31 33  1  0  0  0  0
 33 32  1  0  0  0  0
 34 32  1  0  0  0  0
 35 30  1  0  0  0  0
 35 31  1  0  0  0  0
 36 37  1  0  0  0  0
 37 41  1  6  0  0  0
 37 38  1  0  0  0  0
 38 39  1  0  0  0  0
 39 40  1  0  0  0  0
 42 43  1  0  0  0  0
 43 41  1  0  0  0  0
M  END
>  <MODEL>
9

>  <REMARK>
 VINA RESULT:      -7.4      2.896      5.800
  Name = 
  12 active torsions:
  status: ('A' for Active; 'I' for Inactive)
    1  A    between atoms: N_2  and  C_13
    2  A    between atoms: N_2  and  P_41
    3  A    between atoms: O_3  and  C_4
    4  A    between atoms: O_3  and  C_12
    5  A    between atoms: C_4  and  C_15
    6  A    between atoms: C_4  and  C_22
    7  A    between atoms: C_8  and  C_34
    8  A    between atoms: N_11  and  C_14
    9  A    between atoms: C_14  and  P_41
   10  A    between atoms: C_15  and  O_42
   11  A    between atoms: C_22  and  P_41
   12  A    between atoms: C_28  and  C_35
                            x       y       z     vdW  Elec       q    Type
                         _______ _______ _______ _____ _____    ______ ____

>  <TORSDO>
F 12

$$$$
