=
 OpenBabel10272414283D

 43 48  0  0  1  0  0  0  0  0999 V2000
  187.0920  177.9210  147.0300 C   0  0  0  0  0  0  0  0  0  0  0  0
  183.9370  178.9410  143.2450 C   0  0  0  0  0  0  0  0  0  0  0  0
  185.2320  178.7560  145.6870 C   0  0  0  0  0  0  0  0  0  0  0  0
  187.6720  177.2980  145.9960 C   0  0  0  0  0  3  0  0  0  0  0  0
  187.8390  177.8320  148.6110 Cl  0  0  0  0  0  0  0  0  0  0  0  0
  185.8210  178.0850  144.5000 C   0  0  0  0  0  0  0  0  0  0  0  0
  185.8360  178.6760  146.8710 C   0  0  0  0  0  3  0  0  0  0  0  0
  187.1090  177.3150  144.5980 C   0  0  0  0  0  2  0  0  0  0  0  0
  185.4920  177.7000  142.0920 N   0  0  0  0  0  2  0  0  0  0  0  0
  185.1500  178.2120  143.3570 C   0  0  0  0  0  0  0  0  0  0  0  0
  183.3860  179.5670  144.2880 C   0  0  0  0  0  3  0  0  0  0  0  0
  183.5050  178.8740  141.8230 C   0  0  1  0  0  3  0  0  0  0  0  0
  184.5360  178.0700  141.1160 N   0  0  1  0  0  0  0  0  0  0  0  0
  184.0300  179.4770  145.5400 O   0  0  0  0  0  0  0  0  0  0  0  0
  185.8510  178.1060  139.0820 C   0  0  2  0  0  3  0  0  0  0  0  0
  184.5570  178.8400  138.8060 C   0  0  0  0  0  2  0  0  0  0  0  0
  185.2110  178.9480  140.1700 C   0  0  1  0  0  3  0  0  0  0  0  0
  186.9170  178.8110  138.5200 O   0  0  0  0  0  0  0  0  0  0  0  0
  187.7020  177.8340  137.8920 C   0  0  2  0  0  3  0  0  0  0  0  0
  186.8610  176.9790  136.9490 C   0  0  0  0  0  2  0  0  0  0  0  0
  186.7880  177.5580  135.6810 O   0  0  0  0  0  1  0  0  0  0  0  0
  188.4890  176.9950  138.9060 C   0  0  1  0  0  3  0  0  0  0  0  0
  189.3110  176.0910  138.2270 O   0  0  0  0  0  0  0  0  0  0  0  0
  190.8790  176.3860  136.4670 C   0  0  0  0  0  1  0  0  0  0  0  0
  190.4320  176.8300  137.8440 C   0  0  0  0  0  2  0  0  0  0  0  0
  189.3350  177.8710  139.8290 C   0  0  0  0  0  2  0  0  0  0  0  0
  188.7670  177.9070  141.2430 C   0  0  2  0  0  3  0  0  0  0  0  0
  188.3390  179.2020  141.5400 O   0  0  0  0  0  1  0  0  0  0  0  0
  189.7660  177.4550  142.2600 C   0  0  0  0  0  0  0  0  0  0  0  0
  191.2840  177.9770  144.0690 C   0  0  0  0  0  3  0  0  0  0  0  0
  191.0230  175.7210  143.3280 N   0  0  0  0  0  0  0  0  0  0  0  0
  191.6040  176.6210  144.1650 C   0  0  0  0  0  3  0  0  0  0  0  0
  190.1230  176.1060  142.3830 C   0  0  0  0  0  3  0  0  0  0  0  0
  190.3600  178.3920  143.1080 C   0  0  0  0  0  3  0  0  0  0  0  0
  182.1590  178.1750  141.7230 C   0  0  0  0  0  2  0  0  0  0  0  0
  181.0910  179.1600  141.2800 C   0  0  0  0  0  2  0  0  0  0  0  0
  181.2180  180.7180  137.8290 C   0  0  0  0  0  3  0  0  0  0  0  0
  181.0230  178.3150  137.5920 C   0  0  0  0  0  3  0  0  0  0  0  0
  181.1250  179.5840  137.0150 C   0  0  0  0  0  0  0  0  0  0  0  0
  181.2130  180.5820  139.2190 C   0  0  0  0  0  3  0  0  0  0  0  0
  181.1160  179.3100  139.8000 C   0  0  0  0  0  0  0  0  0  0  0  0
  181.1250  179.7180  135.6680 F   0  0  0  0  0  0  0  0  0  0  0  0
  181.0170  178.1780  138.9840 C   0  0  0  0  0  3  0  0  0  0  0  0
  1  5  1  0  0  0  0
  2 10  1  0  0  0  0
  2 11  2  0  0  0  0
  3  7  2  0  0  0  0
  4  1  2  0  0  0  0
  6  8  1  0  0  0  0
  6  3  1  0  0  0  0
  7  1  1  0  0  0  0
  8  4  1  0  0  0  0
  9 10  1  0  0  0  0
 10  6  2  0  0  0  0
 11 14  1  0  0  0  0
 12 35  1  1  0  0  0
 12  2  1  0  0  0  0
 13 12  1  0  0  0  0
 13  9  1  1  0  0  0
 14  3  1  0  0  0  0
 15 18  1  6  0  0  0
 15 17  1  0  0  0  0
 16 15  1  0  0  0  0
 17 16  1  6  0  0  0
 17 13  1  0  0  0  0
 19 20  1  1  0  0  0
 19 18  1  0  0  0  0
 19 22  1  0  0  0  0
 21 20  1  0  0  0  0
 22 26  1  6  0  0  0
 23 22  1  0  0  0  0
 24 25  1  0  0  0  0
 25 23  1  0  0  0  0
 26 27  1  0  0  0  0
 27 28  1  1  0  0  0
 27 29  1  0  0  0  0
 29 33  2  0  0  0  0
 29 34  1  0  0  0  0
 30 32  1  0  0  0  0
 31 32  2  0  0  0  0
 33 31  1  0  0  0  0
 34 30  2  0  0  0  0
 36 35  1  0  0  0  0
 37 40  1  0  0  0  0
 38 43  2  0  0  0  0
 39 38  1  0  0  0  0
 39 37  2  0  0  0  0
 40 41  2  0  0  0  0
 41 36  1  0  0  0  0
 42 39  1  0  0  0  0
 43 41  1  0  0  0  0
M  END
>  <MODEL>
1

>  <REMARK>
 VINA RESULT:      -8.1      0.000      0.000
  Name = 
  13 active torsions:
  status: ('A' for Active; 'I' for Inactive)
    1  A    between atoms: C_1  and  C_28
    2  A    between atoms: C_1  and  C_34
    3  A    between atoms: C_2  and  O_6
    4  A    between atoms: C_3  and  C_4
    5  A    between atoms: C_3  and  O_6
    6  A    between atoms: C_3  and  C_12
    7  A    between atoms: C_4  and  O_15
    8  A    between atoms: C_4  and  C_22
    9  A    between atoms: C_11  and  C_14
   10  A    between atoms: C_13  and  N_38
   11  A    between atoms: C_14  and  C_22
   12  A    between atoms: O_15  and  C_42
   13  A    between atoms: C_28  and  C_35
                            x       y       z     vdW  Elec       q    Type
                         _______ _______ _______ _____ _____    ______ ____

>  <TORSDO>
F 13

$$$$
=
 OpenBabel10272414283D

 43 48  0  0  1  0  0  0  0  0999 V2000
  192.1840  176.0160  147.7020 C   0  0  0  0  0  0  0  0  0  0  0  0
  188.4750  177.7530  144.7780 C   0  0  0  0  0  0  0  0  0  0  0  0
  190.2070  177.1790  146.8620 C   0  0  0  0  0  0  0  0  0  0  0  0
  192.4570  175.4470  146.5220 C   0  0  0  0  0  3  0  0  0  0  0  0
  193.2200  175.6840  149.0740 Cl  0  0  0  0  0  0  0  0  0  0  0  0
  190.4530  176.5760  145.5270 C   0  0  0  0  0  0  0  0  0  0  0  0
  191.0260  176.9120  147.8780 C   0  0  0  0  0  3  0  0  0  0  0  0
  191.6270  175.6690  145.2830 C   0  0  0  0  0  2  0  0  0  0  0  0
  189.5940  176.4820  143.2220 N   0  0  0  0  0  2  0  0  0  0  0  0
  189.5850  176.8930  144.5680 C   0  0  0  0  0  0  0  0  0  0  0  0
  188.2320  178.3220  145.9620 C   0  0  0  0  0  3  0  0  0  0  0  0
  187.7570  177.8820  143.4810 C   0  0  1  0  0  3  0  0  0  0  0  0
  188.5140  177.0510  142.5070 N   0  0  1  0  0  0  0  0  0  0  0  0
  189.1010  178.0340  147.0350 O   0  0  0  0  0  0  0  0  0  0  0  0
  189.1260  177.2360  140.1710 C   0  0  2  0  0  3  0  0  0  0  0  0
  188.0530  178.2660  140.4480 C   0  0  0  0  0  2  0  0  0  0  0  0
  189.0850  177.9470  141.5120 C   0  0  1  0  0  3  0  0  0  0  0  0
  190.1250  177.8040  139.3780 O   0  0  0  0  0  0  0  0  0  0  0  0
  191.1380  176.8380  139.3320 C   0  0  2  0  0  3  0  0  0  0  0  0
  192.4270  177.3660  139.9550 C   0  0  0  0  0  2  0  0  0  0  0  0
  193.5340  177.0260  139.1760 O   0  0  0  0  0  1  0  0  0  0  0  0
  191.3470  176.2950  137.9130 C   0  0  1  0  0  3  0  0  0  0  0  0
  190.8670  174.9840  137.8390 O   0  0  0  0  0  0  0  0  0  0  0  0
  191.6900  173.3520  136.3210 C   0  0  0  0  0  1  0  0  0  0  0  0
  191.9850  174.2020  137.5390 C   0  0  0  0  0  2  0  0  0  0  0  0
  190.6470  177.1620  136.8680 C   0  0  0  0  0  2  0  0  0  0  0  0
  189.5000  176.4150  136.1960 C   0  0  2  0  0  3  0  0  0  0  0  0
  189.6200  176.5260  134.8100 O   0  0  0  0  0  1  0  0  0  0  0  0
  188.1650  176.9260  136.6340 C   0  0  0  0  0  0  0  0  0  0  0  0
  185.9050  176.4910  137.3770 C   0  0  0  0  0  3  0  0  0  0  0  0
  186.6860  178.7370  137.1480 N   0  0  0  0  0  0  0  0  0  0  0  0
  185.6910  177.8680  137.4710 C   0  0  0  0  0  3  0  0  0  0  0  0
  187.9060  178.3000  136.7320 C   0  0  0  0  0  3  0  0  0  0  0  0
  187.1500  176.0220  136.9540 C   0  0  0  0  0  3  0  0  0  0  0  0
  186.3420  177.3420  143.6180 C   0  0  0  0  0  2  0  0  0  0  0  0
  185.4180  178.4290  144.1410 C   0  0  0  0  0  2  0  0  0  0  0  0
  183.1300  178.3800  141.1220 C   0  0  0  0  0  3  0  0  0  0  0  0
  181.8240  178.9550  143.0800 C   0  0  0  0  0  3  0  0  0  0  0  0
  181.9030  178.7160  141.7050 C   0  0  0  0  0  0  0  0  0  0  0  0
  184.2760  178.2800  141.9150 C   0  0  0  0  0  3  0  0  0  0  0  0
  184.1980  178.5150  143.2940 C   0  0  0  0  0  0  0  0  0  0  0  0
  180.7950  178.8170  140.9340 F   0  0  0  0  0  0  0  0  0  0  0  0
  182.9710  178.8570  143.8740 C   0  0  0  0  0  3  0  0  0  0  0  0
  1  7  1  0  0  0  0
  1  5  1  0  0  0  0
  2 11  2  0  0  0  0
  3 14  1  0  0  0  0
  3  7  2  0  0  0  0
  4  1  2  0  0  0  0
  6  3  1  0  0  0  0
  8  6  1  0  0  0  0
  8  4  1  0  0  0  0
  9 10  1  0  0  0  0
 10  2  1  0  0  0  0
 10  6  2  0  0  0  0
 11 14  1  0  0  0  0
 12 35  1  1  0  0  0
 12  2  1  0  0  0  0
 13  9  1  1  0  0  0
 13 12  1  0  0  0  0
 15 18  1  6  0  0  0
 15 16  1  0  0  0  0
 15 17  1  0  0  0  0
 17 16  1  6  0  0  0
 17 13  1  0  0  0  0
 19 18  1  0  0  0  0
 19 20  1  6  0  0  0
 21 20  1  0  0  0  0
 22 26  1  6  0  0  0
 22 19  1  0  0  0  0
 23 22  1  0  0  0  0
 24 25  1  0  0  0  0
 25 23  1  0  0  0  0
 27 28  1  6  0  0  0
 27 29  1  0  0  0  0
 27 26  1  0  0  0  0
 29 33  2  0  0  0  0
 29 34  1  0  0  0  0
 30 32  1  0  0  0  0
 31 32  2  0  0  0  0
 33 31  1  0  0  0  0
 34 30  2  0  0  0  0
 35 36  1  0  0  0  0
 37 39  2  0  0  0  0
 37 40  1  0  0  0  0
 38 43  2  0  0  0  0
 39 38  1  0  0  0  0
 40 41  2  0  0  0  0
 41 43  1  0  0  0  0
 41 36  1  0  0  0  0
 42 39  1  0  0  0  0
M  END
>  <MODEL>
2

>  <REMARK>
 VINA RESULT:      -7.7      2.624      5.367
  Name = 
  13 active torsions:
  status: ('A' for Active; 'I' for Inactive)
    1  A    between atoms: C_1  and  C_28
    2  A    between atoms: C_1  and  C_34
    3  A    between atoms: C_2  and  O_6
    4  A    between atoms: C_3  and  C_4
    5  A    between atoms: C_3  and  O_6
    6  A    between atoms: C_3  and  C_12
    7  A    between atoms: C_4  and  O_15
    8  A    between atoms: C_4  and  C_22
    9  A    between atoms: C_11  and  C_14
   10  A    between atoms: C_13  and  N_38
   11  A    between atoms: C_14  and  C_22
   12  A    between atoms: O_15  and  C_42
   13  A    between atoms: C_28  and  C_35
                            x       y       z     vdW  Elec       q    Type
                         _______ _______ _______ _____ _____    ______ ____

>  <TORSDO>
F 13

$$$$
=
 OpenBabel10272414283D

 43 48  0  0  1  0  0  0  0  0999 V2000
  187.0690  178.0130  147.1860 C   0  0  0  0  0  0  0  0  0  0  0  0
  183.8760  178.9240  143.4040 C   0  0  0  0  0  0  0  0  0  0  0  0
  185.1800  178.7850  145.8440 C   0  0  0  0  0  0  0  0  0  0  0  0
  187.6670  177.4090  146.1520 C   0  0  0  0  0  3  0  0  0  0  0  0
  187.8200  177.9520  148.7660 Cl  0  0  0  0  0  0  0  0  0  0  0  0
  185.7890  178.1320  144.6580 C   0  0  0  0  0  0  0  0  0  0  0  0
  185.7880  178.7270  147.0280 C   0  0  0  0  0  3  0  0  0  0  0  0
  187.1020  177.4050  144.7540 C   0  0  0  0  0  2  0  0  0  0  0  0
  185.4700  177.7340  142.2500 N   0  0  0  0  0  2  0  0  0  0  0  0
  185.1130  178.2360  143.5150 C   0  0  0  0  0  0  0  0  0  0  0  0
  183.3070  179.5340  144.4470 C   0  0  0  0  0  3  0  0  0  0  0  0
  183.4450  178.8420  141.9820 C   0  0  1  0  0  3  0  0  0  0  0  0
  184.5010  178.0700  141.2750 N   0  0  1  0  0  0  0  0  0  0  0  0
  183.9550  179.4670  145.6980 O   0  0  0  0  0  0  0  0  0  0  0  0
  185.1500  178.3200  138.9550 C   0  0  2  0  0  3  0  0  0  0  0  0
  184.1490  179.4100  139.2720 C   0  0  0  0  0  2  0  0  0  0  0  0
  185.1450  178.9690  140.3280 C   0  0  1  0  0  3  0  0  0  0  0  0
  186.1950  178.8530  138.1970 O   0  0  0  0  0  0  0  0  0  0  0  0
  186.3190  177.9870  137.1020 C   0  0  2  0  0  3  0  0  0  0  0  0
  185.5560  176.6880  137.3400 C   0  0  0  0  0  2  0  0  0  0  0  0
  186.1670  175.6210  136.6790 O   0  0  0  0  0  1  0  0  0  0  0  0
  187.7870  177.7500  136.7260 C   0  0  1  0  0  3  0  0  0  0  0  0
  188.0270  178.2490  135.4420 O   0  0  0  0  0  0  0  0  0  0  0  0
  188.7910  176.2620  134.3860 C   0  0  0  0  0  1  0  0  0  0  0  0
  189.1780  177.5900  135.0020 C   0  0  0  0  0  2  0  0  0  0  0  0
  188.7400  178.4070  137.7230 C   0  0  0  0  0  2  0  0  0  0  0  0
  189.6790  177.3870  138.3560 C   0  0  2  0  0  3  0  0  0  0  0  0
  189.2220  176.0980  138.0790 O   0  0  0  0  0  1  0  0  0  0  0  0
  189.8000  177.5770  139.8340 C   0  0  0  0  0  0  0  0  0  0  0  0
  191.0940  177.3670  141.8660 C   0  0  0  0  0  3  0  0  0  0  0  0
  188.9060  178.3230  141.9250 N   0  0  0  0  0  0  0  0  0  0  0  0
  190.0400  177.9490  142.5740 C   0  0  0  0  0  3  0  0  0  0  0  0
  188.7630  178.1470  140.5830 C   0  0  0  0  0  3  0  0  0  0  0  0
  190.9680  177.1800  140.4880 C   0  0  0  0  0  3  0  0  0  0  0  0
  182.1220  178.0980  141.8850 C   0  0  0  0  0  2  0  0  0  0  0  0
  181.2100  178.7860  140.8850 C   0  0  0  0  0  2  0  0  0  0  0  0
  180.8770  175.6600  138.7700 C   0  0  0  0  0  3  0  0  0  0  0  0
  180.3080  177.5840  137.4120 C   0  0  0  0  0  3  0  0  0  0  0  0
  180.4730  176.2020  137.5450 C   0  0  0  0  0  0  0  0  0  0  0  0
  181.1130  176.5000  139.8620 C   0  0  0  0  0  3  0  0  0  0  0  0
  180.9430  177.8840  139.7310 C   0  0  0  0  0  0  0  0  0  0  0  0
  180.2510  175.3870  136.4870 F   0  0  0  0  0  0  0  0  0  0  0  0
  180.5440  178.4250  138.5030 C   0  0  0  0  0  3  0  0  0  0  0  0
  1  5  1  0  0  0  0
  2 10  1  0  0  0  0
  2 11  2  0  0  0  0
  3  7  2  0  0  0  0
  4  1  2  0  0  0  0
  6  8  1  0  0  0  0
  6  3  1  0  0  0  0
  7  1  1  0  0  0  0
  8  4  1  0  0  0  0
  9 10  1  0  0  0  0
 10  6  2  0  0  0  0
 11 14  1  0  0  0  0
 12 35  1  1  0  0  0
 12  2  1  0  0  0  0
 13 12  1  0  0  0  0
 13  9  1  1  0  0  0
 14  3  1  0  0  0  0
 15 18  1  6  0  0  0
 15 16  1  0  0  0  0
 15 17  1  0  0  0  0
 17 16  1  6  0  0  0
 17 13  1  0  0  0  0
 19 20  1  1  0  0  0
 19 18  1  0  0  0  0
 21 20  1  0  0  0  0
 22 19  1  0  0  0  0
 22 26  1  1  0  0  0
 23 22  1  0  0  0  0
 24 25  1  0  0  0  0
 25 23  1  0  0  0  0
 26 27  1  0  0  0  0
 27 28  1  1  0  0  0
 27 29  1  0  0  0  0
 29 34  2  0  0  0  0
 29 33  1  0  0  0  0
 30 32  2  0  0  0  0
 31 32  1  0  0  0  0
 33 31  2  0  0  0  0
 34 30  1  0  0  0  0
 36 35  1  0  0  0  0
 37 40  1  0  0  0  0
 38 39  1  0  0  0  0
 38 43  2  0  0  0  0
 39 37  2  0  0  0  0
 41 40  2  0  0  0  0
 41 36  1  0  0  0  0
 42 39  1  0  0  0  0
 43 41  1  0  0  0  0
M  END
>  <MODEL>
3

>  <REMARK>
 VINA RESULT:      -7.7      1.517      2.246
  Name = 
  13 active torsions:
  status: ('A' for Active; 'I' for Inactive)
    1  A    between atoms: C_1  and  C_28
    2  A    between atoms: C_1  and  C_34
    3  A    between atoms: C_2  and  O_6
    4  A    between atoms: C_3  and  C_4
    5  A    between atoms: C_3  and  O_6
    6  A    between atoms: C_3  and  C_12
    7  A    between atoms: C_4  and  O_15
    8  A    between atoms: C_4  and  C_22
    9  A    between atoms: C_11  and  C_14
   10  A    between atoms: C_13  and  N_38
   11  A    between atoms: C_14  and  C_22
   12  A    between atoms: O_15  and  C_42
   13  A    between atoms: C_28  and  C_35
                            x       y       z     vdW  Elec       q    Type
                         _______ _______ _______ _____ _____    ______ ____

>  <TORSDO>
F 13

$$$$
=
 OpenBabel10272414283D

 43 48  0  0  1  0  0  0  0  0999 V2000
  192.0900  176.0140  147.5030 C   0  0  0  0  0  0  0  0  0  0  0  0
  188.2980  177.7570  144.6920 C   0  0  0  0  0  0  0  0  0  0  0  0
  190.0700  177.1510  146.7320 C   0  0  0  0  0  0  0  0  0  0  0  0
  192.3670  175.5020  146.2980 C   0  0  0  0  0  3  0  0  0  0  0  0
  193.1520  175.6580  148.8490 Cl  0  0  0  0  0  0  0  0  0  0  0  0
  190.3180  176.6110  145.3710 C   0  0  0  0  0  0  0  0  0  0  0  0
  190.9080  176.8670  147.7280 C   0  0  0  0  0  3  0  0  0  0  0  0
  191.5160  175.7500  145.0780 C   0  0  0  0  0  2  0  0  0  0  0  0
  189.4360  176.5850  143.0730 N   0  0  0  0  0  2  0  0  0  0  0  0
  189.4300  176.9400  144.4350 C   0  0  0  0  0  0  0  0  0  0  0  0
  188.0520  178.2700  145.9000 C   0  0  0  0  0  3  0  0  0  0  0  0
  187.5610  177.9170  143.4090 C   0  0  1  0  0  3  0  0  0  0  0  0
  188.3310  177.1490  142.3930 N   0  0  1  0  0  0  0  0  0  0  0  0
  188.9420  177.9650  146.9510 O   0  0  0  0  0  0  0  0  0  0  0  0
  188.8150  177.4850  140.0440 C   0  0  2  0  0  3  0  0  0  0  0  0
  187.7800  178.5110  140.4510 C   0  0  0  0  0  2  0  0  0  0  0  0
  188.8640  178.1020  141.4300 C   0  0  1  0  0  3  0  0  0  0  0  0
  189.7790  178.0890  139.2350 O   0  0  0  0  0  0  0  0  0  0  0  0
  189.5190  177.6070  137.9460 C   0  0  2  0  0  3  0  0  0  0  0  0
  188.5640  178.5320  137.1970 C   0  0  0  0  0  2  0  0  0  0  0  0
  188.9010  179.8710  137.4040 O   0  0  0  0  0  1  0  0  0  0  0  0
  189.0360  176.1510  137.9670 C   0  0  1  0  0  3  0  0  0  0  0  0
  187.8400  176.0450  137.2520 O   0  0  0  0  0  0  0  0  0  0  0  0
  187.2350  174.4950  135.5560 C   0  0  0  0  0  1  0  0  0  0  0  0
  187.6900  174.6810  136.9880 C   0  0  0  0  0  2  0  0  0  0  0  0
  190.0780  175.2020  137.3770 C   0  0  0  0  0  2  0  0  0  0  0  0
  191.1470  175.9580  136.5970 C   0  0  2  0  0  3  0  0  0  0  0  0
  190.9020  175.8330  135.2290 O   0  0  0  0  0  1  0  0  0  0  0  0
  192.5240  175.4680  136.9140 C   0  0  0  0  0  0  0  0  0  0  0  0
  194.3980  174.0300  136.3930 C   0  0  0  0  0  3  0  0  0  0  0  0
  194.5040  175.5190  138.2580 N   0  0  0  0  0  0  0  0  0  0  0  0
  195.0880  174.5690  137.4820 C   0  0  0  0  0  3  0  0  0  0  0  0
  193.2460  175.9730  138.0030 C   0  0  0  0  0  3  0  0  0  0  0  0
  193.1080  174.4850  136.1120 C   0  0  0  0  0  3  0  0  0  0  0  0
  186.1650  177.3300  143.5370 C   0  0  0  0  0  2  0  0  0  0  0  0
  185.2290  178.3460  144.1700 C   0  0  0  0  0  2  0  0  0  0  0  0
  182.9120  178.4890  141.1750 C   0  0  0  0  0  3  0  0  0  0  0  0
  181.6370  178.9990  143.1720 C   0  0  0  0  0  3  0  0  0  0  0  0
  181.6980  178.8230  141.7860 C   0  0  0  0  0  0  0  0  0  0  0  0
  184.0630  178.3280  141.9510 C   0  0  0  0  0  3  0  0  0  0  0  0
  184.0030  178.4990  143.3400 C   0  0  0  0  0  0  0  0  0  0  0  0
  180.5850  178.9850  141.0330 F   0  0  0  0  0  0  0  0  0  0  0  0
  182.7890  178.8390  143.9490 C   0  0  0  0  0  3  0  0  0  0  0  0
  1  7  1  0  0  0  0
  1  5  1  0  0  0  0
  2 11  2  0  0  0  0
  3 14  1  0  0  0  0
  3  7  2  0  0  0  0
  4  1  2  0  0  0  0
  6  3  1  0  0  0  0
  8  6  1  0  0  0  0
  8  4  1  0  0  0  0
  9 10  1  0  0  0  0
 10  2  1  0  0  0  0
 10  6  2  0  0  0  0
 11 14  1  0  0  0  0
 12 35  1  1  0  0  0
 12  2  1  0  0  0  0
 13  9  1  1  0  0  0
 13 12  1  0  0  0  0
 15 18  1  6  0  0  0
 15 16  1  0  0  0  0
 15 17  1  0  0  0  0
 17 16  1  6  0  0  0
 17 13  1  0  0  0  0
 19 20  1  1  0  0  0
 19 22  1  0  0  0  0
 19 18  1  0  0  0  0
 20 21  1  0  0  0  0
 22 26  1  6  0  0  0
 23 22  1  0  0  0  0
 24 25  1  0  0  0  0
 25 23  1  0  0  0  0
 27 28  1  6  0  0  0
 27 29  1  0  0  0  0
 27 26  1  0  0  0  0
 29 33  1  0  0  0  0
 30 32  2  0  0  0  0
 32 31  1  0  0  0  0
 33 31  2  0  0  0  0
 34 30  1  0  0  0  0
 34 29  2  0  0  0  0
 35 36  1  0  0  0  0
 37 39  2  0  0  0  0
 37 40  1  0  0  0  0
 38 43  2  0  0  0  0
 39 38  1  0  0  0  0
 40 41  2  0  0  0  0
 41 43  1  0  0  0  0
 41 36  1  0  0  0  0
 42 39  1  0  0  0  0
M  END
>  <MODEL>
4

>  <REMARK>
 VINA RESULT:      -7.5      2.697      5.045
  Name = 
  13 active torsions:
  status: ('A' for Active; 'I' for Inactive)
    1  A    between atoms: C_1  and  C_28
    2  A    between atoms: C_1  and  C_34
    3  A    between atoms: C_2  and  O_6
    4  A    between atoms: C_3  and  C_4
    5  A    between atoms: C_3  and  O_6
    6  A    between atoms: C_3  and  C_12
    7  A    between atoms: C_4  and  O_15
    8  A    between atoms: C_4  and  C_22
    9  A    between atoms: C_11  and  C_14
   10  A    between atoms: C_13  and  N_38
   11  A    between atoms: C_14  and  C_22
   12  A    between atoms: O_15  and  C_42
   13  A    between atoms: C_28  and  C_35
                            x       y       z     vdW  Elec       q    Type
                         _______ _______ _______ _____ _____    ______ ____

>  <TORSDO>
F 13

$$$$
=
 OpenBabel10272414283D

 43 48  0  0  1  0  0  0  0  0999 V2000
  194.1690  174.7430  136.6270 C   0  0  0  0  0  0  0  0  0  0  0  0
  189.6010  176.7770  137.1920 C   0  0  0  0  0  0  0  0  0  0  0  0
  191.8420  175.4100  136.3070 C   0  0  1  0  0  3  0  0  0  0  0  0
  194.2840  175.3880  137.7940 C   0  0  0  0  0  3  0  0  0  0  0  0
  195.5490  173.8730  135.9900 Cl  0  0  0  0  0  0  0  0  0  0  0  0
  191.9040  176.1500  137.5930 C   0  0  0  0  0  0  0  0  0  0  0  0
  192.9100  174.7500  135.8610 C   0  0  0  0  0  3  0  0  0  0  0  0
  193.1560  176.1640  138.4260 C   0  0  0  0  0  3  0  0  0  0  0  0
  190.5750  177.5360  139.1320 N   0  0  0  0  0  2  0  0  0  0  0  0
  190.7940  176.7850  137.9620 C   0  0  0  0  0  0  0  0  0  0  0  0
  189.5060  176.1110  136.0380 C   0  0  0  0  0  3  0  0  0  0  0  0
  188.5840  177.5710  137.9330 C   0  0  1  0  0  3  0  0  0  0  0  0
  189.2530  178.0370  139.1770 N   0  0  1  0  0  0  0  0  0  0  0  0
  190.6400  175.4150  135.5700 O   0  0  0  0  0  0  0  0  0  0  0  0
  189.0820  178.0240  141.5930 C   0  0  2  0  0  3  0  0  0  0  0  0
  187.7240  178.3960  141.0390 C   0  0  0  0  0  2  0  0  0  0  0  0
  188.5910  177.3930  140.3030 C   0  0  1  0  0  3  0  0  0  0  0  0
  188.9250  177.1140  142.6410 O   0  0  0  0  0  0  0  0  0  0  0  0
  189.5870  177.7010  143.7270 C   0  0  2  0  0  3  0  0  0  0  0  0
  191.0990  177.6870  143.5200 C   0  0  0  0  0  2  0  0  0  0  0  0
  191.6650  178.9070  143.8920 O   0  0  0  0  0  1  0  0  0  0  0  0
  189.1670  177.0700  145.0610 C   0  0  1  0  0  3  0  0  0  0  0  0
  189.6310  177.8590  146.1170 O   0  0  0  0  0  0  0  0  0  0  0  0
  191.5240  176.6770  146.9310 C   0  0  0  0  0  1  0  0  0  0  0  0
  190.0440  176.9530  147.0970 C   0  0  0  0  0  2  0  0  0  0  0  0
  187.6510  176.9120  145.1580 C   0  0  0  0  0  2  0  0  0  0  0  0
  186.9920  178.1660  145.7210 C   0  0  2  0  0  3  0  0  0  0  0  0
  186.8340  178.0300  147.1010 O   0  0  0  0  0  1  0  0  0  0  0  0
  185.6680  178.4390  145.0820 C   0  0  0  0  0  0  0  0  0  0  0  0
  184.2810  178.5060  143.1010 C   0  0  0  0  0  3  0  0  0  0  0  0
  183.3690  179.0910  145.2310 N   0  0  0  0  0  0  0  0  0  0  0  0
  183.2070  178.9200  143.8920 C   0  0  0  0  0  3  0  0  0  0  0  0
  184.5670  178.8660  145.8360 C   0  0  0  0  0  3  0  0  0  0  0  0
  185.5180  178.2670  143.7040 C   0  0  0  0  0  3  0  0  0  0  0  0
  188.1600  178.7720  137.1040 C   0  0  0  0  0  2  0  0  0  0  0  0
  186.9200  178.4350  136.2940 C   0  0  0  0  0  2  0  0  0  0  0  0
  184.1050  176.3720  137.7680 C   0  0  0  0  0  3  0  0  0  0  0  0
  184.4350  178.3370  139.1460 C   0  0  0  0  0  3  0  0  0  0  0  0
  183.7530  177.1460  138.8790 C   0  0  0  0  0  0  0  0  0  0  0  0
  185.1410  176.7870  136.9270 C   0  0  0  0  0  3  0  0  0  0  0  0
  185.8280  177.9770  137.1960 C   0  0  0  0  0  0  0  0  0  0  0  0
  182.7460  176.7450  139.6900 F   0  0  0  0  0  0  0  0  0  0  0  0
  185.4710  178.7540  138.3040 C   0  0  0  0  0  3  0  0  0  0  0  0
  1  4  1  0  0  0  0
  2 12  1  0  0  0  0
  2 10  1  0  0  0  0
  3  7  1  1  0  0  0
  3  6  1  0  0  0  0
  4  8  2  0  0  0  0
  5  1  1  0  0  0  0
  6 10  2  0  0  0  0
  6  8  1  0  0  0  0
  7  1  2  0  0  0  0
 10  9  1  0  0  0  0
 11  2  2  0  0  0  0
 12 35  1  6  0  0  0
 12 13  1  0  0  0  0
 13  9  1  6  0  0  0
 13 17  1  0  0  0  0
 14 11  1  0  0  0  0
 14  3  1  0  0  0  0
 15 18  1  1  0  0  0
 16 15  1  0  0  0  0
 17 16  1  6  0  0  0
 17 15  1  0  0  0  0
 18 19  1  0  0  0  0
 19 20  1  6  0  0  0
 19 22  1  0  0  0  0
 20 21  1  0  0  0  0
 22 26  1  6  0  0  0
 22 23  1  0  0  0  0
 23 25  1  0  0  0  0
 24 25  1  0  0  0  0
 26 27  1  0  0  0  0
 27 28  1  1  0  0  0
 29 27  1  0  0  0  0
 29 33  1  0  0  0  0
 30 34  1  0  0  0  0
 30 32  2  0  0  0  0
 31 33  2  0  0  0  0
 32 31  1  0  0  0  0
 34 29  2  0  0  0  0
 36 35  1  0  0  0  0
 36 41  1  0  0  0  0
 37 39  1  0  0  0  0
 39 38  2  0  0  0  0
 39 42  1  0  0  0  0
 40 41  1  0  0  0  0
 40 37  2  0  0  0  0
 41 43  2  0  0  0  0
 43 38  1  0  0  0  0
M  END
>  <MODEL>
5

>  <REMARK>
 VINA RESULT:      -7.5      3.476      8.024
  Name = 
  13 active torsions:
  status: ('A' for Active; 'I' for Inactive)
    1  A    between atoms: C_1  and  C_28
    2  A    between atoms: C_1  and  C_34
    3  A    between atoms: C_2  and  O_6
    4  A    between atoms: C_3  and  C_4
    5  A    between atoms: C_3  and  O_6
    6  A    between atoms: C_3  and  C_12
    7  A    between atoms: C_4  and  O_15
    8  A    between atoms: C_4  and  C_22
    9  A    between atoms: C_11  and  C_14
   10  A    between atoms: C_13  and  N_38
   11  A    between atoms: C_14  and  C_22
   12  A    between atoms: O_15  and  C_42
   13  A    between atoms: C_28  and  C_35
                            x       y       z     vdW  Elec       q    Type
                         _______ _______ _______ _____ _____    ______ ____

>  <TORSDO>
F 13

$$$$
=
 OpenBabel10272414283D

 43 48  0  0  1  0  0  0  0  0999 V2000
  192.0740  175.7910  146.8810 C   0  0  0  0  0  0  0  0  0  0  0  0
  189.3630  177.7730  143.1340 C   0  0  0  0  0  0  0  0  0  0  0  0
  190.5450  177.1660  145.5640 C   0  0  0  0  0  0  0  0  0  0  0  0
  192.4440  175.0450  145.8340 C   0  0  0  0  0  3  0  0  0  0  0  0
  192.7600  175.4550  148.4560 Cl  0  0  0  0  0  0  0  0  0  0  0  0
  190.9090  176.3730  144.3620 C   0  0  0  0  0  0  0  0  0  0  0  0
  191.0980  176.8870  146.7430 C   0  0  0  0  0  3  0  0  0  0  0  0
  191.9120  175.2550  144.4380 C   0  0  0  0  0  2  0  0  0  0  0  0
  190.4820  176.1500  141.9490 N   0  0  0  0  0  2  0  0  0  0  0  0
  190.3070  176.7160  143.2250 C   0  0  0  0  0  0  0  0  0  0  0  0
  189.0230  178.5140  144.1910 C   0  0  0  0  0  3  0  0  0  0  0  0
  188.9320  177.8650  141.7120 C   0  0  1  0  0  3  0  0  0  0  0  0
  189.6790  176.8050  140.9850 N   0  0  1  0  0  0  0  0  0  0  0  0
  189.6110  178.2130  145.4380 O   0  0  0  0  0  0  0  0  0  0  0  0
  190.8470  176.5340  138.8800 C   0  0  2  0  0  3  0  0  0  0  0  0
  189.8850  177.6910  138.7260 C   0  0  0  0  0  2  0  0  0  0  0  0
  190.5840  177.4620  140.0530 C   0  0  1  0  0  3  0  0  0  0  0  0
  192.0720  176.8650  138.2960 O   0  0  0  0  0  0  0  0  0  0  0  0
  192.2680  175.8950  137.3040 C   0  0  2  0  0  3  0  0  0  0  0  0
  191.4840  174.6240  137.6170 C   0  0  0  0  0  2  0  0  0  0  0  0
  191.4900  173.7530  136.5260 O   0  0  0  0  0  1  0  0  0  0  0  0
  193.7580  175.6250  137.0570 C   0  0  1  0  0  3  0  0  0  0  0  0
  194.3860  176.8060  136.6500 O   0  0  0  0  0  0  0  0  0  0  0  0
  195.8010  176.9470  134.7470 C   0  0  0  0  0  1  0  0  0  0  0  0
  194.3860  176.7590  135.2540 C   0  0  0  0  0  2  0  0  0  0  0  0
  194.4480  175.0750  138.3040 C   0  0  0  0  0  2  0  0  0  0  0  0
  195.1610  173.7590  138.0150 C   0  0  2  0  0  3  0  0  0  0  0  0
  195.3510  173.0600  139.2080 O   0  0  0  0  0  1  0  0  0  0  0  0
  196.4760  173.9710  137.3350 C   0  0  0  0  0  0  0  0  0  0  0  0
  197.8540  173.7940  135.3550 C   0  0  0  0  0  3  0  0  0  0  0  0
  198.7400  174.7450  137.3590 N   0  0  0  0  0  0  0  0  0  0  0  0
  198.9060  174.3840  136.0590 C   0  0  0  0  0  3  0  0  0  0  0  0
  197.5600  174.5490  138.0070 C   0  0  0  0  0  3  0  0  0  0  0  0
  196.6330  173.5870  136.0020 C   0  0  0  0  0  3  0  0  0  0  0  0
  187.4390  177.5970  141.6070 C   0  0  0  0  0  2  0  0  0  0  0  0
  186.6840  178.9070  141.4580 C   0  0  0  0  0  2  0  0  0  0  0  0
  182.9920  178.7450  142.2940 C   0  0  0  0  0  3  0  0  0  0  0  0
  184.2530  178.8780  144.3580 C   0  0  0  0  0  3  0  0  0  0  0  0
  183.0270  178.7940  143.6920 C   0  0  0  0  0  0  0  0  0  0  0  0
  184.1830  178.7760  141.5640 C   0  0  0  0  0  3  0  0  0  0  0  0
  185.4130  178.8550  142.2300 C   0  0  0  0  0  0  0  0  0  0  0  0
  181.8720  178.7700  144.3970 F   0  0  0  0  0  0  0  0  0  0  0  0
  185.4460  178.9100  143.6280 C   0  0  0  0  0  3  0  0  0  0  0  0
  1  5  1  0  0  0  0
  2 10  1  0  0  0  0
  2 11  2  0  0  0  0
  3  7  2  0  0  0  0
  4  1  2  0  0  0  0
  6  8  1  0  0  0  0
  6  3  1  0  0  0  0
  7  1  1  0  0  0  0
  8  4  1  0  0  0  0
  9 10  1  0  0  0  0
 10  6  2  0  0  0  0
 11 14  1  0  0  0  0
 12 35  1  1  0  0  0
 12  2  1  0  0  0  0
 13 12  1  0  0  0  0
 13  9  1  1  0  0  0
 14  3  1  0  0  0  0
 15 18  1  6  0  0  0
 15 17  1  0  0  0  0
 16 15  1  0  0  0  0
 17 16  1  6  0  0  0
 17 13  1  0  0  0  0
 19 20  1  1  0  0  0
 19 18  1  0  0  0  0
 21 20  1  0  0  0  0
 22 19  1  0  0  0  0
 22 26  1  1  0  0  0
 23 22  1  0  0  0  0
 24 25  1  0  0  0  0
 25 23  1  0  0  0  0
 27 26  1  0  0  0  0
 27 28  1  1  0  0  0
 29 33  1  0  0  0  0
 29 27  1  0  0  0  0
 30 34  1  0  0  0  0
 30 32  2  0  0  0  0
 31 33  2  0  0  0  0
 32 31  1  0  0  0  0
 34 29  2  0  0  0  0
 36 35  1  0  0  0  0
 36 41  1  0  0  0  0
 37 39  1  0  0  0  0
 39 38  2  0  0  0  0
 39 42  1  0  0  0  0
 40 41  1  0  0  0  0
 40 37  2  0  0  0  0
 41 43  2  0  0  0  0
 43 38  1  0  0  0  0
M  END
>  <MODEL>
6

>  <REMARK>
 VINA RESULT:      -7.3      4.138      6.673
  Name = 
  13 active torsions:
  status: ('A' for Active; 'I' for Inactive)
    1  A    between atoms: C_1  and  C_28
    2  A    between atoms: C_1  and  C_34
    3  A    between atoms: C_2  and  O_6
    4  A    between atoms: C_3  and  C_4
    5  A    between atoms: C_3  and  O_6
    6  A    between atoms: C_3  and  C_12
    7  A    between atoms: C_4  and  O_15
    8  A    between atoms: C_4  and  C_22
    9  A    between atoms: C_11  and  C_14
   10  A    between atoms: C_13  and  N_38
   11  A    between atoms: C_14  and  C_22
   12  A    between atoms: O_15  and  C_42
   13  A    between atoms: C_28  and  C_35
                            x       y       z     vdW  Elec       q    Type
                         _______ _______ _______ _____ _____    ______ ____

>  <TORSDO>
F 13

$$$$
=
 OpenBabel10272414283D

 43 48  0  0  1  0  0  0  0  0999 V2000
  190.8800  177.4650  143.6820 C   0  0  0  0  0  0  0  0  0  0  0  0
  189.2140  177.1540  138.9440 C   0  0  0  0  0  0  0  0  0  0  0  0
  190.6340  176.9310  141.3120 C   0  0  1  0  0  3  0  0  0  0  0  0
  189.7520  178.1840  143.7260 C   0  0  0  0  0  3  0  0  0  0  0  0
  191.8450  177.2960  145.1330 Cl  0  0  0  0  0  0  0  0  0  0  0  0
  189.3750  177.7180  141.2920 C   0  0  0  0  0  0  0  0  0  0  0  0
  191.3340  176.8160  142.4390 C   0  0  0  0  0  3  0  0  0  0  0  0
  188.8530  178.3880  142.5330 C   0  0  0  0  0  3  0  0  0  0  0  0
  187.5280  178.4400  139.8350 N   0  0  0  0  0  2  0  0  0  0  0  0
  188.7390  177.7860  140.1240 C   0  0  0  0  0  0  0  0  0  0  0  0
  190.3340  176.4280  138.9290 C   0  0  0  0  0  3  0  0  0  0  0  0
  188.2330  177.4350  137.8610 C   0  0  1  0  0  3  0  0  0  0  0  0
  187.1630  178.2630  138.4790 N   0  0  1  0  0  0  0  0  0  0  0  0
  191.0730  176.3100  140.1250 O   0  0  0  0  0  0  0  0  0  0  0  0
  184.7470  178.4210  138.5350 C   0  0  2  0  0  3  0  0  0  0  0  0
  185.1350  177.7890  137.2160 C   0  0  0  0  0  2  0  0  0  0  0  0
  185.9360  177.4800  138.4670 C   0  0  1  0  0  3  0  0  0  0  0  0
  183.6510  177.7430  139.0730 O   0  0  0  0  0  0  0  0  0  0  0  0
  182.7330  178.7490  139.4020 C   0  0  2  0  0  3  0  0  0  0  0  0
  183.1400  180.0840  138.7860 C   0  0  0  0  0  2  0  0  0  0  0  0
  182.0300  180.9150  138.6160 O   0  0  0  0  0  1  0  0  0  0  0  0
  182.5040  178.8400  140.9160 C   0  0  1  0  0  3  0  0  0  0  0  0
  181.3290  178.1630  141.2520 O   0  0  0  0  0  0  0  0  0  0  0  0
  180.2740  178.4190  143.3650 C   0  0  0  0  0  1  0  0  0  0  0  0
  180.5980  179.0610  142.0330 C   0  0  0  0  0  2  0  0  0  0  0  0
  183.6790  178.2610  141.7010 C   0  0  0  0  0  2  0  0  0  0  0  0
  184.4080  179.3400  142.4950 C   0  0  2  0  0  3  0  0  0  0  0  0
  185.6130  179.6490  141.8630 O   0  0  0  0  0  1  0  0  0  0  0  0
  184.6670  178.9170  143.9070 C   0  0  0  0  0  0  0  0  0  0  0  0
  186.1110  177.8680  145.5390 C   0  0  0  0  0  3  0  0  0  0  0  0
  184.0100  178.7900  146.2050 N   0  0  0  0  0  0  0  0  0  0  0  0
  185.1660  178.1510  146.5270 C   0  0  0  0  0  3  0  0  0  0  0  0
  183.7410  179.1720  144.9260 C   0  0  0  0  0  3  0  0  0  0  0  0
  185.8550  178.2540  144.2210 C   0  0  0  0  0  3  0  0  0  0  0  0
  188.9050  178.2230  136.7470 C   0  0  0  0  0  2  0  0  0  0  0  0
  188.6220  177.5710  135.4050 C   0  0  0  0  0  2  0  0  0  0  0  0
  188.9190  173.7940  135.4230 C   0  0  0  0  0  3  0  0  0  0  0  0
  191.1400  174.7490  135.2700 C   0  0  0  0  0  3  0  0  0  0  0  0
  190.3060  173.6300  135.3360 C   0  0  0  0  0  0  0  0  0  0  0  0
  188.3680  175.0780  135.4400 C   0  0  0  0  0  3  0  0  0  0  0  0
  189.2020  176.2010  135.3690 C   0  0  0  0  0  0  0  0  0  0  0  0
  190.8390  172.3860  135.3250 F   0  0  0  0  0  0  0  0  0  0  0  0
  190.5890  176.0350  135.2880 C   0  0  0  0  0  3  0  0  0  0  0  0
  1  4  1  0  0  0  0
  1  5  1  0  0  0  0
  2 10  1  0  0  0  0
  3  7  1  1  0  0  0
  6  3  1  0  0  0  0
  6  8  1  0  0  0  0
  7  1  2  0  0  0  0
  8  4  2  0  0  0  0
  9 10  1  0  0  0  0
 10  6  2  0  0  0  0
 11  2  2  0  0  0  0
 11 14  1  0  0  0  0
 12 35  1  6  0  0  0
 12 13  1  0  0  0  0
 12  2  1  0  0  0  0
 13  9  1  1  0  0  0
 14  3  1  0  0  0  0
 15 18  1  1  0  0  0
 16 15  1  0  0  0  0
 17 16  1  6  0  0  0
 17 13  1  0  0  0  0
 17 15  1  0  0  0  0
 18 19  1  0  0  0  0
 19 20  1  1  0  0  0
 19 22  1  0  0  0  0
 21 20  1  0  0  0  0
 22 23  1  0  0  0  0
 22 26  1  1  0  0  0
 23 25  1  0  0  0  0
 25 24  1  0  0  0  0
 26 27  1  0  0  0  0
 27 28  1  6  0  0  0
 27 29  1  0  0  0  0
 29 34  2  0  0  0  0
 29 33  1  0  0  0  0
 30 32  2  0  0  0  0
 31 32  1  0  0  0  0
 33 31  2  0  0  0  0
 34 30  1  0  0  0  0
 36 35  1  0  0  0  0
 37 40  1  0  0  0  0
 38 43  2  0  0  0  0
 38 39  1  0  0  0  0
 39 37  2  0  0  0  0
 41 36  1  0  0  0  0
 41 40  2  0  0  0  0
 42 39  1  0  0  0  0
 43 41  1  0  0  0  0
M  END
>  <MODEL>
7

>  <REMARK>
 VINA RESULT:      -7.3      2.992      7.356
  Name = 
  13 active torsions:
  status: ('A' for Active; 'I' for Inactive)
    1  A    between atoms: C_1  and  C_28
    2  A    between atoms: C_1  and  C_34
    3  A    between atoms: C_2  and  O_6
    4  A    between atoms: C_3  and  C_4
    5  A    between atoms: C_3  and  O_6
    6  A    between atoms: C_3  and  C_12
    7  A    between atoms: C_4  and  O_15
    8  A    between atoms: C_4  and  C_22
    9  A    between atoms: C_11  and  C_14
   10  A    between atoms: C_13  and  N_38
   11  A    between atoms: C_14  and  C_22
   12  A    between atoms: O_15  and  C_42
   13  A    between atoms: C_28  and  C_35
                            x       y       z     vdW  Elec       q    Type
                         _______ _______ _______ _____ _____    ______ ____

>  <TORSDO>
F 13

$$$$
=
 OpenBabel10272414283D

 43 48  0  0  1  0  0  0  0  0999 V2000
  194.0910  172.5820  136.0140 C   0  0  0  0  0  0  0  0  0  0  0  0
  190.1960  175.4340  137.4350 C   0  0  0  0  0  0  0  0  0  0  0  0
  191.8750  173.5840  136.2390 C   0  0  1  0  0  3  0  0  0  0  0  0
  194.6360  173.3670  136.9520 C   0  0  0  0  0  3  0  0  0  0  0  0
  195.0940  171.4020  135.1970 Cl  0  0  0  0  0  0  0  0  0  0  0  0
  192.4190  174.4880  137.2850 C   0  0  0  0  0  0  0  0  0  0  0  0
  192.6670  172.6910  135.6480 C   0  0  0  0  0  3  0  0  0  0  0  0
  193.8580  174.4110  137.7120 C   0  0  0  0  0  3  0  0  0  0  0  0
  191.8030  176.2980  138.8340 N   0  0  0  0  0  2  0  0  0  0  0  0
  191.5600  175.3530  137.8210 C   0  0  0  0  0  0  0  0  0  0  0  0
  189.6720  174.6290  136.5080 C   0  0  0  0  0  3  0  0  0  0  0  0
  189.5590  176.4940  138.2630 C   0  0  1  0  0  3  0  0  0  0  0  0
  190.6290  177.0200  139.1520 N   0  0  1  0  0  0  0  0  0  0  0  0
  190.5150  173.6850  135.8840 O   0  0  0  0  0  0  0  0  0  0  0  0
  191.1030  177.5190  141.4740 C   0  0  2  0  0  3  0  0  0  0  0  0
  189.6560  177.8760  141.2140 C   0  0  0  0  0  2  0  0  0  0  0  0
  190.2740  176.6760  140.5220 C   0  0  1  0  0  3  0  0  0  0  0  0
  191.2080  176.8610  142.7010 O   0  0  0  0  0  0  0  0  0  0  0  0
  190.7380  177.7840  143.6450 C   0  0  2  0  0  3  0  0  0  0  0  0
  191.7860  178.8550  143.9320 C   0  0  0  0  0  2  0  0  0  0  0  0
  191.1880  180.1030  144.1120 O   0  0  0  0  0  1  0  0  0  0  0  0
  190.2350  177.0930  144.9180 C   0  0  1  0  0  3  0  0  0  0  0  0
  191.1950  177.2140  145.9270 O   0  0  0  0  0  0  0  0  0  0  0  0
  191.9880  175.8380  147.6930 C   0  0  0  0  0  1  0  0  0  0  0  0
  190.7780  176.3420  146.9360 C   0  0  0  0  0  2  0  0  0  0  0  0
  188.9070  177.6810  145.3930 C   0  0  0  0  0  2  0  0  0  0  0  0
  187.7240  176.8340  144.9360 C   0  0  2  0  0  3  0  0  0  0  0  0
  188.0280  176.2290  143.7150 O   0  0  0  0  0  1  0  0  0  0  0  0
  186.4730  177.6430  144.8060 C   0  0  0  0  0  0  0  0  0  0  0  0
  184.6190  178.8000  145.8420 C   0  0  0  0  0  3  0  0  0  0  0  0
  184.8430  178.7710  143.4630 N   0  0  0  0  0  0  0  0  0  0  0  0
  184.1640  179.1650  144.5730 C   0  0  0  0  0  3  0  0  0  0  0  0
  185.9760  178.0210  143.5520 C   0  0  0  0  0  3  0  0  0  0  0  0
  185.7810  178.0330  145.9540 C   0  0  0  0  0  3  0  0  0  0  0  0
  189.0470  177.6110  137.3680 C   0  0  0  0  0  2  0  0  0  0  0  0
  187.9730  178.4060  138.0910 C   0  0  0  0  0  2  0  0  0  0  0  0
  184.2420  177.7530  138.0140 C   0  0  0  0  0  3  0  0  0  0  0  0
  185.2140  176.9680  135.9370 C   0  0  0  0  0  3  0  0  0  0  0  0
  184.0960  177.1550  136.7570 C   0  0  0  0  0  0  0  0  0  0  0  0
  185.5040  178.1670  138.4480 C   0  0  0  0  0  3  0  0  0  0  0  0
  186.6240  177.9850  137.6260 C   0  0  0  0  0  0  0  0  0  0  0  0
  182.8740  176.7500  136.3390 F   0  0  0  0  0  0  0  0  0  0  0  0
  186.4770  177.3810  136.3720 C   0  0  0  0  0  3  0  0  0  0  0  0
  1  4  1  0  0  0  0
  2 10  1  0  0  0  0
  2 12  1  0  0  0  0
  3  7  1  1  0  0  0
  3  6  1  0  0  0  0
  4  8  2  0  0  0  0
  5  1  1  0  0  0  0
  6  8  1  0  0  0  0
  6 10  2  0  0  0  0
  7  1  2  0  0  0  0
 10  9  1  0  0  0  0
 11  2  2  0  0  0  0
 12 35  1  6  0  0  0
 12 13  1  0  0  0  0
 13  9  1  6  0  0  0
 13 17  1  0  0  0  0
 14  3  1  0  0  0  0
 14 11  1  0  0  0  0
 15 18  1  1  0  0  0
 16 15  1  0  0  0  0
 17 16  1  6  0  0  0
 17 15  1  0  0  0  0
 18 19  1  0  0  0  0
 19 20  1  1  0  0  0
 19 22  1  0  0  0  0
 20 21  1  0  0  0  0
 22 26  1  1  0  0  0
 22 23  1  0  0  0  0
 23 25  1  0  0  0  0
 25 24  1  0  0  0  0
 27 28  1  6  0  0  0
 27 26  1  0  0  0  0
 29 27  1  0  0  0  0
 29 34  1  0  0  0  0
 30 34  2  0  0  0  0
 31 33  1  0  0  0  0
 31 32  2  0  0  0  0
 32 30  1  0  0  0  0
 33 29  2  0  0  0  0
 35 36  1  0  0  0  0
 37 40  1  0  0  0  0
 38 43  2  0  0  0  0
 38 39  1  0  0  0  0
 39 37  2  0  0  0  0
 41 36  1  0  0  0  0
 41 40  2  0  0  0  0
 42 39  1  0  0  0  0
 43 41  1  0  0  0  0
M  END
>  <MODEL>
8

>  <REMARK>
 VINA RESULT:      -7.1      3.733      8.422
  Name = 
  13 active torsions:
  status: ('A' for Active; 'I' for Inactive)
    1  A    between atoms: C_1  and  C_28
    2  A    between atoms: C_1  and  C_34
    3  A    between atoms: C_2  and  O_6
    4  A    between atoms: C_3  and  C_4
    5  A    between atoms: C_3  and  O_6
    6  A    between atoms: C_3  and  C_12
    7  A    between atoms: C_4  and  O_15
    8  A    between atoms: C_4  and  C_22
    9  A    between atoms: C_11  and  C_14
   10  A    between atoms: C_13  and  N_38
   11  A    between atoms: C_14  and  C_22
   12  A    between atoms: O_15  and  C_42
   13  A    between atoms: C_28  and  C_35
                            x       y       z     vdW  Elec       q    Type
                         _______ _______ _______ _____ _____    ______ ____

>  <TORSDO>
F 13

$$$$
=
 OpenBabel10272414283D

 43 48  0  0  1  0  0  0  0  0999 V2000
  185.3360  177.2890  135.4190 C   0  0  0  0  0  0  0  0  0  0  0  0
  190.0070  176.8670  137.2430 C   0  0  0  0  0  0  0  0  0  0  0  0
  187.7660  177.2300  135.6570 C   0  0  1  0  0  3  0  0  0  0  0  0
  185.1170  177.0150  136.7110 C   0  0  0  0  0  3  0  0  0  0  0  0
  183.9700  177.5110  134.3470 Cl  0  0  0  0  0  0  0  0  0  0  0  0
  187.5920  176.9200  137.0980 C   0  0  0  0  0  0  0  0  0  0  0  0
  186.7020  177.4030  134.8750 C   0  0  0  0  0  3  0  0  0  0  0  0
  186.2240  176.8080  137.7130 C   0  0  0  0  0  3  0  0  0  0  0  0
  188.8290  176.4810  139.1800 N   0  0  0  0  0  2  0  0  0  0  0  0
  188.7080  176.7580  137.8060 C   0  0  0  0  0  0  0  0  0  0  0  0
  190.2000  177.1570  135.9550 C   0  0  0  0  0  3  0  0  0  0  0  0
  190.9890  176.6450  138.3400 C   0  0  1  0  0  3  0  0  0  0  0  0
  190.1870  176.4040  139.5690 N   0  0  1  0  0  0  0  0  0  0  0  0
  189.0690  177.3390  135.1310 O   0  0  0  0  0  0  0  0  0  0  0  0
  191.0130  176.9680  141.7740 C   0  0  2  0  0  3  0  0  0  0  0  0
  191.9190  177.6320  140.7610 C   0  0  0  0  0  2  0  0  0  0  0  0
  190.4330  177.5120  140.4810 C   0  0  1  0  0  3  0  0  0  0  0  0
  190.7410  177.8610  142.8130 O   0  0  0  0  0  0  0  0  0  0  0  0
  190.9140  177.1110  143.9840 C   0  0  2  0  0  3  0  0  0  0  0  0
  191.3540  175.6860  143.6630 C   0  0  0  0  0  2  0  0  0  0  0  0
  191.9860  175.0990  144.7600 O   0  0  0  0  0  1  0  0  0  0  0  0
  189.6710  177.1580  144.8810 C   0  0  1  0  0  3  0  0  0  0  0  0
  190.0380  177.5650  146.1670 O   0  0  0  0  0  0  0  0  0  0  0  0
  189.0050  177.8260  148.2910 C   0  0  0  0  0  1  0  0  0  0  0  0
  189.0760  177.0120  147.0150 C   0  0  0  0  0  2  0  0  0  0  0  0
  188.6060  178.1010  144.3230 C   0  0  0  0  0  2  0  0  0  0  0  0
  187.4260  177.3310  143.7410 C   0  0  2  0  0  3  0  0  0  0  0  0
  187.5430  177.2820  142.3510 O   0  0  0  0  0  1  0  0  0  0  0  0
  186.1160  177.9440  144.1200 C   0  0  0  0  0  0  0  0  0  0  0  0
  184.6250  178.7940  145.8250 C   0  0  0  0  0  3  0  0  0  0  0  0
  183.9720  178.8300  143.5270 N   0  0  0  0  0  0  0  0  0  0  0  0
  183.6950  179.1020  144.8300 C   0  0  0  0  0  3  0  0  0  0  0  0
  185.1500  178.2580  143.1550 C   0  0  0  0  0  3  0  0  0  0  0  0
  185.8410  178.2090  145.4630 C   0  0  0  0  0  3  0  0  0  0  0  0
  191.8340  175.4180  138.0360 C   0  0  0  0  0  2  0  0  0  0  0  0
  193.1520  175.8360  137.4070 C   0  0  0  0  0  2  0  0  0  0  0  0
  195.0740  172.6690  136.6120 C   0  0  0  0  0  3  0  0  0  0  0  0
  195.9430  173.6120  138.6680 C   0  0  0  0  0  3  0  0  0  0  0  0
  195.9670  172.6150  137.6870 C   0  0  0  0  0  0  0  0  0  0  0  0
  194.1590  173.7210  136.5160 C   0  0  0  0  0  3  0  0  0  0  0  0
  194.1360  174.7230  137.4940 C   0  0  0  0  0  0  0  0  0  0  0  0
  196.8490  171.5930  137.7820 F   0  0  0  0  0  0  0  0  0  0  0  0
  195.0270  174.6640  138.5730 C   0  0  0  0  0  3  0  0  0  0  0  0
  1  4  1  0  0  0  0
  2 10  1  0  0  0  0
  2 12  1  0  0  0  0
  3  7  1  1  0  0  0
  3  6  1  0  0  0  0
  4  8  2  0  0  0  0
  5  1  1  0  0  0  0
  6  8  1  0  0  0  0
  6 10  2  0  0  0  0
  7  1  2  0  0  0  0
 10  9  1  0  0  0  0
 11  2  2  0  0  0  0
 12 35  1  6  0  0  0
 12 13  1  0  0  0  0
 13  9  1  6  0  0  0
 13 17  1  0  0  0  0
 14  3  1  0  0  0  0
 14 11  1  0  0  0  0
 15 18  1  1  0  0  0
 16 15  1  0  0  0  0
 17 16  1  6  0  0  0
 17 15  1  0  0  0  0
 18 19  1  0  0  0  0
 19 20  1  6  0  0  0
 19 22  1  0  0  0  0
 20 21  1  0  0  0  0
 22 26  1  6  0  0  0
 22 23  1  0  0  0  0
 23 25  1  0  0  0  0
 25 24  1  0  0  0  0
 27 28  1  6  0  0  0
 27 29  1  0  0  0  0
 27 26  1  0  0  0  0
 29 34  1  0  0  0  0
 31 32  2  0  0  0  0
 32 30  1  0  0  0  0
 33 31  1  0  0  0  0
 33 29  2  0  0  0  0
 34 30  2  0  0  0  0
 36 41  1  0  0  0  0
 36 35  1  0  0  0  0
 37 39  1  0  0  0  0
 39 42  1  0  0  0  0
 39 38  2  0  0  0  0
 40 37  2  0  0  0  0
 40 41  1  0  0  0  0
 41 43  2  0  0  0  0
 43 38  1  0  0  0  0
M  END
>  <MODEL>
9

>  <REMARK>
 VINA RESULT:      -7.1      4.562     10.044
  Name = 
  13 active torsions:
  status: ('A' for Active; 'I' for Inactive)
    1  A    between atoms: C_1  and  C_28
    2  A    between atoms: C_1  and  C_34
    3  A    between atoms: C_2  and  O_6
    4  A    between atoms: C_3  and  C_4
    5  A    between atoms: C_3  and  O_6
    6  A    between atoms: C_3  and  C_12
    7  A    between atoms: C_4  and  O_15
    8  A    between atoms: C_4  and  C_22
    9  A    between atoms: C_11  and  C_14
   10  A    between atoms: C_13  and  N_38
   11  A    between atoms: C_14  and  C_22
   12  A    between atoms: O_15  and  C_42
   13  A    between atoms: C_28  and  C_35
                            x       y       z     vdW  Elec       q    Type
                         _______ _______ _______ _____ _____    ______ ____

>  <TORSDO>
F 13

$$$$
