=
 OpenBabel10272413223D

 32 37  0  0  0  0  0  0  0  0999 V2000
  191.3590  176.7860  138.8400 C   0  0  0  0  0  3  0  0  0  0  0  0
  188.5520  177.4590  143.2490 C   0  0  0  0  0  0  0  0  0  0  0  0
  191.8060  176.6240  146.8440 C   0  0  0  0  0  2  0  0  0  0  0  0
  190.7060  176.1260  147.5670 O   0  0  0  0  0  0  0  0  0  0  0  0
  186.3420  178.0750  144.2850 C   0  0  0  0  0  0  0  0  0  0  0  0
  185.3920  178.3890  143.2960 C   0  0  0  0  0  0  0  0  0  0  0  0
  189.0600  177.3870  140.9110 C   0  0  0  0  0  0  0  0  0  0  0  0
  190.7700  176.8400  142.5320 C   0  0  0  0  0  3  0  0  0  0  0  0
  184.7310  178.5010  146.0530 C   0  0  0  0  0  0  0  0  0  0  0  0
  191.3520  176.7420  140.3060 C   0  0  0  0  0  3  0  0  0  0  0  0
  191.5740  176.4200  145.3430 C   0  0  0  0  0  2  0  0  0  0  0  0
  189.8680  177.0690  143.5700 C   0  0  0  0  0  0  0  0  0  0  0  0
  190.2500  176.9200  144.9570 N   0  0  0  0  0  0  0  0  0  0  0  0
  188.0310  177.5310  145.5960 C   0  0  0  0  0  0  0  0  0  0  0  0
  183.7730  178.8170  145.0800 C   0  0  0  0  0  3  0  0  0  0  0  0
  189.0290  177.4760  138.3710 C   0  0  0  0  0  3  0  0  0  0  0  0
  190.3910  176.9920  141.1950 C   0  0  0  0  0  0  0  0  0  0  0  0
  184.1020  178.7610  143.7120 C   0  0  0  0  0  3  0  0  0  0  0  0
  188.4850  177.5950  139.5770 C   0  0  0  0  0  3  0  0  0  0  0  0
  190.3920  177.0930  137.9830 C   0  0  0  0  0  0  0  0  0  0  0  0
  189.6590  177.0560  147.4170 C   0  0  0  0  0  2  0  0  0  0  0  0
  189.2560  177.1530  145.9750 C   0  0  0  0  0  0  0  0  0  0  0  0
  187.0240  177.8080  146.3940 O   0  0  0  0  0  0  0  0  0  0  0  0
  188.2010  177.6030  141.9460 N   0  0  0  0  0  0  0  0  0  0  0  0
  185.6810  178.3440  141.9410 O   0  0  0  0  0  1  0  0  0  0  0  0
  184.4140  178.5550  147.4030 O   0  0  0  0  0  1  0  0  0  0  0  0
  187.6790  177.6780  144.2570 C   0  0  0  0  0  0  0  0  0  0  0  0
  186.0070  178.1340  145.6280 C   0  0  0  0  0  0  0  0  0  0  0  0
  190.8730  175.8650  135.7760 C   0  0  0  0  0  0  0  0  0  0  0  0
  190.7420  177.0360  136.5930 N   0  0  0  0  0  2  0  0  0  0  0  0
  190.6760  174.7130  136.2430 O   0  0  0  0  0  0  0  0  0  0  0  0
  191.2470  176.0150  134.3460 C   0  0  0  0  0  1  0  0  0  0  0  0
  1 10  1  0  0  0  0
  2 12  1  0  0  0  0
  2 27  2  0  0  0  0
  3  4  1  0  0  0  0
  5 28  1  0  0  0  0
  6 18  1  0  0  0  0
  6  5  2  0  0  0  0
  7 17  1  0  0  0  0
  7 24  2  0  0  0  0
  8 12  2  0  0  0  0
  9 26  1  0  0  0  0
 10 17  2  0  0  0  0
 11  3  1  0  0  0  0
 12 13  1  0  0  0  0
 13 11  1  0  0  0  0
 13 22  1  0  0  0  0
 14 22  2  0  0  0  0
 14 23  1  0  0  0  0
 15  9  1  0  0  0  0
 16 19  2  0  0  0  0
 17  8  1  0  0  0  0
 18 15  2  0  0  0  0
 19  7  1  0  0  0  0
 20 16  1  0  0  0  0
 20  1  2  0  0  0  0
 21  4  1  0  0  0  0
 22 21  1  0  0  0  0
 24  2  1  0  0  0  0
 25  6  1  0  0  0  0
 27  5  1  0  0  0  0
 27 14  1  0  0  0  0
 28  9  2  0  0  0  0
 28 23  1  0  0  0  0
 29 31  2  0  0  0  0
 29 30  1  0  0  0  0
 30 20  1  0  0  0  0
 32 29  1  0  0  0  0
M  END
>  <MODEL>
1

>  <REMARK>
 VINA RESULT:     -11.3      0.000      0.000
  Name = 
  1 active torsions:
  status: ('A' for Active; 'I' for Inactive)
    1  A    between atoms: N_10  and  C_24
                            x       y       z     vdW  Elec       q    Type
                         _______ _______ _______ _____ _____    ______ ____

>  <TORSDO>
F 1

$$$$
=
 OpenBabel10272413223D

 32 37  0  0  0  0  0  0  0  0999 V2000
  191.0600  177.2390  145.1900 C   0  0  0  0  0  3  0  0  0  0  0  0
  186.5880  178.1830  142.5660 C   0  0  0  0  0  0  0  0  0  0  0  0
  187.9580  178.0520  137.8420 C   0  0  0  0  0  2  0  0  0  0  0  0
  186.9490  179.0140  137.6430 O   0  0  0  0  0  0  0  0  0  0  0  0
  184.1070  178.5920  142.6790 C   0  0  0  0  0  0  0  0  0  0  0  0
  183.6540  178.5720  144.0100 C   0  0  0  0  0  0  0  0  0  0  0  0
  188.0570  177.8060  144.4180 C   0  0  0  0  0  0  0  0  0  0  0  0
  188.9370  177.8070  142.1660 C   0  0  0  0  0  3  0  0  0  0  0  0
  181.8620  179.0170  141.8560 C   0  0  0  0  0  0  0  0  0  0  0  0
  190.4260  177.4360  143.8830 C   0  0  0  0  0  3  0  0  0  0  0  0
  188.5120  178.1720  139.2660 C   0  0  0  0  0  2  0  0  0  0  0  0
  187.6630  178.0600  141.6620 C   0  0  0  0  0  0  0  0  0  0  0  0
  187.4190  178.1920  140.2420 N   0  0  0  0  0  0  0  0  0  0  0  0
  185.1070  178.5670  140.7120 C   0  0  0  0  0  0  0  0  0  0  0  0
  181.3930  179.0000  143.1770 C   0  0  0  0  0  3  0  0  0  0  0  0
  189.1160  177.4700  146.7050 C   0  0  0  0  0  3  0  0  0  0  0  0
  189.1610  177.6760  143.5400 C   0  0  0  0  0  0  0  0  0  0  0  0
  182.2830  178.7800  144.2450 C   0  0  0  0  0  3  0  0  0  0  0  0
  188.0990  177.6990  145.8820 C   0  0  0  0  0  3  0  0  0  0  0  0
  190.5370  177.2460  146.4110 C   0  0  0  0  0  0  0  0  0  0  0  0
  185.8040  178.5570  138.3230 C   0  0  0  0  0  2  0  0  0  0  0  0
  186.0760  178.4750  139.7960 C   0  0  0  0  0  0  0  0  0  0  0  0
  183.8330  178.7910  140.4720 O   0  0  0  0  0  0  0  0  0  0  0  0
  186.8230  178.0520  143.8960 N   0  0  0  0  0  0  0  0  0  0  0  0
  184.5010  178.3580  145.0860 O   0  0  0  0  0  1  0  0  0  0  0  0
  180.9890  179.2330  140.7980 O   0  0  0  0  0  1  0  0  0  0  0  0
  185.3540  178.4290  142.0750 C   0  0  0  0  0  0  0  0  0  0  0  0
  183.2230  178.8090  141.6350 C   0  0  0  0  0  0  0  0  0  0  0  0
  192.3420  175.9010  147.6540 C   0  0  0  0  0  0  0  0  0  0  0  0
  191.4540  177.0160  147.4900 N   0  0  0  0  0  2  0  0  0  0  0  0
  192.3930  174.9710  146.8070 O   0  0  0  0  0  0  0  0  0  0  0  0
  193.2210  175.8440  148.8510 C   0  0  0  0  0  1  0  0  0  0  0  0
  1 20  2  0  0  0  0
  2 24  1  0  0  0  0
  3 11  1  0  0  0  0
  4  3  1  0  0  0  0
  4 21  1  0  0  0  0
  5  6  1  0  0  0  0
  6 18  2  0  0  0  0
  6 25  1  0  0  0  0
  7 19  1  0  0  0  0
  8 17  1  0  0  0  0
  9 15  2  0  0  0  0
 10  1  1  0  0  0  0
 11 13  1  0  0  0  0
 12  8  2  0  0  0  0
 12  2  1  0  0  0  0
 13 12  1  0  0  0  0
 14 27  1  0  0  0  0
 15 18  1  0  0  0  0
 17 10  2  0  0  0  0
 17  7  1  0  0  0  0
 19 16  2  0  0  0  0
 20 16  1  0  0  0  0
 20 30  1  0  0  0  0
 21 22  1  0  0  0  0
 22 13  1  0  0  0  0
 22 14  2  0  0  0  0
 23 14  1  0  0  0  0
 23 28  1  0  0  0  0
 24  7  2  0  0  0  0
 26  9  1  0  0  0  0
 27  2  2  0  0  0  0
 27  5  1  0  0  0  0
 28  9  1  0  0  0  0
 28  5  2  0  0  0  0
 29 32  1  0  0  0  0
 30 29  1  0  0  0  0
 31 29  2  0  0  0  0
M  END
>  <MODEL>
2

>  <REMARK>
 VINA RESULT:     -11.1      2.494      6.969
  Name = 
  1 active torsions:
  status: ('A' for Active; 'I' for Inactive)
    1  A    between atoms: N_10  and  C_24
                            x       y       z     vdW  Elec       q    Type
                         _______ _______ _______ _____ _____    ______ ____

>  <TORSDO>
F 1

$$$$
=
 OpenBabel10272413223D

 32 37  0  0  0  0  0  0  0  0999 V2000
  189.1770  177.4580  137.8460 C   0  0  0  0  0  3  0  0  0  0  0  0
  188.1210  177.7490  143.0010 C   0  0  0  0  0  0  0  0  0  0  0  0
  183.3490  178.9410  143.1490 C   0  0  0  0  0  2  0  0  0  0  0  0
  183.6780  179.6340  144.3300 O   0  0  0  0  0  0  0  0  0  0  0  0
  188.9620  177.4810  145.3580 C   0  0  0  0  0  0  0  0  0  0  0  0
  190.3080  177.0750  145.3690 C   0  0  0  0  0  0  0  0  0  0  0  0
  189.3700  177.3870  140.9920 C   0  0  0  0  0  0  0  0  0  0  0  0
  187.0550  178.0730  140.8620 C   0  0  0  0  0  3  0  0  0  0  0  0
  188.8780  177.4800  147.7860 C   0  0  0  0  0  0  0  0  0  0  0  0
  188.1750  177.7500  138.8760 C   0  0  0  0  0  3  0  0  0  0  0  0
  184.5650  178.9040  142.2170 C   0  0  0  0  0  2  0  0  0  0  0  0
  186.9760  178.0910  142.2530 C   0  0  0  0  0  0  0  0  0  0  0  0
  185.7530  178.4440  142.9420 N   0  0  0  0  0  0  0  0  0  0  0  0
  186.8750  178.1150  145.0250 C   0  0  0  0  0  0  0  0  0  0  0  0
  190.2200  177.0750  147.8150 C   0  0  0  0  0  3  0  0  0  0  0  0
  191.1370  176.8710  139.2390 C   0  0  0  0  0  3  0  0  0  0  0  0
  188.2390  177.7250  140.2070 C   0  0  0  0  0  0  0  0  0  0  0  0
  190.9290  176.8740  146.6150 C   0  0  0  0  0  3  0  0  0  0  0  0
  190.6910  176.9980  140.4830 C   0  0  0  0  0  3  0  0  0  0  0  0
  190.4450  177.0820  137.9610 C   0  0  0  0  0  0  0  0  0  0  0  0
  184.4760  178.7710  145.1060 C   0  0  0  0  0  2  0  0  0  0  0  0
  185.7540  178.4610  144.3840 C   0  0  0  0  0  0  0  0  0  0  0  0
  187.0340  178.0510  146.3290 O   0  0  0  0  0  0  0  0  0  0  0  0
  189.2630  177.4130  142.3490 N   0  0  0  0  0  0  0  0  0  0  0  0
  191.0370  176.8680  144.2080 O   0  0  0  0  0  1  0  0  0  0  0  0
  188.1740  177.6790  148.9650 O   0  0  0  0  0  1  0  0  0  0  0  0
  188.0420  177.7680  144.3500 C   0  0  0  0  0  0  0  0  0  0  0  0
  188.2740  177.6750  146.5450 C   0  0  0  0  0  0  0  0  0  0  0  0
  191.4270  175.6270  136.0820 C   0  0  0  0  0  0  0  0  0  0  0  0
  191.1540  176.8770  136.7310 N   0  0  0  0  0  2  0  0  0  0  0  0
  191.0400  174.5340  136.5710 O   0  0  0  0  0  0  0  0  0  0  0  0
  192.1840  175.6240  134.8030 C   0  0  0  0  0  1  0  0  0  0  0  0
  1 20  2  0  0  0  0
  1 10  1  0  0  0  0
  2 27  2  0  0  0  0
  3  4  1  0  0  0  0
  4 21  1  0  0  0  0
  5  6  2  0  0  0  0
  5 28  1  0  0  0  0
  6 18  1  0  0  0  0
  7 24  2  0  0  0  0
  8 12  2  0  0  0  0
  9 15  1  0  0  0  0
  9 26  1  0  0  0  0
 10 17  2  0  0  0  0
 11 13  1  0  0  0  0
 11  3  1  0  0  0  0
 12 13  1  0  0  0  0
 12  2  1  0  0  0  0
 13 22  1  0  0  0  0
 14 23  1  0  0  0  0
 16 19  2  0  0  0  0
 17  8  1  0  0  0  0
 17  7  1  0  0  0  0
 18 15  2  0  0  0  0
 19  7  1  0  0  0  0
 20 16  1  0  0  0  0
 22 14  2  0  0  0  0
 22 21  1  0  0  0  0
 23 28  1  0  0  0  0
 24  2  1  0  0  0  0
 25  6  1  0  0  0  0
 27 14  1  0  0  0  0
 27  5  1  0  0  0  0
 28  9  2  0  0  0  0
 29 31  2  0  0  0  0
 29 30  1  0  0  0  0
 30 20  1  0  0  0  0
 32 29  1  0  0  0  0
M  END
>  <MODEL>
3

>  <REMARK>
 VINA RESULT:     -10.7      1.401      4.361
  Name = 
  1 active torsions:
  status: ('A' for Active; 'I' for Inactive)
    1  A    between atoms: N_10  and  C_24
                            x       y       z     vdW  Elec       q    Type
                         _______ _______ _______ _____ _____    ______ ____

>  <TORSDO>
F 1

$$$$
=
 OpenBabel10272413223D

 32 37  0  0  0  0  0  0  0  0999 V2000
  189.2090  177.3520  146.8260 C   0  0  0  0  0  3  0  0  0  0  0  0
  187.4570  178.0350  141.9020 C   0  0  0  0  0  0  0  0  0  0  0  0
  182.6830  179.0660  142.4960 C   0  0  0  0  0  2  0  0  0  0  0  0
  182.5070  178.4130  141.2600 O   0  0  0  0  0  0  0  0  0  0  0  0
  188.0070  178.1280  139.4480 C   0  0  0  0  0  0  0  0  0  0  0  0
  189.3780  177.9050  139.2300 C   0  0  0  0  0  0  0  0  0  0  0  0
  188.9920  177.6260  143.6930 C   0  0  0  0  0  0  0  0  0  0  0  0
  186.6540  178.0110  144.1770 C   0  0  0  0  0  3  0  0  0  0  0  0
  187.6090  178.3930  137.0660 C   0  0  0  0  0  0  0  0  0  0  0  0
  188.0550  177.6250  145.9640 C   0  0  0  0  0  3  0  0  0  0  0  0
  183.9000  178.4820  143.2210 C   0  0  0  0  0  2  0  0  0  0  0  0
  186.3910  178.1590  142.8160 C   0  0  0  0  0  0  0  0  0  0  0  0
  185.0600  178.4410  142.3250 N   0  0  0  0  0  0  0  0  0  0  0  0
  185.9210  178.4420  140.0970 C   0  0  0  0  0  0  0  0  0  0  0  0
  188.9740  178.1730  136.8320 C   0  0  0  0  0  3  0  0  0  0  0  0
  191.0200  177.1520  145.1500 C   0  0  0  0  0  3  0  0  0  0  0  0
  187.9460  177.7440  144.6410 C   0  0  0  0  0  0  0  0  0  0  0  0
  189.8510  177.9300  137.9060 C   0  0  0  0  0  3  0  0  0  0  0  0
  190.4030  177.3500  143.9920 C   0  0  0  0  0  3  0  0  0  0  0  0
  190.4840  177.1460  146.5170 C   0  0  0  0  0  0  0  0  0  0  0  0
  183.4950  178.9100  140.3880 C   0  0  0  0  0  2  0  0  0  0  0  0
  184.8610  178.5610  140.9010 C   0  0  0  0  0  0  0  0  0  0  0  0
  185.9160  178.5510  138.7870 O   0  0  0  0  0  0  0  0  0  0  0  0
  188.7050  177.7760  142.3700 N   0  0  0  0  0  0  0  0  0  0  0  0
  190.2700  177.6630  140.2630 O   0  0  0  0  0  1  0  0  0  0  0  0
  186.7400  178.6330  136.0110 O   0  0  0  0  0  1  0  0  0  0  0  0
  187.1990  178.1790  140.5840 C   0  0  0  0  0  0  0  0  0  0  0  0
  187.1530  178.3660  138.3830 C   0  0  0  0  0  0  0  0  0  0  0  0
  192.3570  175.8730  147.7350 C   0  0  0  0  0  0  0  0  0  0  0  0
  191.3680  176.9050  147.6220 N   0  0  0  0  0  2  0  0  0  0  0  0
  192.5450  175.0380  146.8130 O   0  0  0  0  0  0  0  0  0  0  0  0
  193.1790  175.7880  148.9710 C   0  0  0  0  0  1  0  0  0  0  0  0
  2 24  1  0  0  0  0
  2 12  1  0  0  0  0
  3 11  1  0  0  0  0
  4  3  1  0  0  0  0
  5 27  1  0  0  0  0
  6  5  1  0  0  0  0
  6 25  1  0  0  0  0
  7 19  1  0  0  0  0
  7 17  1  0  0  0  0
  8 17  1  0  0  0  0
  9 28  1  0  0  0  0
 10  1  1  0  0  0  0
 12  8  2  0  0  0  0
 13 12  1  0  0  0  0
 13 11  1  0  0  0  0
 14 27  1  0  0  0  0
 14 22  2  0  0  0  0
 15  9  2  0  0  0  0
 15 18  1  0  0  0  0
 16 20  1  0  0  0  0
 17 10  2  0  0  0  0
 18  6  2  0  0  0  0
 19 16  2  0  0  0  0
 20  1  2  0  0  0  0
 20 30  1  0  0  0  0
 21 22  1  0  0  0  0
 21  4  1  0  0  0  0
 22 13  1  0  0  0  0
 23 14  1  0  0  0  0
 24  7  2  0  0  0  0
 26  9  1  0  0  0  0
 27  2  2  0  0  0  0
 28 23  1  0  0  0  0
 28  5  2  0  0  0  0
 29 32  1  0  0  0  0
 30 29  1  0  0  0  0
 31 29  2  0  0  0  0
M  END
>  <MODEL>
4

>  <REMARK>
 VINA RESULT:     -10.6      2.728      7.943
  Name = 
  1 active torsions:
  status: ('A' for Active; 'I' for Inactive)
    1  A    between atoms: N_10  and  C_24
                            x       y       z     vdW  Elec       q    Type
                         _______ _______ _______ _____ _____    ______ ____

>  <TORSDO>
F 1

$$$$
=
 OpenBabel10272413223D

 32 37  0  0  0  0  0  0  0  0999 V2000
  192.3960  176.9970  140.6160 C   0  0  0  0  0  3  0  0  0  0  0  0
  187.8540  177.8490  143.1490 C   0  0  0  0  0  0  0  0  0  0  0  0
  189.1400  177.7980  147.8990 C   0  0  0  0  0  2  0  0  0  0  0  0
  187.8560  177.2650  148.1210 O   0  0  0  0  0  0  0  0  0  0  0  0
  185.3890  178.3280  142.9840 C   0  0  0  0  0  0  0  0  0  0  0  0
  184.9830  178.4190  141.6410 C   0  0  0  0  0  0  0  0  0  0  0  0
  189.3780  177.5680  141.3250 C   0  0  0  0  0  0  0  0  0  0  0  0
  190.1820  177.4050  143.6000 C   0  0  0  0  0  3  0  0  0  0  0  0
  183.1300  178.7700  143.7600 C   0  0  0  0  0  0  0  0  0  0  0  0
  191.7210  177.1200  141.9120 C   0  0  0  0  0  3  0  0  0  0  0  0
  189.6300  177.4000  146.5020 C   0  0  0  0  0  2  0  0  0  0  0  0
  188.8950  177.6470  144.0790 C   0  0  0  0  0  0  0  0  0  0  0  0
  188.6080  177.7010  145.4950 N   0  0  0  0  0  0  0  0  0  0  0  0
  186.3160  178.1290  144.9760 C   0  0  0  0  0  0  0  0  0  0  0  0
  182.7080  178.8640  142.4260 C   0  0  0  0  0  3  0  0  0  0  0  0
  190.5080  177.3640  139.0580 C   0  0  0  0  0  3  0  0  0  0  0  0
  190.4500  177.3600  142.2290 C   0  0  0  0  0  0  0  0  0  0  0  0
  183.6290  178.6900  141.3750 C   0  0  0  0  0  3  0  0  0  0  0  0
  189.4680  177.5580  139.8600 C   0  0  0  0  0  3  0  0  0  0  0  0
  191.9150  177.0940  139.3820 C   0  0  0  0  0  0  0  0  0  0  0  0
  186.9500  178.0490  147.3810 C   0  0  0  0  0  2  0  0  0  0  0  0
  187.2470  177.9360  145.9140 C   0  0  0  0  0  0  0  0  0  0  0  0
  185.0420  178.3800  145.1890 O   0  0  0  0  0  0  0  0  0  0  0  0
  188.1320  177.8030  141.8220 N   0  0  0  0  0  0  0  0  0  0  0  0
  185.8610  178.2530  140.5800 O   0  0  0  0  0  1  0  0  0  0  0  0
  182.2270  178.9410  144.8010 O   0  0  0  0  0  1  0  0  0  0  0  0
  186.6080  178.0830  143.6160 C   0  0  0  0  0  0  0  0  0  0  0  0
  184.4750  178.5020  144.0100 C   0  0  0  0  0  0  0  0  0  0  0  0
  193.0780  175.7410  137.5310 C   0  0  0  0  0  0  0  0  0  0  0  0
  192.8640  176.9190  138.3210 N   0  0  0  0  0  2  0  0  0  0  0  0
  192.4050  174.6940  137.7160 O   0  0  0  0  0  0  0  0  0  0  0  0
  194.1190  175.7580  136.4700 C   0  0  0  0  0  1  0  0  0  0  0  0
  1 10  1  0  0  0  0
  2 27  2  0  0  0  0
  2 12  1  0  0  0  0
  3  4  1  0  0  0  0
  5 27  1  0  0  0  0
  5 28  1  0  0  0  0
  6  5  2  0  0  0  0
  7 24  2  0  0  0  0
  7 17  1  0  0  0  0
  8 12  2  0  0  0  0
  9 28  2  0  0  0  0
  9 26  1  0  0  0  0
 10 17  2  0  0  0  0
 11  3  1  0  0  0  0
 12 13  1  0  0  0  0
 13 22  1  0  0  0  0
 13 11  1  0  0  0  0
 14 23  1  0  0  0  0
 14 22  2  0  0  0  0
 15  9  1  0  0  0  0
 16 20  1  0  0  0  0
 16 19  2  0  0  0  0
 17  8  1  0  0  0  0
 18  6  1  0  0  0  0
 18 15  2  0  0  0  0
 19  7  1  0  0  0  0
 20  1  2  0  0  0  0
 21  4  1  0  0  0  0
 22 21  1  0  0  0  0
 24  2  1  0  0  0  0
 25  6  1  0  0  0  0
 27 14  1  0  0  0  0
 28 23  1  0  0  0  0
 29 31  2  0  0  0  0
 29 30  1  0  0  0  0
 30 20  1  0  0  0  0
 32 29  1  0  0  0  0
M  END
>  <MODEL>
5

>  <REMARK>
 VINA RESULT:     -10.2      1.672      2.188
  Name = 
  1 active torsions:
  status: ('A' for Active; 'I' for Inactive)
    1  A    between atoms: N_10  and  C_24
                            x       y       z     vdW  Elec       q    Type
                         _______ _______ _______ _____ _____    ______ ____

>  <TORSDO>
F 1

$$$$
=
 OpenBabel10272413223D

 32 37  0  0  0  0  0  0  0  0999 V2000
  191.3840  177.1170  144.7170 C   0  0  0  0  0  3  0  0  0  0  0  0
  187.3030  178.0970  141.5290 C   0  0  0  0  0  0  0  0  0  0  0  0
  189.2640  177.8760  137.0220 C   0  0  0  0  0  2  0  0  0  0  0  0
  188.3070  178.8510  136.6830 O   0  0  0  0  0  0  0  0  0  0  0  0
  184.8360  178.5480  141.3170 C   0  0  0  0  0  0  0  0  0  0  0  0
  184.2150  178.5550  142.5790 C   0  0  0  0  0  0  0  0  0  0  0  0
  188.5150  177.7210  143.5590 C   0  0  0  0  0  0  0  0  0  0  0  0
  189.6770  177.6760  141.4380 C   0  0  0  0  0  3  0  0  0  0  0  0
  182.7220  178.9980  140.2070 C   0  0  0  0  0  0  0  0  0  0  0  0
  190.9260  177.3050  143.3360 C   0  0  0  0  0  3  0  0  0  0  0  0
  189.6340  178.0070  138.5030 C   0  0  0  0  0  2  0  0  0  0  0  0
  188.4820  177.9430  140.7710 C   0  0  0  0  0  0  0  0  0  0  0  0
  188.4240  178.0590  139.3310 N   0  0  0  0  0  0  0  0  0  0  0  0
  186.0790  178.4780  139.4950 C   0  0  0  0  0  0  0  0  0  0  0  0
  182.0880  179.0080  141.4580 C   0  0  0  0  0  3  0  0  0  0  0  0
  189.2660  177.4010  145.9660 C   0  0  0  0  0  3  0  0  0  0  0  0
  189.7200  177.5610  142.8310 C   0  0  0  0  0  0  0  0  0  0  0  0
  182.8300  178.7880  142.6340 C   0  0  0  0  0  3  0  0  0  0  0  0
  188.3680  177.6350  145.0170 C   0  0  0  0  0  3  0  0  0  0  0  0
  190.7090  177.1500  145.8600 C   0  0  0  0  0  0  0  0  0  0  0  0
  187.0750  178.4220  137.2160 C   0  0  0  0  0  2  0  0  0  0  0  0
  187.1550  178.3570  138.7130 C   0  0  0  0  0  0  0  0  0  0  0  0
  184.8500  178.7200  139.0910 O   0  0  0  0  0  0  0  0  0  0  0  0
  187.3630  177.9810  142.8800 N   0  0  0  0  0  0  0  0  0  0  0  0
  184.9130  178.3420  143.7580 O   0  0  0  0  0  1  0  0  0  0  0  0
  181.9970  179.2140  139.0440 O   0  0  0  0  0  1  0  0  0  0  0  0
  186.1470  178.3560  140.8800 C   0  0  0  0  0  0  0  0  0  0  0  0
  184.0960  178.7650  140.1660 C   0  0  0  0  0  0  0  0  0  0  0  0
  192.3610  175.8230  147.3160 C   0  0  0  0  0  0  0  0  0  0  0  0
  191.4760  176.9200  147.0500 N   0  0  0  0  0  2  0  0  0  0  0  0
  192.5520  174.9120  146.4690 O   0  0  0  0  0  0  0  0  0  0  0  0
  193.0700  175.7630  148.6210 C   0  0  0  0  0  1  0  0  0  0  0  0
  1 20  2  0  0  0  0
  2 24  1  0  0  0  0
  3 11  1  0  0  0  0
  4  3  1  0  0  0  0
  4 21  1  0  0  0  0
  5  6  1  0  0  0  0
  6 18  2  0  0  0  0
  6 25  1  0  0  0  0
  7 19  1  0  0  0  0
  8 17  1  0  0  0  0
  9 15  2  0  0  0  0
 10  1  1  0  0  0  0
 11 13  1  0  0  0  0
 12  8  2  0  0  0  0
 12  2  1  0  0  0  0
 13 12  1  0  0  0  0
 14 27  1  0  0  0  0
 15 18  1  0  0  0  0
 17 10  2  0  0  0  0
 17  7  1  0  0  0  0
 19 16  2  0  0  0  0
 20 16  1  0  0  0  0
 20 30  1  0  0  0  0
 21 22  1  0  0  0  0
 22 13  1  0  0  0  0
 22 14  2  0  0  0  0
 23 14  1  0  0  0  0
 23 28  1  0  0  0  0
 24  7  2  0  0  0  0
 26  9  1  0  0  0  0
 27  5  1  0  0  0  0
 27  2  2  0  0  0  0
 28  9  1  0  0  0  0
 28  5  2  0  0  0  0
 29 32  1  0  0  0  0
 30 29  1  0  0  0  0
 31 29  2  0  0  0  0
M  END
>  <MODEL>
6

>  <REMARK>
 VINA RESULT:     -10.1      2.267      7.030
  Name = 
  1 active torsions:
  status: ('A' for Active; 'I' for Inactive)
    1  A    between atoms: N_10  and  C_24
                            x       y       z     vdW  Elec       q    Type
                         _______ _______ _______ _____ _____    ______ ____

>  <TORSDO>
F 1

$$$$
=
 OpenBabel10272413223D

 32 37  0  0  0  0  0  0  0  0999 V2000
  184.0440  178.9260  139.0640 C   0  0  0  0  0  3  0  0  0  0  0  0
  187.5920  178.0320  142.8570 C   0  0  0  0  0  0  0  0  0  0  0  0
  191.8390  177.6180  140.4080 C   0  0  0  0  0  2  0  0  0  0  0  0
  192.2020  176.7100  141.4220 O   0  0  0  0  0  0  0  0  0  0  0  0
  188.0520  177.8010  145.3210 C   0  0  0  0  0  0  0  0  0  0  0  0
  186.8770  177.9780  146.0720 C   0  0  0  0  0  0  0  0  0  0  0  0
  185.4740  178.4880  141.8390 C   0  0  0  0  0  0  0  0  0  0  0  0
  187.4390  178.2120  140.4570 C   0  0  0  0  0  3  0  0  0  0  0  0
  189.3590  177.4480  147.3380 C   0  0  0  0  0  0  0  0  0  0  0  0
  185.4470  178.6470  139.3880 C   0  0  0  0  0  3  0  0  0  0  0  0
  190.3190  177.5990  140.2170 C   0  0  0  0  0  2  0  0  0  0  0  0
  188.2160  177.9970  141.5940 C   0  0  0  0  0  0  0  0  0  0  0  0
  189.6380  177.7450  141.5070 N   0  0  0  0  0  0  0  0  0  0  0  0
  189.7150  177.5700  143.8880 C   0  0  0  0  0  0  0  0  0  0  0  0
  188.1970  177.6220  148.1010 C   0  0  0  0  0  3  0  0  0  0  0  0
  183.0330  178.9720  141.3230 C   0  0  0  0  0  3  0  0  0  0  0  0
  186.0670  178.4600  140.5520 C   0  0  0  0  0  0  0  0  0  0  0  0
  186.9650  177.8850  147.4720 C   0  0  0  0  0  3  0  0  0  0  0  0
  184.0570  178.7310  142.1330 C   0  0  0  0  0  3  0  0  0  0  0  0
  182.9890  179.0710  139.8590 C   0  0  0  0  0  0  0  0  0  0  0  0
  191.8570  177.3050  142.6500 C   0  0  0  0  0  2  0  0  0  0  0  0
  190.3720  177.5110  142.7270 C   0  0  0  0  0  0  0  0  0  0  0  0
  190.2380  177.4090  145.0840 O   0  0  0  0  0  0  0  0  0  0  0  0
  186.2590  178.2740  142.9320 N   0  0  0  0  0  0  0  0  0  0  0  0
  185.6470  178.2380  145.4860 O   0  0  0  0  0  1  0  0  0  0  0  0
  190.5770  177.1890  147.9520 O   0  0  0  0  0  1  0  0  0  0  0  0
  188.3470  177.8220  143.9580 C   0  0  0  0  0  0  0  0  0  0  0  0
  189.2590  177.5430  145.9510 C   0  0  0  0  0  0  0  0  0  0  0  0
  181.3330  180.5720  138.5880 C   0  0  0  0  0  0  0  0  0  0  0  0
  181.7420  179.3430  139.2050 N   0  0  0  0  0  2  0  0  0  0  0  0
  182.0860  181.5800  138.5670 O   0  0  0  0  0  0  0  0  0  0  0  0
  179.9890  180.6550  137.9590 C   0  0  0  0  0  1  0  0  0  0  0  0
  1 10  1  0  0  0  0
  1 20  2  0  0  0  0
  2 24  1  0  0  0  0
  2 27  2  0  0  0  0
  3  4  1  0  0  0  0
  4 21  1  0  0  0  0
  5 28  2  0  0  0  0
  5  6  1  0  0  0  0
  6 18  2  0  0  0  0
  7 19  1  0  0  0  0
  7 24  2  0  0  0  0
  8 17  1  0  0  0  0
  8 12  2  0  0  0  0
  9 26  1  0  0  0  0
  9 15  2  0  0  0  0
 10 17  2  0  0  0  0
 11  3  1  0  0  0  0
 11 13  1  0  0  0  0
 12  2  1  0  0  0  0
 13 12  1  0  0  0  0
 13 22  1  0  0  0  0
 14 27  1  0  0  0  0
 14 23  1  0  0  0  0
 16 19  2  0  0  0  0
 17  7  1  0  0  0  0
 18 15  1  0  0  0  0
 20 16  1  0  0  0  0
 21 22  1  0  0  0  0
 22 14  2  0  0  0  0
 23 28  1  0  0  0  0
 25  6  1  0  0  0  0
 27  5  1  0  0  0  0
 28  9  1  0  0  0  0
 29 30  1  0  0  0  0
 30 20  1  0  0  0  0
 31 29  2  0  0  0  0
 32 29  1  0  0  0  0
M  END
>  <MODEL>
7

>  <REMARK>
 VINA RESULT:     -10.0      3.141      5.974
  Name = 
  1 active torsions:
  status: ('A' for Active; 'I' for Inactive)
    1  A    between atoms: N_10  and  C_24
                            x       y       z     vdW  Elec       q    Type
                         _______ _______ _______ _____ _____    ______ ____

>  <TORSDO>
F 1

$$$$
=
 OpenBabel10272413223D

 32 37  0  0  0  0  0  0  0  0999 V2000
  191.3320  177.2450  141.0410 C   0  0  0  0  0  3  0  0  0  0  0  0
  186.3360  178.2100  142.4130 C   0  0  0  0  0  0  0  0  0  0  0  0
  186.4980  178.4340  147.3260 C   0  0  0  0  0  2  0  0  0  0  0  0
  185.1930  177.9060  147.2780 O   0  0  0  0  0  0  0  0  0  0  0  0
  183.9780  178.6630  141.6600 C   0  0  0  0  0  0  0  0  0  0  0  0
  183.8910  178.6760  140.2560 C   0  0  0  0  0  0  0  0  0  0  0  0
  188.2360  177.8360  141.0060 C   0  0  0  0  0  0  0  0  0  0  0  0
  188.4950  177.8060  143.4100 C   0  0  0  0  0  3  0  0  0  0  0  0
  181.6040  179.1330  141.8710 C   0  0  0  0  0  0  0  0  0  0  0  0
  190.3790  177.4360  142.1390 C   0  0  0  0  0  3  0  0  0  0  0  0
  187.2920  177.9610  146.1030 C   0  0  0  0  0  2  0  0  0  0  0  0
  187.1350  178.0670  143.5660 C   0  0  0  0  0  0  0  0  0  0  0  0
  186.5300  178.1980  144.8740 N   0  0  0  0  0  0  0  0  0  0  0  0
  184.4210  178.5820  143.8200 C   0  0  0  0  0  0  0  0  0  0  0  0
  181.5000  179.1490  140.4730 C   0  0  0  0  0  3  0  0  0  0  0  0
  189.8540  177.5120  139.0730 C   0  0  0  0  0  3  0  0  0  0  0  0
  189.0700  177.6860  142.1420 C   0  0  0  0  0  0  0  0  0  0  0  0
  182.6360  178.9220  139.6720 C   0  0  0  0  0  3  0  0  0  0  0  0
  188.6600  177.7440  139.6040 C   0  0  0  0  0  3  0  0  0  0  0  0
  191.1470  177.2700  139.7260 C   0  0  0  0  0  0  0  0  0  0  0  0
  184.4870  178.6420  146.3060 C   0  0  0  0  0  2  0  0  0  0  0  0
  185.1120  178.4480  144.9560 C   0  0  0  0  0  0  0  0  0  0  0  0
  183.1350  178.8370  143.7200 O   0  0  0  0  0  0  0  0  0  0  0  0
  186.9100  178.0910  141.1890 N   0  0  0  0  0  0  0  0  0  0  0  0
  184.9880  178.4560  139.4370 O   0  0  0  0  0  1  0  0  0  0  0  0
  180.4880  179.3570  142.6660 O   0  0  0  0  0  1  0  0  0  0  0  0
  185.0170  178.4610  142.5670 C   0  0  0  0  0  0  0  0  0  0  0  0
  182.8540  178.8880  142.4370 C   0  0  0  0  0  0  0  0  0  0  0  0
  192.5740  175.9200  138.0660 C   0  0  0  0  0  0  0  0  0  0  0  0
  192.3130  177.0410  138.9220 N   0  0  0  0  0  2  0  0  0  0  0  0
  191.7440  174.9820  137.9400 O   0  0  0  0  0  0  0  0  0  0  0  0
  193.8520  175.8660  137.3100 C   0  0  0  0  0  1  0  0  0  0  0  0
  1 10  1  0  0  0  0
  2 27  2  0  0  0  0
  2 12  1  0  0  0  0
  4  3  1  0  0  0  0
  5 28  1  0  0  0  0
  5 27  1  0  0  0  0
  6  5  2  0  0  0  0
  7 24  2  0  0  0  0
  7 17  1  0  0  0  0
  8 12  2  0  0  0  0
  9 28  2  0  0  0  0
  9 26  1  0  0  0  0
 10 17  2  0  0  0  0
 11  3  1  0  0  0  0
 12 13  1  0  0  0  0
 13 22  1  0  0  0  0
 13 11  1  0  0  0  0
 14 22  2  0  0  0  0
 15  9  1  0  0  0  0
 16 19  2  0  0  0  0
 16 20  1  0  0  0  0
 17  8  1  0  0  0  0
 18  6  1  0  0  0  0
 18 15  2  0  0  0  0
 19  7  1  0  0  0  0
 20  1  2  0  0  0  0
 21  4  1  0  0  0  0
 22 21  1  0  0  0  0
 23 14  1  0  0  0  0
 24  2  1  0  0  0  0
 25  6  1  0  0  0  0
 27 14  1  0  0  0  0
 28 23  1  0  0  0  0
 29 30  1  0  0  0  0
 30 20  1  0  0  0  0
 31 29  2  0  0  0  0
 32 29  1  0  0  0  0
M  END
>  <MODEL>
8

>  <REMARK>
 VINA RESULT:      -9.5      2.267      3.730
  Name = 
  1 active torsions:
  status: ('A' for Active; 'I' for Inactive)
    1  A    between atoms: N_10  and  C_24
                            x       y       z     vdW  Elec       q    Type
                         _______ _______ _______ _____ _____    ______ ____

>  <TORSDO>
F 1

$$$$
=
 OpenBabel10272413223D

 32 37  0  0  0  0  0  0  0  0999 V2000
  190.8440  177.1820  137.8430 C   0  0  0  0  0  3  0  0  0  0  0  0
  187.3360  177.9480  141.7000 C   0  0  0  0  0  0  0  0  0  0  0  0
  183.1190  178.7600  139.2980 C   0  0  0  0  0  2  0  0  0  0  0  0
  182.7990  179.6020  140.3800 O   0  0  0  0  0  0  0  0  0  0  0  0
  186.8820  178.0070  144.1750 C   0  0  0  0  0  0  0  0  0  0  0  0
  188.0450  177.7140  144.9080 C   0  0  0  0  0  0  0  0  0  0  0  0
  189.4310  177.4700  140.6460 C   0  0  0  0  0  0  0  0  0  0  0  0
  187.4850  177.9500  139.2930 C   0  0  0  0  0  3  0  0  0  0  0  0
  185.5890  178.2640  146.2160 C   0  0  0  0  0  0  0  0  0  0  0  0
  189.4560  177.5030  138.1900 C   0  0  0  0  0  3  0  0  0  0  0  0
  184.6390  178.7200  139.1070 C   0  0  0  0  0  2  0  0  0  0  0  0
  186.7170  178.1130  140.4450 C   0  0  0  0  0  0  0  0  0  0  0  0
  185.3090  178.4400  140.3800 N   0  0  0  0  0  0  0  0  0  0  0  0
  185.2360  178.4300  142.7680 C   0  0  0  0  0  0  0  0  0  0  0  0
  186.7400  177.9730  146.9610 C   0  0  0  0  0  3  0  0  0  0  0  0
  191.8470  176.9100  140.0900 C   0  0  0  0  0  3  0  0  0  0  0  0
  188.8430  177.6280  139.3660 C   0  0  0  0  0  0  0  0  0  0  0  0
  187.9590  177.7000  146.3110 C   0  0  0  0  0  3  0  0  0  0  0  0
  190.8340  177.1350  140.9180 C   0  0  0  0  0  3  0  0  0  0  0  0
  191.8890  176.9230  138.6220 C   0  0  0  0  0  0  0  0  0  0  0  0
  183.1120  178.8960  141.5580 C   0  0  0  0  0  2  0  0  0  0  0  0
  184.5850  178.6130  141.6160 C   0  0  0  0  0  0  0  0  0  0  0  0
  184.7180  178.5230  143.9740 O   0  0  0  0  0  0  0  0  0  0  0  0
  188.6550  177.6350  141.7540 N   0  0  0  0  0  0  0  0  0  0  0  0
  189.2620  177.4410  144.3020 O   0  0  0  0  0  1  0  0  0  0  0  0
  184.3840  178.5330  146.8510 O   0  0  0  0  0  1  0  0  0  0  0  0
  186.5890  178.1070  142.8150 C   0  0  0  0  0  0  0  0  0  0  0  0
  185.6880  178.2730  144.8250 C   0  0  0  0  0  0  0  0  0  0  0  0
  193.6040  175.3650  137.5100 C   0  0  0  0  0  0  0  0  0  0  0  0
  193.1230  176.6430  137.9470 N   0  0  0  0  0  2  0  0  0  0  0  0
  192.9380  174.3130  137.6940 O   0  0  0  0  0  0  0  0  0  0  0  0
  194.9200  175.2810  136.8230 C   0  0  0  0  0  1  0  0  0  0  0  0
  1 10  1  0  0  0  0
  1 20  2  0  0  0  0
  2 24  1  0  0  0  0
  2 27  2  0  0  0  0
  3  4  1  0  0  0  0
  4 21  1  0  0  0  0
  5 28  2  0  0  0  0
  5  6  1  0  0  0  0
  6 18  2  0  0  0  0
  7 19  1  0  0  0  0
  7 24  2  0  0  0  0
  8 17  1  0  0  0  0
  8 12  2  0  0  0  0
  9 26  1  0  0  0  0
  9 15  2  0  0  0  0
 10 17  2  0  0  0  0
 11  3  1  0  0  0  0
 11 13  1  0  0  0  0
 12  2  1  0  0  0  0
 13 12  1  0  0  0  0
 13 22  1  0  0  0  0
 14 27  1  0  0  0  0
 14 23  1  0  0  0  0
 16 19  2  0  0  0  0
 17  7  1  0  0  0  0
 18 15  1  0  0  0  0
 20 16  1  0  0  0  0
 21 22  1  0  0  0  0
 22 14  2  0  0  0  0
 23 28  1  0  0  0  0
 25  6  1  0  0  0  0
 27  5  1  0  0  0  0
 28  9  1  0  0  0  0
 29 31  2  0  0  0  0
 29 30  1  0  0  0  0
 30 20  1  0  0  0  0
 32 29  1  0  0  0  0
M  END
>  <MODEL>
9

>  <REMARK>
 VINA RESULT:      -9.4      2.126      4.864
  Name = 
  1 active torsions:
  status: ('A' for Active; 'I' for Inactive)
    1  A    between atoms: N_10  and  C_24
                            x       y       z     vdW  Elec       q    Type
                         _______ _______ _______ _____ _____    ______ ____

>  <TORSDO>
F 1

$$$$
