=
 OpenBabel10272413363D

 32 37  0  0  1  0  0  0  0  0999 V2000
  186.2600  178.6290  142.3360 C   0  0  2  0  0  3  0  0  0  0  0  0
  185.0720  178.9750  145.9920 C   0  0  0  0  0  3  0  0  0  0  0  0
  183.6880  178.8510  145.7620 C   0  0  0  0  0  3  0  0  0  0  0  0
  185.1850  178.4360  139.9410 C   0  0  0  0  0  0  0  0  0  0  0  0
  183.9560  178.3270  139.2770 C   0  0  0  0  0  0  0  0  0  0  0  0
  181.7050  178.1960  139.0190 C   0  0  0  0  0  0  0  0  0  0  0  0
  185.9820  178.9100  144.9230 C   0  0  0  0  0  3  0  0  0  0  0  0
  185.4820  178.7020  143.6360 C   0  0  0  0  0  0  0  0  0  0  0  0
  183.9010  178.4740  142.0000 C   0  0  0  0  0  0  0  0  0  0  0  0
  182.1700  178.1590  137.8110 N   0  0  0  0  0  0  0  0  0  0  0  0
  183.6390  178.2380  137.8220 C   0  0  0  0  0  3  0  0  0  0  0  0
  183.1960  178.6670  144.4600 C   0  0  0  0  0  3  0  0  0  0  0  0
  184.1200  178.5990  143.4180 C   0  0  0  0  0  0  0  0  0  0  0  0
  182.7140  178.3770  141.3360 N   0  0  0  0  0  0  0  0  0  0  0  0
  186.7050  178.4890  139.0650 Cl  0  0  0  0  0  0  0  0  0  0  0  0
  180.2540  178.1370  139.3390 C   0  0  0  0  0  1  0  0  0  0  0  0
  185.1290  178.5050  141.3430 C   0  0  2  0  0  3  0  0  0  0  0  0
  182.7740  178.2990  139.9780 C   0  0  0  0  0  0  0  0  0  0  0  0
  190.9810  178.7370  143.4730 C   0  0  0  0  0  2  0  0  0  0  0  0
  188.8790  176.7400  143.7810 C   0  0  1  0  0  3  0  0  0  0  0  0
  188.4240  177.9320  141.7810 N   0  0  0  0  0  2  0  0  0  0  0  0
  190.8070  177.6770  142.3870 C   0  0  0  0  0  2  0  0  0  0  0  0
  187.1760  177.4760  142.2500 N   0  0  1  0  0  0  0  0  0  0  0  0
  190.6350  178.2270  144.8050 N   0  0  0  0  0  0  0  0  0  0  0  0
  189.4090  177.0690  142.4040 C   0  0  1  0  0  3  0  0  0  0  0  0
  189.2310  177.8070  144.8320 C   0  0  0  0  0  2  0  0  0  0  0  0
  187.3930  176.8190  143.5490 C   0  0  0  0  0  2  0  0  0  0  0  0
  191.5020  177.1130  145.1830 C   0  0  0  0  0  2  0  0  0  0  0  0
  191.2460  176.7290  146.6300 C   0  0  0  0  0  2  0  0  0  0  0  0
  192.2270  175.6920  147.0690 C   0  0  0  0  0  0  0  0  0  0  0  0
  192.8360  175.7770  148.4260 C   0  0  0  0  0  1  0  0  0  0  0  0
  192.5470  174.7880  146.3140 O   0  0  0  0  0  0  0  0  0  0  0  0
  1  8  1  1  0  0  0
  3  2  1  0  0  0  0
  5  4  2  0  0  0  0
  5 18  1  0  0  0  0
  6 16  1  0  0  0  0
  6 18  2  0  0  0  0
  7  2  2  0  0  0  0
  8  7  1  0  0  0  0
  9 13  1  0  0  0  0
 10 11  2  0  0  0  0
 10  6  1  0  0  0  0
 11  5  1  0  0  0  0
 12  3  2  0  0  0  0
 13  8  2  0  0  0  0
 13 12  1  0  0  0  0
 14  9  2  0  0  0  0
 15  4  1  0  0  0  0
 17  4  1  6  0  0  0
 17  9  1  0  0  0  0
 17  1  1  0  0  0  0
 18 14  1  0  0  0  0
 19 24  1  0  0  0  0
 20 27  1  6  0  0  0
 20 26  1  0  0  0  0
 21 23  1  0  0  0  0
 21 25  1  0  0  0  0
 22 19  1  0  0  0  0
 23  1  1  0  0  0  0
 23 27  1  1  0  0  0
 24 26  1  0  0  0  0
 24 28  1  0  0  0  0
 25 22  1  1  0  0  0
 25 20  1  0  0  0  0
 28 29  1  0  0  0  0
 29 30  1  0  0  0  0
 30 31  1  0  0  0  0
 32 30  2  0  0  0  0
M  END
>  <MODEL>
1

>  <REMARK>
 VINA RESULT:      -9.3      0.000      0.000
  Name = 
  4 active torsions:
  status: ('A' for Active; 'I' for Inactive)
    1  A    between atoms: C_1  and  C_10
    2  A    between atoms: C_3  and  N_14
    3  A    between atoms: C_10  and  C_24
    4  A    between atoms: N_19  and  C_24
                            x       y       z     vdW  Elec       q    Type
                         _______ _______ _______ _____ _____    ______ ____

>  <TORSDO>
F 4

$$$$
=
 OpenBabel10272413363D

 32 37  0  0  1  0  0  0  0  0999 V2000
  187.8520  177.3080  142.3590 C   0  0  2  0  0  3  0  0  0  0  0  0
  184.2000  178.5170  142.0460 C   0  0  0  0  0  3  0  0  0  0  0  0
  183.9970  178.8810  143.3910 C   0  0  0  0  0  3  0  0  0  0  0  0
  189.6290  176.9280  144.2630 C   0  0  0  0  0  0  0  0  0  0  0  0
  189.8410  177.0940  145.6380 C   0  0  0  0  0  0  0  0  0  0  0  0
  189.3840  177.6620  147.7870 C   0  0  0  0  0  0  0  0  0  0  0  0
  185.4360  177.9970  141.6260 C   0  0  0  0  0  3  0  0  0  0  0  0
  186.4580  177.8690  142.5680 C   0  0  0  0  0  0  0  0  0  0  0  0
  187.4360  177.8980  144.6360 C   0  0  0  0  0  0  0  0  0  0  0  0
  190.5830  177.1750  147.8310 N   0  0  0  0  0  0  0  0  0  0  0  0
  191.0190  176.7570  146.4900 C   0  0  0  0  0  2  0  0  0  0  0  0
  185.0250  178.7250  144.3340 C   0  0  0  0  0  3  0  0  0  0  0  0
  186.2430  178.2140  143.8910 C   0  0  0  0  0  0  0  0  0  0  0  0
  187.6570  178.0440  145.9720 N   0  0  0  0  0  0  0  0  0  0  0  0
  190.8510  176.2200  143.2200 Cl  0  0  0  0  0  0  0  0  0  0  0  0
  188.6630  178.1700  148.9850 C   0  0  0  0  0  1  0  0  0  0  0  0
  188.3840  177.3540  143.7710 C   0  0  0  0  0  0  0  0  0  0  0  0
  188.8690  177.6400  146.4420 C   0  0  0  0  0  0  0  0  0  0  0  0
  189.4240  175.8320  138.0060 C   0  0  0  0  0  2  0  0  0  0  0  0
  188.5350  178.4000  139.0630 C   0  0  1  0  0  3  0  0  0  0  0  0
  189.6250  177.2550  140.8320 N   0  0  0  0  0  2  0  0  0  0  0  0
  190.4670  176.8060  138.5510 C   0  0  0  0  0  2  0  0  0  0  0  0
  188.6890  178.1100  141.4470 N   0  0  1  0  0  0  0  0  0  0  0  0
  188.2830  176.5270  137.3990 N   0  0  0  0  0  0  0  0  0  0  0  0
  189.8540  177.8160  139.5150 C   0  0  1  0  0  3  0  0  0  0  0  0
  187.6130  177.3620  138.4000 C   0  0  0  0  0  2  0  0  0  0  0  0
  187.9110  178.7670  140.3840 C   0  0  0  0  0  2  0  0  0  0  0  0
  188.7070  177.3430  136.2640 C   0  0  0  0  0  2  0  0  0  0  0  0
  188.0320  176.8530  134.9940 C   0  0  0  0  0  2  0  0  0  0  0  0
  186.7120  177.5270  134.8190 C   0  0  0  0  0  0  0  0  0  0  0  0
  185.4610  176.8150  135.2000 C   0  0  0  0  0  1  0  0  0  0  0  0
  186.6520  178.6510  134.3460 O   0  0  0  0  0  0  0  0  0  0  0  0
  1  8  1  1  0  0  0
  1 17  1  0  0  0  0
  2  3  1  0  0  0  0
  3 12  2  0  0  0  0
  4  5  1  0  0  0  0
  5 18  2  0  0  0  0
  5 11  1  0  0  0  0
  6 10  2  0  0  0  0
  6 16  1  0  0  0  0
  7  2  2  0  0  0  0
  7  8  1  0  0  0  0
  8 13  2  0  0  0  0
  9 14  2  0  0  0  0
 11 10  1  0  0  0  0
 13 12  1  0  0  0  0
 13  9  1  0  0  0  0
 14 18  1  0  0  0  0
 15  4  1  0  0  0  0
 17  4  2  0  0  0  0
 17  9  1  0  0  0  0
 18  6  1  0  0  0  0
 19 22  1  0  0  0  0
 20 26  1  1  0  0  0
 20 25  1  0  0  0  0
 20 27  1  0  0  0  0
 21 23  1  0  0  0  0
 23 27  1  6  0  0  0
 23  1  1  0  0  0  0
 24 19  1  0  0  0  0
 24 26  1  0  0  0  0
 25 22  1  6  0  0  0
 25 21  1  0  0  0  0
 28 24  1  0  0  0  0
 29 28  1  0  0  0  0
 30 29  1  0  0  0  0
 30 31  1  0  0  0  0
 32 30  2  0  0  0  0
M  END
>  <MODEL>
2

>  <REMARK>
 VINA RESULT:      -9.1      3.837      7.968
  Name = 
  4 active torsions:
  status: ('A' for Active; 'I' for Inactive)
    1  A    between atoms: C_1  and  C_10
    2  A    between atoms: C_3  and  N_14
    3  A    between atoms: C_10  and  C_24
    4  A    between atoms: N_19  and  C_24
                            x       y       z     vdW  Elec       q    Type
                         _______ _______ _______ _____ _____    ______ ____

>  <TORSDO>
F 4

$$$$
=
 OpenBabel10272413363D

 32 37  0  0  1  0  0  0  0  0999 V2000
  187.8160  177.3090  142.3530 C   0  0  2  0  0  3  0  0  0  0  0  0
  184.1590  178.4770  141.9510 C   0  0  0  0  0  3  0  0  0  0  0  0
  183.9150  178.8260  143.2940 C   0  0  0  0  0  3  0  0  0  0  0  0
  189.5440  176.9320  144.3010 C   0  0  0  0  0  0  0  0  0  0  0  0
  189.7170  177.0870  145.6830 C   0  0  0  0  0  0  0  0  0  0  0  0
  189.1940  177.6290  147.8240 C   0  0  0  0  0  0  0  0  0  0  0  0
  185.4120  177.9760  141.5610 C   0  0  0  0  0  3  0  0  0  0  0  0
  186.4100  177.8510  142.5290 C   0  0  0  0  0  0  0  0  0  0  0  0
  187.3300  177.8720  144.6230 C   0  0  0  0  0  0  0  0  0  0  0  0
  190.3970  177.1550  147.8970 N   0  0  0  0  0  0  0  0  0  0  0  0
  190.8750  176.7560  146.5640 C   0  0  0  0  0  2  0  0  0  0  0  0
  184.9180  178.6730  144.2630 C   0  0  0  0  0  3  0  0  0  0  0  0
  186.1550  178.1800  143.8490 C   0  0  0  0  0  0  0  0  0  0  0  0
  187.5130  178.0070  145.9670 N   0  0  0  0  0  0  0  0  0  0  0  0
  190.8030  176.2490  143.2860 Cl  0  0  0  0  0  0  0  0  0  0  0  0
  188.4350  178.1170  149.0060 C   0  0  0  0  0  1  0  0  0  0  0  0
  188.3080  177.3480  143.7790 C   0  0  0  0  0  0  0  0  0  0  0  0
  188.7170  177.6130  146.4660 C   0  0  0  0  0  0  0  0  0  0  0  0
  189.6370  175.8440  138.0950 C   0  0  0  0  0  2  0  0  0  0  0  0
  188.6150  178.3910  139.0800 C   0  0  1  0  0  3  0  0  0  0  0  0
  189.6590  177.3010  140.9110 N   0  0  0  0  0  2  0  0  0  0  0  0
  190.6210  176.8580  138.6770 C   0  0  0  0  0  2  0  0  0  0  0  0
  188.6680  178.1300  141.4720 N   0  0  1  0  0  0  0  0  0  0  0  0
  188.5030  176.4950  137.4280 N   0  0  0  0  0  0  0  0  0  0  0  0
  189.9310  177.8560  139.5990 C   0  0  1  0  0  3  0  0  0  0  0  0
  187.7600  177.3160  138.3870 C   0  0  0  0  0  2  0  0  0  0  0  0
  187.9180  178.7500  140.3670 C   0  0  0  0  0  2  0  0  0  0  0  0
  188.9530  177.3130  136.3040 C   0  0  0  0  0  2  0  0  0  0  0  0
  188.4220  176.7390  135.0020 C   0  0  0  0  0  2  0  0  0  0  0  0
  189.2460  175.5680  134.5810 C   0  0  0  0  0  0  0  0  0  0  0  0
  190.7110  175.7320  134.3670 C   0  0  0  0  0  1  0  0  0  0  0  0
  188.7220  174.4820  134.3910 O   0  0  0  0  0  0  0  0  0  0  0  0
  1  8  1  1  0  0  0
  1 17  1  0  0  0  0
  2  3  1  0  0  0  0
  3 12  2  0  0  0  0
  4  5  1  0  0  0  0
  5 18  2  0  0  0  0
  5 11  1  0  0  0  0
  6 10  2  0  0  0  0
  6 16  1  0  0  0  0
  7  2  2  0  0  0  0
  7  8  1  0  0  0  0
  8 13  2  0  0  0  0
  9 14  2  0  0  0  0
 11 10  1  0  0  0  0
 13 12  1  0  0  0  0
 13  9  1  0  0  0  0
 14 18  1  0  0  0  0
 15  4  1  0  0  0  0
 17  4  2  0  0  0  0
 17  9  1  0  0  0  0
 18  6  1  0  0  0  0
 19 22  1  0  0  0  0
 20 26  1  1  0  0  0
 20 25  1  0  0  0  0
 20 27  1  0  0  0  0
 21 23  1  0  0  0  0
 23 27  1  6  0  0  0
 23  1  1  0  0  0  0
 24 19  1  0  0  0  0
 24 26  1  0  0  0  0
 25 22  1  6  0  0  0
 25 21  1  0  0  0  0
 28 24  1  0  0  0  0
 29 28  1  0  0  0  0
 30 29  1  0  0  0  0
 31 30  1  0  0  0  0
 32 30  2  0  0  0  0
M  END
>  <MODEL>
3

>  <REMARK>
 VINA RESULT:      -8.8      4.064      7.759
  Name = 
  4 active torsions:
  status: ('A' for Active; 'I' for Inactive)
    1  A    between atoms: C_1  and  C_10
    2  A    between atoms: C_3  and  N_14
    3  A    between atoms: C_10  and  C_24
    4  A    between atoms: N_19  and  C_24
                            x       y       z     vdW  Elec       q    Type
                         _______ _______ _______ _____ _____    ______ ____

>  <TORSDO>
F 4

$$$$
=
 OpenBabel10272413363D

 32 37  0  0  1  0  0  0  0  0999 V2000
  188.2410  178.2010  140.8980 C   0  0  2  0  0  3  0  0  0  0  0  0
  184.8800  179.1680  142.5320 C   0  0  0  0  0  3  0  0  0  0  0  0
  184.0790  179.1230  141.3750 C   0  0  0  0  0  3  0  0  0  0  0  0
  189.1810  177.7490  138.4820 C   0  0  0  0  0  0  0  0  0  0  0  0
  188.7970  177.6430  137.1390 C   0  0  0  0  0  0  0  0  0  0  0  0
  187.4220  177.6560  135.3340 C   0  0  0  0  0  0  0  0  0  0  0  0
  186.2520  178.8760  142.4610 C   0  0  0  0  0  3  0  0  0  0  0  0
  186.7950  178.5240  141.2240 C   0  0  0  0  0  0  0  0  0  0  0  0
  186.8430  178.1880  138.9620 C   0  0  0  0  0  0  0  0  0  0  0  0
  188.5950  177.4080  134.8430 N   0  0  0  0  0  0  0  0  0  0  0  0
  189.6030  177.3700  135.9140 C   0  0  0  0  0  3  0  0  0  0  0  0
  184.6400  178.7910  140.1320 C   0  0  0  0  0  3  0  0  0  0  0  0
  186.0020  178.4990  140.0900 C   0  0  0  0  0  0  0  0  0  0  0  0
  186.4900  178.0900  137.6490 N   0  0  0  0  0  0  0  0  0  0  0  0
  190.8530  177.5530  138.9820 Cl  0  0  0  0  0  0  0  0  0  0  0  0
  186.1930  177.7600  134.5020 C   0  0  0  0  0  1  0  0  0  0  0  0
  188.1550  178.0250  139.4020 C   0  0  2  0  0  3  0  0  0  0  0  0
  187.4860  177.8120  136.7640 C   0  0  0  0  0  0  0  0  0  0  0  0
  191.2760  178.1230  144.6900 C   0  0  0  0  0  2  0  0  0  0  0  0
  189.0070  176.4760  143.8910 C   0  0  1  0  0  3  0  0  0  0  0  0
  190.0930  177.1820  141.9030 N   0  0  0  0  0  2  0  0  0  0  0  0
  191.5360  176.8520  143.8830 C   0  0  0  0  0  2  0  0  0  0  0  0
  188.7430  176.9780  141.5530 N   0  0  1  0  0  0  0  0  0  0  0  0
  190.1110  177.9890  145.5730 N   0  0  0  0  0  0  0  0  0  0  0  0
  190.3000  176.4060  143.1100 C   0  0  1  0  0  3  0  0  0  0  0  0
  188.9070  177.7270  144.7800 C   0  0  0  0  0  2  0  0  0  0  0  0
  188.0030  176.6400  142.7800 C   0  0  0  0  0  2  0  0  0  0  0  0
  190.3130  176.9230  146.5510 C   0  0  0  0  0  2  0  0  0  0  0  0
  189.0470  176.7240  147.3670 C   0  0  0  0  0  2  0  0  0  0  0  0
  188.7580  177.9460  148.1750 C   0  0  0  0  0  0  0  0  0  0  0  0
  187.4070  178.5710  148.1120 C   0  0  0  0  0  1  0  0  0  0  0  0
  189.6280  178.4470  148.8690 O   0  0  0  0  0  0  0  0  0  0  0  0
  1  8  1  1  0  0  0
  1 23  1  0  0  0  0
  3  2  2  0  0  0  0
  4 15  1  0  0  0  0
  5  4  2  0  0  0  0
  6 18  2  0  0  0  0
  7  2  1  0  0  0  0
  8  7  2  0  0  0  0
  9 17  1  0  0  0  0
  9 13  1  0  0  0  0
 10  6  1  0  0  0  0
 10 11  2  0  0  0  0
 11  5  1  0  0  0  0
 12  3  1  0  0  0  0
 13 12  2  0  0  0  0
 13  8  1  0  0  0  0
 14  9  2  0  0  0  0
 16  6  1  0  0  0  0
 17  4  1  6  0  0  0
 17  1  1  0  0  0  0
 18  5  1  0  0  0  0
 18 14  1  0  0  0  0
 19 24  1  0  0  0  0
 20 27  1  6  0  0  0
 20 26  1  0  0  0  0
 21 25  1  0  0  0  0
 22 19  1  0  0  0  0
 23 21  1  0  0  0  0
 23 27  1  1  0  0  0
 24 28  1  0  0  0  0
 25 22  1  1  0  0  0
 25 20  1  0  0  0  0
 26 24  1  0  0  0  0
 28 29  1  0  0  0  0
 29 30  1  0  0  0  0
 30 32  2  0  0  0  0
 31 30  1  0  0  0  0
M  END
>  <MODEL>
4

>  <REMARK>
 VINA RESULT:      -8.5      3.079      4.140
  Name = 
  4 active torsions:
  status: ('A' for Active; 'I' for Inactive)
    1  A    between atoms: C_1  and  C_10
    2  A    between atoms: C_3  and  N_14
    3  A    between atoms: C_10  and  C_24
    4  A    between atoms: N_19  and  C_24
                            x       y       z     vdW  Elec       q    Type
                         _______ _______ _______ _____ _____    ______ ____

>  <TORSDO>
F 4

$$$$
=
 OpenBabel10272413363D

 32 37  0  0  1  0  0  0  0  0999 V2000
  186.5940  178.6150  142.1570 C   0  0  2  0  0  3  0  0  0  0  0  0
  184.4130  179.1600  145.2950 C   0  0  0  0  0  3  0  0  0  0  0  0
  183.1520  179.0220  144.6840 C   0  0  0  0  0  3  0  0  0  0  0  0
  186.2480  178.2890  139.5690 C   0  0  0  0  0  0  0  0  0  0  0  0
  185.2600  178.1420  138.5870 C   0  0  0  0  0  0  0  0  0  0  0  0
  183.1760  177.9940  137.7010 C   0  0  0  0  0  0  0  0  0  0  0  0
  185.5900  179.0370  144.5380 C   0  0  0  0  0  3  0  0  0  0  0  0
  185.4770  178.7580  143.1740 C   0  0  0  0  0  0  0  0  0  0  0  0
  184.4280  178.4380  141.1670 C   0  0  0  0  0  0  0  0  0  0  0  0
  183.9670  177.8920  136.6810 N   0  0  0  0  0  0  0  0  0  0  0  0
  185.3720  177.9720  137.1090 C   0  0  0  0  0  3  0  0  0  0  0  0
  183.0500  178.7660  143.3080 C   0  0  0  0  0  3  0  0  0  0  0  0
  184.2330  178.6410  142.5800 C   0  0  0  0  0  0  0  0  0  0  0  0
  183.4800  178.3030  140.1970 N   0  0  0  0  0  0  0  0  0  0  0  0
  187.9560  178.2950  139.1640 Cl  0  0  0  0  0  0  0  0  0  0  0  0
  181.6920  177.9500  137.5930 C   0  0  0  0  0  1  0  0  0  0  0  0
  185.7940  178.4340  140.8910 C   0  0  2  0  0  3  0  0  0  0  0  0
  183.9260  178.1510  138.9200 C   0  0  0  0  0  0  0  0  0  0  0  0
  190.2670  178.5440  145.3350 C   0  0  0  0  0  2  0  0  0  0  0  0
  188.3130  176.5610  144.4700 C   0  0  1  0  0  3  0  0  0  0  0  0
  188.7900  177.9360  142.5960 N   0  0  0  0  0  2  0  0  0  0  0  0
  190.6390  177.5890  144.2020 C   0  0  0  0  0  2  0  0  0  0  0  0
  187.4790  177.4600  142.3990 N   0  0  1  0  0  0  0  0  0  0  0  0
  189.3640  177.9210  146.3100 N   0  0  0  0  0  0  0  0  0  0  0  0
  189.4040  177.0050  143.5220 C   0  0  1  0  0  3  0  0  0  0  0  0
  188.1160  177.5220  145.6540 C   0  0  0  0  0  2  0  0  0  0  0  0
  187.0960  176.6840  143.5900 C   0  0  0  0  0  2  0  0  0  0  0  0
  189.9920  176.7640  146.9440 C   0  0  0  0  0  2  0  0  0  0  0  0
  191.1600  177.2170  147.8030 C   0  0  0  0  0  2  0  0  0  0  0  0
  192.2750  176.2280  147.7200 C   0  0  0  0  0  0  0  0  0  0  0  0
  192.3560  175.3000  146.5570 C   0  0  0  0  0  1  0  0  0  0  0  0
  193.1080  176.1620  148.6090 O   0  0  0  0  0  0  0  0  0  0  0  0
  1 23  1  0  0  0  0
  1  8  1  1  0  0  0
  3  2  1  0  0  0  0
  5 18  1  0  0  0  0
  5  4  2  0  0  0  0
  6 18  2  0  0  0  0
  7  2  2  0  0  0  0
  8  7  1  0  0  0  0
  9 13  1  0  0  0  0
 10 11  2  0  0  0  0
 10  6  1  0  0  0  0
 11  5  1  0  0  0  0
 12  3  2  0  0  0  0
 13  8  2  0  0  0  0
 13 12  1  0  0  0  0
 14  9  2  0  0  0  0
 15  4  1  0  0  0  0
 16  6  1  0  0  0  0
 17  4  1  6  0  0  0
 17  9  1  0  0  0  0
 17  1  1  0  0  0  0
 18 14  1  0  0  0  0
 19 24  1  0  0  0  0
 20 27  1  6  0  0  0
 20 26  1  0  0  0  0
 21 25  1  0  0  0  0
 22 19  1  0  0  0  0
 23 21  1  0  0  0  0
 23 27  1  1  0  0  0
 24 28  1  0  0  0  0
 25 22  1  1  0  0  0
 25 20  1  0  0  0  0
 26 24  1  0  0  0  0
 28 29  1  0  0  0  0
 30 29  1  0  0  0  0
 30 32  2  0  0  0  0
 31 30  1  0  0  0  0
M  END
>  <MODEL>
5

>  <REMARK>
 VINA RESULT:      -8.4      1.252      1.471
  Name = 
  4 active torsions:
  status: ('A' for Active; 'I' for Inactive)
    1  A    between atoms: C_1  and  C_10
    2  A    between atoms: C_3  and  N_14
    3  A    between atoms: C_10  and  C_24
    4  A    between atoms: N_19  and  C_24
                            x       y       z     vdW  Elec       q    Type
                         _______ _______ _______ _____ _____    ______ ____

>  <TORSDO>
F 4

$$$$
=
 OpenBabel10272413363D

 32 37  0  0  1  0  0  0  0  0999 V2000
  186.3910  177.5760  142.8460 C   0  0  2  0  0  3  0  0  0  0  0  0
  183.5010  178.7350  145.1270 C   0  0  0  0  0  3  0  0  0  0  0  0
  184.2230  178.8160  146.3330 C   0  0  0  0  0  3  0  0  0  0  0  0
  188.9120  176.8620  143.0950 C   0  0  0  0  0  0  0  0  0  0  0  0
  189.9520  176.7530  144.0270 C   0  0  0  0  0  0  0  0  0  0  0  0
  191.0010  176.8650  146.0360 C   0  0  0  0  0  0  0  0  0  0  0  0
  184.1390  178.3400  143.9390 C   0  0  0  0  0  3  0  0  0  0  0  0
  185.5040  178.0490  143.9820 C   0  0  0  0  0  0  0  0  0  0  0  0
  187.5530  177.6840  144.9290 C   0  0  0  0  0  0  0  0  0  0  0  0
  191.9030  176.4070  145.2280 N   0  0  0  0  0  0  0  0  0  0  0  0
  191.3580  176.2790  143.8680 C   0  0  0  0  0  3  0  0  0  0  0  0
  185.5900  178.4970  146.3690 C   0  0  0  0  0  3  0  0  0  0  0  0
  186.2000  178.1150  145.1760 C   0  0  0  0  0  0  0  0  0  0  0  0
  188.5740  177.5630  145.8240 N   0  0  0  0  0  0  0  0  0  0  0  0
  189.1300  176.4080  141.4130 Cl  0  0  0  0  0  0  0  0  0  0  0  0
  191.2450  177.1040  147.4840 C   0  0  0  0  0  1  0  0  0  0  0  0
  187.6880  177.3490  143.5840 C   0  0  0  0  0  0  0  0  0  0  0  0
  189.7610  177.1020  145.3430 C   0  0  2  0  0  3  0  0  0  0  0  0
  184.1990  177.3570  138.5170 C   0  0  0  0  0  2  0  0  0  0  0  0
  184.9160  179.5460  140.3040 C   0  0  1  0  0  3  0  0  0  0  0  0
  186.5890  177.8790  140.5340 N   0  0  0  0  0  2  0  0  0  0  0  0
  185.5320  178.0730  138.3070 C   0  0  0  0  0  2  0  0  0  0  0  0
  186.5580  178.5650  141.7640 N   0  0  1  0  0  0  0  0  0  0  0  0
  183.1640  178.2580  139.0360 N   0  0  0  0  0  0  0  0  0  0  0  0
  185.9990  178.7880  139.5700 C   0  0  1  0  0  3  0  0  0  0  0  0
  183.5730  178.7980  140.3350 C   0  0  0  0  0  2  0  0  0  0  0  0
  185.4590  179.5440  141.7090 C   0  0  0  0  0  2  0  0  0  0  0  0
  182.8950  179.3470  138.0990 C   0  0  0  0  0  2  0  0  0  0  0  0
  181.4110  179.6710  138.0950 C   0  0  0  0  0  2  0  0  0  0  0  0
  181.1680  180.9810  138.7670 C   0  0  0  0  0  0  0  0  0  0  0  0
  180.1110  181.0920  139.8110 C   0  0  0  0  0  1  0  0  0  0  0  0
  181.8150  181.9660  138.4510 O   0  0  0  0  0  0  0  0  0  0  0  0
  1 17  1  1  0  0  0
  1  8  1  0  0  0  0
  2  3  1  0  0  0  0
  3 12  2  0  0  0  0
  4 17  2  0  0  0  0
  4  5  1  0  0  0  0
  6 16  1  0  0  0  0
  7  8  1  0  0  0  0
  7  2  2  0  0  0  0
  8 13  2  0  0  0  0
  9 13  1  0  0  0  0
  9 14  2  0  0  0  0
 10  6  2  0  0  0  0
 11  5  2  0  0  0  0
 11 10  1  0  0  0  0
 13 12  1  0  0  0  0
 15  4  1  0  0  0  0
 17  9  1  0  0  0  0
 18  5  1  1  0  0  0
 18 14  1  0  0  0  0
 18  6  1  0  0  0  0
 19 24  1  0  0  0  0
 20 26  1  1  0  0  0
 20 27  1  0  0  0  0
 21 23  1  0  0  0  0
 22 19  1  0  0  0  0
 23 27  1  6  0  0  0
 23  1  1  0  0  0  0
 24 26  1  0  0  0  0
 25 22  1  6  0  0  0
 25 20  1  0  0  0  0
 25 21  1  0  0  0  0
 28 24  1  0  0  0  0
 29 28  1  0  0  0  0
 29 30  1  0  0  0  0
 30 31  1  0  0  0  0
 32 30  2  0  0  0  0
M  END
>  <MODEL>
6

>  <REMARK>
 VINA RESULT:      -7.8      3.104      8.361
  Name = 
  4 active torsions:
  status: ('A' for Active; 'I' for Inactive)
    1  A    between atoms: C_1  and  C_10
    2  A    between atoms: C_3  and  N_14
    3  A    between atoms: C_10  and  C_24
    4  A    between atoms: N_19  and  C_24
                            x       y       z     vdW  Elec       q    Type
                         _______ _______ _______ _____ _____    ______ ____

>  <TORSDO>
F 4

$$$$
=
 OpenBabel10272413363D

 32 37  0  0  1  0  0  0  0  0999 V2000
  189.1170  177.8480  140.8650 C   0  0  2  0  0  3  0  0  0  0  0  0
  185.4280  178.9800  140.7850 C   0  0  0  0  0  3  0  0  0  0  0  0
  185.1730  178.7250  139.4230 C   0  0  0  0  0  3  0  0  0  0  0  0
  190.9480  177.0300  139.1610 C   0  0  0  0  0  0  0  0  0  0  0  0
  191.1470  176.6960  137.8150 C   0  0  0  0  0  0  0  0  0  0  0  0
  190.6400  176.3770  135.6260 C   0  0  0  0  0  0  0  0  0  0  0  0
  186.6930  178.7160  141.3350 C   0  0  0  0  0  3  0  0  0  0  0  0
  187.6800  178.1810  140.5070 C   0  0  0  0  0  0  0  0  0  0  0  0
  188.6420  177.4800  138.5530 C   0  0  0  0  0  0  0  0  0  0  0  0
  191.8980  176.0820  135.7110 N   0  0  0  0  0  0  0  0  0  0  0  0
  192.3730  176.2460  137.0930 C   0  0  0  0  0  3  0  0  0  0  0  0
  186.1810  178.2090  138.5940 C   0  0  0  0  0  3  0  0  0  0  0  0
  187.4250  177.9500  139.1660 C   0  0  0  0  0  0  0  0  0  0  0  0
  188.8570  177.1590  137.2460 N   0  0  0  0  0  0  0  0  0  0  0  0
  192.2550  176.9630  140.3310 Cl  0  0  0  0  0  0  0  0  0  0  0  0
  189.8690  176.3100  134.3550 C   0  0  0  0  0  1  0  0  0  0  0  0
  189.6470  177.4260  139.5160 C   0  0  2  0  0  3  0  0  0  0  0  0
  190.1150  176.7660  136.9090 C   0  0  0  0  0  0  0  0  0  0  0  0
  189.8440  178.4980  145.6230 C   0  0  0  0  0  2  0  0  0  0  0  0
  188.3180  176.5640  144.0640 C   0  0  1  0  0  3  0  0  0  0  0  0
  190.2370  177.1310  142.7900 N   0  0  0  0  0  2  0  0  0  0  0  0
  190.5010  177.1710  145.2480 C   0  0  0  0  0  2  0  0  0  0  0  0
  189.2500  176.7620  141.8550 N   0  0  1  0  0  0  0  0  0  0  0  0
  188.3970  178.3610  145.8260 N   0  0  0  0  0  0  0  0  0  0  0  0
  189.8290  176.5240  144.0420 C   0  0  1  0  0  3  0  0  0  0  0  0
  187.7580  177.8960  144.5920 C   0  0  0  0  0  2  0  0  0  0  0  0
  188.0020  176.5020  142.5920 C   0  0  0  0  0  2  0  0  0  0  0  0
  188.1040  177.4400  146.9220 C   0  0  0  0  0  2  0  0  0  0  0  0
  187.4230  178.1860  148.0560 C   0  0  0  0  0  2  0  0  0  0  0  0
  186.1900  178.8650  147.5580 C   0  0  0  0  0  0  0  0  0  0  0  0
  185.1230  178.0660  146.8930 C   0  0  0  0  0  1  0  0  0  0  0  0
  186.0610  180.0730  147.6750 O   0  0  0  0  0  0  0  0  0  0  0  0
  1  8  1  6  0  0  0
  1 23  1  0  0  0  0
  2  7  1  0  0  0  0
  3  2  2  0  0  0  0
  4 17  1  0  0  0  0
  4 15  1  0  0  0  0
  5  4  2  0  0  0  0
  6 10  1  0  0  0  0
  6 18  2  0  0  0  0
  8  7  2  0  0  0  0
  9 13  1  0  0  0  0
 10 11  2  0  0  0  0
 11  5  1  0  0  0  0
 12 13  2  0  0  0  0
 12  3  1  0  0  0  0
 13  8  1  0  0  0  0
 14  9  2  0  0  0  0
 16  6  1  0  0  0  0
 17  9  1  6  0  0  0
 17  1  1  0  0  0  0
 18 14  1  0  0  0  0
 18  5  1  0  0  0  0
 19 24  1  0  0  0  0
 20 27  1  6  0  0  0
 20 26  1  0  0  0  0
 21 25  1  0  0  0  0
 22 19  1  0  0  0  0
 23 27  1  1  0  0  0
 23 21  1  0  0  0  0
 24 28  1  0  0  0  0
 25 20  1  0  0  0  0
 25 22  1  1  0  0  0
 26 24  1  0  0  0  0
 28 29  1  0  0  0  0
 30 32  2  0  0  0  0
 30 29  1  0  0  0  0
 31 30  1  0  0  0  0
M  END
>  <MODEL>
7

>  <REMARK>
 VINA RESULT:      -7.7      3.805      5.987
  Name = 
  4 active torsions:
  status: ('A' for Active; 'I' for Inactive)
    1  A    between atoms: C_1  and  C_10
    2  A    between atoms: C_3  and  N_14
    3  A    between atoms: C_10  and  C_24
    4  A    between atoms: N_19  and  C_24
                            x       y       z     vdW  Elec       q    Type
                         _______ _______ _______ _____ _____    ______ ____

>  <TORSDO>
F 4

$$$$
=
 OpenBabel10272413363D

 32 37  0  0  1  0  0  0  0  0999 V2000
  188.3550  177.9920  144.0170 C   0  0  2  0  0  3  0  0  0  0  0  0
  188.9760  177.7910  147.8210 C   0  0  0  0  0  3  0  0  0  0  0  0
  187.6360  177.8850  148.2440 C   0  0  0  0  0  3  0  0  0  0  0  0
  186.3280  178.3850  142.3850 C   0  0  0  0  0  0  0  0  0  0  0  0
  184.9380  178.5560  142.3570 C   0  0  0  0  0  0  0  0  0  0  0  0
  182.8230  178.7540  143.1550 C   0  0  0  0  0  0  0  0  0  0  0  0
  189.2950  177.8150  146.4530 C   0  0  0  0  0  3  0  0  0  0  0  0
  188.2540  177.9160  145.5290 C   0  0  0  0  0  0  0  0  0  0  0  0
  186.1060  178.1960  144.7940 C   0  0  0  0  0  0  0  0  0  0  0  0
  182.6960  178.8880  141.8730 N   0  0  0  0  0  0  0  0  0  0  0  0
  184.0060  178.7810  141.2130 C   0  0  0  0  0  3  0  0  0  0  0  0
  186.6000  178.0100  147.3060 C   0  0  0  0  0  3  0  0  0  0  0  0
  186.9420  178.0240  145.9550 C   0  0  0  0  0  0  0  0  0  0  0  0
  184.7550  178.3720  144.7480 N   0  0  0  0  0  0  0  0  0  0  0  0
  187.2900  178.4130  140.9170 Cl  0  0  0  0  0  0  0  0  0  0  0  0
  181.6760  178.8160  144.1010 C   0  0  0  0  0  1  0  0  0  0  0  0
  186.9050  178.1960  143.6520 C   0  0  2  0  0  3  0  0  0  0  0  0
  184.2000  178.5430  143.5170 C   0  0  0  0  0  0  0  0  0  0  0  0
  190.8310  177.8740  139.8390 C   0  0  0  0  0  2  0  0  0  0  0  0
  191.0280  176.3900  142.3410 C   0  0  1  0  0  3  0  0  0  0  0  0
  188.7310  176.8750  141.9950 N   0  0  0  0  0  2  0  0  0  0  0  0
  190.0990  176.5380  139.9630 C   0  0  0  0  0  2  0  0  0  0  0  0
  188.8960  176.7710  143.3900 N   0  0  1  0  0  0  0  0  0  0  0  0
  192.0740  177.8970  140.6180 N   0  0  0  0  0  0  0  0  0  0  0  0
  189.8520  176.1580  141.4190 C   0  0  1  0  0  3  0  0  0  0  0  0
  191.7810  177.6960  142.0390 C   0  0  0  0  0  2  0  0  0  0  0  0
  190.3300  176.5750  143.6630 C   0  0  0  0  0  2  0  0  0  0  0  0
  193.0100  176.8780  140.1460 C   0  0  0  0  0  2  0  0  0  0  0  0
  193.1100  176.9300  138.6310 C   0  0  0  0  0  2  0  0  0  0  0  0
  193.5070  175.5950  138.0950 C   0  0  0  0  0  0  0  0  0  0  0  0
  192.4630  174.6600  137.5910 C   0  0  0  0  0  1  0  0  0  0  0  0
  194.6800  175.2580  138.0880 O   0  0  0  0  0  0  0  0  0  0  0  0
  1  8  1  1  0  0  0
  2  3  1  0  0  0  0
  5  4  2  0  0  0  0
  5 18  1  0  0  0  0
  6 18  2  0  0  0  0
  6 16  1  0  0  0  0
  7  2  2  0  0  0  0
  8 13  2  0  0  0  0
  8  7  1  0  0  0  0
  9 13  1  0  0  0  0
 10  6  1  0  0  0  0
 11 10  2  0  0  0  0
 11  5  1  0  0  0  0
 12  3  2  0  0  0  0
 13 12  1  0  0  0  0
 14  9  2  0  0  0  0
 15  4  1  0  0  0  0
 17  4  1  1  0  0  0
 17  1  1  0  0  0  0
 17  9  1  0  0  0  0
 18 14  1  0  0  0  0
 19 22  1  0  0  0  0
 19 24  1  0  0  0  0
 20 26  1  6  0  0  0
 20 27  1  0  0  0  0
 21 23  1  0  0  0  0
 23 27  1  6  0  0  0
 23  1  1  0  0  0  0
 24 26  1  0  0  0  0
 25 22  1  6  0  0  0
 25 21  1  0  0  0  0
 25 20  1  0  0  0  0
 28 24  1  0  0  0  0
 29 28  1  0  0  0  0
 30 29  1  0  0  0  0
 31 30  1  0  0  0  0
 32 30  2  0  0  0  0
M  END
>  <MODEL>
8

>  <REMARK>
 VINA RESULT:      -7.6      2.894      4.696
  Name = 
  4 active torsions:
  status: ('A' for Active; 'I' for Inactive)
    1  A    between atoms: C_1  and  C_10
    2  A    between atoms: C_3  and  N_14
    3  A    between atoms: C_10  and  C_24
    4  A    between atoms: N_19  and  C_24
                            x       y       z     vdW  Elec       q    Type
                         _______ _______ _______ _____ _____    ______ ____

>  <TORSDO>
F 4

$$$$
=
 OpenBabel10272413363D

 32 37  0  0  1  0  0  0  0  0999 V2000
  184.9250  178.8600  141.9140 C   0  0  2  0  0  3  0  0  0  0  0  0
  187.2240  178.3800  138.8510 C   0  0  0  0  0  3  0  0  0  0  0  0
  188.3680  177.9230  139.5340 C   0  0  0  0  0  3  0  0  0  0  0  0
  185.1040  178.7110  144.5360 C   0  0  0  0  0  0  0  0  0  0  0  0
  185.9790  178.3680  145.5750 C   0  0  0  0  0  0  0  0  0  0  0  0
  187.8960  177.6760  146.5720 C   0  0  0  0  0  0  0  0  0  0  0  0
  186.0540  178.7050  139.5580 C   0  0  0  0  0  3  0  0  0  0  0  0
  186.0490  178.5460  140.9450 C   0  0  0  0  0  0  0  0  0  0  0  0
  186.9090  178.1260  143.0230 C   0  0  0  0  0  0  0  0  0  0  0  0
  187.0940  177.9280  147.5570 N   0  0  0  0  0  0  0  0  0  0  0  0
  185.7930  178.3940  147.0550 C   0  0  0  0  0  2  0  0  0  0  0  0
  188.3590  177.7910  140.9310 C   0  0  0  0  0  3  0  0  0  0  0  0
  187.1830  178.1120  141.6080 C   0  0  0  0  0  0  0  0  0  0  0  0
  187.7490  177.8060  144.0460 N   0  0  0  0  0  0  0  0  0  0  0  0
  183.4760  179.2860  144.8530 Cl  0  0  0  0  0  0  0  0  0  0  0  0
  189.2900  177.1880  146.7570 C   0  0  0  0  0  1  0  0  0  0  0  0
  185.6050  178.5720  143.2300 C   0  0  0  0  0  0  0  0  0  0  0  0
  187.2550  177.9300  145.3090 C   0  0  0  0  0  0  0  0  0  0  0  0
  180.8090  180.2900  139.7670 C   0  0  0  0  0  2  0  0  0  0  0  0
  182.2800  177.7730  139.8300 C   0  0  1  0  0  3  0  0  0  0  0  0
  182.5850  178.8140  141.9400 N   0  0  0  0  0  2  0  0  0  0  0  0
  180.4270  179.2390  140.8090 C   0  0  0  0  0  2  0  0  0  0  0  0
  183.7280  178.0160  141.7360 N   0  0  1  0  0  0  0  0  0  0  0  0
  181.2910  179.6830  138.5210 N   0  0  0  0  0  0  0  0  0  0  0  0
  181.5660  178.2580  141.0710 C   0  0  1  0  0  3  0  0  0  0  0  0
  182.4890  178.8810  138.7830 C   0  0  0  0  0  2  0  0  0  0  0  0
  183.6360  177.4290  140.3890 C   0  0  0  0  0  2  0  0  0  0  0  0
  180.2560  178.8570  137.9030 C   0  0  0  0  0  2  0  0  0  0  0  0
  180.6850  178.4530  136.5030 C   0  0  0  0  0  2  0  0  0  0  0  0
  180.4490  176.9940  136.2930 C   0  0  0  0  0  0  0  0  0  0  0  0
  179.9820  176.1480  137.4270 C   0  0  0  0  0  1  0  0  0  0  0  0
  180.6570  176.4870  135.2020 O   0  0  0  0  0  0  0  0  0  0  0  0
  1  8  1  6  0  0  0
  1 17  1  0  0  0  0
  2  3  2  0  0  0  0
  2  7  1  0  0  0  0
  3 12  1  0  0  0  0
  4 15  1  0  0  0  0
  4  5  1  0  0  0  0
  5 11  1  0  0  0  0
  6 16  1  0  0  0  0
  6 10  2  0  0  0  0
  7  8  2  0  0  0  0
  8 13  1  0  0  0  0
  9 17  1  0  0  0  0
  9 14  2  0  0  0  0
 11 10  1  0  0  0  0
 12 13  2  0  0  0  0
 13  9  1  0  0  0  0
 14 18  1  0  0  0  0
 17  4  2  0  0  0  0
 18  5  2  0  0  0  0
 18  6  1  0  0  0  0
 19 22  1  0  0  0  0
 20 26  1  6  0  0  0
 20 27  1  0  0  0  0
 20 25  1  0  0  0  0
 23 27  1  6  0  0  0
 23  1  1  0  0  0  0
 23 21  1  0  0  0  0
 24 26  1  0  0  0  0
 24 19  1  0  0  0  0
 25 22  1  6  0  0  0
 25 21  1  0  0  0  0
 28 24  1  0  0  0  0
 29 28  1  0  0  0  0
 30 29  1  0  0  0  0
 30 31  1  0  0  0  0
 32 30  2  0  0  0  0
M  END
>  <MODEL>
9

>  <REMARK>
 VINA RESULT:      -7.6      3.700      9.199
  Name = 
  4 active torsions:
  status: ('A' for Active; 'I' for Inactive)
    1  A    between atoms: C_1  and  C_10
    2  A    between atoms: C_3  and  N_14
    3  A    between atoms: C_10  and  C_24
    4  A    between atoms: N_19  and  C_24
                            x       y       z     vdW  Elec       q    Type
                         _______ _______ _______ _____ _____    ______ ____

>  <TORSDO>
F 4

$$$$
