=
 OpenBabel10262423403D

 34 40  0  0  1  0  0  0  0  0999 V2000
  184.8010  178.4070  143.3420 C   0  0  0  0  0  0  0  0  0  0  0  0
  185.1770  178.6260  140.9390 C   0  0  0  0  0  0  0  0  0  0  0  0
  187.0250  178.1050  142.4270 C   0  0  0  0  0  0  0  0  0  0  0  0
  189.1720  177.8030  141.3960 C   0  0  0  0  0  0  0  0  0  0  0  0
  182.9820  178.9240  141.9000 C   0  0  0  0  0  3  0  0  0  0  0  0
  183.8180  178.9010  140.7740 C   0  0  0  0  0  3  0  0  0  0  0  0
  187.3540  178.3040  140.0530 C   0  0  0  0  0  0  0  0  0  0  0  0
  185.6680  178.3800  142.2410 C   0  0  0  0  0  0  0  0  0  0  0  0
  189.9950  177.8290  139.8090 S   0  0  0  0  0  0  0  0  0  0  0  0
  183.4830  178.6780  143.1470 N   0  0  0  0  0  0  0  0  0  0  0  0
  187.5640  177.8560  143.7060 C   0  0  0  0  0  0  0  0  0  0  0  0
  185.3090  178.1500  144.6220 C   0  0  0  0  0  3  0  0  0  0  0  0
  186.0300  178.5860  139.8670 N   0  0  0  0  0  0  0  0  0  0  0  0
  189.7560  177.5490  142.6420 C   0  0  0  0  0  3  0  0  0  0  0  0
  188.9640  177.5750  143.8210 C   0  0  0  0  0  0  0  0  0  0  0  0
  188.3850  178.2230  138.9730 C   0  0  1  0  0  3  0  0  0  0  0  0
  187.8430  178.0720  141.3120 C   0  0  0  0  0  0  0  0  0  0  0  0
  186.6770  177.8740  144.8020 C   0  0  0  0  0  3  0  0  0  0  0  0
  189.6940  177.4150  147.5550 C   0  0  0  0  0  0  0  0  0  0  0  0
  190.9700  176.8500  147.5580 C   0  0  0  0  0  3  0  0  0  0  0  0
  189.6400  177.3110  145.1210 C   0  0  0  0  0  0  0  0  0  0  0  0
  191.5890  176.5200  146.3510 C   0  0  0  0  0  3  0  0  0  0  0  0
  189.0350  177.6480  146.3440 C   0  0  0  0  0  3  0  0  0  0  0  0
  190.9300  176.7520  145.1410 C   0  0  0  0  0  3  0  0  0  0  0  0
  189.0930  177.7410  148.7250 F   0  0  0  0  0  0  0  0  0  0  0  0
  188.0240  177.1150  137.9990 C   0  0  0  0  0  2  0  0  0  0  0  0
  189.0150  177.0500  136.9360 N   0  0  0  0  0  2  0  0  0  0  0  0
  190.3740  176.6250  134.5260 F   0  0  0  0  0  0  0  0  0  0  0  0
  189.8320  175.8980  136.7190 C   0  0  0  0  0  0  0  0  0  0  0  0
  190.8600  175.9270  135.6170 C   0  0  1  0  0  3  0  0  0  0  0  0
  191.6430  173.7030  136.3990 C   0  0  0  0  0  2  0  0  0  0  0  0
  190.5510  173.7320  137.3640 N   0  0  0  0  0  2  0  0  0  0  0  0
  189.7390  174.8710  137.5140 N   0  0  0  0  0  0  0  0  0  0  0  0
  191.2480  174.5180  135.1790 C   0  0  0  0  0  2  0  0  0  0  0  0
  1 12  1  0  0  0  0
  2  8  1  0  0  0  0
  3 11  2  0  0  0  0
  4 14  1  0  0  0  0
  5 10  2  0  0  0  0
  6  2  2  0  0  0  0
  6  5  1  0  0  0  0
  7 17  1  0  0  0  0
  8  3  1  0  0  0  0
  8  1  2  0  0  0  0
  9  4  1  0  0  0  0
 10  1  1  0  0  0  0
 11 15  1  0  0  0  0
 11 18  1  0  0  0  0
 12 18  2  0  0  0  0
 13  7  2  0  0  0  0
 13  2  1  0  0  0  0
 14 15  2  0  0  0  0
 15 21  1  0  0  0  0
 16 26  1  6  0  0  0
 16  9  1  0  0  0  0
 16  7  1  0  0  0  0
 17  4  2  0  0  0  0
 17  3  1  0  0  0  0
 19 20  1  0  0  0  0
 19 25  1  0  0  0  0
 21 24  2  0  0  0  0
 21 23  1  0  0  0  0
 22 20  2  0  0  0  0
 23 19  2  0  0  0  0
 24 22  1  0  0  0  0
 27 26  1  0  0  0  0
 29 27  1  0  0  0  0
 29 33  2  0  0  0  0
 30 28  1  6  0  0  0
 30 29  1  0  0  0  0
 31 32  1  0  0  0  0
 32 33  1  0  0  0  0
 34 30  1  0  0  0  0
 34 31  1  0  0  0  0
M  END
>  <MODEL>
1

>  <REMARK>
 VINA RESULT:     -11.1      0.000      0.000
  Name = 
  3 active torsions:
  status: ('A' for Active; 'I' for Inactive)
    1  A    between atoms: N_3  and  C_17
    2  A    between atoms: C_12  and  C_28
    3  A    between atoms: C_17  and  C_29
                            x       y       z     vdW  Elec       q    Type
                         _______ _______ _______ _____ _____    ______ ____

>  <TORSDO>
F 3

$$$$
=
 OpenBabel10262423403D

 34 40  0  0  1  0  0  0  0  0999 V2000
  189.3940  177.1810  146.4880 C   0  0  0  0  0  0  0  0  0  0  0  0
  191.0700  176.5640  144.8230 C   0  0  0  0  0  0  0  0  0  0  0  0
  188.8370  177.2250  144.1290 C   0  0  0  0  0  0  0  0  0  0  0  0
  188.4190  177.2540  141.7660 C   0  0  0  0  0  0  0  0  0  0  0  0
  191.5730  176.5310  147.1840 C   0  0  0  0  0  3  0  0  0  0  0  0
  191.9800  176.3330  145.8560 C   0  0  0  0  0  3  0  0  0  0  0  0
  190.5190  176.6340  142.5160 C   0  0  0  0  0  0  0  0  0  0  0  0
  189.7620  176.9910  145.1500 C   0  0  0  0  0  0  0  0  0  0  0  0
  189.1970  176.9350  140.1870 S   0  0  0  0  0  0  0  0  0  0  0  0
  190.3040  176.9470  147.4710 N   0  0  0  0  0  0  0  0  0  0  0  0
  187.5200  177.6480  144.4040 C   0  0  0  0  0  0  0  0  0  0  0  0
  188.0950  177.6140  146.7870 C   0  0  0  0  0  3  0  0  0  0  0  0
  191.4250  176.3920  143.5100 N   0  0  0  0  0  0  0  0  0  0  0  0
  187.1020  177.6740  141.9840 C   0  0  0  0  0  3  0  0  0  0  0  0
  186.6270  177.8740  143.3080 C   0  0  0  0  0  0  0  0  0  0  0  0
  190.7800  176.4920  141.0510 C   0  0  1  0  0  3  0  0  0  0  0  0
  189.2470  177.0400  142.8210 C   0  0  0  0  0  0  0  0  0  0  0  0
  187.1680  177.8480  145.7540 C   0  0  0  0  0  3  0  0  0  0  0  0
  183.0070  178.7980  142.5740 C   0  0  0  0  0  0  0  0  0  0  0  0
  182.5640  179.1890  143.8390 C   0  0  0  0  0  3  0  0  0  0  0  0
  185.2130  178.3090  143.4820 C   0  0  0  0  0  0  0  0  0  0  0  0
  183.4390  179.1500  144.9260 C   0  0  0  0  0  3  0  0  0  0  0  0
  184.3230  178.3650  142.3960 C   0  0  0  0  0  3  0  0  0  0  0  0
  184.7560  178.7160  144.7480 C   0  0  0  0  0  3  0  0  0  0  0  0
  182.1600  178.8400  141.5160 F   0  0  0  0  0  0  0  0  0  0  0  0
  191.8830  177.4470  140.6280 C   0  0  0  0  0  2  0  0  0  0  0  0
  192.0800  177.3670  139.1890 N   0  0  0  0  0  2  0  0  0  0  0  0
  192.0340  176.6340  136.4880 F   0  0  0  0  0  0  0  0  0  0  0  0
  193.1130  176.5740  138.6010 C   0  0  0  0  0  0  0  0  0  0  0  0
  193.2730  176.5740  137.1020 C   0  0  1  0  0  3  0  0  0  0  0  0
  195.3090  175.1840  137.3980 C   0  0  0  0  0  2  0  0  0  0  0  0
  195.0070  175.1630  138.8240 N   0  0  0  0  0  2  0  0  0  0  0  0
  193.9500  175.9230  139.3580 N   0  0  0  0  0  0  0  0  0  0  0  0
  194.0130  175.3310  136.6190 C   0  0  0  0  0  2  0  0  0  0  0  0
  1 12  1  0  0  0  0
  1 10  1  0  0  0  0
  2  8  1  0  0  0  0
  2  6  2  0  0  0  0
  3 11  1  0  0  0  0
  3  8  1  0  0  0  0
  4 14  2  0  0  0  0
  4 17  1  0  0  0  0
  5 10  2  0  0  0  0
  6  5  1  0  0  0  0
  7 17  1  0  0  0  0
  7 13  2  0  0  0  0
  8  1  2  0  0  0  0
  9 16  1  0  0  0  0
  9  4  1  0  0  0  0
 11 18  1  0  0  0  0
 13  2  1  0  0  0  0
 14 15  1  0  0  0  0
 15 21  1  0  0  0  0
 15 11  2  0  0  0  0
 16 26  1  6  0  0  0
 16  7  1  0  0  0  0
 17  3  2  0  0  0  0
 18 12  2  0  0  0  0
 19 20  1  0  0  0  0
 20 22  2  0  0  0  0
 21 24  2  0  0  0  0
 23 19  2  0  0  0  0
 23 21  1  0  0  0  0
 24 22  1  0  0  0  0
 25 19  1  0  0  0  0
 27 26  1  0  0  0  0
 29 27  1  0  0  0  0
 29 33  2  0  0  0  0
 30 28  1  6  0  0  0
 30 29  1  0  0  0  0
 31 32  1  0  0  0  0
 32 33  1  0  0  0  0
 34 30  1  0  0  0  0
 34 31  1  0  0  0  0
M  END
>  <MODEL>
2

>  <REMARK>
 VINA RESULT:     -11.0      3.245      5.666
  Name = 
  3 active torsions:
  status: ('A' for Active; 'I' for Inactive)
    1  A    between atoms: N_3  and  C_17
    2  A    between atoms: C_12  and  C_28
    3  A    between atoms: C_17  and  C_29
                            x       y       z     vdW  Elec       q    Type
                         _______ _______ _______ _____ _____    ______ ____

>  <TORSDO>
F 3

$$$$
=
 OpenBabel10262423403D

 34 40  0  0  1  0  0  0  0  0999 V2000
  185.5530  178.4120  142.9440 C   0  0  0  0  0  0  0  0  0  0  0  0
  186.1070  178.5080  140.5680 C   0  0  0  0  0  0  0  0  0  0  0  0
  187.8090  177.9300  142.2020 C   0  0  0  0  0  0  0  0  0  0  0  0
  189.9970  177.4480  141.3390 C   0  0  0  0  0  0  0  0  0  0  0  0
  183.8760  178.9860  141.3580 C   0  0  0  0  0  3  0  0  0  0  0  0
  184.7850  178.8630  140.2960 C   0  0  0  0  0  3  0  0  0  0  0  0
  188.3140  178.0110  139.8530 C   0  0  0  0  0  0  0  0  0  0  0  0
  186.4900  178.2840  141.9100 C   0  0  0  0  0  0  0  0  0  0  0  0
  190.9280  177.3560  139.8150 S   0  0  0  0  0  0  0  0  0  0  0  0
  184.2720  178.7590  142.6450 N   0  0  0  0  0  0  0  0  0  0  0  0
  188.2400  177.6990  143.5240 C   0  0  0  0  0  0  0  0  0  0  0  0
  185.9520  178.1750  144.2660 C   0  0  0  0  0  3  0  0  0  0  0  0
  187.0280  178.3690  139.5620 N   0  0  0  0  0  0  0  0  0  0  0  0
  190.4750  177.2080  142.6320 C   0  0  0  0  0  3  0  0  0  0  0  0
  189.6070  177.3330  143.7490 C   0  0  0  0  0  0  0  0  0  0  0  0
  189.4090  177.8190  138.8530 C   0  0  1  0  0  3  0  0  0  0  0  0
  188.6980  177.7990  141.1500 C   0  0  0  0  0  0  0  0  0  0  0  0
  187.2830  177.8190  144.5530 C   0  0  0  0  0  3  0  0  0  0  0  0
  190.0870  177.3160  147.5270 C   0  0  0  0  0  0  0  0  0  0  0  0
  191.2980  176.6300  147.6430 C   0  0  0  0  0  3  0  0  0  0  0  0
  190.1720  177.0790  145.1040 C   0  0  0  0  0  0  0  0  0  0  0  0
  191.9540  176.1740  146.4990 C   0  0  0  0  0  3  0  0  0  0  0  0
  189.5300  177.5420  146.2650 C   0  0  0  0  0  3  0  0  0  0  0  0
  191.3960  176.4000  145.2370 C   0  0  0  0  0  3  0  0  0  0  0  0
  189.4520  177.7640  148.6360 F   0  0  0  0  0  0  0  0  0  0  0  0
  189.0430  176.6980  137.8960 C   0  0  0  0  0  2  0  0  0  0  0  0
  188.4080  177.2500  136.7090 N   0  0  0  0  0  2  0  0  0  0  0  0
  186.8660  178.7390  134.9090 F   0  0  0  0  0  0  0  0  0  0  0  0
  187.1420  176.7890  136.2320 C   0  0  0  0  0  0  0  0  0  0  0  0
  186.5710  177.3890  134.9730 C   0  0  1  0  0  3  0  0  0  0  0  0
  184.7240  175.7360  135.1180 C   0  0  0  0  0  2  0  0  0  0  0  0
  185.3050  175.2960  136.3810 N   0  0  0  0  0  2  0  0  0  0  0  0
  186.5330  175.8100  136.8380 N   0  0  0  0  0  0  0  0  0  0  0  0
  185.0590  177.2010  134.9010 C   0  0  0  0  0  2  0  0  0  0  0  0
  1 12  1  0  0  0  0
  2  8  1  0  0  0  0
  3 11  2  0  0  0  0
  4 14  1  0  0  0  0
  5 10  2  0  0  0  0
  6  2  2  0  0  0  0
  6  5  1  0  0  0  0
  7 17  1  0  0  0  0
  8  3  1  0  0  0  0
  8  1  2  0  0  0  0
  9  4  1  0  0  0  0
 10  1  1  0  0  0  0
 11 15  1  0  0  0  0
 11 18  1  0  0  0  0
 12 18  2  0  0  0  0
 13  7  2  0  0  0  0
 13  2  1  0  0  0  0
 14 15  2  0  0  0  0
 15 21  1  0  0  0  0
 16 26  1  6  0  0  0
 16  9  1  0  0  0  0
 16  7  1  0  0  0  0
 17  4  2  0  0  0  0
 17  3  1  0  0  0  0
 19 20  1  0  0  0  0
 19 25  1  0  0  0  0
 21 24  2  0  0  0  0
 21 23  1  0  0  0  0
 22 20  2  0  0  0  0
 23 19  2  0  0  0  0
 24 22  1  0  0  0  0
 27 26  1  0  0  0  0
 29 27  1  0  0  0  0
 29 33  2  0  0  0  0
 30 28  1  1  0  0  0
 30 29  1  0  0  0  0
 31 32  1  0  0  0  0
 32 33  1  0  0  0  0
 34 30  1  0  0  0  0
 34 31  1  0  0  0  0
M  END
>  <MODEL>
3

>  <REMARK>
 VINA RESULT:     -11.0      1.820      2.464
  Name = 
  3 active torsions:
  status: ('A' for Active; 'I' for Inactive)
    1  A    between atoms: N_3  and  C_17
    2  A    between atoms: C_12  and  C_28
    3  A    between atoms: C_17  and  C_29
                            x       y       z     vdW  Elec       q    Type
                         _______ _______ _______ _____ _____    ______ ____

>  <TORSDO>
F 3

$$$$
=
 OpenBabel10262423403D

 34 40  0  0  1  0  0  0  0  0999 V2000
  190.3910  177.4060  142.0070 C   0  0  0  0  0  0  0  0  0  0  0  0
  188.0010  177.8690  141.8220 C   0  0  0  0  0  0  0  0  0  0  0  0
  189.0080  177.4680  143.9960 C   0  0  0  0  0  0  0  0  0  0  0  0
  187.5370  177.5830  145.8900 C   0  0  0  0  0  0  0  0  0  0  0  0
  189.4210  177.7910  139.8700 C   0  0  0  0  0  3  0  0  0  0  0  0
  188.1510  177.9740  140.4380 C   0  0  0  0  0  3  0  0  0  0  0  0
  186.6620  177.9510  143.7790 C   0  0  0  0  0  0  0  0  0  0  0  0
  189.1380  177.5790  142.6100 C   0  0  0  0  0  0  0  0  0  0  0  0
  185.8300  177.8700  146.3400 S   0  0  0  0  0  0  0  0  0  0  0  0
  190.5030  177.5140  140.6560 N   0  0  0  0  0  0  0  0  0  0  0  0
  190.1100  177.1760  144.8250 C   0  0  0  0  0  0  0  0  0  0  0  0
  191.5060  177.1280  142.8090 C   0  0  0  0  0  3  0  0  0  0  0  0
  186.7820  178.0490  142.4210 N   0  0  0  0  0  0  0  0  0  0  0  0
  188.5980  177.2960  146.7560 C   0  0  0  0  0  3  0  0  0  0  0  0
  189.9040  177.0820  146.2390 C   0  0  0  0  0  0  0  0  0  0  0  0
  185.3960  178.1310  144.5540 C   0  0  1  0  0  3  0  0  0  0  0  0
  187.7550  177.6620  144.5510 C   0  0  0  0  0  0  0  0  0  0  0  0
  191.3670  177.0170  144.2060 C   0  0  0  0  0  3  0  0  0  0  0  0
  192.4020  177.3700  149.0980 C   0  0  0  0  0  0  0  0  0  0  0  0
  193.0930  176.1630  148.9770 C   0  0  0  0  0  3  0  0  0  0  0  0
  190.9930  176.7670  147.2050 C   0  0  0  0  0  0  0  0  0  0  0  0
  192.7460  175.2590  147.9720 C   0  0  0  0  0  3  0  0  0  0  0  0
  191.3620  177.6710  148.2150 C   0  0  0  0  0  3  0  0  0  0  0  0
  191.7050  175.5600  147.0890 C   0  0  0  0  0  3  0  0  0  0  0  0
  192.7410  178.2510  150.0700 F   0  0  0  0  0  0  0  0  0  0  0  0
  184.8640  179.5390  144.3530 C   0  0  0  0  0  2  0  0  0  0  0  0
  183.4100  179.5180  144.3290 N   0  0  0  0  0  2  0  0  0  0  0  0
  180.7110  178.7880  144.4710 F   0  0  0  0  0  0  0  0  0  0  0  0
  182.6680  179.1250  143.1720 C   0  0  0  0  0  0  0  0  0  0  0  0
  181.1620  179.1660  143.2190 C   0  0  1  0  0  3  0  0  0  0  0  0
  181.1510  178.5670  140.8080 C   0  0  0  0  0  2  0  0  0  0  0  0
  182.6020  178.4580  140.8970 N   0  0  0  0  0  2  0  0  0  0  0  0
  183.2910  178.8110  142.0720 N   0  0  0  0  0  0  0  0  0  0  0  0
  180.5460  178.2500  142.1650 C   0  0  0  0  0  2  0  0  0  0  0  0
  1  8  2  0  0  0  0
  1 12  1  0  0  0  0
  2 13  1  0  0  0  0
  2  8  1  0  0  0  0
  3 17  1  0  0  0  0
  3 11  2  0  0  0  0
  4  9  1  0  0  0  0
  4 14  1  0  0  0  0
  5  6  1  0  0  0  0
  5 10  2  0  0  0  0
  6  2  2  0  0  0  0
  7 17  1  0  0  0  0
  7 16  1  0  0  0  0
  8  3  1  0  0  0  0
 10  1  1  0  0  0  0
 11 15  1  0  0  0  0
 12 18  2  0  0  0  0
 13  7  2  0  0  0  0
 15 14  2  0  0  0  0
 15 21  1  0  0  0  0
 16 26  1  1  0  0  0
 16  9  1  0  0  0  0
 17  4  2  0  0  0  0
 18 11  1  0  0  0  0
 19 25  1  0  0  0  0
 20 19  1  0  0  0  0
 21 23  1  0  0  0  0
 22 20  2  0  0  0  0
 23 19  2  0  0  0  0
 24 21  2  0  0  0  0
 24 22  1  0  0  0  0
 27 26  1  0  0  0  0
 29 30  1  0  0  0  0
 29 27  1  0  0  0  0
 30 28  1  1  0  0  0
 31 32  1  0  0  0  0
 31 34  1  0  0  0  0
 32 33  1  0  0  0  0
 33 29  2  0  0  0  0
 34 30  1  0  0  0  0
M  END
>  <MODEL>
4

>  <REMARK>
 VINA RESULT:     -10.4      3.795      6.897
  Name = 
  3 active torsions:
  status: ('A' for Active; 'I' for Inactive)
    1  A    between atoms: N_3  and  C_17
    2  A    between atoms: C_12  and  C_28
    3  A    between atoms: C_17  and  C_29
                            x       y       z     vdW  Elec       q    Type
                         _______ _______ _______ _____ _____    ______ ____

>  <TORSDO>
F 3

$$$$
=
 OpenBabel10262423403D

 34 40  0  0  1  0  0  0  0  0999 V2000
  187.8720  178.2540  139.8170 C   0  0  0  0  0  0  0  0  0  0  0  0
  185.7890  178.4600  138.5590 C   0  0  0  0  0  0  0  0  0  0  0  0
  185.7560  178.4190  140.9880 C   0  0  0  0  0  0  0  0  0  0  0  0
  183.6020  178.6170  142.0290 C   0  0  0  0  0  0  0  0  0  0  0  0
  187.9220  178.2860  137.4400 C   0  0  0  0  0  3  0  0  0  0  0  0
  186.5260  178.4130  137.3740 C   0  0  0  0  0  3  0  0  0  0  0  0
  183.7270  178.6440  139.7170 C   0  0  0  0  0  0  0  0  0  0  0  0
  186.4760  178.3760  139.7920 C   0  0  0  0  0  0  0  0  0  0  0  0
  181.8610  178.7880  141.6560 S   0  0  0  0  0  0  0  0  0  0  0  0
  188.5600  178.2110  138.6450 N   0  0  0  0  0  0  0  0  0  0  0  0
  186.3940  178.3360  142.2420 C   0  0  0  0  0  0  0  0  0  0  0  0
  188.5320  178.1820  141.0510 C   0  0  0  0  0  3  0  0  0  0  0  0
  184.4250  178.5900  138.5440 N   0  0  0  0  0  0  0  0  0  0  0  0
  184.1860  178.5380  143.2980 C   0  0  0  0  0  3  0  0  0  0  0  0
  185.5930  178.3920  143.4280 C   0  0  0  0  0  0  0  0  0  0  0  0
  182.2440  178.7920  139.8400 C   0  0  1  0  0  3  0  0  0  0  0  0
  184.3810  178.5560  140.9180 C   0  0  0  0  0  0  0  0  0  0  0  0
  187.8000  178.2260  142.2520 C   0  0  0  0  0  3  0  0  0  0  0  0
  187.8570  177.5040  146.3580 C   0  0  0  0  0  0  0  0  0  0  0  0
  187.1730  178.0990  147.4200 C   0  0  0  0  0  3  0  0  0  0  0  0
  186.1600  178.3000  144.8020 C   0  0  0  0  0  0  0  0  0  0  0  0
  185.9830  178.7880  147.1830 C   0  0  0  0  0  3  0  0  0  0  0  0
  187.3510  177.6000  145.0590 C   0  0  0  0  0  3  0  0  0  0  0  0
  185.4780  178.8860  145.8830 C   0  0  0  0  0  3  0  0  0  0  0  0
  189.0100  176.8300  146.5870 F   0  0  0  0  0  0  0  0  0  0  0  0
  181.8050  180.1080  139.2220 C   0  0  0  0  0  2  0  0  0  0  0  0
  181.3490  179.8860  137.8590 N   0  0  0  0  0  2  0  0  0  0  0  0
  181.1750  179.5290  135.0880 F   0  0  0  0  0  0  0  0  0  0  0  0
  181.0270  180.9610  136.9740 C   0  0  0  0  0  0  0  0  0  0  0  0
  180.5270  180.6440  135.5880 C   0  0  1  0  0  3  0  0  0  0  0  0
  180.1550  183.0760  135.2520 C   0  0  0  0  0  2  0  0  0  0  0  0
  180.7470  183.2810  136.5680 N   0  0  0  0  0  2  0  0  0  0  0  0
  181.0930  182.1940  137.3910 N   0  0  0  0  0  0  0  0  0  0  0  0
  180.7390  181.8170  134.6360 C   0  0  0  0  0  2  0  0  0  0  0  0
  1 12  1  0  0  0  0
  2  8  1  0  0  0  0
  3 11  2  0  0  0  0
  4 14  1  0  0  0  0
  5 10  2  0  0  0  0
  6  5  1  0  0  0  0
  6  2  2  0  0  0  0
  7 16  1  0  0  0  0
  7 17  1  0  0  0  0
  8  1  2  0  0  0  0
  8  3  1  0  0  0  0
  9  4  1  0  0  0  0
 10  1  1  0  0  0  0
 11 18  1  0  0  0  0
 11 15  1  0  0  0  0
 12 18  2  0  0  0  0
 13  2  1  0  0  0  0
 13  7  2  0  0  0  0
 14 15  2  0  0  0  0
 15 21  1  0  0  0  0
 16 26  1  1  0  0  0
 16  9  1  0  0  0  0
 17  3  1  0  0  0  0
 17  4  2  0  0  0  0
 19 25  1  0  0  0  0
 19 20  1  0  0  0  0
 21 23  1  0  0  0  0
 21 24  2  0  0  0  0
 22 20  2  0  0  0  0
 23 19  2  0  0  0  0
 24 22  1  0  0  0  0
 27 26  1  0  0  0  0
 29 33  2  0  0  0  0
 29 27  1  0  0  0  0
 30 28  1  6  0  0  0
 30 29  1  0  0  0  0
 31 32  1  0  0  0  0
 32 33  1  0  0  0  0
 34 31  1  0  0  0  0
 34 30  1  0  0  0  0
M  END
>  <MODEL>
5

>  <REMARK>
 VINA RESULT:     -10.3      3.982      6.986
  Name = 
  3 active torsions:
  status: ('A' for Active; 'I' for Inactive)
    1  A    between atoms: N_3  and  C_17
    2  A    between atoms: C_12  and  C_28
    3  A    between atoms: C_17  and  C_29
                            x       y       z     vdW  Elec       q    Type
                         _______ _______ _______ _____ _____    ______ ____

>  <TORSDO>
F 3

$$$$
=
 OpenBabel10262423403D

 34 40  0  0  1  0  0  0  0  0999 V2000
  186.6860  178.3350  147.2340 C   0  0  0  0  0  0  0  0  0  0  0  0
  188.8080  177.6940  146.2090 C   0  0  0  0  0  0  0  0  0  0  0  0
  186.8340  178.0350  144.8340 C   0  0  0  0  0  0  0  0  0  0  0  0
  187.1170  177.7340  142.4690 C   0  0  0  0  0  0  0  0  0  0  0  0
  188.6070  178.0000  148.5960 C   0  0  0  0  0  3  0  0  0  0  0  0
  189.3920  177.6850  147.4770 C   0  0  0  0  0  3  0  0  0  0  0  0
  188.9450  177.4280  143.8560 C   0  0  0  0  0  0  0  0  0  0  0  0
  187.4370  178.0210  146.0940 C   0  0  0  0  0  0  0  0  0  0  0  0
  188.3380  177.3070  141.2330 S   0  0  0  0  0  0  0  0  0  0  0  0
  187.2850  178.3160  148.4550 N   0  0  0  0  0  0  0  0  0  0  0  0
  185.4700  178.3510  144.6670 C   0  0  0  0  0  0  0  0  0  0  0  0
  185.3310  178.6650  147.0950 C   0  0  0  0  0  3  0  0  0  0  0  0
  189.5370  177.4010  145.0870 N   0  0  0  0  0  0  0  0  0  0  0  0
  185.7700  178.0400  142.2490 C   0  0  0  0  0  3  0  0  0  0  0  0
  184.9200  178.3500  143.3440 C   0  0  0  0  0  0  0  0  0  0  0  0
  189.6270  177.1360  142.5580 C   0  0  1  0  0  3  0  0  0  0  0  0
  187.6160  177.7350  143.7330 C   0  0  0  0  0  0  0  0  0  0  0  0
  184.7300  178.6760  145.8220 C   0  0  0  0  0  3  0  0  0  0  0  0
  181.2030  179.0420  143.7920 C   0  0  0  0  0  0  0  0  0  0  0  0
  180.7900  179.1790  142.4660 C   0  0  0  0  0  3  0  0  0  0  0  0
  183.4920  178.6560  143.0540 C   0  0  0  0  0  0  0  0  0  0  0  0
  181.7180  179.0500  141.4300 C   0  0  0  0  0  3  0  0  0  0  0  0
  182.5440  178.7780  144.0840 C   0  0  0  0  0  3  0  0  0  0  0  0
  183.0590  178.7870  141.7220 C   0  0  0  0  0  3  0  0  0  0  0  0
  180.3030  179.1620  144.7980 F   0  0  0  0  0  0  0  0  0  0  0  0
  190.7430  178.1400  142.3250 C   0  0  0  0  0  2  0  0  0  0  0  0
  191.8530  177.4950  141.6400 N   0  0  0  0  0  2  0  0  0  0  0  0
  194.1970  176.9380  140.2150 F   0  0  0  0  0  0  0  0  0  0  0  0
  191.8440  177.2450  140.2330 C   0  0  0  0  0  0  0  0  0  0  0  0
  193.0200  176.5390  139.6080 C   0  0  1  0  0  3  0  0  0  0  0  0
  191.7660  176.5190  137.4650 C   0  0  0  0  0  2  0  0  0  0  0  0
  190.7290  177.2890  138.1410 N   0  0  0  0  0  2  0  0  0  0  0  0
  190.7990  177.5540  139.5200 N   0  0  0  0  0  0  0  0  0  0  0  0
  193.1070  176.8190  138.1110 C   0  0  0  0  0  2  0  0  0  0  0  0
  1 10  1  0  0  0  0
  2  6  2  0  0  0  0
  3  8  1  0  0  0  0
  4 17  1  0  0  0  0
  6  5  1  0  0  0  0
  7 13  2  0  0  0  0
  8  2  1  0  0  0  0
  8  1  2  0  0  0  0
  9  4  1  0  0  0  0
  9 16  1  0  0  0  0
 10  5  2  0  0  0  0
 11  3  1  0  0  0  0
 11 18  1  0  0  0  0
 12  1  1  0  0  0  0
 13  2  1  0  0  0  0
 14  4  2  0  0  0  0
 14 15  1  0  0  0  0
 15 11  2  0  0  0  0
 16 26  1  6  0  0  0
 16  7  1  0  0  0  0
 17  7  1  0  0  0  0
 17  3  2  0  0  0  0
 18 12  2  0  0  0  0
 19 23  1  0  0  0  0
 19 25  1  0  0  0  0
 20 19  2  0  0  0  0
 21 15  1  0  0  0  0
 21 23  2  0  0  0  0
 22 24  2  0  0  0  0
 22 20  1  0  0  0  0
 24 21  1  0  0  0  0
 27 26  1  0  0  0  0
 29 27  1  0  0  0  0
 30 28  1  1  0  0  0
 30 29  1  0  0  0  0
 31 34  1  0  0  0  0
 31 32  1  0  0  0  0
 32 33  1  0  0  0  0
 33 29  2  0  0  0  0
 34 30  1  0  0  0  0
M  END
>  <MODEL>
6

>  <REMARK>
 VINA RESULT:     -10.3      3.254      6.030
  Name = 
  3 active torsions:
  status: ('A' for Active; 'I' for Inactive)
    1  A    between atoms: N_3  and  C_17
    2  A    between atoms: C_12  and  C_28
    3  A    between atoms: C_17  and  C_29
                            x       y       z     vdW  Elec       q    Type
                         _______ _______ _______ _____ _____    ______ ____

>  <TORSDO>
F 3

$$$$
=
 OpenBabel10262423403D

 34 40  0  0  1  0  0  0  0  0999 V2000
  184.8640  178.5830  141.3450 C   0  0  0  0  0  0  0  0  0  0  0  0
  186.2810  178.3530  139.3690 C   0  0  0  0  0  0  0  0  0  0  0  0
  187.2250  178.0920  141.5930 C   0  0  0  0  0  0  0  0  0  0  0  0
  189.5680  177.5810  141.7040 C   0  0  0  0  0  0  0  0  0  0  0  0
  183.9250  178.8470  139.1750 C   0  0  0  0  0  3  0  0  0  0  0  0
  185.1670  178.6080  138.5680 C   0  0  0  0  0  3  0  0  0  0  0  0
  188.5850  177.8480  139.6250 C   0  0  0  0  0  0  0  0  0  0  0  0
  186.1210  178.3440  140.7740 C   0  0  0  0  0  0  0  0  0  0  0  0
  191.0060  177.3060  140.6770 S   0  0  0  0  0  0  0  0  0  0  0  0
  183.7990  178.8290  140.5350 N   0  0  0  0  0  0  0  0  0  0  0  0
  187.1180  178.0760  142.9980 C   0  0  0  0  0  0  0  0  0  0  0  0
  184.7280  178.5600  142.7390 C   0  0  0  0  0  3  0  0  0  0  0  0
  187.5120  178.1060  138.8190 N   0  0  0  0  0  0  0  0  0  0  0  0
  189.5150  177.5540  143.1010 C   0  0  0  0  0  3  0  0  0  0  0  0
  188.2900  177.8060  143.7750 C   0  0  0  0  0  0  0  0  0  0  0  0
  189.9740  177.5580  139.1540 C   0  0  1  0  0  3  0  0  0  0  0  0
  188.4440  177.8460  140.9870 C   0  0  0  0  0  0  0  0  0  0  0  0
  185.8440  178.3060  143.5580 C   0  0  0  0  0  3  0  0  0  0  0  0
  189.4470  177.4490  147.3860 C   0  0  0  0  0  0  0  0  0  0  0  0
  188.2550  177.6750  148.0760 C   0  0  0  0  0  3  0  0  0  0  0  0
  188.2950  177.7770  145.2640 C   0  0  0  0  0  0  0  0  0  0  0  0
  187.0810  177.9450  147.3710 C   0  0  0  0  0  3  0  0  0  0  0  0
  189.4650  177.4960  145.9890 C   0  0  0  0  0  3  0  0  0  0  0  0
  187.1000  177.9930  145.9740 C   0  0  0  0  0  3  0  0  0  0  0  0
  190.5860  177.1820  148.0690 F   0  0  0  0  0  0  0  0  0  0  0  0
  189.9790  176.2940  138.3120 C   0  0  0  0  0  2  0  0  0  0  0  0
  191.3360  175.7830  138.1980 N   0  0  0  0  0  2  0  0  0  0  0  0
  193.9760  175.2610  137.4250 F   0  0  0  0  0  0  0  0  0  0  0  0
  191.6740  174.6910  137.3400 C   0  0  0  0  0  0  0  0  0  0  0  0
  193.0980  174.1980  137.3070 C   0  0  1  0  0  3  0  0  0  0  0  0
  192.3460  172.3640  135.8120 C   0  0  0  0  0  2  0  0  0  0  0  0
  191.0250  172.9800  135.8310 N   0  0  0  0  0  2  0  0  0  0  0  0
  190.7460  174.0850  136.6570 N   0  0  0  0  0  0  0  0  0  0  0  0
  193.3980  173.4410  136.0180 C   0  0  0  0  0  2  0  0  0  0  0  0
  1 12  1  0  0  0  0
  2  8  1  0  0  0  0
  3 11  2  0  0  0  0
  4 14  1  0  0  0  0
  5 10  2  0  0  0  0
  6  5  1  0  0  0  0
  6  2  2  0  0  0  0
  7 17  1  0  0  0  0
  8  1  2  0  0  0  0
  8  3  1  0  0  0  0
  9  4  1  0  0  0  0
 10  1  1  0  0  0  0
 11 18  1  0  0  0  0
 11 15  1  0  0  0  0
 12 18  2  0  0  0  0
 13  2  1  0  0  0  0
 13  7  2  0  0  0  0
 14 15  2  0  0  0  0
 15 21  1  0  0  0  0
 16 26  1  6  0  0  0
 16  7  1  0  0  0  0
 16  9  1  0  0  0  0
 17  3  1  0  0  0  0
 17  4  2  0  0  0  0
 19 25  1  0  0  0  0
 19 20  1  0  0  0  0
 21 24  2  0  0  0  0
 21 23  1  0  0  0  0
 22 20  2  0  0  0  0
 23 19  2  0  0  0  0
 24 22  1  0  0  0  0
 27 26  1  0  0  0  0
 29 27  1  0  0  0  0
 30 29  1  0  0  0  0
 30 28  1  6  0  0  0
 31 32  1  0  0  0  0
 31 34  1  0  0  0  0
 32 33  1  0  0  0  0
 33 29  2  0  0  0  0
 34 30  1  0  0  0  0
M  END
>  <MODEL>
7

>  <REMARK>
 VINA RESULT:     -10.3      1.668      2.258
  Name = 
  3 active torsions:
  status: ('A' for Active; 'I' for Inactive)
    1  A    between atoms: N_3  and  C_17
    2  A    between atoms: C_12  and  C_28
    3  A    between atoms: C_17  and  C_29
                            x       y       z     vdW  Elec       q    Type
                         _______ _______ _______ _____ _____    ______ ____

>  <TORSDO>
F 3

$$$$
=
 OpenBabel10262423403D

 34 40  0  0  1  0  0  0  0  0999 V2000
  184.0080  178.5380  144.0900 C   0  0  0  0  0  0  0  0  0  0  0  0
  184.0560  178.7870  141.6610 C   0  0  0  0  0  0  0  0  0  0  0  0
  186.0910  178.2630  142.8810 C   0  0  0  0  0  0  0  0  0  0  0  0
  188.0810  177.9880  141.5670 C   0  0  0  0  0  0  0  0  0  0  0  0
  182.0080  179.0580  142.9120 C   0  0  0  0  0  3  0  0  0  0  0  0
  182.6860  179.0540  141.6840 C   0  0  0  0  0  3  0  0  0  0  0  0
  186.0960  178.4910  140.4870 C   0  0  0  0  0  0  0  0  0  0  0  0
  184.7190  178.5300  142.8830 C   0  0  0  0  0  0  0  0  0  0  0  0
  188.6830  178.0380  139.8840 S   0  0  0  0  0  0  0  0  0  0  0  0
  182.6740  178.8020  144.0770 N   0  0  0  0  0  0  0  0  0  0  0  0
  186.7980  178.0040  144.0730 C   0  0  0  0  0  0  0  0  0  0  0  0
  184.6850  178.2710  145.2870 C   0  0  0  0  0  3  0  0  0  0  0  0
  184.7570  178.7650  140.4840 N   0  0  0  0  0  0  0  0  0  0  0  0
  188.8290  177.7250  142.7200 C   0  0  0  0  0  3  0  0  0  0  0  0
  188.2030  177.7320  143.9950 C   0  0  0  0  0  0  0  0  0  0  0  0
  186.9730  178.4300  139.2780 C   0  0  1  0  0  3  0  0  0  0  0  0
  186.7510  178.2490  141.6660 C   0  0  0  0  0  0  0  0  0  0  0  0
  186.0670  178.0030  145.2780 C   0  0  0  0  0  3  0  0  0  0  0  0
  191.1110  176.6440  146.1980 C   0  0  0  0  0  0  0  0  0  0  0  0
  190.5990  176.9010  147.4710 C   0  0  0  0  0  3  0  0  0  0  0  0
  189.0490  177.4590  145.1890 C   0  0  0  0  0  0  0  0  0  0  0  0
  189.3140  177.4280  147.6120 C   0  0  0  0  0  3  0  0  0  0  0  0
  190.3400  176.9180  145.0650 C   0  0  0  0  0  3  0  0  0  0  0  0
  188.5430  177.7020  146.4790 C   0  0  0  0  0  3  0  0  0  0  0  0
  192.3570  176.1280  146.0590 F   0  0  0  0  0  0  0  0  0  0  0  0
  186.4910  177.3300  138.3480 C   0  0  0  0  0  2  0  0  0  0  0  0
  185.2480  177.7340  137.7090 N   0  0  0  0  0  2  0  0  0  0  0  0
  182.6030  178.4670  137.1560 F   0  0  0  0  0  0  0  0  0  0  0  0
  184.2760  176.7870  137.2570 C   0  0  0  0  0  0  0  0  0  0  0  0
  183.0300  177.2880  136.5730 C   0  0  1  0  0  3  0  0  0  0  0  0
  182.4180  174.9210  136.1330 C   0  0  0  0  0  2  0  0  0  0  0  0
  183.5980  174.5430  136.9010 N   0  0  0  0  0  2  0  0  0  0  0  0
  184.5060  175.5100  137.3680 N   0  0  0  0  0  0  0  0  0  0  0  0
  181.9050  176.2590  136.6390 C   0  0  0  0  0  2  0  0  0  0  0  0
  1 12  1  0  0  0  0
  2  6  2  0  0  0  0
  2  8  1  0  0  0  0
  3  8  1  0  0  0  0
  3 11  2  0  0  0  0
  4 17  2  0  0  0  0
  4 14  1  0  0  0  0
  5 10  2  0  0  0  0
  6  5  1  0  0  0  0
  7 17  1  0  0  0  0
  8  1  2  0  0  0  0
  9  4  1  0  0  0  0
 10  1  1  0  0  0  0
 11 18  1  0  0  0  0
 13  7  2  0  0  0  0
 13  2  1  0  0  0  0
 14 15  2  0  0  0  0
 15 11  1  0  0  0  0
 15 21  1  0  0  0  0
 16 26  1  6  0  0  0
 16  9  1  0  0  0  0
 16  7  1  0  0  0  0
 17  3  1  0  0  0  0
 18 12  2  0  0  0  0
 19 20  1  0  0  0  0
 20 22  2  0  0  0  0
 21 24  2  0  0  0  0
 23 21  1  0  0  0  0
 23 19  2  0  0  0  0
 24 22  1  0  0  0  0
 25 19  1  0  0  0  0
 27 26  1  0  0  0  0
 29 33  2  0  0  0  0
 29 27  1  0  0  0  0
 30 34  1  0  0  0  0
 30 28  1  1  0  0  0
 30 29  1  0  0  0  0
 31 34  1  0  0  0  0
 31 32  1  0  0  0  0
 32 33  1  0  0  0  0
M  END
>  <MODEL>
8

>  <REMARK>
 VINA RESULT:     -10.0      3.082      3.877
  Name = 
  3 active torsions:
  status: ('A' for Active; 'I' for Inactive)
    1  A    between atoms: N_3  and  C_17
    2  A    between atoms: C_12  and  C_28
    3  A    between atoms: C_17  and  C_29
                            x       y       z     vdW  Elec       q    Type
                         _______ _______ _______ _____ _____    ______ ____

>  <TORSDO>
F 3

$$$$
=
 OpenBabel10262423403D

 34 40  0  0  1  0  0  0  0  0999 V2000
  189.5120  177.0510  145.5430 C   0  0  0  0  0  0  0  0  0  0  0  0
  187.2290  177.9150  145.5740 C   0  0  0  0  0  0  0  0  0  0  0  0
  188.4330  177.7050  143.4740 C   0  0  0  0  0  0  0  0  0  0  0  0
  187.2460  178.3610  141.4930 C   0  0  0  0  0  0  0  0  0  0  0  0
  188.3500  177.2560  147.6080 C   0  0  0  0  0  3  0  0  0  0  0  0
  187.2130  177.7610  146.9610 C   0  0  0  0  0  3  0  0  0  0  0  0
  186.1750  178.5300  143.5390 C   0  0  0  0  0  0  0  0  0  0  0  0
  188.3970  177.5560  144.8630 C   0  0  0  0  0  0  0  0  0  0  0  0
  185.6760  179.0100  140.9350 S   0  0  0  0  0  0  0  0  0  0  0  0
  189.4640  176.9130  146.8960 N   0  0  0  0  0  0  0  0  0  0  0  0
  189.5750  177.3650  142.7200 C   0  0  0  0  0  0  0  0  0  0  0  0
  190.6550  176.6920  144.8160 C   0  0  0  0  0  3  0  0  0  0  0  0
  186.1390  178.3980  144.8990 N   0  0  0  0  0  0  0  0  0  0  0  0
  188.3520  178.0380  140.7000 C   0  0  0  0  0  3  0  0  0  0  0  0
  189.5390  177.5380  141.2990 C   0  0  0  0  0  0  0  0  0  0  0  0
  185.0570  179.0350  142.6850 C   0  0  1  0  0  3  0  0  0  0  0  0
  187.3040  178.1930  142.8400 C   0  0  0  0  0  0  0  0  0  0  0  0
  190.6850  176.8450  143.4170 C   0  0  0  0  0  3  0  0  0  0  0  0
  191.6120  176.2030  138.3980 C   0  0  0  0  0  0  0  0  0  0  0  0
  192.8970  176.5970  138.7780 C   0  0  0  0  0  3  0  0  0  0  0  0
  190.6910  177.2230  140.4090 C   0  0  0  0  0  0  0  0  0  0  0  0
  193.0870  177.2960  139.9710 C   0  0  0  0  0  3  0  0  0  0  0  0
  190.5180  176.5110  139.2100 C   0  0  0  0  0  3  0  0  0  0  0  0
  191.9910  177.6040  140.7820 C   0  0  0  0  0  3  0  0  0  0  0  0
  191.4260  175.5200  137.2420 F   0  0  0  0  0  0  0  0  0  0  0  0
  183.8520  178.1190  142.8190 C   0  0  0  0  0  2  0  0  0  0  0  0
  182.6640  178.7900  142.3150 N   0  0  0  0  0  2  0  0  0  0  0  0
  180.0400  179.5490  141.7020 F   0  0  0  0  0  0  0  0  0  0  0  0
  182.0310  178.4110  141.0910 C   0  0  0  0  0  0  0  0  0  0  0  0
  180.8230  179.1820  140.6220 C   0  0  1  0  0  3  0  0  0  0  0  0
  180.8740  177.8350  138.5360 C   0  0  0  0  0  2  0  0  0  0  0  0
  181.9760  177.0850  139.1250 N   0  0  0  0  0  2  0  0  0  0  0  0
  182.5410  177.4640  140.3570 N   0  0  0  0  0  0  0  0  0  0  0  0
  179.9830  178.3630  139.6470 C   0  0  0  0  0  2  0  0  0  0  0  0
  1 10  1  0  0  0  0
  2  6  2  0  0  0  0
  3  8  1  0  0  0  0
  4 17  1  0  0  0  0
  6  5  1  0  0  0  0
  7 13  2  0  0  0  0
  8  1  2  0  0  0  0
  8  2  1  0  0  0  0
  9  4  1  0  0  0  0
  9 16  1  0  0  0  0
 10  5  2  0  0  0  0
 11 18  1  0  0  0  0
 11  3  1  0  0  0  0
 12  1  1  0  0  0  0
 13  2  1  0  0  0  0
 14 15  1  0  0  0  0
 14  4  2  0  0  0  0
 15 11  2  0  0  0  0
 16 26  1  6  0  0  0
 16  7  1  0  0  0  0
 17  3  2  0  0  0  0
 17  7  1  0  0  0  0
 18 12  2  0  0  0  0
 19 20  2  0  0  0  0
 19 23  1  0  0  0  0
 20 22  1  0  0  0  0
 21 24  1  0  0  0  0
 21 15  1  0  0  0  0
 22 24  2  0  0  0  0
 23 21  2  0  0  0  0
 25 19  1  0  0  0  0
 27 26  1  0  0  0  0
 29 27  1  0  0  0  0
 30 29  1  0  0  0  0
 30 28  1  1  0  0  0
 31 32  1  0  0  0  0
 31 34  1  0  0  0  0
 32 33  1  0  0  0  0
 33 29  2  0  0  0  0
 34 30  1  0  0  0  0
M  END
>  <MODEL>
9

>  <REMARK>
 VINA RESULT:     -10.0      3.708      7.303
  Name = 
  3 active torsions:
  status: ('A' for Active; 'I' for Inactive)
    1  A    between atoms: N_3  and  C_17
    2  A    between atoms: C_12  and  C_28
    3  A    between atoms: C_17  and  C_29
                            x       y       z     vdW  Elec       q    Type
                         _______ _______ _______ _____ _____    ______ ____

>  <TORSDO>
F 3

$$$$
