=
 OpenBabel10262423573D

 34 38  0  0  1  0  0  0  0  0999 V2000
  189.7790  177.0760  147.0660 C   0  0  0  0  0  0  0  0  0  0  0  0
  190.4040  176.7820  144.7190 C   0  0  0  0  0  0  0  0  0  0  0  0
  188.2120  177.6750  145.3120 C   0  0  0  0  0  0  0  0  0  0  0  0
  186.7620  178.1780  143.2040 N   0  0  0  0  0  0  0  0  0  0  0  0
  191.9580  176.1860  146.4800 C   0  0  0  0  0  3  0  0  0  0  0  0
  191.6480  176.2860  145.1170 C   0  0  0  0  0  3  0  0  0  0  0  0
  188.8110  177.3920  142.9950 C   0  0  0  0  0  0  0  0  0  0  0  0
  189.4680  177.1770  145.7000 C   0  0  0  0  0  0  0  0  0  0  0  0
  186.9360  178.1500  141.8470 O   0  0  0  0  0  0  0  0  0  0  0  0
  191.0270  176.5790  147.4540 C   0  0  0  0  0  3  0  0  0  0  0  0
  187.5960  177.9710  147.5840 C   0  0  0  0  0  3  0  0  0  0  0  0
  188.8350  177.4770  148.0150 C   0  0  0  0  0  3  0  0  0  0  0  0
  190.0700  176.8880  143.3550 O   0  0  0  0  0  0  0  0  0  0  0  0
  188.2160  177.5440  141.6480 C   0  0  1  0  0  3  0  0  0  0  0  0
  187.9360  177.7710  143.8680 C   0  0  0  0  0  0  0  0  0  0  0  0
  187.3100  178.0610  146.2550 N   0  0  0  0  0  0  0  0  0  0  0  0
  189.0510  178.4180  140.8420 N   0  0  0  0  0  2  0  0  0  0  0  0
  189.9170  177.5670  140.0420 C   0  0  0  0  0  2  0  0  0  0  0  0
  189.1430  176.9940  138.8680 C   0  0  0  0  0  2  0  0  0  0  0  0
  189.7270  177.4990  137.5540 C   0  0  0  0  0  2  0  0  0  0  0  0
  188.9730  179.7790  137.6130 O   0  0  0  0  0  1  0  0  0  0  0  0
  188.8530  178.5760  136.9140 C   0  0  2  0  0  3  0  0  0  0  0  0
  187.3930  178.1570  136.8490 C   0  0  0  0  0  2  0  0  0  0  0  0
  185.5910  178.1030  138.1200 C   0  0  0  0  0  1  0  0  0  0  0  0
  186.6300  178.9400  137.7160 O   0  0  0  0  0  0  0  0  0  0  0  0
  185.4540  177.9220  143.7860 C   0  0  0  0  0  2  0  0  0  0  0  0
  184.5860  179.1630  143.6820 C   0  0  0  0  0  2  0  0  0  0  0  0
  180.6440  179.4370  141.6080 C   0  0  0  0  0  2  0  0  0  0  0  0
  180.8790  178.7870  142.9590 C   0  0  0  0  0  2  0  0  0  0  0  0
  183.3310  178.8360  142.9540 C   0  0  0  0  0  0  0  0  0  0  0  0
  182.1890  179.1350  143.5010 N   0  0  0  0  0  0  0  0  0  0  0  0
  182.7790  178.7820  140.4800 C   0  0  0  0  0  2  0  0  0  0  0  0
  183.4200  178.2210  141.6640 N   0  0  0  0  0  2  0  0  0  0  0  0
  181.2720  178.5890  140.5170 C   0  0  0  0  0  2  0  0  0  0  0  0
  1 10  1  0  0  0  0
  1 12  1  0  0  0  0
  2  6  2  0  0  0  0
  2  8  1  0  0  0  0
  3  8  1  0  0  0  0
  3 16  2  0  0  0  0
  4 26  1  0  0  0  0
  4 15  1  0  0  0  0
  5 10  2  0  0  0  0
  6  5  1  0  0  0  0
  7 13  1  0  0  0  0
  7 15  2  0  0  0  0
  8  1  2  0  0  0  0
  9  4  1  0  0  0  0
 11 12  2  0  0  0  0
 13  2  1  0  0  0  0
 14 17  1  6  0  0  0
 14  9  1  0  0  0  0
 14  7  1  0  0  0  0
 15  3  1  0  0  0  0
 16 11  1  0  0  0  0
 18 17  1  0  0  0  0
 19 18  1  0  0  0  0
 20 19  1  0  0  0  0
 22 20  1  0  0  0  0
 22 21  1  1  0  0  0
 23 22  1  0  0  0  0
 23 25  1  0  0  0  0
 25 24  1  0  0  0  0
 27 26  1  0  0  0  0
 28 29  1  0  0  0  0
 29 31  1  0  0  0  0
 30 31  2  0  0  0  0
 30 27  1  0  0  0  0
 32 34  1  0  0  0  0
 32 33  1  0  0  0  0
 33 30  1  0  0  0  0
 34 28  1  0  0  0  0
M  END
>  <MODEL>
1

>  <REMARK>
 VINA RESULT:      -8.7      0.000      0.000
  Name = 
  10 active torsions:
  status: ('A' for Active; 'I' for Inactive)
    1  A    between atoms: C_3  and  C_13
    2  A    between atoms: C_3  and  N_17
    3  A    between atoms: N_5  and  C_26
    4  A    between atoms: C_12  and  C_28
    5  A    between atoms: C_13  and  C_33
    6  A    between atoms: O_14  and  C_20
    7  A    between atoms: N_17  and  C_29
    8  A    between atoms: C_20  and  C_34
    9  A    between atoms: C_26  and  C_28
   10  A    between atoms: C_33  and  C_34
                            x       y       z     vdW  Elec       q    Type
                         _______ _______ _______ _____ _____    ______ ____

>  <TORSDO>
F 10

$$$$
=
 OpenBabel10262423573D

 34 38  0  0  1  0  0  0  0  0999 V2000
  184.2160  178.8270  142.5960 C   0  0  0  0  0  0  0  0  0  0  0  0
  186.0650  178.3040  144.1120 C   0  0  0  0  0  0  0  0  0  0  0  0
  186.4570  178.5270  141.7130 C   0  0  0  0  0  0  0  0  0  0  0  0
  188.9540  178.1080  141.0920 N   0  0  0  0  0  0  0  0  0  0  0  0
  183.8220  178.6040  144.9790 C   0  0  0  0  0  3  0  0  0  0  0  0
  185.1800  178.3300  145.1930 C   0  0  0  0  0  3  0  0  0  0  0  0
  188.2890  178.0120  143.1910 C   0  0  0  0  0  0  0  0  0  0  0  0
  185.5770  178.5530  142.8090 C   0  0  0  0  0  0  0  0  0  0  0  0
  190.1220  177.8750  141.7670 O   0  0  0  0  0  0  0  0  0  0  0  0
  183.3400  178.8520  143.6850 C   0  0  0  0  0  3  0  0  0  0  0  0
  184.6740  179.0400  140.2340 C   0  0  0  0  0  3  0  0  0  0  0  0
  183.7620  179.0730  141.2980 C   0  0  0  0  0  3  0  0  0  0  0  0
  187.4330  178.0280  144.3020 O   0  0  0  0  0  0  0  0  0  0  0  0
  189.7350  177.6960  143.1310 C   0  0  1  0  0  3  0  0  0  0  0  0
  187.8760  178.2450  141.9890 C   0  0  0  0  0  0  0  0  0  0  0  0
  185.9910  178.7710  140.4590 N   0  0  0  0  0  0  0  0  0  0  0  0
  190.4720  178.6210  143.9750 N   0  0  0  0  0  2  0  0  0  0  0  0
  191.6780  177.9380  144.4100 C   0  0  0  0  0  2  0  0  0  0  0  0
  191.4330  176.4410  144.4780 C   0  0  0  0  0  2  0  0  0  0  0  0
  191.7920  175.9090  145.8610 C   0  0  0  0  0  2  0  0  0  0  0  0
  192.2500  176.7500  148.0630 O   0  0  0  0  0  1  0  0  0  0  0  0
  191.3910  176.8800  146.9700 C   0  0  2  0  0  3  0  0  0  0  0  0
  189.9510  176.6710  147.4130 C   0  0  0  0  0  2  0  0  0  0  0  0
  187.9400  177.5370  147.6820 C   0  0  0  0  0  1  0  0  0  0  0  0
  189.1990  177.8180  147.1530 O   0  0  0  0  0  0  0  0  0  0  0  0
  188.7470  177.5550  139.7620 C   0  0  0  0  0  2  0  0  0  0  0  0
  189.1740  178.5610  138.7080 C   0  0  0  0  0  2  0  0  0  0  0  0
  187.4590  176.4180  135.1900 C   0  0  0  0  0  2  0  0  0  0  0  0
  188.7010  177.2900  135.1640 C   0  0  0  0  0  2  0  0  0  0  0  0
  188.5120  178.2430  137.4160 C   0  0  0  0  0  0  0  0  0  0  0  0
  189.1770  177.5850  136.5110 N   0  0  0  0  0  0  0  0  0  0  0  0
  186.0990  177.7210  136.8370 C   0  0  0  0  0  2  0  0  0  0  0  0
  187.1550  178.6530  137.2140 N   0  0  0  0  0  2  0  0  0  0  0  0
  186.2290  177.2860  135.3870 C   0  0  0  0  0  2  0  0  0  0  0  0
  1  8  1  0  0  0  0
  1 10  2  0  0  0  0
  2 13  1  0  0  0  0
  2  6  1  0  0  0  0
  3 15  1  0  0  0  0
  3  8  1  0  0  0  0
  4  9  1  0  0  0  0
  4 15  1  0  0  0  0
  5  6  2  0  0  0  0
  7 13  1  0  0  0  0
  8  2  2  0  0  0  0
  9 14  1  0  0  0  0
 10  5  1  0  0  0  0
 11 16  1  0  0  0  0
 11 12  2  0  0  0  0
 12  1  1  0  0  0  0
 14  7  1  0  0  0  0
 14 17  1  1  0  0  0
 15  7  2  0  0  0  0
 16  3  2  0  0  0  0
 17 18  1  0  0  0  0
 18 19  1  0  0  0  0
 19 20  1  0  0  0  0
 20 22  1  0  0  0  0
 22 23  1  0  0  0  0
 22 21  1  1  0  0  0
 25 23  1  0  0  0  0
 25 24  1  0  0  0  0
 26  4  1  0  0  0  0
 27 26  1  0  0  0  0
 28 34  1  0  0  0  0
 29 28  1  0  0  0  0
 29 31  1  0  0  0  0
 30 27  1  0  0  0  0
 31 30  2  0  0  0  0
 32 33  1  0  0  0  0
 33 30  1  0  0  0  0
 34 32  1  0  0  0  0
M  END
>  <MODEL>
2

>  <REMARK>
 VINA RESULT:      -8.6      2.230      7.260
  Name = 
  10 active torsions:
  status: ('A' for Active; 'I' for Inactive)
    1  A    between atoms: C_3  and  C_13
    2  A    between atoms: C_3  and  N_17
    3  A    between atoms: N_5  and  C_26
    4  A    between atoms: C_12  and  C_28
    5  A    between atoms: C_13  and  C_33
    6  A    between atoms: O_14  and  C_20
    7  A    between atoms: N_17  and  C_29
    8  A    between atoms: C_20  and  C_34
    9  A    between atoms: C_26  and  C_28
   10  A    between atoms: C_33  and  C_34
                            x       y       z     vdW  Elec       q    Type
                         _______ _______ _______ _____ _____    ______ ____

>  <TORSDO>
F 10

$$$$
=
 OpenBabel10262423573D

 34 38  0  0  1  0  0  0  0  0999 V2000
  189.5050  177.2280  146.8380 C   0  0  0  0  0  0  0  0  0  0  0  0
  190.5500  176.7790  144.6710 C   0  0  0  0  0  0  0  0  0  0  0  0
  188.2890  177.6910  144.7880 C   0  0  0  0  0  0  0  0  0  0  0  0
  187.2540  178.0350  142.4200 N   0  0  0  0  0  0  0  0  0  0  0  0
  191.7510  176.3200  146.7250 C   0  0  0  0  0  3  0  0  0  0  0  0
  191.6970  176.3230  145.3240 C   0  0  0  0  0  3  0  0  0  0  0  0
  189.3030  177.2550  142.6460 C   0  0  0  0  0  0  0  0  0  0  0  0
  189.4500  177.2320  145.4340 C   0  0  0  0  0  0  0  0  0  0  0  0
  187.6740  177.9140  141.1230 O   0  0  0  0  0  0  0  0  0  0  0  0
  190.6590  176.7710  147.4810 C   0  0  0  0  0  3  0  0  0  0  0  0
  187.2680  178.1370  146.8820 C   0  0  0  0  0  3  0  0  0  0  0  0
  188.4040  177.6850  147.5670 C   0  0  0  0  0  3  0  0  0  0  0  0
  190.4720  176.7880  143.2640 O   0  0  0  0  0  0  0  0  0  0  0  0
  188.9660  177.3080  141.2050 C   0  0  1  0  0  3  0  0  0  0  0  0
  188.2840  177.6850  143.3150 C   0  0  0  0  0  0  0  0  0  0  0  0
  187.2310  178.1330  145.5200 N   0  0  0  0  0  0  0  0  0  0  0  0
  189.9390  178.1320  140.5070 N   0  0  0  0  0  2  0  0  0  0  0  0
  190.6020  177.2820  139.5320 C   0  0  0  0  0  2  0  0  0  0  0  0
  189.5930  176.7670  138.5200 C   0  0  0  0  0  2  0  0  0  0  0  0
  189.8290  177.4180  137.1620 C   0  0  0  0  0  2  0  0  0  0  0  0
  189.0100  179.6460  137.5210 O   0  0  0  0  0  1  0  0  0  0  0  0
  188.7610  178.4580  136.8310 C   0  0  2  0  0  3  0  0  0  0  0  0
  187.3620  177.9560  137.1500 C   0  0  0  0  0  2  0  0  0  0  0  0
  186.2410  176.2520  136.3090 C   0  0  0  0  0  1  0  0  0  0  0  0
  186.7340  177.5150  135.9840 O   0  0  0  0  0  0  0  0  0  0  0  0
  185.8600  177.8070  142.7680 C   0  0  0  0  0  2  0  0  0  0  0  0
  185.0540  179.0740  142.5420 C   0  0  0  0  0  2  0  0  0  0  0  0
  183.9030  178.2630  138.3080 C   0  0  0  0  0  2  0  0  0  0  0  0
  184.0980  179.6400  138.9140 C   0  0  0  0  0  2  0  0  0  0  0  0
  184.3030  178.9680  141.2630 C   0  0  0  0  0  0  0  0  0  0  0  0
  184.7700  179.5670  140.2070 N   0  0  0  0  0  0  0  0  0  0  0  0
  182.8920  177.1050  140.2820 C   0  0  0  0  0  2  0  0  0  0  0  0
  183.1000  178.1930  141.2290 N   0  0  0  0  0  2  0  0  0  0  0  0
  182.6470  177.6270  138.8760 C   0  0  0  0  0  2  0  0  0  0  0  0
  1 10  1  0  0  0  0
  1 12  1  0  0  0  0
  2  6  2  0  0  0  0
  2  8  1  0  0  0  0
  3  8  1  0  0  0  0
  3 16  2  0  0  0  0
  4 26  1  0  0  0  0
  4 15  1  0  0  0  0
  5 10  2  0  0  0  0
  6  5  1  0  0  0  0
  7 13  1  0  0  0  0
  7 15  2  0  0  0  0
  8  1  2  0  0  0  0
  9 14  1  0  0  0  0
  9  4  1  0  0  0  0
 11 12  2  0  0  0  0
 13  2  1  0  0  0  0
 14 17  1  6  0  0  0
 14  7  1  0  0  0  0
 15  3  1  0  0  0  0
 16 11  1  0  0  0  0
 18 17  1  0  0  0  0
 19 18  1  0  0  0  0
 20 19  1  0  0  0  0
 22 23  1  0  0  0  0
 22 20  1  0  0  0  0
 22 21  1  1  0  0  0
 25 24  1  0  0  0  0
 25 23  1  0  0  0  0
 27 26  1  0  0  0  0
 28 34  1  0  0  0  0
 28 29  1  0  0  0  0
 29 31  1  0  0  0  0
 30 27  1  0  0  0  0
 31 30  2  0  0  0  0
 32 33  1  0  0  0  0
 33 30  1  0  0  0  0
 34 32  1  0  0  0  0
M  END
>  <MODEL>
3

>  <REMARK>
 VINA RESULT:      -8.4      1.371      1.751
  Name = 
  10 active torsions:
  status: ('A' for Active; 'I' for Inactive)
    1  A    between atoms: C_3  and  C_13
    2  A    between atoms: C_3  and  N_17
    3  A    between atoms: N_5  and  C_26
    4  A    between atoms: C_12  and  C_28
    5  A    between atoms: C_13  and  C_33
    6  A    between atoms: O_14  and  C_20
    7  A    between atoms: N_17  and  C_29
    8  A    between atoms: C_20  and  C_34
    9  A    between atoms: C_26  and  C_28
   10  A    between atoms: C_33  and  C_34
                            x       y       z     vdW  Elec       q    Type
                         _______ _______ _______ _____ _____    ______ ____

>  <TORSDO>
F 10

$$$$
=
 OpenBabel10262423573D

 34 38  0  0  1  0  0  0  0  0999 V2000
  189.7590  177.0720  147.0720 C   0  0  0  0  0  0  0  0  0  0  0  0
  190.3960  176.7640  144.7290 C   0  0  0  0  0  0  0  0  0  0  0  0
  188.2080  177.6780  145.3050 C   0  0  0  0  0  0  0  0  0  0  0  0
  186.7750  178.1850  143.1870 N   0  0  0  0  0  0  0  0  0  0  0  0
  191.9340  176.1610  146.5020 C   0  0  0  0  0  3  0  0  0  0  0  0
  191.6330  176.2590  145.1370 C   0  0  0  0  0  3  0  0  0  0  0  0
  188.8190  177.3810  142.9940 C   0  0  0  0  0  0  0  0  0  0  0  0
  189.4570  177.1700  145.7040 C   0  0  0  0  0  0  0  0  0  0  0  0
  186.9580  178.1500  141.8310 O   0  0  0  0  0  0  0  0  0  0  0  0
  191.0000  176.5660  147.4680 C   0  0  0  0  0  3  0  0  0  0  0  0
  187.5810  177.9870  147.5730 C   0  0  0  0  0  3  0  0  0  0  0  0
  188.8130  177.4840  148.0130 C   0  0  0  0  0  3  0  0  0  0  0  0
  190.0710  176.8680  143.3620 O   0  0  0  0  0  0  0  0  0  0  0  0
  188.2330  177.5330  141.6420 C   0  0  1  0  0  3  0  0  0  0  0  0
  187.9420  177.7700  143.8600 C   0  0  0  0  0  0  0  0  0  0  0  0
  187.3040  178.0740  146.2420 N   0  0  0  0  0  0  0  0  0  0  0  0
  189.0810  178.3970  140.8380 N   0  0  0  0  0  2  0  0  0  0  0  0
  189.4340  177.6570  139.6380 C   0  0  0  0  0  2  0  0  0  0  0  0
  190.5430  176.6660  139.9450 C   0  0  0  0  0  2  0  0  0  0  0  0
  191.6890  176.8340  138.9540 C   0  0  0  0  0  2  0  0  0  0  0  0
  191.2100  174.6380  138.1080 O   0  0  0  0  0  1  0  0  0  0  0  0
  191.5200  175.9440  137.7250 C   0  0  2  0  0  3  0  0  0  0  0  0
  192.7620  175.9460  136.8480 C   0  0  0  0  0  2  0  0  0  0  0  0
  194.6150  174.9060  137.4420 C   0  0  0  0  0  1  0  0  0  0  0  0
  193.9050  176.0910  137.6350 O   0  0  0  0  0  0  0  0  0  0  0  0
  185.4610  177.9420  143.7620 C   0  0  0  0  0  2  0  0  0  0  0  0
  184.6070  179.1920  143.6540 C   0  0  0  0  0  2  0  0  0  0  0  0
  180.5640  179.4540  141.7840 C   0  0  0  0  0  2  0  0  0  0  0  0
  180.8750  178.7750  143.1040 C   0  0  0  0  0  2  0  0  0  0  0  0
  183.3220  178.8640  142.9810 C   0  0  0  0  0  0  0  0  0  0  0  0
  182.2040  179.1300  143.5900 N   0  0  0  0  0  0  0  0  0  0  0  0
  182.6500  178.8610  140.5360 C   0  0  0  0  0  2  0  0  0  0  0  0
  183.3560  178.2820  141.6720 N   0  0  0  0  0  2  0  0  0  0  0  0
  181.1490  178.6440  140.6420 C   0  0  0  0  0  2  0  0  0  0  0  0
  1 10  1  0  0  0  0
  1 12  1  0  0  0  0
  2  6  2  0  0  0  0
  2  8  1  0  0  0  0
  3  8  1  0  0  0  0
  3 16  2  0  0  0  0
  4 26  1  0  0  0  0
  4 15  1  0  0  0  0
  5 10  2  0  0  0  0
  6  5  1  0  0  0  0
  7 13  1  0  0  0  0
  7 15  2  0  0  0  0
  8  1  2  0  0  0  0
  9  4  1  0  0  0  0
 11 12  2  0  0  0  0
 13  2  1  0  0  0  0
 14 17  1  6  0  0  0
 14  9  1  0  0  0  0
 14  7  1  0  0  0  0
 15  3  1  0  0  0  0
 16 11  1  0  0  0  0
 18 19  1  0  0  0  0
 18 17  1  0  0  0  0
 20 19  1  0  0  0  0
 22 21  1  1  0  0  0
 22 20  1  0  0  0  0
 23 25  1  0  0  0  0
 23 22  1  0  0  0  0
 24 25  1  0  0  0  0
 27 26  1  0  0  0  0
 28 29  1  0  0  0  0
 29 31  1  0  0  0  0
 30 31  2  0  0  0  0
 30 27  1  0  0  0  0
 32 34  1  0  0  0  0
 32 33  1  0  0  0  0
 33 30  1  0  0  0  0
 34 28  1  0  0  0  0
M  END
>  <MODEL>
4

>  <REMARK>
 VINA RESULT:      -8.2      1.915      2.675
  Name = 
  10 active torsions:
  status: ('A' for Active; 'I' for Inactive)
    1  A    between atoms: C_3  and  C_13
    2  A    between atoms: C_3  and  N_17
    3  A    between atoms: N_5  and  C_26
    4  A    between atoms: C_12  and  C_28
    5  A    between atoms: C_13  and  C_33
    6  A    between atoms: O_14  and  C_20
    7  A    between atoms: N_17  and  C_29
    8  A    between atoms: C_20  and  C_34
    9  A    between atoms: C_26  and  C_28
   10  A    between atoms: C_33  and  C_34
                            x       y       z     vdW  Elec       q    Type
                         _______ _______ _______ _____ _____    ______ ____

>  <TORSDO>
F 10

$$$$
=
 OpenBabel10262423573D

 34 38  0  0  1  0  0  0  0  0999 V2000
  184.9080  178.5710  145.3770 C   0  0  0  0  0  0  0  0  0  0  0  0
  187.0320  177.9460  144.3340 C   0  0  0  0  0  0  0  0  0  0  0  0
  185.1650  178.7250  142.9670 C   0  0  0  0  0  0  0  0  0  0  0  0
  185.7550  178.7360  140.4280 N   0  0  0  0  0  0  0  0  0  0  0  0
  186.7610  177.7950  146.7370 C   0  0  0  0  0  3  0  0  0  0  0  0
  187.5540  177.6380  145.5920 C   0  0  0  0  0  3  0  0  0  0  0  0
  187.2490  178.1140  141.9240 C   0  0  0  0  0  0  0  0  0  0  0  0
  185.7020  178.4130  144.2290 C   0  0  0  0  0  0  0  0  0  0  0  0
  186.8640  178.4970  139.6630 O   0  0  0  0  0  0  0  0  0  0  0  0
  185.4410  178.2600  146.6310 C   0  0  0  0  0  3  0  0  0  0  0  0
  183.1030  179.3390  143.9680 C   0  0  0  0  0  3  0  0  0  0  0  0
  183.5980  179.0370  145.2440 C   0  0  0  0  0  3  0  0  0  0  0  0
  187.8100  177.7930  143.1690 O   0  0  0  0  0  0  0  0  0  0  0  0
  187.8410  177.9850  140.5720 C   0  0  1  0  0  3  0  0  0  0  0  0
  186.0400  178.5530  141.7960 C   0  0  0  0  0  0  0  0  0  0  0  0
  183.8870  179.1790  142.8650 N   0  0  0  0  0  0  0  0  0  0  0  0
  189.0520  178.7840  140.4920 N   0  0  0  0  0  2  0  0  0  0  0  0
  190.0960  177.9280  139.9540 C   0  0  0  0  0  2  0  0  0  0  0  0
  190.3910  176.7960  140.9220 C   0  0  0  0  0  2  0  0  0  0  0  0
  191.2620  177.2950  142.0690 C   0  0  0  0  0  2  0  0  0  0  0  0
  190.4780  175.2120  142.9720 O   0  0  0  0  0  1  0  0  0  0  0  0
  191.3320  176.2890  143.2160 C   0  0  2  0  0  3  0  0  0  0  0  0
  190.9920  176.9290  144.5530 C   0  0  0  0  0  2  0  0  0  0  0  0
  191.2310  176.9100  146.7460 C   0  0  0  0  0  1  0  0  0  0  0  0
  191.6620  176.2710  145.5850 O   0  0  0  0  0  0  0  0  0  0  0  0
  184.4250  178.4640  139.9050 C   0  0  0  0  0  2  0  0  0  0  0  0
  184.4020  178.6780  138.4030 C   0  0  0  0  0  2  0  0  0  0  0  0
  184.9630  174.4550  137.0740 C   0  0  0  0  0  2  0  0  0  0  0  0
  185.2480  175.6840  136.2300 C   0  0  0  0  0  2  0  0  0  0  0  0
  184.2600  177.3690  137.7120 C   0  0  0  0  0  0  0  0  0  0  0  0
  185.2690  176.8970  137.0400 N   0  0  0  0  0  0  0  0  0  0  0  0
  182.9460  175.2830  138.3020 C   0  0  0  0  0  2  0  0  0  0  0  0
  183.0220  176.6580  137.8260 N   0  0  0  0  0  2  0  0  0  0  0  0
  183.4650  174.3020  137.2630 C   0  0  0  0  0  2  0  0  0  0  0  0
  1 10  2  0  0  0  0
  2  6  1  0  0  0  0
  3  8  1  0  0  0  0
  4 15  1  0  0  0  0
  6  5  2  0  0  0  0
  7 13  1  0  0  0  0
  8  2  2  0  0  0  0
  8  1  1  0  0  0  0
  9  4  1  0  0  0  0
  9 14  1  0  0  0  0
 10  5  1  0  0  0  0
 11 12  2  0  0  0  0
 12  1  1  0  0  0  0
 13  2  1  0  0  0  0
 14 17  1  1  0  0  0
 14  7  1  0  0  0  0
 15  7  2  0  0  0  0
 15  3  1  0  0  0  0
 16  3  2  0  0  0  0
 16 11  1  0  0  0  0
 18 17  1  0  0  0  0
 18 19  1  0  0  0  0
 19 20  1  0  0  0  0
 20 22  1  0  0  0  0
 22 21  1  6  0  0  0
 22 23  1  0  0  0  0
 23 25  1  0  0  0  0
 25 24  1  0  0  0  0
 26  4  1  0  0  0  0
 27 26  1  0  0  0  0
 28 34  1  0  0  0  0
 29 31  1  0  0  0  0
 29 28  1  0  0  0  0
 30 33  1  0  0  0  0
 30 27  1  0  0  0  0
 31 30  2  0  0  0  0
 33 32  1  0  0  0  0
 34 32  1  0  0  0  0
M  END
>  <MODEL>
5

>  <REMARK>
 VINA RESULT:      -7.9      2.275      5.517
  Name = 
  10 active torsions:
  status: ('A' for Active; 'I' for Inactive)
    1  A    between atoms: C_3  and  C_13
    2  A    between atoms: C_3  and  N_17
    3  A    between atoms: N_5  and  C_26
    4  A    between atoms: C_12  and  C_28
    5  A    between atoms: C_13  and  C_33
    6  A    between atoms: O_14  and  C_20
    7  A    between atoms: N_17  and  C_29
    8  A    between atoms: C_20  and  C_34
    9  A    between atoms: C_26  and  C_28
   10  A    between atoms: C_33  and  C_34
                            x       y       z     vdW  Elec       q    Type
                         _______ _______ _______ _____ _____    ______ ____

>  <TORSDO>
F 10

$$$$
=
 OpenBabel10262423573D

 34 38  0  0  1  0  0  0  0  0999 V2000
  189.7480  177.1270  146.1580 C   0  0  0  0  0  0  0  0  0  0  0  0
  187.4820  178.0340  145.9880 C   0  0  0  0  0  0  0  0  0  0  0  0
  188.7750  177.5540  143.9750 C   0  0  0  0  0  0  0  0  0  0  0  0
  187.4610  178.1590  141.8060 N   0  0  0  0  0  0  0  0  0  0  0  0
  188.4660  177.6050  148.1610 C   0  0  0  0  0  3  0  0  0  0  0  0
  187.3890  178.0490  147.3820 C   0  0  0  0  0  3  0  0  0  0  0  0
  186.5450  178.4470  143.7900 C   0  0  0  0  0  0  0  0  0  0  0  0
  188.6690  177.5720  145.3770 C   0  0  0  0  0  0  0  0  0  0  0  0
  186.2040  178.6000  141.4950 O   0  0  0  0  0  0  0  0  0  0  0  0
  189.6440  177.1460  147.5520 C   0  0  0  0  0  3  0  0  0  0  0  0
  190.9720  176.6690  144.1260 C   0  0  0  0  0  3  0  0  0  0  0  0
  190.9090  176.6730  145.5260 C   0  0  0  0  0  3  0  0  0  0  0  0
  186.4130  178.4780  145.1860 O   0  0  0  0  0  0  0  0  0  0  0  0
  185.5950  178.9070  142.7510 C   0  0  1  0  0  3  0  0  0  0  0  0
  187.6130  178.0210  143.2000 C   0  0  0  0  0  0  0  0  0  0  0  0
  189.9150  177.1050  143.3840 N   0  0  0  0  0  0  0  0  0  0  0  0
  184.3430  178.1800  142.8790 N   0  0  0  0  0  2  0  0  0  0  0  0
  183.3040  179.1600  143.1500 C   0  0  0  0  0  2  0  0  0  0  0  0
  182.3680  178.6430  144.2280 C   0  0  0  0  0  2  0  0  0  0  0  0
  180.9180  178.7850  143.7810 C   0  0  0  0  0  2  0  0  0  0  0  0
  179.9830  180.6580  142.6020 O   0  0  0  0  0  1  0  0  0  0  0  0
  180.7970  179.5330  142.4540 C   0  0  2  0  0  3  0  0  0  0  0  0
  180.2560  178.6420  141.3480 C   0  0  0  0  0  2  0  0  0  0  0  0
  181.1680  179.6380  139.6030 C   0  0  0  0  0  1  0  0  0  0  0  0
  181.2220  178.4660  140.3570 O   0  0  0  0  0  0  0  0  0  0  0  0
  188.5960  178.5140  140.9680 C   0  0  0  0  0  2  0  0  0  0  0  0
  188.9300  177.3680  140.0310 C   0  0  0  0  0  2  0  0  0  0  0  0
  188.0640  177.2680  135.6550 C   0  0  0  0  0  2  0  0  0  0  0  0
  189.3060  177.8650  136.2880 C   0  0  0  0  0  2  0  0  0  0  0  0
  188.6000  177.7510  138.6330 C   0  0  0  0  0  0  0  0  0  0  0  0
  189.4430  177.4650  137.6840 N   0  0  0  0  0  0  0  0  0  0  0  0
  186.3890  177.9030  137.4010 C   0  0  0  0  0  2  0  0  0  0  0  0
  187.3530  178.4060  138.3720 N   0  0  0  0  0  2  0  0  0  0  0  0
  186.8600  178.1340  135.9750 C   0  0  0  0  0  2  0  0  0  0  0  0
  1 10  2  0  0  0  0
  2  6  1  0  0  0  0
  3  8  1  0  0  0  0
  4 15  1  0  0  0  0
  6  5  2  0  0  0  0
  7 13  1  0  0  0  0
  8  2  2  0  0  0  0
  8  1  1  0  0  0  0
  9  4  1  0  0  0  0
  9 14  1  0  0  0  0
 10  5  1  0  0  0  0
 11 12  2  0  0  0  0
 12  1  1  0  0  0  0
 13  2  1  0  0  0  0
 14 17  1  1  0  0  0
 14  7  1  0  0  0  0
 15  7  2  0  0  0  0
 15  3  1  0  0  0  0
 16  3  2  0  0  0  0
 16 11  1  0  0  0  0
 17 18  1  0  0  0  0
 18 19  1  0  0  0  0
 20 19  1  0  0  0  0
 22 21  1  1  0  0  0
 22 20  1  0  0  0  0
 23 22  1  0  0  0  0
 24 25  1  0  0  0  0
 25 23  1  0  0  0  0
 26  4  1  0  0  0  0
 27 26  1  0  0  0  0
 28 34  1  0  0  0  0
 28 29  1  0  0  0  0
 29 31  1  0  0  0  0
 30 27  1  0  0  0  0
 31 30  2  0  0  0  0
 32 33  1  0  0  0  0
 33 30  1  0  0  0  0
 34 32  1  0  0  0  0
M  END
>  <MODEL>
6

>  <REMARK>
 VINA RESULT:      -7.9      2.178      6.111
  Name = 
  10 active torsions:
  status: ('A' for Active; 'I' for Inactive)
    1  A    between atoms: C_3  and  C_13
    2  A    between atoms: C_3  and  N_17
    3  A    between atoms: N_5  and  C_26
    4  A    between atoms: C_12  and  C_28
    5  A    between atoms: C_13  and  C_33
    6  A    between atoms: O_14  and  C_20
    7  A    between atoms: N_17  and  C_29
    8  A    between atoms: C_20  and  C_34
    9  A    between atoms: C_26  and  C_28
   10  A    between atoms: C_33  and  C_34
                            x       y       z     vdW  Elec       q    Type
                         _______ _______ _______ _____ _____    ______ ____

>  <TORSDO>
F 10

$$$$
=
 OpenBabel10262423573D

 34 38  0  0  1  0  0  0  0  0999 V2000
  189.6320  177.2470  146.5850 C   0  0  0  0  0  0  0  0  0  0  0  0
  187.3860  178.0630  146.0610 C   0  0  0  0  0  0  0  0  0  0  0  0
  188.9200  177.4330  144.2710 C   0  0  0  0  0  0  0  0  0  0  0  0
  187.8660  177.7860  141.9130 N   0  0  0  0  0  0  0  0  0  0  0  0
  188.1100  177.8750  148.3660 C   0  0  0  0  0  3  0  0  0  0  0  0
  187.1250  178.2080  147.4260 C   0  0  0  0  0  3  0  0  0  0  0  0
  186.7120  178.2340  143.7380 C   0  0  0  0  0  0  0  0  0  0  0  0
  188.6460  177.5810  145.6420 C   0  0  0  0  0  0  0  0  0  0  0  0
  186.6470  178.1560  141.4140 O   0  0  0  0  0  0  0  0  0  0  0  0
  189.3610  177.3960  147.9480 C   0  0  0  0  0  3  0  0  0  0  0  0
  191.1000  176.6340  144.7670 C   0  0  0  0  0  3  0  0  0  0  0  0
  190.8690  176.7700  146.1420 C   0  0  0  0  0  3  0  0  0  0  0  0
  186.4120  178.3950  145.0980 O   0  0  0  0  0  0  0  0  0  0  0  0
  185.8850  178.5630  142.5540 C   0  0  1  0  0  3  0  0  0  0  0  0
  187.8510  177.7870  143.3220 C   0  0  0  0  0  0  0  0  0  0  0  0
  190.1320  176.9640  143.8660 N   0  0  0  0  0  0  0  0  0  0  0  0
  184.6410  177.8140  142.6040 N   0  0  0  0  0  2  0  0  0  0  0  0
  183.5630  178.7800  142.7370 C   0  0  0  0  0  2  0  0  0  0  0  0
  182.6080  178.6580  141.5630 C   0  0  0  0  0  2  0  0  0  0  0  0
  183.3060  177.9970  140.3800 C   0  0  0  0  0  2  0  0  0  0  0  0
  184.4970  179.9200  139.5720 O   0  0  0  0  0  1  0  0  0  0  0  0
  183.5300  178.9740  139.2270 C   0  0  2  0  0  3  0  0  0  0  0  0
  182.2430  179.6720  138.8180 C   0  0  0  0  0  2  0  0  0  0  0  0
  180.1720  178.9150  138.7490 C   0  0  0  0  0  1  0  0  0  0  0  0
  181.4140  178.7860  138.1290 O   0  0  0  0  0  0  0  0  0  0  0  0
  189.0860  178.0940  141.1840 C   0  0  0  0  0  2  0  0  0  0  0  0
  188.7620  178.4060  139.7350 C   0  0  0  0  0  2  0  0  0  0  0  0
  191.4170  175.4900  137.6470 C   0  0  0  0  0  2  0  0  0  0  0  0
  191.8770  176.5260  138.6560 C   0  0  0  0  0  2  0  0  0  0  0  0
  189.7830  177.7870  138.8480 C   0  0  0  0  0  0  0  0  0  0  0  0
  190.7510  177.1030  139.3830 N   0  0  0  0  0  0  0  0  0  0  0  0
  189.6250  176.8160  136.5120 C   0  0  0  0  0  2  0  0  0  0  0  0
  189.6560  177.9470  137.4310 N   0  0  0  0  0  2  0  0  0  0  0  0
  190.9970  176.1800  136.3620 C   0  0  0  0  0  2  0  0  0  0  0  0
  1 10  2  0  0  0  0
  2  6  1  0  0  0  0
  3  8  1  0  0  0  0
  4 15  1  0  0  0  0
  6  5  2  0  0  0  0
  7 13  1  0  0  0  0
  8  2  2  0  0  0  0
  8  1  1  0  0  0  0
  9  4  1  0  0  0  0
  9 14  1  0  0  0  0
 10  5  1  0  0  0  0
 11 12  2  0  0  0  0
 12  1  1  0  0  0  0
 13  2  1  0  0  0  0
 14 17  1  1  0  0  0
 14  7  1  0  0  0  0
 15  7  2  0  0  0  0
 15  3  1  0  0  0  0
 16  3  2  0  0  0  0
 16 11  1  0  0  0  0
 17 18  1  0  0  0  0
 19 18  1  0  0  0  0
 20 19  1  0  0  0  0
 22 21  1  1  0  0  0
 22 20  1  0  0  0  0
 23 22  1  0  0  0  0
 25 24  1  0  0  0  0
 25 23  1  0  0  0  0
 26  4  1  0  0  0  0
 27 26  1  0  0  0  0
 28 29  1  0  0  0  0
 29 31  1  0  0  0  0
 30 31  2  0  0  0  0
 30 27  1  0  0  0  0
 32 33  1  0  0  0  0
 33 30  1  0  0  0  0
 34 32  1  0  0  0  0
 34 28  1  0  0  0  0
M  END
>  <MODEL>
7

>  <REMARK>
 VINA RESULT:      -7.8      1.974      5.973
  Name = 
  10 active torsions:
  status: ('A' for Active; 'I' for Inactive)
    1  A    between atoms: C_3  and  C_13
    2  A    between atoms: C_3  and  N_17
    3  A    between atoms: N_5  and  C_26
    4  A    between atoms: C_12  and  C_28
    5  A    between atoms: C_13  and  C_33
    6  A    between atoms: O_14  and  C_20
    7  A    between atoms: N_17  and  C_29
    8  A    between atoms: C_20  and  C_34
    9  A    between atoms: C_26  and  C_28
   10  A    between atoms: C_33  and  C_34
                            x       y       z     vdW  Elec       q    Type
                         _______ _______ _______ _____ _____    ______ ____

>  <TORSDO>
F 10

$$$$
=
 OpenBabel10262423573D

 34 38  0  0  1  0  0  0  0  0999 V2000
  185.5870  178.2860  145.6950 C   0  0  0  0  0  0  0  0  0  0  0  0
  187.3800  177.7350  144.1250 C   0  0  0  0  0  0  0  0  0  0  0  0
  185.2830  178.6900  143.3210 C   0  0  0  0  0  0  0  0  0  0  0  0
  185.2660  178.9580  140.7280 N   0  0  0  0  0  0  0  0  0  0  0  0
  187.6690  177.3360  146.4980 C   0  0  0  0  0  3  0  0  0  0  0  0
  188.1670  177.2850  145.1880 C   0  0  0  0  0  3  0  0  0  0  0  0
  187.0390  178.1530  141.7610 C   0  0  0  0  0  0  0  0  0  0  0  0
  186.0850  178.2360  144.3830 C   0  0  0  0  0  0  0  0  0  0  0  0
  186.1560  178.7810  139.7030 O   0  0  0  0  0  0  0  0  0  0  0  0
  186.3830  177.8340  146.7520 C   0  0  0  0  0  3  0  0  0  0  0  0
  183.5390  179.2340  144.8340 C   0  0  0  0  0  3  0  0  0  0  0  0
  184.3030  178.7890  145.9220 C   0  0  0  0  0  3  0  0  0  0  0  0
  187.8590  177.6910  142.8010 O   0  0  0  0  0  0  0  0  0  0  0  0
  187.2940  178.1560  140.3020 C   0  0  1  0  0  3  0  0  0  0  0  0
  185.8540  178.6260  141.9650 C   0  0  0  0  0  0  0  0  0  0  0  0
  184.0370  179.1770  143.5680 N   0  0  0  0  0  0  0  0  0  0  0  0
  188.4870  178.9360  140.0170 N   0  0  0  0  0  2  0  0  0  0  0  0
  189.3300  178.1300  139.1500 C   0  0  0  0  0  2  0  0  0  0  0  0
  189.8690  176.9330  139.9140 C   0  0  0  0  0  2  0  0  0  0  0  0
  191.1550  177.3070  140.6410 C   0  0  0  0  0  2  0  0  0  0  0  0
  190.1260  175.8710  142.2690 O   0  0  0  0  0  1  0  0  0  0  0  0
  191.3000  176.5650  141.9690 C   0  0  2  0  0  3  0  0  0  0  0  0
  191.6520  177.5060  143.1100 C   0  0  0  0  0  2  0  0  0  0  0  0
  191.2330  179.4350  144.0960 C   0  0  0  0  0  1  0  0  0  0  0  0
  190.6690  178.4880  143.2420 O   0  0  0  0  0  0  0  0  0  0  0  0
  183.8410  178.7690  140.5090 C   0  0  0  0  0  2  0  0  0  0  0  0
  183.5840  178.3650  139.0680 C   0  0  0  0  0  2  0  0  0  0  0  0
  180.8880  181.3740  137.1740 C   0  0  0  0  0  2  0  0  0  0  0  0
  180.9540  181.0690  138.6590 C   0  0  0  0  0  2  0  0  0  0  0  0
  182.3910  179.0850  138.5510 C   0  0  0  0  0  0  0  0  0  0  0  0
  182.1360  180.2820  138.9930 N   0  0  0  0  0  0  0  0  0  0  0  0
  181.2580  179.0650  136.2830 C   0  0  0  0  0  2  0  0  0  0  0  0
  181.5710  178.4470  137.5650 N   0  0  0  0  0  2  0  0  0  0  0  0
  180.2620  180.2030  136.4390 C   0  0  0  0  0  2  0  0  0  0  0  0
  1 12  1  0  0  0  0
  1 10  2  0  0  0  0
  2  8  2  0  0  0  0
  2  6  1  0  0  0  0
  3 16  2  0  0  0  0
  3  8  1  0  0  0  0
  4 15  1  0  0  0  0
  5 10  1  0  0  0  0
  6  5  2  0  0  0  0
  7 15  2  0  0  0  0
  7 13  1  0  0  0  0
  8  1  1  0  0  0  0
  9 14  1  0  0  0  0
  9  4  1  0  0  0  0
 11 12  2  0  0  0  0
 13  2  1  0  0  0  0
 14 17  1  1  0  0  0
 14  7  1  0  0  0  0
 15  3  1  0  0  0  0
 16 11  1  0  0  0  0
 18 19  1  0  0  0  0
 18 17  1  0  0  0  0
 19 20  1  0  0  0  0
 20 22  1  0  0  0  0
 22 21  1  1  0  0  0
 22 23  1  0  0  0  0
 23 25  1  0  0  0  0
 25 24  1  0  0  0  0
 26  4  1  0  0  0  0
 27 26  1  0  0  0  0
 28 29  1  0  0  0  0
 29 31  1  0  0  0  0
 30 31  2  0  0  0  0
 30 27  1  0  0  0  0
 32 34  1  0  0  0  0
 32 33  1  0  0  0  0
 33 30  1  0  0  0  0
 34 28  1  0  0  0  0
M  END
>  <MODEL>
8

>  <REMARK>
 VINA RESULT:      -7.8      2.292      4.456
  Name = 
  10 active torsions:
  status: ('A' for Active; 'I' for Inactive)
    1  A    between atoms: C_3  and  C_13
    2  A    between atoms: C_3  and  N_17
    3  A    between atoms: N_5  and  C_26
    4  A    between atoms: C_12  and  C_28
    5  A    between atoms: C_13  and  C_33
    6  A    between atoms: O_14  and  C_20
    7  A    between atoms: N_17  and  C_29
    8  A    between atoms: C_20  and  C_34
    9  A    between atoms: C_26  and  C_28
   10  A    between atoms: C_33  and  C_34
                            x       y       z     vdW  Elec       q    Type
                         _______ _______ _______ _____ _____    ______ ____

>  <TORSDO>
F 10

$$$$
=
 OpenBabel10262423573D

 34 38  0  0  1  0  0  0  0  0999 V2000
  184.1850  178.6500  142.8740 C   0  0  0  0  0  0  0  0  0  0  0  0
  185.1330  178.6860  140.6190 C   0  0  0  0  0  0  0  0  0  0  0  0
  186.5680  178.3130  142.5580 C   0  0  0  0  0  0  0  0  0  0  0  0
  189.0690  178.0280  141.8780 N   0  0  0  0  0  0  0  0  0  0  0  0
  182.7560  179.0220  140.9490 C   0  0  0  0  0  3  0  0  0  0  0  0
  183.8610  178.9230  140.0920 C   0  0  0  0  0  3  0  0  0  0  0  0
  187.5180  178.3460  140.3440 C   0  0  0  0  0  0  0  0  0  0  0  0
  185.2920  178.5500  142.0160 C   0  0  0  0  0  0  0  0  0  0  0  0
  189.7800  177.9510  140.7120 O   0  0  0  0  0  0  0  0  0  0  0  0
  182.9160  178.8870  142.3370 C   0  0  0  0  0  3  0  0  0  0  0  0
  185.6590  178.2700  144.7490 C   0  0  0  0  0  3  0  0  0  0  0  0
  184.3710  178.5090  144.2520 C   0  0  0  0  0  3  0  0  0  0  0  0
  186.2580  178.5860  139.7770 O   0  0  0  0  0  0  0  0  0  0  0  0
  188.8400  178.2580  139.6810 C   0  0  1  0  0  3  0  0  0  0  0  0
  187.6960  178.2070  141.6170 C   0  0  0  0  0  0  0  0  0  0  0  0
  186.7230  178.1780  143.9030 N   0  0  0  0  0  0  0  0  0  0  0  0
  188.8220  177.1860  138.6990 N   0  0  0  0  0  2  0  0  0  0  0  0
  189.9170  177.4310  137.7750 C   0  0  0  0  0  2  0  0  0  0  0  0
  189.3820  178.0020  136.4740 C   0  0  0  0  0  2  0  0  0  0  0  0
  188.1790  177.1960  135.9990 C   0  0  0  0  0  2  0  0  0  0  0  0
  187.1020  179.2570  136.5990 O   0  0  0  0  0  1  0  0  0  0  0  0
  186.9090  178.0420  135.9390 C   0  0  2  0  0  3  0  0  0  0  0  0
  185.7130  177.3140  136.5330 C   0  0  0  0  0  2  0  0  0  0  0  0
  185.0150  175.2580  136.9250 C   0  0  0  0  0  1  0  0  0  0  0  0
  186.1180  176.0970  137.0830 O   0  0  0  0  0  0  0  0  0  0  0  0
  189.6740  178.5870  143.0770 C   0  0  0  0  0  2  0  0  0  0  0  0
  190.9630  177.8540  143.4000 C   0  0  0  0  0  2  0  0  0  0  0  0
  191.2370  176.8810  147.7470 C   0  0  0  0  0  2  0  0  0  0  0  0
  191.9670  176.1470  146.6370 C   0  0  0  0  0  2  0  0  0  0  0  0
  190.8410  177.1860  144.7230 C   0  0  0  0  0  0  0  0  0  0  0  0
  191.9230  176.8900  145.3820 N   0  0  0  0  0  0  0  0  0  0  0  0
  189.0940  177.3670  146.5510 C   0  0  0  0  0  2  0  0  0  0  0  0
  189.5340  176.9080  145.2400 N   0  0  0  0  0  2  0  0  0  0  0  0
  189.7520  176.5770  147.6700 C   0  0  0  0  0  2  0  0  0  0  0  0
  1 12  1  0  0  0  0
  2  8  1  0  0  0  0
  3 16  2  0  0  0  0
  4 26  1  0  0  0  0
  5 10  2  0  0  0  0
  6  2  2  0  0  0  0
  6  5  1  0  0  0  0
  7 15  2  0  0  0  0
  8  3  1  0  0  0  0
  8  1  2  0  0  0  0
  9  4  1  0  0  0  0
 10  1  1  0  0  0  0
 12 11  2  0  0  0  0
 13  7  1  0  0  0  0
 13  2  1  0  0  0  0
 14 17  1  6  0  0  0
 14  7  1  0  0  0  0
 14  9  1  0  0  0  0
 15  4  1  0  0  0  0
 15  3  1  0  0  0  0
 16 11  1  0  0  0  0
 18 17  1  0  0  0  0
 19 18  1  0  0  0  0
 20 19  1  0  0  0  0
 22 20  1  0  0  0  0
 22 23  1  0  0  0  0
 22 21  1  1  0  0  0
 23 25  1  0  0  0  0
 24 25  1  0  0  0  0
 26 27  1  0  0  0  0
 27 30  1  0  0  0  0
 29 28  1  0  0  0  0
 30 33  1  0  0  0  0
 30 31  2  0  0  0  0
 31 29  1  0  0  0  0
 32 34  1  0  0  0  0
 33 32  1  0  0  0  0
 34 28  1  0  0  0  0
M  END
>  <MODEL>
9

>  <REMARK>
 VINA RESULT:      -7.6      1.786      6.452
  Name = 
  10 active torsions:
  status: ('A' for Active; 'I' for Inactive)
    1  A    between atoms: C_3  and  C_13
    2  A    between atoms: C_3  and  N_17
    3  A    between atoms: N_5  and  C_26
    4  A    between atoms: C_12  and  C_28
    5  A    between atoms: C_13  and  C_33
    6  A    between atoms: O_14  and  C_20
    7  A    between atoms: N_17  and  C_29
    8  A    between atoms: C_20  and  C_34
    9  A    between atoms: C_26  and  C_28
   10  A    between atoms: C_33  and  C_34
                            x       y       z     vdW  Elec       q    Type
                         _______ _______ _______ _____ _____    ______ ____

>  <TORSDO>
F 10

$$$$
