=
 OpenBabel10272400523D

 25 28  0  0  1  0  0  0  0  0999 V2000
  189.3770  177.6470  146.2030 C   0  0  0  0  0  0  0  0  0  0  0  0
  188.1090  177.7870  145.6250 C   0  0  0  0  0  0  0  0  0  0  0  0
  188.4150  177.8350  148.3630 C   0  0  0  0  0  3  0  0  0  0  0  0
  187.1770  177.9810  147.8210 N   0  0  0  0  0  0  0  0  0  0  0  0
  185.7380  178.1080  145.8950 C   0  0  0  0  0  0  0  0  0  0  0  0
  184.3060  178.3370  146.8850 Cl  0  0  0  0  0  0  0  0  0  0  0  0
  187.9320  177.7600  144.2770 N   0  0  0  0  0  0  0  0  0  0  0  0
  189.4990  177.6700  147.5590 N   0  0  0  0  0  0  0  0  0  0  0  0
  185.6120  178.0790  144.5420 N   0  0  0  0  0  0  0  0  0  0  0  0
  186.6930  177.8990  143.7370 C   0  0  0  0  0  0  0  0  0  0  0  0
  187.0030  177.9600  146.4740 C   0  0  0  0  0  0  0  0  0  0  0  0
  190.5950  177.4590  145.3460 C   0  0  1  0  0  3  0  0  0  0  0  0
  191.3200  176.8260  142.6760 C   0  0  0  0  0  1  0  0  0  0  0  0
  190.7830  178.6600  144.4150 C   0  0  2  0  0  3  0  0  0  0  0  0
  191.1540  178.3120  142.9660 C   0  0  1  0  0  3  0  0  0  0  0  0
  192.2230  178.7460  143.9490 C   0  0  0  0  0  2  0  0  0  0  0  0
  191.7230  177.3010  146.1550 O   0  0  0  0  0  0  0  0  0  0  0  0
  191.9380  175.9220  146.2050 C   0  0  0  0  0  1  0  0  0  0  0  0
  186.5260  177.8990  142.2590 C   0  0  0  0  0  2  0  0  0  0  0  0
  187.8020  178.4180  141.5950 C   0  0  0  0  0  2  0  0  0  0  0  0
  187.9060  178.0380  140.1820 N   0  0  0  0  0  0  0  0  0  0  0  0
  186.8510  178.5730  139.5180 O   0  0  0  0  0  1  0  0  0  0  0  0
  189.1250  178.6020  139.6140 C   0  0  0  0  0  3  0  0  0  0  0  0
  189.1160  178.4140  138.1090 C   0  0  0  0  0  2  0  0  0  0  0  0
  189.9470  177.4960  138.9780 C   0  0  0  0  0  2  0  0  0  0  0  0
  1  8  1  0  0  0  0
  2  1  2  0  0  0  0
  2 11  1  0  0  0  0
  4  3  1  0  0  0  0
  5 11  1  0  0  0  0
  5  6  1  0  0  0  0
  7  2  1  0  0  0  0
  8  3  2  0  0  0  0
  9  5  2  0  0  0  0
 10  7  2  0  0  0  0
 10  9  1  0  0  0  0
 11  4  2  0  0  0  0
 12 17  1  1  0  0  0
 12  1  1  0  0  0  0
 14 12  1  1  0  0  0
 15 13  1  1  0  0  0
 15 16  1  0  0  0  0
 15 14  1  0  0  0  0
 16 14  1  0  0  0  0
 17 18  1  0  0  0  0
 19 10  1  0  0  0  0
 20 19  1  0  0  0  0
 21 20  1  0  0  0  0
 22 21  1  0  0  0  0
 23 21  1  0  0  0  0
 24 25  1  0  0  0  0
 24 23  1  0  0  0  0
 25 23  1  0  0  0  0
M  END
>  <MODEL>
1

>  <REMARK>
 VINA RESULT:      -7.2      0.000      0.000
  Name = 
  7 active torsions:
  status: ('A' for Active; 'I' for Inactive)
    1  A    between atoms: C_1  and  C_5
    2  A    between atoms: C_2  and  N_21
    3  A    between atoms: C_5  and  C_10
    4  A    between atoms: C_5  and  O_17
    5  A    between atoms: C_6  and  C_15
    6  A    between atoms: C_6  and  C_23
    7  A    between atoms: C_15  and  N_21
                            x       y       z     vdW  Elec       q    Type
                         _______ _______ _______ _____ _____    ______ ____

>  <TORSDO>
F 7

$$$$
=
 OpenBabel10272400523D

 25 28  0  0  1  0  0  0  0  0999 V2000
  189.4400  177.5520  146.2290 C   0  0  0  0  0  0  0  0  0  0  0  0
  188.1560  177.7070  145.6920 C   0  0  0  0  0  0  0  0  0  0  0  0
  188.5670  177.8690  148.4120 C   0  0  0  0  0  3  0  0  0  0  0  0
  187.3140  178.0310  147.9090 N   0  0  0  0  0  0  0  0  0  0  0  0
  185.8080  178.1180  146.0330 C   0  0  0  0  0  0  0  0  0  0  0  0
  184.4220  178.4400  147.0620 Cl  0  0  0  0  0  0  0  0  0  0  0  0
  187.9270  177.6260  144.3540 N   0  0  0  0  0  0  0  0  0  0  0  0
  189.6130  177.6320  147.5780 N   0  0  0  0  0  0  0  0  0  0  0  0
  185.6300  178.0320  144.6880 N   0  0  0  0  0  0  0  0  0  0  0  0
  186.6730  177.7810  143.8530 C   0  0  0  0  0  0  0  0  0  0  0  0
  187.0890  177.9550  146.5710 C   0  0  0  0  0  0  0  0  0  0  0  0
  190.6180  177.2840  145.3390 C   0  0  1  0  0  3  0  0  0  0  0  0
  190.6620  176.3840  142.6470 C   0  0  0  0  0  1  0  0  0  0  0  0
  190.7470  178.3840  144.2810 C   0  0  2  0  0  3  0  0  0  0  0  0
  190.7490  177.8940  142.8260 C   0  0  1  0  0  3  0  0  0  0  0  0
  192.0510  178.2360  143.5220 C   0  0  0  0  0  2  0  0  0  0  0  0
  191.7850  177.2190  146.1040 O   0  0  0  0  0  0  0  0  0  0  0  0
  192.0210  175.8540  146.2820 C   0  0  0  0  0  1  0  0  0  0  0  0
  186.4510  177.7190  142.3840 C   0  0  0  0  0  2  0  0  0  0  0  0
  186.2960  179.1350  141.8250 C   0  0  0  0  0  2  0  0  0  0  0  0
  184.9640  179.3850  141.2650 N   0  0  0  0  0  0  0  0  0  0  0  0
  185.0910  179.5680  139.9270 O   0  0  0  0  0  1  0  0  0  0  0  0
  184.1180  178.2170  141.4780 C   0  0  0  0  0  3  0  0  0  0  0  0
  182.8070  178.3980  140.7360 C   0  0  0  0  0  2  0  0  0  0  0  0
  182.8660  178.6280  142.2310 C   0  0  0  0  0  2  0  0  0  0  0  0
  1  8  1  0  0  0  0
  2  1  2  0  0  0  0
  2 11  1  0  0  0  0
  4  3  1  0  0  0  0
  5 11  1  0  0  0  0
  5  6  1  0  0  0  0
  7  2  1  0  0  0  0
  8  3  2  0  0  0  0
  9  5  2  0  0  0  0
 10  7  2  0  0  0  0
 10  9  1  0  0  0  0
 11  4  2  0  0  0  0
 12 17  1  1  0  0  0
 12  1  1  0  0  0  0
 14 12  1  1  0  0  0
 15 13  1  1  0  0  0
 15 16  1  0  0  0  0
 15 14  1  0  0  0  0
 16 14  1  0  0  0  0
 17 18  1  0  0  0  0
 19 10  1  0  0  0  0
 20 19  1  0  0  0  0
 21 23  1  0  0  0  0
 21 20  1  0  0  0  0
 22 21  1  0  0  0  0
 23 25  1  0  0  0  0
 24 23  1  0  0  0  0
 24 25  1  0  0  0  0
M  END
>  <MODEL>
2

>  <REMARK>
 VINA RESULT:      -7.2      1.689      2.514
  Name = 
  7 active torsions:
  status: ('A' for Active; 'I' for Inactive)
    1  A    between atoms: C_1  and  C_5
    2  A    between atoms: C_2  and  N_21
    3  A    between atoms: C_5  and  C_10
    4  A    between atoms: C_5  and  O_17
    5  A    between atoms: C_6  and  C_15
    6  A    between atoms: C_6  and  C_23
    7  A    between atoms: C_15  and  N_21
                            x       y       z     vdW  Elec       q    Type
                         _______ _______ _______ _____ _____    ______ ____

>  <TORSDO>
F 7

$$$$
=
 OpenBabel10272400523D

 25 28  0  0  1  0  0  0  0  0999 V2000
  190.4350  177.7130  141.8800 C   0  0  0  0  0  0  0  0  0  0  0  0
  189.2380  177.9860  141.2080 C   0  0  0  0  0  0  0  0  0  0  0  0
  191.4590  177.1320  139.8210 C   0  0  0  0  0  3  0  0  0  0  0  0
  190.3030  177.3830  139.1520 N   0  0  0  0  0  0  0  0  0  0  0  0
  187.9960  178.0700  139.1470 C   0  0  0  0  0  0  0  0  0  0  0  0
  187.8580  177.8610  137.4090 Cl  0  0  0  0  0  0  0  0  0  0  0  0
  188.1300  178.4150  141.8700 N   0  0  0  0  0  0  0  0  0  0  0  0
  191.5200  177.2970  141.1690 N   0  0  0  0  0  0  0  0  0  0  0  0
  186.9130  178.4930  139.8530 N   0  0  0  0  0  0  0  0  0  0  0  0
  186.9760  178.6720  141.1990 C   0  0  0  0  0  0  0  0  0  0  0  0
  189.1960  177.8060  139.8160 C   0  0  0  0  0  0  0  0  0  0  0  0
  190.5400  177.8890  143.3670 C   0  0  1  0  0  3  0  0  0  0  0  0
  189.2490  177.7720  145.8920 C   0  0  0  0  0  1  0  0  0  0  0  0
  190.5820  176.5260  144.0630 C   0  0  2  0  0  3  0  0  0  0  0  0
  189.8650  176.4620  145.4190 C   0  0  1  0  0  3  0  0  0  0  0  0
  191.3710  176.6180  145.3540 C   0  0  0  0  0  2  0  0  0  0  0  0
  191.6890  178.6200  143.6780 O   0  0  0  0  0  0  0  0  0  0  0  0
  191.2250  179.8950  144.0070 C   0  0  0  0  0  1  0  0  0  0  0  0
  185.7680  179.1100  141.9460 C   0  0  0  0  0  2  0  0  0  0  0  0
  185.5120  178.1600  143.1180 C   0  0  0  0  0  2  0  0  0  0  0  0
  185.0940  178.8570  144.3380 N   0  0  0  0  0  0  0  0  0  0  0  0
  183.7440  178.7690  144.4380 O   0  0  0  0  0  1  0  0  0  0  0  0
  185.6720  178.1940  145.5010 C   0  0  0  0  0  3  0  0  0  0  0  0
  184.7210  178.3110  146.6770 C   0  0  0  0  0  2  0  0  0  0  0  0
  185.9290  179.2170  146.5920 C   0  0  0  0  0  2  0  0  0  0  0  0
  1 12  1  0  0  0  0
  2  7  1  0  0  0  0
  2  1  1  0  0  0  0
  3  8  1  0  0  0  0
  4 11  1  0  0  0  0
  4  3  2  0  0  0  0
  5 11  1  0  0  0  0
  5  9  2  0  0  0  0
  6  5  1  0  0  0  0
  8  1  2  0  0  0  0
  9 10  1  0  0  0  0
 10  7  2  0  0  0  0
 10 19  1  0  0  0  0
 11  2  2  0  0  0  0
 12 17  1  6  0  0  0
 14 12  1  6  0  0  0
 14 16  1  0  0  0  0
 14 15  1  0  0  0  0
 15 13  1  6  0  0  0
 16 15  1  0  0  0  0
 17 18  1  0  0  0  0
 19 20  1  0  0  0  0
 20 21  1  0  0  0  0
 21 22  1  0  0  0  0
 21 23  1  0  0  0  0
 23 25  1  0  0  0  0
 23 24  1  0  0  0  0
 25 24  1  0  0  0  0
M  END
>  <MODEL>
3

>  <REMARK>
 VINA RESULT:      -7.1      3.043      5.835
  Name = 
  7 active torsions:
  status: ('A' for Active; 'I' for Inactive)
    1  A    between atoms: C_1  and  C_5
    2  A    between atoms: C_2  and  N_21
    3  A    between atoms: C_5  and  C_10
    4  A    between atoms: C_5  and  O_17
    5  A    between atoms: C_6  and  C_15
    6  A    between atoms: C_6  and  C_23
    7  A    between atoms: C_15  and  N_21
                            x       y       z     vdW  Elec       q    Type
                         _______ _______ _______ _____ _____    ______ ____

>  <TORSDO>
F 7

$$$$
=
 OpenBabel10272400523D

 25 28  0  0  1  0  0  0  0  0999 V2000
  187.8710  177.5510  144.9350 C   0  0  0  0  0  0  0  0  0  0  0  0
  186.8050  177.9760  144.1330 C   0  0  0  0  0  0  0  0  0  0  0  0
  186.4930  177.7160  146.8580 C   0  0  0  0  0  3  0  0  0  0  0  0
  185.4490  178.1380  146.0980 N   0  0  0  0  0  0  0  0  0  0  0  0
  184.5170  178.7060  143.9520 C   0  0  0  0  0  0  0  0  0  0  0  0
  182.9570  179.1060  144.6490 Cl  0  0  0  0  0  0  0  0  0  0  0  0
  186.9330  178.1070  142.7860 N   0  0  0  0  0  0  0  0  0  0  0  0
  187.6880  177.4260  146.2780 N   0  0  0  0  0  0  0  0  0  0  0  0
  184.6950  178.8250  142.6090 N   0  0  0  0  0  0  0  0  0  0  0  0
  185.8850  178.5220  142.0260 C   0  0  0  0  0  0  0  0  0  0  0  0
  185.5800  178.2730  144.7530 C   0  0  0  0  0  0  0  0  0  0  0  0
  189.2030  177.2190  144.3280 C   0  0  1  0  0  3  0  0  0  0  0  0
  191.4570  178.8930  143.9140 C   0  0  0  0  0  1  0  0  0  0  0  0
  190.2810  177.1490  145.4140 C   0  0  2  0  0  3  0  0  0  0  0  0
  191.4880  178.0720  145.1960 C   0  0  1  0  0  3  0  0  0  0  0  0
  191.5730  176.6010  144.8400 C   0  0  0  0  0  2  0  0  0  0  0  0
  189.1250  175.9970  143.6540 O   0  0  0  0  0  0  0  0  0  0  0  0
  189.5720  176.2720  142.3600 C   0  0  0  0  0  1  0  0  0  0  0  0
  186.0560  178.6880  140.5580 C   0  0  0  0  0  2  0  0  0  0  0  0
  187.4970  178.3590  140.1650 C   0  0  0  0  0  2  0  0  0  0  0  0
  187.6580  178.1290  138.7260 N   0  0  0  0  0  0  0  0  0  0  0  0
  186.6850  178.8130  138.0720 O   0  0  0  0  0  1  0  0  0  0  0  0
  188.9450  178.6570  138.2890 C   0  0  0  0  0  3  0  0  0  0  0  0
  189.0030  178.6610  136.7730 C   0  0  0  0  0  2  0  0  0  0  0  0
  189.7130  177.5750  137.5510 C   0  0  0  0  0  2  0  0  0  0  0  0
  1  8  1  0  0  0  0
  2 11  1  0  0  0  0
  2  1  2  0  0  0  0
  4  3  1  0  0  0  0
  5  6  1  0  0  0  0
  5 11  1  0  0  0  0
  7  2  1  0  0  0  0
  8  3  2  0  0  0  0
  9  5  2  0  0  0  0
 10  9  1  0  0  0  0
 10  7  2  0  0  0  0
 11  4  2  0  0  0  0
 12 17  1  1  0  0  0
 12  1  1  0  0  0  0
 14 12  1  6  0  0  0
 15 13  1  6  0  0  0
 15 14  1  0  0  0  0
 16 15  1  0  0  0  0
 16 14  1  0  0  0  0
 18 17  1  0  0  0  0
 19 10  1  0  0  0  0
 20 19  1  0  0  0  0
 21 20  1  0  0  0  0
 22 21  1  0  0  0  0
 23 21  1  0  0  0  0
 24 25  1  0  0  0  0
 24 23  1  0  0  0  0
 25 23  1  0  0  0  0
M  END
>  <MODEL>
4

>  <REMARK>
 VINA RESULT:      -7.0      1.660      2.279
  Name = 
  7 active torsions:
  status: ('A' for Active; 'I' for Inactive)
    1  A    between atoms: C_1  and  C_5
    2  A    between atoms: C_2  and  N_21
    3  A    between atoms: C_5  and  C_10
    4  A    between atoms: C_5  and  O_17
    5  A    between atoms: C_6  and  C_15
    6  A    between atoms: C_6  and  C_23
    7  A    between atoms: C_15  and  N_21
                            x       y       z     vdW  Elec       q    Type
                         _______ _______ _______ _____ _____    ______ ____

>  <TORSDO>
F 7

$$$$
=
 OpenBabel10272400523D

 25 28  0  0  1  0  0  0  0  0999 V2000
  184.2200  178.5880  142.9920 C   0  0  0  0  0  0  0  0  0  0  0  0
  185.4140  178.2290  143.6280 C   0  0  0  0  0  0  0  0  0  0  0  0
  183.2690  179.1500  145.0910 C   0  0  0  0  0  3  0  0  0  0  0  0
  184.4170  178.7990  145.7270 N   0  0  0  0  0  0  0  0  0  0  0  0
  186.6790  177.9760  145.6610 C   0  0  0  0  0  0  0  0  0  0  0  0
  186.8490  178.0800  147.4060 Cl  0  0  0  0  0  0  0  0  0  0  0  0
  186.4890  177.7780  142.9270 N   0  0  0  0  0  0  0  0  0  0  0  0
  183.1770  179.0440  143.7390 N   0  0  0  0  0  0  0  0  0  0  0  0
  187.7250  177.5270  144.9180 N   0  0  0  0  0  0  0  0  0  0  0  0
  187.6390  177.4340  143.5640 C   0  0  0  0  0  0  0  0  0  0  0  0
  185.4880  178.3430  145.0260 C   0  0  0  0  0  0  0  0  0  0  0  0
  184.0840  178.4890  141.5010 C   0  0  1  0  0  3  0  0  0  0  0  0
  183.0190  176.5320  139.7410 C   0  0  0  0  0  1  0  0  0  0  0  0
  182.6260  178.7050  141.0830 C   0  0  2  0  0  3  0  0  0  0  0  0
  182.0480  177.6330  140.1480 C   0  0  1  0  0  3  0  0  0  0  0  0
  182.5380  178.9550  139.5900 C   0  0  0  0  0  2  0  0  0  0  0  0
  184.9030  179.4400  140.8860 O   0  0  0  0  0  0  0  0  0  0  0  0
  185.7180  178.7060  140.0220 C   0  0  0  0  0  1  0  0  0  0  0  0
  188.7910  176.9130  142.7810 C   0  0  0  0  0  2  0  0  0  0  0  0
  190.1000  177.4230  143.3870 C   0  0  0  0  0  2  0  0  0  0  0  0
  190.7130  176.4640  144.3110 N   0  0  0  0  0  0  0  0  0  0  0  0
  191.6870  175.7920  143.6460 O   0  0  0  0  0  1  0  0  0  0  0  0
  191.3400  177.1820  145.4140 C   0  0  0  0  0  3  0  0  0  0  0  0
  191.9440  176.1880  146.3880 C   0  0  0  0  0  2  0  0  0  0  0  0
  190.6220  176.8500  146.7090 C   0  0  0  0  0  2  0  0  0  0  0  0
  1  2  2  0  0  0  0
  1  8  1  0  0  0  0
  2 11  1  0  0  0  0
  3  4  1  0  0  0  0
  5  6  1  0  0  0  0
  7 10  2  0  0  0  0
  7  2  1  0  0  0  0
  8  3  2  0  0  0  0
  9  5  2  0  0  0  0
 10  9  1  0  0  0  0
 11  5  1  0  0  0  0
 11  4  2  0  0  0  0
 12 17  1  6  0  0  0
 12  1  1  0  0  0  0
 14 12  1  6  0  0  0
 15 13  1  6  0  0  0
 15 14  1  0  0  0  0
 16 15  1  0  0  0  0
 16 14  1  0  0  0  0
 18 17  1  0  0  0  0
 19 20  1  0  0  0  0
 19 10  1  0  0  0  0
 20 21  1  0  0  0  0
 21 23  1  0  0  0  0
 22 21  1  0  0  0  0
 23 24  1  0  0  0  0
 23 25  1  0  0  0  0
 24 25  1  0  0  0  0
M  END
>  <MODEL>
5

>  <REMARK>
 VINA RESULT:      -6.9      2.639      6.434
  Name = 
  7 active torsions:
  status: ('A' for Active; 'I' for Inactive)
    1  A    between atoms: C_1  and  C_5
    2  A    between atoms: C_2  and  N_21
    3  A    between atoms: C_5  and  C_10
    4  A    between atoms: C_5  and  O_17
    5  A    between atoms: C_6  and  C_15
    6  A    between atoms: C_6  and  C_23
    7  A    between atoms: C_15  and  N_21
                            x       y       z     vdW  Elec       q    Type
                         _______ _______ _______ _____ _____    ______ ____

>  <TORSDO>
F 7

$$$$
=
 OpenBabel10272400523D

 25 28  0  0  1  0  0  0  0  0999 V2000
  188.5820  177.7630  140.6010 C   0  0  0  0  0  0  0  0  0  0  0  0
  187.3330  178.1580  141.0960 C   0  0  0  0  0  0  0  0  0  0  0  0
  187.8300  178.1560  138.3860 C   0  0  0  0  0  3  0  0  0  0  0  0
  186.6080  178.5350  138.8470 N   0  0  0  0  0  0  0  0  0  0  0  0
  185.0920  178.9300  140.6750 C   0  0  0  0  0  0  0  0  0  0  0  0
  183.7960  179.4180  139.5950 Cl  0  0  0  0  0  0  0  0  0  0  0  0
  187.0670  178.1730  142.4290 N   0  0  0  0  0  0  0  0  0  0  0  0
  188.8010  177.7760  139.2570 N   0  0  0  0  0  0  0  0  0  0  0  0
  184.8710  178.9250  142.0160 N   0  0  0  0  0  0  0  0  0  0  0  0
  185.8470  178.5580  142.8890 C   0  0  0  0  0  0  0  0  0  0  0  0
  186.3420  178.5440  140.1790 C   0  0  0  0  0  0  0  0  0  0  0  0
  189.6800  177.3410  141.5330 C   0  0  1  0  0  3  0  0  0  0  0  0
  190.6140  177.7730  144.1790 C   0  0  0  0  0  1  0  0  0  0  0  0
  189.1410  176.3690  142.5860 C   0  0  2  0  0  3  0  0  0  0  0  0
  189.6320  176.6190  144.0190 C   0  0  1  0  0  3  0  0  0  0  0  0
  190.2700  175.5410  143.1670 C   0  0  0  0  0  2  0  0  0  0  0  0
  190.7110  176.7370  140.8090 O   0  0  0  0  0  0  0  0  0  0  0  0
  191.7650  177.6510  140.8550 C   0  0  0  0  0  1  0  0  0  0  0  0
  185.5670  178.5370  144.3490 C   0  0  0  0  0  2  0  0  0  0  0  0
  186.6300  177.7040  145.0680 C   0  0  0  0  0  2  0  0  0  0  0  0
  187.1070  178.3310  146.3050 N   0  0  0  0  0  0  0  0  0  0  0  0
  186.0330  178.8020  146.9860 O   0  0  0  0  0  1  0  0  0  0  0  0
  187.7600  177.3290  147.1390 C   0  0  0  0  0  3  0  0  0  0  0  0
  187.9740  177.8900  148.5320 C   0  0  0  0  0  2  0  0  0  0  0  0
  189.1300  177.8310  147.5570 C   0  0  0  0  0  2  0  0  0  0  0  0
  1  2  1  0  0  0  0
  1 12  1  0  0  0  0
  2  7  1  0  0  0  0
  3  4  2  0  0  0  0
  3  8  1  0  0  0  0
  4 11  1  0  0  0  0
  5  9  2  0  0  0  0
  6  5  1  0  0  0  0
  7 10  2  0  0  0  0
  8  1  2  0  0  0  0
  9 10  1  0  0  0  0
 10 19  1  0  0  0  0
 11  5  1  0  0  0  0
 11  2  2  0  0  0  0
 12 17  1  6  0  0  0
 14 12  1  6  0  0  0
 14 16  1  0  0  0  0
 14 15  1  0  0  0  0
 15 13  1  6  0  0  0
 16 15  1  0  0  0  0
 17 18  1  0  0  0  0
 19 20  1  0  0  0  0
 20 21  1  0  0  0  0
 21 22  1  0  0  0  0
 21 23  1  0  0  0  0
 23 25  1  0  0  0  0
 23 24  1  0  0  0  0
 25 24  1  0  0  0  0
M  END
>  <MODEL>
6

>  <REMARK>
 VINA RESULT:      -6.9      2.625      6.043
  Name = 
  7 active torsions:
  status: ('A' for Active; 'I' for Inactive)
    1  A    between atoms: C_1  and  C_5
    2  A    between atoms: C_2  and  N_21
    3  A    between atoms: C_5  and  C_10
    4  A    between atoms: C_5  and  O_17
    5  A    between atoms: C_6  and  C_15
    6  A    between atoms: C_6  and  C_23
    7  A    between atoms: C_15  and  N_21
                            x       y       z     vdW  Elec       q    Type
                         _______ _______ _______ _____ _____    ______ ____

>  <TORSDO>
F 7

$$$$
=
 OpenBabel10272400523D

 25 28  0  0  1  0  0  0  0  0999 V2000
  187.9240  177.5520  144.6130 C   0  0  0  0  0  0  0  0  0  0  0  0
  186.7610  177.9930  143.9690 C   0  0  0  0  0  0  0  0  0  0  0  0
  186.8100  177.6650  146.7040 C   0  0  0  0  0  3  0  0  0  0  0  0
  185.6750  178.1020  146.0980 N   0  0  0  0  0  0  0  0  0  0  0  0
  184.4690  178.7190  144.1070 C   0  0  0  0  0  0  0  0  0  0  0  0
  183.0140  179.0960  145.0130 Cl  0  0  0  0  0  0  0  0  0  0  0  0
  186.7110  178.1560  142.6200 N   0  0  0  0  0  0  0  0  0  0  0  0
  187.9180  177.3940  145.9660 N   0  0  0  0  0  0  0  0  0  0  0  0
  184.4690  178.8700  142.7560 N   0  0  0  0  0  0  0  0  0  0  0  0
  185.5730  178.5860  142.0150 C   0  0  0  0  0  0  0  0  0  0  0  0
  185.6280  178.2700  144.7510 C   0  0  0  0  0  0  0  0  0  0  0  0
  189.1650  177.2390  143.8290 C   0  0  1  0  0  3  0  0  0  0  0  0
  191.2510  179.1640  143.8350 C   0  0  0  0  0  1  0  0  0  0  0  0
  190.3310  176.9400  144.7750 C   0  0  2  0  0  3  0  0  0  0  0  0
  191.4470  177.9940  144.7900 C   0  0  1  0  0  3  0  0  0  0  0  0
  191.6070  176.7190  143.9860 C   0  0  0  0  0  2  0  0  0  0  0  0
  188.9330  176.1420  142.9950 O   0  0  0  0  0  0  0  0  0  0  0  0
  189.4080  176.5390  141.7420 C   0  0  0  0  0  1  0  0  0  0  0  0
  185.5490  178.7880  140.5420 C   0  0  0  0  0  2  0  0  0  0  0  0
  184.1190  178.6360  140.0220 C   0  0  0  0  0  2  0  0  0  0  0  0
  183.5370  179.9040  139.5720 N   0  0  0  0  0  0  0  0  0  0  0  0
  184.4700  180.5690  138.8460 O   0  0  0  0  0  1  0  0  0  0  0  0
  182.4000  179.6370  138.6990 C   0  0  0  0  0  3  0  0  0  0  0  0
  181.8390  180.9470  138.1800 C   0  0  0  0  0  2  0  0  0  0  0  0
  181.1410  180.2240  139.3100 C   0  0  0  0  0  2  0  0  0  0  0  0
  1  8  1  0  0  0  0
  2  1  2  0  0  0  0
  2 11  1  0  0  0  0
  4  3  1  0  0  0  0
  5 11  1  0  0  0  0
  5  6  1  0  0  0  0
  7  2  1  0  0  0  0
  8  3  2  0  0  0  0
  9  5  2  0  0  0  0
 10  7  2  0  0  0  0
 10  9  1  0  0  0  0
 11  4  2  0  0  0  0
 12 17  1  6  0  0  0
 12  1  1  0  0  0  0
 14 12  1  6  0  0  0
 14 15  1  0  0  0  0
 15 13  1  6  0  0  0
 16 14  1  0  0  0  0
 16 15  1  0  0  0  0
 18 17  1  0  0  0  0
 19 10  1  0  0  0  0
 20 19  1  0  0  0  0
 21 20  1  0  0  0  0
 22 21  1  0  0  0  0
 23 25  1  0  0  0  0
 23 21  1  0  0  0  0
 24 23  1  0  0  0  0
 24 25  1  0  0  0  0
M  END
>  <MODEL>
7

>  <REMARK>
 VINA RESULT:      -6.7      3.068      3.841
  Name = 
  7 active torsions:
  status: ('A' for Active; 'I' for Inactive)
    1  A    between atoms: C_1  and  C_5
    2  A    between atoms: C_2  and  N_21
    3  A    between atoms: C_5  and  C_10
    4  A    between atoms: C_5  and  O_17
    5  A    between atoms: C_6  and  C_15
    6  A    between atoms: C_6  and  C_23
    7  A    between atoms: C_15  and  N_21
                            x       y       z     vdW  Elec       q    Type
                         _______ _______ _______ _____ _____    ______ ____

>  <TORSDO>
F 7

$$$$
=
 OpenBabel10272400523D

 25 28  0  0  1  0  0  0  0  0999 V2000
  187.5590  177.8530  143.2380 C   0  0  0  0  0  0  0  0  0  0  0  0
  187.2520  178.1060  141.8960 C   0  0  0  0  0  0  0  0  0  0  0  0
  185.3500  178.4560  143.8570 C   0  0  0  0  0  3  0  0  0  0  0  0
  185.0360  178.7140  142.5610 N   0  0  0  0  0  0  0  0  0  0  0  0
  185.6560  178.8090  140.2360 C   0  0  0  0  0  0  0  0  0  0  0  0
  184.0640  179.3740  139.7560 Cl  0  0  0  0  0  0  0  0  0  0  0  0
  188.1720  177.9340  140.9090 N   0  0  0  0  0  0  0  0  0  0  0  0
  186.5980  178.0300  144.1870 N   0  0  0  0  0  0  0  0  0  0  0  0
  186.6100  178.6270  139.2850 N   0  0  0  0  0  0  0  0  0  0  0  0
  187.8550  178.1870  139.6120 C   0  0  0  0  0  0  0  0  0  0  0  0
  185.9580  178.5480  141.5770 C   0  0  0  0  0  0  0  0  0  0  0  0
  188.9250  177.3770  143.6380 C   0  0  1  0  0  3  0  0  0  0  0  0
  191.3130  178.8970  143.8440 C   0  0  0  0  0  1  0  0  0  0  0  0
  189.2700  177.8690  145.0460 C   0  0  2  0  0  3  0  0  0  0  0  0
  190.5510  178.7090  145.1490 C   0  0  1  0  0  3  0  0  0  0  0  0
  190.5640  177.2400  145.5220 C   0  0  0  0  0  2  0  0  0  0  0  0
  188.9710  175.9810  143.5950 O   0  0  0  0  0  0  0  0  0  0  0  0
  190.0400  175.6830  142.7480 C   0  0  0  0  0  1  0  0  0  0  0  0
  188.8860  178.0230  138.5530 C   0  0  0  0  0  2  0  0  0  0  0  0
  189.1950  176.5380  138.3570 C   0  0  0  0  0  2  0  0  0  0  0  0
  190.4610  176.1320  138.9760 N   0  0  0  0  0  0  0  0  0  0  0  0
  190.9430  175.0610  138.2970 O   0  0  0  0  0  1  0  0  0  0  0  0
  191.4330  177.2120  138.8520 C   0  0  0  0  0  3  0  0  0  0  0  0
  192.8350  176.6510  138.9860 C   0  0  0  0  0  2  0  0  0  0  0  0
  192.1930  177.3620  140.1570 C   0  0  0  0  0  2  0  0  0  0  0  0
  1 12  1  0  0  0  0
  1  8  1  0  0  0  0
  2  1  2  0  0  0  0
  3  8  2  0  0  0  0
  4  3  1  0  0  0  0
  5 11  1  0  0  0  0
  6  5  1  0  0  0  0
  7  2  1  0  0  0  0
  9 10  1  0  0  0  0
  9  5  2  0  0  0  0
 10  7  2  0  0  0  0
 11  2  1  0  0  0  0
 11  4  2  0  0  0  0
 12 17  1  1  0  0  0
 14 12  1  6  0  0  0
 14 15  1  0  0  0  0
 14 16  1  0  0  0  0
 15 13  1  6  0  0  0
 15 16  1  0  0  0  0
 18 17  1  0  0  0  0
 19 10  1  0  0  0  0
 20 19  1  0  0  0  0
 20 21  1  0  0  0  0
 22 21  1  0  0  0  0
 23 21  1  0  0  0  0
 23 24  1  0  0  0  0
 23 25  1  0  0  0  0
 24 25  1  0  0  0  0
M  END
>  <MODEL>
8

>  <REMARK>
 VINA RESULT:      -6.7      2.642      4.227
  Name = 
  7 active torsions:
  status: ('A' for Active; 'I' for Inactive)
    1  A    between atoms: C_1  and  C_5
    2  A    between atoms: C_2  and  N_21
    3  A    between atoms: C_5  and  C_10
    4  A    between atoms: C_5  and  O_17
    5  A    between atoms: C_6  and  C_15
    6  A    between atoms: C_6  and  C_23
    7  A    between atoms: C_15  and  N_21
                            x       y       z     vdW  Elec       q    Type
                         _______ _______ _______ _____ _____    ______ ____

>  <TORSDO>
F 7

$$$$
=
 OpenBabel10272400523D

 25 28  0  0  1  0  0  0  0  0999 V2000
  190.2140  177.7950  142.2640 C   0  0  0  0  0  0  0  0  0  0  0  0
  189.1510  178.0140  141.3790 C   0  0  0  0  0  0  0  0  0  0  0  0
  191.5830  177.1120  140.4520 C   0  0  0  0  0  3  0  0  0  0  0  0
  190.5600  177.3110  139.5780 N   0  0  0  0  0  0  0  0  0  0  0  0
  188.2870  177.9660  139.1320 C   0  0  0  0  0  0  0  0  0  0  0  0
  188.4550  177.6580  137.4120 Cl  0  0  0  0  0  0  0  0  0  0  0  0
  187.9430  178.4650  141.8130 N   0  0  0  0  0  0  0  0  0  0  0  0
  191.4070  177.3540  141.7770 N   0  0  0  0  0  0  0  0  0  0  0  0
  187.0970  178.4140  139.6130 N   0  0  0  0  0  0  0  0  0  0  0  0
  186.9240  178.6690  140.9370 C   0  0  0  0  0  0  0  0  0  0  0  0
  189.3530  177.7550  140.0140 C   0  0  0  0  0  0  0  0  0  0  0  0
  190.0570  178.0560  143.7330 C   0  0  1  0  0  3  0  0  0  0  0  0
  187.6450  178.2960  145.2120 C   0  0  0  0  0  1  0  0  0  0  0  0
  189.5990  176.7850  144.4540 C   0  0  2  0  0  3  0  0  0  0  0  0
  188.2830  176.9140  145.2350 C   0  0  1  0  0  3  0  0  0  0  0  0
  189.6150  176.9960  145.9560 C   0  0  0  0  0  2  0  0  0  0  0  0
  191.2690  178.4980  144.2680 O   0  0  0  0  0  0  0  0  0  0  0  0
  191.2320  179.8890  144.1410 C   0  0  0  0  0  1  0  0  0  0  0  0
  185.6020  179.1320  141.4370 C   0  0  0  0  0  2  0  0  0  0  0  0
  184.4910  178.6020  140.5280 C   0  0  0  0  0  2  0  0  0  0  0  0
  183.7050  179.6710  139.9050 N   0  0  0  0  0  0  0  0  0  0  0  0
  184.4810  180.2880  138.9790 O   0  0  0  0  0  1  0  0  0  0  0  0
  182.5590  179.0930  139.2120 C   0  0  0  0  0  3  0  0  0  0  0  0
  181.7660  180.1950  138.5360 C   0  0  0  0  0  2  0  0  0  0  0  0
  181.2750  179.6050  139.8400 C   0  0  0  0  0  2  0  0  0  0  0  0
  1 12  1  0  0  0  0
  2  7  1  0  0  0  0
  2  1  2  0  0  0  0
  3  8  2  0  0  0  0
  4 11  2  0  0  0  0
  4  3  1  0  0  0  0
  5  9  2  0  0  0  0
  5 11  1  0  0  0  0
  6  5  1  0  0  0  0
  8  1  1  0  0  0  0
  9 10  1  0  0  0  0
 10 19  1  0  0  0  0
 10  7  2  0  0  0  0
 11  2  1  0  0  0  0
 12 17  1  1  0  0  0
 14 12  1  6  0  0  0
 14 15  1  0  0  0  0
 14 16  1  0  0  0  0
 15 13  1  6  0  0  0
 15 16  1  0  0  0  0
 18 17  1  0  0  0  0
 20 19  1  0  0  0  0
 21 20  1  0  0  0  0
 22 21  1  0  0  0  0
 23 25  1  0  0  0  0
 23 21  1  0  0  0  0
 24 23  1  0  0  0  0
 24 25  1  0  0  0  0
M  END
>  <MODEL>
9

>  <REMARK>
 VINA RESULT:      -6.7      3.487      5.604
  Name = 
  7 active torsions:
  status: ('A' for Active; 'I' for Inactive)
    1  A    between atoms: C_1  and  C_5
    2  A    between atoms: C_2  and  N_21
    3  A    between atoms: C_5  and  C_10
    4  A    between atoms: C_5  and  O_17
    5  A    between atoms: C_6  and  C_15
    6  A    between atoms: C_6  and  C_23
    7  A    between atoms: C_15  and  N_21
                            x       y       z     vdW  Elec       q    Type
                         _______ _______ _______ _____ _____    ______ ____

>  <TORSDO>
F 7

$$$$
