=
 OpenBabel10272401553D

 28 32  0  0  1  0  0  0  0  0999 V2000
  190.0760  177.0640  143.0520 N   0  0  0  0  0  0  0  0  0  0  0  0
  185.3350  179.1200  142.7850 C   0  0  0  0  0  2  0  0  0  0  0  0
  188.8450  178.2220  147.7050 C   0  0  0  0  0  1  0  0  0  0  0  0
  184.5080  178.7370  145.1190 C   0  0  0  0  0  0  0  0  0  0  0  0
  186.8480  178.2620  144.6360 C   0  0  0  0  0  0  0  0  0  0  0  0
  182.8770  178.7940  143.2550 C   0  0  0  0  0  0  0  0  0  0  0  0
  185.5760  178.6830  144.2060 C   0  0  0  0  0  0  0  0  0  0  0  0
  185.9700  177.9650  146.8820 C   0  0  0  0  0  3  0  0  0  0  0  0
  183.1540  179.2050  144.6760 C   0  0  0  0  0  2  0  0  0  0  0  0
  189.5090  177.4180  145.4420 C   0  0  1  0  0  3  0  0  0  0  0  0
  187.9950  178.2230  143.6690 C   0  0  0  0  0  2  0  0  0  0  0  0
  184.7100  178.3780  146.4520 C   0  0  0  0  0  3  0  0  0  0  0  0
  191.6690  176.3600  144.7780 C   0  0  0  0  0  2  0  0  0  0  0  0
  188.3900  177.4170  146.4960 C   0  0  2  0  0  3  0  0  0  0  0  0
  190.5830  176.4080  145.8390 C   0  0  0  0  0  2  0  0  0  0  0  0
  181.7240  178.6310  142.8950 O   0  0  0  0  0  0  0  0  0  0  0  0
  183.9940  178.5990  142.2610 C   0  0  0  0  0  2  0  0  0  0  0  0
  187.0530  177.9220  145.9930 C   0  0  0  0  0  0  0  0  0  0  0  0
  191.0280  176.0220  143.4390 C   0  0  0  0  0  2  0  0  0  0  0  0
  188.9760  177.1100  144.0320 C   0  0  1  0  0  3  0  0  0  0  0  0
  189.5300  176.6270  141.7720 C   0  0  0  0  0  2  0  0  0  0  0  0
  190.5650  176.7520  140.7080 C   0  0  0  0  0  0  0  0  0  0  0  0
  192.5290  176.9480  138.7250 C   0  0  0  0  0  0  0  0  0  0  0  0
  190.3280  176.2250  139.4340 C   0  0  0  0  0  3  0  0  0  0  0  0
  191.7880  177.3710  140.9910 C   0  0  0  0  0  3  0  0  0  0  0  0
  192.7680  177.4700  140.0000 C   0  0  0  0  0  3  0  0  0  0  0  0
  193.4790  177.0450  137.7640 F   0  0  0  0  0  0  0  0  0  0  0  0
  191.3090  176.3250  138.4420 C   0  0  0  0  0  3  0  0  0  0  0  0
  1 19  1  0  0  0  0
  1 20  1  0  0  0  0
  2  7  1  0  0  0  0
  4 12  1  0  0  0  0
  5 18  2  0  0  0  0
  6  9  1  0  0  0  0
  7  5  1  0  0  0  0
  7  4  2  0  0  0  0
  9  4  1  0  0  0  0
 10 15  1  1  0  0  0
 10 14  1  0  0  0  0
 11  5  1  0  0  0  0
 12  8  2  0  0  0  0
 13 15  1  0  0  0  0
 14  3  1  1  0  0  0
 16  6  2  0  0  0  0
 17  2  1  0  0  0  0
 17  6  1  0  0  0  0
 18 14  1  0  0  0  0
 18  8  1  0  0  0  0
 19 13  1  0  0  0  0
 20 11  1  6  0  0  0
 20 10  1  0  0  0  0
 21  1  1  0  0  0  0
 22 25  1  0  0  0  0
 22 21  1  0  0  0  0
 23 26  1  0  0  0  0
 24 22  2  0  0  0  0
 26 25  2  0  0  0  0
 27 23  1  0  0  0  0
 28 23  2  0  0  0  0
 28 24  1  0  0  0  0
M  END
>  <MODEL>
1

>  <REMARK>
 VINA RESULT:     -10.7      0.000      0.000
  Name = 
  2 active torsions:
  status: ('A' for Active; 'I' for Inactive)
    1  A    between atoms: N_1  and  C_2
    2  A    between atoms: C_2  and  C_3
                            x       y       z     vdW  Elec       q    Type
                         _______ _______ _______ _____ _____    ______ ____

>  <TORSDO>
F 2

$$$$
=
 OpenBabel10272401553D

 28 32  0  0  1  0  0  0  0  0999 V2000
  184.8530  178.3220  143.8480 N   0  0  0  0  0  0  0  0  0  0  0  0
  189.2260  176.8320  141.5190 C   0  0  0  0  0  2  0  0  0  0  0  0
  187.9240  176.9640  147.4860 C   0  0  0  0  0  1  0  0  0  0  0  0
  190.8880  177.1300  143.3700 C   0  0  0  0  0  0  0  0  0  0  0  0
  188.5220  177.3750  143.8970 C   0  0  0  0  0  0  0  0  0  0  0  0
  191.6360  177.3940  141.0230 C   0  0  0  0  0  0  0  0  0  0  0  0
  189.5430  177.1320  142.9590 C   0  0  0  0  0  0  0  0  0  0  0  0
  190.2020  177.6000  145.6390 C   0  0  0  0  0  3  0  0  0  0  0  0
  191.9820  176.8500  142.3830 C   0  0  0  0  0  2  0  0  0  0  0  0
  186.3530  177.8560  145.7690 C   0  0  1  0  0  3  0  0  0  0  0  0
  187.0850  177.3590  143.4670 C   0  0  0  0  0  2  0  0  0  0  0  0
  191.2110  177.3640  144.7060 C   0  0  0  0  0  3  0  0  0  0  0  0
  184.0370  178.7130  146.1260 C   0  0  0  0  0  2  0  0  0  0  0  0
  187.7970  177.9030  146.2940 C   0  0  2  0  0  3  0  0  0  0  0  0
  185.4570  178.7070  146.6660 C   0  0  0  0  0  2  0  0  0  0  0  0
  192.5340  177.7110  140.2610 O   0  0  0  0  0  0  0  0  0  0  0  0
  190.2040  177.5360  140.5740 C   0  0  0  0  0  2  0  0  0  0  0  0
  188.8530  177.5890  145.2550 C   0  0  0  0  0  0  0  0  0  0  0  0
  184.0620  179.2190  144.6910 C   0  0  0  0  0  2  0  0  0  0  0  0
  186.2530  178.3250  144.3070 C   0  0  1  0  0  3  0  0  0  0  0  0
  184.8080  178.9110  142.5150 C   0  0  0  0  0  2  0  0  0  0  0  0
  183.5980  178.4340  141.7880 C   0  0  0  0  0  0  0  0  0  0  0  0
  181.3260  177.5770  140.3970 C   0  0  0  0  0  0  0  0  0  0  0  0
  183.7310  177.5760  140.6910 C   0  0  0  0  0  3  0  0  0  0  0  0
  182.3280  178.8690  142.1840 C   0  0  0  0  0  3  0  0  0  0  0  0
  181.1930  178.4400  141.4900 C   0  0  0  0  0  3  0  0  0  0  0  0
  180.2260  177.1610  139.7260 F   0  0  0  0  0  0  0  0  0  0  0  0
  182.5950  177.1460  139.9970 C   0  0  0  0  0  3  0  0  0  0  0  0
  1 20  1  0  0  0  0
  1 19  1  0  0  0  0
  2  7  1  0  0  0  0
  4 12  1  0  0  0  0
  5 18  2  0  0  0  0
  6  9  1  0  0  0  0
  7  4  2  0  0  0  0
  7  5  1  0  0  0  0
  9  4  1  0  0  0  0
 10 14  1  0  0  0  0
 10 15  1  1  0  0  0
 11  5  1  0  0  0  0
 12  8  2  0  0  0  0
 13 15  1  0  0  0  0
 14  3  1  1  0  0  0
 16  6  2  0  0  0  0
 17  6  1  0  0  0  0
 17  2  1  0  0  0  0
 18  8  1  0  0  0  0
 18 14  1  0  0  0  0
 19 13  1  0  0  0  0
 20 11  1  6  0  0  0
 20 10  1  0  0  0  0
 21  1  1  0  0  0  0
 22 25  1  0  0  0  0
 22 21  1  0  0  0  0
 23 26  1  0  0  0  0
 24 22  2  0  0  0  0
 26 25  2  0  0  0  0
 27 23  1  0  0  0  0
 28 23  2  0  0  0  0
 28 24  1  0  0  0  0
M  END
>  <MODEL>
2

>  <REMARK>
 VINA RESULT:     -10.6      3.692      7.217
  Name = 
  2 active torsions:
  status: ('A' for Active; 'I' for Inactive)
    1  A    between atoms: N_1  and  C_2
    2  A    between atoms: C_2  and  C_3
                            x       y       z     vdW  Elec       q    Type
                         _______ _______ _______ _____ _____    ______ ____

>  <TORSDO>
F 2

$$$$
=
 OpenBabel10272401553D

 28 32  0  0  1  0  0  0  0  0999 V2000
  188.8270  177.2850  143.6990 N   0  0  0  0  0  0  0  0  0  0  0  0
  184.5570  178.6580  141.1190 C   0  0  0  0  0  2  0  0  0  0  0  0
  185.8610  179.4200  147.0390 C   0  0  0  0  0  1  0  0  0  0  0  0
  182.8840  178.7780  142.9790 C   0  0  0  0  0  0  0  0  0  0  0  0
  185.2290  178.4670  143.5610 C   0  0  0  0  0  0  0  0  0  0  0  0
  182.1140  178.1830  140.7010 C   0  0  0  0  0  0  0  0  0  0  0  0
  184.2240  178.6200  142.5870 C   0  0  0  0  0  0  0  0  0  0  0  0
  183.5420  178.6420  145.3010 C   0  0  0  0  0  3  0  0  0  0  0  0
  181.8080  178.9650  141.9500 C   0  0  0  0  0  2  0  0  0  0  0  0
  187.3650  178.1570  145.5050 C   0  0  1  0  0  3  0  0  0  0  0  0
  186.6630  178.3170  143.1460 C   0  0  0  0  0  2  0  0  0  0  0  0
  182.5490  178.7890  144.3330 C   0  0  0  0  0  3  0  0  0  0  0  0
  189.6200  177.2190  146.0190 C   0  0  0  0  0  2  0  0  0  0  0  0
  185.9230  178.2930  146.0180 C   0  0  2  0  0  3  0  0  0  0  0  0
  188.2040  177.4070  146.5370 C   0  0  0  0  0  2  0  0  0  0  0  0
  181.1960  177.8060  139.9930 O   0  0  0  0  0  0  0  0  0  0  0  0
  183.5330  177.8750  140.2940 C   0  0  0  0  0  2  0  0  0  0  0  0
  184.8870  178.5010  144.9320 C   0  0  0  0  0  0  0  0  0  0  0  0
  189.5580  176.4870  144.6850 C   0  0  0  0  0  2  0  0  0  0  0  0
  187.4300  177.4490  144.1410 C   0  0  1  0  0  3  0  0  0  0  0  0
  188.8300  176.4830  142.4810 C   0  0  0  0  0  2  0  0  0  0  0  0
  190.0290  176.8090  141.6600 C   0  0  0  0  0  0  0  0  0  0  0  0
  192.2990  177.3780  140.1260 C   0  0  0  0  0  0  0  0  0  0  0  0
  189.9990  176.6290  140.2730 C   0  0  0  0  0  3  0  0  0  0  0  0
  191.1980  177.2660  142.2800 C   0  0  0  0  0  3  0  0  0  0  0  0
  192.3310  177.5520  141.5140 C   0  0  0  0  0  3  0  0  0  0  0  0
  193.3980  177.6560  139.3840 F   0  0  0  0  0  0  0  0  0  0  0  0
  191.1340  176.9160  139.5070 C   0  0  0  0  0  3  0  0  0  0  0  0
  1 20  1  0  0  0  0
  1 19  1  0  0  0  0
  2  7  1  0  0  0  0
  4 12  1  0  0  0  0
  5 18  2  0  0  0  0
  6  9  1  0  0  0  0
  7  4  2  0  0  0  0
  7  5  1  0  0  0  0
  9  4  1  0  0  0  0
 10 14  1  0  0  0  0
 10 15  1  1  0  0  0
 11  5  1  0  0  0  0
 12  8  2  0  0  0  0
 13 15  1  0  0  0  0
 14  3  1  1  0  0  0
 16  6  2  0  0  0  0
 17  6  1  0  0  0  0
 17  2  1  0  0  0  0
 18  8  1  0  0  0  0
 18 14  1  0  0  0  0
 19 13  1  0  0  0  0
 20 11  1  6  0  0  0
 20 10  1  0  0  0  0
 21  1  1  0  0  0  0
 22 25  1  0  0  0  0
 22 21  1  0  0  0  0
 23 26  1  0  0  0  0
 24 22  2  0  0  0  0
 26 25  2  0  0  0  0
 27 23  1  0  0  0  0
 28 23  2  0  0  0  0
 28 24  1  0  0  0  0
M  END
>  <MODEL>
3

>  <REMARK>
 VINA RESULT:     -10.3      1.285      2.202
  Name = 
  2 active torsions:
  status: ('A' for Active; 'I' for Inactive)
    1  A    between atoms: N_1  and  C_2
    2  A    between atoms: C_2  and  C_3
                            x       y       z     vdW  Elec       q    Type
                         _______ _______ _______ _____ _____    ______ ____

>  <TORSDO>
F 2

$$$$
=
 OpenBabel10272401553D

 28 32  0  0  1  0  0  0  0  0999 V2000
  187.1620  177.9530  140.5540 N   0  0  0  0  0  0  0  0  0  0  0  0
  188.5650  177.0130  145.4450 C   0  0  0  0  0  2  0  0  0  0  0  0
  183.0260  178.3600  143.2450 C   0  0  0  0  0  1  0  0  0  0  0  0
  186.7340  178.1690  146.7060 C   0  0  0  0  0  0  0  0  0  0  0  0
  186.5140  177.9650  144.2880 C   0  0  0  0  0  0  0  0  0  0  0  0
  188.9820  177.9920  147.7330 C   0  0  0  0  0  0  0  0  0  0  0  0
  187.2470  177.7410  145.4680 C   0  0  0  0  0  0  0  0  0  0  0  0
  184.7650  179.0290  145.5980 C   0  0  0  0  0  3  0  0  0  0  0  0
  187.4970  177.9170  147.9720 C   0  0  0  0  0  2  0  0  0  0  0  0
  185.0600  178.3740  141.8060 C   0  0  1  0  0  3  0  0  0  0  0  0
  187.0490  177.4920  142.9680 C   0  0  0  0  0  2  0  0  0  0  0  0
  185.4970  178.8100  146.7650 C   0  0  0  0  0  3  0  0  0  0  0  0
  185.1730  178.7100  139.3360 C   0  0  0  0  0  2  0  0  0  0  0  0
  184.4430  178.9000  143.1110 C   0  0  2  0  0  3  0  0  0  0  0  0
  184.5290  179.1850  140.6270 C   0  0  0  0  0  2  0  0  0  0  0  0
  189.7180  178.3080  148.6520 O   0  0  0  0  0  0  0  0  0  0  0  0
  189.5790  177.6640  146.3890 C   0  0  0  0  0  2  0  0  0  0  0  0
  185.2500  178.5940  144.3560 C   0  0  0  0  0  0  0  0  0  0  0  0
  186.6850  178.8190  139.4750 C   0  0  0  0  0  2  0  0  0  0  0  0
  186.5980  178.4120  141.8360 C   0  0  1  0  0  3  0  0  0  0  0  0
  188.6060  178.1500  140.5930 C   0  0  0  0  0  2  0  0  0  0  0  0
  189.2650  177.2850  139.5740 C   0  0  0  0  0  0  0  0  0  0  0  0
  190.5120  175.7000  137.6350 C   0  0  0  0  0  0  0  0  0  0  0  0
  190.6190  176.9580  139.7030 C   0  0  0  0  0  3  0  0  0  0  0  0
  188.5370  176.8250  138.4710 C   0  0  0  0  0  3  0  0  0  0  0  0
  189.1600  176.0320  137.5030 C   0  0  0  0  0  3  0  0  0  0  0  0
  191.1150  174.9300  136.6970 F   0  0  0  0  0  0  0  0  0  0  0  0
  191.2410  176.1640  138.7340 C   0  0  0  0  0  3  0  0  0  0  0  0
  1 21  1  0  0  0  0
  1 20  1  0  0  0  0
  2  7  1  0  0  0  0
  2 17  1  0  0  0  0
  4 12  1  0  0  0  0
  4  9  1  0  0  0  0
  5 18  2  0  0  0  0
  5  7  1  0  0  0  0
  6  9  1  0  0  0  0
  6 16  2  0  0  0  0
  7  4  2  0  0  0  0
  8 12  2  0  0  0  0
 10 15  1  6  0  0  0
 10 20  1  0  0  0  0
 10 14  1  0  0  0  0
 11  5  1  0  0  0  0
 13 19  1  0  0  0  0
 13 15  1  0  0  0  0
 14  3  1  1  0  0  0
 14 18  1  0  0  0  0
 17  6  1  0  0  0  0
 18  8  1  0  0  0  0
 19  1  1  0  0  0  0
 20 11  1  1  0  0  0
 22 24  1  0  0  0  0
 22 21  1  0  0  0  0
 23 28  1  0  0  0  0
 25 22  2  0  0  0  0
 26 23  2  0  0  0  0
 26 25  1  0  0  0  0
 27 23  1  0  0  0  0
 28 24  2  0  0  0  0
M  END
>  <MODEL>
4

>  <REMARK>
 VINA RESULT:     -10.0      2.558      4.948
  Name = 
  2 active torsions:
  status: ('A' for Active; 'I' for Inactive)
    1  A    between atoms: N_1  and  C_2
    2  A    between atoms: C_2  and  C_3
                            x       y       z     vdW  Elec       q    Type
                         _______ _______ _______ _____ _____    ______ ____

>  <TORSDO>
F 2

$$$$
=
 OpenBabel10272401553D

 28 32  0  0  1  0  0  0  0  0999 V2000
  186.8340  177.9970  140.9090 N   0  0  0  0  0  0  0  0  0  0  0  0
  189.6120  176.4420  144.9870 C   0  0  0  0  0  2  0  0  0  0  0  0
  183.7740  178.2340  144.7940 C   0  0  0  0  0  1  0  0  0  0  0  0
  188.3490  177.5070  146.8700 C   0  0  0  0  0  0  0  0  0  0  0  0
  187.3770  177.5950  144.6380 C   0  0  0  0  0  0  0  0  0  0  0  0
  190.7850  177.1300  147.1120 C   0  0  0  0  0  0  0  0  0  0  0  0
  188.4220  177.2080  145.4980 C   0  0  0  0  0  0  0  0  0  0  0  0
  186.1990  178.5590  146.5320 C   0  0  0  0  0  3  0  0  0  0  0  0
  189.4460  177.0800  147.7990 C   0  0  0  0  0  2  0  0  0  0  0  0
  185.2580  178.3440  142.7950 C   0  0  1  0  0  3  0  0  0  0  0  0
  187.4420  177.2610  143.1760 C   0  0  0  0  0  2  0  0  0  0  0  0
  187.2390  178.1800  147.3800 C   0  0  0  0  0  3  0  0  0  0  0  0
  184.6240  178.9630  140.4630 C   0  0  0  0  0  2  0  0  0  0  0  0
  185.1140  178.7350  144.2740 C   0  0  2  0  0  3  0  0  0  0  0  0
  184.4470  179.3060  141.9310 C   0  0  0  0  0  2  0  0  0  0  0  0
  191.7910  177.3100  147.7780 O   0  0  0  0  0  0  0  0  0  0  0  0
  190.9120  176.9410  145.6220 C   0  0  0  0  0  2  0  0  0  0  0  0
  186.2430  178.2570  145.1630 C   0  0  0  0  0  0  0  0  0  0  0  0
  186.1080  179.0010  140.1280 C   0  0  0  0  0  2  0  0  0  0  0  0
  186.7290  178.3230  142.3420 C   0  0  1  0  0  3  0  0  0  0  0  0
  188.2290  178.1370  140.5090 C   0  0  0  0  0  2  0  0  0  0  0  0
  188.3570  177.9540  139.0360 C   0  0  0  0  0  0  0  0  0  0  0  0
  188.5560  177.6340  136.2640 C   0  0  0  0  0  0  0  0  0  0  0  0
  189.0350  178.9080  138.2680 C   0  0  0  0  0  3  0  0  0  0  0  0
  187.7720  176.8450  138.4150 C   0  0  0  0  0  3  0  0  0  0  0  0
  187.8730  176.6840  137.0310 C   0  0  0  0  0  3  0  0  0  0  0  0
  188.6540  177.4760  134.9220 F   0  0  0  0  0  0  0  0  0  0  0  0
  189.1350  178.7450  136.8820 C   0  0  0  0  0  3  0  0  0  0  0  0
  1 20  1  0  0  0  0
  2  7  1  0  0  0  0
  2 17  1  0  0  0  0
  4 12  1  0  0  0  0
  4  9  1  0  0  0  0
  5 18  2  0  0  0  0
  5  7  1  0  0  0  0
  6 16  2  0  0  0  0
  6  9  1  0  0  0  0
  7  4  2  0  0  0  0
  8 12  2  0  0  0  0
 10 15  1  6  0  0  0
 10 14  1  0  0  0  0
 11  5  1  0  0  0  0
 13 15  1  0  0  0  0
 14  3  1  1  0  0  0
 14 18  1  0  0  0  0
 17  6  1  0  0  0  0
 18  8  1  0  0  0  0
 19 13  1  0  0  0  0
 19  1  1  0  0  0  0
 20 10  1  0  0  0  0
 20 11  1  1  0  0  0
 21  1  1  0  0  0  0
 22 21  1  0  0  0  0
 23 28  2  0  0  0  0
 23 26  1  0  0  0  0
 24 22  2  0  0  0  0
 25 22  1  0  0  0  0
 26 25  2  0  0  0  0
 27 23  1  0  0  0  0
 28 24  1  0  0  0  0
M  END
>  <MODEL>
5

>  <REMARK>
 VINA RESULT:      -9.8      3.161      5.436
  Name = 
  2 active torsions:
  status: ('A' for Active; 'I' for Inactive)
    1  A    between atoms: N_1  and  C_2
    2  A    between atoms: C_2  and  C_3
                            x       y       z     vdW  Elec       q    Type
                         _______ _______ _______ _____ _____    ______ ____

>  <TORSDO>
F 2

$$$$
=
 OpenBabel10272401553D

 28 32  0  0  1  0  0  0  0  0999 V2000
  188.9170  177.4770  140.0840 N   0  0  0  0  0  0  0  0  0  0  0  0
  190.5990  176.0770  144.7730 C   0  0  0  0  0  2  0  0  0  0  0  0
  184.9860  177.7930  143.0770 C   0  0  0  0  0  1  0  0  0  0  0  0
  188.9020  177.1820  146.2470 C   0  0  0  0  0  0  0  0  0  0  0  0
  188.5160  177.1920  143.8420 C   0  0  0  0  0  0  0  0  0  0  0  0
  191.2030  176.8420  147.1000 C   0  0  0  0  0  0  0  0  0  0  0  0
  189.3160  176.8440  144.9470 C   0  0  0  0  0  0  0  0  0  0  0  0
  186.9000  178.1990  145.3520 C   0  0  0  0  0  3  0  0  0  0  0  0
  189.7360  176.7970  147.4330 C   0  0  0  0  0  2  0  0  0  0  0  0
  186.9200  177.8610  141.5070 C   0  0  1  0  0  3  0  0  0  0  0  0
  188.9450  176.8160  142.4540 C   0  0  0  0  0  2  0  0  0  0  0  0
  187.6970  177.8570  146.4440 C   0  0  0  0  0  3  0  0  0  0  0  0
  186.8840  178.4020  139.0720 C   0  0  0  0  0  2  0  0  0  0  0  0
  186.4110  178.2950  142.8910 C   0  0  2  0  0  3  0  0  0  0  0  0
  186.3450  178.7870  140.4390 C   0  0  0  0  0  2  0  0  0  0  0  0
  192.0100  177.0540  147.9900 O   0  0  0  0  0  0  0  0  0  0  0  0
  191.6980  176.6110  145.6950 C   0  0  0  0  0  2  0  0  0  0  0  0
  187.2850  177.8560  144.0480 C   0  0  0  0  0  0  0  0  0  0  0  0
  188.4050  178.4480  139.1160 C   0  0  0  0  0  2  0  0  0  0  0  0
  188.4570  177.8440  141.4360 C   0  0  1  0  0  3  0  0  0  0  0  0
  190.3670  177.6210  140.0400 C   0  0  0  0  0  2  0  0  0  0  0  0
  190.9440  176.6620  139.0570 C   0  0  0  0  0  0  0  0  0  0  0  0
  192.0190  174.8920  137.1760 C   0  0  0  0  0  0  0  0  0  0  0  0
  192.3200  176.6630  138.8010 C   0  0  0  0  0  3  0  0  0  0  0  0
  190.1060  175.7800  138.3650 C   0  0  0  0  0  3  0  0  0  0  0  0
  190.6430  174.8950  137.4270 C   0  0  0  0  0  3  0  0  0  0  0  0
  192.5390  174.0320  136.2670 F   0  0  0  0  0  0  0  0  0  0  0  0
  192.8570  175.7760  137.8620 C   0  0  0  0  0  3  0  0  0  0  0  0
  1 20  1  0  0  0  0
  2  7  1  0  0  0  0
  2 17  1  0  0  0  0
  4 12  1  0  0  0  0
  4  9  1  0  0  0  0
  5 18  2  0  0  0  0
  5  7  1  0  0  0  0
  6  9  1  0  0  0  0
  6 16  2  0  0  0  0
  7  4  2  0  0  0  0
  8 12  2  0  0  0  0
 10 15  1  6  0  0  0
 10 14  1  0  0  0  0
 11  5  1  0  0  0  0
 13 19  1  0  0  0  0
 13 15  1  0  0  0  0
 14  3  1  1  0  0  0
 14 18  1  0  0  0  0
 17  6  1  0  0  0  0
 18  8  1  0  0  0  0
 19  1  1  0  0  0  0
 20 10  1  0  0  0  0
 20 11  1  1  0  0  0
 21  1  1  0  0  0  0
 22 21  1  0  0  0  0
 23 26  2  0  0  0  0
 23 28  1  0  0  0  0
 24 22  1  0  0  0  0
 25 22  2  0  0  0  0
 26 25  1  0  0  0  0
 27 23  1  0  0  0  0
 28 24  2  0  0  0  0
M  END
>  <MODEL>
6

>  <REMARK>
 VINA RESULT:      -9.6      2.838      5.222
  Name = 
  2 active torsions:
  status: ('A' for Active; 'I' for Inactive)
    1  A    between atoms: N_1  and  C_2
    2  A    between atoms: C_2  and  C_3
                            x       y       z     vdW  Elec       q    Type
                         _______ _______ _______ _____ _____    ______ ____

>  <TORSDO>
F 2

$$$$
=
 OpenBabel10272401553D

 28 32  0  0  1  0  0  0  0  0999 V2000
  188.9530  177.5640  140.5820 N   0  0  0  0  0  0  0  0  0  0  0  0
  184.5470  179.2680  142.6910 C   0  0  0  0  0  2  0  0  0  0  0  0
  189.8680  178.0300  145.4250 C   0  0  0  0  0  1  0  0  0  0  0  0
  184.8300  178.5320  145.0690 C   0  0  0  0  0  0  0  0  0  0  0  0
  186.7290  178.3030  143.5600 C   0  0  0  0  0  0  0  0  0  0  0  0
  182.5470  178.6980  144.1210 C   0  0  0  0  0  0  0  0  0  0  0  0
  185.3910  178.6760  143.7870 C   0  0  0  0  0  0  0  0  0  0  0  0
  186.9270  177.6600  145.8950 C   0  0  0  0  0  3  0  0  0  0  0  0
  183.4120  178.9480  145.3280 C   0  0  0  0  0  2  0  0  0  0  0  0
  189.4860  177.5700  143.0060 C   0  0  1  0  0  3  0  0  0  0  0  0
  187.3370  178.4730  142.1990 C   0  0  0  0  0  2  0  0  0  0  0  0
  185.6000  178.0260  146.1160 C   0  0  0  0  0  3  0  0  0  0  0  0
  191.1510  176.7720  141.3280 C   0  0  0  0  0  2  0  0  0  0  0  0
  188.9410  177.3510  144.4270 C   0  0  2  0  0  3  0  0  0  0  0  0
  190.6390  176.6040  142.7480 C   0  0  0  0  0  2  0  0  0  0  0  0
  181.3550  178.4940  144.2740 O   0  0  0  0  0  0  0  0  0  0  0  0
  183.1190  178.7170  142.7260 C   0  0  0  0  0  2  0  0  0  0  0  0
  187.5120  177.8110  144.6290 C   0  0  0  0  0  0  0  0  0  0  0  0
  189.9940  176.5580  140.3630 C   0  0  0  0  0  2  0  0  0  0  0  0
  188.3930  177.4020  141.9350 C   0  0  1  0  0  3  0  0  0  0  0  0
  187.9090  177.2510  139.6140 C   0  0  0  0  0  2  0  0  0  0  0  0
  188.4460  177.3690  138.2300 C   0  0  0  0  0  0  0  0  0  0  0  0
  189.4100  177.6000  135.6130 C   0  0  0  0  0  0  0  0  0  0  0  0
  188.9130  178.6030  137.7620 C   0  0  0  0  0  3  0  0  0  0  0  0
  188.4540  176.2540  137.3850 C   0  0  0  0  0  3  0  0  0  0  0  0
  188.9370  176.3690  136.0790 C   0  0  0  0  0  3  0  0  0  0  0  0
  189.8790  177.7110  134.3470 F   0  0  0  0  0  0  0  0  0  0  0  0
  189.3970  178.7170  136.4550 C   0  0  0  0  0  3  0  0  0  0  0  0
  1 20  1  0  0  0  0
  2 17  1  0  0  0  0
  2  7  1  0  0  0  0
  4  9  1  0  0  0  0
  4 12  1  0  0  0  0
  5  7  1  0  0  0  0
  5 18  2  0  0  0  0
  6 16  2  0  0  0  0
  6  9  1  0  0  0  0
  7  4  2  0  0  0  0
  8 12  2  0  0  0  0
 10 15  1  6  0  0  0
 10 14  1  0  0  0  0
 11  5  1  0  0  0  0
 13 15  1  0  0  0  0
 14 18  1  0  0  0  0
 14  3  1  1  0  0  0
 17  6  1  0  0  0  0
 18  8  1  0  0  0  0
 19  1  1  0  0  0  0
 19 13  1  0  0  0  0
 20 11  1  1  0  0  0
 20 10  1  0  0  0  0
 21  1  1  0  0  0  0
 22 21  1  0  0  0  0
 23 26  2  0  0  0  0
 23 28  1  0  0  0  0
 24 22  1  0  0  0  0
 25 22  2  0  0  0  0
 26 25  1  0  0  0  0
 27 23  1  0  0  0  0
 28 24  2  0  0  0  0
M  END
>  <MODEL>
7

>  <REMARK>
 VINA RESULT:      -9.4      2.056      2.806
  Name = 
  2 active torsions:
  status: ('A' for Active; 'I' for Inactive)
    1  A    between atoms: N_1  and  C_2
    2  A    between atoms: C_2  and  C_3
                            x       y       z     vdW  Elec       q    Type
                         _______ _______ _______ _____ _____    ______ ____

>  <TORSDO>
F 2

$$$$
=
 OpenBabel10272401553D

 28 32  0  0  1  0  0  0  0  0999 V2000
  186.3250  178.3480  143.3670 N   0  0  0  0  0  0  0  0  0  0  0  0
  189.8260  177.7680  139.6020 C   0  0  0  0  0  2  0  0  0  0  0  0
  184.1180  179.9130  139.2210 C   0  0  0  0  0  1  0  0  0  0  0  0
  188.3500  177.6410  137.5820 C   0  0  0  0  0  0  0  0  0  0  0  0
  187.3320  178.2280  139.7150 C   0  0  0  0  0  0  0  0  0  0  0  0
  190.5210  176.4470  137.5670 C   0  0  0  0  0  0  0  0  0  0  0  0
  188.4670  177.8720  138.9640 C   0  0  0  0  0  0  0  0  0  0  0  0
  185.9850  178.1270  137.6950 C   0  0  0  0  0  3  0  0  0  0  0  0
  189.5580  177.2830  136.7670 C   0  0  0  0  0  2  0  0  0  0  0  0
  185.0420  178.9790  141.3390 C   0  0  1  0  0  3  0  0  0  0  0  0
  187.4560  178.4950  141.1870 C   0  0  0  0  0  2  0  0  0  0  0  0
  187.1110  177.7700  136.9540 C   0  0  0  0  0  3  0  0  0  0  0  0
  183.9570  178.9430  143.5850 C   0  0  0  0  0  2  0  0  0  0  0  0
  184.8220  178.7140  139.8410 C   0  0  2  0  0  3  0  0  0  0  0  0
  183.7390  178.7370  142.0960 C   0  0  0  0  0  2  0  0  0  0  0  0
  191.2630  175.6720  136.9870 O   0  0  0  0  0  0  0  0  0  0  0  0
  190.6030  176.5620  139.0680 C   0  0  0  0  0  2  0  0  0  0  0  0
  186.0820  178.3800  139.0710 C   0  0  0  0  0  0  0  0  0  0  0  0
  185.0730  178.0180  144.0480 C   0  0  0  0  0  2  0  0  0  0  0  0
  186.1720  178.1120  141.9200 C   0  0  1  0  0  3  0  0  0  0  0  0
  187.3040  177.3980  143.8840 C   0  0  0  0  0  2  0  0  0  0  0  0
  187.5740  177.6780  145.3220 C   0  0  0  0  0  0  0  0  0  0  0  0
  188.0660  178.1610  148.0340 C   0  0  0  0  0  0  0  0  0  0  0  0
  188.8400  177.4200  145.8600 C   0  0  0  0  0  3  0  0  0  0  0  0
  186.5530  178.1710  146.1430 C   0  0  0  0  0  3  0  0  0  0  0  0
  186.8000  178.4130  147.4970 C   0  0  0  0  0  3  0  0  0  0  0  0
  188.3050  178.3970  149.3460 F   0  0  0  0  0  0  0  0  0  0  0  0
  189.0850  177.6630  147.2160 C   0  0  0  0  0  3  0  0  0  0  0  0
  1 21  1  0  0  0  0
  1 19  1  0  0  0  0
  4  7  1  0  0  0  0
  5 11  1  0  0  0  0
  6 17  1  0  0  0  0
  7  2  1  0  0  0  0
  7  5  2  0  0  0  0
  8 18  2  0  0  0  0
  9  6  1  0  0  0  0
  9  4  1  0  0  0  0
 10 20  1  0  0  0  0
 10 15  1  1  0  0  0
 12  4  2  0  0  0  0
 12  8  1  0  0  0  0
 13 19  1  0  0  0  0
 14  3  1  6  0  0  0
 14 10  1  0  0  0  0
 15 13  1  0  0  0  0
 16  6  2  0  0  0  0
 17  2  1  0  0  0  0
 18  5  1  0  0  0  0
 18 14  1  0  0  0  0
 20 11  1  6  0  0  0
 20  1  1  0  0  0  0
 21 22  1  0  0  0  0
 22 24  2  0  0  0  0
 22 25  1  0  0  0  0
 23 27  1  0  0  0  0
 24 28  1  0  0  0  0
 25 26  2  0  0  0  0
 26 23  1  0  0  0  0
 28 23  2  0  0  0  0
M  END
>  <MODEL>
8

>  <REMARK>
 VINA RESULT:      -9.2      3.993      7.982
  Name = 
  2 active torsions:
  status: ('A' for Active; 'I' for Inactive)
    1  A    between atoms: N_1  and  C_2
    2  A    between atoms: C_2  and  C_3
                            x       y       z     vdW  Elec       q    Type
                         _______ _______ _______ _____ _____    ______ ____

>  <TORSDO>
F 2

$$$$
=
 OpenBabel10272401553D

 28 32  0  0  1  0  0  0  0  0999 V2000
  188.2430  177.7780  145.3530 N   0  0  0  0  0  0  0  0  0  0  0  0
  188.2480  178.4050  140.2180 C   0  0  0  0  0  2  0  0  0  0  0  0
  183.8210  179.6960  144.2250 C   0  0  0  0  0  1  0  0  0  0  0  0
  185.7920  178.4130  139.7270 C   0  0  0  0  0  0  0  0  0  0  0  0
  186.4990  178.4550  142.0580 C   0  0  0  0  0  0  0  0  0  0  0  0
  187.3640  177.5820  138.0020 C   0  0  0  0  0  0  0  0  0  0  0  0
  186.8180  178.4130  140.6880 C   0  0  0  0  0  0  0  0  0  0  0  0
  184.1370  178.5090  141.4870 C   0  0  0  0  0  3  0  0  0  0  0  0
  186.1210  178.3900  138.2640 C   0  0  0  0  0  2  0  0  0  0  0  0
  185.9290  178.5550  144.9050 C   0  0  1  0  0  3  0  0  0  0  0  0
  187.5930  178.4750  143.0850 C   0  0  0  0  0  2  0  0  0  0  0  0
  184.4570  178.4610  140.1300 C   0  0  0  0  0  3  0  0  0  0  0  0
  186.6590  177.9600  147.2160 C   0  0  0  0  0  2  0  0  0  0  0  0
  184.7480  178.5270  143.9230 C   0  0  2  0  0  3  0  0  0  0  0  0
  185.4860  177.9890  146.2520 C   0  0  0  0  0  2  0  0  0  0  0  0
  187.5070  177.0420  136.9180 O   0  0  0  0  0  0  0  0  0  0  0  0
  188.4450  177.4420  139.0440 C   0  0  0  0  0  2  0  0  0  0  0  0
  185.1460  178.5270  142.4610 C   0  0  0  0  0  0  0  0  0  0  0  0
  187.7840  177.1480  146.5920 C   0  0  0  0  0  2  0  0  0  0  0  0
  187.1460  177.7800  144.3700 C   0  0  1  0  0  3  0  0  0  0  0  0
  189.3040  176.9110  144.8540 C   0  0  0  0  0  2  0  0  0  0  0  0
  190.3460  176.7260  145.9020 C   0  0  0  0  0  0  0  0  0  0  0  0
  192.2760  176.3450  147.8910 C   0  0  0  0  0  0  0  0  0  0  0  0
  191.3870  175.8120  145.7010 C   0  0  0  0  0  3  0  0  0  0  0  0
  190.2670  177.4430  147.1010 C   0  0  0  0  0  3  0  0  0  0  0  0
  191.2330  177.2540  148.0940 C   0  0  0  0  0  3  0  0  0  0  0  0
  193.2120  176.1640  148.8540 F   0  0  0  0  0  0  0  0  0  0  0  0
  192.3530  175.6240  146.6960 C   0  0  0  0  0  3  0  0  0  0  0  0
  1 19  1  0  0  0  0
  2  7  1  0  0  0  0
  4 12  2  0  0  0  0
  4  7  1  0  0  0  0
  5 18  1  0  0  0  0
  5 11  1  0  0  0  0
  6  9  1  0  0  0  0
  6 17  1  0  0  0  0
  7  5  2  0  0  0  0
  8 18  2  0  0  0  0
  9  4  1  0  0  0  0
 10 15  1  1  0  0  0
 12  8  1  0  0  0  0
 14  3  1  6  0  0  0
 14 10  1  0  0  0  0
 15 13  1  0  0  0  0
 16  6  2  0  0  0  0
 17  2  1  0  0  0  0
 18 14  1  0  0  0  0
 19 13  1  0  0  0  0
 20 11  1  6  0  0  0
 20 10  1  0  0  0  0
 20  1  1  0  0  0  0
 21  1  1  0  0  0  0
 21 22  1  0  0  0  0
 22 25  1  0  0  0  0
 23 26  1  0  0  0  0
 23 27  1  0  0  0  0
 24 22  2  0  0  0  0
 24 28  1  0  0  0  0
 25 26  2  0  0  0  0
 28 23  2  0  0  0  0
M  END
>  <MODEL>
9

>  <REMARK>
 VINA RESULT:      -8.4      3.315      5.961
  Name = 
  2 active torsions:
  status: ('A' for Active; 'I' for Inactive)
    1  A    between atoms: N_1  and  C_2
    2  A    between atoms: C_2  and  C_3
                            x       y       z     vdW  Elec       q    Type
                         _______ _______ _______ _____ _____    ______ ____

>  <TORSDO>
F 2

$$$$
