=
 OpenBabel10272401503D

 28 31  0  0  1  0  0  0  0  0999 V2000
  185.3970  177.6510  138.4730 C   0  0  1  0  0  3  0  0  0  0  0  0
  189.3250  177.4890  136.7470 N   0  0  0  0  0  1  0  0  0  0  0  0
  187.3400  177.9990  141.2740 C   0  0  1  0  0  3  0  0  0  0  0  0
  187.9000  177.9170  138.6840 C   0  0  2  0  0  3  0  0  0  0  0  0
  186.3450  178.6600  140.5180 O   0  0  0  0  0  0  0  0  0  0  0  0
  186.9270  177.1970  136.5100 C   0  0  0  0  0  2  0  0  0  0  0  0
  188.9800  178.6720  139.4470 C   0  0  0  0  0  2  0  0  0  0  0  0
  188.0380  178.0180  137.1660 C   0  0  2  0  0  3  0  0  0  0  0  0
  188.7540  178.5280  140.9560 C   0  0  0  0  0  2  0  0  0  0  0  0
  185.5430  177.6820  136.9490 C   0  0  0  0  0  2  0  0  0  0  0  0
  186.5280  178.4670  139.1180 C   0  0  2  0  0  3  0  0  0  0  0  0
  185.5020  178.3140  142.9260 C   0  0  0  0  0  2  0  0  0  0  0  0
  187.7060  177.1590  145.0500 C   0  0  0  0  0  3  0  0  0  0  0  0
  185.9040  178.9240  145.3260 C   0  0  2  0  0  3  0  0  0  0  0  0
  187.0040  178.0360  142.7710 C   0  0  1  0  0  3  0  0  0  0  0  0
  188.6860  176.1080  143.0750 C   0  0  0  0  0  1  0  0  0  0  0  0
  187.0220  178.0390  145.8020 C   0  0  0  0  0  3  0  0  0  0  0  0
  187.4450  176.8100  143.6060 C   0  0  1  0  0  3  0  0  0  0  0  0
  185.1690  179.3690  146.4240 O   0  0  0  0  0  1  0  0  0  0  0  0
  184.9840  178.2000  144.3580 C   0  0  0  0  0  2  0  0  0  0  0  0
  183.9830  178.0890  138.8910 C   0  0  1  0  0  3  0  0  0  0  0  0
  183.8100  179.5770  138.5770 C   0  0  0  0  0  2  0  0  0  0  0  0
  181.4920  177.8680  138.4650 C   0  0  0  0  0  0  0  0  0  0  0  0
  182.4570  180.0680  139.0680 C   0  0  0  0  0  2  0  0  0  0  0  0
  182.8730  175.8230  138.8850 C   0  0  0  0  0  1  0  0  0  0  0  0
  182.8510  177.2240  138.2850 C   0  0  2  0  0  3  0  0  0  0  0  0
  180.4900  177.1860  138.6130 O   0  0  0  0  0  0  0  0  0  0  0  0
  181.3450  179.3510  138.3160 C   0  0  0  0  0  2  0  0  0  0  0  0
  1 10  1  6  0  0  0
  1 21  1  0  0  0  0
  1 11  1  0  0  0  0
  3  9  1  1  0  0  0
  3 15  1  0  0  0  0
  4 11  1  0  0  0  0
  4  7  1  1  0  0  0
  5  3  1  0  0  0  0
  6 10  1  0  0  0  0
  6  8  1  0  0  0  0
  7  9  1  0  0  0  0
  8  2  1  1  0  0  0
  8  4  1  0  0  0  0
 11  5  1  1  0  0  0
 12 20  1  0  0  0  0
 13 17  2  0  0  0  0
 14 17  1  0  0  0  0
 14 19  1  1  0  0  0
 15 12  1  6  0  0  0
 15 18  1  0  0  0  0
 18 16  1  6  0  0  0
 18 13  1  0  0  0  0
 20 14  1  0  0  0  0
 21 22  1  6  0  0  0
 22 24  1  0  0  0  0
 23 27  2  0  0  0  0
 26 23  1  0  0  0  0
 26 25  1  1  0  0  0
 26 21  1  0  0  0  0
 28 23  1  0  0  0  0
 28 24  1  0  0  0  0
M  END
>  <MODEL>
1

>  <REMARK>
 VINA RESULT:      -8.0      0.000      0.000
  Name = 
  2 active torsions:
  status: ('A' for Active; 'I' for Inactive)
    1  A    between atoms: C_1  and  C_2
    2  A    between atoms: C_10  and  C_13
                            x       y       z     vdW  Elec       q    Type
                         _______ _______ _______ _____ _____    ______ ____

>  <TORSDO>
F 2

$$$$
=
 OpenBabel10272401503D

 28 31  0  0  1  0  0  0  0  0999 V2000
  188.8950  177.3310  145.3700 C   0  0  1  0  0  3  0  0  0  0  0  0
  187.4280  177.4810  149.4020 N   0  0  0  0  0  1  0  0  0  0  0  0
  185.6100  178.1410  144.8240 C   0  0  1  0  0  3  0  0  0  0  0  0
  187.0730  177.9040  147.0220 C   0  0  2  0  0  3  0  0  0  0  0  0
  186.9240  178.6140  144.6120 O   0  0  0  0  0  0  0  0  0  0  0  0
  189.1930  176.8930  147.8430 C   0  0  0  0  0  2  0  0  0  0  0  0
  185.8960  178.8410  147.2550 C   0  0  0  0  0  2  0  0  0  0  0  0
  188.0810  177.8910  148.1700 C   0  0  2  0  0  3  0  0  0  0  0  0
  184.9480  178.8010  146.0510 C   0  0  0  0  0  2  0  0  0  0  0  0
  189.8930  177.2500  146.5290 C   0  0  0  0  0  2  0  0  0  0  0  0
  187.7760  178.3250  145.7180 C   0  0  2  0  0  3  0  0  0  0  0  0
  183.3630  178.7410  143.9310 C   0  0  0  0  0  2  0  0  0  0  0  0
  184.9010  178.6920  141.0430 C   0  0  0  0  0  3  0  0  0  0  0  0
  182.5410  178.0070  141.6770 C   0  0  2  0  0  3  0  0  0  0  0  0
  184.7710  178.2650  143.5450 C   0  0  1  0  0  3  0  0  0  0  0  0
  186.8930  179.1500  142.3810 C   0  0  0  0  0  1  0  0  0  0  0  0
  183.6750  178.2460  140.7190 C   0  0  0  0  0  3  0  0  0  0  0  0
  185.3720  179.1270  142.4080 C   0  0  1  0  0  3  0  0  0  0  0  0
  181.3400  177.9660  140.9700 O   0  0  0  0  0  1  0  0  0  0  0  0
  182.4660  179.0860  142.7440 C   0  0  0  0  0  2  0  0  0  0  0  0
  189.6230  177.6360  144.0490 C   0  0  1  0  0  3  0  0  0  0  0  0
  191.0180  178.1800  144.3640 C   0  0  0  0  0  2  0  0  0  0  0  0
  190.6410  176.6810  141.9310 C   0  0  0  0  0  0  0  0  0  0  0  0
  191.7310  178.5840  143.0830 C   0  0  0  0  0  2  0  0  0  0  0  0
  188.2690  176.1490  142.5250 C   0  0  0  0  0  1  0  0  0  0  0  0
  189.6640  176.4430  143.0630 C   0  0  2  0  0  3  0  0  0  0  0  0
  190.4340  176.2230  140.8180 O   0  0  0  0  0  0  0  0  0  0  0  0
  191.9480  177.3600  142.2050 C   0  0  0  0  0  2  0  0  0  0  0  0
  1 11  1  0  0  0  0
  1 10  1  1  0  0  0
  3  9  1  1  0  0  0
  4  7  1  1  0  0  0
  4  8  1  0  0  0  0
  5  3  1  0  0  0  0
  6  8  1  0  0  0  0
  8  2  1  1  0  0  0
  9  7  1  0  0  0  0
 10  6  1  0  0  0  0
 11  5  1  6  0  0  0
 11  4  1  0  0  0  0
 13 18  1  0  0  0  0
 14 19  1  6  0  0  0
 14 20  1  0  0  0  0
 15 12  1  1  0  0  0
 15  3  1  0  0  0  0
 17 13  2  0  0  0  0
 17 14  1  0  0  0  0
 18 16  1  6  0  0  0
 18 15  1  0  0  0  0
 20 12  1  0  0  0  0
 21 22  1  1  0  0  0
 21  1  1  0  0  0  0
 23 28  1  0  0  0  0
 23 26  1  0  0  0  0
 24 22  1  0  0  0  0
 26 25  1  6  0  0  0
 26 21  1  0  0  0  0
 27 23  2  0  0  0  0
 28 24  1  0  0  0  0
M  END
>  <MODEL>
2

>  <REMARK>
 VINA RESULT:      -7.8      3.694      7.848
  Name = 
  2 active torsions:
  status: ('A' for Active; 'I' for Inactive)
    1  A    between atoms: C_1  and  C_2
    2  A    between atoms: C_10  and  C_13
                            x       y       z     vdW  Elec       q    Type
                         _______ _______ _______ _____ _____    ______ ____

>  <TORSDO>
F 2

$$$$
=
 OpenBabel10272401503D

 28 31  0  0  1  0  0  0  0  0999 V2000
  184.9460  178.5670  143.2010 C   0  0  1  0  0  3  0  0  0  0  0  0
  185.3580  178.7440  147.4710 N   0  0  0  0  0  1  0  0  0  0  0  0
  188.2610  177.7730  143.5560 C   0  0  1  0  0  3  0  0  0  0  0  0
  186.2950  178.1490  145.2950 C   0  0  2  0  0  3  0  0  0  0  0  0
  187.0400  177.2630  143.0600 O   0  0  0  0  0  0  0  0  0  0  0  0
  184.0410  179.1840  145.4800 C   0  0  0  0  0  2  0  0  0  0  0  0
  187.3750  177.2520  145.8850 C   0  0  0  0  0  2  0  0  0  0  0  0
  185.0330  178.2320  146.1500 C   0  0  2  0  0  3  0  0  0  0  0  0
  188.5940  177.2170  144.9560 C   0  0  0  0  0  2  0  0  0  0  0  0
  183.6910  178.7180  144.0650 C   0  0  0  0  0  2  0  0  0  0  0  0
  185.9400  177.6200  143.8930 C   0  0  2  0  0  3  0  0  0  0  0  0
  188.7940  177.6240  141.1270 C   0  0  0  0  0  2  0  0  0  0  0  0
  191.8880  177.8630  142.1650 C   0  0  0  0  0  3  0  0  0  0  0  0
  190.8800  176.5460  140.2440 C   0  0  2  0  0  3  0  0  0  0  0  0
  189.3920  177.5660  142.5400 C   0  0  1  0  0  3  0  0  0  0  0  0
  190.8880  178.9700  144.0980 C   0  0  0  0  0  1  0  0  0  0  0  0
  192.0090  177.0540  141.0970 C   0  0  0  0  0  3  0  0  0  0  0  0
  190.6200  178.4990  142.6770 C   0  0  1  0  0  3  0  0  0  0  0  0
  191.3880  176.1080  139.0210 O   0  0  0  0  0  1  0  0  0  0  0  0
  189.8280  177.6160  140.0030 C   0  0  0  0  0  2  0  0  0  0  0  0
  184.5710  178.1520  141.7680 C   0  0  1  0  0  3  0  0  0  0  0  0
  183.0620  177.9050  141.7010 C   0  0  0  0  0  2  0  0  0  0  0  0
  184.4080  178.8640  139.3390 C   0  0  0  0  0  0  0  0  0  0  0  0
  182.6690  177.3980  140.3220 C   0  0  0  0  0  2  0  0  0  0  0  0
  186.5750  179.1040  140.5670 C   0  0  0  0  0  1  0  0  0  0  0  0
  185.0550  179.1400  140.6790 C   0  0  2  0  0  3  0  0  0  0  0  0
  185.0080  179.0760  138.2970 O   0  0  0  0  0  0  0  0  0  0  0  0
  182.9650  178.4640  139.2770 C   0  0  0  0  0  2  0  0  0  0  0  0
  1 11  1  0  0  0  0
  1 10  1  1  0  0  0
  3  9  1  1  0  0  0
  4  7  1  1  0  0  0
  4  8  1  0  0  0  0
  5  3  1  0  0  0  0
  6  8  1  0  0  0  0
  8  2  1  1  0  0  0
  9  7  1  0  0  0  0
 10  6  1  0  0  0  0
 11  5  1  6  0  0  0
 11  4  1  0  0  0  0
 13 18  1  0  0  0  0
 14 19  1  6  0  0  0
 14 17  1  0  0  0  0
 15 12  1  6  0  0  0
 15 18  1  0  0  0  0
 15  3  1  0  0  0  0
 17 13  2  0  0  0  0
 18 16  1  1  0  0  0
 20 14  1  0  0  0  0
 20 12  1  0  0  0  0
 21 22  1  1  0  0  0
 21  1  1  0  0  0  0
 23 26  1  0  0  0  0
 24 22  1  0  0  0  0
 26 25  1  6  0  0  0
 26 21  1  0  0  0  0
 27 23  2  0  0  0  0
 28 23  1  0  0  0  0
 28 24  1  0  0  0  0
M  END
>  <MODEL>
3

>  <REMARK>
 VINA RESULT:      -7.7      3.154      5.913
  Name = 
  2 active torsions:
  status: ('A' for Active; 'I' for Inactive)
    1  A    between atoms: C_1  and  C_2
    2  A    between atoms: C_10  and  C_13
                            x       y       z     vdW  Elec       q    Type
                         _______ _______ _______ _____ _____    ______ ____

>  <TORSDO>
F 2

$$$$
=
 OpenBabel10272401503D

 28 31  0  0  1  0  0  0  0  0999 V2000
  189.6670  176.0310  138.0640 C   0  0  1  0  0  3  0  0  0  0  0  0
  193.9460  176.0810  137.7190 N   0  0  0  0  0  1  0  0  0  0  0  0
  190.5550  176.9170  141.2530 C   0  0  1  0  0  3  0  0  0  0  0  0
  191.9390  176.5850  139.0170 C   0  0  2  0  0  3  0  0  0  0  0  0
  189.8250  177.3720  140.1320 O   0  0  0  0  0  0  0  0  0  0  0  0
  191.7820  175.5100  136.7790 C   0  0  0  0  0  2  0  0  0  0  0  0
  192.6600  177.5360  139.9630 C   0  0  0  0  0  2  0  0  0  0  0  0
  192.5630  176.5170  137.6250 C   0  0  2  0  0  3  0  0  0  0  0  0
  191.9590  177.5500  141.3260 C   0  0  0  0  0  2  0  0  0  0  0  0
  190.3040  175.8950  136.6780 C   0  0  0  0  0  2  0  0  0  0  0  0
  190.4700  177.0340  138.9070 C   0  0  2  0  0  3  0  0  0  0  0  0
  188.2540  176.9350  142.2080 C   0  0  0  0  0  2  0  0  0  0  0  0
  189.8350  176.8560  145.0720 C   0  0  0  0  0  3  0  0  0  0  0  0
  187.6840  178.0220  144.3960 C   0  0  2  0  0  3  0  0  0  0  0  0
  189.7430  177.0970  142.5430 C   0  0  1  0  0  3  0  0  0  0  0  0
  191.6300  175.8370  143.7650 C   0  0  0  0  0  1  0  0  0  0  0  0
  188.7550  177.6020  145.3640 C   0  0  0  0  0  3  0  0  0  0  0  0
  190.1560  176.2130  143.7460 C   0  0  1  0  0  3  0  0  0  0  0  0
  186.5450  178.4000  145.1050 O   0  0  0  0  0  1  0  0  0  0  0  0
  187.3320  176.9070  143.4260 C   0  0  0  0  0  2  0  0  0  0  0  0
  188.1700  176.3630  137.9420 C   0  0  1  0  0  3  0  0  0  0  0  0
  188.0120  177.8680  137.7180 C   0  0  0  0  0  2  0  0  0  0  0  0
  186.0520  176.0920  136.5720 C   0  0  0  0  0  0  0  0  0  0  0  0
  186.5390  178.2480  137.6910 C   0  0  0  0  0  2  0  0  0  0  0  0
  187.3280  174.0700  137.3100 C   0  0  0  0  0  1  0  0  0  0  0  0
  187.4240  175.5270  136.8740 C   0  0  2  0  0  3  0  0  0  0  0  0
  185.1260  175.3590  136.2620 O   0  0  0  0  0  0  0  0  0  0  0  0
  185.8560  177.5760  136.5090 C   0  0  0  0  0  2  0  0  0  0  0  0
  1 10  1  6  0  0  0
  1 11  1  0  0  0  0
  3  9  1  1  0  0  0
  3 15  1  0  0  0  0
  4  7  1  1  0  0  0
  5  3  1  0  0  0  0
  6  8  1  0  0  0  0
  7  9  1  0  0  0  0
  8  2  1  1  0  0  0
  8  4  1  0  0  0  0
 10  6  1  0  0  0  0
 11  4  1  0  0  0  0
 11  5  1  1  0  0  0
 12 20  1  0  0  0  0
 13 17  2  0  0  0  0
 14 19  1  1  0  0  0
 14 17  1  0  0  0  0
 15 12  1  6  0  0  0
 15 18  1  0  0  0  0
 18 16  1  1  0  0  0
 18 13  1  0  0  0  0
 20 14  1  0  0  0  0
 21 22  1  6  0  0  0
 21  1  1  0  0  0  0
 23 26  1  0  0  0  0
 24 22  1  0  0  0  0
 26 25  1  1  0  0  0
 26 21  1  0  0  0  0
 27 23  2  0  0  0  0
 28 23  1  0  0  0  0
 28 24  1  0  0  0  0
M  END
>  <MODEL>
4

>  <REMARK>
 VINA RESULT:      -7.5      2.893      4.096
  Name = 
  2 active torsions:
  status: ('A' for Active; 'I' for Inactive)
    1  A    between atoms: C_1  and  C_2
    2  A    between atoms: C_10  and  C_13
                            x       y       z     vdW  Elec       q    Type
                         _______ _______ _______ _____ _____    ______ ____

>  <TORSDO>
F 2

$$$$
=
 OpenBabel10272401503D

 28 31  0  0  1  0  0  0  0  0999 V2000
  190.3280  177.2140  139.9430 C   0  0  1  0  0  3  0  0  0  0  0  0
  193.8570  176.8880  137.5200 N   0  0  0  0  0  1  0  0  0  0  0  0
  188.9550  176.3220  136.9330 C   0  0  1  0  0  3  0  0  0  0  0  0
  191.4550  176.5310  137.7890 C   0  0  2  0  0  3  0  0  0  0  0  0
  189.0690  175.8960  138.2760 O   0  0  0  0  0  0  0  0  0  0  0  0
  192.8060  177.5800  139.5960 C   0  0  0  0  0  2  0  0  0  0  0  0
  191.3620  175.5520  136.6270 C   0  0  0  0  0  2  0  0  0  0  0  0
  192.8190  176.5390  138.4760 C   0  0  2  0  0  3  0  0  0  0  0  0
  189.9600  175.6020  136.0100 C   0  0  0  0  0  2  0  0  0  0  0  0
  191.7020  177.2880  140.6150 C   0  0  0  0  0  2  0  0  0  0  0  0
  190.3600  176.1750  138.8120 C   0  0  2  0  0  3  0  0  0  0  0  0
  186.8160  175.0760  137.2170 C   0  0  0  0  0  2  0  0  0  0  0  0
  185.5760  177.5280  135.4400 C   0  0  0  0  0  3  0  0  0  0  0  0
  184.9990  175.0570  135.4870 C   0  0  2  0  0  3  0  0  0  0  0  0
  187.5030  176.2130  136.4470 C   0  0  1  0  0  3  0  0  0  0  0  0
  187.4820  178.7860  136.3090 C   0  0  0  0  0  1  0  0  0  0  0  0
  184.8330  176.4820  135.0380 C   0  0  0  0  0  3  0  0  0  0  0  0
  186.6650  177.5140  136.4830 C   0  0  1  0  0  3  0  0  0  0  0  0
  183.8300  174.3490  135.2130 O   0  0  0  0  0  1  0  0  0  0  0  0
  185.3120  174.9660  136.9710 C   0  0  0  0  0  2  0  0  0  0  0  0
  189.2250  176.9750  140.9900 C   0  0  1  0  0  3  0  0  0  0  0  0
  189.8720  176.5040  142.2940 C   0  0  0  0  0  2  0  0  0  0  0  0
  187.4280  178.0250  142.4400 C   0  0  0  0  0  0  0  0  0  0  0  0
  188.8040  176.1630  143.3230 C   0  0  0  0  0  2  0  0  0  0  0  0
  187.4220  178.4130  139.9680 C   0  0  0  0  0  1  0  0  0  0  0  0
  188.2860  178.1870  141.2030 C   0  0  2  0  0  3  0  0  0  0  0  0
  186.3010  178.4920  142.4870 O   0  0  0  0  0  0  0  0  0  0  0  0
  188.0130  177.4140  143.6760 C   0  0  0  0  0  2  0  0  0  0  0  0
  1 10  1  1  0  0  0
  1 21  1  0  0  0  0
  3  9  1  6  0  0  0
  3  5  1  0  0  0  0
  4  7  1  6  0  0  0
  4  8  1  0  0  0  0
  4 11  1  0  0  0  0
  6 10  1  0  0  0  0
  8  2  1  6  0  0  0
  8  6  1  0  0  0  0
  9  7  1  0  0  0  0
 11  5  1  6  0  0  0
 11  1  1  0  0  0  0
 13 18  1  0  0  0  0
 14 19  1  1  0  0  0
 14 20  1  0  0  0  0
 15 18  1  0  0  0  0
 15  3  1  0  0  0  0
 15 12  1  1  0  0  0
 17 13  2  0  0  0  0
 17 14  1  0  0  0  0
 18 16  1  6  0  0  0
 20 12  1  0  0  0  0
 21 26  1  0  0  0  0
 21 22  1  1  0  0  0
 22 24  1  0  0  0  0
 23 27  2  0  0  0  0
 23 28  1  0  0  0  0
 24 28  1  0  0  0  0
 26 25  1  6  0  0  0
 26 23  1  0  0  0  0
M  END
>  <MODEL>
5

>  <REMARK>
 VINA RESULT:      -7.4      3.034      7.236
  Name = 
  2 active torsions:
  status: ('A' for Active; 'I' for Inactive)
    1  A    between atoms: C_1  and  C_2
    2  A    between atoms: C_10  and  C_13
                            x       y       z     vdW  Elec       q    Type
                         _______ _______ _______ _____ _____    ______ ____

>  <TORSDO>
F 2

$$$$
=
 OpenBabel10272401503D

 28 31  0  0  1  0  0  0  0  0999 V2000
  190.0290  176.2340  137.6240 C   0  0  1  0  0  3  0  0  0  0  0  0
  194.2910  175.8140  137.9300 N   0  0  0  0  0  1  0  0  0  0  0  0
  190.5080  176.9770  140.9350 C   0  0  1  0  0  3  0  0  0  0  0  0
  192.1750  176.5210  138.9240 C   0  0  2  0  0  3  0  0  0  0  0  0
  190.0120  177.5240  139.7300 O   0  0  0  0  0  0  0  0  0  0  0  0
  192.2480  175.4980  136.6580 C   0  0  0  0  0  2  0  0  0  0  0  0
  192.8410  177.3740  139.9960 C   0  0  0  0  0  2  0  0  0  0  0  0
  192.9940  176.4020  137.6410 C   0  0  2  0  0  3  0  0  0  0  0  0
  191.9450  177.4500  141.2370 C   0  0  0  0  0  2  0  0  0  0  0  0
  190.8520  176.0460  136.3470 C   0  0  0  0  0  2  0  0  0  0  0  0
  190.7970  177.1310  138.6070 C   0  0  2  0  0  3  0  0  0  0  0  0
  190.3450  177.6200  143.3360 C   0  0  0  0  0  2  0  0  0  0  0  0
  187.1620  177.9520  142.6540 C   0  0  0  0  0  3  0  0  0  0  0  0
  188.3320  177.1360  144.7530 C   0  0  2  0  0  3  0  0  0  0  0  0
  189.5330  177.2300  142.0930 C   0  0  1  0  0  3  0  0  0  0  0  0
  187.9470  178.3000  140.3670 C   0  0  0  0  0  1  0  0  0  0  0  0
  187.1360  177.5160  143.9260 C   0  0  0  0  0  3  0  0  0  0  0  0
  188.3880  178.2350  141.8220 C   0  0  1  0  0  3  0  0  0  0  0  0
  187.9820  177.1480  146.1020 O   0  0  0  0  0  1  0  0  0  0  0  0
  189.5000  178.0800  144.5230 C   0  0  0  0  0  2  0  0  0  0  0  0
  188.6130  176.7320  137.2870 C   0  0  1  0  0  3  0  0  0  0  0  0
  188.7060  178.1530  136.7280 C   0  0  0  0  0  2  0  0  0  0  0  0
  186.5710  176.4480  135.8090 C   0  0  0  0  0  0  0  0  0  0  0  0
  187.3150  178.7150  136.4750 C   0  0  0  0  0  2  0  0  0  0  0  0
  187.4670  174.4930  137.0890 C   0  0  0  0  0  1  0  0  0  0  0  0
  187.8160  175.7840  136.3580 C   0  0  2  0  0  3  0  0  0  0  0  0
  185.5650  175.7970  135.5760 O   0  0  0  0  0  0  0  0  0  0  0  0
  186.6130  177.8900  135.4060 C   0  0  0  0  0  2  0  0  0  0  0  0
  1 10  1  6  0  0  0
  1 11  1  0  0  0  0
  3  9  1  1  0  0  0
  3 15  1  0  0  0  0
  4  7  1  1  0  0  0
  5  3  1  0  0  0  0
  6  8  1  0  0  0  0
  7  9  1  0  0  0  0
  8  2  1  1  0  0  0
  8  4  1  0  0  0  0
 10  6  1  0  0  0  0
 11  4  1  0  0  0  0
 11  5  1  1  0  0  0
 12 20  1  0  0  0  0
 13 17  2  0  0  0  0
 14 19  1  1  0  0  0
 15 12  1  1  0  0  0
 17 14  1  0  0  0  0
 18 16  1  6  0  0  0
 18 15  1  0  0  0  0
 18 13  1  0  0  0  0
 20 14  1  0  0  0  0
 21 22  1  6  0  0  0
 21  1  1  0  0  0  0
 23 26  1  0  0  0  0
 24 22  1  0  0  0  0
 26 25  1  1  0  0  0
 26 21  1  0  0  0  0
 27 23  2  0  0  0  0
 28 23  1  0  0  0  0
 28 24  1  0  0  0  0
M  END
>  <MODEL>
6

>  <REMARK>
 VINA RESULT:      -7.3      3.407      4.614
  Name = 
  2 active torsions:
  status: ('A' for Active; 'I' for Inactive)
    1  A    between atoms: C_1  and  C_2
    2  A    between atoms: C_10  and  C_13
                            x       y       z     vdW  Elec       q    Type
                         _______ _______ _______ _____ _____    ______ ____

>  <TORSDO>
F 2

$$$$
=
 OpenBabel10272401503D

 28 31  0  0  1  0  0  0  0  0999 V2000
  182.9160  178.3360  140.3480 C   0  0  1  0  0  3  0  0  0  0  0  0
  180.3550  180.3430  143.1490 N   0  0  0  0  0  1  0  0  0  0  0  0
  185.0140  178.6180  143.0430 C   0  0  1  0  0  3  0  0  0  0  0  0
  182.4450  179.1660  142.6860 C   0  0  2  0  0  3  0  0  0  0  0  0
  184.4030  177.6610  142.2020 O   0  0  0  0  0  0  0  0  0  0  0  0
  180.7810  179.5830  140.8840 C   0  0  0  0  0  2  0  0  0  0  0  0
  182.7400  178.8920  144.1550 C   0  0  0  0  0  2  0  0  0  0  0  0
  180.9540  179.2720  142.3710 C   0  0  2  0  0  3  0  0  0  0  0  0
  184.2540  178.7880  144.3740 C   0  0  0  0  0  2  0  0  0  0  0  0
  181.4320  178.5070  140.0110 C   0  0  0  0  0  2  0  0  0  0  0  0
  183.0750  178.0390  141.8470 C   0  0  2  0  0  3  0  0  0  0  0  0
  186.6330  177.1410  144.2260 C   0  0  0  0  0  2  0  0  0  0  0  0
  188.7810  178.4130  142.1100 C   0  0  0  0  0  3  0  0  0  0  0  0
  189.0520  177.7290  144.5390 C   0  0  2  0  0  3  0  0  0  0  0  0
  186.5040  178.3060  143.2340 C   0  0  1  0  0  3  0  0  0  0  0  0
  186.8060  178.7880  140.7220 C   0  0  0  0  0  1  0  0  0  0  0  0
  189.5350  178.2400  143.2100 C   0  0  0  0  0  3  0  0  0  0  0  0
  187.3260  178.0510  141.9470 C   0  0  1  0  0  3  0  0  0  0  0  0
  190.1430  177.2850  145.2850 O   0  0  0  0  0  1  0  0  0  0  0  0
  188.0530  176.5960  144.3780 C   0  0  0  0  0  2  0  0  0  0  0  0
  183.5650  177.2910  139.4240 C   0  0  1  0  0  3  0  0  0  0  0  0
  182.6270  176.0880  139.2990 C   0  0  0  0  0  2  0  0  0  0  0  0
  184.3330  176.7430  137.0700 C   0  0  0  0  0  0  0  0  0  0  0  0
  183.2800  174.9920  138.4700 C   0  0  0  0  0  2  0  0  0  0  0  0
  185.1630  178.8140  138.2030 C   0  0  0  0  0  1  0  0  0  0  0  0
  183.9930  177.8500  138.0450 C   0  0  2  0  0  3  0  0  0  0  0  0
  185.1910  176.9010  136.2150 O   0  0  0  0  0  0  0  0  0  0  0  0
  183.5140  175.4890  137.0520 C   0  0  0  0  0  2  0  0  0  0  0  0
  1 10  1  6  0  0  0
  1 11  1  0  0  0  0
  3 15  1  0  0  0  0
  3  9  1  1  0  0  0
  4  7  1  1  0  0  0
  5  3  1  0  0  0  0
  6  8  1  0  0  0  0
  7  9  1  0  0  0  0
  8  4  1  0  0  0  0
  8  2  1  1  0  0  0
 10  6  1  0  0  0  0
 11  5  1  1  0  0  0
 11  4  1  0  0  0  0
 12 20  1  0  0  0  0
 13 17  2  0  0  0  0
 14 19  1  1  0  0  0
 15 12  1  1  0  0  0
 17 14  1  0  0  0  0
 18 16  1  6  0  0  0
 18 13  1  0  0  0  0
 18 15  1  0  0  0  0
 20 14  1  0  0  0  0
 21 22  1  6  0  0  0
 21  1  1  0  0  0  0
 23 26  1  0  0  0  0
 24 22  1  0  0  0  0
 26 25  1  1  0  0  0
 26 21  1  0  0  0  0
 27 23  2  0  0  0  0
 28 23  1  0  0  0  0
 28 24  1  0  0  0  0
M  END
>  <MODEL>
7

>  <REMARK>
 VINA RESULT:      -7.3      3.077      5.028
  Name = 
  2 active torsions:
  status: ('A' for Active; 'I' for Inactive)
    1  A    between atoms: C_1  and  C_2
    2  A    between atoms: C_10  and  C_13
                            x       y       z     vdW  Elec       q    Type
                         _______ _______ _______ _____ _____    ______ ____

>  <TORSDO>
F 2

$$$$
=
 OpenBabel10272401503D

 28 31  0  0  1  0  0  0  0  0999 V2000
  182.6110  178.4530  140.2280 C   0  0  1  0  0  3  0  0  0  0  0  0
  179.9840  180.6650  142.8050 N   0  0  0  0  0  1  0  0  0  0  0  0
  184.4440  178.4970  143.1230 C   0  0  1  0  0  3  0  0  0  0  0  0
  181.9880  179.2960  142.5260 C   0  0  2  0  0  3  0  0  0  0  0  0
  183.8320  177.6140  142.2050 O   0  0  0  0  0  0  0  0  0  0  0  0
  180.5620  179.8950  140.5770 C   0  0  0  0  0  2  0  0  0  0  0  0
  182.1070  178.9770  144.0100 C   0  0  0  0  0  2  0  0  0  0  0  0
  180.5540  179.5500  142.0670 C   0  0  2  0  0  3  0  0  0  0  0  0
  183.5740  178.7240  144.3760 C   0  0  0  0  0  2  0  0  0  0  0  0
  181.1920  178.7710  139.7490 C   0  0  0  0  0  2  0  0  0  0  0  0
  182.5890  178.1230  141.7290 C   0  0  2  0  0  3  0  0  0  0  0  0
  186.7600  178.2930  142.2280 C   0  0  0  0  0  2  0  0  0  0  0  0
  187.5240  177.6960  145.3540 C   0  0  0  0  0  3  0  0  0  0  0  0
  188.4770  176.7440  143.2030 C   0  0  2  0  0  3  0  0  0  0  0  0
  185.8710  178.0390  143.4540 C   0  0  1  0  0  3  0  0  0  0  0  0
  185.4900  178.9620  145.8290 C   0  0  0  0  0  1  0  0  0  0  0  0
  188.4000  176.9180  144.6940 C   0  0  0  0  0  3  0  0  0  0  0  0
  186.5000  178.6200  144.7440 C   0  0  1  0  0  3  0  0  0  0  0  0
  189.7270  176.2290  142.8620 O   0  0  0  0  0  1  0  0  0  0  0  0
  188.2500  178.0550  142.4690 C   0  0  0  0  0  2  0  0  0  0  0  0
  183.2470  177.3610  139.3500 C   0  0  1  0  0  3  0  0  0  0  0  0
  182.1580  176.3800  138.9110 C   0  0  0  0  0  2  0  0  0  0  0  0
  184.4020  176.8230  137.1580 C   0  0  0  0  0  0  0  0  0  0  0  0
  182.7670  175.2310  138.1210 C   0  0  0  0  0  2  0  0  0  0  0  0
  185.3230  178.6100  138.6480 C   0  0  0  0  0  1  0  0  0  0  0  0
  184.0620  177.9100  138.1550 C   0  0  2  0  0  3  0  0  0  0  0  0
  185.4410  176.8620  136.5170 O   0  0  0  0  0  0  0  0  0  0  0  0
  183.3930  175.7620  136.8400 C   0  0  0  0  0  2  0  0  0  0  0  0
  1 10  1  6  0  0  0
  1 11  1  0  0  0  0
  3 15  1  0  0  0  0
  3  9  1  1  0  0  0
  4  7  1  1  0  0  0
  5  3  1  0  0  0  0
  6  8  1  0  0  0  0
  7  9  1  0  0  0  0
  8  4  1  0  0  0  0
  8  2  1  1  0  0  0
 10  6  1  0  0  0  0
 11  5  1  1  0  0  0
 11  4  1  0  0  0  0
 12 20  1  0  0  0  0
 14 19  1  1  0  0  0
 14 17  1  0  0  0  0
 15 12  1  6  0  0  0
 15 18  1  0  0  0  0
 17 13  2  0  0  0  0
 18 13  1  0  0  0  0
 18 16  1  1  0  0  0
 20 14  1  0  0  0  0
 21 22  1  6  0  0  0
 21  1  1  0  0  0  0
 23 26  1  0  0  0  0
 24 22  1  0  0  0  0
 26 25  1  1  0  0  0
 26 21  1  0  0  0  0
 27 23  2  0  0  0  0
 28 23  1  0  0  0  0
 28 24  1  0  0  0  0
M  END
>  <MODEL>
8

>  <REMARK>
 VINA RESULT:      -7.3      3.069      5.178
  Name = 
  2 active torsions:
  status: ('A' for Active; 'I' for Inactive)
    1  A    between atoms: C_1  and  C_2
    2  A    between atoms: C_10  and  C_13
                            x       y       z     vdW  Elec       q    Type
                         _______ _______ _______ _____ _____    ______ ____

>  <TORSDO>
F 2

$$$$
=
 OpenBabel10272401503D

 28 31  0  0  1  0  0  0  0  0999 V2000
  185.5570  179.0810  143.7950 C   0  0  1  0  0  3  0  0  0  0  0  0
  187.3130  177.8870  147.5260 N   0  0  0  0  0  1  0  0  0  0  0  0
  188.4200  177.5540  142.6930 C   0  0  1  0  0  3  0  0  0  0  0  0
  187.3020  177.7900  145.0850 C   0  0  2  0  0  3  0  0  0  0  0  0
  187.0120  177.4780  142.6050 O   0  0  0  0  0  0  0  0  0  0  0  0
  185.6360  179.1620  146.3220 C   0  0  0  0  0  2  0  0  0  0  0  0
  188.1920  176.5550  145.0230 C   0  0  0  0  0  2  0  0  0  0  0  0
  186.4550  177.8710  146.3540 C   0  0  2  0  0  3  0  0  0  0  0  0
  188.9910  176.5500  143.7160 C   0  0  0  0  0  2  0  0  0  0  0  0
  184.7390  179.2220  145.0820 C   0  0  0  0  0  2  0  0  0  0  0  0
  186.3860  177.7880  143.8470 C   0  0  2  0  0  3  0  0  0  0  0  0
  188.3040  178.3530  140.3360 C   0  0  0  0  0  2  0  0  0  0  0  0
  191.2320  176.9130  140.0890 C   0  0  0  0  0  3  0  0  0  0  0  0
  189.3360  177.1120  138.4150 C   0  0  2  0  0  3  0  0  0  0  0  0
  189.0620  177.4330  141.3050 C   0  0  1  0  0  3  0  0  0  0  0  0
  191.3400  177.2890  142.5000 C   0  0  0  0  0  1  0  0  0  0  0  0
  190.7110  176.7080  138.8670 C   0  0  0  0  0  3  0  0  0  0  0  0
  190.5910  177.6630  141.2300 C   0  0  1  0  0  3  0  0  0  0  0  0
  189.2960  177.1330  137.0210 O   0  0  0  0  0  1  0  0  0  0  0  0
  188.9430  178.4770  138.9540 C   0  0  0  0  0  2  0  0  0  0  0  0
  184.6470  179.2000  142.5600 C   0  0  1  0  0  3  0  0  0  0  0  0
  185.4840  178.9550  141.3020 C   0  0  0  0  0  2  0  0  0  0  0  0
  182.6990  178.2120  141.2710 C   0  0  0  0  0  0  0  0  0  0  0  0
  184.6380  179.1610  140.0550 C   0  0  0  0  0  2  0  0  0  0  0  0
  182.4280  178.7940  143.6890 C   0  0  0  0  0  1  0  0  0  0  0  0
  183.3900  178.2990  142.6150 C   0  0  2  0  0  3  0  0  0  0  0  0
  181.4870  178.0860  141.1950 O   0  0  0  0  0  0  0  0  0  0  0  0
  183.5170  178.1340  140.0180 C   0  0  0  0  0  2  0  0  0  0  0  0
  1 11  1  0  0  0  0
  1 10  1  1  0  0  0
  3  9  1  1  0  0  0
  4  7  1  1  0  0  0
  4  8  1  0  0  0  0
  5  3  1  0  0  0  0
  6  8  1  0  0  0  0
  8  2  1  1  0  0  0
  9  7  1  0  0  0  0
 10  6  1  0  0  0  0
 11  5  1  6  0  0  0
 11  4  1  0  0  0  0
 13 18  1  0  0  0  0
 14 19  1  6  0  0  0
 14 17  1  0  0  0  0
 14 20  1  0  0  0  0
 15 12  1  6  0  0  0
 15  3  1  0  0  0  0
 17 13  2  0  0  0  0
 18 15  1  0  0  0  0
 18 16  1  1  0  0  0
 20 12  1  0  0  0  0
 21 22  1  6  0  0  0
 21 26  1  0  0  0  0
 21  1  1  0  0  0  0
 23 26  1  0  0  0  0
 24 22  1  0  0  0  0
 26 25  1  1  0  0  0
 27 23  2  0  0  0  0
 28 24  1  0  0  0  0
 28 23  1  0  0  0  0
M  END
>  <MODEL>
9

>  <REMARK>
 VINA RESULT:      -7.1      2.952      5.997
  Name = 
  2 active torsions:
  status: ('A' for Active; 'I' for Inactive)
    1  A    between atoms: C_1  and  C_2
    2  A    between atoms: C_10  and  C_13
                            x       y       z     vdW  Elec       q    Type
                         _______ _______ _______ _____ _____    ______ ____

>  <TORSDO>
F 2

$$$$
