=
 OpenBabel10262423443D

 34 38  0  0  1  0  0  0  0  0999 V2000
  183.9780  179.0360  141.5850 C   0  0  0  0  0  0  0  0  0  0  0  0
  183.4360  178.8120  143.9790 C   0  0  0  0  0  0  0  0  0  0  0  0
  185.7220  178.3710  143.1860 C   0  0  0  0  0  0  0  0  0  0  0  0
  188.0140  176.4830  144.4750 C   0  0  0  0  0  2  0  0  0  0  0  0
  182.1050  179.1570  143.7710 O   0  0  0  0  0  1  0  0  0  0  0  0
  185.1490  178.1880  145.5530 C   0  0  0  0  0  3  0  0  0  0  0  0
  184.3670  178.7470  142.9140 C   0  0  0  0  0  0  0  0  0  0  0  0
  187.5550  177.8650  144.9280 C   0  0  1  0  0  3  0  0  0  0  0  0
  186.6150  178.2180  142.0820 C   0  0  0  0  0  0  0  0  0  0  0  0
  184.9160  178.9110  140.5620 C   0  0  0  0  0  3  0  0  0  0  0  0
  183.8320  178.5170  145.2770 C   0  0  0  0  0  3  0  0  0  0  0  0
  188.0330  176.3370  142.9520 C   0  0  0  0  0  2  0  0  0  0  0  0
  188.0300  177.6910  142.2400 C   0  0  1  0  0  3  0  0  0  0  0  0
  186.1140  178.1400  144.5410 C   0  0  0  0  0  0  0  0  0  0  0  0
  186.1780  178.5060  140.8260 N   0  0  0  0  0  0  0  0  0  0  0  0
  189.3380  178.4820  138.7450 C   0  0  0  0  0  0  0  0  0  0  0  0
  190.3640  177.5380  138.6250 C   0  0  0  0  0  3  0  0  0  0  0  0
  188.8260  177.6440  140.9660 C   0  0  0  0  0  0  0  0  0  0  0  0
  190.6240  176.6520  139.6750 C   0  0  0  0  0  3  0  0  0  0  0  0
  188.5710  178.5370  139.9120 C   0  0  0  0  0  3  0  0  0  0  0  0
  189.8580  176.7070  140.8430 C   0  0  0  0  0  3  0  0  0  0  0  0
  189.0880  179.3420  137.7280 F   0  0  0  0  0  0  0  0  0  0  0  0
  181.8810  178.8360  140.2710 C   0  0  0  0  0  1  0  0  0  0  0  0
  182.6700  179.4410  141.2880 O   0  0  0  0  0  0  0  0  0  0  0  0
  187.8810  178.0810  146.4020 C   0  0  0  0  0  2  0  0  0  0  0  0
  189.2860  178.4170  146.5460 N   0  0  0  0  0  2  0  0  0  0  0  0
  189.9670  177.2050  146.9680 C   0  0  0  0  0  2  0  0  0  0  0  0
  192.3840  175.5220  147.8340 O   0  0  0  0  0  0  0  0  0  0  0  0
  191.3840  177.1820  146.4160 C   0  0  1  0  0  3  0  0  0  0  0  0
  192.0240  175.8380  146.6700 C   0  0  0  0  0  0  0  0  0  0  0  0
  192.0020  175.2360  144.3590 C   0  0  0  0  0  3  0  0  0  0  0  0
  191.5940  176.6030  143.9990 C   0  0  0  0  0  3  0  0  0  0  0  0
  191.3340  177.5070  144.9470 C   0  0  0  0  0  3  0  0  0  0  0  0
  192.2050  174.9040  145.5980 N   0  0  0  0  0  0  0  0  0  0  0  0
  1  7  1  0  0  0  0
  2 11  1  0  0  0  0
  3 14  2  0  0  0  0
  4  8  1  0  0  0  0
  5  2  1  0  0  0  0
  7  3  1  0  0  0  0
  7  2  2  0  0  0  0
  8 25  1  1  0  0  0
  9 13  1  0  0  0  0
  9  3  1  0  0  0  0
 10 15  1  0  0  0  0
 10  1  2  0  0  0  0
 11  6  2  0  0  0  0
 12  4  1  0  0  0  0
 13 18  1  6  0  0  0
 13 12  1  0  0  0  0
 14  8  1  0  0  0  0
 14  6  1  0  0  0  0
 15  9  2  0  0  0  0
 16 20  1  0  0  0  0
 17 16  2  0  0  0  0
 17 19  1  0  0  0  0
 19 21  2  0  0  0  0
 20 18  2  0  0  0  0
 21 18  1  0  0  0  0
 22 16  1  0  0  0  0
 23 24  1  0  0  0  0
 24  1  1  0  0  0  0
 25 26  1  0  0  0  0
 26 27  1  0  0  0  0
 29 30  1  0  0  0  0
 29 27  1  6  0  0  0
 30 28  2  0  0  0  0
 31 34  2  0  0  0  0
 32 31  1  0  0  0  0
 32 33  2  0  0  0  0
 33 29  1  0  0  0  0
 34 30  1  0  0  0  0
M  END
>  <MODEL>
1

>  <REMARK>
 VINA RESULT:      -9.4      0.000      0.000
  Name = 
  6 active torsions:
  status: ('A' for Active; 'I' for Inactive)
    1  A    between atoms: C_1  and  O_19
    2  A    between atoms: C_3  and  C_13
    3  A    between atoms: C_3  and  N_17
    4  A    between atoms: C_12  and  C_28
    5  A    between atoms: N_17  and  C_29
    6  A    between atoms: C_18  and  C_29
                            x       y       z     vdW  Elec       q    Type
                         _______ _______ _______ _____ _____    ______ ____

>  <TORSDO>
F 6

$$$$
=
 OpenBabel10262423443D

 34 38  0  0  1  0  0  0  0  0999 V2000
  189.4840  177.0930  145.7690 C   0  0  0  0  0  0  0  0  0  0  0  0
  187.2940  177.8470  146.6100 C   0  0  0  0  0  0  0  0  0  0  0  0
  187.6890  177.6660  144.1900 C   0  0  0  0  0  0  0  0  0  0  0  0
  186.2630  179.2490  141.7520 C   0  0  0  0  0  2  0  0  0  0  0  0
  187.7030  177.7470  147.9360 O   0  0  0  0  0  1  0  0  0  0  0  0
  185.5240  178.3810  145.0660 C   0  0  0  0  0  3  0  0  0  0  0  0
  188.1600  177.5300  145.5350 C   0  0  0  0  0  0  0  0  0  0  0  0
  185.7170  178.0930  142.5830 C   0  0  1  0  0  3  0  0  0  0  0  0
  188.6120  177.4340  143.1250 C   0  0  0  0  0  0  0  0  0  0  0  0
  190.3170  176.8400  144.6790 C   0  0  0  0  0  3  0  0  0  0  0  0
  185.9990  178.2830  146.3640 C   0  0  0  0  0  3  0  0  0  0  0  0
  187.7600  179.1130  141.4630 C   0  0  0  0  0  2  0  0  0  0  0  0
  188.2620  177.6820  141.6680 C   0  0  1  0  0  3  0  0  0  0  0  0
  186.3300  178.0510  143.9700 C   0  0  0  0  0  0  0  0  0  0  0  0
  189.8760  177.0210  143.4150 N   0  0  0  0  0  0  0  0  0  0  0  0
  191.7030  177.1700  140.1040 C   0  0  0  0  0  0  0  0  0  0  0  0
  191.3520  176.6460  138.8550 C   0  0  0  0  0  3  0  0  0  0  0  0
  189.3540  177.3380  140.6950 C   0  0  0  0  0  0  0  0  0  0  0  0
  190.0050  176.4640  138.5270 C   0  0  0  0  0  3  0  0  0  0  0  0
  190.7080  177.5140  141.0230 C   0  0  0  0  0  3  0  0  0  0  0  0
  189.0090  176.8080  139.4460 C   0  0  0  0  0  3  0  0  0  0  0  0
  193.0090  177.3430  140.4220 F   0  0  0  0  0  0  0  0  0  0  0  0
  191.2930  176.4890  147.3590 C   0  0  0  0  0  1  0  0  0  0  0  0
  189.9670  176.9160  147.0730 O   0  0  0  0  0  0  0  0  0  0  0  0
  184.1920  178.0820  142.5500 C   0  0  0  0  0  2  0  0  0  0  0  0
  183.7360  177.7130  141.2220 N   0  0  0  0  0  2  0  0  0  0  0  0
  182.6380  178.6040  140.8920 C   0  0  0  0  0  2  0  0  0  0  0  0
  184.3680  180.3730  139.0760 O   0  0  0  0  0  0  0  0  0  0  0  0
  182.5690  178.8150  139.3870 C   0  0  1  0  0  3  0  0  0  0  0  0
  183.9230  179.2180  138.8510 C   0  0  0  0  0  0  0  0  0  0  0  0
  184.2440  177.1440  137.7110 C   0  0  0  0  0  3  0  0  0  0  0  0
  182.8510  176.7640  137.9950 C   0  0  0  0  0  3  0  0  0  0  0  0
  182.0710  177.5470  138.7460 C   0  0  0  0  0  3  0  0  0  0  0  0
  184.7180  178.2870  138.1070 N   0  0  0  0  0  0  0  0  0  0  0  0
  1 24  1  0  0  0  0
  2  5  1  0  0  0  0
  3  7  1  0  0  0  0
  4  8  1  0  0  0  0
  6 11  2  0  0  0  0
  7  1  1  0  0  0  0
  7  2  2  0  0  0  0
  8 25  1  1  0  0  0
  8 14  1  0  0  0  0
  9 15  2  0  0  0  0
  9  3  1  0  0  0  0
 10  1  2  0  0  0  0
 11  2  1  0  0  0  0
 12 13  1  0  0  0  0
 12  4  1  0  0  0  0
 13 18  1  6  0  0  0
 13  9  1  0  0  0  0
 14  3  2  0  0  0  0
 14  6  1  0  0  0  0
 15 10  1  0  0  0  0
 16 22  1  0  0  0  0
 16 20  1  0  0  0  0
 17 16  2  0  0  0  0
 18 20  2  0  0  0  0
 19 17  1  0  0  0  0
 19 21  2  0  0  0  0
 21 18  1  0  0  0  0
 24 23  1  0  0  0  0
 26 25  1  0  0  0  0
 27 26  1  0  0  0  0
 29 27  1  1  0  0  0
 30 28  2  0  0  0  0
 30 29  1  0  0  0  0
 31 32  1  0  0  0  0
 31 34  2  0  0  0  0
 32 33  2  0  0  0  0
 33 29  1  0  0  0  0
 34 30  1  0  0  0  0
M  END
>  <MODEL>
2

>  <REMARK>
 VINA RESULT:      -9.3      2.136      6.954
  Name = 
  6 active torsions:
  status: ('A' for Active; 'I' for Inactive)
    1  A    between atoms: C_1  and  O_19
    2  A    between atoms: C_3  and  C_13
    3  A    between atoms: C_3  and  N_17
    4  A    between atoms: C_12  and  C_28
    5  A    between atoms: N_17  and  C_29
    6  A    between atoms: C_18  and  C_29
                            x       y       z     vdW  Elec       q    Type
                         _______ _______ _______ _____ _____    ______ ____

>  <TORSDO>
F 6

$$$$
=
 OpenBabel10262423443D

 34 38  0  0  1  0  0  0  0  0999 V2000
  189.1210  177.3480  145.8790 C   0  0  0  0  0  0  0  0  0  0  0  0
  186.9900  177.9900  146.9380 C   0  0  0  0  0  0  0  0  0  0  0  0
  187.1680  177.8940  144.4880 C   0  0  0  0  0  0  0  0  0  0  0  0
  185.4680  179.4880  142.2400 C   0  0  0  0  0  2  0  0  0  0  0  0
  187.5210  177.8690  148.2170 O   0  0  0  0  0  1  0  0  0  0  0  0
  185.0680  178.4970  145.5780 C   0  0  0  0  0  3  0  0  0  0  0  0
  187.7650  177.7380  145.7800 C   0  0  0  0  0  0  0  0  0  0  0  0
  185.0430  178.2880  143.0800 C   0  0  1  0  0  3  0  0  0  0  0  0
  187.9980  177.7300  143.3360 C   0  0  0  0  0  0  0  0  0  0  0  0
  189.8590  177.1600  144.7110 C   0  0  0  0  0  3  0  0  0  0  0  0
  185.6620  178.3800  146.8240 C   0  0  0  0  0  3  0  0  0  0  0  0
  186.9360  179.4200  141.8130 C   0  0  0  0  0  2  0  0  0  0  0  0
  187.5070  178.0060  141.9260 C   0  0  1  0  0  3  0  0  0  0  0  0
  185.7820  178.2310  144.4040 C   0  0  0  0  0  0  0  0  0  0  0  0
  189.2970  177.3590  143.4980 N   0  0  0  0  0  0  0  0  0  0  0  0
  189.4580  178.1740  138.6530 C   0  0  0  0  0  0  0  0  0  0  0  0
  190.4460  177.2100  138.8830 C   0  0  0  0  0  3  0  0  0  0  0  0
  188.5170  177.7330  140.8470 C   0  0  0  0  0  0  0  0  0  0  0  0
  190.4730  176.5120  140.0930 C   0  0  0  0  0  3  0  0  0  0  0  0
  188.4970  178.4380  139.6320 C   0  0  0  0  0  3  0  0  0  0  0  0
  189.5110  176.7740  141.0740 C   0  0  0  0  0  3  0  0  0  0  0  0
  189.4350  178.8530  137.4800 F   0  0  0  0  0  0  0  0  0  0  0  0
  191.0090  176.5600  147.2840 C   0  0  0  0  0  1  0  0  0  0  0  0
  189.7260  177.1530  147.1270 O   0  0  0  0  0  0  0  0  0  0  0  0
  183.5230  178.2170  143.1840 C   0  0  0  0  0  2  0  0  0  0  0  0
  182.9250  179.0670  142.1700 N   0  0  0  0  0  2  0  0  0  0  0  0
  181.7430  178.3750  141.6860 C   0  0  0  0  0  2  0  0  0  0  0  0
  180.9040  180.3570  139.4960 O   0  0  0  0  0  0  0  0  0  0  0  0
  181.8020  178.2350  140.1730 C   0  0  1  0  0  3  0  0  0  0  0  0
  181.9060  179.5950  139.5230 C   0  0  0  0  0  0  0  0  0  0  0  0
  184.1580  179.2360  138.8130 C   0  0  0  0  0  3  0  0  0  0  0  0
  184.0660  177.8230  139.2120 C   0  0  0  0  0  3  0  0  0  0  0  0
  182.9700  177.3560  139.8160 C   0  0  0  0  0  3  0  0  0  0  0  0
  183.1450  180.0370  138.9550 N   0  0  0  0  0  0  0  0  0  0  0  0
  1 24  1  0  0  0  0
  2  5  1  0  0  0  0
  3  7  1  0  0  0  0
  4  8  1  0  0  0  0
  6 11  2  0  0  0  0
  7  1  1  0  0  0  0
  7  2  2  0  0  0  0
  8 25  1  1  0  0  0
  8 14  1  0  0  0  0
  9 15  2  0  0  0  0
  9  3  1  0  0  0  0
 10  1  2  0  0  0  0
 11  2  1  0  0  0  0
 12 13  1  0  0  0  0
 12  4  1  0  0  0  0
 13 18  1  6  0  0  0
 13  9  1  0  0  0  0
 14  3  2  0  0  0  0
 14  6  1  0  0  0  0
 15 10  1  0  0  0  0
 16 17  2  0  0  0  0
 16 20  1  0  0  0  0
 17 19  1  0  0  0  0
 18 21  1  0  0  0  0
 19 21  2  0  0  0  0
 20 18  2  0  0  0  0
 22 16  1  0  0  0  0
 24 23  1  0  0  0  0
 26 25  1  0  0  0  0
 27 26  1  0  0  0  0
 28 30  2  0  0  0  0
 29 27  1  1  0  0  0
 30 29  1  0  0  0  0
 31 34  2  0  0  0  0
 31 32  1  0  0  0  0
 32 33  2  0  0  0  0
 33 29  1  0  0  0  0
 34 30  1  0  0  0  0
M  END
>  <MODEL>
3

>  <REMARK>
 VINA RESULT:      -9.0      1.871      6.940
  Name = 
  6 active torsions:
  status: ('A' for Active; 'I' for Inactive)
    1  A    between atoms: C_1  and  O_19
    2  A    between atoms: C_3  and  C_13
    3  A    between atoms: C_3  and  N_17
    4  A    between atoms: C_12  and  C_28
    5  A    between atoms: N_17  and  C_29
    6  A    between atoms: C_18  and  C_29
                            x       y       z     vdW  Elec       q    Type
                         _______ _______ _______ _____ _____    ______ ____

>  <TORSDO>
F 6

$$$$
=
 OpenBabel10262423443D

 34 38  0  0  1  0  0  0  0  0999 V2000
  191.2260  177.3480  140.6510 C   0  0  0  0  0  0  0  0  0  0  0  0
  189.3210  177.7430  139.1390 C   0  0  0  0  0  0  0  0  0  0  0  0
  189.0010  177.8360  141.5750 C   0  0  0  0  0  0  0  0  0  0  0  0
  186.3230  177.3130  143.3170 C   0  0  0  0  0  2  0  0  0  0  0  0
  190.1030  177.5520  138.0060 O   0  0  0  0  0  1  0  0  0  0  0  0
  187.1460  178.2500  140.0420 C   0  0  0  0  0  3  0  0  0  0  0  0
  189.8590  177.6440  140.4450 C   0  0  0  0  0  0  0  0  0  0  0  0
  186.6950  178.5400  142.4910 C   0  0  1  0  0  3  0  0  0  0  0  0
  189.5480  177.6340  142.8800 C   0  0  0  0  0  0  0  0  0  0  0  0
  191.7020  177.2110  141.9540 C   0  0  0  0  0  3  0  0  0  0  0  0
  187.9740  178.0260  138.9540 C   0  0  0  0  0  3  0  0  0  0  0  0
  187.5250  176.7000  144.0380 C   0  0  0  0  0  2  0  0  0  0  0  0
  188.7000  177.6740  144.1390 C   0  0  1  0  0  3  0  0  0  0  0  0
  187.6360  178.1930  141.3520 C   0  0  0  0  0  0  0  0  0  0  0  0
  190.8710  177.3450  143.0110 N   0  0  0  0  0  0  0  0  0  0  0  0
  189.6890  177.7220  147.8230 C   0  0  0  0  0  0  0  0  0  0  0  0
  190.9230  177.0640  147.7750 C   0  0  0  0  0  3  0  0  0  0  0  0
  189.4670  177.4810  145.4170 C   0  0  0  0  0  0  0  0  0  0  0  0
  191.4270  176.6120  146.5520 C   0  0  0  0  0  3  0  0  0  0  0  0
  188.9610  177.9290  146.6480 C   0  0  0  0  0  3  0  0  0  0  0  0
  190.6990  176.8190  145.3760 C   0  0  0  0  0  3  0  0  0  0  0  0
  189.1990  178.1570  149.0090 F   0  0  0  0  0  0  0  0  0  0  0  0
  193.5160  177.1730  139.7080 C   0  0  0  0  0  1  0  0  0  0  0  0
  192.1010  177.1880  139.5680 O   0  0  0  0  0  0  0  0  0  0  0  0
  185.4440  179.3120  142.0850 C   0  0  0  0  0  2  0  0  0  0  0  0
  184.2650  178.5170  142.3750 N   0  0  0  0  0  2  0  0  0  0  0  0
  183.7420  178.0600  141.1000 C   0  0  0  0  0  2  0  0  0  0  0  0
  184.2020  180.2660  139.0150 O   0  0  0  0  0  0  0  0  0  0  0  0
  182.7690  179.0840  140.5360 C   0  0  1  0  0  3  0  0  0  0  0  0
  183.2020  179.5140  139.1540 C   0  0  0  0  0  0  0  0  0  0  0  0
  181.3710  178.4140  138.0860 C   0  0  0  0  0  3  0  0  0  0  0  0
  180.7560  178.1500  139.3970 C   0  0  0  0  0  3  0  0  0  0  0  0
  181.3890  178.4820  140.5250 C   0  0  0  0  0  3  0  0  0  0  0  0
  182.4970  179.0550  137.9940 N   0  0  0  0  0  0  0  0  0  0  0  0
  1 10  1  0  0  0  0
  2  7  1  0  0  0  0
  3  9  2  0  0  0  0
  4 12  1  0  0  0  0
  5  2  1  0  0  0  0
  6 14  2  0  0  0  0
  7  1  2  0  0  0  0
  7  3  1  0  0  0  0
  8 25  1  6  0  0  0
  8  4  1  0  0  0  0
  9 15  1  0  0  0  0
  9 13  1  0  0  0  0
 10 15  2  0  0  0  0
 11  2  2  0  0  0  0
 11  6  1  0  0  0  0
 12 13  1  0  0  0  0
 13 18  1  1  0  0  0
 14  3  1  0  0  0  0
 14  8  1  0  0  0  0
 16 22  1  0  0  0  0
 17 16  1  0  0  0  0
 18 20  1  0  0  0  0
 19 17  2  0  0  0  0
 20 16  2  0  0  0  0
 21 18  2  0  0  0  0
 21 19  1  0  0  0  0
 24 23  1  0  0  0  0
 24  1  1  0  0  0  0
 25 26  1  0  0  0  0
 27 26  1  0  0  0  0
 28 30  2  0  0  0  0
 29 27  1  6  0  0  0
 30 29  1  0  0  0  0
 31 32  1  0  0  0  0
 32 33  2  0  0  0  0
 33 29  1  0  0  0  0
 34 31  2  0  0  0  0
 34 30  1  0  0  0  0
M  END
>  <MODEL>
4

>  <REMARK>
 VINA RESULT:      -8.8      3.312      8.235
  Name = 
  6 active torsions:
  status: ('A' for Active; 'I' for Inactive)
    1  A    between atoms: C_1  and  O_19
    2  A    between atoms: C_3  and  C_13
    3  A    between atoms: C_3  and  N_17
    4  A    between atoms: C_12  and  C_28
    5  A    between atoms: N_17  and  C_29
    6  A    between atoms: C_18  and  C_29
                            x       y       z     vdW  Elec       q    Type
                         _______ _______ _______ _____ _____    ______ ____

>  <TORSDO>
F 6

$$$$
=
 OpenBabel10262423443D

 34 38  0  0  1  0  0  0  0  0999 V2000
  186.2780  178.0720  143.9180 C   0  0  0  0  0  0  0  0  0  0  0  0
  186.1910  178.4930  141.4920 C   0  0  0  0  0  0  0  0  0  0  0  0
  188.2460  177.6130  142.5170 C   0  0  0  0  0  0  0  0  0  0  0  0
  191.3150  177.8740  141.5200 C   0  0  0  0  0  2  0  0  0  0  0  0
  184.8800  178.9510  141.5580 O   0  0  0  0  0  1  0  0  0  0  0  0
  188.1080  178.0180  140.1130 C   0  0  0  0  0  3  0  0  0  0  0  0
  186.8910  178.0590  142.6450 C   0  0  0  0  0  0  0  0  0  0  0  0
  190.2140  176.9680  140.9800 C   0  0  1  0  0  3  0  0  0  0  0  0
  188.9590  177.2740  143.7080 C   0  0  0  0  0  0  0  0  0  0  0  0
  187.0210  177.6820  145.0320 C   0  0  0  0  0  3  0  0  0  0  0  0
  186.8110  178.4830  140.2490 C   0  0  0  0  0  3  0  0  0  0  0  0
  191.2600  178.0270  143.0420 C   0  0  0  0  0  2  0  0  0  0  0  0
  190.4360  176.9220  143.7060 C   0  0  1  0  0  3  0  0  0  0  0  0
  188.8320  177.5500  141.2160 C   0  0  0  0  0  0  0  0  0  0  0  0
  188.3140  177.3110  144.9060 N   0  0  0  0  0  0  0  0  0  0  0  0
  191.1680  176.8980  147.4500 C   0  0  0  0  0  0  0  0  0  0  0  0
  192.0330  175.8030  147.5440 C   0  0  0  0  0  3  0  0  0  0  0  0
  190.9940  176.5540  145.0520 C   0  0  0  0  0  0  0  0  0  0  0  0
  192.3760  175.0820  146.3970 C   0  0  0  0  0  3  0  0  0  0  0  0
  190.6460  177.2730  146.2080 C   0  0  0  0  0  3  0  0  0  0  0  0
  191.8550  175.4560  145.1540 C   0  0  0  0  0  3  0  0  0  0  0  0
  190.8340  177.5950  148.5630 F   0  0  0  0  0  0  0  0  0  0  0  0
  184.3920  178.8720  145.3210 C   0  0  0  0  0  1  0  0  0  0  0  0
  184.9430  178.4690  144.0730 O   0  0  0  0  0  0  0  0  0  0  0  0
  190.5090  176.5670  139.5390 C   0  0  0  0  0  2  0  0  0  0  0  0
  191.8840  176.8990  139.2120 N   0  0  0  0  0  2  0  0  0  0  0  0
  192.1210  176.4260  137.8600 C   0  0  0  0  0  2  0  0  0  0  0  0
  190.5440  173.8170  137.5020 O   0  0  0  0  0  0  0  0  0  0  0  0
  192.6060  174.9840  137.8870 C   0  0  1  0  0  3  0  0  0  0  0  0
  191.6890  174.1070  137.0680 C   0  0  0  0  0  0  0  0  0  0  0  0
  193.3240  173.7530  135.3630 C   0  0  0  0  0  3  0  0  0  0  0  0
  194.3470  174.3980  136.2010 C   0  0  0  0  0  3  0  0  0  0  0  0
  194.0210  174.9430  137.3760 C   0  0  0  0  0  3  0  0  0  0  0  0
  192.1030  173.6190  135.7850 N   0  0  0  0  0  0  0  0  0  0  0  0
  1 24  1  0  0  0  0
  1 10  1  0  0  0  0
  2  5  1  0  0  0  0
  2  7  1  0  0  0  0
  3  7  1  0  0  0  0
  3  9  2  0  0  0  0
  4 12  1  0  0  0  0
  6 11  1  0  0  0  0
  6 14  2  0  0  0  0
  7  1  2  0  0  0  0
  8 25  1  6  0  0  0
  8 14  1  0  0  0  0
  8  4  1  0  0  0  0
  9 15  1  0  0  0  0
 11  2  2  0  0  0  0
 12 13  1  0  0  0  0
 13  9  1  0  0  0  0
 13 18  1  1  0  0  0
 14  3  1  0  0  0  0
 15 10  2  0  0  0  0
 16 17  1  0  0  0  0
 16 22  1  0  0  0  0
 18 21  2  0  0  0  0
 18 20  1  0  0  0  0
 19 17  2  0  0  0  0
 20 16  2  0  0  0  0
 21 19  1  0  0  0  0
 24 23  1  0  0  0  0
 26 25  1  0  0  0  0
 27 26  1  0  0  0  0
 29 27  1  6  0  0  0
 30 28  2  0  0  0  0
 30 29  1  0  0  0  0
 31 34  2  0  0  0  0
 31 32  1  0  0  0  0
 32 33  2  0  0  0  0
 33 29  1  0  0  0  0
 34 30  1  0  0  0  0
M  END
>  <MODEL>
5

>  <REMARK>
 VINA RESULT:      -8.4      3.866      6.794
  Name = 
  6 active torsions:
  status: ('A' for Active; 'I' for Inactive)
    1  A    between atoms: C_1  and  O_19
    2  A    between atoms: C_3  and  C_13
    3  A    between atoms: C_3  and  N_17
    4  A    between atoms: C_12  and  C_28
    5  A    between atoms: N_17  and  C_29
    6  A    between atoms: C_18  and  C_29
                            x       y       z     vdW  Elec       q    Type
                         _______ _______ _______ _____ _____    ______ ____

>  <TORSDO>
F 6

$$$$
=
 OpenBabel10262423443D

 34 38  0  0  1  0  0  0  0  0999 V2000
  191.1670  177.3740  140.6680 C   0  0  0  0  0  0  0  0  0  0  0  0
  189.2570  177.7820  139.1650 C   0  0  0  0  0  0  0  0  0  0  0  0
  188.9420  177.8420  141.6030 C   0  0  0  0  0  0  0  0  0  0  0  0
  186.2690  177.2870  143.3440 C   0  0  0  0  0  2  0  0  0  0  0  0
  190.0380  177.6090  138.0280 O   0  0  0  0  0  1  0  0  0  0  0  0
  187.0820  178.2690  140.0790 C   0  0  0  0  0  3  0  0  0  0  0  0
  189.7990  177.6690  140.4690 C   0  0  0  0  0  0  0  0  0  0  0  0
  186.6350  178.5250  142.5330 C   0  0  1  0  0  3  0  0  0  0  0  0
  189.4920  177.6250  142.9040 C   0  0  0  0  0  0  0  0  0  0  0  0
  191.6460  177.2230  141.9680 C   0  0  0  0  0  3  0  0  0  0  0  0
  187.9090  178.0630  138.9870 C   0  0  0  0  0  3  0  0  0  0  0  0
  187.4750  176.6680  144.0540 C   0  0  0  0  0  2  0  0  0  0  0  0
  188.6470  177.6460  144.1650 C   0  0  1  0  0  3  0  0  0  0  0  0
  187.5750  178.1970  141.3880 C   0  0  0  0  0  0  0  0  0  0  0  0
  190.8170  177.3390  143.0290 N   0  0  0  0  0  0  0  0  0  0  0  0
  189.6490  177.6610  147.8450 C   0  0  0  0  0  0  0  0  0  0  0  0
  190.8780  176.9950  147.7880 C   0  0  0  0  0  3  0  0  0  0  0  0
  189.4170  177.4380  145.4380 C   0  0  0  0  0  0  0  0  0  0  0  0
  191.3750  176.5480  146.5610 C   0  0  0  0  0  3  0  0  0  0  0  0
  188.9180  177.8820  146.6750 C   0  0  0  0  0  3  0  0  0  0  0  0
  190.6440  176.7680  145.3890 C   0  0  0  0  0  3  0  0  0  0  0  0
  189.1670  178.0920  149.0360 F   0  0  0  0  0  0  0  0  0  0  0  0
  193.4560  177.2860  139.7090 C   0  0  0  0  0  1  0  0  0  0  0  0
  192.0400  177.2330  139.5810 O   0  0  0  0  0  0  0  0  0  0  0  0
  185.3810  179.2980  142.1390 C   0  0  0  0  0  2  0  0  0  0  0  0
  184.2700  178.3760  141.9820 N   0  0  0  0  0  2  0  0  0  0  0  0
  183.1950  178.8660  142.8270 C   0  0  0  0  0  2  0  0  0  0  0  0
  180.4290  178.8740  144.1570 O   0  0  0  0  0  0  0  0  0  0  0  0
  181.8510  178.4130  142.2780 C   0  0  1  0  0  3  0  0  0  0  0  0
  180.7280  179.1530  142.9660 C   0  0  0  0  0  0  0  0  0  0  0  0
  180.1690  180.4060  141.0110 C   0  0  0  0  0  3  0  0  0  0  0  0
  181.0810  179.5750  140.2100 C   0  0  0  0  0  3  0  0  0  0  0  0
  181.8370  178.6400  140.7900 C   0  0  0  0  0  3  0  0  0  0  0  0
  180.0110  180.1890  142.2820 N   0  0  0  0  0  0  0  0  0  0  0  0
  1 10  1  0  0  0  0
  2  7  1  0  0  0  0
  3  9  2  0  0  0  0
  4 12  1  0  0  0  0
  5  2  1  0  0  0  0
  6 14  2  0  0  0  0
  7  1  2  0  0  0  0
  7  3  1  0  0  0  0
  8 25  1  6  0  0  0
  8  4  1  0  0  0  0
  9 15  1  0  0  0  0
  9 13  1  0  0  0  0
 10 15  2  0  0  0  0
 11  2  2  0  0  0  0
 11  6  1  0  0  0  0
 12 13  1  0  0  0  0
 13 18  1  1  0  0  0
 14  3  1  0  0  0  0
 14  8  1  0  0  0  0
 16 22  1  0  0  0  0
 17 16  1  0  0  0  0
 18 20  1  0  0  0  0
 19 17  2  0  0  0  0
 20 16  2  0  0  0  0
 21 18  2  0  0  0  0
 21 19  1  0  0  0  0
 24 23  1  0  0  0  0
 24  1  1  0  0  0  0
 26 25  1  0  0  0  0
 26 27  1  0  0  0  0
 29 27  1  1  0  0  0
 29 30  1  0  0  0  0
 30 28  2  0  0  0  0
 31 34  2  0  0  0  0
 32 33  2  0  0  0  0
 32 31  1  0  0  0  0
 33 29  1  0  0  0  0
 34 30  1  0  0  0  0
M  END
>  <MODEL>
6

>  <REMARK>
 VINA RESULT:      -8.4      3.407      8.242
  Name = 
  6 active torsions:
  status: ('A' for Active; 'I' for Inactive)
    1  A    between atoms: C_1  and  O_19
    2  A    between atoms: C_3  and  C_13
    3  A    between atoms: C_3  and  N_17
    4  A    between atoms: C_12  and  C_28
    5  A    between atoms: N_17  and  C_29
    6  A    between atoms: C_18  and  C_29
                            x       y       z     vdW  Elec       q    Type
                         _______ _______ _______ _____ _____    ______ ____

>  <TORSDO>
F 6

$$$$
=
 OpenBabel10262423443D

 34 38  0  0  1  0  0  0  0  0999 V2000
  188.4110  177.9720  147.6070 C   0  0  0  0  0  0  0  0  0  0  0  0
  190.7040  177.2640  147.0450 C   0  0  0  0  0  0  0  0  0  0  0  0
  189.0440  177.5960  145.2610 C   0  0  0  0  0  0  0  0  0  0  0  0
  188.8970  176.2570  142.3170 C   0  0  0  0  0  2  0  0  0  0  0  0
  191.0910  177.2510  148.3800 O   0  0  0  0  0  1  0  0  0  0  0  0
  191.3340  176.9240  144.7450 C   0  0  0  0  0  3  0  0  0  0  0  0
  189.3890  177.6150  146.6500 C   0  0  0  0  0  0  0  0  0  0  0  0
  189.8090  177.3770  142.8070 C   0  0  1  0  0  3  0  0  0  0  0  0
  187.6870  177.8590  144.8990 C   0  0  0  0  0  0  0  0  0  0  0  0
  187.1170  178.2620  147.1770 C   0  0  0  0  0  3  0  0  0  0  0  0
  191.6510  176.9080  146.0930 C   0  0  0  0  0  3  0  0  0  0  0  0
  187.4870  176.3430  142.9070 C   0  0  0  0  0  2  0  0  0  0  0  0
  187.1800  177.7300  143.4740 C   0  0  1  0  0  3  0  0  0  0  0  0
  190.0590  177.2920  144.3010 C   0  0  0  0  0  0  0  0  0  0  0  0
  186.7910  178.1910  145.8670 N   0  0  0  0  0  0  0  0  0  0  0  0
  183.5890  178.8070  144.1780 C   0  0  0  0  0  0  0  0  0  0  0  0
  183.0480  178.7880  142.8870 C   0  0  0  0  0  3  0  0  0  0  0  0
  185.7320  178.0910  143.2900 C   0  0  0  0  0  0  0  0  0  0  0  0
  183.8470  178.4260  141.8000 C   0  0  0  0  0  3  0  0  0  0  0  0
  184.9280  178.4620  144.3800 C   0  0  0  0  0  3  0  0  0  0  0  0
  185.1870  178.0790  142.0010 C   0  0  0  0  0  3  0  0  0  0  0  0
  182.8140  179.1620  145.2310 F   0  0  0  0  0  0  0  0  0  0  0  0
  187.7380  178.0380  149.9960 C   0  0  0  0  0  1  0  0  0  0  0  0
  188.7240  178.0340  148.9710 O   0  0  0  0  0  0  0  0  0  0  0  0
  191.0640  177.4610  141.9460 C   0  0  0  0  0  2  0  0  0  0  0  0
  190.9660  176.5160  140.8480 N   0  0  0  0  0  2  0  0  0  0  0  0
  190.9080  177.2980  139.6250 C   0  0  0  0  0  2  0  0  0  0  0  0
  188.2560  178.7860  140.0390 O   0  0  0  0  0  0  0  0  0  0  0  0
  189.5640  177.1000  138.9410 C   0  0  1  0  0  3  0  0  0  0  0  0
  188.7700  178.3840  138.9630 C   0  0  0  0  0  0  0  0  0  0  0  0
  188.9850  178.7210  136.6080 C   0  0  0  0  0  3  0  0  0  0  0  0
  189.5630  177.3760  136.4620 C   0  0  0  0  0  3  0  0  0  0  0  0
  189.8060  176.6190  137.5350 C   0  0  0  0  0  3  0  0  0  0  0  0
  188.6150  179.1660  137.7720 N   0  0  0  0  0  0  0  0  0  0  0  0
  1 24  1  0  0  0  0
  2  5  1  0  0  0  0
  3  7  1  0  0  0  0
  4  8  1  0  0  0  0
  4 12  1  0  0  0  0
  6 11  1  0  0  0  0
  7  2  1  0  0  0  0
  7  1  2  0  0  0  0
  8 25  1  6  0  0  0
  8 14  1  0  0  0  0
  9  3  2  0  0  0  0
  9 15  1  0  0  0  0
 10  1  1  0  0  0  0
 11  2  2  0  0  0  0
 12 13  1  0  0  0  0
 13 18  1  1  0  0  0
 13  9  1  0  0  0  0
 14  6  2  0  0  0  0
 14  3  1  0  0  0  0
 15 10  2  0  0  0  0
 16 20  1  0  0  0  0
 16 22  1  0  0  0  0
 17 16  2  0  0  0  0
 18 20  2  0  0  0  0
 19 21  2  0  0  0  0
 19 17  1  0  0  0  0
 21 18  1  0  0  0  0
 24 23  1  0  0  0  0
 26 25  1  0  0  0  0
 27 26  1  0  0  0  0
 29 30  1  0  0  0  0
 29 27  1  6  0  0  0
 30 28  2  0  0  0  0
 31 34  2  0  0  0  0
 32 31  1  0  0  0  0
 32 33  2  0  0  0  0
 33 29  1  0  0  0  0
 34 30  1  0  0  0  0
M  END
>  <MODEL>
7

>  <REMARK>
 VINA RESULT:      -8.3      2.845      7.142
  Name = 
  6 active torsions:
  status: ('A' for Active; 'I' for Inactive)
    1  A    between atoms: C_1  and  O_19
    2  A    between atoms: C_3  and  C_13
    3  A    between atoms: C_3  and  N_17
    4  A    between atoms: C_12  and  C_28
    5  A    between atoms: N_17  and  C_29
    6  A    between atoms: C_18  and  C_29
                            x       y       z     vdW  Elec       q    Type
                         _______ _______ _______ _____ _____    ______ ____

>  <TORSDO>
F 6

$$$$
=
 OpenBabel10262423443D

 34 38  0  0  1  0  0  0  0  0999 V2000
  187.2900  177.8030  146.0630 C   0  0  0  0  0  0  0  0  0  0  0  0
  184.9040  178.4200  146.0540 C   0  0  0  0  0  0  0  0  0  0  0  0
  186.0900  178.0560  143.9310 C   0  0  0  0  0  0  0  0  0  0  0  0
  185.4650  179.2660  140.9940 C   0  0  0  0  0  2  0  0  0  0  0  0
  184.8540  178.4810  147.4420 O   0  0  0  0  0  1  0  0  0  0  0  0
  183.7190  178.6400  143.9680 C   0  0  0  0  0  3  0  0  0  0  0  0
  186.0950  178.0890  145.3630 C   0  0  0  0  0  0  0  0  0  0  0  0
  184.7430  178.1450  141.7340 C   0  0  1  0  0  3  0  0  0  0  0  0
  187.3280  177.8160  143.2580 C   0  0  0  0  0  0  0  0  0  0  0  0
  188.4510  177.5310  145.3400 C   0  0  0  0  0  3  0  0  0  0  0  0
  183.7400  178.7060  145.3520 C   0  0  0  0  0  3  0  0  0  0  0  0
  186.9780  179.2470  141.2240 C   0  0  0  0  0  2  0  0  0  0  0  0
  187.4670  177.8960  141.7480 C   0  0  1  0  0  3  0  0  0  0  0  0
  184.8620  178.2880  143.2390 C   0  0  0  0  0  0  0  0  0  0  0  0
  188.4450  177.5530  143.9890 N   0  0  0  0  0  0  0  0  0  0  0  0
  191.2270  177.2760  141.5610 C   0  0  0  0  0  0  0  0  0  0  0  0
  191.3700  176.9150  140.2170 C   0  0  0  0  0  3  0  0  0  0  0  0
  188.8390  177.5680  141.2280 C   0  0  0  0  0  0  0  0  0  0  0  0
  190.2510  176.8770  139.3810 C   0  0  0  0  0  3  0  0  0  0  0  0
  189.9650  177.6000  142.0680 C   0  0  0  0  0  3  0  0  0  0  0  0
  188.9880  177.2010  139.8860 C   0  0  0  0  0  3  0  0  0  0  0  0
  192.3110  177.3100  142.3720 F   0  0  0  0  0  0  0  0  0  0  0  0
  188.5280  177.8240  148.2140 C   0  0  0  0  0  1  0  0  0  0  0  0
  187.3210  177.7930  147.4640 O   0  0  0  0  0  0  0  0  0  0  0  0
  183.3200  177.9860  141.2100 C   0  0  0  0  0  2  0  0  0  0  0  0
  183.3460  177.3110  139.9250 N   0  0  0  0  0  2  0  0  0  0  0  0
  182.7620  178.2250  138.9580 C   0  0  0  0  0  2  0  0  0  0  0  0
  185.5750  178.3510  137.7350 O   0  0  0  0  0  0  0  0  0  0  0  0
  183.2300  177.8700  137.5550 C   0  0  1  0  0  3  0  0  0  0  0  0
  184.6870  177.4740  137.5710 C   0  0  0  0  0  0  0  0  0  0  0  0
  184.2120  175.1820  137.0970 C   0  0  0  0  0  3  0  0  0  0  0  0
  182.8040  175.5200  136.8350 C   0  0  0  0  0  3  0  0  0  0  0  0
  182.3570  176.7650  137.0220 C   0  0  0  0  0  3  0  0  0  0  0  0
  185.0700  176.1000  137.4260 N   0  0  0  0  0  0  0  0  0  0  0  0
  1 24  1  0  0  0  0
  2  5  1  0  0  0  0
  3  7  2  0  0  0  0
  4 12  1  0  0  0  0
  4  8  1  0  0  0  0
  6 11  1  0  0  0  0
  7  2  1  0  0  0  0
  7  1  1  0  0  0  0
  8 25  1  1  0  0  0
  8 14  1  0  0  0  0
  9  3  1  0  0  0  0
  9 15  2  0  0  0  0
 10  1  2  0  0  0  0
 11  2  2  0  0  0  0
 12 13  1  0  0  0  0
 13 18  1  1  0  0  0
 13  9  1  0  0  0  0
 14  3  1  0  0  0  0
 14  6  2  0  0  0  0
 15 10  1  0  0  0  0
 16 20  1  0  0  0  0
 16 22  1  0  0  0  0
 17 16  2  0  0  0  0
 18 20  2  0  0  0  0
 19 21  2  0  0  0  0
 19 17  1  0  0  0  0
 21 18  1  0  0  0  0
 24 23  1  0  0  0  0
 26 25  1  0  0  0  0
 27 26  1  0  0  0  0
 29 30  1  0  0  0  0
 29 27  1  1  0  0  0
 30 28  2  0  0  0  0
 31 34  2  0  0  0  0
 32 33  2  0  0  0  0
 32 31  1  0  0  0  0
 33 29  1  0  0  0  0
 34 30  1  0  0  0  0
M  END
>  <MODEL>
8

>  <REMARK>
 VINA RESULT:      -8.3      2.764      6.899
  Name = 
  6 active torsions:
  status: ('A' for Active; 'I' for Inactive)
    1  A    between atoms: C_1  and  O_19
    2  A    between atoms: C_3  and  C_13
    3  A    between atoms: C_3  and  N_17
    4  A    between atoms: C_12  and  C_28
    5  A    between atoms: N_17  and  C_29
    6  A    between atoms: C_18  and  C_29
                            x       y       z     vdW  Elec       q    Type
                         _______ _______ _______ _____ _____    ______ ____

>  <TORSDO>
F 6

$$$$
=
 OpenBabel10262423443D

 34 38  0  0  1  0  0  0  0  0999 V2000
  186.5220  177.9150  143.2260 C   0  0  0  0  0  0  0  0  0  0  0  0
  186.7100  178.4230  140.8220 C   0  0  0  0  0  0  0  0  0  0  0  0
  188.6600  177.5780  142.0590 C   0  0  0  0  0  0  0  0  0  0  0  0
  191.8140  177.9850  141.4500 C   0  0  0  0  0  2  0  0  0  0  0  0
  185.3830  178.8310  140.7440 O   0  0  0  0  0  1  0  0  0  0  0  0
  188.7950  178.0660  139.6700 C   0  0  0  0  0  3  0  0  0  0  0  0
  187.2840  177.9710  142.0360 C   0  0  0  0  0  0  0  0  0  0  0  0
  190.8220  177.0610  140.7510 C   0  0  1  0  0  3  0  0  0  0  0  0
  189.2390  177.2210  143.3160 C   0  0  0  0  0  0  0  0  0  0  0  0
  187.1410  177.5110  144.4090 C   0  0  0  0  0  3  0  0  0  0  0  0
  187.4740  178.4810  139.6630 C   0  0  0  0  0  3  0  0  0  0  0  0
  191.5720  178.0790  142.9580 C   0  0  0  0  0  2  0  0  0  0  0  0
  190.7180  176.9220  143.4810 C   0  0  1  0  0  3  0  0  0  0  0  0
  189.4000  177.5840  140.8370 C   0  0  0  0  0  0  0  0  0  0  0  0
  188.4540  177.1910  144.4270 N   0  0  0  0  0  0  0  0  0  0  0  0
  191.0690  176.8440  147.2790 C   0  0  0  0  0  0  0  0  0  0  0  0
  191.8830  175.7170  147.4470 C   0  0  0  0  0  3  0  0  0  0  0  0
  191.1250  176.5240  144.8720 C   0  0  0  0  0  0  0  0  0  0  0  0
  192.3130  174.9930  146.3320 C   0  0  0  0  0  3  0  0  0  0  0  0
  190.6890  177.2460  145.9960 C   0  0  0  0  0  3  0  0  0  0  0  0
  191.9330  175.3950  145.0470 C   0  0  0  0  0  3  0  0  0  0  0  0
  190.6510  177.5440  148.3600 F   0  0  0  0  0  0  0  0  0  0  0  0
  184.5790  179.0970  144.2200 C   0  0  0  0  0  1  0  0  0  0  0  0
  185.1640  178.2590  143.2320 O   0  0  0  0  0  0  0  0  0  0  0  0
  191.3030  176.7240  139.3440 C   0  0  0  0  0  2  0  0  0  0  0  0
  190.5640  175.5830  138.8360 N   0  0  0  0  0  2  0  0  0  0  0  0
  191.2970  175.0850  137.6850 C   0  0  0  0  0  2  0  0  0  0  0  0
  189.0790  173.0500  137.0850 O   0  0  0  0  0  0  0  0  0  0  0  0
  190.3730  174.9800  136.4820 C   0  0  1  0  0  3  0  0  0  0  0  0
  189.0860  174.2900  136.8670 C   0  0  0  0  0  0  0  0  0  0  0  0
  187.7880  176.2830  136.6440 C   0  0  0  0  0  3  0  0  0  0  0  0
  188.9400  176.9730  136.0420 C   0  0  0  0  0  3  0  0  0  0  0  0
  190.1240  176.3640  135.9440 C   0  0  0  0  0  3  0  0  0  0  0  0
  187.8720  175.0390  137.0100 N   0  0  0  0  0  0  0  0  0  0  0  0
  1 24  1  0  0  0  0
  1 10  1  0  0  0  0
  2  7  1  0  0  0  0
  3  9  2  0  0  0  0
  4 12  1  0  0  0  0
  5  2  1  0  0  0  0
  6 14  2  0  0  0  0
  7  3  1  0  0  0  0
  7  1  2  0  0  0  0
  8 25  1  6  0  0  0
  8 14  1  0  0  0  0
  8  4  1  0  0  0  0
  9 13  1  0  0  0  0
  9 15  1  0  0  0  0
 10 15  2  0  0  0  0
 11  6  1  0  0  0  0
 11  2  2  0  0  0  0
 12 13  1  0  0  0  0
 13 18  1  1  0  0  0
 14  3  1  0  0  0  0
 16 17  1  0  0  0  0
 16 22  1  0  0  0  0
 18 21  2  0  0  0  0
 18 20  1  0  0  0  0
 19 17  2  0  0  0  0
 20 16  2  0  0  0  0
 21 19  1  0  0  0  0
 24 23  1  0  0  0  0
 26 25  1  0  0  0  0
 27 26  1  0  0  0  0
 29 30  1  0  0  0  0
 29 27  1  1  0  0  0
 30 34  1  0  0  0  0
 30 28  2  0  0  0  0
 31 34  2  0  0  0  0
 32 31  1  0  0  0  0
 33 32  2  0  0  0  0
 33 29  1  0  0  0  0
M  END
>  <MODEL>
9

>  <REMARK>
 VINA RESULT:      -8.2      3.402      7.004
  Name = 
  6 active torsions:
  status: ('A' for Active; 'I' for Inactive)
    1  A    between atoms: C_1  and  O_19
    2  A    between atoms: C_3  and  C_13
    3  A    between atoms: C_3  and  N_17
    4  A    between atoms: C_12  and  C_28
    5  A    between atoms: N_17  and  C_29
    6  A    between atoms: C_18  and  C_29
                            x       y       z     vdW  Elec       q    Type
                         _______ _______ _______ _____ _____    ______ ____

>  <TORSDO>
F 6

$$$$
