=
 OpenBabel10272400473D

 25 28  0  0  1  0  0  0  0  0999 V2000
  185.7370  177.9880  144.1260 C   0  0  0  0  0  0  0  0  0  0  0  0
  186.8770  177.7270  144.9070 C   0  0  0  0  0  0  0  0  0  0  0  0
  184.4790  178.7150  146.0620 C   0  0  0  0  0  3  0  0  0  0  0  0
  185.4860  177.8420  142.6660 C   0  0  1  0  0  3  0  0  0  0  0  0
  184.4490  179.2730  140.4220 C   0  0  0  0  0  3  0  0  0  0  0  0
  185.6220  178.5260  146.8550 C   0  0  0  0  0  3  0  0  0  0  0  0
  184.0780  178.3580  142.5940 C   0  0  0  0  0  0  0  0  0  0  0  0
  183.5520  178.8460  141.3190 C   0  0  0  0  0  3  0  0  0  0  0  0
  189.2660  177.9700  146.4370 C   0  0  0  0  0  2  0  0  0  0  0  0
  187.9760  177.9500  147.0520 O   0  0  0  0  0  0  0  0  0  0  0  0
  188.1420  177.1220  144.3970 C   0  0  0  0  0  0  0  0  0  0  0  0
  185.8600  179.2890  140.7350 N   0  0  0  0  0  0  0  0  0  0  0  0
  184.5680  178.4370  144.7010 C   0  0  0  0  0  0  0  0  0  0  0  0
  183.5610  178.6890  143.7360 N   0  0  0  0  0  0  0  0  0  0  0  0
  189.2530  177.2200  145.1320 C   0  0  0  0  0  3  0  0  0  0  0  0
  186.3590  178.6950  141.7860 C   0  0  0  0  0  3  0  0  0  0  0  0
  186.8190  178.0650  146.2760 C   0  0  0  0  0  0  0  0  0  0  0  0
  188.2080  176.3750  143.2160 O   0  0  0  0  0  0  0  0  0  0  0  0
  189.3810  176.3010  142.4120 C   0  0  0  0  0  2  0  0  0  0  0  0
  189.5230  177.5410  141.5330 C   0  0  0  0  0  2  0  0  0  0  0  0
  189.5100  177.2340  140.0340 C   0  0  1  0  0  3  0  0  0  0  0  0
  189.0500  178.4250  139.2060 C   0  0  0  0  0  1  0  0  0  0  0  0
  190.8040  176.6610  139.5460 C   0  0  0  0  0  0  0  0  0  0  0  0
  191.9050  177.1850  139.8650 O   0  0  0  0  0  1  0  0  0  0  0  0
  190.7930  175.5110  138.7680 O   0  0  0  0  0  0  0  0  0  0  0  0
  1 13  2  0  0  0  0
  1  2  1  0  0  0  0
  2 17  2  0  0  0  0
  3  6  2  0  0  0  0
  4 16  1  6  0  0  0
  4  1  1  0  0  0  0
  5 12  1  0  0  0  0
  5  8  2  0  0  0  0
  7  4  1  0  0  0  0
  7 14  2  0  0  0  0
  8  7  1  0  0  0  0
  9 10  1  0  0  0  0
 11  2  1  0  0  0  0
 11 15  2  0  0  0  0
 12 16  2  0  0  0  0
 13  3  1  0  0  0  0
 14 13  1  0  0  0  0
 15  9  1  0  0  0  0
 17  6  1  0  0  0  0
 17 10  1  0  0  0  0
 18 11  1  0  0  0  0
 19 18  1  0  0  0  0
 20 19  1  0  0  0  0
 21 22  1  6  0  0  0
 21 20  1  0  0  0  0
 23 24  1  0  0  0  0
 23 21  1  0  0  0  0
 25 23  2  0  0  0  0
M  END
>  <MODEL>
1

>  <REMARK>
 VINA RESULT:      -8.7      0.000      0.000
  Name = 
  5 active torsions:
  status: ('A' for Active; 'I' for Inactive)
    1  A    between atoms: C_2  and  C_21
    2  A    between atoms: C_6  and  C_15
    3  A    between atoms: C_6  and  O_23
    4  A    between atoms: C_15  and  C_21
    5  A    between atoms: C_16  and  O_23
                            x       y       z     vdW  Elec       q    Type
                         _______ _______ _______ _____ _____    ______ ____

>  <TORSDO>
F 5

$$$$
=
 OpenBabel10272400473D

 25 28  0  0  1  0  0  0  0  0999 V2000
  187.1770  177.7810  145.8920 C   0  0  0  0  0  0  0  0  0  0  0  0
  188.5310  177.4280  145.7530 C   0  0  0  0  0  0  0  0  0  0  0  0
  187.4630  178.2670  148.2470 C   0  0  0  0  0  3  0  0  0  0  0  0
  186.0590  177.8130  144.9100 C   0  0  1  0  0  3  0  0  0  0  0  0
  183.9610  179.5060  143.9660 C   0  0  0  0  0  3  0  0  0  0  0  0
  188.8320  177.9830  148.1220 C   0  0  0  0  0  3  0  0  0  0  0  0
  184.9580  178.3340  145.7880 C   0  0  0  0  0  0  0  0  0  0  0  0
  183.7910  178.9730  145.1820 C   0  0  0  0  0  3  0  0  0  0  0  0
  191.3620  177.4850  145.4550 C   0  0  0  0  0  2  0  0  0  0  0  0
  190.7410  177.3900  146.7390 O   0  0  0  0  0  0  0  0  0  0  0  0
  189.1500  176.8910  144.5070 C   0  0  0  0  0  0  0  0  0  0  0  0
  185.2550  179.4850  143.3220 N   0  0  0  0  0  0  0  0  0  0  0  0
  186.6610  178.1560  147.1140 C   0  0  0  0  0  0  0  0  0  0  0  0
  185.2950  178.5230  147.0270 N   0  0  0  0  0  0  0  0  0  0  0  0
  190.4810  176.9000  144.3850 C   0  0  0  0  0  3  0  0  0  0  0  0
  186.2530  178.7680  143.7630 C   0  0  0  0  0  3  0  0  0  0  0  0
  189.3670  177.5970  146.8790 C   0  0  0  0  0  0  0  0  0  0  0  0
  188.4080  176.2930  143.4830 O   0  0  0  0  0  0  0  0  0  0  0  0
  188.7950  176.3460  142.1140 C   0  0  0  0  0  2  0  0  0  0  0  0
  188.6280  177.7560  141.5500 C   0  0  0  0  0  2  0  0  0  0  0  0
  189.3800  177.9830  140.2370 C   0  0  1  0  0  3  0  0  0  0  0  0
  190.1650  176.7530  139.8030 C   0  0  0  0  0  1  0  0  0  0  0  0
  188.5000  178.5160  139.1480 C   0  0  0  0  0  0  0  0  0  0  0  0
  187.2480  178.3810  139.2030 O   0  0  0  0  0  1  0  0  0  0  0  0
  189.0690  179.2050  138.0860 O   0  0  0  0  0  0  0  0  0  0  0  0
  1 13  1  0  0  0  0
  2  1  2  0  0  0  0
  2 17  1  0  0  0  0
  4 16  1  6  0  0  0
  4  7  1  0  0  0  0
  4  1  1  0  0  0  0
  5  8  2  0  0  0  0
  6  3  1  0  0  0  0
  7 14  2  0  0  0  0
  8  7  1  0  0  0  0
  9 10  1  0  0  0  0
 10 17  1  0  0  0  0
 11  2  1  0  0  0  0
 12 16  2  0  0  0  0
 12  5  1  0  0  0  0
 13  3  2  0  0  0  0
 14 13  1  0  0  0  0
 15 11  2  0  0  0  0
 15  9  1  0  0  0  0
 17  6  2  0  0  0  0
 18 11  1  0  0  0  0
 19 18  1  0  0  0  0
 20 19  1  0  0  0  0
 21 22  1  6  0  0  0
 21 20  1  0  0  0  0
 23 24  1  0  0  0  0
 23 21  1  0  0  0  0
 25 23  2  0  0  0  0
M  END
>  <MODEL>
2

>  <REMARK>
 VINA RESULT:      -8.6      1.906      2.787
  Name = 
  5 active torsions:
  status: ('A' for Active; 'I' for Inactive)
    1  A    between atoms: C_2  and  C_21
    2  A    between atoms: C_6  and  C_15
    3  A    between atoms: C_6  and  O_23
    4  A    between atoms: C_15  and  C_21
    5  A    between atoms: C_16  and  O_23
                            x       y       z     vdW  Elec       q    Type
                         _______ _______ _______ _____ _____    ______ ____

>  <TORSDO>
F 5

$$$$
=
 OpenBabel10272400473D

 25 28  0  0  1  0  0  0  0  0999 V2000
  188.1670  177.7420  144.5020 C   0  0  0  0  0  0  0  0  0  0  0  0
  186.9210  178.1100  143.9660 C   0  0  0  0  0  0  0  0  0  0  0  0
  187.3010  177.7980  146.7620 C   0  0  0  0  0  3  0  0  0  0  0  0
  189.4740  177.4490  143.8520 C   0  0  1  0  0  3  0  0  0  0  0  0
  191.5680  175.5070  143.8170 C   0  0  0  0  0  3  0  0  0  0  0  0
  186.0300  178.1020  146.2500 C   0  0  0  0  0  3  0  0  0  0  0  0
  190.2890  177.0900  145.0610 C   0  0  0  0  0  0  0  0  0  0  0  0
  191.5010  176.2870  144.9030 C   0  0  0  0  0  3  0  0  0  0  0  0
  184.2430  178.1040  143.0000 C   0  0  0  0  0  2  0  0  0  0  0  0
  184.5560  178.4550  144.3490 O   0  0  0  0  0  0  0  0  0  0  0  0
  186.6590  178.3860  142.5230 C   0  0  0  0  0  0  0  0  0  0  0  0
  190.4650  175.4380  142.8850 N   0  0  0  0  0  0  0  0  0  0  0  0
  188.3500  177.6240  145.8630 C   0  0  0  0  0  0  0  0  0  0  0  0
  189.6600  177.1920  146.1900 N   0  0  0  0  0  0  0  0  0  0  0  0
  185.3970  178.4040  142.0830 C   0  0  0  0  0  3  0  0  0  0  0  0
  189.4630  176.2740  142.9120 C   0  0  0  0  0  3  0  0  0  0  0  0
  185.8360  178.2270  144.8620 C   0  0  0  0  0  0  0  0  0  0  0  0
  187.6690  178.7130  141.6130 O   0  0  0  0  0  0  0  0  0  0  0  0
  187.6360  178.3210  140.2450 C   0  0  0  0  0  2  0  0  0  0  0  0
  189.0210  178.4260  139.6100 C   0  0  0  0  0  2  0  0  0  0  0  0
  189.3770  177.2360  138.7160 C   0  0  1  0  0  3  0  0  0  0  0  0
  189.4080  177.6130  137.2420 C   0  0  0  0  0  1  0  0  0  0  0  0
  190.6220  176.5310  139.1550 C   0  0  0  0  0  0  0  0  0  0  0  0
  190.9110  175.3880  138.7090 O   0  0  0  0  0  0  0  0  0  0  0  0
  191.4930  177.1630  140.0320 O   0  0  0  0  0  1  0  0  0  0  0  0
  1 13  1  0  0  0  0
  2  1  2  0  0  0  0
  2 17  1  0  0  0  0
  4 16  1  6  0  0  0
  4  1  1  0  0  0  0
  4  7  1  0  0  0  0
  5  8  2  0  0  0  0
  6  3  1  0  0  0  0
  7 14  2  0  0  0  0
  8  7  1  0  0  0  0
  9 10  1  0  0  0  0
 10 17  1  0  0  0  0
 11  2  1  0  0  0  0
 12 16  2  0  0  0  0
 12  5  1  0  0  0  0
 13 14  1  0  0  0  0
 13  3  2  0  0  0  0
 15 11  2  0  0  0  0
 15  9  1  0  0  0  0
 17  6  2  0  0  0  0
 18 11  1  0  0  0  0
 19 18  1  0  0  0  0
 20 19  1  0  0  0  0
 21 22  1  6  0  0  0
 21 23  1  0  0  0  0
 21 20  1  0  0  0  0
 23 25  1  0  0  0  0
 24 23  2  0  0  0  0
M  END
>  <MODEL>
3

>  <REMARK>
 VINA RESULT:      -8.4      2.417      4.441
  Name = 
  5 active torsions:
  status: ('A' for Active; 'I' for Inactive)
    1  A    between atoms: C_2  and  C_21
    2  A    between atoms: C_6  and  C_15
    3  A    between atoms: C_6  and  O_23
    4  A    between atoms: C_15  and  C_21
    5  A    between atoms: C_16  and  O_23
                            x       y       z     vdW  Elec       q    Type
                         _______ _______ _______ _____ _____    ______ ____

>  <TORSDO>
F 5

$$$$
=
 OpenBabel10272400473D

 25 28  0  0  1  0  0  0  0  0999 V2000
  185.3030  178.0520  143.9610 C   0  0  0  0  0  0  0  0  0  0  0  0
  186.3160  177.7640  144.8930 C   0  0  0  0  0  0  0  0  0  0  0  0
  183.8300  178.8740  145.6990 C   0  0  0  0  0  3  0  0  0  0  0  0
  185.2420  177.8830  142.4840 C   0  0  1  0  0  3  0  0  0  0  0  0
  184.5760  179.3030  140.0970 C   0  0  0  0  0  3  0  0  0  0  0  0
  184.8480  178.6570  146.6410 C   0  0  0  0  0  3  0  0  0  0  0  0
  183.8800  178.4540  142.2140 C   0  0  0  0  0  0  0  0  0  0  0  0
  183.5500  178.9340  140.8730 C   0  0  0  0  0  3  0  0  0  0  0  0
  188.4870  177.9460  146.7250 C   0  0  0  0  0  2  0  0  0  0  0  0
  187.1270  177.9910  147.1620 O   0  0  0  0  0  0  0  0  0  0  0  0
  187.6100  177.0970  144.5680 C   0  0  0  0  0  0  0  0  0  0  0  0
  185.9320  179.2700  140.5960 N   0  0  0  0  0  0  0  0  0  0  0  0
  184.0880  178.5610  144.3670 C   0  0  0  0  0  0  0  0  0  0  0  0
  183.2300  178.8310  143.2710 N   0  0  0  0  0  0  0  0  0  0  0  0
  188.6170  177.1680  145.4440 C   0  0  0  0  0  3  0  0  0  0  0  0
  186.2600  178.6810  141.7140 C   0  0  0  0  0  3  0  0  0  0  0  0
  186.0900  178.1350  146.2360 C   0  0  0  0  0  0  0  0  0  0  0  0
  187.8020  176.3210  143.4200 O   0  0  0  0  0  0  0  0  0  0  0  0
  189.0780  175.8390  143.0160 C   0  0  0  0  0  2  0  0  0  0  0  0
  189.7480  176.8060  142.0420 C   0  0  0  0  0  2  0  0  0  0  0  0
  191.2430  177.0040  142.3060 C   0  0  1  0  0  3  0  0  0  0  0  0
  191.9780  177.5350  141.0840 C   0  0  0  0  0  1  0  0  0  0  0  0
  191.5140  177.8130  143.5370 C   0  0  0  0  0  0  0  0  0  0  0  0
  191.4140  179.0700  143.5200 O   0  0  0  0  0  0  0  0  0  0  0  0
  191.8380  177.1680  144.7220 O   0  0  0  0  0  1  0  0  0  0  0  0
  1 13  2  0  0  0  0
  1  2  1  0  0  0  0
  2 17  2  0  0  0  0
  3  6  2  0  0  0  0
  4 16  1  6  0  0  0
  4  1  1  0  0  0  0
  5 12  1  0  0  0  0
  5  8  2  0  0  0  0
  7  4  1  0  0  0  0
  7 14  2  0  0  0  0
  8  7  1  0  0  0  0
  9 10  1  0  0  0  0
 11  2  1  0  0  0  0
 11 15  2  0  0  0  0
 12 16  2  0  0  0  0
 13  3  1  0  0  0  0
 14 13  1  0  0  0  0
 15  9  1  0  0  0  0
 17  6  1  0  0  0  0
 17 10  1  0  0  0  0
 18 11  1  0  0  0  0
 19 18  1  0  0  0  0
 20 21  1  0  0  0  0
 20 19  1  0  0  0  0
 21 22  1  6  0  0  0
 21 23  1  0  0  0  0
 23 25  1  0  0  0  0
 24 23  2  0  0  0  0
M  END
>  <MODEL>
4

>  <REMARK>
 VINA RESULT:      -8.4      1.741      2.029
  Name = 
  5 active torsions:
  status: ('A' for Active; 'I' for Inactive)
    1  A    between atoms: C_2  and  C_21
    2  A    between atoms: C_6  and  C_15
    3  A    between atoms: C_6  and  O_23
    4  A    between atoms: C_15  and  C_21
    5  A    between atoms: C_16  and  O_23
                            x       y       z     vdW  Elec       q    Type
                         _______ _______ _______ _____ _____    ______ ____

>  <TORSDO>
F 5

$$$$
=
 OpenBabel10272400473D

 25 28  0  0  1  0  0  0  0  0999 V2000
  187.3650  177.5710  144.3080 C   0  0  0  0  0  0  0  0  0  0  0  0
  188.7190  177.3090  144.5830 C   0  0  0  0  0  0  0  0  0  0  0  0
  186.8680  177.8930  146.6560 C   0  0  0  0  0  3  0  0  0  0  0  0
  186.6070  177.6110  143.0280 C   0  0  1  0  0  3  0  0  0  0  0  0
  184.7760  179.2440  141.5650 C   0  0  0  0  0  3  0  0  0  0  0  0
  188.2270  177.7010  146.9530 C   0  0  0  0  0  3  0  0  0  0  0  0
  185.2500  177.9980  143.5430 C   0  0  0  0  0  0  0  0  0  0  0  0
  184.2810  178.6110  142.6360 C   0  0  0  0  0  3  0  0  0  0  0  0
  191.4890  177.5550  145.1920 C   0  0  0  0  0  2  0  0  0  0  0  0
  190.5110  177.3270  146.2100 O   0  0  0  0  0  0  0  0  0  0  0  0
  189.7330  176.9050  143.5680 C   0  0  0  0  0  0  0  0  0  0  0  0
  186.2030  179.3470  141.3600 N   0  0  0  0  0  0  0  0  0  0  0  0
  186.4680  177.8210  145.3240 C   0  0  0  0  0  0  0  0  0  0  0  0
  185.1710  178.1120  144.8320 N   0  0  0  0  0  0  0  0  0  0  0  0
  191.0320  177.0010  143.8710 C   0  0  0  0  0  3  0  0  0  0  0  0
  187.0700  178.6590  142.0530 C   0  0  0  0  0  3  0  0  0  0  0  0
  189.1490  177.4420  145.9210 C   0  0  0  0  0  0  0  0  0  0  0  0
  189.3950  176.3430  142.3320 O   0  0  0  0  0  0  0  0  0  0  0  0
  190.0990  176.6350  141.1300 C   0  0  0  0  0  2  0  0  0  0  0  0
  189.1340  177.0020  140.0040 C   0  0  0  0  0  2  0  0  0  0  0  0
  189.7640  177.8800  138.9200 C   0  0  1  0  0  3  0  0  0  0  0  0
  190.6470  177.0800  137.9730 C   0  0  0  0  0  1  0  0  0  0  0  0
  188.7590  178.7210  138.1960 C   0  0  0  0  0  0  0  0  0  0  0  0
  189.1250  179.6070  137.3780 O   0  0  0  0  0  0  0  0  0  0  0  0
  187.4040  178.4910  138.3960 O   0  0  0  0  0  1  0  0  0  0  0  0
  1  2  2  0  0  0  0
  1 13  1  0  0  0  0
  2 17  1  0  0  0  0
  3  6  1  0  0  0  0
  4 16  1  6  0  0  0
  4  7  1  0  0  0  0
  4  1  1  0  0  0  0
  5  8  2  0  0  0  0
  7 14  2  0  0  0  0
  8  7  1  0  0  0  0
  9 10  1  0  0  0  0
 11 15  2  0  0  0  0
 11  2  1  0  0  0  0
 12  5  1  0  0  0  0
 12 16  2  0  0  0  0
 13  3  2  0  0  0  0
 14 13  1  0  0  0  0
 15  9  1  0  0  0  0
 17 10  1  0  0  0  0
 17  6  2  0  0  0  0
 18 11  1  0  0  0  0
 19 18  1  0  0  0  0
 20 19  1  0  0  0  0
 21 22  1  6  0  0  0
 21 20  1  0  0  0  0
 23 25  1  0  0  0  0
 23 21  1  0  0  0  0
 24 23  2  0  0  0  0
M  END
>  <MODEL>
5

>  <REMARK>
 VINA RESULT:      -8.3      1.792      2.293
  Name = 
  5 active torsions:
  status: ('A' for Active; 'I' for Inactive)
    1  A    between atoms: C_2  and  C_21
    2  A    between atoms: C_6  and  C_15
    3  A    between atoms: C_6  and  O_23
    4  A    between atoms: C_15  and  C_21
    5  A    between atoms: C_16  and  O_23
                            x       y       z     vdW  Elec       q    Type
                         _______ _______ _______ _____ _____    ______ ____

>  <TORSDO>
F 5

$$$$
=
 OpenBabel10272400473D

 25 28  0  0  1  0  0  0  0  0999 V2000
  187.3200  177.5580  144.3620 C   0  0  0  0  0  0  0  0  0  0  0  0
  188.6050  177.2560  144.8490 C   0  0  0  0  0  0  0  0  0  0  0  0
  186.5040  178.0430  146.5900 C   0  0  0  0  0  3  0  0  0  0  0  0
  186.7600  177.5520  142.9830 C   0  0  1  0  0  3  0  0  0  0  0  0
  185.2470  179.1690  141.1790 C   0  0  0  0  0  3  0  0  0  0  0  0
  187.7940  177.8120  147.0940 C   0  0  0  0  0  3  0  0  0  0  0  0
  185.3640  178.0270  143.2700 C   0  0  2  0  0  3  0  0  0  0  0  0
  184.5700  178.6250  142.1970 C   0  0  0  0  0  3  0  0  0  0  0  0
  191.2650  177.4210  145.8480 C   0  0  0  0  0  2  0  0  0  0  0  0
  190.1400  177.2960  146.7200 O   0  0  0  0  0  0  0  0  0  0  0  0
  189.7340  176.7480  144.0180 C   0  0  0  0  0  0  0  0  0  0  0  0
  186.6920  179.1990  141.1820 N   0  0  0  0  0  0  0  0  0  0  0  0
  186.2990  177.9080  145.2190 C   0  0  0  0  0  0  0  0  0  0  0  0
  185.1040  178.2230  144.5250 N   0  0  0  0  0  2  0  0  0  0  0  0
  190.9780  176.8070  144.5050 C   0  0  0  0  0  3  0  0  0  0  0  0
  187.4130  178.5180  142.0320 C   0  0  0  0  0  3  0  0  0  0  0  0
  188.8410  177.4520  146.2270 C   0  0  0  0  0  0  0  0  0  0  0  0
  189.5510  176.1270  142.7790 O   0  0  0  0  0  0  0  0  0  0  0  0
  190.5150  176.1870  141.7330 C   0  0  0  0  0  2  0  0  0  0  0  0
  190.2490  177.3730  140.8080 C   0  0  0  0  0  2  0  0  0  0  0  0
  189.8140  176.9660  139.3990 C   0  0  1  0  0  3  0  0  0  0  0  0
  189.3380  178.1550  138.5770 C   0  0  0  0  0  1  0  0  0  0  0  0
  190.8470  176.1510  138.6840 C   0  0  0  0  0  0  0  0  0  0  0  0
  190.5450  175.0530  138.1440 O   0  0  0  0  0  0  0  0  0  0  0  0
  192.1450  176.6320  138.5770 O   0  0  0  0  0  1  0  0  0  0  0  0
  1  2  2  0  0  0  0
  1 13  1  0  0  0  0
  2 17  1  0  0  0  0
  3  6  1  0  0  0  0
  4 16  1  6  0  0  0
  4  7  1  0  0  0  0
  4  1  1  0  0  0  0
  5 12  1  0  0  0  0
  5  8  2  0  0  0  0
  7  8  1  6  0  0  0
  7 14  1  0  0  0  0
  9 10  1  0  0  0  0
 11 15  2  0  0  0  0
 11  2  1  0  0  0  0
 12 16  2  0  0  0  0
 13  3  2  0  0  0  0
 14 13  1  0  0  0  0
 15  9  1  0  0  0  0
 17 10  1  0  0  0  0
 17  6  2  0  0  0  0
 18 11  1  0  0  0  0
 19 18  1  0  0  0  0
 20 19  1  0  0  0  0
 21 22  1  6  0  0  0
 21 20  1  0  0  0  0
 23 21  1  0  0  0  0
 24 23  2  0  0  0  0
 25 23  1  0  0  0  0
M  END
>  <MODEL>
6

>  <REMARK>
 VINA RESULT:      -8.2      1.229      1.700
  Name = 
  5 active torsions:
  status: ('A' for Active; 'I' for Inactive)
    1  A    between atoms: C_2  and  C_21
    2  A    between atoms: C_6  and  C_15
    3  A    between atoms: C_6  and  O_23
    4  A    between atoms: C_15  and  C_21
    5  A    between atoms: C_16  and  O_23
                            x       y       z     vdW  Elec       q    Type
                         _______ _______ _______ _____ _____    ______ ____

>  <TORSDO>
F 5

$$$$
=
 OpenBabel10272400473D

 25 28  0  0  1  0  0  0  0  0999 V2000
  188.2060  177.8740  145.4520 C   0  0  0  0  0  0  0  0  0  0  0  0
  186.8970  178.3000  145.7380 C   0  0  0  0  0  0  0  0  0  0  0  0
  188.8090  177.8950  147.7970 C   0  0  0  0  0  3  0  0  0  0  0  0
  188.8820  177.5550  144.1650 C   0  0  1  0  0  3  0  0  0  0  0  0
  190.4820  175.5440  142.9190 C   0  0  0  0  0  3  0  0  0  0  0  0
  187.4910  178.2570  148.1160 C   0  0  0  0  0  3  0  0  0  0  0  0
  190.2290  177.1340  144.6780 C   0  0  0  0  0  0  0  0  0  0  0  0
  191.0890  176.2950  143.8460 C   0  0  0  0  0  3  0  0  0  0  0  0
  184.1560  178.4130  146.5000 C   0  0  0  0  0  2  0  0  0  0  0  0
  185.2070  178.7140  147.4210 O   0  0  0  0  0  0  0  0  0  0  0  0
  185.8620  178.6250  144.7140 C   0  0  0  0  0  0  0  0  0  0  0  0
  189.0420  175.5400  142.7960 N   0  0  0  0  0  0  0  0  0  0  0  0
  189.1360  177.7110  146.4560 C   0  0  0  0  0  0  0  0  0  0  0  0
  190.3740  177.2250  145.9640 N   0  0  0  0  0  0  0  0  0  0  0  0
  184.5800  178.6990  145.0850 C   0  0  0  0  0  3  0  0  0  0  0  0
  188.2770  176.4090  143.4010 C   0  0  0  0  0  3  0  0  0  0  0  0
  186.5360  178.4280  147.0970 C   0  0  0  0  0  0  0  0  0  0  0  0
  186.1740  178.9440  143.3890 O   0  0  0  0  0  0  0  0  0  0  0  0
  185.2210  179.4800  142.4770 C   0  0  0  0  0  2  0  0  0  0  0  0
  185.3420  178.8190  141.1050 C   0  0  0  0  0  2  0  0  0  0  0  0
  183.9930  178.5170  140.4500 C   0  0  1  0  0  3  0  0  0  0  0  0
  182.8690  178.4100  141.4710 C   0  0  0  0  0  1  0  0  0  0  0  0
  183.6650  179.4570  139.3310 C   0  0  0  0  0  0  0  0  0  0  0  0
  184.4950  180.3270  138.9530 O   0  0  0  0  0  1  0  0  0  0  0  0
  182.4480  179.3400  138.6740 O   0  0  0  0  0  0  0  0  0  0  0  0
  1  2  2  0  0  0  0
  1 13  1  0  0  0  0
  2 17  1  0  0  0  0
  3  6  1  0  0  0  0
  4 16  1  1  0  0  0
  4  7  1  0  0  0  0
  4  1  1  0  0  0  0
  5  8  2  0  0  0  0
  7 14  2  0  0  0  0
  8  7  1  0  0  0  0
  9 10  1  0  0  0  0
 11 15  2  0  0  0  0
 11  2  1  0  0  0  0
 12  5  1  0  0  0  0
 12 16  2  0  0  0  0
 13  3  2  0  0  0  0
 14 13  1  0  0  0  0
 15  9  1  0  0  0  0
 17 10  1  0  0  0  0
 17  6  2  0  0  0  0
 18 11  1  0  0  0  0
 19 18  1  0  0  0  0
 20 19  1  0  0  0  0
 21 20  1  0  0  0  0
 21 22  1  1  0  0  0
 23 21  1  0  0  0  0
 24 23  1  0  0  0  0
 25 23  2  0  0  0  0
M  END
>  <MODEL>
7

>  <REMARK>
 VINA RESULT:      -8.2      3.200      5.467
  Name = 
  5 active torsions:
  status: ('A' for Active; 'I' for Inactive)
    1  A    between atoms: C_2  and  C_21
    2  A    between atoms: C_6  and  C_15
    3  A    between atoms: C_6  and  O_23
    4  A    between atoms: C_15  and  C_21
    5  A    between atoms: C_16  and  O_23
                            x       y       z     vdW  Elec       q    Type
                         _______ _______ _______ _____ _____    ______ ____

>  <TORSDO>
F 5

$$$$
=
 OpenBabel10272400473D

 25 28  0  0  1  0  0  0  0  0999 V2000
  184.0930  178.2740  142.7160 C   0  0  0  0  0  0  0  0  0  0  0  0
  184.6740  178.3440  143.9940 C   0  0  0  0  0  0  0  0  0  0  0  0
  181.9470  179.0070  143.5650 C   0  0  0  0  0  3  0  0  0  0  0  0
  184.6560  177.8840  141.3950 C   0  0  1  0  0  3  0  0  0  0  0  0
  184.8190  178.7700  138.6840 C   0  0  0  0  0  3  0  0  0  0  0  0
  182.5180  179.1490  144.8390 C   0  0  0  0  0  3  0  0  0  0  0  0
  183.4530  178.1080  140.5250 C   0  0  0  0  0  0  0  0  0  0  0  0
  183.6290  178.3080  139.0860 C   0  0  0  0  0  3  0  0  0  0  0  0
  185.8760  179.2450  146.4130 C   0  0  0  0  0  2  0  0  0  0  0  0
  184.4630  179.0640  146.2950 O   0  0  0  0  0  0  0  0  0  0  0  0
  186.0680  177.9270  144.3220 C   0  0  0  0  0  0  0  0  0  0  0  0
  185.8490  179.0970  139.6440 N   0  0  0  0  0  0  0  0  0  0  0  0
  182.7600  178.5660  142.5240 C   0  0  0  0  0  0  0  0  0  0  0  0
  182.3870  178.4870  141.1580 N   0  0  0  0  0  0  0  0  0  0  0  0
  186.6160  178.3350  145.4710 C   0  0  0  0  0  3  0  0  0  0  0  0
  185.7770  178.7590  140.9030 C   0  0  0  0  0  3  0  0  0  0  0  0
  183.8780  178.8500  145.0450 C   0  0  0  0  0  0  0  0  0  0  0  0
  186.8110  177.0520  143.5240 O   0  0  0  0  0  0  0  0  0  0  0  0
  188.1290  177.3450  143.0720 C   0  0  0  0  0  2  0  0  0  0  0  0
  189.1540  176.4310  143.7400 C   0  0  0  0  0  2  0  0  0  0  0  0
  190.3840  177.1730  144.2660 C   0  0  1  0  0  3  0  0  0  0  0  0
  190.4090  178.6300  143.8280 C   0  0  0  0  0  1  0  0  0  0  0  0
  190.5720  177.0140  145.7440 C   0  0  0  0  0  0  0  0  0  0  0  0
  189.5810  176.8720  146.5100 O   0  0  0  0  0  1  0  0  0  0  0  0
  191.8560  176.9800  146.2700 O   0  0  0  0  0  0  0  0  0  0  0  0
  1  2  1  0  0  0  0
  2 11  1  0  0  0  0
  2 17  2  0  0  0  0
  3  6  2  0  0  0  0
  4 16  1  6  0  0  0
  4  1  1  0  0  0  0
  5  8  2  0  0  0  0
  5 12  1  0  0  0  0
  6 17  1  0  0  0  0
  7 14  2  0  0  0  0
  7  4  1  0  0  0  0
  8  7  1  0  0  0  0
 10  9  1  0  0  0  0
 11 15  2  0  0  0  0
 12 16  2  0  0  0  0
 13  1  2  0  0  0  0
 13  3  1  0  0  0  0
 14 13  1  0  0  0  0
 15  9  1  0  0  0  0
 17 10  1  0  0  0  0
 18 11  1  0  0  0  0
 19 18  1  0  0  0  0
 19 20  1  0  0  0  0
 20 21  1  0  0  0  0
 21 22  1  1  0  0  0
 21 23  1  0  0  0  0
 23 25  2  0  0  0  0
 23 24  1  0  0  0  0
M  END
>  <MODEL>
8

>  <REMARK>
 VINA RESULT:      -7.8      2.570      3.604
  Name = 
  5 active torsions:
  status: ('A' for Active; 'I' for Inactive)
    1  A    between atoms: C_2  and  C_21
    2  A    between atoms: C_6  and  C_15
    3  A    between atoms: C_6  and  O_23
    4  A    between atoms: C_15  and  C_21
    5  A    between atoms: C_16  and  O_23
                            x       y       z     vdW  Elec       q    Type
                         _______ _______ _______ _____ _____    ______ ____

>  <TORSDO>
F 5

$$$$
=
 OpenBabel10272400473D

 25 28  0  0  1  0  0  0  0  0999 V2000
  187.6530  177.6290  143.6260 C   0  0  0  0  0  0  0  0  0  0  0  0
  186.8740  177.9110  144.7630 C   0  0  0  0  0  0  0  0  0  0  0  0
  185.8360  178.2200  142.1380 C   0  0  0  0  0  3  0  0  0  0  0  0
  189.0550  177.1510  143.4830 C   0  0  1  0  0  3  0  0  0  0  0  0
  191.4820  177.7290  142.0930 C   0  0  0  0  0  3  0  0  0  0  0  0
  185.0590  178.5700  143.2530 C   0  0  0  0  0  3  0  0  0  0  0  0
  189.1730  177.1410  141.9860 C   0  0  2  0  0  3  0  0  0  0  0  0
  190.4960  177.1900  141.3650 C   0  0  0  0  0  3  0  0  0  0  0  0
  185.4870  179.2110  146.8810 C   0  0  0  0  0  2  0  0  0  0  0  0
  184.8380  178.8670  145.6560 O   0  0  0  0  0  0  0  0  0  0  0  0
  187.3090  177.6880  146.1720 C   0  0  0  0  0  0  0  0  0  0  0  0
  191.2210  178.2750  143.4060 N   0  0  0  0  0  0  0  0  0  0  0  0
  187.1290  177.7520  142.3570 C   0  0  0  0  0  0  0  0  0  0  0  0
  188.0910  177.4740  141.3530 N   0  0  0  0  0  2  0  0  0  0  0  0
  186.6370  178.2840  147.1620 C   0  0  0  0  0  3  0  0  0  0  0  0
  190.0990  178.0800  144.0430 C   0  0  0  0  0  3  0  0  0  0  0  0
  185.5850  178.4460  144.5520 C   0  0  0  0  0  0  0  0  0  0  0  0
  188.3400  176.8110  146.5230 O   0  0  0  0  0  0  0  0  0  0  0  0
  189.0770  176.9280  147.7350 C   0  0  0  0  0  2  0  0  0  0  0  0
  190.5270  177.3220  147.4600 C   0  0  0  0  0  2  0  0  0  0  0  0
  191.4730  176.1250  147.3330 C   0  0  1  0  0  3  0  0  0  0  0  0
  191.8890  175.8710  145.8920 C   0  0  0  0  0  1  0  0  0  0  0  0
  192.6440  176.2080  148.2630 C   0  0  0  0  0  0  0  0  0  0  0  0
  193.5220  175.3040  148.2800 O   0  0  0  0  0  0  0  0  0  0  0  0
  192.7860  177.3160  149.0870 O   0  0  0  0  0  1  0  0  0  0  0  0
  1  2  1  0  0  0  0
  2 11  1  0  0  0  0
  3 13  1  0  0  0  0
  3  6  2  0  0  0  0
  4  1  1  0  0  0  0
  4 16  1  1  0  0  0
  5 12  1  0  0  0  0
  6 17  1  0  0  0  0
  7  8  1  1  0  0  0
  7  4  1  0  0  0  0
  8  5  2  0  0  0  0
  9 15  1  0  0  0  0
 10  9  1  0  0  0  0
 11 18  1  0  0  0  0
 11 15  2  0  0  0  0
 12 16  2  0  0  0  0
 13  1  2  0  0  0  0
 14  7  1  0  0  0  0
 14 13  1  0  0  0  0
 17  2  2  0  0  0  0
 17 10  1  0  0  0  0
 18 19  1  0  0  0  0
 20 19  1  0  0  0  0
 21 22  1  6  0  0  0
 21 20  1  0  0  0  0
 21 23  1  0  0  0  0
 23 24  2  0  0  0  0
 23 25  1  0  0  0  0
M  END
>  <MODEL>
9

>  <REMARK>
 VINA RESULT:      -7.8      2.939      5.630
  Name = 
  5 active torsions:
  status: ('A' for Active; 'I' for Inactive)
    1  A    between atoms: C_2  and  C_21
    2  A    between atoms: C_6  and  C_15
    3  A    between atoms: C_6  and  O_23
    4  A    between atoms: C_15  and  C_21
    5  A    between atoms: C_16  and  O_23
                            x       y       z     vdW  Elec       q    Type
                         _______ _______ _______ _____ _____    ______ ____

>  <TORSDO>
F 5

$$$$
