=
 OpenBabel10272415323D

 34 34  0  0  1  0  0  0  0  0999 V2000
  190.3250  176.5720  142.7310 C   0  0  1  0  0  3  0  0  0  0  0  0
  189.4650  175.4730  142.8390 O   0  0  0  0  0  1  0  0  0  0  0  0
  190.0680  176.0810  140.3780 O   0  0  0  0  0  1  0  0  0  0  0  0
  190.3030  177.1280  141.2720 C   0  0  2  0  0  0  0  0  0  0  0  0
  191.6600  177.7630  140.9320 C   0  0  0  0  0  2  0  0  0  0  0  0
  193.7470  177.3120  139.8670 O   0  0  0  0  0  1  0  0  0  0  0  0
  192.3720  177.1130  139.7510 C   0  0  0  0  0  2  0  0  0  0  0  0
  189.1970  178.1750  141.0380 C   0  0  0  0  0  2  0  0  0  0  0  0
  187.5880  178.3900  137.0400 C   0  0  0  0  0  0  0  0  0  0  0  0
  188.9150  178.7590  137.2720 C   0  0  0  0  0  3  0  0  0  0  0  0
  189.4420  178.7070  138.5620 C   0  0  0  0  0  3  0  0  0  0  0  0
  187.3250  177.9170  139.4070 C   0  0  0  0  0  3  0  0  0  0  0  0
  188.6420  178.3160  139.6450 C   0  0  0  0  0  0  0  0  0  0  0  0
  186.7960  177.9570  138.1150 C   0  0  0  0  0  3  0  0  0  0  0  0
  187.0820  178.4610  135.7390 O   0  0  0  0  0  0  0  0  0  0  0  0
  187.8560  176.2150  135.4610 C   0  0  0  0  0  1  0  0  0  0  0  0
  187.0320  177.3330  134.8750 C   0  0  0  0  0  2  0  0  0  0  0  0
  190.0840  177.5500  143.9170 C   0  0  2  0  0  0  0  0  0  0  0  0
  189.5290  178.7370  143.4290 O   0  0  0  0  0  1  0  0  0  0  0  0
  191.8570  177.1230  145.7100 N   0  0  0  0  0  1  0  0  0  0  0  0
  191.3730  177.9060  144.6220 C   0  0  0  0  0  0  0  0  0  0  0  0
  192.0480  178.8940  144.2270 O   0  0  0  0  0  0  0  0  0  0  0  0
  189.0950  176.9260  144.9140 C   0  0  0  0  0  2  0  0  0  0  0  0
  187.9780  177.8420  145.4450 C   0  0  1  0  0  3  0  0  0  0  0  0
  186.5870  177.2780  145.1200 C   0  0  2  0  0  3  0  0  0  0  0  0
  186.6760  176.3320  144.1120 F   0  0  0  0  0  0  0  0  0  0  0  0
  185.5950  178.3590  144.6830 C   0  0  1  0  0  3  0  0  0  0  0  0
  185.3380  179.3070  145.7570 N   0  0  0  0  0  2  0  0  0  0  0  0
  184.5020  178.6990  146.6310 O   0  0  0  0  0  1  0  0  0  0  0  0
  186.0600  179.0340  143.5510 O   0  0  0  0  0  0  0  0  0  0  0  0
  184.4560  178.1190  142.0720 C   0  0  0  0  0  1  0  0  0  0  0  0
  184.9110  179.3400  142.8230 C   0  0  0  0  0  2  0  0  0  0  0  0
  188.1150  178.0650  146.8190 O   0  0  0  0  0  0  0  0  0  0  0  0
  188.6950  176.9010  147.3250 C   0  0  0  0  0  1  0  0  0  0  0  0
  1  2  1  6  0  0  0
  1 18  1  0  0  0  0
  4  3  1  6  0  0  0
  4  1  1  0  0  0  0
  5  4  1  0  0  0  0
  7  6  1  0  0  0  0
  7  5  1  0  0  0  0
  8  4  1  0  0  0  0
  9 10  2  0  0  0  0
  9 14  1  0  0  0  0
 10 11  1  0  0  0  0
 11 13  2  0  0  0  0
 12 13  1  0  0  0  0
 13  8  1  0  0  0  0
 14 12  2  0  0  0  0
 15  9  1  0  0  0  0
 17 16  1  0  0  0  0
 17 15  1  0  0  0  0
 18 19  1  6  0  0  0
 18 21  1  0  0  0  0
 18 23  1  0  0  0  0
 21 20  1  0  0  0  0
 22 21  2  0  0  0  0
 24 23  1  1  0  0  0
 24 33  1  0  0  0  0
 25 26  1  6  0  0  0
 25 24  1  0  0  0  0
 27 30  1  6  0  0  0
 27 25  1  0  0  0  0
 27 28  1  0  0  0  0
 28 29  1  0  0  0  0
 31 32  1  0  0  0  0
 32 30  1  0  0  0  0
 33 34  1  0  0  0  0
M  END
>  <MODEL>
1

>  <REMARK>
 VINA RESULT:      -6.1      0.000      0.000
  Name = 
  17 active torsions:
  status: ('A' for Active; 'I' for Inactive)
    1  A    between atoms: C_1  and  C_18
    2  A    between atoms: C_1  and  C_20
    3  A    between atoms: C_2  and  C_25
    4  A    between atoms: C_2  and  C_32
    5  A    between atoms: O_3  and  C_24
    6  A    between atoms: O_3  and  C_25
    7  A    between atoms: C_5  and  C_20
    8  A    between atoms: C_5  and  C_32
    9  A    between atoms: C_6  and  C_18
   10  A    between atoms: C_6  and  C_28
   11  A    between atoms: C_7  and  O_11
   12  A    between atoms: O_11  and  C_21
   13  A    between atoms: C_12  and  C_20
   14  A    between atoms: C_18  and  C_30
   15  A    between atoms: O_19  and  C_32
   16  A    between atoms: C_25  and  N_27
   17  A    between atoms: C_30  and  C_31
                            x       y       z     vdW  Elec       q    Type
                         _______ _______ _______ _____ _____    ______ ____

>  <TORSDO>
F 17

$$$$
=
 OpenBabel10272415323D

 34 34  0  0  1  0  0  0  0  0999 V2000
  189.6660  176.6630  141.9120 C   0  0  1  0  0  3  0  0  0  0  0  0
  190.2210  175.3800  141.9790 O   0  0  0  0  0  1  0  0  0  0  0  0
  189.6550  178.7920  143.0560 O   0  0  0  0  0  1  0  0  0  0  0  0
  189.9410  177.4370  143.2390 C   0  0  2  0  0  0  0  0  0  0  0  0
  191.4200  177.3010  143.6300 C   0  0  0  0  0  2  0  0  0  0  0  0
  192.1160  175.2550  144.6420 O   0  0  0  0  0  1  0  0  0  0  0  0
  191.6520  176.5390  144.9300 C   0  0  0  0  0  2  0  0  0  0  0  0
  189.0730  176.9510  144.4160 C   0  0  0  0  0  2  0  0  0  0  0  0
  185.1470  178.6190  145.0670 C   0  0  0  0  0  0  0  0  0  0  0  0
  185.4820  178.1120  143.8100 C   0  0  0  0  0  3  0  0  0  0  0  0
  186.7530  177.5830  143.5840 C   0  0  0  0  0  3  0  0  0  0  0  0
  187.3710  178.0600  145.8670 C   0  0  0  0  0  3  0  0  0  0  0  0
  187.7180  177.5820  144.6010 C   0  0  0  0  0  0  0  0  0  0  0  0
  186.0960  178.5800  146.1010 C   0  0  0  0  0  3  0  0  0  0  0  0
  183.8710  179.1520  145.2650 O   0  0  0  0  0  0  0  0  0  0  0  0
  181.8210  178.6910  144.1240 C   0  0  0  0  0  1  0  0  0  0  0  0
  183.0410  179.5730  144.1900 C   0  0  0  0  0  2  0  0  0  0  0  0
  190.0390  177.3300  140.5550 C   0  0  2  0  0  0  0  0  0  0  0  0
  191.1460  178.1640  140.7430 O   0  0  0  0  0  1  0  0  0  0  0  0
  189.1210  179.0860  138.9380 N   0  0  0  0  0  1  0  0  0  0  0  0
  188.9110  178.1820  140.0200 C   0  0  0  0  0  0  0  0  0  0  0  0
  187.7590  178.0760  140.5170 O   0  0  0  0  0  0  0  0  0  0  0  0
  190.4140  176.2490  139.5300 C   0  0  0  0  0  2  0  0  0  0  0  0
  191.1790  176.7180  138.2800 C   0  0  1  0  0  3  0  0  0  0  0  0
  192.5020  175.9560  138.1120 C   0  0  2  0  0  3  0  0  0  0  0  0
  193.4430  176.4220  139.0160 F   0  0  0  0  0  0  0  0  0  0  0  0
  193.0850  176.0800  136.7010 C   0  0  1  0  0  3  0  0  0  0  0  0
  194.2450  176.9580  136.6830 N   0  0  0  0  0  2  0  0  0  0  0  0
  195.3060  176.2050  136.3070 O   0  0  0  0  0  1  0  0  0  0  0  0
  193.4270  174.8240  136.1930 O   0  0  0  0  0  0  0  0  0  0  0  0
  192.1020  172.8690  136.0590 C   0  0  0  0  0  1  0  0  0  0  0  0
  192.6920  173.9190  136.9580 C   0  0  0  0  0  2  0  0  0  0  0  0
  190.3920  176.6040  137.1300 O   0  0  0  0  0  0  0  0  0  0  0  0
  189.4880  175.5760  137.4030 C   0  0  0  0  0  1  0  0  0  0  0  0
  1  2  1  1  0  0  0
  1  4  1  0  0  0  0
  4  3  1  6  0  0  0
  4  5  1  0  0  0  0
  4  8  1  0  0  0  0
  5  7  1  0  0  0  0
  6  7  1  0  0  0  0
  8 13  1  0  0  0  0
  9 15  1  0  0  0  0
  9 14  1  0  0  0  0
 10  9  2  0  0  0  0
 11 10  1  0  0  0  0
 11 13  2  0  0  0  0
 12 14  2  0  0  0  0
 13 12  1  0  0  0  0
 16 17  1  0  0  0  0
 17 15  1  0  0  0  0
 18 19  1  1  0  0  0
 18  1  1  0  0  0  0
 20 21  1  0  0  0  0
 21 22  2  0  0  0  0
 21 18  1  0  0  0  0
 23 18  1  0  0  0  0
 24 23  1  1  0  0  0
 25 24  1  0  0  0  0
 25 26  1  1  0  0  0
 27 30  1  1  0  0  0
 27 25  1  0  0  0  0
 28 27  1  0  0  0  0
 29 28  1  0  0  0  0
 30 32  1  0  0  0  0
 31 32  1  0  0  0  0
 33 34  1  0  0  0  0
 33 24  1  0  0  0  0
M  END
>  <MODEL>
2

>  <REMARK>
 VINA RESULT:      -6.0      3.429      8.052
  Name = 
  17 active torsions:
  status: ('A' for Active; 'I' for Inactive)
    1  A    between atoms: C_1  and  C_18
    2  A    between atoms: C_1  and  C_20
    3  A    between atoms: C_2  and  C_25
    4  A    between atoms: C_2  and  C_32
    5  A    between atoms: O_3  and  C_24
    6  A    between atoms: O_3  and  C_25
    7  A    between atoms: C_5  and  C_20
    8  A    between atoms: C_5  and  C_32
    9  A    between atoms: C_6  and  C_18
   10  A    between atoms: C_6  and  C_28
   11  A    between atoms: C_7  and  O_11
   12  A    between atoms: O_11  and  C_21
   13  A    between atoms: C_12  and  C_20
   14  A    between atoms: C_18  and  C_30
   15  A    between atoms: O_19  and  C_32
   16  A    between atoms: C_25  and  N_27
   17  A    between atoms: C_30  and  C_31
                            x       y       z     vdW  Elec       q    Type
                         _______ _______ _______ _____ _____    ______ ____

>  <TORSDO>
F 17

$$$$
=
 OpenBabel10272415323D

 34 34  0  0  1  0  0  0  0  0999 V2000
  190.0760  176.9790  144.8370 C   0  0  1  0  0  3  0  0  0  0  0  0
  191.2010  177.7100  145.2370 O   0  0  0  0  0  1  0  0  0  0  0  0
  188.6590  178.8960  144.4360 O   0  0  0  0  0  1  0  0  0  0  0  0
  188.7720  177.7470  145.2220 C   0  0  2  0  0  0  0  0  0  0  0  0
  188.8280  178.1700  146.6970 C   0  0  0  0  0  2  0  0  0  0  0  0
  187.7010  177.5920  148.7200 O   0  0  0  0  0  1  0  0  0  0  0  0
  188.4610  177.0620  147.6770 C   0  0  0  0  0  2  0  0  0  0  0  0
  187.4920  176.9200  144.9940 C   0  0  0  0  0  2  0  0  0  0  0  0
  183.7450  178.9150  144.2200 C   0  0  0  0  0  0  0  0  0  0  0  0
  184.4570  178.3480  143.1610 C   0  0  0  0  0  3  0  0  0  0  0  0
  185.6760  177.7130  143.3970 C   0  0  0  0  0  3  0  0  0  0  0  0
  185.4890  178.2010  145.7520 C   0  0  0  0  0  3  0  0  0  0  0  0
  186.2170  177.6630  144.6900 C   0  0  0  0  0  0  0  0  0  0  0  0
  184.2620  178.8290  145.5230 C   0  0  0  0  0  3  0  0  0  0  0  0
  182.5310  179.5550  143.9560 O   0  0  0  0  0  0  0  0  0  0  0  0
  180.2800  178.7870  143.7000 C   0  0  0  0  0  1  0  0  0  0  0  0
  181.5930  179.0570  143.0100 C   0  0  0  0  0  2  0  0  0  0  0  0
  190.2590  176.4850  143.3720 C   0  0  2  0  0  0  0  0  0  0  0  0
  189.3650  175.4390  143.1250 O   0  0  0  0  0  1  0  0  0  0  0  0
  192.5560  176.6400  142.2580 N   0  0  0  0  0  1  0  0  0  0  0  0
  191.6550  175.9600  143.1280 C   0  0  0  0  0  0  0  0  0  0  0  0
  192.0430  174.9180  143.7210 O   0  0  0  0  0  0  0  0  0  0  0  0
  189.9500  177.6300  142.3950 C   0  0  0  0  0  2  0  0  0  0  0  0
  189.0870  177.2780  141.1700 C   0  0  1  0  0  3  0  0  0  0  0  0
  188.4560  178.5320  140.5490 C   0  0  2  0  0  3  0  0  0  0  0  0
  187.9620  179.3630  141.5420 F   0  0  0  0  0  0  0  0  0  0  0  0
  187.3160  178.2070  139.5790 C   0  0  1  0  0  3  0  0  0  0  0  0
  186.0470  178.7320  140.0590 N   0  0  0  0  0  2  0  0  0  0  0  0
  185.3640  179.1700  138.9750 O   0  0  0  0  0  1  0  0  0  0  0  0
  187.5900  178.7080  138.3040 O   0  0  0  0  0  0  0  0  0  0  0  0
  188.9110  177.9240  136.5050 C   0  0  0  0  0  1  0  0  0  0  0  0
  187.8680  177.5810  137.5310 C   0  0  0  0  0  2  0  0  0  0  0  0
  189.8240  176.5690  140.2160 O   0  0  0  0  0  0  0  0  0  0  0  0
  190.7590  177.4790  139.7220 C   0  0  0  0  0  1  0  0  0  0  0  0
  1  4  1  0  0  0  0
  1  2  1  6  0  0  0
  4  3  1  6  0  0  0
  4  5  1  0  0  0  0
  5  7  1  0  0  0  0
  7  6  1  0  0  0  0
  8  4  1  0  0  0  0
  9 14  1  0  0  0  0
 10 11  1  0  0  0  0
 10  9  2  0  0  0  0
 11 13  2  0  0  0  0
 13  8  1  0  0  0  0
 13 12  1  0  0  0  0
 14 12  2  0  0  0  0
 15  9  1  0  0  0  0
 17 16  1  0  0  0  0
 17 15  1  0  0  0  0
 18 19  1  6  0  0  0
 18  1  1  0  0  0  0
 20 21  1  0  0  0  0
 21 18  1  0  0  0  0
 21 22  2  0  0  0  0
 23 18  1  0  0  0  0
 24 23  1  1  0  0  0
 25 24  1  0  0  0  0
 25 26  1  1  0  0  0
 27 30  1  6  0  0  0
 27 28  1  0  0  0  0
 27 25  1  0  0  0  0
 29 28  1  0  0  0  0
 31 32  1  0  0  0  0
 32 30  1  0  0  0  0
 33 24  1  0  0  0  0
 34 33  1  0  0  0  0
M  END
>  <MODEL>
3

>  <REMARK>
 VINA RESULT:      -6.0      2.237      6.433
  Name = 
  17 active torsions:
  status: ('A' for Active; 'I' for Inactive)
    1  A    between atoms: C_1  and  C_18
    2  A    between atoms: C_1  and  C_20
    3  A    between atoms: C_2  and  C_25
    4  A    between atoms: C_2  and  C_32
    5  A    between atoms: O_3  and  C_24
    6  A    between atoms: O_3  and  C_25
    7  A    between atoms: C_5  and  C_20
    8  A    between atoms: C_5  and  C_32
    9  A    between atoms: C_6  and  C_18
   10  A    between atoms: C_6  and  C_28
   11  A    between atoms: C_7  and  O_11
   12  A    between atoms: O_11  and  C_21
   13  A    between atoms: C_12  and  C_20
   14  A    between atoms: C_18  and  C_30
   15  A    between atoms: O_19  and  C_32
   16  A    between atoms: C_25  and  N_27
   17  A    between atoms: C_30  and  C_31
                            x       y       z     vdW  Elec       q    Type
                         _______ _______ _______ _____ _____    ______ ____

>  <TORSDO>
F 17

$$$$
=
 OpenBabel10272415323D

 34 34  0  0  1  0  0  0  0  0999 V2000
  189.6750  176.5910  144.2260 C   0  0  1  0  0  3  0  0  0  0  0  0
  190.8440  176.5240  144.9930 O   0  0  0  0  0  1  0  0  0  0  0  0
  188.4230  178.6510  144.0440 O   0  0  0  0  0  1  0  0  0  0  0  0
  188.6520  177.5640  144.8920 C   0  0  2  0  0  0  0  0  0  0  0  0
  189.2150  178.0920  146.2190 C   0  0  0  0  0  2  0  0  0  0  0  0
  188.0620  178.4190  148.2820 O   0  0  0  0  0  1  0  0  0  0  0  0
  188.6120  177.4380  147.4560 C   0  0  0  0  0  2  0  0  0  0  0  0
  187.2820  176.9110  145.1630 C   0  0  0  0  0  2  0  0  0  0  0  0
  183.6350  179.0250  144.2430 C   0  0  0  0  0  0  0  0  0  0  0  0
  184.3270  178.3660  143.2250 C   0  0  0  0  0  3  0  0  0  0  0  0
  185.5150  177.6910  143.5070 C   0  0  0  0  0  3  0  0  0  0  0  0
  185.3350  178.3220  145.8290 C   0  0  0  0  0  3  0  0  0  0  0  0
  186.0450  177.6910  144.8050 C   0  0  0  0  0  0  0  0  0  0  0  0
  184.1390  178.9900  145.5530 C   0  0  0  0  0  3  0  0  0  0  0  0
  182.4530  179.7020  143.9310 O   0  0  0  0  0  0  0  0  0  0  0  0
  180.3750  178.5220  144.0350 C   0  0  0  0  0  1  0  0  0  0  0  0
  181.4260  179.1240  143.1370 C   0  0  0  0  0  2  0  0  0  0  0  0
  190.0380  176.7860  142.7250 C   0  0  2  0  0  0  0  0  0  0  0  0
  190.4130  175.5540  142.1790 O   0  0  0  0  0  1  0  0  0  0  0  0
  192.2670  177.4340  141.6500 N   0  0  0  0  0  1  0  0  0  0  0  0
  191.2000  177.7360  142.5470 C   0  0  0  0  0  0  0  0  0  0  0  0
  191.2190  178.8250  143.1790 O   0  0  0  0  0  0  0  0  0  0  0  0
  188.8130  177.3050  141.9560 C   0  0  0  0  0  2  0  0  0  0  0  0
  189.0830  177.9820  140.6000 C   0  0  1  0  0  3  0  0  0  0  0  0
  189.0550  176.9660  139.4500 C   0  0  2  0  0  3  0  0  0  0  0  0
  190.3260  176.4630  139.2220 F   0  0  0  0  0  0  0  0  0  0  0  0
  188.5290  177.5630  138.1420 C   0  0  1  0  0  3  0  0  0  0  0  0
  189.5510  178.3540  137.4730 N   0  0  0  0  0  2  0  0  0  0  0  0
  189.0500  179.6030  137.3230 O   0  0  0  0  0  1  0  0  0  0  0  0
  188.0660  176.5590  137.2870 O   0  0  0  0  0  0  0  0  0  0  0  0
  186.0720  177.8270  137.1720 C   0  0  0  0  0  1  0  0  0  0  0  0
  186.6920  176.5020  137.5190 C   0  0  0  0  0  2  0  0  0  0  0  0
  188.1810  179.0240  140.3650 O   0  0  0  0  0  0  0  0  0  0  0  0
  186.9610  178.5770  140.8750 C   0  0  0  0  0  1  0  0  0  0  0  0
  1  4  1  0  0  0  0
  1  2  1  1  0  0  0
  4  3  1  6  0  0  0
  4  8  1  0  0  0  0
  4  5  1  0  0  0  0
  5  7  1  0  0  0  0
  7  6  1  0  0  0  0
  9 14  1  0  0  0  0
 10 11  1  0  0  0  0
 10  9  2  0  0  0  0
 11 13  2  0  0  0  0
 13  8  1  0  0  0  0
 13 12  1  0  0  0  0
 14 12  2  0  0  0  0
 15  9  1  0  0  0  0
 17 15  1  0  0  0  0
 17 16  1  0  0  0  0
 18 19  1  6  0  0  0
 18  1  1  0  0  0  0
 20 21  1  0  0  0  0
 21 18  1  0  0  0  0
 21 22  2  0  0  0  0
 23 18  1  0  0  0  0
 24 23  1  1  0  0  0
 25 26  1  6  0  0  0
 25 24  1  0  0  0  0
 27 30  1  6  0  0  0
 27 25  1  0  0  0  0
 28 27  1  0  0  0  0
 29 28  1  0  0  0  0
 30 32  1  0  0  0  0
 31 32  1  0  0  0  0
 33 24  1  0  0  0  0
 33 34  1  0  0  0  0
M  END
>  <MODEL>
4

>  <REMARK>
 VINA RESULT:      -6.0      2.689      6.683
  Name = 
  17 active torsions:
  status: ('A' for Active; 'I' for Inactive)
    1  A    between atoms: C_1  and  C_18
    2  A    between atoms: C_1  and  C_20
    3  A    between atoms: C_2  and  C_25
    4  A    between atoms: C_2  and  C_32
    5  A    between atoms: O_3  and  C_24
    6  A    between atoms: O_3  and  C_25
    7  A    between atoms: C_5  and  C_20
    8  A    between atoms: C_5  and  C_32
    9  A    between atoms: C_6  and  C_18
   10  A    between atoms: C_6  and  C_28
   11  A    between atoms: C_7  and  O_11
   12  A    between atoms: O_11  and  C_21
   13  A    between atoms: C_12  and  C_20
   14  A    between atoms: C_18  and  C_30
   15  A    between atoms: O_19  and  C_32
   16  A    between atoms: C_25  and  N_27
   17  A    between atoms: C_30  and  C_31
                            x       y       z     vdW  Elec       q    Type
                         _______ _______ _______ _____ _____    ______ ____

>  <TORSDO>
F 17

$$$$
=
 OpenBabel10272415323D

 34 34  0  0  1  0  0  0  0  0999 V2000
  189.6010  178.1130  139.5260 C   0  0  1  0  0  3  0  0  0  0  0  0
  189.0010  179.2790  139.0360 O   0  0  0  0  0  1  0  0  0  0  0  0
  189.4290  176.4560  141.2780 O   0  0  0  0  0  1  0  0  0  0  0  0
  188.9670  177.7190  140.8970 C   0  0  2  0  0  0  0  0  0  0  0  0
  187.4380  177.6600  140.7720 C   0  0  0  0  0  2  0  0  0  0  0  0
  185.6980  178.1640  142.3250 O   0  0  0  0  0  1  0  0  0  0  0  0
  186.7070  178.7440  141.5570 C   0  0  0  0  0  2  0  0  0  0  0  0
  189.3320  178.6920  142.0360 C   0  0  0  0  0  2  0  0  0  0  0  0
  190.5480  177.1630  145.8830 C   0  0  0  0  0  0  0  0  0  0  0  0
  191.5180  177.5300  144.9480 C   0  0  0  0  0  3  0  0  0  0  0  0
  191.1370  178.0120  143.6960 C   0  0  0  0  0  3  0  0  0  0  0  0
  188.8130  177.7690  144.2960 C   0  0  0  0  0  3  0  0  0  0  0  0
  189.7820  178.1050  143.3480 C   0  0  0  0  0  0  0  0  0  0  0  0
  189.1900  177.2960  145.5560 C   0  0  0  0  0  3  0  0  0  0  0  0
  190.9560  176.6740  147.1270 O   0  0  0  0  0  0  0  0  0  0  0  0
  192.8620  175.8960  148.3460 C   0  0  0  0  0  1  0  0  0  0  0  0
  191.8600  175.5850  147.2630 C   0  0  0  0  0  2  0  0  0  0  0  0
  189.6840  177.0460  138.3960 C   0  0  2  0  0  0  0  0  0  0  0  0
  188.6120  176.1560  138.5250 O   0  0  0  0  0  1  0  0  0  0  0  0
  191.0090  174.8900  138.0180 N   0  0  0  0  0  1  0  0  0  0  0  0
  190.9590  176.2390  138.4800 C   0  0  0  0  0  0  0  0  0  0  0  0
  192.0050  176.7690  138.9390 O   0  0  0  0  0  0  0  0  0  0  0  0
  189.5840  177.7310  137.0250 C   0  0  0  0  0  2  0  0  0  0  0  0
  188.5810  177.1300  136.0230 C   0  0  1  0  0  3  0  0  0  0  0  0
  187.3750  178.0570  135.8130 C   0  0  2  0  0  3  0  0  0  0  0  0
  187.6000  179.2830  136.4180 F   0  0  0  0  0  0  0  0  0  0  0  0
  186.0730  177.4740  136.3690 C   0  0  1  0  0  3  0  0  0  0  0  0
  186.0310  176.0280  136.2100 N   0  0  0  0  0  2  0  0  0  0  0  0
  185.5840  175.7800  134.9560 O   0  0  0  0  0  1  0  0  0  0  0  0
  185.9120  177.8120  137.7160 O   0  0  0  0  0  0  0  0  0  0  0  0
  184.2270  179.0340  138.8410 C   0  0  0  0  0  1  0  0  0  0  0  0
  184.5320  177.9060  137.8950 C   0  0  0  0  0  2  0  0  0  0  0  0
  189.1970  176.8330  134.8040 O   0  0  0  0  0  0  0  0  0  0  0  0
  189.2260  175.4400  134.7360 C   0  0  0  0  0  1  0  0  0  0  0  0
  1  2  1  6  0  0  0
  1  4  1  0  0  0  0
  4  3  1  1  0  0  0
  4  8  1  0  0  0  0
  5  4  1  0  0  0  0
  5  7  1  0  0  0  0
  7  6  1  0  0  0  0
  8 13  1  0  0  0  0
  9 15  1  0  0  0  0
 10  9  2  0  0  0  0
 11 10  1  0  0  0  0
 12 14  2  0  0  0  0
 13 11  2  0  0  0  0
 13 12  1  0  0  0  0
 14  9  1  0  0  0  0
 15 17  1  0  0  0  0
 17 16  1  0  0  0  0
 18 21  1  0  0  0  0
 18 19  1  1  0  0  0
 18  1  1  0  0  0  0
 20 21  1  0  0  0  0
 21 22  2  0  0  0  0
 23 18  1  0  0  0  0
 24 23  1  1  0  0  0
 25 24  1  0  0  0  0
 25 27  1  0  0  0  0
 25 26  1  1  0  0  0
 27 28  1  1  0  0  0
 27 30  1  0  0  0  0
 29 28  1  0  0  0  0
 30 32  1  0  0  0  0
 32 31  1  0  0  0  0
 33 24  1  0  0  0  0
 34 33  1  0  0  0  0
M  END
>  <MODEL>
5

>  <REMARK>
 VINA RESULT:      -5.8      3.323      8.028
  Name = 
  17 active torsions:
  status: ('A' for Active; 'I' for Inactive)
    1  A    between atoms: C_1  and  C_18
    2  A    between atoms: C_1  and  C_20
    3  A    between atoms: C_2  and  C_25
    4  A    between atoms: C_2  and  C_32
    5  A    between atoms: O_3  and  C_24
    6  A    between atoms: O_3  and  C_25
    7  A    between atoms: C_5  and  C_20
    8  A    between atoms: C_5  and  C_32
    9  A    between atoms: C_6  and  C_18
   10  A    between atoms: C_6  and  C_28
   11  A    between atoms: C_7  and  O_11
   12  A    between atoms: O_11  and  C_21
   13  A    between atoms: C_12  and  C_20
   14  A    between atoms: C_18  and  C_30
   15  A    between atoms: O_19  and  C_32
   16  A    between atoms: C_25  and  N_27
   17  A    between atoms: C_30  and  C_31
                            x       y       z     vdW  Elec       q    Type
                         _______ _______ _______ _____ _____    ______ ____

>  <TORSDO>
F 17

$$$$
=
 OpenBabel10272415323D

 34 34  0  0  1  0  0  0  0  0999 V2000
  188.1420  178.5360  140.1340 C   0  0  1  0  0  3  0  0  0  0  0  0
  186.8550  178.8110  140.6130 O   0  0  0  0  0  1  0  0  0  0  0  0
  189.4960  178.8220  142.1160 O   0  0  0  0  0  1  0  0  0  0  0  0
  188.9930  177.8500  141.2480 C   0  0  2  0  0  0  0  0  0  0  0  0
  190.1770  177.1010  140.6180 C   0  0  0  0  0  2  0  0  0  0  0  0
  192.5100  177.4930  140.3010 O   0  0  0  0  0  1  0  0  0  0  0  0
  191.5200  177.3930  141.2790 C   0  0  0  0  0  2  0  0  0  0  0  0
  188.1830  176.8580  142.1060 C   0  0  0  0  0  2  0  0  0  0  0  0
  187.4080  177.7240  146.2610 C   0  0  0  0  0  0  0  0  0  0  0  0
  186.4360  178.0150  145.3020 C   0  0  0  0  0  3  0  0  0  0  0  0
  186.6800  177.7520  143.9540 C   0  0  0  0  0  3  0  0  0  0  0  0
  188.8710  176.9040  144.5050 C   0  0  0  0  0  3  0  0  0  0  0  0
  187.9120  177.2250  143.5410 C   0  0  0  0  0  0  0  0  0  0  0  0
  188.6260  177.1550  145.8570 C   0  0  0  0  0  3  0  0  0  0  0  0
  187.1410  178.0050  147.6040 O   0  0  0  0  0  0  0  0  0  0  0  0
  189.1880  178.4330  148.7660 C   0  0  0  0  0  1  0  0  0  0  0  0
  187.9730  177.5470  148.6620 C   0  0  0  0  0  2  0  0  0  0  0  0
  188.0530  177.8700  138.7300 C   0  0  2  0  0  0  0  0  0  0  0  0
  188.3280  176.5040  138.8520 O   0  0  0  0  0  1  0  0  0  0  0  0
  190.0010  177.6210  137.0920 N   0  0  0  0  0  1  0  0  0  0  0  0
  189.0610  178.4540  137.7670 C   0  0  0  0  0  0  0  0  0  0  0  0
  189.0570  179.6910  137.5340 O   0  0  0  0  0  0  0  0  0  0  0  0
  186.6320  178.0300  138.1670 C   0  0  0  0  0  2  0  0  0  0  0  0
  186.2500  177.1200  136.9870 C   0  0  1  0  0  3  0  0  0  0  0  0
  184.7350  176.8690  136.9390 C   0  0  2  0  0  3  0  0  0  0  0  0
  184.0560  177.9140  137.5440 F   0  0  0  0  0  0  0  0  0  0  0  0
  184.3270  175.5630  137.6270 C   0  0  1  0  0  3  0  0  0  0  0  0
  182.9430  175.6120  138.0750 N   0  0  0  0  0  2  0  0  0  0  0  0
  182.1670  175.5580  136.9670 O   0  0  0  0  0  1  0  0  0  0  0  0
  184.5160  174.4720  136.7750 O   0  0  0  0  0  0  0  0  0  0  0  0
  184.3030  172.1240  136.9710 C   0  0  0  0  0  1  0  0  0  0  0  0
  184.7630  173.3960  137.6270 C   0  0  0  0  0  2  0  0  0  0  0  0
  186.7050  177.6440  135.7730 O   0  0  0  0  0  0  0  0  0  0  0  0
  187.1050  176.5380  135.0220 C   0  0  0  0  0  1  0  0  0  0  0  0
  1  2  1  1  0  0  0
  1  4  1  0  0  0  0
  4  8  1  0  0  0  0
  4  3  1  1  0  0  0
  5  4  1  0  0  0  0
  5  7  1  0  0  0  0
  6  7  1  0  0  0  0
  8 13  1  0  0  0  0
  9 15  1  0  0  0  0
 10  9  2  0  0  0  0
 11 10  1  0  0  0  0
 12 14  2  0  0  0  0
 13 11  2  0  0  0  0
 13 12  1  0  0  0  0
 14  9  1  0  0  0  0
 15 17  1  0  0  0  0
 17 16  1  0  0  0  0
 18 19  1  1  0  0  0
 18  1  1  0  0  0  0
 20 21  1  0  0  0  0
 21 18  1  0  0  0  0
 22 21  2  0  0  0  0
 23 18  1  0  0  0  0
 24 23  1  1  0  0  0
 25 24  1  0  0  0  0
 25 26  1  1  0  0  0
 25 27  1  0  0  0  0
 27 30  1  6  0  0  0
 27 28  1  0  0  0  0
 29 28  1  0  0  0  0
 30 32  1  0  0  0  0
 31 32  1  0  0  0  0
 33 24  1  0  0  0  0
 34 33  1  0  0  0  0
M  END
>  <MODEL>
6

>  <REMARK>
 VINA RESULT:      -5.7      3.402      7.851
  Name = 
  17 active torsions:
  status: ('A' for Active; 'I' for Inactive)
    1  A    between atoms: C_1  and  C_18
    2  A    between atoms: C_1  and  C_20
    3  A    between atoms: C_2  and  C_25
    4  A    between atoms: C_2  and  C_32
    5  A    between atoms: O_3  and  C_24
    6  A    between atoms: O_3  and  C_25
    7  A    between atoms: C_5  and  C_20
    8  A    between atoms: C_5  and  C_32
    9  A    between atoms: C_6  and  C_18
   10  A    between atoms: C_6  and  C_28
   11  A    between atoms: C_7  and  O_11
   12  A    between atoms: O_11  and  C_21
   13  A    between atoms: C_12  and  C_20
   14  A    between atoms: C_18  and  C_30
   15  A    between atoms: O_19  and  C_32
   16  A    between atoms: C_25  and  N_27
   17  A    between atoms: C_30  and  C_31
                            x       y       z     vdW  Elec       q    Type
                         _______ _______ _______ _____ _____    ______ ____

>  <TORSDO>
F 17

$$$$
=
 OpenBabel10272415323D

 34 34  0  0  1  0  0  0  0  0999 V2000
  189.1980  178.2470  138.8060 C   0  0  1  0  0  3  0  0  0  0  0  0
  188.6890  179.4100  138.2160 O   0  0  0  0  0  1  0  0  0  0  0  0
  188.5940  176.5690  140.4370 O   0  0  0  0  0  1  0  0  0  0  0  0
  188.4030  177.9130  140.1060 C   0  0  2  0  0  0  0  0  0  0  0  0
  186.9020  178.1490  139.8800 C   0  0  0  0  0  2  0  0  0  0  0  0
  185.1750  179.6180  140.6240 O   0  0  0  0  0  1  0  0  0  0  0  0
  186.1820  178.7640  141.0750 C   0  0  0  0  0  2  0  0  0  0  0  0
  188.8550  178.7420  141.3240 C   0  0  0  0  0  2  0  0  0  0  0  0
  190.9830  176.8690  144.5760 C   0  0  0  0  0  0  0  0  0  0  0  0
  191.6400  177.1070  143.3680 C   0  0  0  0  0  3  0  0  0  0  0  0
  190.9580  177.7000  142.3040 C   0  0  0  0  0  3  0  0  0  0  0  0
  188.9550  177.8240  143.6430 C   0  0  0  0  0  3  0  0  0  0  0  0
  189.6020  178.0330  142.4230 C   0  0  0  0  0  0  0  0  0  0  0  0
  189.6370  177.2410  144.7140 C   0  0  0  0  0  3  0  0  0  0  0  0
  191.6860  176.2650  145.6230 O   0  0  0  0  0  0  0  0  0  0  0  0
  192.3800  175.7780  147.8590 C   0  0  0  0  0  1  0  0  0  0  0  0
  191.4980  176.6320  146.9830 C   0  0  0  0  0  2  0  0  0  0  0  0
  189.3800  177.1420  137.7250 C   0  0  2  0  0  0  0  0  0  0  0  0
  190.1720  177.6430  136.6850 O   0  0  0  0  0  1  0  0  0  0  0  0
  187.5210  175.4210  137.3760 N   0  0  0  0  0  1  0  0  0  0  0  0
  188.0590  176.7180  137.1270 C   0  0  0  0  0  0  0  0  0  0  0  0
  187.4040  177.5290  136.4200 O   0  0  0  0  0  0  0  0  0  0  0  0
  190.0950  175.9280  138.3370 C   0  0  0  0  0  2  0  0  0  0  0  0
  191.1300  175.2140  137.4490 C   0  0  1  0  0  3  0  0  0  0  0  0
  192.5630  175.4880  137.9250 C   0  0  2  0  0  3  0  0  0  0  0  0
  192.7610  176.8490  138.0970 F   0  0  0  0  0  0  0  0  0  0  0  0
  193.6240  174.9630  136.9530 C   0  0  1  0  0  3  0  0  0  0  0  0
  194.5400  176.0200  136.5500 N   0  0  0  0  0  2  0  0  0  0  0  0
  194.1820  176.3990  135.3000 O   0  0  0  0  0  1  0  0  0  0  0  0
  194.3360  173.9020  137.5180 O   0  0  0  0  0  0  0  0  0  0  0  0
  196.4160  173.8550  138.6430 C   0  0  0  0  0  1  0  0  0  0  0  0
  195.0480  174.4750  138.5710 C   0  0  0  0  0  2  0  0  0  0  0  0
  190.8820  173.8390  137.3850 O   0  0  0  0  0  0  0  0  0  0  0  0
  190.2310  173.6380  136.1670 C   0  0  0  0  0  1  0  0  0  0  0  0
  1  2  1  6  0  0  0
  1  4  1  0  0  0  0
  4  3  1  1  0  0  0
  4  8  1  0  0  0  0
  5  4  1  0  0  0  0
  5  7  1  0  0  0  0
  6  7  1  0  0  0  0
  8 13  1  0  0  0  0
  9 14  1  0  0  0  0
  9 15  1  0  0  0  0
 10  9  2  0  0  0  0
 11 13  2  0  0  0  0
 11 10  1  0  0  0  0
 12 14  2  0  0  0  0
 13 12  1  0  0  0  0
 15 17  1  0  0  0  0
 17 16  1  0  0  0  0
 18 19  1  6  0  0  0
 18 23  1  0  0  0  0
 18  1  1  0  0  0  0
 21 20  1  0  0  0  0
 21 18  1  0  0  0  0
 22 21  2  0  0  0  0
 24 25  1  0  0  0  0
 24 23  1  1  0  0  0
 25 26  1  6  0  0  0
 27 28  1  1  0  0  0
 27 30  1  0  0  0  0
 27 25  1  0  0  0  0
 29 28  1  0  0  0  0
 30 32  1  0  0  0  0
 32 31  1  0  0  0  0
 33 24  1  0  0  0  0
 34 33  1  0  0  0  0
M  END
>  <MODEL>
7

>  <REMARK>
 VINA RESULT:      -5.5      3.805      9.006
  Name = 
  17 active torsions:
  status: ('A' for Active; 'I' for Inactive)
    1  A    between atoms: C_1  and  C_18
    2  A    between atoms: C_1  and  C_20
    3  A    between atoms: C_2  and  C_25
    4  A    between atoms: C_2  and  C_32
    5  A    between atoms: O_3  and  C_24
    6  A    between atoms: O_3  and  C_25
    7  A    between atoms: C_5  and  C_20
    8  A    between atoms: C_5  and  C_32
    9  A    between atoms: C_6  and  C_18
   10  A    between atoms: C_6  and  C_28
   11  A    between atoms: C_7  and  O_11
   12  A    between atoms: O_11  and  C_21
   13  A    between atoms: C_12  and  C_20
   14  A    between atoms: C_18  and  C_30
   15  A    between atoms: O_19  and  C_32
   16  A    between atoms: C_25  and  N_27
   17  A    between atoms: C_30  and  C_31
                            x       y       z     vdW  Elec       q    Type
                         _______ _______ _______ _____ _____    ______ ____

>  <TORSDO>
F 17

$$$$
=
 OpenBabel10272415323D

 34 34  0  0  1  0  0  0  0  0999 V2000
  190.2140  176.1930  144.0050 C   0  0  1  0  0  3  0  0  0  0  0  0
  191.2480  175.2560  144.1190 O   0  0  0  0  0  1  0  0  0  0  0  0
  189.9310  178.4500  144.8240 O   0  0  0  0  0  1  0  0  0  0  0  0
  190.2170  177.1470  145.2400 C   0  0  2  0  0  0  0  0  0  0  0  0
  191.6020  177.1420  145.9060 C   0  0  0  0  0  2  0  0  0  0  0  0
  192.3330  175.4130  147.3780 O   0  0  0  0  0  1  0  0  0  0  0  0
  191.6050  176.6030  147.3310 C   0  0  0  0  0  2  0  0  0  0  0  0
  189.1600  176.7730  146.2980 C   0  0  0  0  0  2  0  0  0  0  0  0
  185.1840  178.4360  146.1020 C   0  0  0  0  0  0  0  0  0  0  0  0
  185.6200  177.5680  145.0990 C   0  0  0  0  0  3  0  0  0  0  0  0
  186.9080  177.0350  145.1440 C   0  0  0  0  0  3  0  0  0  0  0  0
  187.3420  178.2290  147.1950 C   0  0  0  0  0  3  0  0  0  0  0  0
  187.7910  177.3870  146.1750 C   0  0  0  0  0  0  0  0  0  0  0  0
  186.0490  178.7560  147.1600 C   0  0  0  0  0  3  0  0  0  0  0  0
  183.8920  178.9630  146.0280 O   0  0  0  0  0  0  0  0  0  0  0  0
  184.0960  179.9330  143.8520 C   0  0  0  0  0  1  0  0  0  0  0  0
  183.2130  179.1560  144.7940 C   0  0  0  0  0  2  0  0  0  0  0  0
  190.2120  176.8070  142.5750 C   0  0  2  0  0  0  0  0  0  0  0  0
  190.4080  175.7880  141.6370 O   0  0  0  0  0  1  0  0  0  0  0  0
  191.2580  179.1030  142.9970 N   0  0  0  0  0  1  0  0  0  0  0  0
  191.3260  177.8130  142.3940 C   0  0  0  0  0  0  0  0  0  0  0  0
  192.3450  177.5020  141.7220 O   0  0  0  0  0  0  0  0  0  0  0  0
  188.8550  177.4700  142.2950 C   0  0  0  0  0  2  0  0  0  0  0  0
  188.8060  178.4850  141.1380 C   0  0  1  0  0  3  0  0  0  0  0  0
  189.0450  177.8030  139.7830 C   0  0  2  0  0  3  0  0  0  0  0  0
  190.3380  178.0420  139.3470 F   0  0  0  0  0  0  0  0  0  0  0  0
  188.0730  178.2780  138.6990 C   0  0  1  0  0  3  0  0  0  0  0  0
  188.7320  179.1610  137.7480 N   0  0  0  0  0  2  0  0  0  0  0  0
  187.8640  179.3640  136.7290 O   0  0  0  0  0  1  0  0  0  0  0  0
  187.5050  177.1920  138.0290 O   0  0  0  0  0  0  0  0  0  0  0  0
  188.4010  175.3790  136.8010 C   0  0  0  0  0  1  0  0  0  0  0  0
  188.4900  176.2050  138.0540 C   0  0  0  0  0  2  0  0  0  0  0  0
  187.5990  179.1910  141.1330 O   0  0  0  0  0  0  0  0  0  0  0  0
  186.7130  178.4100  141.8770 C   0  0  0  0  0  1  0  0  0  0  0  0
  1  2  1  6  0  0  0
  1  4  1  0  0  0  0
  4  3  1  6  0  0  0
  4  5  1  0  0  0  0
  4  8  1  0  0  0  0
  5  7  1  0  0  0  0
  7  6  1  0  0  0  0
  9 14  1  0  0  0  0
 10 11  1  0  0  0  0
 10  9  2  0  0  0  0
 11 13  2  0  0  0  0
 13  8  1  0  0  0  0
 13 12  1  0  0  0  0
 14 12  2  0  0  0  0
 15  9  1  0  0  0  0
 16 17  1  0  0  0  0
 17 15  1  0  0  0  0
 18 19  1  6  0  0  0
 18  1  1  0  0  0  0
 21 18  1  0  0  0  0
 21 20  1  0  0  0  0
 22 21  2  0  0  0  0
 23 18  1  0  0  0  0
 24 23  1  1  0  0  0
 25 26  1  6  0  0  0
 25 24  1  0  0  0  0
 27 28  1  6  0  0  0
 27 25  1  0  0  0  0
 29 28  1  0  0  0  0
 30 32  1  0  0  0  0
 30 27  1  0  0  0  0
 31 32  1  0  0  0  0
 33 24  1  0  0  0  0
 33 34  1  0  0  0  0
M  END
>  <MODEL>
8

>  <REMARK>
 VINA RESULT:      -5.5      2.652      6.699
  Name = 
  17 active torsions:
  status: ('A' for Active; 'I' for Inactive)
    1  A    between atoms: C_1  and  C_18
    2  A    between atoms: C_1  and  C_20
    3  A    between atoms: C_2  and  C_25
    4  A    between atoms: C_2  and  C_32
    5  A    between atoms: O_3  and  C_24
    6  A    between atoms: O_3  and  C_25
    7  A    between atoms: C_5  and  C_20
    8  A    between atoms: C_5  and  C_32
    9  A    between atoms: C_6  and  C_18
   10  A    between atoms: C_6  and  C_28
   11  A    between atoms: C_7  and  O_11
   12  A    between atoms: O_11  and  C_21
   13  A    between atoms: C_12  and  C_20
   14  A    between atoms: C_18  and  C_30
   15  A    between atoms: O_19  and  C_32
   16  A    between atoms: C_25  and  N_27
   17  A    between atoms: C_30  and  C_31
                            x       y       z     vdW  Elec       q    Type
                         _______ _______ _______ _____ _____    ______ ____

>  <TORSDO>
F 17

$$$$
=
 OpenBabel10272415323D

 34 34  0  0  1  0  0  0  0  0999 V2000
  189.6030  178.2390  139.3040 C   0  0  1  0  0  3  0  0  0  0  0  0
  188.9780  179.3410  138.7100 O   0  0  0  0  0  1  0  0  0  0  0  0
  189.2900  179.1480  141.5220 O   0  0  0  0  0  1  0  0  0  0  0  0
  189.0410  178.0150  140.7430 C   0  0  2  0  0  0  0  0  0  0  0  0
  189.7380  176.8130  141.3990 C   0  0  0  0  0  2  0  0  0  0  0  0
  192.0040  177.2890  141.9740 O   0  0  0  0  0  1  0  0  0  0  0  0
  190.7180  177.1880  142.5040 C   0  0  0  0  0  2  0  0  0  0  0  0
  187.5190  177.7780  140.7700 C   0  0  0  0  0  2  0  0  0  0  0  0
  185.2930  178.6640  144.3580 C   0  0  0  0  0  0  0  0  0  0  0  0
  185.0030  179.3520  143.1780 C   0  0  0  0  0  3  0  0  0  0  0  0
  185.7260  179.0840  142.0150 C   0  0  0  0  0  3  0  0  0  0  0  0
  187.0350  177.4360  143.1940 C   0  0  0  0  0  3  0  0  0  0  0  0
  186.7690  178.1470  142.0230 C   0  0  0  0  0  0  0  0  0  0  0  0
  186.3070  177.6930  144.3590 C   0  0  0  0  0  3  0  0  0  0  0  0
  184.5600  178.9580  145.5120 O   0  0  0  0  0  0  0  0  0  0  0  0
  186.0070  179.1720  147.4040 C   0  0  0  0  0  1  0  0  0  0  0  0
  184.8730  178.3980  146.7810 C   0  0  0  0  0  2  0  0  0  0  0  0
  189.6290  177.0440  138.3070 C   0  0  2  0  0  0  0  0  0  0  0  0
  188.6040  176.1500  138.6350 O   0  0  0  0  0  1  0  0  0  0  0  0
  190.9880  174.8870  138.1020 N   0  0  0  0  0  1  0  0  0  0  0  0
  190.9350  176.2850  138.3740 C   0  0  0  0  0  0  0  0  0  0  0  0
  192.0000  176.8990  138.6490 O   0  0  0  0  0  0  0  0  0  0  0  0
  189.3900  177.5530  136.8780 C   0  0  0  0  0  2  0  0  0  0  0  0
  188.1900  176.9550  136.1220 C   0  0  1  0  0  3  0  0  0  0  0  0
  187.1090  178.0130  135.8570 C   0  0  2  0  0  3  0  0  0  0  0  0
  187.5780  179.2730  136.1920 F   0  0  0  0  0  0  0  0  0  0  0  0
  185.8180  177.7530  136.6390 C   0  0  1  0  0  3  0  0  0  0  0  0
  185.6760  176.3430  136.9720 N   0  0  0  0  0  2  0  0  0  0  0  0
  184.9020  175.7850  136.0100 O   0  0  0  0  0  1  0  0  0  0  0  0
  185.7770  178.5250  137.8030 O   0  0  0  0  0  0  0  0  0  0  0  0
  183.7640  179.1740  138.8610 C   0  0  0  0  0  1  0  0  0  0  0  0
  184.6830  178.0350  138.5150 C   0  0  0  0  0  2  0  0  0  0  0  0
  188.5930  176.3470  134.9300 O   0  0  0  0  0  0  0  0  0  0  0  0
  188.7210  174.9910  135.2320 C   0  0  0  0  0  1  0  0  0  0  0  0
  1  2  1  6  0  0  0
  1  4  1  0  0  0  0
  4  8  1  0  0  0  0
  4  5  1  0  0  0  0
  4  3  1  1  0  0  0
  5  7  1  0  0  0  0
  6  7  1  0  0  0  0
  8 13  1  0  0  0  0
  9 14  1  0  0  0  0
  9 15  1  0  0  0  0
 10  9  2  0  0  0  0
 11 13  2  0  0  0  0
 11 10  1  0  0  0  0
 12 14  2  0  0  0  0
 13 12  1  0  0  0  0
 15 17  1  0  0  0  0
 17 16  1  0  0  0  0
 18 21  1  0  0  0  0
 18 19  1  1  0  0  0
 18  1  1  0  0  0  0
 20 21  1  0  0  0  0
 21 22  2  0  0  0  0
 23 18  1  0  0  0  0
 24 23  1  6  0  0  0
 25 24  1  0  0  0  0
 25 26  1  1  0  0  0
 25 27  1  0  0  0  0
 27 28  1  1  0  0  0
 27 30  1  0  0  0  0
 29 28  1  0  0  0  0
 30 32  1  0  0  0  0
 32 31  1  0  0  0  0
 33 34  1  0  0  0  0
 33 24  1  0  0  0  0
M  END
>  <MODEL>
9

>  <REMARK>
 VINA RESULT:      -5.5      3.186      7.351
  Name = 
  17 active torsions:
  status: ('A' for Active; 'I' for Inactive)
    1  A    between atoms: C_1  and  C_18
    2  A    between atoms: C_1  and  C_20
    3  A    between atoms: C_2  and  C_25
    4  A    between atoms: C_2  and  C_32
    5  A    between atoms: O_3  and  C_24
    6  A    between atoms: O_3  and  C_25
    7  A    between atoms: C_5  and  C_20
    8  A    between atoms: C_5  and  C_32
    9  A    between atoms: C_6  and  C_18
   10  A    between atoms: C_6  and  C_28
   11  A    between atoms: C_7  and  O_11
   12  A    between atoms: O_11  and  C_21
   13  A    between atoms: C_12  and  C_20
   14  A    between atoms: C_18  and  C_30
   15  A    between atoms: O_19  and  C_32
   16  A    between atoms: C_25  and  N_27
   17  A    between atoms: C_30  and  C_31
                            x       y       z     vdW  Elec       q    Type
                         _______ _______ _______ _____ _____    ______ ____

>  <TORSDO>
F 17

$$$$
