=
 OpenBabel10272413383D

 32 36  0  0  1  0  0  0  0  0999 V2000
  188.0420  175.2900  135.8520 C   0  0  0  0  0  3  0  0  0  0  0  0
  188.9710  174.4930  135.1840 C   0  0  0  0  0  3  0  0  0  0  0  0
  188.4610  176.1390  136.8760 C   0  0  0  0  0  3  0  0  0  0  0  0
  189.8130  176.2050  137.2550 C   0  0  0  0  0  0  0  0  0  0  0  0
  190.3190  174.5550  135.5340 C   0  0  0  0  0  3  0  0  0  0  0  0
  190.7550  175.4050  136.5630 C   0  0  0  0  0  0  0  0  0  0  0  0
  194.2350  174.1910  137.5300 N   0  0  0  0  0  0  0  0  0  0  0  0
  195.0180  175.1030  136.7560 C   0  0  0  0  0  0  0  0  0  0  0  0
  195.5360  176.6670  135.3650 C   0  0  0  0  0  0  0  0  0  0  0  0
  192.2220  175.4900  136.8620 C   0  0  2  0  0  3  0  0  0  0  0  0
  196.6760  176.1350  135.8550 N   0  0  0  0  0  0  0  0  0  0  0  0
  196.3600  175.1700  136.7130 N   0  0  0  0  0  2  0  0  0  0  0  0
  192.9910  176.1450  135.6920 C   0  0  0  0  0  2  0  0  0  0  0  0
  194.8580  173.2650  138.4630 C   0  0  0  0  0  1  0  0  0  0  0  0
  195.4870  177.7550  134.3510 C   0  0  0  0  0  1  0  0  0  0  0  0
  192.7950  174.1120  137.2700 C   0  0  0  0  0  2  0  0  0  0  0  0
  194.4590  176.0320  135.9370 C   0  0  0  0  0  0  0  0  0  0  0  0
  188.4720  177.4730  143.1250 C   0  0  0  0  0  2  0  0  0  0  0  0
  189.6790  178.4370  138.4150 C   0  0  0  0  0  2  0  0  0  0  0  0
  189.6950  176.6610  140.6840 C   0  0  2  0  0  3  0  0  0  0  0  0
  188.6390  178.4940  139.5290 C   0  0  0  0  0  2  0  0  0  0  0  0
  188.1080  178.0830  141.7600 C   0  0  0  0  0  2  0  0  0  0  0  0
  190.1980  177.0760  138.3370 N   0  0  0  0  0  0  0  0  0  0  0  0
  189.9250  177.0100  143.2170 C   0  0  1  0  0  3  0  0  0  0  0  0
  189.2150  178.0530  140.8030 N   0  0  1  0  0  0  0  0  0  0  0  0
  190.3210  176.1690  141.9960 C   0  0  0  0  0  2  0  0  0  0  0  0
  190.7430  176.5380  139.5770 C   0  0  0  0  0  2  0  0  0  0  0  0
  190.8520  178.2040  143.3880 C   0  0  0  0  0  2  0  0  0  0  0  0
  191.4380  178.2240  144.7870 C   0  0  0  0  0  2  0  0  0  0  0  0
  191.4270  176.8200  145.3520 C   0  0  0  0  0  2  0  0  0  0  0  0
  189.6230  176.8890  147.0700 C   0  0  0  0  0  1  0  0  0  0  0  0
  191.1230  176.8420  146.8400 C   0  0  0  0  0  2  0  0  0  0  0  0
  1  3  1  0  0  0  0
  2  5  1  0  0  0  0
  2  1  2  0  0  0  0
  3  4  2  0  0  0  0
  4 23  1  0  0  0  0
  5  6  2  0  0  0  0
  6  4  1  0  0  0  0
  7 14  1  0  0  0  0
  8  7  1  0  0  0  0
  9 11  2  0  0  0  0
  9 17  1  0  0  0  0
 10  6  1  6  0  0  0
 10 16  1  0  0  0  0
 11 12  1  0  0  0  0
 12  8  1  0  0  0  0
 13 17  1  0  0  0  0
 13 10  1  0  0  0  0
 15  9  1  0  0  0  0
 16  7  1  0  0  0  0
 17  8  2  0  0  0  0
 18 24  1  0  0  0  0
 19 21  1  0  0  0  0
 20 27  1  6  0  0  0
 20 25  1  0  0  0  0
 20 26  1  0  0  0  0
 22 18  1  0  0  0  0
 23 19  1  0  0  0  0
 23 27  1  0  0  0  0
 24 28  1  6  0  0  0
 25 21  1  6  0  0  0
 25 22  1  0  0  0  0
 26 24  1  0  0  0  0
 28 29  1  0  0  0  0
 29 30  1  0  0  0  0
 30 32  1  0  0  0  0
 32 31  1  0  0  0  0
M  END
>  <MODEL>
1

>  <REMARK>
 VINA RESULT:      -7.3      0.000      0.000
  Name = 
  6 active torsions:
  status: ('A' for Active; 'I' for Inactive)
    1  A    between atoms: C_10  and  C_20
    2  A    between atoms: C_10  and  C_24
    3  A    between atoms: N_14  and  C_15
    4  A    between atoms: C_16  and  C_26
    5  A    between atoms: C_17  and  C_20
    6  A    between atoms: C_19  and  C_24
                            x       y       z     vdW  Elec       q    Type
                         _______ _______ _______ _____ _____    ______ ____

>  <TORSDO>
F 6

$$$$
=
 OpenBabel10272413383D

 32 36  0  0  1  0  0  0  0  0999 V2000
  188.6700  179.3490  137.3580 C   0  0  0  0  0  3  0  0  0  0  0  0
  188.8150  178.6610  136.1540 C   0  0  0  0  0  3  0  0  0  0  0  0
  189.0820  178.7580  138.5530 C   0  0  0  0  0  3  0  0  0  0  0  0
  189.6410  177.4690  138.5670 C   0  0  0  0  0  0  0  0  0  0  0  0
  189.3820  177.3880  136.1450 C   0  0  0  0  0  3  0  0  0  0  0  0
  189.8010  176.7800  137.3400 C   0  0  0  0  0  0  0  0  0  0  0  0
  190.6030  173.2980  136.0170 N   0  0  0  0  0  0  0  0  0  0  0  0
  191.9790  173.2220  136.3940 C   0  0  0  0  0  0  0  0  0  0  0  0
  193.9130  173.7890  137.1620 C   0  0  0  0  0  0  0  0  0  0  0  0
  190.4670  175.4380  137.2770 C   0  0  2  0  0  3  0  0  0  0  0  0
  193.9970  172.5320  136.6760 N   0  0  0  0  0  0  0  0  0  0  0  0
  192.8060  172.1790  136.2020 N   0  0  0  0  0  0  0  0  0  0  0  0
  192.0060  175.5800  137.2690 C   0  0  0  0  0  2  0  0  0  0  0  0
  189.9130  172.1540  135.4420 C   0  0  0  0  0  1  0  0  0  0  0  0
  195.0560  174.5400  137.7490 C   0  0  0  0  0  1  0  0  0  0  0  0
  189.9270  174.5970  136.0960 C   0  0  0  0  0  2  0  0  0  0  0  0
  192.6270  174.2490  137.0060 C   0  0  1  0  0  3  0  0  0  0  0  0
  190.6030  178.9420  144.4640 C   0  0  0  0  0  2  0  0  0  0  0  0
  191.4360  176.6640  140.1410 C   0  0  0  0  0  2  0  0  0  0  0  0
  189.6180  177.9040  142.0010 C   0  0  2  0  0  3  0  0  0  0  0  0
  191.8700  177.7040  141.1680 C   0  0  0  0  0  2  0  0  0  0  0  0
  191.4940  178.7250  143.2270 C   0  0  0  0  0  2  0  0  0  0  0  0
  190.0290  176.8850  139.8270 N   0  0  0  0  0  0  0  0  0  0  0  0
  189.4470  177.9490  144.5620 C   0  0  1  0  0  3  0  0  0  0  0  0
  191.0260  177.6410  142.3640 N   0  0  1  0  0  0  0  0  0  0  0  0
  188.6990  177.8300  143.2270 C   0  0  0  0  0  2  0  0  0  0  0  0
  189.1220  176.8910  140.9680 C   0  0  0  0  0  2  0  0  0  0  0  0
  189.9500  176.5930  145.0340 C   0  0  0  0  0  2  0  0  0  0  0  0
  190.5790  176.7110  146.4100 C   0  0  0  0  0  2  0  0  0  0  0  0
  189.4960  176.6030  147.4630 C   0  0  0  0  0  2  0  0  0  0  0  0
  187.7970  178.2890  148.1590 C   0  0  0  0  0  1  0  0  0  0  0  0
  189.2750  177.9430  148.1440 C   0  0  0  0  0  2  0  0  0  0  0  0
  1  3  1  0  0  0  0
  2  1  2  0  0  0  0
  3  4  2  0  0  0  0
  4 23  1  0  0  0  0
  5  2  1  0  0  0  0
  5  6  2  0  0  0  0
  6  4  1  0  0  0  0
  7 16  1  0  0  0  0
  7  8  1  0  0  0  0
  8 17  1  0  0  0  0
  9 15  1  0  0  0  0
 10  6  1  6  0  0  0
 11  9  2  0  0  0  0
 12  8  2  0  0  0  0
 12 11  1  0  0  0  0
 13 10  1  0  0  0  0
 14  7  1  0  0  0  0
 16 10  1  0  0  0  0
 17  9  1  0  0  0  0
 17 13  1  6  0  0  0
 18 24  1  0  0  0  0
 19 21  1  0  0  0  0
 20 27  1  6  0  0  0
 20 25  1  0  0  0  0
 20 26  1  0  0  0  0
 22 18  1  0  0  0  0
 23 19  1  0  0  0  0
 23 27  1  0  0  0  0
 24 28  1  6  0  0  0
 25 21  1  6  0  0  0
 25 22  1  0  0  0  0
 26 24  1  0  0  0  0
 28 29  1  0  0  0  0
 29 30  1  0  0  0  0
 30 32  1  0  0  0  0
 32 31  1  0  0  0  0
M  END
>  <MODEL>
2

>  <REMARK>
 VINA RESULT:      -6.7      1.881      3.237
  Name = 
  6 active torsions:
  status: ('A' for Active; 'I' for Inactive)
    1  A    between atoms: C_10  and  C_20
    2  A    between atoms: C_10  and  C_24
    3  A    between atoms: N_14  and  C_15
    4  A    between atoms: C_16  and  C_26
    5  A    between atoms: C_17  and  C_20
    6  A    between atoms: C_19  and  C_24
                            x       y       z     vdW  Elec       q    Type
                         _______ _______ _______ _____ _____    ______ ____

>  <TORSDO>
F 6

$$$$
=
 OpenBabel10272413383D

 32 36  0  0  1  0  0  0  0  0999 V2000
  191.8120  178.0320  143.3310 C   0  0  0  0  0  3  0  0  0  0  0  0
  192.4730  178.0060  142.1040 C   0  0  0  0  0  3  0  0  0  0  0  0
  190.4550  177.7140  143.3990 C   0  0  0  0  0  3  0  0  0  0  0  0
  189.7340  177.3680  142.2440 C   0  0  0  0  0  0  0  0  0  0  0  0
  191.7790  177.6520  140.9480 C   0  0  0  0  0  3  0  0  0  0  0  0
  190.4130  177.3290  141.0010 C   0  0  0  0  0  0  0  0  0  0  0  0
  188.5240  177.6650  137.7090 N   0  0  0  0  0  0  0  0  0  0  0  0
  189.0520  176.5260  137.0260 C   0  0  0  0  0  0  0  0  0  0  0  0
  190.2470  174.7830  136.6000 C   0  0  0  0  0  0  0  0  0  0  0  0
  189.7220  176.8880  139.7460 C   0  0  2  0  0  3  0  0  0  0  0  0
  189.4620  175.0350  135.5310 N   0  0  0  0  0  0  0  0  0  0  0  0
  188.7240  176.1100  135.7900 N   0  0  0  0  0  0  0  0  0  0  0  0
  190.6340  175.9700  138.9010 C   0  0  0  0  0  2  0  0  0  0  0  0
  187.4560  178.4640  137.1300 C   0  0  0  0  0  1  0  0  0  0  0  0
  191.2360  173.6720  136.6700 C   0  0  0  0  0  1  0  0  0  0  0  0
  189.1710  178.0960  138.9520 C   0  0  0  0  0  2  0  0  0  0  0  0
  189.9940  175.7160  137.5760 C   0  0  1  0  0  3  0  0  0  0  0  0
  184.5650  179.4680  144.8390 C   0  0  0  0  0  2  0  0  0  0  0  0
  187.8510  176.0840  143.3150 C   0  0  0  0  0  2  0  0  0  0  0  0
  186.6340  178.6820  143.0460 C   0  0  2  0  0  3  0  0  0  0  0  0
  187.1810  176.8180  144.4720 C   0  0  0  0  0  2  0  0  0  0  0  0
  185.5930  178.3720  145.1720 C   0  0  0  0  0  2  0  0  0  0  0  0
  188.3270  177.0730  142.3550 N   0  0  0  0  0  0  0  0  0  0  0  0
  184.2440  179.5680  143.3490 C   0  0  1  0  0  3  0  0  0  0  0  0
  186.0970  177.6770  143.9870 N   0  0  1  0  0  0  0  0  0  0  0  0
  185.5240  179.5910  142.5020 C   0  0  0  0  0  2  0  0  0  0  0  0
  187.3220  178.0050  141.8590 C   0  0  0  0  0  2  0  0  0  0  0  0
  183.3240  178.4320  142.9270 C   0  0  0  0  0  2  0  0  0  0  0  0
  183.3940  178.2230  141.4260 C   0  0  0  0  0  2  0  0  0  0  0  0
  182.1600  178.8190  140.7820 C   0  0  0  0  0  2  0  0  0  0  0  0
  183.9870  179.4380  139.2030 C   0  0  0  0  0  1  0  0  0  0  0  0
  182.4830  179.3600  139.4000 C   0  0  0  0  0  2  0  0  0  0  0  0
  1  3  1  0  0  0  0
  2  1  2  0  0  0  0
  4 23  1  0  0  0  0
  4  3  2  0  0  0  0
  5  6  2  0  0  0  0
  5  2  1  0  0  0  0
  6  4  1  0  0  0  0
  7 16  1  0  0  0  0
  8 17  1  0  0  0  0
  8  7  1  0  0  0  0
  9 15  1  0  0  0  0
  9 17  1  0  0  0  0
 10  6  1  1  0  0  0
 11 12  1  0  0  0  0
 11  9  2  0  0  0  0
 12  8  2  0  0  0  0
 13 10  1  0  0  0  0
 14  7  1  0  0  0  0
 16 10  1  0  0  0  0
 17 13  1  6  0  0  0
 18 22  1  0  0  0  0
 19 21  1  0  0  0  0
 20 27  1  6  0  0  0
 20 25  1  0  0  0  0
 23 19  1  0  0  0  0
 24 28  1  6  0  0  0
 24 18  1  0  0  0  0
 25 21  1  1  0  0  0
 25 22  1  0  0  0  0
 26 20  1  0  0  0  0
 26 24  1  0  0  0  0
 27 23  1  0  0  0  0
 29 28  1  0  0  0  0
 30 29  1  0  0  0  0
 31 32  1  0  0  0  0
 32 30  1  0  0  0  0
M  END
>  <MODEL>
3

>  <REMARK>
 VINA RESULT:      -6.5      3.196      6.763
  Name = 
  6 active torsions:
  status: ('A' for Active; 'I' for Inactive)
    1  A    between atoms: C_10  and  C_20
    2  A    between atoms: C_10  and  C_24
    3  A    between atoms: N_14  and  C_15
    4  A    between atoms: C_16  and  C_26
    5  A    between atoms: C_17  and  C_20
    6  A    between atoms: C_19  and  C_24
                            x       y       z     vdW  Elec       q    Type
                         _______ _______ _______ _____ _____    ______ ____

>  <TORSDO>
F 6

$$$$
=
 OpenBabel10272413383D

 32 36  0  0  1  0  0  0  0  0999 V2000
  188.5460  179.8100  137.2660 C   0  0  0  0  0  3  0  0  0  0  0  0
  187.9070  179.1440  136.2210 C   0  0  0  0  0  3  0  0  0  0  0  0
  189.0060  179.0940  138.3710 C   0  0  0  0  0  3  0  0  0  0  0  0
  188.8330  177.7020  138.4540 C   0  0  0  0  0  0  0  0  0  0  0  0
  187.7390  177.7610  136.2770 C   0  0  0  0  0  3  0  0  0  0  0  0
  188.1980  177.0270  137.3830 C   0  0  0  0  0  0  0  0  0  0  0  0
  186.4420  173.6500  137.2220 N   0  0  0  0  0  0  0  0  0  0  0  0
  187.4640  172.8920  136.5720 C   0  0  0  0  0  0  0  0  0  0  0  0
  189.3110  172.4050  135.5720 C   0  0  0  0  0  0  0  0  0  0  0  0
  188.0570  175.5340  137.3730 C   0  0  2  0  0  3  0  0  0  0  0  0
  188.5580  171.2870  135.6470 N   0  0  0  0  0  0  0  0  0  0  0  0
  187.4170  171.5840  136.2620 N   0  0  0  0  0  2  0  0  0  0  0  0
  188.9520  174.8990  136.2850 C   0  0  0  0  0  2  0  0  0  0  0  0
  185.2310  173.0140  137.7170 C   0  0  0  0  0  1  0  0  0  0  0  0
  190.6480  172.4730  134.9210 C   0  0  0  0  0  1  0  0  0  0  0  0
  186.5740  175.1090  137.2650 C   0  0  0  0  0  2  0  0  0  0  0  0
  188.6390  173.4440  136.1700 C   0  0  0  0  0  0  0  0  0  0  0  0
  191.2920  178.7220  144.0020 C   0  0  0  0  0  2  0  0  0  0  0  0
  190.6370  176.4220  139.6610 C   0  0  0  0  0  2  0  0  0  0  0  0
  189.6050  178.0380  141.8120 C   0  0  2  0  0  3  0  0  0  0  0  0
  191.5180  177.2890  140.5540 C   0  0  0  0  0  2  0  0  0  0  0  0
  191.8340  178.3180  142.6200 C   0  0  0  0  0  2  0  0  0  0  0  0
  189.3000  177.0050  139.6270 N   0  0  0  0  0  0  0  0  0  0  0  0
  189.9620  178.0570  144.3540 C   0  0  1  0  0  3  0  0  0  0  0  0
  190.9410  177.4130  141.8950 N   0  0  1  0  0  0  0  0  0  0  0  0
  188.9590  178.1690  143.1980 C   0  0  0  0  0  2  0  0  0  0  0  0
  188.6700  177.2130  140.9250 C   0  0  0  0  0  2  0  0  0  0  0  0
  190.1850  176.6050  144.7520 C   0  0  0  0  0  2  0  0  0  0  0  0
  190.3390  176.4860  146.2560 C   0  0  0  0  0  2  0  0  0  0  0  0
  189.0600  176.9390  146.9260 C   0  0  0  0  0  2  0  0  0  0  0  0
  188.1510  178.0390  148.9700 C   0  0  0  0  0  1  0  0  0  0  0  0
  189.3600  177.9010  148.0620 C   0  0  0  0  0  2  0  0  0  0  0  0
  1  3  1  0  0  0  0
  2  5  1  0  0  0  0
  2  1  2  0  0  0  0
  3  4  2  0  0  0  0
  4 23  1  0  0  0  0
  5  6  2  0  0  0  0
  6  4  1  0  0  0  0
  7 16  1  0  0  0  0
  7 14  1  0  0  0  0
  8  7  1  0  0  0  0
  9 11  2  0  0  0  0
  9 17  1  0  0  0  0
 10  6  1  6  0  0  0
 11 12  1  0  0  0  0
 12  8  1  0  0  0  0
 13 10  1  0  0  0  0
 15  9  1  0  0  0  0
 16 10  1  0  0  0  0
 17 13  1  0  0  0  0
 17  8  2  0  0  0  0
 18 24  1  0  0  0  0
 19 21  1  0  0  0  0
 20 27  1  6  0  0  0
 20 25  1  0  0  0  0
 20 26  1  0  0  0  0
 22 18  1  0  0  0  0
 23 19  1  0  0  0  0
 23 27  1  0  0  0  0
 24 28  1  6  0  0  0
 25 21  1  6  0  0  0
 25 22  1  0  0  0  0
 26 24  1  0  0  0  0
 28 29  1  0  0  0  0
 29 30  1  0  0  0  0
 30 32  1  0  0  0  0
 32 31  1  0  0  0  0
M  END
>  <MODEL>
4

>  <REMARK>
 VINA RESULT:      -6.3      3.646      5.045
  Name = 
  6 active torsions:
  status: ('A' for Active; 'I' for Inactive)
    1  A    between atoms: C_10  and  C_20
    2  A    between atoms: C_10  and  C_24
    3  A    between atoms: N_14  and  C_15
    4  A    between atoms: C_16  and  C_26
    5  A    between atoms: C_17  and  C_20
    6  A    between atoms: C_19  and  C_24
                            x       y       z     vdW  Elec       q    Type
                         _______ _______ _______ _____ _____    ______ ____

>  <TORSDO>
F 6

$$$$
=
 OpenBabel10272413383D

 32 36  0  0  1  0  0  0  0  0999 V2000
  182.6010  179.1970  144.2360 C   0  0  0  0  0  3  0  0  0  0  0  0
  183.7940  179.1140  144.9530 C   0  0  0  0  0  3  0  0  0  0  0  0
  182.5790  178.8670  142.8810 C   0  0  0  0  0  3  0  0  0  0  0  0
  183.7460  178.4540  142.2170 C   0  0  0  0  0  0  0  0  0  0  0  0
  184.9600  178.6910  144.3170 C   0  0  0  0  0  3  0  0  0  0  0  0
  184.9520  178.3570  142.9530 C   0  0  0  0  0  0  0  0  0  0  0  0
  187.8690  178.2090  140.5060 N   0  0  0  0  0  0  0  0  0  0  0  0
  188.8650  177.6590  141.3710 C   0  0  0  0  0  0  0  0  0  0  0  0
  189.8270  176.9130  143.1500 C   0  0  0  0  0  0  0  0  0  0  0  0
  186.2130  177.8420  142.3250 C   0  0  2  0  0  3  0  0  0  0  0  0
  190.7220  176.8930  142.1400 N   0  0  0  0  0  0  0  0  0  0  0  0
  190.1320  177.3530  141.0410 N   0  0  0  0  0  0  0  0  0  0  0  0
  187.3420  177.7070  143.3720 C   0  0  0  0  0  2  0  0  0  0  0  0
  188.1270  178.4100  139.0890 C   0  0  0  0  0  1  0  0  0  0  0  0
  190.1310  176.5000  144.5480 C   0  0  0  0  0  1  0  0  0  0  0  0
  186.6190  178.6940  141.0990 C   0  0  0  0  0  2  0  0  0  0  0  0
  188.6250  177.3870  142.6810 C   0  0  1  0  0  3  0  0  0  0  0  0
  179.9820  178.8550  137.3660 C   0  0  0  0  0  2  0  0  0  0  0  0
  183.3600  176.8010  140.3550 C   0  0  0  0  0  2  0  0  0  0  0  0
  182.0940  179.1440  139.2540 C   0  0  2  0  0  3  0  0  0  0  0  0
  181.9360  176.8050  139.8110 C   0  0  0  0  0  2  0  0  0  0  0  0
  180.3770  177.7480  138.3590 C   0  0  0  0  0  2  0  0  0  0  0  0
  183.6840  178.1490  140.8090 N   0  0  0  0  0  0  0  0  0  0  0  0
  181.1540  179.7390  136.9410 C   0  0  1  0  0  3  0  0  0  0  0  0
  181.7890  177.7930  138.7390 N   0  0  1  0  0  0  0  0  0  0  0  0
  181.9680  180.2070  138.1550 C   0  0  0  0  0  2  0  0  0  0  0  0
  183.5150  179.2050  139.8180 C   0  0  0  0  0  2  0  0  0  0  0  0
  182.0320  179.0080  135.9360 C   0  0  0  0  0  2  0  0  0  0  0  0
  181.1810  178.1800  134.9920 C   0  0  0  0  0  2  0  0  0  0  0  0
  182.0390  177.1040  134.3620 C   0  0  0  0  0  2  0  0  0  0  0  0
  182.3410  175.3220  136.0790 C   0  0  0  0  0  1  0  0  0  0  0  0
  182.9900  176.5070  135.3860 C   0  0  0  0  0  2  0  0  0  0  0  0
  1  2  1  0  0  0  0
  3  1  2  0  0  0  0
  4  3  1  0  0  0  0
  4  6  2  0  0  0  0
  5  2  2  0  0  0  0
  6  5  1  0  0  0  0
  7 16  1  0  0  0  0
  7  8  1  0  0  0  0
  8 17  1  0  0  0  0
  9 15  1  0  0  0  0
 10  6  1  1  0  0  0
 10 13  1  0  0  0  0
 11  9  2  0  0  0  0
 12  8  2  0  0  0  0
 12 11  1  0  0  0  0
 14  7  1  0  0  0  0
 16 10  1  0  0  0  0
 17  9  1  0  0  0  0
 17 13  1  1  0  0  0
 18 22  1  0  0  0  0
 19 23  1  0  0  0  0
 20 26  1  6  0  0  0
 20 27  1  0  0  0  0
 21 19  1  0  0  0  0
 23  4  1  0  0  0  0
 24 28  1  6  0  0  0
 24 18  1  0  0  0  0
 24 26  1  0  0  0  0
 25 22  1  1  0  0  0
 25 20  1  0  0  0  0
 25 21  1  0  0  0  0
 27 23  1  0  0  0  0
 29 28  1  0  0  0  0
 30 29  1  0  0  0  0
 30 32  1  0  0  0  0
 32 31  1  0  0  0  0
M  END
>  <MODEL>
5

>  <REMARK>
 VINA RESULT:      -6.2      5.199      9.918
  Name = 
  6 active torsions:
  status: ('A' for Active; 'I' for Inactive)
    1  A    between atoms: C_10  and  C_20
    2  A    between atoms: C_10  and  C_24
    3  A    between atoms: N_14  and  C_15
    4  A    between atoms: C_16  and  C_26
    5  A    between atoms: C_17  and  C_20
    6  A    between atoms: C_19  and  C_24
                            x       y       z     vdW  Elec       q    Type
                         _______ _______ _______ _____ _____    ______ ____

>  <TORSDO>
F 6

$$$$
=
 OpenBabel10272413383D

 32 36  0  0  1  0  0  0  0  0999 V2000
  189.0360  178.0360  135.6210 C   0  0  0  0  0  3  0  0  0  0  0  0
  188.4750  178.8900  136.5680 C   0  0  0  0  0  3  0  0  0  0  0  0
  189.7320  176.8990  136.0330 C   0  0  0  0  0  3  0  0  0  0  0  0
  189.8820  176.5970  137.3970 C   0  0  0  0  0  0  0  0  0  0  0  0
  188.6000  178.6010  137.9270 C   0  0  0  0  0  3  0  0  0  0  0  0
  189.2970  177.4600  138.3550 C   0  0  0  0  0  0  0  0  0  0  0  0
  190.7380  177.3050  141.8790 N   0  0  0  0  0  0  0  0  0  0  0  0
  189.5260  177.4270  142.6270 C   0  0  0  0  0  0  0  0  0  0  0  0
  187.4360  177.6960  143.0850 C   0  0  0  0  0  0  0  0  0  0  0  0
  189.3490  177.1500  139.8220 C   0  0  2  0  0  3  0  0  0  0  0  0
  188.1170  177.5770  144.2450 N   0  0  0  0  0  0  0  0  0  0  0  0
  189.4060  177.4110  143.9660 N   0  0  0  0  0  2  0  0  0  0  0  0
  188.1280  177.7440  140.5600 C   0  0  0  0  0  2  0  0  0  0  0  0
  192.0080  177.0460  142.5380 C   0  0  0  0  0  1  0  0  0  0  0  0
  185.9680  177.9270  142.9930 C   0  0  0  0  0  1  0  0  0  0  0  0
  190.7010  177.5790  140.4400 C   0  0  0  0  0  2  0  0  0  0  0  0
  188.3140  177.5890  142.0330 C   0  0  0  0  0  0  0  0  0  0  0  0
  194.6140  173.1050  135.5850 C   0  0  0  0  0  2  0  0  0  0  0  0
  190.1350  174.0920  137.4650 C   0  0  0  0  0  2  0  0  0  0  0  0
  192.8570  174.8840  136.9480 C   0  0  2  0  0  3  0  0  0  0  0  0
  190.9690  173.5230  136.3230 C   0  0  0  0  0  2  0  0  0  0  0  0
  193.0810  173.0170  135.4790 C   0  0  0  0  0  2  0  0  0  0  0  0
  190.6320  175.4260  137.7790 N   0  0  0  0  0  0  0  0  0  0  0  0
  195.1010  173.6380  136.9310 C   0  0  1  0  0  3  0  0  0  0  0  0
  192.3920  173.5090  136.6720 N   0  0  1  0  0  0  0  0  0  0  0  0
  194.3410  174.9090  137.3350 C   0  0  0  0  0  2  0  0  0  0  0  0
  192.0540  175.5130  138.0890 C   0  0  0  0  0  2  0  0  0  0  0  0
  194.9860  172.5630  138.0000 C   0  0  0  0  0  2  0  0  0  0  0  0
  195.9340  171.4170  137.7040 C   0  0  0  0  0  2  0  0  0  0  0  0
  195.2660  170.1090  138.0730 C   0  0  0  0  0  2  0  0  0  0  0  0
  194.8850  169.4100  135.7110 C   0  0  0  0  0  1  0  0  0  0  0  0
  194.2210  169.7290  137.0380 C   0  0  0  0  0  2  0  0  0  0  0  0
  1  3  2  0  0  0  0
  1  2  1  0  0  0  0
  2  5  2  0  0  0  0
  3  4  1  0  0  0  0
  4 23  1  0  0  0  0
  4  6  2  0  0  0  0
  5  6  1  0  0  0  0
  7 14  1  0  0  0  0
  7  8  1  0  0  0  0
  8 12  1  0  0  0  0
  9 11  2  0  0  0  0
 10  6  1  6  0  0  0
 10 16  1  0  0  0  0
 10 13  1  0  0  0  0
 12 11  1  0  0  0  0
 13 17  1  0  0  0  0
 15  9  1  0  0  0  0
 16  7  1  0  0  0  0
 17  8  2  0  0  0  0
 17  9  1  0  0  0  0
 18 24  1  0  0  0  0
 19 23  1  0  0  0  0
 20 26  1  1  0  0  0
 20 27  1  0  0  0  0
 21 25  1  0  0  0  0
 21 19  1  0  0  0  0
 22 18  1  0  0  0  0
 23 27  1  0  0  0  0
 24 26  1  0  0  0  0
 24 28  1  1  0  0  0
 25 22  1  6  0  0  0
 25 20  1  0  0  0  0
 29 28  1  0  0  0  0
 29 30  1  0  0  0  0
 31 32  1  0  0  0  0
 32 30  1  0  0  0  0
M  END
>  <MODEL>
6

>  <REMARK>
 VINA RESULT:      -6.2      2.371      8.052
  Name = 
  6 active torsions:
  status: ('A' for Active; 'I' for Inactive)
    1  A    between atoms: C_10  and  C_20
    2  A    between atoms: C_10  and  C_24
    3  A    between atoms: N_14  and  C_15
    4  A    between atoms: C_16  and  C_26
    5  A    between atoms: C_17  and  C_20
    6  A    between atoms: C_19  and  C_24
                            x       y       z     vdW  Elec       q    Type
                         _______ _______ _______ _____ _____    ______ ____

>  <TORSDO>
F 6

$$$$
=
 OpenBabel10272413383D

 32 36  0  0  1  0  0  0  0  0999 V2000
  188.6930  178.0250  135.5280 C   0  0  0  0  0  3  0  0  0  0  0  0
  188.0050  178.7760  136.4800 C   0  0  0  0  0  3  0  0  0  0  0  0
  189.5740  177.0230  135.9340 C   0  0  0  0  0  3  0  0  0  0  0  0
  189.7870  176.7550  137.2960 C   0  0  0  0  0  0  0  0  0  0  0  0
  188.1910  178.5160  137.8370 C   0  0  0  0  0  3  0  0  0  0  0  0
  189.0750  177.5100  138.2600 C   0  0  0  0  0  0  0  0  0  0  0  0
  190.6750  177.3960  141.7170 N   0  0  0  0  0  0  0  0  0  0  0  0
  189.4980  177.5280  142.5170 C   0  0  0  0  0  0  0  0  0  0  0  0
  187.4310  177.8040  143.0660 C   0  0  0  0  0  0  0  0  0  0  0  0
  189.1940  177.2180  139.7260 C   0  0  2  0  0  3  0  0  0  0  0  0
  188.1640  177.6980  144.1960 N   0  0  0  0  0  0  0  0  0  0  0  0
  189.4390  177.5280  143.8610 N   0  0  0  0  0  2  0  0  0  0  0  0
  188.0080  177.8210  140.5120 C   0  0  0  0  0  2  0  0  0  0  0  0
  191.9740  177.1450  142.3200 C   0  0  0  0  0  1  0  0  0  0  0  0
  185.9610  178.0340  143.0390 C   0  0  0  0  0  1  0  0  0  0  0  0
  190.5720  177.6540  140.2770 C   0  0  0  0  0  2  0  0  0  0  0  0
  188.2610  177.6840  141.9770 C   0  0  0  0  0  0  0  0  0  0  0  0
  194.5160  173.5080  135.0700 C   0  0  0  0  0  2  0  0  0  0  0  0
  190.3470  174.3210  137.6250 C   0  0  0  0  0  2  0  0  0  0  0  0
  192.8220  175.2880  136.5100 C   0  0  2  0  0  3  0  0  0  0  0  0
  191.0330  173.6770  136.4250 C   0  0  0  0  0  2  0  0  0  0  0  0
  193.0100  173.2590  135.2670 C   0  0  0  0  0  2  0  0  0  0  0  0
  190.7270  175.7290  137.6720 N   0  0  0  0  0  0  0  0  0  0  0  0
  195.1630  174.2730  136.2230 C   0  0  1  0  0  3  0  0  0  0  0  0
  192.4860  173.8490  136.4990 N   0  0  1  0  0  0  0  0  0  0  0  0
  194.3380  175.5100  136.6040 C   0  0  0  0  0  2  0  0  0  0  0  0
  192.1610  175.9940  137.6950 C   0  0  0  0  0  2  0  0  0  0  0  0
  195.3660  173.3560  137.4200 C   0  0  0  0  0  2  0  0  0  0  0  0
  196.8450  173.1270  137.6670 C   0  0  0  0  0  2  0  0  0  0  0  0
  197.4080  174.3020  138.4390 C   0  0  0  0  0  2  0  0  0  0  0  0
  197.2620  175.2690  140.7320 C   0  0  0  0  0  1  0  0  0  0  0  0
  196.4720  174.7020  139.5660 C   0  0  0  0  0  2  0  0  0  0  0  0
  1  3  2  0  0  0  0
  1  2  1  0  0  0  0
  2  5  2  0  0  0  0
  3  4  1  0  0  0  0
  4 23  1  0  0  0  0
  4  6  2  0  0  0  0
  5  6  1  0  0  0  0
  7 14  1  0  0  0  0
  7  8  1  0  0  0  0
  8 12  1  0  0  0  0
  9 11  2  0  0  0  0
 10  6  1  6  0  0  0
 10 16  1  0  0  0  0
 10 13  1  0  0  0  0
 12 11  1  0  0  0  0
 13 17  1  0  0  0  0
 15  9  1  0  0  0  0
 16  7  1  0  0  0  0
 17  8  2  0  0  0  0
 17  9  1  0  0  0  0
 18 22  1  0  0  0  0
 18 24  1  0  0  0  0
 19 23  1  0  0  0  0
 20 26  1  1  0  0  0
 20 27  1  0  0  0  0
 21 25  1  0  0  0  0
 21 19  1  0  0  0  0
 23 27  1  0  0  0  0
 24 26  1  0  0  0  0
 24 28  1  1  0  0  0
 25 22  1  6  0  0  0
 25 20  1  0  0  0  0
 28 29  1  0  0  0  0
 29 30  1  0  0  0  0
 30 32  1  0  0  0  0
 32 31  1  0  0  0  0
M  END
>  <MODEL>
7

>  <REMARK>
 VINA RESULT:      -6.1      2.275      7.650
  Name = 
  6 active torsions:
  status: ('A' for Active; 'I' for Inactive)
    1  A    between atoms: C_10  and  C_20
    2  A    between atoms: C_10  and  C_24
    3  A    between atoms: N_14  and  C_15
    4  A    between atoms: C_16  and  C_26
    5  A    between atoms: C_17  and  C_20
    6  A    between atoms: C_19  and  C_24
                            x       y       z     vdW  Elec       q    Type
                         _______ _______ _______ _____ _____    ______ ____

>  <TORSDO>
F 6

$$$$
=
 OpenBabel10272413383D

 32 36  0  0  1  0  0  0  0  0999 V2000
  190.2580  178.0750  138.7860 C   0  0  0  0  0  3  0  0  0  0  0  0
  189.1850  178.5910  138.0610 C   0  0  0  0  0  3  0  0  0  0  0  0
  190.0590  177.6050  140.0850 C   0  0  0  0  0  3  0  0  0  0  0  0
  188.7890  177.6450  140.6820 C   0  0  0  0  0  0  0  0  0  0  0  0
  187.9130  178.6260  138.6300 C   0  0  0  0  0  3  0  0  0  0  0  0
  187.6990  178.1560  139.9360 C   0  0  0  0  0  0  0  0  0  0  0  0
  184.7810  179.1640  142.1700 N   0  0  0  0  0  0  0  0  0  0  0  0
  183.7070  178.9570  141.2500 C   0  0  0  0  0  0  0  0  0  0  0  0
  182.6490  178.5100  139.4250 C   0  0  0  0  0  0  0  0  0  0  0  0
  186.3030  178.1490  140.4850 C   0  0  2  0  0  3  0  0  0  0  0  0
  181.7470  178.8560  140.3690 N   0  0  0  0  0  0  0  0  0  0  0  0
  182.3970  179.1330  141.4960 N   0  0  0  0  0  2  0  0  0  0  0  0
  185.2620  178.3680  139.3630 C   0  0  0  0  0  2  0  0  0  0  0  0
  184.5280  179.5120  143.5590 C   0  0  0  0  0  1  0  0  0  0  0  0
  182.3010  178.1610  138.0210 C   0  0  0  0  0  1  0  0  0  0  0  0
  186.1540  179.1490  141.6560 C   0  0  0  0  0  2  0  0  0  0  0  0
  183.9110  178.5540  139.9680 C   0  0  0  0  0  0  0  0  0  0  0  0
  191.9810  176.7560  145.8670 C   0  0  0  0  0  2  0  0  0  0  0  0
  188.6570  175.7450  142.3320 C   0  0  0  0  0  2  0  0  0  0  0  0
  190.1860  177.6600  143.8490 C   0  0  2  0  0  3  0  0  0  0  0  0
  189.9870  175.4130  143.0000 C   0  0  0  0  0  2  0  0  0  0  0  0
  191.5120  175.8670  144.7010 C   0  0  0  0  0  2  0  0  0  0  0  0
  188.6330  177.1740  142.0360 N   0  0  0  0  0  0  0  0  0  0  0  0
  190.9450  177.7920  146.2980 C   0  0  1  0  0  3  0  0  0  0  0  0
  190.1840  176.2250  144.2040 N   0  0  1  0  0  0  0  0  0  0  0  0
  190.3720  178.5440  145.0890 C   0  0  0  0  0  2  0  0  0  0  0  0
  188.8730  178.0560  143.1710 C   0  0  0  0  0  2  0  0  0  0  0  0
  189.8410  177.1320  147.1100 C   0  0  0  0  0  2  0  0  0  0  0  0
  189.3580  178.0640  148.2050 C   0  0  0  0  0  2  0  0  0  0  0  0
  187.8470  178.0120  148.2720 C   0  0  0  0  0  2  0  0  0  0  0  0
  185.8670  178.5480  146.8560 C   0  0  0  0  0  1  0  0  0  0  0  0
  187.2500  177.9220  146.8780 C   0  0  0  0  0  2  0  0  0  0  0  0
  1  3  1  0  0  0  0
  2  5  1  0  0  0  0
  2  1  2  0  0  0  0
  3  4  2  0  0  0  0
  4 23  1  0  0  0  0
  5  6  2  0  0  0  0
  6  4  1  0  0  0  0
  7 14  1  0  0  0  0
  8 12  1  0  0  0  0
  8  7  1  0  0  0  0
  9 17  1  0  0  0  0
  9 11  2  0  0  0  0
 10  6  1  6  0  0  0
 10 16  1  0  0  0  0
 11 12  1  0  0  0  0
 13 17  1  0  0  0  0
 13 10  1  0  0  0  0
 15  9  1  0  0  0  0
 16  7  1  0  0  0  0
 17  8  2  0  0  0  0
 18 24  1  0  0  0  0
 19 21  1  0  0  0  0
 20 27  1  1  0  0  0
 20 25  1  0  0  0  0
 20 26  1  0  0  0  0
 22 18  1  0  0  0  0
 23 19  1  0  0  0  0
 23 27  1  0  0  0  0
 24 28  1  6  0  0  0
 25 21  1  6  0  0  0
 25 22  1  0  0  0  0
 26 24  1  0  0  0  0
 28 29  1  0  0  0  0
 29 30  1  0  0  0  0
 31 32  1  0  0  0  0
 32 30  1  0  0  0  0
M  END
>  <MODEL>
8

>  <REMARK>
 VINA RESULT:      -6.0      4.468      8.080
  Name = 
  6 active torsions:
  status: ('A' for Active; 'I' for Inactive)
    1  A    between atoms: C_10  and  C_20
    2  A    between atoms: C_10  and  C_24
    3  A    between atoms: N_14  and  C_15
    4  A    between atoms: C_16  and  C_26
    5  A    between atoms: C_17  and  C_20
    6  A    between atoms: C_19  and  C_24
                            x       y       z     vdW  Elec       q    Type
                         _______ _______ _______ _____ _____    ______ ____

>  <TORSDO>
F 6

$$$$
=
 OpenBabel10272413383D

 32 36  0  0  1  0  0  0  0  0999 V2000
  192.3090  177.6480  141.0200 C   0  0  0  0  0  3  0  0  0  0  0  0
  191.9500  177.6600  142.3670 C   0  0  0  0  0  3  0  0  0  0  0  0
  191.3260  177.5240  140.0380 C   0  0  0  0  0  3  0  0  0  0  0  0
  189.9690  177.4060  140.3830 C   0  0  0  0  0  0  0  0  0  0  0  0
  190.6080  177.5600  142.7300 C   0  0  0  0  0  3  0  0  0  0  0  0
  189.6080  177.4350  141.7520 C   0  0  0  0  0  0  0  0  0  0  0  0
  186.6260  177.6610  144.1130 N   0  0  0  0  0  0  0  0  0  0  0  0
  185.6450  178.1500  143.1960 C   0  0  0  0  0  0  0  0  0  0  0  0
  184.7490  178.8960  141.3830 C   0  0  0  0  0  0  0  0  0  0  0  0
  188.1720  177.3980  142.1830 C   0  0  2  0  0  3  0  0  0  0  0  0
  183.8030  178.8650  142.3460 N   0  0  0  0  0  0  0  0  0  0  0  0
  184.3530  178.4060  143.4660 N   0  0  0  0  0  2  0  0  0  0  0  0
  187.3060  178.3410  141.3170 C   0  0  0  0  0  2  0  0  0  0  0  0
  186.2690  177.2900  145.4730 C   0  0  0  0  0  1  0  0  0  0  0  0
  184.5160  179.3830  139.9950 C   0  0  0  0  0  1  0  0  0  0  0  0
  188.0330  177.6660  143.7000 C   0  0  0  0  0  2  0  0  0  0  0  0
  185.9340  178.4290  141.8980 C   0  0  0  0  0  0  0  0  0  0  0  0
  189.4810  176.0350  134.4040 C   0  0  0  0  0  2  0  0  0  0  0  0
  188.4680  178.4180  138.6310 C   0  0  0  0  0  2  0  0  0  0  0  0
  189.3780  176.0580  137.2500 C   0  0  2  0  0  3  0  0  0  0  0  0
  189.0810  178.4490  137.2350 C   0  0  0  0  0  2  0  0  0  0  0  0
  189.5000  177.3310  135.2340 C   0  0  0  0  0  2  0  0  0  0  0  0
  188.9890  177.2530  139.3370 N   0  0  0  0  0  0  0  0  0  0  0  0
  188.6960  174.9020  135.0620 C   0  0  1  0  0  3  0  0  0  0  0  0
  188.8030  177.2040  136.5150 N   0  0  1  0  0  0  0  0  0  0  0  0
  189.0920  174.7310  136.5340 C   0  0  0  0  0  2  0  0  0  0  0  0
  188.8010  175.9730  138.6640 C   0  0  0  0  0  2  0  0  0  0  0  0
  187.2010  175.1390  134.9160 C   0  0  0  0  0  2  0  0  0  0  0  0
  186.4250  174.1970  135.8160 C   0  0  0  0  0  2  0  0  0  0  0  0
  185.4440  174.9960  136.6480 C   0  0  0  0  0  2  0  0  0  0  0  0
  185.2520  177.4310  137.1470 C   0  0  0  0  0  1  0  0  0  0  0  0
  185.2380  176.3790  136.0530 C   0  0  0  0  0  2  0  0  0  0  0  0
  1  2  1  0  0  0  0
  2  5  2  0  0  0  0
  3  4  1  0  0  0  0
  3  1  2  0  0  0  0
  4  6  2  0  0  0  0
  6  5  1  0  0  0  0
  7 14  1  0  0  0  0
  8 12  1  0  0  0  0
  8  7  1  0  0  0  0
  9 17  1  0  0  0  0
  9 11  2  0  0  0  0
 10  6  1  6  0  0  0
 10 16  1  0  0  0  0
 11 12  1  0  0  0  0
 13 17  1  0  0  0  0
 13 10  1  0  0  0  0
 15  9  1  0  0  0  0
 16  7  1  0  0  0  0
 17  8  2  0  0  0  0
 18 24  1  0  0  0  0
 18 22  1  0  0  0  0
 19 23  1  0  0  0  0
 20 26  1  6  0  0  0
 20 27  1  0  0  0  0
 21 19  1  0  0  0  0
 23  4  1  0  0  0  0
 24 28  1  1  0  0  0
 24 26  1  0  0  0  0
 25 22  1  6  0  0  0
 25 21  1  0  0  0  0
 25 20  1  0  0  0  0
 27 23  1  0  0  0  0
 28 29  1  0  0  0  0
 29 30  1  0  0  0  0
 32 30  1  0  0  0  0
 32 31  1  0  0  0  0
M  END
>  <MODEL>
9

>  <REMARK>
 VINA RESULT:      -5.9      3.677      8.924
  Name = 
  6 active torsions:
  status: ('A' for Active; 'I' for Inactive)
    1  A    between atoms: C_10  and  C_20
    2  A    between atoms: C_10  and  C_24
    3  A    between atoms: N_14  and  C_15
    4  A    between atoms: C_16  and  C_26
    5  A    between atoms: C_17  and  C_20
    6  A    between atoms: C_19  and  C_24
                            x       y       z     vdW  Elec       q    Type
                         _______ _______ _______ _____ _____    ______ ____

>  <TORSDO>
F 6

$$$$
