=
 OpenBabel10272400193D

 31 34  0  0  1  0  0  0  0  0999 V2000
  187.4660  178.0900  140.6980 C   0  0  1  0  0  3  0  0  0  0  0  0
  186.0680  178.0260  141.3450 C   0  0  1  0  0  3  0  0  0  0  0  0
  186.1530  178.3190  142.8530 C   0  0  2  0  0  3  0  0  0  0  0  0
  186.7090  176.8850  144.8940 C   0  0  0  0  0  3  0  0  0  0  0  0
  186.6580  177.0870  143.5640 C   0  0  0  0  0  3  0  0  0  0  0  0
  183.6230  178.9920  142.5310 C   0  0  0  0  0  2  0  0  0  0  0  0
  186.1950  177.7870  145.9910 C   0  0  0  0  0  2  0  0  0  0  0  0
  185.1670  178.8960  140.7040 O   0  0  0  0  0  0  0  0  0  0  0  0
  185.9510  179.2320  145.5800 C   0  0  0  0  0  2  0  0  0  0  0  0
  183.8960  178.4800  141.1180 C   0  0  0  0  0  2  0  0  0  0  0  0
  184.8360  178.8330  143.4080 C   0  0  0  0  0  0  0  0  0  0  0  0
  184.7720  179.3000  144.6600 C   0  0  0  0  0  3  0  0  0  0  0  0
  187.8670  177.6660  137.2380 N   0  0  0  0  0  0  0  0  0  0  0  0
  189.0200  178.4930  137.5390 C   0  0  0  0  0  2  0  0  0  0  0  0
  187.2570  178.2110  136.0390 C   0  0  0  0  0  1  0  0  0  0  0  0
  186.9240  177.8790  138.3290 C   0  0  0  0  0  2  0  0  0  0  0  0
  187.5430  178.7090  139.3660 N   0  0  0  0  0  0  0  0  0  0  0  0
  188.9420  178.8140  139.0050 C   0  0  0  0  0  2  0  0  0  0  0  0
  188.8260  178.6060  141.8140 S   0  0  0  0  0  0  0  0  0  0  0  0
  189.8020  177.0610  141.6680 C   0  0  0  0  0  2  0  0  0  0  0  0
  190.3470  175.1690  142.8250 O   0  0  0  0  0  1  0  0  0  0  0  0
  190.1910  176.5070  142.9650 N   0  0  0  0  0  0  0  0  0  0  0  0
  191.4770  177.0610  143.3720 C   0  0  0  0  0  2  0  0  0  0  0  0
  191.2800  178.1760  144.3460 C   0  0  0  0  0  0  0  0  0  0  0  0
  191.9740  179.1770  144.2760 O   0  0  0  0  0  0  0  0  0  0  0  0
  190.1770  178.0890  145.3610 C   0  0  0  0  0  2  0  0  0  0  0  0
  190.3140  176.9090  146.3280 C   0  0  2  0  0  3  0  0  0  0  0  0
  189.2940  176.9740  147.4540 C   0  0  0  0  0  1  0  0  0  0  0  0
  191.7260  176.7850  146.8770 C   0  0  2  0  0  3  0  0  0  0  0  0
  192.2650  175.4400  146.5830 C   0  0  0  0  0  2  0  0  0  0  0  0
  191.7570  175.7710  147.8520 O   0  0  0  0  0  0  0  0  0  0  0  0
  1 19  1  1  0  0  0
  2  1  1  6  0  0  0
  2  3  1  0  0  0  0
  3 11  1  0  0  0  0
  3  5  1  1  0  0  0
  4  7  1  0  0  0  0
  5  4  2  0  0  0  0
  6 11  1  0  0  0  0
  8 10  1  0  0  0  0
  8  2  1  0  0  0  0
  9  7  1  0  0  0  0
 10  6  1  0  0  0  0
 11 12  2  0  0  0  0
 12  9  1  0  0  0  0
 13 14  1  0  0  0  0
 13 16  1  0  0  0  0
 14 18  1  0  0  0  0
 15 13  1  0  0  0  0
 16 17  1  0  0  0  0
 17  1  1  0  0  0  0
 18 17  1  0  0  0  0
 20 19  1  0  0  0  0
 20 22  1  0  0  0  0
 21 22  1  0  0  0  0
 22 23  1  0  0  0  0
 23 24  1  0  0  0  0
 24 26  1  0  0  0  0
 25 24  2  0  0  0  0
 26 27  1  0  0  0  0
 27 28  1  1  0  0  0
 29 27  1  6  0  0  0
 29 31  1  0  0  0  0
 30 29  1  0  0  0  0
 30 31  1  0  0  0  0
M  END
>  <MODEL>
1

>  <REMARK>
 VINA RESULT:      -7.5      0.000      0.000
  Name = 
  10 active torsions:
  status: ('A' for Active; 'I' for Inactive)
    1  A    between atoms: C_1  and  C_6
    2  A    between atoms: C_3  and  C_19
    3  A    between atoms: C_3  and  C_23
    4  A    between atoms: C_4  and  C_12
    5  A    between atoms: C_6  and  C_19
    6  A    between atoms: N_9  and  C_15
    7  A    between atoms: N_9  and  C_23
    8  A    between atoms: C_12  and  S_20
    9  A    between atoms: C_12  and  N_27
   10  A    between atoms: C_15  and  S_20
                            x       y       z     vdW  Elec       q    Type
                         _______ _______ _______ _____ _____    ______ ____

>  <TORSDO>
F 10

$$$$
=
 OpenBabel10272400193D

 31 34  0  0  1  0  0  0  0  0999 V2000
  186.8180  178.0380  142.1390 C   0  0  1  0  0  3  0  0  0  0  0  0
  187.1260  177.5000  143.5510 C   0  0  1  0  0  3  0  0  0  0  0  0
  188.6430  177.3720  143.7640 C   0  0  2  0  0  3  0  0  0  0  0  0
  190.3580  175.5760  143.1570 C   0  0  0  0  0  3  0  0  0  0  0  0
  189.1320  176.1260  143.0660 C   0  0  0  0  0  3  0  0  0  0  0  0
  187.9680  177.5540  146.3070 C   0  0  0  0  0  2  0  0  0  0  0  0
  191.5050  176.0050  144.0420 C   0  0  0  0  0  2  0  0  0  0  0  0
  186.5340  178.3030  144.5430 O   0  0  0  0  0  0  0  0  0  0  0  0
  191.4050  177.4210  144.5910 C   0  0  0  0  0  2  0  0  0  0  0  0
  186.5640  177.5270  145.7090 C   0  0  0  0  0  2  0  0  0  0  0  0
  189.0170  177.4180  145.2360 C   0  0  0  0  0  0  0  0  0  0  0  0
  190.3010  177.4920  145.6010 C   0  0  0  0  0  3  0  0  0  0  0  0
  183.4310  178.0510  141.2200 N   0  0  0  0  0  0  0  0  0  0  0  0
  183.9680  179.0010  140.2650 C   0  0  0  0  0  2  0  0  0  0  0  0
  182.2060  178.6260  141.7450 C   0  0  0  0  0  1  0  0  0  0  0  0
  184.3850  178.0050  142.3210 C   0  0  0  0  0  2  0  0  0  0  0  0
  185.5700  178.8010  141.9860 N   0  0  0  0  0  0  0  0  0  0  0  0
  185.4290  179.1480  140.5860 C   0  0  0  0  0  2  0  0  0  0  0  0
  188.2380  178.7930  141.2590 S   0  0  0  0  0  0  0  0  0  0  0  0
  188.4320  177.4620  140.0140 C   0  0  0  0  0  2  0  0  0  0  0  0
  190.4610  176.5130  139.5630 O   0  0  0  0  0  1  0  0  0  0  0  0
  189.6760  177.5720  139.2500 N   0  0  0  0  0  0  0  0  0  0  0  0
  189.3870  177.4990  137.8230 C   0  0  0  0  0  2  0  0  0  0  0  0
  188.5700  178.6750  137.3960 C   0  0  0  0  0  0  0  0  0  0  0  0
  189.0360  179.8000  137.4720 O   0  0  0  0  0  0  0  0  0  0  0  0
  187.2060  178.4580  136.8060 C   0  0  0  0  0  2  0  0  0  0  0  0
  187.1010  177.2070  135.9280 C   0  0  2  0  0  3  0  0  0  0  0  0
  186.8400  177.5550  134.4710 C   0  0  0  0  0  1  0  0  0  0  0  0
  186.0600  176.2310  136.4510 C   0  0  2  0  0  3  0  0  0  0  0  0
  186.7250  175.0250  136.9900 C   0  0  0  0  0  2  0  0  0  0  0  0
  186.1330  175.0350  135.7140 O   0  0  0  0  0  0  0  0  0  0  0  0
  1 19  1  1  0  0  0
  2  1  1  6  0  0  0
  2  3  1  0  0  0  0
  2  8  1  0  0  0  0
  3  5  1  1  0  0  0
  3 11  1  0  0  0  0
  4  7  1  0  0  0  0
  5  4  2  0  0  0  0
  7  9  1  0  0  0  0
  8 10  1  0  0  0  0
  9 12  1  0  0  0  0
 10  6  1  0  0  0  0
 11 12  2  0  0  0  0
 11  6  1  0  0  0  0
 13 15  1  0  0  0  0
 13 16  1  0  0  0  0
 14 18  1  0  0  0  0
 14 13  1  0  0  0  0
 17  1  1  0  0  0  0
 17 16  1  0  0  0  0
 18 17  1  0  0  0  0
 20 19  1  0  0  0  0
 22 21  1  0  0  0  0
 22 20  1  0  0  0  0
 23 22  1  0  0  0  0
 24 25  2  0  0  0  0
 24 23  1  0  0  0  0
 26 24  1  0  0  0  0
 27 28  1  6  0  0  0
 27 26  1  0  0  0  0
 29 27  1  6  0  0  0
 29 30  1  0  0  0  0
 31 29  1  0  0  0  0
 31 30  1  0  0  0  0
M  END
>  <MODEL>
2

>  <REMARK>
 VINA RESULT:      -7.3      2.449      6.778
  Name = 
  10 active torsions:
  status: ('A' for Active; 'I' for Inactive)
    1  A    between atoms: C_1  and  C_6
    2  A    between atoms: C_3  and  C_19
    3  A    between atoms: C_3  and  C_23
    4  A    between atoms: C_4  and  C_12
    5  A    between atoms: C_6  and  C_19
    6  A    between atoms: N_9  and  C_15
    7  A    between atoms: N_9  and  C_23
    8  A    between atoms: C_12  and  S_20
    9  A    between atoms: C_12  and  N_27
   10  A    between atoms: C_15  and  S_20
                            x       y       z     vdW  Elec       q    Type
                         _______ _______ _______ _____ _____    ______ ____

>  <TORSDO>
F 10

$$$$
=
 OpenBabel10272400193D

 31 34  0  0  1  0  0  0  0  0999 V2000
  188.9820  177.3260  140.3550 C   0  0  1  0  0  3  0  0  0  0  0  0
  189.1360  177.6990  138.8680 C   0  0  1  0  0  3  0  0  0  0  0  0
  188.7100  176.5280  137.9670 C   0  0  2  0  0  3  0  0  0  0  0  0
  189.9030  174.4250  137.1370 C   0  0  0  0  0  3  0  0  0  0  0  0
  189.8200  175.5040  137.9370 C   0  0  0  0  0  3  0  0  0  0  0  0
  188.3340  178.4510  136.2020 C   0  0  0  0  0  2  0  0  0  0  0  0
  188.9710  174.0240  136.0180 C   0  0  0  0  0  2  0  0  0  0  0  0
  188.4210  178.8710  138.5570 O   0  0  0  0  0  0  0  0  0  0  0  0
  187.5980  174.6820  136.0510 C   0  0  0  0  0  2  0  0  0  0  0  0
  188.9310  179.2970  137.3240 C   0  0  0  0  0  2  0  0  0  0  0  0
  188.2910  176.9960  136.5840 C   0  0  0  0  0  0  0  0  0  0  0  0
  187.7310  176.1370  135.7250 C   0  0  0  0  0  3  0  0  0  0  0  0
  191.0580  176.9070  143.1530 N   0  0  0  0  0  0  0  0  0  0  0  0
  192.0330  177.3120  142.1590 C   0  0  0  0  0  2  0  0  0  0  0  0
  191.6310  175.7840  143.8730 C   0  0  0  0  0  1  0  0  0  0  0  0
  189.9130  176.3960  142.4090 C   0  0  0  0  0  2  0  0  0  0  0  0
  190.1130  176.6190  140.9750 N   0  0  0  0  0  0  0  0  0  0  0  0
  191.2820  177.4680  140.8660 C   0  0  0  0  0  2  0  0  0  0  0  0
  188.2780  178.6390  141.4260 S   0  0  0  0  0  0  0  0  0  0  0  0
  186.5800  177.9530  141.4910 C   0  0  0  0  0  2  0  0  0  0  0  0
  185.3310  179.5670  140.4650 O   0  0  0  0  0  1  0  0  0  0  0  0
  185.5550  178.9830  141.6670 N   0  0  0  0  0  0  0  0  0  0  0  0
  184.3050  178.3670  142.0960 C   0  0  0  0  0  2  0  0  0  0  0  0
  183.8600  178.9450  143.4000 C   0  0  0  0  0  0  0  0  0  0  0  0
  182.6730  178.9740  143.6810 O   0  0  0  0  0  0  0  0  0  0  0  0
  184.8840  179.4210  144.3900 C   0  0  0  0  0  2  0  0  0  0  0  0
  185.4480  178.3110  145.2830 C   0  0  2  0  0  3  0  0  0  0  0  0
  184.8420  178.3400  146.6770 C   0  0  0  0  0  1  0  0  0  0  0  0
  186.9660  178.3500  145.3470 C   0  0  2  0  0  3  0  0  0  0  0  0
  187.5200  177.0320  144.9690 C   0  0  0  0  0  2  0  0  0  0  0  0
  187.4130  177.4300  146.3140 O   0  0  0  0  0  0  0  0  0  0  0  0
  1 17  1  0  0  0  0
  1 19  1  1  0  0  0
  2  1  1  1  0  0  0
  3  5  1  6  0  0  0
  3  2  1  0  0  0  0
  4  5  2  0  0  0  0
  6 11  1  0  0  0  0
  6 10  1  0  0  0  0
  7  9  1  0  0  0  0
  7  4  1  0  0  0  0
  8  2  1  0  0  0  0
 10  8  1  0  0  0  0
 11  3  1  0  0  0  0
 12  9  1  0  0  0  0
 12 11  2  0  0  0  0
 13 15  1  0  0  0  0
 14 13  1  0  0  0  0
 16 13  1  0  0  0  0
 17 16  1  0  0  0  0
 18 17  1  0  0  0  0
 18 14  1  0  0  0  0
 19 20  1  0  0  0  0
 20 22  1  0  0  0  0
 21 22  1  0  0  0  0
 22 23  1  0  0  0  0
 23 24  1  0  0  0  0
 24 25  2  0  0  0  0
 24 26  1  0  0  0  0
 26 27  1  0  0  0  0
 27 28  1  1  0  0  0
 29 27  1  1  0  0  0
 29 31  1  0  0  0  0
 30 29  1  0  0  0  0
 30 31  1  0  0  0  0
M  END
>  <MODEL>
3

>  <REMARK>
 VINA RESULT:      -7.0      2.436      6.602
  Name = 
  10 active torsions:
  status: ('A' for Active; 'I' for Inactive)
    1  A    between atoms: C_1  and  C_6
    2  A    between atoms: C_3  and  C_19
    3  A    between atoms: C_3  and  C_23
    4  A    between atoms: C_4  and  C_12
    5  A    between atoms: C_6  and  C_19
    6  A    between atoms: N_9  and  C_15
    7  A    between atoms: N_9  and  C_23
    8  A    between atoms: C_12  and  S_20
    9  A    between atoms: C_12  and  N_27
   10  A    between atoms: C_15  and  S_20
                            x       y       z     vdW  Elec       q    Type
                         _______ _______ _______ _____ _____    ______ ____

>  <TORSDO>
F 10

$$$$
=
 OpenBabel10272400193D

 31 34  0  0  1  0  0  0  0  0999 V2000
  186.0130  177.8920  143.1940 C   0  0  1  0  0  3  0  0  0  0  0  0
  186.9000  177.5000  144.3930 C   0  0  1  0  0  3  0  0  0  0  0  0
  188.3850  177.5000  143.9920 C   0  0  2  0  0  3  0  0  0  0  0  0
  189.8950  175.7870  142.8440 C   0  0  0  0  0  3  0  0  0  0  0  0
  188.6830  176.2370  143.2200 C   0  0  0  0  0  3  0  0  0  0  0  0
  188.7440  177.8490  146.5820 C   0  0  0  0  0  2  0  0  0  0  0  0
  191.2480  176.3700  143.1780 C   0  0  0  0  0  2  0  0  0  0  0  0
  186.6670  178.3400  145.4970 O   0  0  0  0  0  0  0  0  0  0  0  0
  191.2300  177.8170  143.6500 C   0  0  0  0  0  2  0  0  0  0  0  0
  187.2280  177.6710  146.5920 C   0  0  0  0  0  2  0  0  0  0  0  0
  189.2980  177.6980  145.1900 C   0  0  0  0  0  0  0  0  0  0  0  0
  190.6080  177.8940  145.0100 C   0  0  0  0  0  3  0  0  0  0  0  0
  182.8810  179.2290  142.3460 N   0  0  0  0  0  0  0  0  0  0  0  0
  182.9810  179.6470  143.7310 C   0  0  0  0  0  2  0  0  0  0  0  0
  181.5380  178.7110  142.1560 C   0  0  0  0  0  1  0  0  0  0  0  0
  183.7950  178.1030  142.1990 C   0  0  0  0  0  2  0  0  0  0  0  0
  184.5620  177.9210  143.4350 N   0  0  0  0  0  0  0  0  0  0  0  0
  184.2700  179.0790  144.2550 C   0  0  0  0  0  2  0  0  0  0  0  0
  186.6090  179.3180  142.2080 S   0  0  0  0  0  0  0  0  0  0  0  0
  186.6310  178.4480  140.5940 C   0  0  0  0  0  2  0  0  0  0  0  0
  188.9110  178.3050  140.5940 O   0  0  0  0  0  1  0  0  0  0  0  0
  187.8580  178.6890  139.8330 N   0  0  0  0  0  0  0  0  0  0  0  0
  187.8610  177.8660  138.6290 C   0  0  0  0  0  2  0  0  0  0  0  0
  188.8640  178.3810  137.6490 C   0  0  0  0  0  0  0  0  0  0  0  0
  188.9870  179.5820  137.4760 O   0  0  0  0  0  0  0  0  0  0  0  0
  189.7680  177.4160  136.9360 C   0  0  0  0  0  2  0  0  0  0  0  0
  190.0740  176.1450  137.7350 C   0  0  2  0  0  3  0  0  0  0  0  0
  191.1980  176.3570  138.7350 C   0  0  0  0  0  1  0  0  0  0  0  0
  190.3670  174.9610  136.8270 C   0  0  2  0  0  3  0  0  0  0  0  0
  189.2600  173.9840  136.8990 C   0  0  0  0  0  2  0  0  0  0  0  0
  190.4610  173.7920  137.6050 O   0  0  0  0  0  0  0  0  0  0  0  0
  1 19  1  1  0  0  0
  1 17  1  0  0  0  0
  2  1  1  6  0  0  0
  2  8  1  0  0  0  0
  3  5  1  1  0  0  0
  3  2  1  0  0  0  0
  3 11  1  0  0  0  0
  4  7  1  0  0  0  0
  4  5  2  0  0  0  0
  6 10  1  0  0  0  0
  7  9  1  0  0  0  0
  8 10  1  0  0  0  0
  9 12  1  0  0  0  0
 11  6  1  0  0  0  0
 12 11  2  0  0  0  0
 13 14  1  0  0  0  0
 14 18  1  0  0  0  0
 15 13  1  0  0  0  0
 16 13  1  0  0  0  0
 16 17  1  0  0  0  0
 17 18  1  0  0  0  0
 20 19  1  0  0  0  0
 22 21  1  0  0  0  0
 22 20  1  0  0  0  0
 23 22  1  0  0  0  0
 24 23  1  0  0  0  0
 25 24  2  0  0  0  0
 26 24  1  0  0  0  0
 26 27  1  0  0  0  0
 27 28  1  1  0  0  0
 29 30  1  0  0  0  0
 29 31  1  0  0  0  0
 29 27  1  1  0  0  0
 30 31  1  0  0  0  0
M  END
>  <MODEL>
4

>  <REMARK>
 VINA RESULT:      -7.0      2.782      6.557
  Name = 
  10 active torsions:
  status: ('A' for Active; 'I' for Inactive)
    1  A    between atoms: C_1  and  C_6
    2  A    between atoms: C_3  and  C_19
    3  A    between atoms: C_3  and  C_23
    4  A    between atoms: C_4  and  C_12
    5  A    between atoms: C_6  and  C_19
    6  A    between atoms: N_9  and  C_15
    7  A    between atoms: N_9  and  C_23
    8  A    between atoms: C_12  and  S_20
    9  A    between atoms: C_12  and  N_27
   10  A    between atoms: C_15  and  S_20
                            x       y       z     vdW  Elec       q    Type
                         _______ _______ _______ _____ _____    ______ ____

>  <TORSDO>
F 10

$$$$
=
 OpenBabel10272400193D

 31 34  0  0  1  0  0  0  0  0999 V2000
  189.5950  176.2820  138.3410 C   0  0  1  0  0  3  0  0  0  0  0  0
  188.9700  176.4290  136.9400 C   0  0  1  0  0  3  0  0  0  0  0  0
  187.4370  176.3320  137.0160 C   0  0  2  0  0  3  0  0  0  0  0  0
  185.8020  174.3690  137.0860 C   0  0  0  0  0  3  0  0  0  0  0  0
  187.0450  174.8810  137.1570 C   0  0  0  0  0  3  0  0  0  0  0  0
  187.5670  177.6850  134.7560 C   0  0  0  0  0  2  0  0  0  0  0  0
  184.5160  175.0910  136.7580 C   0  0  0  0  0  2  0  0  0  0  0  0
  189.3780  177.6250  136.3210 O   0  0  0  0  0  0  0  0  0  0  0  0
  184.5690  176.6060  136.9050 C   0  0  0  0  0  2  0  0  0  0  0  0
  189.0630  177.4640  134.9660 C   0  0  0  0  0  2  0  0  0  0  0  0
  186.7630  177.0220  135.8430 C   0  0  0  0  0  0  0  0  0  0  0  0
  185.4360  177.1860  135.8310 C   0  0  0  0  0  3  0  0  0  0  0  0
  192.8380  175.5560  137.2140 N   0  0  0  0  0  0  0  0  0  0  0  0
  192.1550  174.3270  136.8620 C   0  0  0  0  0  2  0  0  0  0  0  0
  194.1000  175.1790  137.8250 C   0  0  0  0  0  1  0  0  0  0  0  0
  192.0320  176.1810  138.2550 C   0  0  0  0  0  2  0  0  0  0  0  0
  190.7890  175.4270  138.4400 N   0  0  0  0  0  0  0  0  0  0  0  0
  190.7420  174.4700  137.3530 C   0  0  0  0  0  2  0  0  0  0  0  0
  189.7390  177.8350  139.3050 S   0  0  0  0  0  0  0  0  0  0  0  0
  189.5840  177.0590  140.9580 C   0  0  0  0  0  2  0  0  0  0  0  0
  188.2770  178.8760  141.4140 O   0  0  0  0  0  1  0  0  0  0  0  0
  189.1310  177.9950  141.9880 N   0  0  0  0  0  0  0  0  0  0  0  0
  188.3950  177.2750  143.0200 C   0  0  0  0  0  2  0  0  0  0  0  0
  188.8910  177.6560  144.3760 C   0  0  0  0  0  0  0  0  0  0  0  0
  189.7750  178.4890  144.4900 O   0  0  0  0  0  0  0  0  0  0  0  0
  188.2450  177.0650  145.5970 C   0  0  0  0  0  2  0  0  0  0  0  0
  187.5090  178.0880  146.4680 C   0  0  2  0  0  3  0  0  0  0  0  0
  187.9590  178.0290  147.9180 C   0  0  0  0  0  1  0  0  0  0  0  0
  186.0000  177.9460  146.3590 C   0  0  2  0  0  3  0  0  0  0  0  0
  185.4350  179.1030  145.6310 C   0  0  0  0  0  2  0  0  0  0  0  0
  185.3830  179.0150  147.0340 O   0  0  0  0  0  0  0  0  0  0  0  0
  1 17  1  0  0  0  0
  1 19  1  6  0  0  0
  2  3  1  0  0  0  0
  2  1  1  1  0  0  0
  3  5  1  6  0  0  0
  4  5  2  0  0  0  0
  6 10  1  0  0  0  0
  6 11  1  0  0  0  0
  7  9  1  0  0  0  0
  7  4  1  0  0  0  0
  8  2  1  0  0  0  0
 10  8  1  0  0  0  0
 11  3  1  0  0  0  0
 12 11  2  0  0  0  0
 12  9  1  0  0  0  0
 13 15  1  0  0  0  0
 13 16  1  0  0  0  0
 14 13  1  0  0  0  0
 14 18  1  0  0  0  0
 16 17  1  0  0  0  0
 18 17  1  0  0  0  0
 19 20  1  0  0  0  0
 20 22  1  0  0  0  0
 21 22  1  0  0  0  0
 22 23  1  0  0  0  0
 23 24  1  0  0  0  0
 24 25  2  0  0  0  0
 24 26  1  0  0  0  0
 26 27  1  0  0  0  0
 27 28  1  1  0  0  0
 29 27  1  1  0  0  0
 29 31  1  0  0  0  0
 30 29  1  0  0  0  0
 30 31  1  0  0  0  0
M  END
>  <MODEL>
5

>  <REMARK>
 VINA RESULT:      -6.8      3.326      6.000
  Name = 
  10 active torsions:
  status: ('A' for Active; 'I' for Inactive)
    1  A    between atoms: C_1  and  C_6
    2  A    between atoms: C_3  and  C_19
    3  A    between atoms: C_3  and  C_23
    4  A    between atoms: C_4  and  C_12
    5  A    between atoms: C_6  and  C_19
    6  A    between atoms: N_9  and  C_15
    7  A    between atoms: N_9  and  C_23
    8  A    between atoms: C_12  and  S_20
    9  A    between atoms: C_12  and  N_27
   10  A    between atoms: C_15  and  S_20
                            x       y       z     vdW  Elec       q    Type
                         _______ _______ _______ _____ _____    ______ ____

>  <TORSDO>
F 10

$$$$
=
 OpenBabel10272400193D

 31 34  0  0  1  0  0  0  0  0999 V2000
  189.0820  176.4480  137.8470 C   0  0  1  0  0  3  0  0  0  0  0  0
  188.1090  176.3920  136.6520 C   0  0  1  0  0  3  0  0  0  0  0  0
  186.7720  175.7580  137.0700 C   0  0  2  0  0  3  0  0  0  0  0  0
  185.9690  173.3430  137.3040 C   0  0  0  0  0  3  0  0  0  0  0  0
  186.9410  174.2600  137.1410 C   0  0  0  0  0  3  0  0  0  0  0  0
  185.8600  177.1150  134.9990 C   0  0  0  0  0  2  0  0  0  0  0  0
  184.4760  173.5710  137.3600 C   0  0  0  0  0  2  0  0  0  0  0  0
  187.9190  177.6670  136.0880 O   0  0  0  0  0  0  0  0  0  0  0  0
  184.0510  175.0030  137.6530 C   0  0  0  0  0  2  0  0  0  0  0  0
  187.3440  177.4320  134.8330 C   0  0  0  0  0  2  0  0  0  0  0  0
  185.6300  176.1890  136.1640 C   0  0  0  0  0  0  0  0  0  0  0  0
  184.3690  175.8730  136.4770 C   0  0  0  0  0  3  0  0  0  0  0  0
  192.5120  176.2770  137.1290 N   0  0  0  0  0  0  0  0  0  0  0  0
  191.9850  175.3860  136.1140 C   0  0  0  0  0  2  0  0  0  0  0  0
  193.6720  175.6220  137.7050 C   0  0  0  0  0  1  0  0  0  0  0  0
  191.4970  176.3430  138.1730 C   0  0  0  0  0  2  0  0  0  0  0  0
  190.2950  175.6230  137.7430 N   0  0  0  0  0  0  0  0  0  0  0  0
  190.5020  175.3090  136.3440 C   0  0  0  0  0  2  0  0  0  0  0  0
  189.4030  178.1220  138.5220 S   0  0  0  0  0  0  0  0  0  0  0  0
  188.1370  178.0500  139.8460 C   0  0  0  0  0  2  0  0  0  0  0  0
  189.9570  177.6060  141.1530 O   0  0  0  0  0  1  0  0  0  0  0  0
  188.6220  177.3970  141.0630 N   0  0  0  0  0  0  0  0  0  0  0  0
  188.0000  178.0090  142.2310 C   0  0  0  0  0  2  0  0  0  0  0  0
  188.0320  177.0680  143.3910 C   0  0  0  0  0  0  0  0  0  0  0  0
  188.0290  175.8630  143.1990 O   0  0  0  0  0  0  0  0  0  0  0  0
  188.1440  177.6120  144.7870 C   0  0  0  0  0  2  0  0  0  0  0  0
  189.3570  177.0890  145.5630 C   0  0  2  0  0  3  0  0  0  0  0  0
  189.2360  177.3550  147.0540 C   0  0  0  0  0  1  0  0  0  0  0  0
  190.6630  177.6400  145.0140 C   0  0  2  0  0  3  0  0  0  0  0  0
  191.5370  176.5280  144.5820 C   0  0  0  0  0  2  0  0  0  0  0  0
  191.7290  177.1850  145.8110 O   0  0  0  0  0  0  0  0  0  0  0  0
  1 19  1  6  0  0  0
  2  3  1  0  0  0  0
  2  1  1  1  0  0  0
  3  5  1  6  0  0  0
  4  7  1  0  0  0  0
  5  4  2  0  0  0  0
  6 11  1  0  0  0  0
  7  9  1  0  0  0  0
  8  2  1  0  0  0  0
 10  6  1  0  0  0  0
 10  8  1  0  0  0  0
 11 12  2  0  0  0  0
 11  3  1  0  0  0  0
 12  9  1  0  0  0  0
 13 15  1  0  0  0  0
 13 16  1  0  0  0  0
 14 18  1  0  0  0  0
 14 13  1  0  0  0  0
 17  1  1  0  0  0  0
 17 16  1  0  0  0  0
 18 17  1  0  0  0  0
 19 20  1  0  0  0  0
 20 22  1  0  0  0  0
 22 21  1  0  0  0  0
 22 23  1  0  0  0  0
 23 24  1  0  0  0  0
 24 26  1  0  0  0  0
 25 24  2  0  0  0  0
 26 27  1  0  0  0  0
 27 28  1  1  0  0  0
 29 27  1  1  0  0  0
 29 31  1  0  0  0  0
 30 29  1  0  0  0  0
 30 31  1  0  0  0  0
M  END
>  <MODEL>
6

>  <REMARK>
 VINA RESULT:      -6.7      3.170      5.511
  Name = 
  10 active torsions:
  status: ('A' for Active; 'I' for Inactive)
    1  A    between atoms: C_1  and  C_6
    2  A    between atoms: C_3  and  C_19
    3  A    between atoms: C_3  and  C_23
    4  A    between atoms: C_4  and  C_12
    5  A    between atoms: C_6  and  C_19
    6  A    between atoms: N_9  and  C_15
    7  A    between atoms: N_9  and  C_23
    8  A    between atoms: C_12  and  S_20
    9  A    between atoms: C_12  and  N_27
   10  A    between atoms: C_15  and  S_20
                            x       y       z     vdW  Elec       q    Type
                         _______ _______ _______ _____ _____    ______ ____

>  <TORSDO>
F 10

$$$$
=
 OpenBabel10272400193D

 31 34  0  0  1  0  0  0  0  0999 V2000
  188.1940  177.9170  141.8660 C   0  0  1  0  0  3  0  0  0  0  0  0
  186.6870  177.8490  142.1820 C   0  0  1  0  0  3  0  0  0  0  0  0
  186.4160  178.2910  143.6300 C   0  0  2  0  0  3  0  0  0  0  0  0
  186.5210  177.0890  145.8830 C   0  0  0  0  0  3  0  0  0  0  0  0
  186.7720  177.1590  144.5620 C   0  0  0  0  0  3  0  0  0  0  0  0
  184.0120  178.8070  142.6740 C   0  0  0  0  0  2  0  0  0  0  0  0
  185.7460  178.0670  146.7340 C   0  0  0  0  0  2  0  0  0  0  0  0
  185.9370  178.6090  141.2650 O   0  0  0  0  0  0  0  0  0  0  0  0
  185.5670  179.4530  146.1290 C   0  0  0  0  0  2  0  0  0  0  0  0
  184.6160  178.1740  141.4220 C   0  0  0  0  0  2  0  0  0  0  0  0
  184.9930  178.7930  143.8150 C   0  0  0  0  0  0  0  0  0  0  0  0
  184.6310  179.3750  144.9630 C   0  0  0  0  0  3  0  0  0  0  0  0
  191.4390  178.1000  143.1910 N   0  0  0  0  0  0  0  0  0  0  0  0
  191.2750  176.6630  143.0900 C   0  0  0  0  0  2  0  0  0  0  0  0
  192.0250  178.3690  144.4910 C   0  0  0  0  0  1  0  0  0  0  0  0
  190.0920  178.6580  143.2080 C   0  0  0  0  0  2  0  0  0  0  0  0
  189.1110  177.5960  142.9700 N   0  0  0  0  0  0  0  0  0  0  0  0
  189.8780  176.4280  142.5870 C   0  0  0  0  0  2  0  0  0  0  0  0
  188.6970  177.1680  140.2700 S   0  0  0  0  0  0  0  0  0  0  0  0
  189.0050  178.7490  139.3950 C   0  0  0  0  0  2  0  0  0  0  0  0
  188.9400  179.8730  137.4070 O   0  0  0  0  0  1  0  0  0  0  0  0
  188.4950  178.7510  138.0230 N   0  0  0  0  0  0  0  0  0  0  0  0
  189.0320  177.6070  137.2960 C   0  0  0  0  0  2  0  0  0  0  0  0
  187.9780  177.0010  136.4280 C   0  0  0  0  0  0  0  0  0  0  0  0
  188.0090  177.1730  135.2200 O   0  0  0  0  0  0  0  0  0  0  0  0
  186.9270  176.1200  137.0400 C   0  0  0  0  0  2  0  0  0  0  0  0
  185.4930  176.6000  136.7930 C   0  0  2  0  0  3  0  0  0  0  0  0
  185.0990  177.7230  137.7380 C   0  0  0  0  0  1  0  0  0  0  0  0
  184.4930  175.4570  136.8570 C   0  0  2  0  0  3  0  0  0  0  0  0
  183.7980  175.3230  135.5590 C   0  0  0  0  0  2  0  0  0  0  0  0
  183.1960  175.9640  136.6570 O   0  0  0  0  0  0  0  0  0  0  0  0
  1 19  1  6  0  0  0
  1 17  1  0  0  0  0
  2  1  1  6  0  0  0
  2  3  1  0  0  0  0
  3 11  1  0  0  0  0
  3  5  1  1  0  0  0
  4  7  1  0  0  0  0
  5  4  2  0  0  0  0
  6 11  1  0  0  0  0
  8 10  1  0  0  0  0
  8  2  1  0  0  0  0
  9  7  1  0  0  0  0
 10  6  1  0  0  0  0
 11 12  2  0  0  0  0
 12  9  1  0  0  0  0
 13 16  1  0  0  0  0
 13 15  1  0  0  0  0
 14 13  1  0  0  0  0
 17 16  1  0  0  0  0
 18 17  1  0  0  0  0
 18 14  1  0  0  0  0
 20 19  1  0  0  0  0
 21 22  1  0  0  0  0
 22 20  1  0  0  0  0
 23 22  1  0  0  0  0
 24 26  1  0  0  0  0
 24 23  1  0  0  0  0
 25 24  2  0  0  0  0
 27 26  1  0  0  0  0
 27 28  1  1  0  0  0
 29 27  1  6  0  0  0
 30 31  1  0  0  0  0
 30 29  1  0  0  0  0
 31 29  1  0  0  0  0
M  END
>  <MODEL>
7

>  <REMARK>
 VINA RESULT:      -6.5      2.771      6.809
  Name = 
  10 active torsions:
  status: ('A' for Active; 'I' for Inactive)
    1  A    between atoms: C_1  and  C_6
    2  A    between atoms: C_3  and  C_19
    3  A    between atoms: C_3  and  C_23
    4  A    between atoms: C_4  and  C_12
    5  A    between atoms: C_6  and  C_19
    6  A    between atoms: N_9  and  C_15
    7  A    between atoms: N_9  and  C_23
    8  A    between atoms: C_12  and  S_20
    9  A    between atoms: C_12  and  N_27
   10  A    between atoms: C_15  and  S_20
                            x       y       z     vdW  Elec       q    Type
                         _______ _______ _______ _____ _____    ______ ____

>  <TORSDO>
F 10

$$$$
=
 OpenBabel10272400193D

 31 34  0  0  1  0  0  0  0  0999 V2000
  187.3170  178.2370  140.5870 C   0  0  1  0  0  3  0  0  0  0  0  0
  186.0820  178.8240  141.3000 C   0  0  1  0  0  3  0  0  0  0  0  0
  184.7910  178.4260  140.5660 C   0  0  2  0  0  3  0  0  0  0  0  0
  183.5570  179.3750  138.5380 C   0  0  0  0  0  3  0  0  0  0  0  0
  184.6340  179.2970  139.3430 C   0  0  0  0  0  3  0  0  0  0  0  0
  183.7030  178.8660  142.9280 C   0  0  0  0  0  2  0  0  0  0  0  0
  182.2200  178.6940  138.7070 C   0  0  0  0  0  2  0  0  0  0  0  0
  186.0420  178.4400  142.6530 O   0  0  0  0  0  0  0  0  0  0  0  0
  182.2150  177.5030  139.6560 C   0  0  0  0  0  2  0  0  0  0  0  0
  185.1260  179.3110  143.2550 C   0  0  0  0  0  2  0  0  0  0  0  0
  183.5810  178.4600  141.4830 C   0  0  0  0  0  0  0  0  0  0  0  0
  182.4050  177.9810  141.0630 C   0  0  0  0  0  3  0  0  0  0  0  0
  188.4030  177.1490  137.4330 N   0  0  0  0  0  0  0  0  0  0  0  0
  189.1910  178.3570  137.5820 C   0  0  0  0  0  2  0  0  0  0  0  0
  187.8710  177.1550  136.0820 C   0  0  0  0  0  1  0  0  0  0  0  0
  187.2690  177.2940  138.3370 C   0  0  0  0  0  2  0  0  0  0  0  0
  187.4310  178.5060  139.1450 N   0  0  0  0  0  0  0  0  0  0  0  0
  188.7760  178.9780  138.8860 C   0  0  0  0  0  2  0  0  0  0  0  0
  188.9050  178.4240  141.4840 S   0  0  0  0  0  0  0  0  0  0  0  0
  189.2270  176.6320  141.6950 C   0  0  0  0  0  2  0  0  0  0  0  0
  190.3490  175.0280  142.8730 O   0  0  0  0  0  1  0  0  0  0  0  0
  189.9570  176.3240  142.9250 N   0  0  0  0  0  0  0  0  0  0  0  0
  191.1600  177.1450  143.0040 C   0  0  0  0  0  2  0  0  0  0  0  0
  191.0720  178.0890  144.1590 C   0  0  0  0  0  0  0  0  0  0  0  0
  191.8630  179.0130  144.2530 O   0  0  0  0  0  0  0  0  0  0  0  0
  189.9630  177.9360  145.1600 C   0  0  0  0  0  2  0  0  0  0  0  0
  190.3020  177.0010  146.3250 C   0  0  2  0  0  3  0  0  0  0  0  0
  189.6120  177.4230  147.6120 C   0  0  0  0  0  1  0  0  0  0  0  0
  191.8020  176.8670  146.5280 C   0  0  2  0  0  3  0  0  0  0  0  0
  192.1220  175.5230  147.0550 C   0  0  0  0  0  2  0  0  0  0  0  0
  192.0680  176.6510  147.8930 O   0  0  0  0  0  0  0  0  0  0  0  0
  1 19  1  1  0  0  0
  2  1  1  6  0  0  0
  2  8  1  0  0  0  0
  3  5  1  6  0  0  0
  3  2  1  0  0  0  0
  3 11  1  0  0  0  0
  4  7  1  0  0  0  0
  4  5  2  0  0  0  0
  6 10  1  0  0  0  0
  7  9  1  0  0  0  0
  8 10  1  0  0  0  0
  9 12  1  0  0  0  0
 11  6  1  0  0  0  0
 12 11  2  0  0  0  0
 13 14  1  0  0  0  0
 13 16  1  0  0  0  0
 14 18  1  0  0  0  0
 15 13  1  0  0  0  0
 16 17  1  0  0  0  0
 17  1  1  0  0  0  0
 18 17  1  0  0  0  0
 19 20  1  0  0  0  0
 20 22  1  0  0  0  0
 21 22  1  0  0  0  0
 22 23  1  0  0  0  0
 23 24  1  0  0  0  0
 24 25  2  0  0  0  0
 24 26  1  0  0  0  0
 26 27  1  0  0  0  0
 27 28  1  1  0  0  0
 29 27  1  1  0  0  0
 29 30  1  0  0  0  0
 29 31  1  0  0  0  0
 30 31  1  0  0  0  0
M  END
>  <MODEL>
8

>  <REMARK>
 VINA RESULT:      -6.4      1.291      2.873
  Name = 
  10 active torsions:
  status: ('A' for Active; 'I' for Inactive)
    1  A    between atoms: C_1  and  C_6
    2  A    between atoms: C_3  and  C_19
    3  A    between atoms: C_3  and  C_23
    4  A    between atoms: C_4  and  C_12
    5  A    between atoms: C_6  and  C_19
    6  A    between atoms: N_9  and  C_15
    7  A    between atoms: N_9  and  C_23
    8  A    between atoms: C_12  and  S_20
    9  A    between atoms: C_12  and  N_27
   10  A    between atoms: C_15  and  S_20
                            x       y       z     vdW  Elec       q    Type
                         _______ _______ _______ _____ _____    ______ ____

>  <TORSDO>
F 10

$$$$
=
 OpenBabel10272400193D

 31 34  0  0  1  0  0  0  0  0999 V2000
  188.3870  178.5450  141.5000 C   0  0  1  0  0  3  0  0  0  0  0  0
  186.8810  178.3380  141.7570 C   0  0  1  0  0  3  0  0  0  0  0  0
  186.5590  178.4950  143.2530 C   0  0  2  0  0  3  0  0  0  0  0  0
  186.6970  176.9130  145.2550 C   0  0  0  0  0  3  0  0  0  0  0  0
  186.9660  177.2340  143.9760 C   0  0  0  0  0  3  0  0  0  0  0  0
  184.1460  179.0420  142.3390 C   0  0  0  0  0  2  0  0  0  0  0  0
  185.8510  177.6770  146.2470 C   0  0  0  0  0  2  0  0  0  0  0  0
  186.1040  179.2090  140.9710 O   0  0  0  0  0  0  0  0  0  0  0  0
  185.6010  179.1370  145.8950 C   0  0  0  0  0  2  0  0  0  0  0  0
  184.8070  178.6810  141.0110 C   0  0  0  0  0  2  0  0  0  0  0  0
  185.1070  178.8760  143.4860 C   0  0  0  0  0  0  0  0  0  0  0  0
  184.6910  179.2200  144.7090 C   0  0  0  0  0  3  0  0  0  0  0  0
  191.4110  178.2420  143.2530 N   0  0  0  0  0  0  0  0  0  0  0  0
  191.6300  177.2900  142.1820 C   0  0  0  0  0  2  0  0  0  0  0  0
  191.8510  177.6050  144.4810 C   0  0  0  0  0  1  0  0  0  0  0  0
  189.9670  178.4090  143.3540 C   0  0  0  0  0  2  0  0  0  0  0  0
  189.3060  177.6870  142.2630 N   0  0  0  0  0  0  0  0  0  0  0  0
  190.3660  177.2640  141.3700 C   0  0  0  0  0  2  0  0  0  0  0  0
  188.8650  178.7280  139.7390 S   0  0  0  0  0  0  0  0  0  0  0  0
  187.6660  177.5100  139.0790 C   0  0  0  0  0  2  0  0  0  0  0  0
  186.3690  178.7840  137.6960 O   0  0  0  0  0  1  0  0  0  0  0  0
  187.2800  177.7820  137.6930 N   0  0  0  0  0  0  0  0  0  0  0  0
  188.4410  178.2440  136.9400 C   0  0  0  0  0  2  0  0  0  0  0  0
  188.7660  177.2830  135.8440 C   0  0  0  0  0  0  0  0  0  0  0  0
  189.3060  177.6810  134.8240 O   0  0  0  0  0  0  0  0  0  0  0  0
  188.4930  175.8180  136.0340 C   0  0  0  0  0  2  0  0  0  0  0  0
  189.7270  175.0030  136.4330 C   0  0  2  0  0  3  0  0  0  0  0  0
  189.4170  173.5190  136.5450 C   0  0  0  0  0  1  0  0  0  0  0  0
  190.3650  175.5250  137.7110 C   0  0  2  0  0  3  0  0  0  0  0  0
  191.7820  175.8630  137.4650 C   0  0  0  0  0  2  0  0  0  0  0  0
  191.4080  174.6620  138.0940 O   0  0  0  0  0  0  0  0  0  0  0  0
  1 19  1  6  0  0  0
  1 17  1  0  0  0  0
  2  1  1  1  0  0  0
  2  3  1  0  0  0  0
  3 11  1  0  0  0  0
  3  5  1  1  0  0  0
  4  7  1  0  0  0  0
  5  4  2  0  0  0  0
  6 11  1  0  0  0  0
  8 10  1  0  0  0  0
  8  2  1  0  0  0  0
  9  7  1  0  0  0  0
 10  6  1  0  0  0  0
 11 12  2  0  0  0  0
 12  9  1  0  0  0  0
 13 16  1  0  0  0  0
 13 15  1  0  0  0  0
 14 13  1  0  0  0  0
 17 16  1  0  0  0  0
 18 14  1  0  0  0  0
 18 17  1  0  0  0  0
 20 19  1  0  0  0  0
 22 21  1  0  0  0  0
 22 20  1  0  0  0  0
 23 22  1  0  0  0  0
 24 26  1  0  0  0  0
 24 23  1  0  0  0  0
 25 24  2  0  0  0  0
 26 27  1  0  0  0  0
 27 28  1  1  0  0  0
 29 27  1  6  0  0  0
 29 31  1  0  0  0  0
 30 29  1  0  0  0  0
 30 31  1  0  0  0  0
M  END
>  <MODEL>
9

>  <REMARK>
 VINA RESULT:      -6.3      2.694      6.142
  Name = 
  10 active torsions:
  status: ('A' for Active; 'I' for Inactive)
    1  A    between atoms: C_1  and  C_6
    2  A    between atoms: C_3  and  C_19
    3  A    between atoms: C_3  and  C_23
    4  A    between atoms: C_4  and  C_12
    5  A    between atoms: C_6  and  C_19
    6  A    between atoms: N_9  and  C_15
    7  A    between atoms: N_9  and  C_23
    8  A    between atoms: C_12  and  S_20
    9  A    between atoms: C_12  and  N_27
   10  A    between atoms: C_15  and  S_20
                            x       y       z     vdW  Elec       q    Type
                         _______ _______ _______ _____ _____    ______ ____

>  <TORSDO>
F 10

$$$$
