=
 OpenBabel10272413293D

 32 36  0  0  1  0  0  0  0  0999 V2000
  187.5120  177.4510  136.3980 C   0  0  1  0  0  3  0  0  0  0  0  0
  189.0600  178.0600  141.2680 C   0  0  0  0  0  0  0  0  0  0  0  0
  184.9990  178.2420  143.9340 C   0  0  0  0  0  3  0  0  0  0  0  0
  185.7770  178.3070  145.0920 C   0  0  0  0  0  3  0  0  0  0  0  0
  188.9860  177.9320  138.8460 C   0  0  0  0  0  0  0  0  0  0  0  0
  186.9190  178.0000  140.1220 C   0  0  0  0  0  3  0  0  0  0  0  0
  186.7440  177.9200  137.6370 C   0  0  0  0  0  2  0  0  0  0  0  0
  185.6120  178.1610  142.6830 C   0  0  0  0  0  3  0  0  0  0  0  0
  187.6480  178.0670  141.3200 C   0  0  0  0  0  0  0  0  0  0  0  0
  187.0140  178.1450  142.5730 C   0  0  0  0  0  0  0  0  0  0  0  0
  189.2040  178.1960  143.6400 C   0  0  0  0  0  0  0  0  0  0  0  0
  188.8830  178.1230  136.3350 C   0  0  0  0  0  2  0  0  0  0  0  0
  187.5750  177.9170  138.8900 C   0  0  0  0  0  0  0  0  0  0  0  0
  189.7360  177.7720  137.5560 C   0  0  0  0  0  2  0  0  0  0  0  0
  187.1690  178.2920  145.0000 C   0  0  0  0  0  3  0  0  0  0  0  0
  187.8010  178.2120  143.7480 C   0  0  0  0  0  0  0  0  0  0  0  0
  189.7150  177.9870  140.0370 C   0  0  0  0  0  3  0  0  0  0  0  0
  189.7850  178.1250  142.4130 N   0  0  0  0  0  0  0  0  0  0  0  0
  186.5930  175.1770  136.6460 C   0  0  0  0  0  3  0  0  0  0  0  0
  187.6320  175.9560  136.3500 C   0  0  0  0  0  3  0  0  0  0  0  0
  186.7200  173.6910  136.6010 C   0  0  0  0  0  3  0  0  0  0  0  0
  188.1230  173.3140  136.5850 N   0  0  0  0  0  1  0  0  0  0  0  0
  186.0820  173.1170  137.7720 N   0  0  0  0  0  1  0  0  0  0  0  0
  190.0870  178.3010  144.8450 C   0  0  0  0  0  2  0  0  0  0  0  0
  190.3190  177.0290  147.0000 C   0  0  1  0  0  3  0  0  0  0  0  0
  191.6540  176.3870  145.0900 C   0  0  1  0  0  3  0  0  0  0  0  0
  192.1150  175.5550  146.2650 C   0  0  0  0  0  2  0  0  0  0  0  0
  191.4780  176.1750  147.4950 C   0  0  0  0  0  2  0  0  0  0  0  0
  191.5370  175.5840  143.9560 O   0  0  0  0  0  1  0  0  0  0  0  0
  190.3000  176.9340  145.4810 C   0  0  2  0  0  3  0  0  0  0  0  0
  188.9890  176.6070  147.6240 C   0  0  0  0  0  2  0  0  0  0  0  0
  188.3380  177.7220  148.4310 C   0  0  0  0  0  1  0  0  0  0  0  0
  1 20  1  1  0  0  0
  1  7  1  0  0  0  0
  2  9  1  0  0  0  0
  2 18  1  0  0  0  0
  3  4  1  0  0  0  0
  5 13  2  0  0  0  0
  5 17  1  0  0  0  0
  6  9  2  0  0  0  0
  7 13  1  0  0  0  0
  8  3  2  0  0  0  0
  9 10  1  0  0  0  0
 10  8  1  0  0  0  0
 10 16  2  0  0  0  0
 11 16  1  0  0  0  0
 11 24  1  0  0  0  0
 12  1  1  0  0  0  0
 12 14  1  0  0  0  0
 13  6  1  0  0  0  0
 14  5  1  0  0  0  0
 15  4  2  0  0  0  0
 16 15  1  0  0  0  0
 17  2  2  0  0  0  0
 18 11  2  0  0  0  0
 20 19  2  0  0  0  0
 21 19  1  0  0  0  0
 21 23  1  0  0  0  0
 22 21  1  0  0  0  0
 25 28  1  0  0  0  0
 25 31  1  1  0  0  0
 26 29  1  6  0  0  0
 26 30  1  0  0  0  0
 26 27  1  0  0  0  0
 27 28  1  0  0  0  0
 30 24  1  6  0  0  0
 30 25  1  0  0  0  0
 31 32  1  0  0  0  0
M  END
>  <MODEL>
1

>  <REMARK>
 VINA RESULT:      -9.2      0.000      0.000
  Name = 
  5 active torsions:
  status: ('A' for Active; 'I' for Inactive)
    1  A    between atoms: C_1  and  C_10
    2  A    between atoms: C_2  and  C_24
    3  A    between atoms: C_6  and  C_7
    4  A    between atoms: C_16  and  C_27
    5  A    between atoms: C_27  and  C_32
                            x       y       z     vdW  Elec       q    Type
                         _______ _______ _______ _____ _____    ______ ____

>  <TORSDO>
F 5

$$$$
=
 OpenBabel10272413293D

 32 36  0  0  1  0  0  0  0  0999 V2000
  188.3030  178.0950  137.1230 C   0  0  1  0  0  3  0  0  0  0  0  0
  187.7920  177.4890  142.2070 C   0  0  0  0  0  0  0  0  0  0  0  0
  183.4500  179.3620  143.3340 C   0  0  0  0  0  3  0  0  0  0  0  0
  183.6300  178.9530  144.6570 C   0  0  0  0  0  3  0  0  0  0  0  0
  188.6840  177.6120  139.9550 C   0  0  0  0  0  0  0  0  0  0  0  0
  186.4980  178.5500  140.4470 C   0  0  0  0  0  3  0  0  0  0  0  0
  187.3520  178.7690  138.1170 C   0  0  0  0  0  2  0  0  0  0  0  0
  184.4350  179.1030  142.3800 C   0  0  0  0  0  3  0  0  0  0  0  0
  186.6230  178.1630  141.7910 C   0  0  0  0  0  0  0  0  0  0  0  0
  185.6170  178.4300  142.7390 C   0  0  0  0  0  0  0  0  0  0  0  0
  186.9820  177.3430  144.4400 C   0  0  0  0  0  0  0  0  0  0  0  0
  189.7180  178.0350  137.6960 C   0  0  0  0  0  2  0  0  0  0  0  0
  187.5090  178.2680  139.5250 C   0  0  0  0  0  0  0  0  0  0  0  0
  189.7650  177.2220  138.9900 C   0  0  0  0  0  2  0  0  0  0  0  0
  184.7970  178.2850  145.0290 C   0  0  0  0  0  3  0  0  0  0  0  0
  185.7990  178.0170  144.0810 C   0  0  0  0  0  0  0  0  0  0  0  0
  188.8070  177.2150  141.2890 C   0  0  0  0  0  3  0  0  0  0  0  0
  187.9350  177.1060  143.5010 N   0  0  0  0  0  0  0  0  0  0  0  0
  186.5250  176.4170  136.8070 C   0  0  0  0  0  3  0  0  0  0  0  0
  187.8160  176.7330  136.7230 C   0  0  0  0  0  3  0  0  0  0  0  0
  186.0470  175.0590  136.4130 C   0  0  0  0  0  3  0  0  0  0  0  0
  186.9020  174.0430  137.0030 N   0  0  0  0  0  1  0  0  0  0  0  0
  184.6860  174.8730  136.8790 N   0  0  0  0  0  1  0  0  0  0  0  0
  187.2440  176.9150  145.8510 C   0  0  0  0  0  2  0  0  0  0  0  0
  189.6640  177.1620  146.4850 C   0  0  1  0  0  3  0  0  0  0  0  0
  187.9540  178.0180  147.9630 C   0  0  1  0  0  3  0  0  0  0  0  0
  189.2810  178.1700  148.6700 C   0  0  0  0  0  2  0  0  0  0  0  0
  190.2840  177.3700  147.8600 C   0  0  0  0  0  2  0  0  0  0  0  0
  187.1950  179.1770  148.1210 O   0  0  0  0  0  1  0  0  0  0  0  0
  188.2880  177.8130  146.5030 C   0  0  2  0  0  3  0  0  0  0  0  0
  190.5510  177.7110  145.3680 C   0  0  0  0  0  2  0  0  0  0  0  0
  191.5090  176.6680  144.8100 C   0  0  0  0  0  1  0  0  0  0  0  0
  1 20  1  1  0  0  0
  1 12  1  0  0  0  0
  1  7  1  0  0  0  0
  2 18  1  0  0  0  0
  3  4  1  0  0  0  0
  4 15  2  0  0  0  0
  5 17  1  0  0  0  0
  6  9  2  0  0  0  0
  7 13  1  0  0  0  0
  8 10  1  0  0  0  0
  8  3  2  0  0  0  0
  9  2  1  0  0  0  0
  9 10  1  0  0  0  0
 10 16  2  0  0  0  0
 11 24  1  0  0  0  0
 12 14  1  0  0  0  0
 13  5  2  0  0  0  0
 13  6  1  0  0  0  0
 14  5  1  0  0  0  0
 16 11  1  0  0  0  0
 16 15  1  0  0  0  0
 17  2  2  0  0  0  0
 18 11  2  0  0  0  0
 20 19  2  0  0  0  0
 21 19  1  0  0  0  0
 21 23  1  0  0  0  0
 21 22  1  0  0  0  0
 25 31  1  6  0  0  0
 25 30  1  0  0  0  0
 25 28  1  0  0  0  0
 26 29  1  6  0  0  0
 26 27  1  0  0  0  0
 28 27  1  0  0  0  0
 30 24  1  1  0  0  0
 30 26  1  0  0  0  0
 32 31  1  0  0  0  0
M  END
>  <MODEL>
2

>  <REMARK>
 VINA RESULT:      -8.6      1.732      2.583
  Name = 
  5 active torsions:
  status: ('A' for Active; 'I' for Inactive)
    1  A    between atoms: C_1  and  C_10
    2  A    between atoms: C_2  and  C_24
    3  A    between atoms: C_6  and  C_7
    4  A    between atoms: C_16  and  C_27
    5  A    between atoms: C_27  and  C_32
                            x       y       z     vdW  Elec       q    Type
                         _______ _______ _______ _____ _____    ______ ____

>  <TORSDO>
F 5

$$$$
=
 OpenBabel10272413293D

 32 36  0  0  1  0  0  0  0  0999 V2000
  182.0590  178.2130  139.2690 C   0  0  1  0  0  3  0  0  0  0  0  0
  186.3500  178.3950  142.1030 C   0  0  0  0  0  0  0  0  0  0  0  0
  184.8810  178.3320  146.7360 C   0  0  0  0  0  3  0  0  0  0  0  0
  186.2160  178.2970  147.1460 C   0  0  0  0  0  3  0  0  0  0  0  0
  184.7660  178.4810  140.2680 C   0  0  0  0  0  0  0  0  0  0  0  0
  183.9660  178.4310  142.5610 C   0  0  0  0  0  3  0  0  0  0  0  0
  182.2650  178.5690  140.7450 C   0  0  0  0  0  2  0  0  0  0  0  0
  184.5670  178.3630  145.3770 C   0  0  0  0  0  3  0  0  0  0  0  0
  185.2870  178.3940  143.0330 C   0  0  0  0  0  0  0  0  0  0  0  0
  185.5860  178.3600  144.4070 C   0  0  0  0  0  0  0  0  0  0  0  0
  187.9590  178.3220  143.8550 C   0  0  0  0  0  0  0  0  0  0  0  0
  183.1200  178.8910  138.4040 C   0  0  0  0  0  2  0  0  0  0  0  0
  183.6970  178.4590  141.1900 C   0  0  0  0  0  0  0  0  0  0  0  0
  184.5290  178.4370  138.7860 C   0  0  0  0  0  2  0  0  0  0  0  0
  187.2380  178.2940  146.1970 C   0  0  0  0  0  3  0  0  0  0  0  0
  186.9380  178.3250  144.8250 C   0  0  0  0  0  0  0  0  0  0  0  0
  186.0830  178.4330  140.7330 C   0  0  0  0  0  3  0  0  0  0  0  0
  187.6370  178.3610  142.5350 N   0  0  0  0  0  0  0  0  0  0  0  0
  181.2090  176.1760  138.1700 C   0  0  0  0  0  3  0  0  0  0  0  0
  182.0420  176.7290  139.0520 C   0  0  0  0  0  3  0  0  0  0  0  0
  181.1930  174.6990  137.9620 C   0  0  0  0  0  3  0  0  0  0  0  0
  180.0620  174.1130  138.6620 N   0  0  0  0  0  1  0  0  0  0  0  0
  181.0810  174.4140  136.5440 N   0  0  0  0  0  1  0  0  0  0  0  0
  189.4070  178.3230  144.2380 C   0  0  0  0  0  2  0  0  0  0  0  0
  190.7560  176.9460  145.8510 C   0  0  1  0  0  3  0  0  0  0  0  0
  190.7250  176.3450  143.5110 C   0  0  1  0  0  3  0  0  0  0  0  0
  191.7270  175.4440  144.1960 C   0  0  0  0  0  2  0  0  0  0  0  0
  191.9400  176.0290  145.5800 C   0  0  0  0  0  2  0  0  0  0  0  0
  189.9380  175.6000  142.6340 O   0  0  0  0  0  1  0  0  0  0  0  0
  189.8680  176.9210  144.6150 C   0  0  2  0  0  3  0  0  0  0  0  0
  189.9980  176.5440  147.1170 C   0  0  0  0  0  2  0  0  0  0  0  0
  189.8730  177.6850  148.1160 C   0  0  0  0  0  1  0  0  0  0  0  0
  1 20  1  1  0  0  0
  1  7  1  0  0  0  0
  2 18  2  0  0  0  0
  2  9  1  0  0  0  0
  3  4  1  0  0  0  0
  5 17  2  0  0  0  0
  5 13  1  0  0  0  0
  6  9  1  0  0  0  0
  7 13  1  0  0  0  0
  8  3  2  0  0  0  0
  9 10  2  0  0  0  0
 10 16  1  0  0  0  0
 10  8  1  0  0  0  0
 11 24  1  0  0  0  0
 11 16  2  0  0  0  0
 12 14  1  0  0  0  0
 12  1  1  0  0  0  0
 13  6  2  0  0  0  0
 14  5  1  0  0  0  0
 15  4  2  0  0  0  0
 16 15  1  0  0  0  0
 17  2  1  0  0  0  0
 18 11  1  0  0  0  0
 19 20  2  0  0  0  0
 21 19  1  0  0  0  0
 21 22  1  0  0  0  0
 23 21  1  0  0  0  0
 25 31  1  1  0  0  0
 26 29  1  6  0  0  0
 26 27  1  0  0  0  0
 26 30  1  0  0  0  0
 27 28  1  0  0  0  0
 28 25  1  0  0  0  0
 30 24  1  6  0  0  0
 30 25  1  0  0  0  0
 31 32  1  0  0  0  0
M  END
>  <MODEL>
3

>  <REMARK>
 VINA RESULT:      -8.5      2.997      3.889
  Name = 
  5 active torsions:
  status: ('A' for Active; 'I' for Inactive)
    1  A    between atoms: C_1  and  C_10
    2  A    between atoms: C_2  and  C_24
    3  A    between atoms: C_6  and  C_7
    4  A    between atoms: C_16  and  C_27
    5  A    between atoms: C_27  and  C_32
                            x       y       z     vdW  Elec       q    Type
                         _______ _______ _______ _____ _____    ______ ____

>  <TORSDO>
F 5

$$$$
=
 OpenBabel10272413293D

 32 36  0  0  1  0  0  0  0  0999 V2000
  189.2470  177.5330  137.0260 C   0  0  1  0  0  3  0  0  0  0  0  0
  188.2590  177.2440  142.0680 C   0  0  0  0  0  0  0  0  0  0  0  0
  184.0230  179.5380  142.7200 C   0  0  0  0  0  3  0  0  0  0  0  0
  184.0550  179.1860  144.0710 C   0  0  0  0  0  3  0  0  0  0  0  0
  189.3450  177.1710  139.9000 C   0  0  0  0  0  0  0  0  0  0  0  0
  187.2170  178.3170  140.1540 C   0  0  0  0  0  3  0  0  0  0  0  0
  188.2800  178.3380  137.9010 C   0  0  0  0  0  2  0  0  0  0  0  0
  185.0580  179.1450  141.8700 C   0  0  0  0  0  3  0  0  0  0  0  0
  187.1940  177.9930  141.5200 C   0  0  0  0  0  0  0  0  0  0  0  0
  186.1400  178.3940  142.3620 C   0  0  0  0  0  0  0  0  0  0  0  0
  187.2550  177.2870  144.2250 C   0  0  0  0  0  0  0  0  0  0  0  0
  190.5980  177.3840  137.7230 C   0  0  0  0  0  2  0  0  0  0  0  0
  188.2730  177.9010  139.3390 C   0  0  0  0  0  0  0  0  0  0  0  0
  190.4640  176.6400  139.0530 C   0  0  0  0  0  2  0  0  0  0  0  0
  185.1220  178.4410  144.5750 C   0  0  0  0  0  3  0  0  0  0  0  0
  186.1710  178.0390  143.7320 C   0  0  0  0  0  0  0  0  0  0  0  0
  189.3190  176.8370  141.2560 C   0  0  0  0  0  3  0  0  0  0  0  0
  188.2590  176.9200  143.3860 N   0  0  0  0  0  0  0  0  0  0  0  0
  189.4460  175.2520  136.1130 C   0  0  0  0  0  3  0  0  0  0  0  0
  188.6760  176.1990  136.6470 C   0  0  0  0  0  3  0  0  0  0  0  0
  188.8710  173.9280  135.7340 C   0  0  0  0  0  3  0  0  0  0  0  0
  189.8930  173.1050  135.1100 N   0  0  0  0  0  1  0  0  0  0  0  0
  188.3760  173.2600  136.9230 N   0  0  0  0  0  1  0  0  0  0  0  0
  187.3590  176.9140  145.6720 C   0  0  0  0  0  2  0  0  0  0  0  0
  189.7430  177.1230  146.4390 C   0  0  1  0  0  3  0  0  0  0  0  0
  187.9660  177.9960  147.8250 C   0  0  1  0  0  3  0  0  0  0  0  0
  189.2550  178.1270  148.6050 C   0  0  0  0  0  2  0  0  0  0  0  0
  190.2890  177.3160  147.8470 C   0  0  0  0  0  2  0  0  0  0  0  0
  187.2160  179.1650  147.9480 O   0  0  0  0  0  1  0  0  0  0  0  0
  188.3770  177.7930  146.3850 C   0  0  2  0  0  3  0  0  0  0  0  0
  190.6980  177.6650  145.3760 C   0  0  0  0  0  2  0  0  0  0  0  0
  191.5250  176.5710  144.7150 C   0  0  0  0  0  1  0  0  0  0  0  0
  1 20  1  1  0  0  0
  1 12  1  0  0  0  0
  1  7  1  0  0  0  0
  2 18  1  0  0  0  0
  3  4  1  0  0  0  0
  4 15  2  0  0  0  0
  5 17  1  0  0  0  0
  6  9  2  0  0  0  0
  7 13  1  0  0  0  0
  8 10  1  0  0  0  0
  8  3  2  0  0  0  0
  9  2  1  0  0  0  0
  9 10  1  0  0  0  0
 10 16  2  0  0  0  0
 11 24  1  0  0  0  0
 12 14  1  0  0  0  0
 13  5  2  0  0  0  0
 13  6  1  0  0  0  0
 14  5  1  0  0  0  0
 16 11  1  0  0  0  0
 16 15  1  0  0  0  0
 17  2  2  0  0  0  0
 18 11  2  0  0  0  0
 19 20  2  0  0  0  0
 21 19  1  0  0  0  0
 21 23  1  0  0  0  0
 22 21  1  0  0  0  0
 25 31  1  6  0  0  0
 25 28  1  0  0  0  0
 26 29  1  6  0  0  0
 26 27  1  0  0  0  0
 28 27  1  0  0  0  0
 30 24  1  1  0  0  0
 30 25  1  0  0  0  0
 30 26  1  0  0  0  0
 32 31  1  0  0  0  0
M  END
>  <MODEL>
4

>  <REMARK>
 VINA RESULT:      -8.3      1.799      2.639
  Name = 
  5 active torsions:
  status: ('A' for Active; 'I' for Inactive)
    1  A    between atoms: C_1  and  C_10
    2  A    between atoms: C_2  and  C_24
    3  A    between atoms: C_6  and  C_7
    4  A    between atoms: C_16  and  C_27
    5  A    between atoms: C_27  and  C_32
                            x       y       z     vdW  Elec       q    Type
                         _______ _______ _______ _____ _____    ______ ____

>  <TORSDO>
F 5

$$$$
=
 OpenBabel10272413293D

 32 36  0  0  1  0  0  0  0  0999 V2000
  180.4820  178.7840  138.4160 C   0  0  1  0  0  3  0  0  0  0  0  0
  185.1930  178.6740  140.4850 C   0  0  0  0  0  0  0  0  0  0  0  0
  188.2460  177.9000  136.7830 C   0  0  0  0  0  3  0  0  0  0  0  0
  189.3240  178.0240  137.6620 C   0  0  0  0  0  3  0  0  0  0  0  0
  182.7870  178.6790  140.1690 C   0  0  0  0  0  0  0  0  0  0  0  0
  184.2600  178.3060  138.2730 C   0  0  0  0  0  3  0  0  0  0  0  0
  181.8030  178.2430  137.8600 C   0  0  0  0  0  2  0  0  0  0  0  0
  186.9400  178.0310  137.2550 C   0  0  0  0  0  3  0  0  0  0  0  0
  185.3820  178.4210  139.1080 C   0  0  0  0  0  0  0  0  0  0  0  0
  186.6930  178.2890  138.6150 C   0  0  0  0  0  0  0  0  0  0  0  0
  187.5420  178.6710  140.8670 C   0  0  0  0  0  0  0  0  0  0  0  0
  180.3050  178.3620  139.8740 C   0  0  0  0  0  2  0  0  0  0  0  0
  182.9680  178.4470  138.7880 C   0  0  0  0  0  0  0  0  0  0  0  0
  181.4260  178.9100  140.7570 C   0  0  0  0  0  2  0  0  0  0  0  0
  189.0970  178.2790  139.0150 C   0  0  0  0  0  3  0  0  0  0  0  0
  187.7870  178.4130  139.5050 C   0  0  0  0  0  0  0  0  0  0  0  0
  183.9020  178.8050  141.0020 C   0  0  0  0  0  3  0  0  0  0  0  0
  186.2630  178.7880  141.3120 N   0  0  0  0  0  0  0  0  0  0  0  0
  180.5760  180.8520  137.0770 C   0  0  0  0  0  3  0  0  0  0  0  0
  180.3820  180.2730  138.2610 C   0  0  0  0  0  3  0  0  0  0  0  0
  180.4790  182.3340  136.9310 C   0  0  0  0  0  3  0  0  0  0  0  0
  181.4720  182.9800  137.7720 N   0  0  0  0  0  1  0  0  0  0  0  0
  180.7140  182.6970  135.5450 N   0  0  0  0  0  1  0  0  0  0  0  0
  188.6570  178.7760  141.8610 C   0  0  0  0  0  2  0  0  0  0  0  0
  188.5160  177.6340  144.0960 C   0  0  1  0  0  3  0  0  0  0  0  0
  190.2800  177.0270  142.5580 C   0  0  1  0  0  3  0  0  0  0  0  0
  190.5390  176.2970  143.8560 C   0  0  0  0  0  2  0  0  0  0  0  0
  189.6030  176.9130  144.8800 C   0  0  0  0  0  2  0  0  0  0  0  0
  190.4740  176.1640  141.4810 O   0  0  0  0  0  1  0  0  0  0  0  0
  188.8340  177.4660  142.6160 C   0  0  2  0  0  3  0  0  0  0  0  0
  187.1200  177.1230  144.4500 C   0  0  0  0  0  2  0  0  0  0  0  0
  186.2450  178.1940  145.0850 C   0  0  0  0  0  1  0  0  0  0  0  0
  1 20  1  1  0  0  0
  1 12  1  0  0  0  0
  2 17  2  0  0  0  0
  2 18  1  0  0  0  0
  3  8  2  0  0  0  0
  3  4  1  0  0  0  0
  4 15  2  0  0  0  0
  5 14  1  0  0  0  0
  5 17  1  0  0  0  0
  6 13  1  0  0  0  0
  6  9  2  0  0  0  0
  7  1  1  0  0  0  0
  7 13  1  0  0  0  0
  8 10  1  0  0  0  0
  9  2  1  0  0  0  0
 10  9  1  0  0  0  0
 10 16  2  0  0  0  0
 11 18  2  0  0  0  0
 11 24  1  0  0  0  0
 12 14  1  0  0  0  0
 13  5  2  0  0  0  0
 15 16  1  0  0  0  0
 16 11  1  0  0  0  0
 19 20  2  0  0  0  0
 21 19  1  0  0  0  0
 21 22  1  0  0  0  0
 23 21  1  0  0  0  0
 25 31  1  6  0  0  0
 25 28  1  0  0  0  0
 26 29  1  6  0  0  0
 26 30  1  0  0  0  0
 26 27  1  0  0  0  0
 27 28  1  0  0  0  0
 30 24  1  6  0  0  0
 30 25  1  0  0  0  0
 31 32  1  0  0  0  0
M  END
>  <MODEL>
5

>  <REMARK>
 VINA RESULT:      -7.9      4.344      6.278
  Name = 
  5 active torsions:
  status: ('A' for Active; 'I' for Inactive)
    1  A    between atoms: C_1  and  C_10
    2  A    between atoms: C_2  and  C_24
    3  A    between atoms: C_6  and  C_7
    4  A    between atoms: C_16  and  C_27
    5  A    between atoms: C_27  and  C_32
                            x       y       z     vdW  Elec       q    Type
                         _______ _______ _______ _____ _____    ______ ____

>  <TORSDO>
F 5

$$$$
=
 OpenBabel10272413293D

 32 36  0  0  1  0  0  0  0  0999 V2000
  185.2750  176.8990  134.8090 C   0  0  1  0  0  3  0  0  0  0  0  0
  187.4710  178.0830  139.3100 C   0  0  0  0  0  0  0  0  0  0  0  0
  183.8060  178.7940  142.4240 C   0  0  0  0  0  3  0  0  0  0  0  0
  184.7330  178.9790  143.4530 C   0  0  0  0  0  3  0  0  0  0  0  0
  187.0730  177.6370  136.9590 C   0  0  0  0  0  0  0  0  0  0  0  0
  185.1960  177.9630  138.4670 C   0  0  0  0  0  3  0  0  0  0  0  0
  184.6900  177.5610  136.0610 C   0  0  0  0  0  2  0  0  0  0  0  0
  184.2450  178.5210  141.1280 C   0  0  0  0  0  3  0  0  0  0  0  0
  186.0790  178.1580  139.5410 C   0  0  0  0  0  0  0  0  0  0  0  0
  185.6190  178.4290  140.8430 C   0  0  0  0  0  0  0  0  0  0  0  0
  187.9330  178.5270  141.6020 C   0  0  0  0  0  0  0  0  0  0  0  0
  186.6420  177.4960  134.4800 C   0  0  0  0  0  2  0  0  0  0  0  0
  185.6800  177.6900  137.1850 C   0  0  0  0  0  0  0  0  0  0  0  0
  187.6400  177.2750  135.6170 C   0  0  0  0  0  2  0  0  0  0  0  0
  186.0990  178.8920  143.1860 C   0  0  0  0  0  3  0  0  0  0  0  0
  186.5570  178.6180  141.8870 C   0  0  0  0  0  0  0  0  0  0  0  0
  187.9550  177.8190  138.0280 C   0  0  0  0  0  3  0  0  0  0  0  0
  188.3440  178.2680  140.3330 N   0  0  0  0  0  0  0  0  0  0  0  0
  184.6820  174.7790  135.9190 C   0  0  0  0  0  3  0  0  0  0  0  0
  185.3500  175.4070  134.9520 C   0  0  0  0  0  3  0  0  0  0  0  0
  184.7630  173.2950  136.0590 C   0  0  0  0  0  3  0  0  0  0  0  0
  185.9660  172.8030  135.4090 N   0  0  0  0  0  1  0  0  0  0  0  0
  184.8000  172.9460  137.4670 N   0  0  0  0  0  1  0  0  0  0  0  0
  188.9700  178.7530  142.6580 C   0  0  0  0  0  2  0  0  0  0  0  0
  189.5150  177.6940  144.8720 C   0  0  1  0  0  3  0  0  0  0  0  0
  190.5990  176.8870  142.8680 C   0  0  1  0  0  3  0  0  0  0  0  0
  191.2300  176.1750  144.0420 C   0  0  0  0  0  2  0  0  0  0  0  0
  190.7470  176.9010  145.2830 C   0  0  0  0  0  2  0  0  0  0  0  0
  190.3500  175.9790  141.8390 O   0  0  0  0  0  1  0  0  0  0  0  0
  189.2960  177.4550  143.3840 C   0  0  2  0  0  3  0  0  0  0  0  0
  188.2890  177.3190  145.7050 C   0  0  0  0  0  2  0  0  0  0  0  0
  188.6290  177.0500  147.1640 C   0  0  0  0  0  1  0  0  0  0  0  0
  1 20  1  1  0  0  0
  1  7  1  0  0  0  0
  2  9  1  0  0  0  0
  2 18  1  0  0  0  0
  3  4  1  0  0  0  0
  5 13  2  0  0  0  0
  5 17  1  0  0  0  0
  6  9  2  0  0  0  0
  7 13  1  0  0  0  0
  8  3  2  0  0  0  0
  9 10  1  0  0  0  0
 10  8  1  0  0  0  0
 10 16  2  0  0  0  0
 11 16  1  0  0  0  0
 11 24  1  0  0  0  0
 12  1  1  0  0  0  0
 12 14  1  0  0  0  0
 13  6  1  0  0  0  0
 14  5  1  0  0  0  0
 15  4  2  0  0  0  0
 16 15  1  0  0  0  0
 17  2  2  0  0  0  0
 18 11  2  0  0  0  0
 19 21  1  0  0  0  0
 20 19  2  0  0  0  0
 21 23  1  0  0  0  0
 22 21  1  0  0  0  0
 25 28  1  0  0  0  0
 25 31  1  1  0  0  0
 26 29  1  6  0  0  0
 26 30  1  0  0  0  0
 26 27  1  0  0  0  0
 27 28  1  0  0  0  0
 30 24  1  6  0  0  0
 30 25  1  0  0  0  0
 31 32  1  0  0  0  0
M  END
>  <MODEL>
6

>  <REMARK>
 VINA RESULT:      -7.3      1.633      2.395
  Name = 
  5 active torsions:
  status: ('A' for Active; 'I' for Inactive)
    1  A    between atoms: C_1  and  C_10
    2  A    between atoms: C_2  and  C_24
    3  A    between atoms: C_6  and  C_7
    4  A    between atoms: C_16  and  C_27
    5  A    between atoms: C_27  and  C_32
                            x       y       z     vdW  Elec       q    Type
                         _______ _______ _______ _____ _____    ______ ____

>  <TORSDO>
F 5

$$$$
=
 OpenBabel10272413293D

 32 36  0  0  1  0  0  0  0  0999 V2000
  191.9830  177.7930  143.7180 C   0  0  1  0  0  3  0  0  0  0  0  0
  188.2960  178.0690  140.1390 C   0  0  0  0  0  0  0  0  0  0  0  0
  189.6160  174.9660  136.6370 C   0  0  0  0  0  3  0  0  0  0  0  0
  188.4220  175.2360  135.9650 C   0  0  0  0  0  3  0  0  0  0  0  0
  189.7200  178.5050  142.0540 C   0  0  0  0  0  0  0  0  0  0  0  0
  190.4300  176.9270  140.3480 C   0  0  0  0  0  3  0  0  0  0  0  0
  191.9810  177.3480  142.2520 C   0  0  0  0  0  2  0  0  0  0  0  0
  189.8940  175.5980  137.8500 C   0  0  0  0  0  3  0  0  0  0  0  0
  189.2470  177.1580  139.6270 C   0  0  0  0  0  0  0  0  0  0  0  0
  188.9810  176.5100  138.4070 C   0  0  0  0  0  0  0  0  0  0  0  0
  186.8560  177.6960  138.2810 C   0  0  0  0  0  0  0  0  0  0  0  0
  191.3490  179.1760  143.8560 C   0  0  0  0  0  2  0  0  0  0  0  0
  190.6660  177.5800  141.5610 C   0  0  0  0  0  0  0  0  0  0  0  0
  189.8940  179.1760  143.3850 C   0  0  0  0  0  2  0  0  0  0  0  0
  187.5050  176.1390  136.5040 C   0  0  0  0  0  3  0  0  0  0  0  0
  187.7710  176.7830  137.7240 C   0  0  0  0  0  0  0  0  0  0  0  0
  188.5370  178.7290  141.3450 C   0  0  0  0  0  3  0  0  0  0  0  0
  187.1460  178.3090  139.4590 N   0  0  0  0  0  0  0  0  0  0  0  0
  191.3410  176.9160  145.9310 C   0  0  0  0  0  3  0  0  0  0  0  0
  191.3070  176.7900  144.6050 C   0  0  0  0  0  3  0  0  0  0  0  0
  190.6710  175.9130  146.8080 C   0  0  0  0  0  3  0  0  0  0  0  0
  191.6070  175.4250  147.8070 N   0  0  0  0  0  1  0  0  0  0  0  0
  189.5400  176.5330  147.4730 N   0  0  0  0  0  1  0  0  0  0  0  0
  185.5780  178.0520  137.5850 C   0  0  0  0  0  2  0  0  0  0  0  0
  183.2340  177.2200  137.9480 C   0  0  1  0  0  3  0  0  0  0  0  0
  183.8760  179.3830  138.8150 C   0  0  1  0  0  3  0  0  0  0  0  0
  182.3910  179.2240  139.0490 C   0  0  0  0  0  2  0  0  0  0  0  0
  181.9670  178.0090  138.2450 C   0  0  0  0  0  2  0  0  0  0  0  0
  184.4830  179.9140  139.9530 O   0  0  0  0  0  1  0  0  0  0  0  0
  184.4020  177.9900  138.5500 C   0  0  2  0  0  3  0  0  0  0  0  0
  183.1530  175.7860  138.4730 C   0  0  0  0  0  2  0  0  0  0  0  0
  183.9460  174.8030  137.6240 C   0  0  0  0  0  1  0  0  0  0  0  0
  1 12  1  0  0  0  0
  1 20  1  1  0  0  0
  2 17  1  0  0  0  0
  3  8  1  0  0  0  0
  4 15  1  0  0  0  0
  4  3  2  0  0  0  0
  5 14  1  0  0  0  0
  6 13  2  0  0  0  0
  7  1  1  0  0  0  0
  8 10  2  0  0  0  0
  9  2  2  0  0  0  0
  9  6  1  0  0  0  0
 10  9  1  0  0  0  0
 11 18  2  0  0  0  0
 13  5  1  0  0  0  0
 13  7  1  0  0  0  0
 14 12  1  0  0  0  0
 15 16  2  0  0  0  0
 16 11  1  0  0  0  0
 16 10  1  0  0  0  0
 17  5  2  0  0  0  0
 18  2  1  0  0  0  0
 19 21  1  0  0  0  0
 20 19  2  0  0  0  0
 21 23  1  0  0  0  0
 21 22  1  0  0  0  0
 24 11  1  0  0  0  0
 25 28  1  0  0  0  0
 25 31  1  1  0  0  0
 25 30  1  0  0  0  0
 26 27  1  0  0  0  0
 26 29  1  1  0  0  0
 28 27  1  0  0  0  0
 30 24  1  6  0  0  0
 30 26  1  0  0  0  0
 32 31  1  0  0  0  0
M  END
>  <MODEL>
7

>  <REMARK>
 VINA RESULT:      -6.9      3.144      8.593
  Name = 
  5 active torsions:
  status: ('A' for Active; 'I' for Inactive)
    1  A    between atoms: C_1  and  C_10
    2  A    between atoms: C_2  and  C_24
    3  A    between atoms: C_6  and  C_7
    4  A    between atoms: C_16  and  C_27
    5  A    between atoms: C_27  and  C_32
                            x       y       z     vdW  Elec       q    Type
                         _______ _______ _______ _____ _____    ______ ____

>  <TORSDO>
F 5

$$$$
=
 OpenBabel10272413293D

 32 36  0  0  1  0  0  0  0  0999 V2000
  188.6080  175.9610  134.4470 C   0  0  1  0  0  3  0  0  0  0  0  0
  189.1490  177.7360  139.2470 C   0  0  0  0  0  0  0  0  0  0  0  0
  184.6840  178.9830  140.7080 C   0  0  0  0  0  3  0  0  0  0  0  0
  185.1970  179.2930  141.9700 C   0  0  0  0  0  3  0  0  0  0  0  0
  189.5780  176.9620  136.9880 C   0  0  0  0  0  0  0  0  0  0  0  0
  187.3190  177.5500  137.6610 C   0  0  0  0  0  3  0  0  0  0  0  0
  187.6690  176.8130  135.3070 C   0  0  0  0  0  2  0  0  0  0  0  0
  185.5310  178.5130  139.7050 C   0  0  0  0  0  3  0  0  0  0  0  0
  187.7760  177.8780  138.9480 C   0  0  0  0  0  0  0  0  0  0  0  0
  186.9060  178.3470  139.9490 C   0  0  0  0  0  0  0  0  0  0  0  0
  188.8010  178.4980  141.4740 C   0  0  0  0  0  0  0  0  0  0  0  0
  190.0440  176.4710  134.5600 C   0  0  0  0  0  2  0  0  0  0  0  0
  188.2030  177.0800  136.6870 C   0  0  0  0  0  0  0  0  0  0  0  0
  190.5540  176.3940  136.0000 C   0  0  0  0  0  2  0  0  0  0  0  0
  186.5590  179.1350  142.2290 C   0  0  0  0  0  3  0  0  0  0  0  0
  187.4250  178.6640  141.2280 C   0  0  0  0  0  0  0  0  0  0  0  0
  190.0350  177.2760  138.2710 C   0  0  0  0  0  3  0  0  0  0  0  0
  189.6150  178.0470  140.4830 N   0  0  0  0  0  0  0  0  0  0  0  0
  187.5030  173.7590  134.3540 C   0  0  0  0  0  3  0  0  0  0  0  0
  188.5150  174.5050  134.7960 C   0  0  0  0  0  3  0  0  0  0  0  0
  187.4130  172.3130  134.7090 C   0  0  0  0  0  3  0  0  0  0  0  0
  188.5430  171.9360  135.5390 N   0  0  0  0  0  1  0  0  0  0  0  0
  186.1800  172.0710  135.4360 N   0  0  0  0  0  1  0  0  0  0  0  0
  189.4110  178.8510  142.7960 C   0  0  0  0  0  2  0  0  0  0  0  0
  189.2130  178.1160  145.1910 C   0  0  1  0  0  3  0  0  0  0  0  0
  190.6800  176.9130  143.6950 C   0  0  1  0  0  3  0  0  0  0  0  0
  190.8840  176.3460  145.0820 C   0  0  0  0  0  2  0  0  0  0  0  0
  190.1830  177.2990  146.0320 C   0  0  0  0  0  2  0  0  0  0  0  0
  190.6020  175.8760  142.7650 O   0  0  0  0  0  1  0  0  0  0  0  0
  189.3690  177.6620  143.7460 C   0  0  2  0  0  3  0  0  0  0  0  0
  187.7730  177.9840  145.6880 C   0  0  0  0  0  2  0  0  0  0  0  0
  186.9750  176.9470  144.9120 C   0  0  0  0  0  1  0  0  0  0  0  0
  1 12  1  0  0  0  0
  1 20  1  1  0  0  0
  1  7  1  0  0  0  0
  2 18  1  0  0  0  0
  3  4  1  0  0  0  0
  4 15  2  0  0  0  0
  5 17  1  0  0  0  0
  6  9  2  0  0  0  0
  7 13  1  0  0  0  0
  8 10  1  0  0  0  0
  8  3  2  0  0  0  0
  9  2  1  0  0  0  0
  9 10  1  0  0  0  0
 10 16  2  0  0  0  0
 11 24  1  0  0  0  0
 12 14  1  0  0  0  0
 13  5  2  0  0  0  0
 13  6  1  0  0  0  0
 14  5  1  0  0  0  0
 16 11  1  0  0  0  0
 16 15  1  0  0  0  0
 17  2  2  0  0  0  0
 18 11  2  0  0  0  0
 19 21  1  0  0  0  0
 19 20  2  0  0  0  0
 21 23  1  0  0  0  0
 21 22  1  0  0  0  0
 25 31  1  1  0  0  0
 25 28  1  0  0  0  0
 26 29  1  6  0  0  0
 26 30  1  0  0  0  0
 26 27  1  0  0  0  0
 27 28  1  0  0  0  0
 30 24  1  6  0  0  0
 30 25  1  0  0  0  0
 32 31  1  0  0  0  0
M  END
>  <MODEL>
8

>  <REMARK>
 VINA RESULT:      -6.8      1.540      2.501
  Name = 
  5 active torsions:
  status: ('A' for Active; 'I' for Inactive)
    1  A    between atoms: C_1  and  C_10
    2  A    between atoms: C_2  and  C_24
    3  A    between atoms: C_6  and  C_7
    4  A    between atoms: C_16  and  C_27
    5  A    between atoms: C_27  and  C_32
                            x       y       z     vdW  Elec       q    Type
                         _______ _______ _______ _____ _____    ______ ____

>  <TORSDO>
F 5

$$$$
=
 OpenBabel10272413293D

 32 36  0  0  1  0  0  0  0  0999 V2000
  191.4310  178.2990  144.2340 C   0  0  1  0  0  3  0  0  0  0  0  0
  189.7190  176.7430  139.6380 C   0  0  0  0  0  0  0  0  0  0  0  0
  193.6640  176.3210  136.8290 C   0  0  0  0  0  3  0  0  0  0  0  0
  192.8620  175.8310  135.7970 C   0  0  0  0  0  3  0  0  0  0  0  0
  189.8570  177.5950  141.9040 C   0  0  0  0  0  0  0  0  0  0  0  0
  191.8710  177.3910  140.5600 C   0  0  0  0  0  3  0  0  0  0  0  0
  192.1040  178.3230  142.8590 C   0  0  0  0  0  2  0  0  0  0  0  0
  193.0930  176.6730  138.0530 C   0  0  0  0  0  3  0  0  0  0  0  0
  191.1150  176.8920  139.4860 C   0  0  0  0  0  0  0  0  0  0  0  0
  191.7090  176.5390  138.2600 C   0  0  0  0  0  0  0  0  0  0  0  0
  189.5100  175.9090  137.4180 C   0  0  0  0  0  0  0  0  0  0  0  0
  189.9830  178.7770  144.1270 C   0  0  0  0  0  2  0  0  0  0  0  0
  191.2570  177.7280  141.7690 C   0  0  0  0  0  0  0  0  0  0  0  0
  189.1620  177.8750  143.2050 C   0  0  0  0  0  2  0  0  0  0  0  0
  191.4860  175.6930  135.9860 C   0  0  0  0  0  3  0  0  0  0  0  0
  190.8970  176.0430  137.2120 C   0  0  0  0  0  0  0  0  0  0  0  0
  189.1040  177.0890  140.8420 C   0  0  0  0  0  3  0  0  0  0  0  0
  188.9680  176.2640  138.6130 N   0  0  0  0  0  0  0  0  0  0  0  0
  191.7270  176.8140  146.1800 C   0  0  0  0  0  3  0  0  0  0  0  0
  191.5140  176.9430  144.8710 C   0  0  0  0  0  3  0  0  0  0  0  0
  191.8130  175.4630  146.8070 C   0  0  0  0  0  3  0  0  0  0  0  0
  192.3600  174.5110  145.8550 N   0  0  0  0  0  1  0  0  0  0  0  0
  192.6760  175.5270  147.9720 N   0  0  0  0  0  1  0  0  0  0  0  0
  188.5970  175.4250  136.3340 C   0  0  0  0  0  2  0  0  0  0  0  0
  186.3830  174.2350  136.3310 C   0  0  1  0  0  3  0  0  0  0  0  0
  186.4400  176.6440  136.1470 C   0  0  1  0  0  3  0  0  0  0  0  0
  185.0030  176.2100  135.9640 C   0  0  0  0  0  2  0  0  0  0  0  0
  185.0390  174.7030  135.7920 C   0  0  0  0  0  2  0  0  0  0  0  0
  186.4970  177.7550  136.9880 O   0  0  0  0  0  1  0  0  0  0  0  0
  187.1450  175.4720  136.7890 C   0  0  2  0  0  3  0  0  0  0  0  0
  186.2250  173.2050  137.4500 C   0  0  0  0  0  2  0  0  0  0  0  0
  184.7680  172.8820  137.7500 C   0  0  0  0  0  1  0  0  0  0  0  0
  1 20  1  6  0  0  0
  2 17  1  0  0  0  0
  3  8  1  0  0  0  0
  4 15  1  0  0  0  0
  4  3  2  0  0  0  0
  5 14  1  0  0  0  0
  6 13  2  0  0  0  0
  7  1  1  0  0  0  0
  8 10  2  0  0  0  0
  9  2  2  0  0  0  0
  9  6  1  0  0  0  0
 10  9  1  0  0  0  0
 11 18  2  0  0  0  0
 12  1  1  0  0  0  0
 13  5  1  0  0  0  0
 13  7  1  0  0  0  0
 14 12  1  0  0  0  0
 15 16  2  0  0  0  0
 16 11  1  0  0  0  0
 16 10  1  0  0  0  0
 17  5  2  0  0  0  0
 18  2  1  0  0  0  0
 19 21  1  0  0  0  0
 20 19  2  0  0  0  0
 21 23  1  0  0  0  0
 22 21  1  0  0  0  0
 24 11  1  0  0  0  0
 25 30  1  0  0  0  0
 25 31  1  1  0  0  0
 26 30  1  0  0  0  0
 26 29  1  1  0  0  0
 27 26  1  0  0  0  0
 28 27  1  0  0  0  0
 28 25  1  0  0  0  0
 30 24  1  6  0  0  0
 31 32  1  0  0  0  0
M  END
>  <MODEL>
9

>  <REMARK>
 VINA RESULT:      -6.8      3.014      9.074
  Name = 
  5 active torsions:
  status: ('A' for Active; 'I' for Inactive)
    1  A    between atoms: C_1  and  C_10
    2  A    between atoms: C_2  and  C_24
    3  A    between atoms: C_6  and  C_7
    4  A    between atoms: C_16  and  C_27
    5  A    between atoms: C_27  and  C_32
                            x       y       z     vdW  Elec       q    Type
                         _______ _______ _______ _____ _____    ______ ____

>  <TORSDO>
F 5

$$$$
