=
 OpenBabel10272413323D

 32 36  0  0  0  0  0  0  0  0999 V2000
  188.9120  177.3700  145.0240 C   0  0  0  0  0  3  0  0  0  0  0  0
  185.3260  178.5450  141.3310 C   0  0  0  0  0  0  0  0  0  0  0  0
  181.3150  178.7290  144.1460 C   0  0  0  0  0  3  0  0  0  0  0  0
  180.5920  179.0020  143.0590 C   0  0  0  0  0  3  0  0  0  0  0  0
  187.5150  178.0320  142.2730 C   0  0  0  0  0  0  0  0  0  0  0  0
  185.5550  178.1510  143.7050 C   0  0  0  0  0  3  0  0  0  0  0  0
  187.6350  177.6510  144.8090 C   0  0  0  0  0  3  0  0  0  0  0  0
  182.7310  178.5470  144.0270 N   0  0  0  0  0  0  0  0  0  0  0  0
  184.7460  178.4520  142.6060 C   0  0  0  0  0  0  0  0  0  0  0  0
  183.3670  178.6560  142.7440 C   0  0  0  0  0  0  0  0  0  0  0  0
  183.2180  179.0600  140.3470 C   0  0  0  0  0  0  0  0  0  0  0  0
  191.5000  177.5360  141.7930 S   0  0  0  0  0  1  0  0  0  0  0  0
  189.9920  177.5210  142.7710 C   0  0  0  0  0  0  0  0  0  0  0  0
  186.9320  177.9390  143.5590 C   0  0  0  0  0  0  0  0  0  0  0  0
  188.8010  177.8600  141.9760 C   0  0  0  0  0  3  0  0  0  0  0  0
  190.0400  177.2550  144.0940 C   0  0  0  0  0  0  0  0  0  0  0  0
  181.2560  179.1160  141.7440 C   0  0  0  0  0  2  0  0  0  0  0  0
  182.5850  178.9560  141.6080 C   0  0  0  0  0  0  0  0  0  0  0  0
  186.6950  178.3360  141.1780 C   0  0  0  0  0  3  0  0  0  0  0  0
  184.5590  178.8390  140.2500 N   0  0  0  0  0  0  0  0  0  0  0  0
  181.4240  181.0500  137.7030 C   0  0  0  0  0  0  0  0  0  0  0  0
  181.0330  180.0590  136.8010 C   0  0  0  0  0  3  0  0  0  0  0  0
  182.0590  178.3640  138.2050 C   0  0  0  0  0  0  0  0  0  0  0  0
  180.9440  177.7720  136.1660 F   0  0  0  0  0  0  0  0  0  0  0  0
  181.3470  178.7200  137.0480 C   0  0  0  0  0  0  0  0  0  0  0  0
  182.1350  180.7050  138.8530 C   0  0  0  0  0  3  0  0  0  0  0  0
  181.1100  182.3450  137.4630 F   0  0  0  0  0  0  0  0  0  0  0  0
  182.3300  176.9190  138.4760 C   0  0  0  0  0  1  0  0  0  0  0  0
  182.4700  179.3700  139.1090 C   0  0  0  0  0  0  0  0  0  0  0  0
  191.2740  176.8860  144.7210 N   0  0  0  0  0  2  0  0  0  0  0  0
  191.4620  176.9030  146.1130 C   0  0  0  0  0  0  0  0  0  0  0  0
  191.6170  176.9170  147.2590 N   0  0  0  0  0  0  0  0  0  0  0  0
  2  9  1  0  0  0  0
  4  3  2  0  0  0  0
  5 14  1  0  0  0  0
  7  1  1  0  0  0  0
  8  3  1  0  0  0  0
  9 10  1  0  0  0  0
  9  6  2  0  0  0  0
 10  8  2  0  0  0  0
 11 18  2  0  0  0  0
 12 13  1  0  0  0  0
 13 16  1  0  0  0  0
 14  6  1  0  0  0  0
 14  7  2  0  0  0  0
 15  5  1  0  0  0  0
 15 13  2  0  0  0  0
 16 30  1  0  0  0  0
 16  1  2  0  0  0  0
 17  4  1  0  0  0  0
 18 17  1  0  0  0  0
 18 10  1  0  0  0  0
 19  2  1  0  0  0  0
 19  5  2  0  0  0  0
 20 11  1  0  0  0  0
 20  2  2  0  0  0  0
 21 26  1  0  0  0  0
 22 25  1  0  0  0  0
 22 21  2  0  0  0  0
 23 28  1  0  0  0  0
 23 29  1  0  0  0  0
 24 25  1  0  0  0  0
 25 23  2  0  0  0  0
 26 29  2  0  0  0  0
 27 21  1  0  0  0  0
 29 11  1  0  0  0  0
 30 31  1  0  0  0  0
 31 32  3  0  0  0  0
M  END
>  <MODEL>
1

>  <REMARK>
 VINA RESULT:      -9.1      0.000      0.000
  Name = 
  3 active torsions:
  status: ('A' for Active; 'I' for Inactive)
    1  A    between atoms: C_1  and  N_10
    2  A    between atoms: N_10  and  C_24
    3  A    between atoms: C_16  and  C_32
                            x       y       z     vdW  Elec       q    Type
                         _______ _______ _______ _____ _____    ______ ____

>  <TORSDO>
F 3

$$$$
=
 OpenBabel10272413323D

 32 36  0  0  0  0  0  0  0  0999 V2000
  190.3810  177.2230  145.0640 C   0  0  0  0  0  3  0  0  0  0  0  0
  186.2290  178.2570  141.9690 C   0  0  0  0  0  0  0  0  0  0  0  0
  188.4250  178.0420  137.5910 C   0  0  0  0  0  3  0  0  0  0  0  0
  187.2580  178.3370  137.0160 C   0  0  0  0  0  3  0  0  0  0  0  0
  187.4740  177.8930  144.0330 C   0  0  0  0  0  0  0  0  0  0  0  0
  188.5880  177.7420  141.8790 C   0  0  0  0  0  3  0  0  0  0  0  0
  189.9690  177.3360  143.8080 C   0  0  0  0  0  3  0  0  0  0  0  0
  188.5020  177.9220  139.0160 N   0  0  0  0  0  2  0  0  0  0  0  0
  187.3930  178.0350  141.2180 C   0  0  0  0  0  0  0  0  0  0  0  0
  187.3290  178.1200  139.8210 C   0  0  0  0  0  0  0  0  0  0  0  0
  184.9500  178.6140  139.9910 C   0  0  0  0  0  0  0  0  0  0  0  0
  187.5490  177.5900  148.0650 S   0  0  0  0  0  1  0  0  0  0  0  0
  188.3320  177.6140  146.4470 C   0  0  0  0  0  0  0  0  0  0  0  0
  188.6480  177.6680  143.2770 C   0  0  0  0  0  0  0  0  0  0  0  0
  187.3710  177.8550  145.3600 C   0  0  0  0  0  3  0  0  0  0  0  0
  189.6580  177.3880  146.3280 C   0  0  0  0  0  0  0  0  0  0  0  0
  186.0560  178.5340  137.8520 C   0  0  0  0  0  3  0  0  0  0  0  0
  186.1010  178.4190  139.1920 C   0  0  0  0  0  0  0  0  0  0  0  0
  186.2800  178.1840  143.3600 C   0  0  0  0  0  3  0  0  0  0  0  0
  185.0550  178.5400  141.3470 N   0  0  0  0  0  0  0  0  0  0  0  0
  182.1160  180.6170  138.5310 C   0  0  0  0  0  0  0  0  0  0  0  0
  181.1410  179.6410  138.3230 C   0  0  0  0  0  3  0  0  0  0  0  0
  182.6330  177.9470  139.2150 C   0  0  0  0  0  0  0  0  0  0  0  0
  180.4260  177.3810  138.4660 F   0  0  0  0  0  0  0  0  0  0  0  0
  181.3940  178.3100  138.6630 C   0  0  0  0  0  0  0  0  0  0  0  0
  183.3510  180.2640  139.0760 C   0  0  0  0  0  3  0  0  0  0  0  0
  181.8640  181.9080  138.2070 F   0  0  0  0  0  0  0  0  0  0  0  0
  182.8570  176.5270  139.6260 C   0  0  0  0  0  1  0  0  0  0  0  0
  183.6280  178.9320  139.4100 C   0  0  0  0  0  0  0  0  0  0  0  0
  190.4790  177.2230  147.4910 N   0  0  0  0  0  2  0  0  0  0  0  0
  191.6460  176.4430  147.5010 C   0  0  0  0  0  0  0  0  0  0  0  0
  192.6080  175.8000  147.5090 N   0  0  0  0  0  0  0  0  0  0  0  0
  1 16  1  0  0  0  0
  2 19  2  0  0  0  0
  3  8  1  0  0  0  0
  4  3  2  0  0  0  0
  4 17  1  0  0  0  0
  5 15  2  0  0  0  0
  6 14  2  0  0  0  0
  7  1  2  0  0  0  0
  8 10  1  0  0  0  0
  9  6  1  0  0  0  0
  9  2  1  0  0  0  0
 10  9  2  0  0  0  0
 11 20  2  0  0  0  0
 13 12  1  0  0  0  0
 14  7  1  0  0  0  0
 14  5  1  0  0  0  0
 15 13  1  0  0  0  0
 16 13  2  0  0  0  0
 16 30  1  0  0  0  0
 17 18  2  0  0  0  0
 18 10  1  0  0  0  0
 18 11  1  0  0  0  0
 19  5  1  0  0  0  0
 20  2  1  0  0  0  0
 21 26  1  0  0  0  0
 22 21  2  0  0  0  0
 22 25  1  0  0  0  0
 23 29  1  0  0  0  0
 23 28  1  0  0  0  0
 24 25  1  0  0  0  0
 25 23  2  0  0  0  0
 26 29  2  0  0  0  0
 27 21  1  0  0  0  0
 29 11  1  0  0  0  0
 30 31  1  0  0  0  0
 31 32  3  0  0  0  0
M  END
>  <MODEL>
2

>  <REMARK>
 VINA RESULT:      -9.0      2.375      3.900
  Name = 
  3 active torsions:
  status: ('A' for Active; 'I' for Inactive)
    1  A    between atoms: C_1  and  N_10
    2  A    between atoms: N_10  and  C_24
    3  A    between atoms: C_16  and  C_32
                            x       y       z     vdW  Elec       q    Type
                         _______ _______ _______ _____ _____    ______ ____

>  <TORSDO>
F 3

$$$$
=
 OpenBabel10272413323D

 32 36  0  0  1  0  0  0  0  0999 V2000
  192.6310  176.4060  138.1420 C   0  0  0  0  0  3  0  0  0  0  0  0
  188.6280  177.5000  141.4080 C   0  0  0  0  0  0  0  0  0  0  0  0
  190.9720  177.1180  145.6970 C   0  0  0  0  0  3  0  0  0  0  0  0
  189.8270  177.3980  146.3220 C   0  0  0  0  0  3  0  0  0  0  0  0
  189.7820  177.1260  139.2930 C   0  0  0  0  0  0  0  0  0  0  0  0
  190.9850  176.9650  141.3980 C   0  0  0  0  0  3  0  0  0  0  0  0
  192.2880  176.5830  139.4100 C   0  0  0  0  0  3  0  0  0  0  0  0
  191.0060  177.0760  144.2660 N   0  0  0  0  0  0  0  0  0  0  0  0
  189.8200  177.2660  142.1090 C   0  0  0  0  0  0  0  0  0  0  0  0
  189.8120  177.3320  143.5090 C   0  0  1  0  0  3  0  0  0  0  0  0
  187.4410  177.8860  143.4370 C   0  0  0  0  0  0  0  0  0  0  0  0
  189.7320  177.0340  135.2500 S   0  0  0  0  0  1  0  0  0  0  0  0
  190.5280  176.8120  136.8460 C   0  0  0  0  0  0  0  0  0  0  0  0
  190.9860  176.8910  139.9990 C   0  0  0  0  0  0  0  0  0  0  0  0
  189.6250  177.0950  137.9710 C   0  0  0  0  0  3  0  0  0  0  0  0
  191.8300  176.4600  136.9150 C   0  0  0  0  0  0  0  0  0  0  0  0
  188.6060  177.6640  145.5340 C   0  0  0  0  0  3  0  0  0  0  0  0
  188.6130  177.6370  144.1890 C   0  0  0  0  0  0  0  0  0  0  0  0
  188.6200  177.4290  140.0160 C   0  0  0  0  0  3  0  0  0  0  0  0
  187.4850  177.7960  142.0790 N   0  0  0  0  0  0  0  0  0  0  0  0
  184.8630  178.4560  146.1200 C   0  0  0  0  0  0  0  0  0  0  0  0
  183.7300  178.7880  145.3760 C   0  0  0  0  0  3  0  0  0  0  0  0
  184.9950  178.5300  143.3190 C   0  0  0  0  0  0  0  0  0  0  0  0
  182.6750  179.1370  143.2770 F   0  0  0  0  0  0  0  0  0  0  0  0
  183.7920  178.8250  143.9800 C   0  0  0  0  0  0  0  0  0  0  0  0
  186.0630  178.1640  145.4710 C   0  0  0  0  0  3  0  0  0  0  0  0
  184.7970  178.4130  147.4720 F   0  0  0  0  0  0  0  0  0  0  0  0
  185.0180  178.5190  141.8240 C   0  0  0  0  0  1  0  0  0  0  0  0
  186.1470  178.2110  144.0740 C   0  0  0  0  0  0  0  0  0  0  0  0
  192.5720  176.1630  135.7250 N   0  0  0  0  0  2  0  0  0  0  0  0
  193.9700  176.2680  135.6470 C   0  0  0  0  0  0  0  0  0  0  0  0
  195.1220  176.3540  135.5830 N   0  0  0  0  0  0  0  0  0  0  0  0
  1  7  1  0  0  0  0
  2 20  2  0  0  0  0
  2  9  1  0  0  0  0
  3  4  1  0  0  0  0
  5 14  1  0  0  0  0
  5 19  2  0  0  0  0
  6  9  2  0  0  0  0
  7 14  2  0  0  0  0
  8  3  2  0  0  0  0
 10  9  1  1  0  0  0
 10 18  1  0  0  0  0
 10  8  1  0  0  0  0
 11 29  1  0  0  0  0
 11 18  2  0  0  0  0
 12 13  1  0  0  0  0
 13 16  1  0  0  0  0
 13 15  2  0  0  0  0
 14  6  1  0  0  0  0
 15  5  1  0  0  0  0
 16  1  2  0  0  0  0
 17  4  2  0  0  0  0
 18 17  1  0  0  0  0
 19  2  1  0  0  0  0
 20 11  1  0  0  0  0
 21 27  1  0  0  0  0
 22 21  2  0  0  0  0
 23 25  2  0  0  0  0
 23 29  1  0  0  0  0
 24 25  1  0  0  0  0
 25 22  1  0  0  0  0
 26 21  1  0  0  0  0
 28 23  1  0  0  0  0
 29 26  2  0  0  0  0
 30 16  1  0  0  0  0
 31 30  1  0  0  0  0
 32 31  3  0  0  0  0
M  END
>  <MODEL>
3

>  <REMARK>
 VINA RESULT:      -8.8      4.565      7.466
  Name = 
  3 active torsions:
  status: ('A' for Active; 'I' for Inactive)
    1  A    between atoms: C_1  and  N_10
    2  A    between atoms: N_10  and  C_24
    3  A    between atoms: C_16  and  C_32
                            x       y       z     vdW  Elec       q    Type
                         _______ _______ _______ _____ _____    ______ ____

>  <TORSDO>
F 3

$$$$
=
 OpenBabel10272413323D

 32 36  0  0  0  0  0  0  0  0999 V2000
  182.7830  179.1240  138.9490 C   0  0  0  0  0  3  0  0  0  0  0  0
  186.2690  178.1230  142.7880 C   0  0  0  0  0  0  0  0  0  0  0  0
  190.3290  177.6630  140.0770 C   0  0  0  0  0  3  0  0  0  0  0  0
  191.0170  177.4100  141.1920 C   0  0  0  0  0  3  0  0  0  0  0  0
  184.1080  178.6010  141.7660 C   0  0  0  0  0  0  0  0  0  0  0  0
  186.1050  178.4170  140.3940 C   0  0  0  0  0  3  0  0  0  0  0  0
  184.0640  178.9100  139.2180 C   0  0  0  0  0  3  0  0  0  0  0  0
  188.9250  177.9320  140.1580 N   0  0  0  0  0  2  0  0  0  0  0  0
  186.8830  178.1590  141.5260 C   0  0  0  0  0  0  0  0  0  0  0  0
  188.2610  177.9270  141.4330 C   0  0  0  0  0  0  0  0  0  0  0  0
  188.3500  177.6640  143.8520 C   0  0  0  0  0  0  0  0  0  0  0  0
  180.1490  179.3370  142.1390 S   0  0  0  0  0  1  0  0  0  0  0  0
  181.6430  179.0680  141.1770 C   0  0  0  0  0  0  0  0  0  0  0  0
  184.7260  178.6390  140.4930 C   0  0  0  0  0  0  0  0  0  0  0  0
  182.8160  178.7940  142.0210 C   0  0  0  0  0  3  0  0  0  0  0  0
  181.6120  179.1620  139.8300 C   0  0  0  0  0  0  0  0  0  0  0  0
  190.3270  177.4120  142.4980 C   0  0  0  0  0  3  0  0  0  0  0  0
  189.0100  177.6680  142.6010 C   0  0  0  0  0  0  0  0  0  0  0  0
  184.8970  178.3440  142.8950 C   0  0  0  0  0  3  0  0  0  0  0  0
  187.0060  177.8770  143.9020 N   0  0  0  0  0  0  0  0  0  0  0  0
  191.0870  176.6420  146.2270 C   0  0  0  0  0  0  0  0  0  0  0  0
  190.4900  176.8480  147.4710 C   0  0  0  0  0  3  0  0  0  0  0  0
  188.4520  177.5920  146.3820 C   0  0  0  0  0  0  0  0  0  0  0  0
  188.6130  177.4980  148.7730 F   0  0  0  0  0  0  0  0  0  0  0  0
  189.1780  177.3200  147.5530 C   0  0  0  0  0  0  0  0  0  0  0  0
  190.3740  176.9130  145.0580 C   0  0  0  0  0  3  0  0  0  0  0  0
  192.3570  176.1770  146.1530 F   0  0  0  0  0  0  0  0  0  0  0  0
  187.0300  178.0380  146.4960 C   0  0  0  0  0  1  0  0  0  0  0  0
  189.0630  177.4000  145.1210 C   0  0  0  0  0  0  0  0  0  0  0  0
  180.3750  179.3820  139.1400 N   0  0  0  0  0  2  0  0  0  0  0  0
  180.1920  180.4120  138.2030 C   0  0  0  0  0  0  0  0  0  0  0  0
  180.0420  181.2610  137.4310 N   0  0  0  0  0  0  0  0  0  0  0  0
  1  7  2  0  0  0  0
  1 16  1  0  0  0  0
  2 19  2  0  0  0  0
  2 20  1  0  0  0  0
  3  8  1  0  0  0  0
  3  4  2  0  0  0  0
  4 17  1  0  0  0  0
  5 15  2  0  0  0  0
  5 19  1  0  0  0  0
  6 14  2  0  0  0  0
  6  9  1  0  0  0  0
  7 14  1  0  0  0  0
  8 10  1  0  0  0  0
  9  2  1  0  0  0  0
 10  9  2  0  0  0  0
 10 18  1  0  0  0  0
 11 20  2  0  0  0  0
 11 29  1  0  0  0  0
 13 15  1  0  0  0  0
 13 12  1  0  0  0  0
 14  5  1  0  0  0  0
 16 13  2  0  0  0  0
 17 18  2  0  0  0  0
 18 11  1  0  0  0  0
 21 22  1  0  0  0  0
 22 25  2  0  0  0  0
 23 28  1  0  0  0  0
 23 25  1  0  0  0  0
 25 24  1  0  0  0  0
 26 29  1  0  0  0  0
 26 21  2  0  0  0  0
 27 21  1  0  0  0  0
 29 23  2  0  0  0  0
 30 16  1  0  0  0  0
 31 30  1  0  0  0  0
 32 31  3  0  0  0  0
M  END
>  <MODEL>
4

>  <REMARK>
 VINA RESULT:      -8.6      4.689      9.739
  Name = 
  3 active torsions:
  status: ('A' for Active; 'I' for Inactive)
    1  A    between atoms: C_1  and  N_10
    2  A    between atoms: N_10  and  C_24
    3  A    between atoms: C_16  and  C_32
                            x       y       z     vdW  Elec       q    Type
                         _______ _______ _______ _____ _____    ______ ____

>  <TORSDO>
F 3

$$$$
=
 OpenBabel10272413323D

 32 36  0  0  1  0  0  0  0  0999 V2000
  191.4160  176.4150  137.3920 C   0  0  0  0  0  3  0  0  0  0  0  0
  188.5520  177.4520  141.7050 C   0  0  0  0  0  0  0  0  0  0  0  0
  191.8650  176.3440  145.1460 C   0  0  0  0  0  3  0  0  0  0  0  0
  190.9610  176.6450  146.0810 C   0  0  0  0  0  3  0  0  0  0  0  0
  189.0670  177.2390  139.3320 C   0  0  0  0  0  0  0  0  0  0  0  0
  190.7460  176.7160  141.0090 C   0  0  0  0  0  3  0  0  0  0  0  0
  191.4360  176.4660  138.7160 C   0  0  0  0  0  3  0  0  0  0  0  0
  191.5210  176.4730  143.7620 N   0  0  0  0  0  0  0  0  0  0  0  0
  189.8490  177.0290  142.0330 C   0  0  0  0  0  0  0  0  0  0  0  0
  190.2110  176.9240  143.3830 C   0  0  1  0  0  3  0  0  0  0  0  0
  187.9850  177.6910  144.0070 C   0  0  0  0  0  0  0  0  0  0  0  0
  187.9620  177.6460  135.4630 S   0  0  0  0  0  1  0  0  0  0  0  0
  189.1130  177.1620  136.7560 C   0  0  0  0  0  0  0  0  0  0  0  0
  190.3760  176.8140  139.6610 C   0  0  0  0  0  0  0  0  0  0  0  0
  188.5710  177.3830  138.1050 C   0  0  0  0  0  3  0  0  0  0  0  0
  190.3370  176.6900  136.4370 C   0  0  0  0  0  0  0  0  0  0  0  0
  189.6180  177.1120  145.6810 C   0  0  0  0  0  3  0  0  0  0  0  0
  189.2740  177.2490  144.3880 C   0  0  0  0  0  0  0  0  0  0  0  0
  188.1760  177.5530  140.3670 C   0  0  0  0  0  3  0  0  0  0  0  0
  187.6650  177.7640  142.6850 N   0  0  0  0  0  0  0  0  0  0  0  0
  186.3630  178.4200  147.3250 C   0  0  0  0  0  0  0  0  0  0  0  0
  185.0460  178.6950  146.9560 C   0  0  0  0  0  3  0  0  0  0  0  0
  185.6090  178.3100  144.6250 C   0  0  0  0  0  0  0  0  0  0  0  0
  183.3760  178.8970  145.2780 F   0  0  0  0  0  0  0  0  0  0  0  0
  184.6660  178.6400  145.6130 C   0  0  0  0  0  0  0  0  0  0  0  0
  187.3070  178.0940  146.3500 C   0  0  0  0  0  3  0  0  0  0  0  0
  186.7250  178.4670  148.6290 F   0  0  0  0  0  0  0  0  0  0  0  0
  185.1620  178.2000  143.2030 C   0  0  0  0  0  1  0  0  0  0  0  0
  186.9470  178.0490  144.9980 C   0  0  0  0  0  0  0  0  0  0  0  0
  190.7050  176.4760  135.0690 N   0  0  0  0  0  2  0  0  0  0  0  0
  191.9680  176.0020  134.6800 C   0  0  0  0  0  0  0  0  0  0  0  0
  193.0090  175.6110  134.3600 N   0  0  0  0  0  0  0  0  0  0  0  0
  1  7  1  0  0  0  0
  2  9  1  0  0  0  0
  2 20  2  0  0  0  0
  3  4  1  0  0  0  0
  5 14  1  0  0  0  0
  5 19  2  0  0  0  0
  6  9  2  0  0  0  0
  7 14  2  0  0  0  0
  8  3  2  0  0  0  0
 10  9  1  1  0  0  0
 10  8  1  0  0  0  0
 10 18  1  0  0  0  0
 11 18  2  0  0  0  0
 11 29  1  0  0  0  0
 12 13  1  0  0  0  0
 13 15  2  0  0  0  0
 14  6  1  0  0  0  0
 15  5  1  0  0  0  0
 16 13  1  0  0  0  0
 16  1  2  0  0  0  0
 17  4  2  0  0  0  0
 18 17  1  0  0  0  0
 19  2  1  0  0  0  0
 20 11  1  0  0  0  0
 21 27  1  0  0  0  0
 22 21  1  0  0  0  0
 23 29  2  0  0  0  0
 23 25  1  0  0  0  0
 24 25  1  0  0  0  0
 25 22  2  0  0  0  0
 26 21  2  0  0  0  0
 28 23  1  0  0  0  0
 29 26  1  0  0  0  0
 30 16  1  0  0  0  0
 31 30  1  0  0  0  0
 32 31  3  0  0  0  0
M  END
>  <MODEL>
5

>  <REMARK>
 VINA RESULT:      -8.4      4.847      8.277
  Name = 
  3 active torsions:
  status: ('A' for Active; 'I' for Inactive)
    1  A    between atoms: C_1  and  N_10
    2  A    between atoms: N_10  and  C_24
    3  A    between atoms: C_16  and  C_32
                            x       y       z     vdW  Elec       q    Type
                         _______ _______ _______ _____ _____    ______ ____

>  <TORSDO>
F 3

$$$$
=
 OpenBabel10272413323D

 32 36  0  0  0  0  0  0  0  0999 V2000
  186.9800  178.3380  144.3010 C   0  0  0  0  0  3  0  0  0  0  0  0
  190.0980  176.7000  140.3660 C   0  0  0  0  0  0  0  0  0  0  0  0
  187.4470  178.2590  136.5470 C   0  0  0  0  0  3  0  0  0  0  0  0
  188.3660  177.7460  135.7280 C   0  0  0  0  0  3  0  0  0  0  0  0
  189.3490  177.0520  142.6590 C   0  0  0  0  0  0  0  0  0  0  0  0
  188.0270  177.8710  140.7920 C   0  0  0  0  0  3  0  0  0  0  0  0
  187.1440  178.3240  142.9850 C   0  0  0  0  0  3  0  0  0  0  0  0
  187.6240  178.1560  137.9650 N   0  0  0  0  0  0  0  0  0  0  0  0
  188.9610  177.3660  139.8840 C   0  0  0  0  0  0  0  0  0  0  0  0
  188.7860  177.5010  138.5000 C   0  0  0  0  0  0  0  0  0  0  0  0
  190.8920  176.3300  138.1510 C   0  0  0  0  0  0  0  0  0  0  0  0
  189.9740  176.6850  146.6380 S   0  0  0  0  0  1  0  0  0  0  0  0
  188.9900  177.1550  145.2090 C   0  0  0  0  0  0  0  0  0  0  0  0
  188.2030  177.7250  142.1750 C   0  0  0  0  0  0  0  0  0  0  0  0
  189.6550  176.8370  143.9370 C   0  0  0  0  0  3  0  0  0  0  0  0
  187.7960  177.7650  145.3750 C   0  0  0  0  0  0  0  0  0  0  0  0
  189.5590  177.0780  136.2890 C   0  0  0  0  0  3  0  0  0  0  0  0
  189.7520  176.9750  137.6160 C   0  0  0  0  0  0  0  0  0  0  0  0
  190.2800  176.5510  141.7400 C   0  0  0  0  0  3  0  0  0  0  0  0
  191.0190  176.2040  139.5010 N   0  0  0  0  0  2  0  0  0  0  0  0
  194.0900  176.0420  136.1850 C   0  0  0  0  0  0  0  0  0  0  0  0
  193.9970  174.7540  135.6560 C   0  0  0  0  0  3  0  0  0  0  0  0
  191.8460  174.4540  136.7420 C   0  0  0  0  0  0  0  0  0  0  0  0
  192.8040  172.7170  135.3930 F   0  0  0  0  0  0  0  0  0  0  0  0
  192.8800  173.9610  135.9300 C   0  0  0  0  0  0  0  0  0  0  0  0
  193.0690  176.5390  136.9960 C   0  0  0  0  0  3  0  0  0  0  0  0
  195.1710  176.8110  135.9110 F   0  0  0  0  0  0  0  0  0  0  0  0
  190.6360  173.6070  136.9710 C   0  0  0  0  0  1  0  0  0  0  0  0
  191.9490  175.7510  137.2930 C   0  0  0  0  0  0  0  0  0  0  0  0
  187.2500  177.9600  146.6860 N   0  0  0  0  0  2  0  0  0  0  0  0
  185.9410  178.4140  146.9110 C   0  0  0  0  0  0  0  0  0  0  0  0
  184.8620  178.7880  147.0960 N   0  0  0  0  0  0  0  0  0  0  0  0
  1 16  1  0  0  0  0
  2 19  2  0  0  0  0
  3  8  2  0  0  0  0
  4 17  2  0  0  0  0
  4  3  1  0  0  0  0
  5 15  2  0  0  0  0
  6 14  2  0  0  0  0
  7  1  2  0  0  0  0
  8 10  1  0  0  0  0
  9  2  1  0  0  0  0
  9  6  1  0  0  0  0
 10  9  2  0  0  0  0
 11 20  1  0  0  0  0
 13 16  2  0  0  0  0
 13 12  1  0  0  0  0
 14  5  1  0  0  0  0
 14  7  1  0  0  0  0
 15 13  1  0  0  0  0
 16 30  1  0  0  0  0
 17 18  1  0  0  0  0
 18 11  2  0  0  0  0
 18 10  1  0  0  0  0
 19  5  1  0  0  0  0
 20  2  1  0  0  0  0
 21 26  1  0  0  0  0
 22 25  1  0  0  0  0
 22 21  2  0  0  0  0
 23 28  1  0  0  0  0
 23 29  1  0  0  0  0
 24 25  1  0  0  0  0
 25 23  2  0  0  0  0
 26 29  2  0  0  0  0
 27 21  1  0  0  0  0
 29 11  1  0  0  0  0
 30 31  1  0  0  0  0
 31 32  3  0  0  0  0
M  END
>  <MODEL>
6

>  <REMARK>
 VINA RESULT:      -8.4      5.650      8.383
  Name = 
  3 active torsions:
  status: ('A' for Active; 'I' for Inactive)
    1  A    between atoms: C_1  and  N_10
    2  A    between atoms: N_10  and  C_24
    3  A    between atoms: C_16  and  C_32
                            x       y       z     vdW  Elec       q    Type
                         _______ _______ _______ _____ _____    ______ ____

>  <TORSDO>
F 3

$$$$
=
 OpenBabel10272413323D

 32 36  0  0  0  0  0  0  0  0999 V2000
  188.2410  177.9390  145.2940 C   0  0  0  0  0  3  0  0  0  0  0  0
  184.7940  178.4180  141.3220 C   0  0  0  0  0  0  0  0  0  0  0  0
  180.6630  178.9360  143.9100 C   0  0  0  0  0  3  0  0  0  0  0  0
  179.9820  179.0140  142.7660 C   0  0  0  0  0  3  0  0  0  0  0  0
  186.9510  178.1190  142.4190 C   0  0  0  0  0  0  0  0  0  0  0  0
  184.9290  178.4100  143.7350 C   0  0  0  0  0  3  0  0  0  0  0  0
  186.9680  178.1480  144.9860 C   0  0  0  0  0  3  0  0  0  0  0  0
  182.0850  178.7760  143.8780 N   0  0  0  0  0  0  0  0  0  0  0  0
  184.1620  178.5120  142.5710 C   0  0  0  0  0  0  0  0  0  0  0  0
  182.7740  178.6980  142.6200 C   0  0  0  0  0  0  0  0  0  0  0  0
  182.7220  178.7140  140.1850 C   0  0  0  0  0  0  0  0  0  0  0  0
  190.9620  177.6630  142.1830 S   0  0  0  0  0  1  0  0  0  0  0  0
  189.4140  177.7620  143.0900 C   0  0  0  0  0  0  0  0  0  0  0  0
  186.3150  178.2160  143.6800 C   0  0  0  0  0  0  0  0  0  0  0  0
  188.2520  177.9380  142.2050 C   0  0  0  0  0  3  0  0  0  0  0  0
  189.4100  177.7090  144.4390 C   0  0  0  0  0  0  0  0  0  0  0  0
  180.7000  178.9360  141.4770 C   0  0  0  0  0  2  0  0  0  0  0  0
  182.0370  178.7930  141.4200 C   0  0  0  0  0  0  0  0  0  0  0  0
  186.1730  178.2250  141.2590 C   0  0  0  0  0  3  0  0  0  0  0  0
  184.0690  178.5170  140.1780 N   0  0  0  0  0  0  0  0  0  0  0  0
  180.9740  177.6450  137.0270 C   0  0  0  0  0  0  0  0  0  0  0  0
  180.7100  178.8670  136.4070 C   0  0  0  0  0  3  0  0  0  0  0  0
  181.7710  180.0410  138.2490 C   0  0  0  0  0  0  0  0  0  0  0  0
  180.8530  181.2380  136.3840 F   0  0  0  0  0  0  0  0  0  0  0  0
  181.1070  180.0620  137.0120 C   0  0  0  0  0  0  0  0  0  0  0  0
  181.6310  177.6150  138.2580 C   0  0  0  0  0  3  0  0  0  0  0  0
  180.5950  176.4880  136.4330 F   0  0  0  0  0  0  0  0  0  0  0  0
  182.2370  181.3300  138.8460 C   0  0  0  0  0  1  0  0  0  0  0  0
  182.0220  178.8040  138.8850 C   0  0  0  0  0  0  0  0  0  0  0  0
  190.6230  177.4770  145.1660 N   0  0  0  0  0  2  0  0  0  0  0  0
  190.6510  176.9090  146.4500 C   0  0  0  0  0  0  0  0  0  0  0  0
  190.6740  176.4400  147.5080 N   0  0  0  0  0  0  0  0  0  0  0  0
  2  9  1  0  0  0  0
  4  3  2  0  0  0  0
  5 14  1  0  0  0  0
  7  1  1  0  0  0  0
  8  3  1  0  0  0  0
  9 10  1  0  0  0  0
  9  6  2  0  0  0  0
 10  8  2  0  0  0  0
 11 18  2  0  0  0  0
 12 13  1  0  0  0  0
 13 16  1  0  0  0  0
 14  6  1  0  0  0  0
 14  7  2  0  0  0  0
 15  5  1  0  0  0  0
 15 13  2  0  0  0  0
 16 30  1  0  0  0  0
 16  1  2  0  0  0  0
 17  4  1  0  0  0  0
 18 17  1  0  0  0  0
 18 10  1  0  0  0  0
 19  2  1  0  0  0  0
 19  5  2  0  0  0  0
 20 11  1  0  0  0  0
 20  2  2  0  0  0  0
 21 26  1  0  0  0  0
 22 25  1  0  0  0  0
 22 21  2  0  0  0  0
 23 28  1  0  0  0  0
 23 29  1  0  0  0  0
 24 25  1  0  0  0  0
 25 23  2  0  0  0  0
 26 29  2  0  0  0  0
 27 21  1  0  0  0  0
 29 11  1  0  0  0  0
 30 31  1  0  0  0  0
 31 32  3  0  0  0  0
M  END
>  <MODEL>
7

>  <REMARK>
 VINA RESULT:      -8.4      0.814      1.844
  Name = 
  3 active torsions:
  status: ('A' for Active; 'I' for Inactive)
    1  A    between atoms: C_1  and  N_10
    2  A    between atoms: N_10  and  C_24
    3  A    between atoms: C_16  and  C_32
                            x       y       z     vdW  Elec       q    Type
                         _______ _______ _______ _____ _____    ______ ____

>  <TORSDO>
F 3

$$$$
=
 OpenBabel10272413323D

 32 36  0  0  1  0  0  0  0  0999 V2000
  190.9380  176.5820  135.9780 C   0  0  0  0  0  3  0  0  0  0  0  0
  189.4050  177.1220  141.0030 C   0  0  0  0  0  0  0  0  0  0  0  0
  185.0070  179.1650  140.2790 C   0  0  0  0  0  3  0  0  0  0  0  0
  184.8400  179.2200  141.6010 C   0  0  0  0  0  3  0  0  0  0  0  0
  190.8520  176.5290  139.1330 C   0  0  0  0  0  0  0  0  0  0  0  0
  188.6630  177.5050  138.7350 C   0  0  0  0  0  3  0  0  0  0  0  0
  189.9470  176.9660  136.7710 C   0  0  0  0  0  3  0  0  0  0  0  0
  186.2090  178.6030  139.7400 N   0  0  0  0  0  0  0  0  0  0  0  0
  188.4240  177.5780  140.1090 C   0  0  0  0  0  0  0  0  0  0  0  0
  187.2300  178.1040  140.6190 C   0  0  1  0  0  3  0  0  0  0  0  0
  188.0380  177.6700  142.8750 C   0  0  0  0  0  0  0  0  0  0  0  0
  194.2960  174.9230  137.7480 S   0  0  0  0  0  1  0  0  0  0  0  0
  192.7200  175.7580  137.5320 C   0  0  0  0  0  0  0  0  0  0  0  0
  189.8630  176.9870  138.2300 C   0  0  0  0  0  0  0  0  0  0  0  0
  192.0350  176.0110  138.8090 C   0  0  0  0  0  3  0  0  0  0  0  0
  192.2680  176.0520  136.2930 C   0  0  0  0  0  0  0  0  0  0  0  0
  185.8940  178.7010  142.4970 C   0  0  0  0  0  3  0  0  0  0  0  0
  187.0280  178.1620  142.0150 C   0  0  0  0  0  0  0  0  0  0  0  0
  190.6010  176.6040  140.5090 C   0  0  0  0  0  3  0  0  0  0  0  0
  189.1930  177.1810  142.3420 N   0  0  0  0  0  0  0  0  0  0  0  0
  186.4370  177.7530  146.2810 C   0  0  0  0  0  0  0  0  0  0  0  0
  187.5460  177.7680  147.1290 C   0  0  0  0  0  3  0  0  0  0  0  0
  189.0280  177.7290  145.2060 C   0  0  0  0  0  0  0  0  0  0  0  0
  189.9000  177.7870  147.4390 F   0  0  0  0  0  0  0  0  0  0  0  0
  188.8380  177.7570  146.5970 C   0  0  0  0  0  0  0  0  0  0  0  0
  186.6170  177.7210  144.8980 C   0  0  0  0  0  3  0  0  0  0  0  0
  185.1870  177.7710  146.8010 F   0  0  0  0  0  0  0  0  0  0  0  0
  190.4190  177.7780  144.6620 C   0  0  0  0  0  1  0  0  0  0  0  0
  187.9050  177.6950  144.3480 C   0  0  0  0  0  0  0  0  0  0  0  0
  193.0770  175.7930  135.1390 N   0  0  0  0  0  2  0  0  0  0  0  0
  194.1110  176.6460  134.7200 C   0  0  0  0  0  0  0  0  0  0  0  0
  194.9630  177.3490  134.3760 N   0  0  0  0  0  0  0  0  0  0  0  0
  1 16  2  0  0  0  0
  1  7  1  0  0  0  0
  2 20  2  0  0  0  0
  3  4  1  0  0  0  0
  4 17  2  0  0  0  0
  5 19  2  0  0  0  0
  6  9  2  0  0  0  0
  7 14  2  0  0  0  0
  8  3  2  0  0  0  0
  9 10  1  0  0  0  0
  9  2  1  0  0  0  0
 10  8  1  1  0  0  0
 10 18  1  0  0  0  0
 11 29  1  0  0  0  0
 13 12  1  0  0  0  0
 13 15  2  0  0  0  0
 14  6  1  0  0  0  0
 14  5  1  0  0  0  0
 15  5  1  0  0  0  0
 16 13  1  0  0  0  0
 18 17  1  0  0  0  0
 18 11  2  0  0  0  0
 19  2  1  0  0  0  0
 20 11  1  0  0  0  0
 21 27  1  0  0  0  0
 21 22  1  0  0  0  0
 23 25  1  0  0  0  0
 25 22  2  0  0  0  0
 25 24  1  0  0  0  0
 26 21  2  0  0  0  0
 28 23  1  0  0  0  0
 29 26  1  0  0  0  0
 29 23  2  0  0  0  0
 30 16  1  0  0  0  0
 31 30  1  0  0  0  0
 32 31  3  0  0  0  0
M  END
>  <MODEL>
8

>  <REMARK>
 VINA RESULT:      -8.1      5.353      8.208
  Name = 
  3 active torsions:
  status: ('A' for Active; 'I' for Inactive)
    1  A    between atoms: C_1  and  N_10
    2  A    between atoms: N_10  and  C_24
    3  A    between atoms: C_16  and  C_32
                            x       y       z     vdW  Elec       q    Type
                         _______ _______ _______ _____ _____    ______ ____

>  <TORSDO>
F 3

$$$$
=
 OpenBabel10272413323D

 32 36  0  0  0  0  0  0  0  0999 V2000
  188.5010  177.9420  145.6600 C   0  0  0  0  0  3  0  0  0  0  0  0
  190.1770  176.5990  140.8360 C   0  0  0  0  0  0  0  0  0  0  0  0
  186.5640  178.5590  138.1630 C   0  0  0  0  0  3  0  0  0  0  0  0
  187.1610  178.1020  137.0610 C   0  0  0  0  0  3  0  0  0  0  0  0
  190.1860  176.7570  143.2680 C   0  0  0  0  0  0  0  0  0  0  0  0
  188.3980  177.7730  141.9740 C   0  0  0  0  0  3  0  0  0  0  0  0
  188.2530  178.0440  144.3620 C   0  0  0  0  0  3  0  0  0  0  0  0
  187.1620  178.3230  139.4430 N   0  0  0  0  0  0  0  0  0  0  0  0
  188.9820  177.3320  140.7840 C   0  0  0  0  0  0  0  0  0  0  0  0
  188.3980  177.5970  139.5380 C   0  0  0  0  0  0  0  0  0  0  0  0
  190.2360  176.4150  138.4610 C   0  0  0  0  0  0  0  0  0  0  0  0
  191.9820  176.0160  146.8150 S   0  0  0  0  0  1  0  0  0  0  0  0
  190.6320  176.6360  145.8040 C   0  0  0  0  0  0  0  0  0  0  0  0
  188.9810  177.4980  143.2180 C   0  0  0  0  0  0  0  0  0  0  0  0
  190.8580  176.4200  144.3670 C   0  0  0  0  0  3  0  0  0  0  0  0
  189.5780  177.2550  146.3790 C   0  0  0  0  0  0  0  0  0  0  0  0
  188.4340  177.3600  137.1700 C   0  0  0  0  0  3  0  0  0  0  0  0
  189.0200  177.1310  138.3590 C   0  0  0  0  0  0  0  0  0  0  0  0
  190.7640  176.3220  142.0690 C   0  0  0  0  0  3  0  0  0  0  0  0
  190.7640  176.1630  139.6910 N   0  0  0  0  0  2  0  0  0  0  0  0
  190.8630  174.5810  135.2340 C   0  0  0  0  0  0  0  0  0  0  0  0
  192.2160  174.8380  135.0060 C   0  0  0  0  0  3  0  0  0  0  0  0
  192.3230  176.1390  137.0540 C   0  0  0  0  0  0  0  0  0  0  0  0
  194.2640  175.8360  135.6770 F   0  0  0  0  0  0  0  0  0  0  0  0
  192.9460  175.6120  135.9110 C   0  0  0  0  0  0  0  0  0  0  0  0
  190.2350  175.1030  136.3660 C   0  0  0  0  0  3  0  0  0  0  0  0
  190.1600  173.8230  134.3590 F   0  0  0  0  0  0  0  0  0  0  0  0
  193.1410  176.9130  138.0360 C   0  0  0  0  0  1  0  0  0  0  0  0
  190.9480  175.8940  137.2750 C   0  0  0  0  0  0  0  0  0  0  0  0
  189.4700  177.3420  147.8060 N   0  0  0  0  0  2  0  0  0  0  0  0
  188.3740  177.9290  148.4570 C   0  0  0  0  0  0  0  0  0  0  0  0
  187.4710  178.4130  148.9940 N   0  0  0  0  0  0  0  0  0  0  0  0
  1 16  1  0  0  0  0
  2 19  2  0  0  0  0
  3  8  2  0  0  0  0
  4 17  2  0  0  0  0
  4  3  1  0  0  0  0
  5 15  2  0  0  0  0
  6 14  2  0  0  0  0
  7  1  2  0  0  0  0
  8 10  1  0  0  0  0
  9  2  1  0  0  0  0
  9  6  1  0  0  0  0
 10  9  2  0  0  0  0
 11 20  1  0  0  0  0
 13 16  2  0  0  0  0
 13 12  1  0  0  0  0
 14  5  1  0  0  0  0
 14  7  1  0  0  0  0
 15 13  1  0  0  0  0
 16 30  1  0  0  0  0
 17 18  1  0  0  0  0
 18 11  2  0  0  0  0
 18 10  1  0  0  0  0
 19  5  1  0  0  0  0
 20  2  1  0  0  0  0
 21 26  1  0  0  0  0
 22 21  2  0  0  0  0
 22 25  1  0  0  0  0
 23 29  1  0  0  0  0
 23 28  1  0  0  0  0
 24 25  1  0  0  0  0
 25 23  2  0  0  0  0
 26 29  2  0  0  0  0
 27 21  1  0  0  0  0
 29 11  1  0  0  0  0
 30 31  1  0  0  0  0
 31 32  3  0  0  0  0
M  END
>  <MODEL>
9

>  <REMARK>
 VINA RESULT:      -7.7      5.061      7.636
  Name = 
  3 active torsions:
  status: ('A' for Active; 'I' for Inactive)
    1  A    between atoms: C_1  and  N_10
    2  A    between atoms: N_10  and  C_24
    3  A    between atoms: C_16  and  C_32
                            x       y       z     vdW  Elec       q    Type
                         _______ _______ _______ _____ _____    ______ ____

>  <TORSDO>
F 3

$$$$
