=
 OpenBabel10272400543D

 25 29  0  0  1  0  0  0  0  0999 V2000
  185.5970  178.3550  144.6220 N   0  0  0  0  0  0  0  0  0  0  0  0
  186.9930  178.1110  145.0010 C   0  0  1  0  0  3  0  0  0  0  0  0
  184.9140  178.6520  146.9020 N   0  0  0  0  0  2  0  0  0  0  0  0
  185.0160  178.4600  143.4170 C   0  0  0  0  0  0  0  0  0  0  0  0
  183.4010  178.7570  141.1870 C   0  0  0  0  0  3  0  0  0  0  0  0
  186.2610  178.7670  147.2990 N   0  0  0  0  0  2  0  0  0  0  0  0
  183.6760  178.7320  143.5680 C   0  0  0  0  0  0  0  0  0  0  0  0
  182.8350  178.8870  142.4690 C   0  0  0  0  0  3  0  0  0  0  0  0
  184.7780  178.4820  141.0340 C   0  0  0  0  0  3  0  0  0  0  0  0
  184.6220  178.6020  145.5110 C   0  0  0  0  0  0  0  0  0  0  0  0
  183.3820  178.8320  144.9200 C   0  0  0  0  0  3  0  0  0  0  0  0
  185.6060  178.3300  142.1590 C   0  0  0  0  0  3  0  0  0  0  0  0
  187.0840  177.8220  146.5240 C   0  0  2  0  0  3  0  0  0  0  0  0
  188.5260  177.9040  147.0060 C   0  0  1  0  0  3  0  0  0  0  0  0
  188.5700  177.9110  148.4650 C   0  0  0  0  0  2  0  0  0  0  0  0
  188.8650  176.6720  147.7340 N   0  0  0  0  0  2  0  0  0  0  0  0
  187.5460  176.9260  144.2130 C   0  0  0  0  0  2  0  0  0  0  0  0
  190.8980  176.7460  143.1470 C   0  0  1  0  0  0  0  0  0  0  0  0
  188.6040  177.3780  143.2160 C   0  0  1  0  0  3  0  0  0  0  0  0
  191.6590  175.7790  143.7750 F   0  0  0  0  0  0  0  0  0  0  0  0
  191.5630  177.1800  141.8470 C   0  0  0  0  0  1  0  0  0  0  0  0
  189.3550  178.4360  143.7640 O   0  0  0  0  0  0  0  0  0  0  0  0
  191.6330  178.9300  144.0450 N   0  0  0  0  0  1  0  0  0  0  0  0
  189.5280  176.2260  142.8530 C   0  0  0  0  0  2  0  0  0  0  0  0
  190.6090  177.8970  144.0910 C   0  0  2  0  0  3  0  0  0  0  0  0
  1  2  1  0  0  0  0
  1 10  1  0  0  0  0
  2 17  1  6  0  0  0
  2 13  1  0  0  0  0
  3  6  1  0  0  0  0
  4  7  1  0  0  0  0
  4  1  1  0  0  0  0
  5  8  1  0  0  0  0
  7 11  1  0  0  0  0
  8  7  2  0  0  0  0
  9  5  2  0  0  0  0
  9 12  1  0  0  0  0
 10  3  1  0  0  0  0
 11 10  2  0  0  0  0
 12  4  2  0  0  0  0
 13 14  1  0  0  0  0
 13  6  1  1  0  0  0
 14 16  1  0  0  0  0
 14 15  1  1  0  0  0
 16 15  1  0  0  0  0
 18 21  1  6  0  0  0
 18 20  1  0  0  0  0
 18 25  1  0  0  0  0
 19 22  1  0  0  0  0
 19 17  1  1  0  0  0
 22 25  1  0  0  0  0
 24 18  1  0  0  0  0
 24 19  1  0  0  0  0
 25 23  1  6  0  0  0
M  END
>  <MODEL>
1

>  <REMARK>
 VINA RESULT:      -9.7      0.000      0.000
  Name = 
  3 active torsions:
  status: ('A' for Active; 'I' for Inactive)
    1  A    between atoms: C_3  and  C_16
    2  A    between atoms: C_6  and  C_16
    3  A    between atoms: C_13  and  C_24
                            x       y       z     vdW  Elec       q    Type
                         _______ _______ _______ _____ _____    ______ ____

>  <TORSDO>
F 3

$$$$
=
 OpenBabel10272400543D

 25 29  0  0  1  0  0  0  0  0999 V2000
  185.4640  178.4690  144.5030 N   0  0  0  0  0  0  0  0  0  0  0  0
  186.8140  178.3270  145.0590 C   0  0  1  0  0  3  0  0  0  0  0  0
  184.4630  178.5970  146.6780 N   0  0  0  0  0  2  0  0  0  0  0  0
  185.0400  178.5810  143.2350 C   0  0  0  0  0  0  0  0  0  0  0  0
  183.7140  178.8460  140.8190 C   0  0  0  0  0  3  0  0  0  0  0  0
  185.7290  178.8070  147.2580 N   0  0  0  0  0  2  0  0  0  0  0  0
  183.6730  178.7300  143.2120 C   0  0  0  0  0  0  0  0  0  0  0  0
  182.9740  178.8650  142.0160 C   0  0  0  0  0  3  0  0  0  0  0  0
  185.1170  178.6960  140.8440 C   0  0  0  0  0  3  0  0  0  0  0  0
  184.3620  178.5880  145.2600 C   0  0  0  0  0  0  0  0  0  0  0  0
  183.1950  178.7400  144.5150 C   0  0  0  0  0  3  0  0  0  0  0  0
  185.8000  178.5630  142.0640 C   0  0  0  0  0  3  0  0  0  0  0  0
  186.7290  177.9740  146.5690 C   0  0  2  0  0  3  0  0  0  0  0  0
  188.0820  178.1560  147.2440 C   0  0  1  0  0  3  0  0  0  0  0  0
  187.9700  177.8900  148.6760 C   0  0  0  0  0  2  0  0  0  0  0  0
  188.5300  176.8640  147.7870 N   0  0  0  0  0  2  0  0  0  0  0  0
  187.5720  177.2320  144.3110 C   0  0  0  0  0  2  0  0  0  0  0  0
  190.4250  176.8790  142.2750 C   0  0  1  0  0  0  0  0  0  0  0  0
  189.0040  177.6600  144.0190 C   0  0  1  0  0  3  0  0  0  0  0  0
  190.2380  176.1210  141.1360 F   0  0  0  0  0  0  0  0  0  0  0  0
  191.6730  177.7420  142.1380 C   0  0  0  0  0  1  0  0  0  0  0  0
  189.9030  176.7330  144.5830 O   0  0  0  0  0  0  0  0  0  0  0  0
  191.7610  175.5070  143.8390 N   0  0  0  0  0  1  0  0  0  0  0  0
  189.2400  177.7580  142.5190 C   0  0  0  0  0  2  0  0  0  0  0  0
  190.4320  175.9990  143.5100 C   0  0  2  0  0  3  0  0  0  0  0  0
  1  2  1  0  0  0  0
  1 10  1  0  0  0  0
  2 17  1  6  0  0  0
  2 13  1  0  0  0  0
  3  6  1  0  0  0  0
  4  1  1  0  0  0  0
  5  9  2  0  0  0  0
  5  8  1  0  0  0  0
  7  4  1  0  0  0  0
  7 11  1  0  0  0  0
  8  7  2  0  0  0  0
  9 12  1  0  0  0  0
 10  3  1  0  0  0  0
 11 10  2  0  0  0  0
 12  4  2  0  0  0  0
 13 14  1  0  0  0  0
 13  6  1  1  0  0  0
 14 16  1  0  0  0  0
 14 15  1  1  0  0  0
 16 15  1  0  0  0  0
 18 21  1  6  0  0  0
 18 24  1  0  0  0  0
 18 25  1  0  0  0  0
 19 17  1  6  0  0  0
 19 22  1  0  0  0  0
 20 18  1  0  0  0  0
 24 19  1  0  0  0  0
 25 23  1  1  0  0  0
 25 22  1  0  0  0  0
M  END
>  <MODEL>
2

>  <REMARK>
 VINA RESULT:      -9.5      1.166      1.211
  Name = 
  3 active torsions:
  status: ('A' for Active; 'I' for Inactive)
    1  A    between atoms: C_3  and  C_16
    2  A    between atoms: C_6  and  C_16
    3  A    between atoms: C_13  and  C_24
                            x       y       z     vdW  Elec       q    Type
                         _______ _______ _______ _____ _____    ______ ____

>  <TORSDO>
F 3

$$$$
=
 OpenBabel10272400543D

 25 29  0  0  1  0  0  0  0  0999 V2000
  187.0350  178.1110  144.9820 N   0  0  0  0  0  0  0  0  0  0  0  0
  188.3700  178.0130  144.3820 C   0  0  1  0  0  3  0  0  0  0  0  0
  187.8570  177.5720  147.1690 N   0  0  0  0  0  2  0  0  0  0  0  0
  185.8560  178.4750  144.4530 C   0  0  0  0  0  0  0  0  0  0  0  0
  183.2460  179.1510  143.8220 C   0  0  0  0  0  3  0  0  0  0  0  0
  189.1790  177.7950  146.7360 N   0  0  0  0  0  2  0  0  0  0  0  0
  184.8830  178.4480  145.4250 C   0  0  0  0  0  0  0  0  0  0  0  0
  183.5600  178.7810  145.1430 C   0  0  0  0  0  3  0  0  0  0  0  0
  184.2470  179.1820  142.8270 C   0  0  0  0  0  3  0  0  0  0  0  0
  186.7920  177.8980  146.2840 C   0  0  0  0  0  0  0  0  0  0  0  0
  185.4560  178.0760  146.6330 C   0  0  0  0  0  3  0  0  0  0  0  0
  185.5750  178.8420  143.1370 C   0  0  0  0  0  3  0  0  0  0  0  0
  189.3370  177.2920  145.3600 C   0  0  2  0  0  3  0  0  0  0  0  0
  190.7840  177.4760  144.9240 C   0  0  1  0  0  3  0  0  0  0  0  0
  191.6780  176.7680  145.8360 C   0  0  0  0  0  2  0  0  0  0  0  0
  191.3430  176.1710  144.5370 N   0  0  0  0  0  2  0  0  0  0  0  0
  188.2930  177.2420  143.0650 C   0  0  0  0  0  2  0  0  0  0  0  0
  188.8400  177.5240  139.5970 C   0  0  1  0  0  0  0  0  0  0  0  0
  188.8590  178.0640  141.9160 C   0  0  1  0  0  3  0  0  0  0  0  0
  188.2010  176.5720  138.8270 F   0  0  0  0  0  0  0  0  0  0  0  0
  189.2440  178.7160  138.7390 C   0  0  0  0  0  1  0  0  0  0  0  0
  190.1420  177.5910  141.5770 O   0  0  0  0  0  0  0  0  0  0  0  0
  191.2430  176.9430  139.6080 N   0  0  0  0  0  1  0  0  0  0  0  0
  187.9460  177.9900  140.7010 C   0  0  0  0  0  2  0  0  0  0  0  0
  189.9980  176.9080  140.3590 C   0  0  2  0  0  3  0  0  0  0  0  0
  1 10  1  0  0  0  0
  2 17  1  6  0  0  0
  2  1  1  0  0  0  0
  2 13  1  0  0  0  0
  4  1  1  0  0  0  0
  4  7  1  0  0  0  0
  5  8  1  0  0  0  0
  6  3  1  0  0  0  0
  7 11  1  0  0  0  0
  8  7  2  0  0  0  0
  9 12  1  0  0  0  0
  9  5  2  0  0  0  0
 10 11  2  0  0  0  0
 10  3  1  0  0  0  0
 12  4  2  0  0  0  0
 13  6  1  1  0  0  0
 14 13  1  0  0  0  0
 14 15  1  1  0  0  0
 16 14  1  0  0  0  0
 16 15  1  0  0  0  0
 18 21  1  6  0  0  0
 18 25  1  0  0  0  0
 18 24  1  0  0  0  0
 19 17  1  1  0  0  0
 20 18  1  0  0  0  0
 22 19  1  0  0  0  0
 24 19  1  0  0  0  0
 25 23  1  6  0  0  0
 25 22  1  0  0  0  0
M  END
>  <MODEL>
3

>  <REMARK>
 VINA RESULT:      -9.3      2.400      3.143
  Name = 
  3 active torsions:
  status: ('A' for Active; 'I' for Inactive)
    1  A    between atoms: C_3  and  C_16
    2  A    between atoms: C_6  and  C_16
    3  A    between atoms: C_13  and  C_24
                            x       y       z     vdW  Elec       q    Type
                         _______ _______ _______ _____ _____    ______ ____

>  <TORSDO>
F 3

$$$$
=
 OpenBabel10272400543D

 25 29  0  0  1  0  0  0  0  0999 V2000
  188.1780  177.5070  144.9170 N   0  0  0  0  0  0  0  0  0  0  0  0
  187.5530  177.5480  143.5900 C   0  0  1  0  0  3  0  0  0  0  0  0
  186.1690  178.2280  146.0080 N   0  0  0  0  0  2  0  0  0  0  0  0
  189.3990  177.1050  145.3040 C   0  0  0  0  0  0  0  0  0  0  0  0
  191.7610  176.3900  146.5600 C   0  0  0  0  0  3  0  0  0  0  0  0
  185.4290  177.9630  144.8400 N   0  0  0  0  0  2  0  0  0  0  0  0
  189.5160  177.2200  146.6700 C   0  0  0  0  0  0  0  0  0  0  0  0
  190.6890  176.8700  147.3340 C   0  0  0  0  0  3  0  0  0  0  0  0
  191.6380  176.2690  145.1590 C   0  0  0  0  0  3  0  0  0  0  0  0
  187.5340  177.8320  146.0480 C   0  0  0  0  0  0  0  0  0  0  0  0
  188.3190  177.6910  147.1900 C   0  0  0  0  0  3  0  0  0  0  0  0
  190.4440  176.6280  144.5120 C   0  0  0  0  0  3  0  0  0  0  0  0
  186.2220  178.3440  143.6590 C   0  0  2  0  0  3  0  0  0  0  0  0
  185.3910  178.1170  142.4030 C   0  0  1  0  0  3  0  0  0  0  0  0
  184.1070  178.8050  142.5180 C   0  0  0  0  0  2  0  0  0  0  0  0
  185.1850  179.4030  141.7190 N   0  0  0  0  0  2  0  0  0  0  0  0
  188.5010  178.2030  142.5880 C   0  0  0  0  0  2  0  0  0  0  0  0
  190.2330  177.4020  139.6280 C   0  0  1  0  0  0  0  0  0  0  0  0
  188.5060  177.4490  141.2660 C   0  0  1  0  0  3  0  0  0  0  0  0
  191.5520  177.8120  139.5950 F   0  0  0  0  0  0  0  0  0  0  0  0
  189.9890  176.3200  138.5840 C   0  0  0  0  0  1  0  0  0  0  0  0
  188.1280  178.3160  140.2210 O   0  0  0  0  0  0  0  0  0  0  0  0
  188.9780  178.8990  138.1120 N   0  0  0  0  0  1  0  0  0  0  0  0
  189.8840  176.8710  140.9810 C   0  0  0  0  0  2  0  0  0  0  0  0
  189.2990  178.5890  139.4970 C   0  0  2  0  0  3  0  0  0  0  0  0
  1  4  1  0  0  0  0
  1 10  1  0  0  0  0
  2 17  1  6  0  0  0
  2 13  1  0  0  0  0
  2  1  1  0  0  0  0
  3 10  1  0  0  0  0
  4  7  1  0  0  0  0
  5  8  1  0  0  0  0
  6  3  1  0  0  0  0
  7 11  1  0  0  0  0
  7  8  2  0  0  0  0
  9  5  2  0  0  0  0
 10 11  2  0  0  0  0
 12  9  1  0  0  0  0
 12  4  2  0  0  0  0
 13  6  1  1  0  0  0
 14 15  1  1  0  0  0
 14 13  1  0  0  0  0
 16 14  1  0  0  0  0
 16 15  1  0  0  0  0
 18 21  1  6  0  0  0
 18 24  1  0  0  0  0
 19 17  1  1  0  0  0
 20 18  1  0  0  0  0
 22 19  1  0  0  0  0
 24 19  1  0  0  0  0
 25 23  1  6  0  0  0
 25 18  1  0  0  0  0
 25 22  1  0  0  0  0
M  END
>  <MODEL>
4

>  <REMARK>
 VINA RESULT:      -9.2      2.613      5.368
  Name = 
  3 active torsions:
  status: ('A' for Active; 'I' for Inactive)
    1  A    between atoms: C_3  and  C_16
    2  A    between atoms: C_6  and  C_16
    3  A    between atoms: C_13  and  C_24
                            x       y       z     vdW  Elec       q    Type
                         _______ _______ _______ _____ _____    ______ ____

>  <TORSDO>
F 3

$$$$
=
 OpenBabel10272400543D

 25 29  0  0  1  0  0  0  0  0999 V2000
  186.6080  178.0670  144.4540 N   0  0  0  0  0  0  0  0  0  0  0  0
  186.4780  177.9190  143.0000 C   0  0  1  0  0  3  0  0  0  0  0  0
  184.3790  178.9240  144.6760 N   0  0  0  0  0  2  0  0  0  0  0  0
  187.6020  177.7290  145.2890 C   0  0  0  0  0  0  0  0  0  0  0  0
  189.3550  177.2070  147.3680 C   0  0  0  0  0  3  0  0  0  0  0  0
  184.0750  178.4950  143.3700 N   0  0  0  0  0  2  0  0  0  0  0  0
  187.2470  178.0340  146.5830 C   0  0  0  0  0  0  0  0  0  0  0  0
  188.1040  177.7860  147.6520 C   0  0  0  0  0  3  0  0  0  0  0  0
  189.7160  176.8910  146.0410 C   0  0  0  0  0  3  0  0  0  0  0  0
  185.6290  178.5440  145.2390 C   0  0  0  0  0  0  0  0  0  0  0  0
  185.9670  178.5680  146.5890 C   0  0  0  0  0  3  0  0  0  0  0  0
  188.8330  177.1500  144.9790 C   0  0  0  0  0  3  0  0  0  0  0  0
  185.2420  178.7110  142.4970 C   0  0  2  0  0  3  0  0  0  0  0  0
  184.8830  178.3080  141.0730 C   0  0  1  0  0  3  0  0  0  0  0  0
  183.6100  178.9090  140.6850 C   0  0  0  0  0  2  0  0  0  0  0  0
  184.8690  179.5050  140.2180 N   0  0  0  0  0  2  0  0  0  0  0  0
  187.7410  178.4330  142.3110 C   0  0  0  0  0  2  0  0  0  0  0  0
  190.2580  177.4450  140.0540 C   0  0  1  0  0  0  0  0  0  0  0  0
  188.1590  177.5080  141.1760 C   0  0  1  0  0  3  0  0  0  0  0  0
  191.4990  178.0040  140.2830 F   0  0  0  0  0  0  0  0  0  0  0  0
  190.3890  176.2070  139.1760 C   0  0  0  0  0  1  0  0  0  0  0  0
  188.0040  178.1690  139.9410 O   0  0  0  0  0  0  0  0  0  0  0  0
  189.3340  178.5520  138.0450 N   0  0  0  0  0  1  0  0  0  0  0  0
  189.6050  177.0690  141.3450 C   0  0  0  0  0  2  0  0  0  0  0  0
  189.2980  178.4800  139.4980 C   0  0  2  0  0  3  0  0  0  0  0  0
  1 10  1  0  0  0  0
  1  4  1  0  0  0  0
  2 17  1  6  0  0  0
  2  1  1  0  0  0  0
  3 10  1  0  0  0  0
  4  7  1  0  0  0  0
  5  8  1  0  0  0  0
  6  3  1  0  0  0  0
  7 11  1  0  0  0  0
  7  8  2  0  0  0  0
  9  5  2  0  0  0  0
 10 11  2  0  0  0  0
 12  4  2  0  0  0  0
 12  9  1  0  0  0  0
 13  2  1  0  0  0  0
 13  6  1  1  0  0  0
 14 15  1  1  0  0  0
 14 13  1  0  0  0  0
 16 15  1  0  0  0  0
 16 14  1  0  0  0  0
 18 21  1  6  0  0  0
 18 20  1  0  0  0  0
 18 24  1  0  0  0  0
 19 24  1  0  0  0  0
 19 17  1  1  0  0  0
 22 19  1  0  0  0  0
 25 23  1  6  0  0  0
 25 22  1  0  0  0  0
 25 18  1  0  0  0  0
M  END
>  <MODEL>
5

>  <REMARK>
 VINA RESULT:      -9.1      2.479      5.081
  Name = 
  3 active torsions:
  status: ('A' for Active; 'I' for Inactive)
    1  A    between atoms: C_3  and  C_16
    2  A    between atoms: C_6  and  C_16
    3  A    between atoms: C_13  and  C_24
                            x       y       z     vdW  Elec       q    Type
                         _______ _______ _______ _____ _____    ______ ____

>  <TORSDO>
F 3

$$$$
=
 OpenBabel10272400543D

 25 29  0  0  1  0  0  0  0  0999 V2000
  189.4430  177.5290  144.1370 N   0  0  0  0  0  0  0  0  0  0  0  0
  188.8350  177.8910  142.8520 C   0  0  1  0  0  3  0  0  0  0  0  0
  191.5620  177.0450  143.1240 N   0  0  0  0  0  2  0  0  0  0  0  0
  188.9560  177.5780  145.3870 C   0  0  0  0  0  0  0  0  0  0  0  0
  188.4000  177.5080  148.0990 C   0  0  0  0  0  3  0  0  0  0  0  0
  191.1530  177.6910  141.9410 N   0  0  0  0  0  2  0  0  0  0  0  0
  189.9210  177.1670  146.2780 C   0  0  0  0  0  0  0  0  0  0  0  0
  189.6750  177.1200  147.6480 C   0  0  0  0  0  3  0  0  0  0  0  0
  187.4130  177.9330  147.1830 C   0  0  0  0  0  3  0  0  0  0  0  0
  190.7170  177.1270  144.2650 C   0  0  0  0  0  0  0  0  0  0  0  0
  191.0830  176.8650  145.5830 C   0  0  0  0  0  3  0  0  0  0  0  0
  187.6850  177.9730  145.8050 C   0  0  0  0  0  3  0  0  0  0  0  0
  189.7330  177.3960  141.6860 C   0  0  2  0  0  3  0  0  0  0  0  0
  189.3170  178.0430  140.3710 C   0  0  1  0  0  3  0  0  0  0  0  0
  190.1890  177.5920  139.2900 C   0  0  0  0  0  2  0  0  0  0  0  0
  188.8540  176.9990  139.4420 N   0  0  0  0  0  2  0  0  0  0  0  0
  187.4460  177.2650  142.7400 C   0  0  0  0  0  2  0  0  0  0  0  0
  184.2090  178.2080  141.7200 C   0  0  1  0  0  0  0  0  0  0  0  0
  186.3640  178.3360  142.7250 C   0  0  1  0  0  3  0  0  0  0  0  0
  183.4490  177.1900  141.1780 F   0  0  0  0  0  0  0  0  0  0  0  0
  183.3150  179.3610  142.1570 C   0  0  0  0  0  1  0  0  0  0  0  0
  186.4150  179.0490  141.5110 O   0  0  0  0  0  0  0  0  0  0  0  0
  184.8820  179.6750  139.8470 N   0  0  0  0  0  1  0  0  0  0  0  0
  184.9870  177.7110  142.8960 C   0  0  0  0  0  2  0  0  0  0  0  0
  185.3070  178.6260  140.7610 C   0  0  2  0  0  3  0  0  0  0  0  0
  1 10  1  0  0  0  0
  1  4  1  0  0  0  0
  2 17  1  6  0  0  0
  2  1  1  0  0  0  0
  3 10  1  0  0  0  0
  4 12  2  0  0  0  0
  4  7  1  0  0  0  0
  6  3  1  0  0  0  0
  7  8  2  0  0  0  0
  8  5  1  0  0  0  0
  9  5  2  0  0  0  0
 10 11  2  0  0  0  0
 11  7  1  0  0  0  0
 12  9  1  0  0  0  0
 13  6  1  1  0  0  0
 13  2  1  0  0  0  0
 14 15  1  6  0  0  0
 14 13  1  0  0  0  0
 15 16  1  0  0  0  0
 16 14  1  0  0  0  0
 18 21  1  1  0  0  0
 18 24  1  0  0  0  0
 19 17  1  6  0  0  0
 19 24  1  0  0  0  0
 20 18  1  0  0  0  0
 22 19  1  0  0  0  0
 25 23  1  6  0  0  0
 25 22  1  0  0  0  0
 25 18  1  0  0  0  0
M  END
>  <MODEL>
6

>  <REMARK>
 VINA RESULT:      -8.8      2.911      6.645
  Name = 
  3 active torsions:
  status: ('A' for Active; 'I' for Inactive)
    1  A    between atoms: C_3  and  C_16
    2  A    between atoms: C_6  and  C_16
    3  A    between atoms: C_13  and  C_24
                            x       y       z     vdW  Elec       q    Type
                         _______ _______ _______ _____ _____    ______ ____

>  <TORSDO>
F 3

$$$$
=
 OpenBabel10272400543D

 25 29  0  0  1  0  0  0  0  0999 V2000
  186.5010  178.0860  145.4760 N   0  0  0  0  0  0  0  0  0  0  0  0
  187.9220  177.7800  145.2730 C   0  0  1  0  0  3  0  0  0  0  0  0
  186.7300  178.0890  147.8630 N   0  0  0  0  0  2  0  0  0  0  0  0
  185.5220  178.3530  144.5970 C   0  0  0  0  0  0  0  0  0  0  0  0
  183.2170  178.9570  143.1870 C   0  0  0  0  0  3  0  0  0  0  0  0
  188.1320  178.1370  147.7370 N   0  0  0  0  0  2  0  0  0  0  0  0
  184.3520  178.6170  145.2700 C   0  0  0  0  0  0  0  0  0  0  0  0
  183.1740  178.9230  144.5930 C   0  0  0  0  0  3  0  0  0  0  0  0
  184.4200  178.6900  142.4980 C   0  0  0  0  0  3  0  0  0  0  0  0
  185.9410  178.2240  146.6880 C   0  0  0  0  0  0  0  0  0  0  0  0
  184.5860  178.5420  146.6360 C   0  0  0  0  0  3  0  0  0  0  0  0
  185.5960  178.3840  143.2040 C   0  0  0  0  0  3  0  0  0  0  0  0
  188.5530  177.2930  146.6050 C   0  0  2  0  0  3  0  0  0  0  0  0
  190.0730  177.2970  146.5170 C   0  0  1  0  0  3  0  0  0  0  0  0
  190.6550  177.3290  147.8560 C   0  0  0  0  0  2  0  0  0  0  0  0
  190.5970  176.0600  147.1180 N   0  0  0  0  0  2  0  0  0  0  0  0
  188.0730  176.7030  144.2010 C   0  0  0  0  0  2  0  0  0  0  0  0
  191.3040  176.8060  142.8040 C   0  0  1  0  0  0  0  0  0  0  0  0
  188.9680  177.1820  143.0660 C   0  0  1  0  0  3  0  0  0  0  0  0
  192.2320  175.9880  143.4180 F   0  0  0  0  0  0  0  0  0  0  0  0
  191.7840  177.1970  141.4120 C   0  0  0  0  0  1  0  0  0  0  0  0
  189.6370  178.3610  143.4520 O   0  0  0  0  0  0  0  0  0  0  0  0
  191.8550  179.1270  143.4520 N   0  0  0  0  0  1  0  0  0  0  0  0
  189.9850  176.1120  142.6950 C   0  0  0  0  0  2  0  0  0  0  0  0
  190.9720  177.9950  143.6840 C   0  0  2  0  0  3  0  0  0  0  0  0
  1 10  1  0  0  0  0
  2 17  1  6  0  0  0
  2  1  1  0  0  0  0
  2 13  1  0  0  0  0
  4  7  1  0  0  0  0
  4  1  1  0  0  0  0
  5  8  1  0  0  0  0
  6  3  1  0  0  0  0
  7 11  1  0  0  0  0
  8  7  2  0  0  0  0
  9  5  2  0  0  0  0
  9 12  1  0  0  0  0
 10  3  1  0  0  0  0
 11 10  2  0  0  0  0
 12  4  2  0  0  0  0
 13  6  1  1  0  0  0
 14 13  1  0  0  0  0
 14 16  1  0  0  0  0
 14 15  1  1  0  0  0
 16 15  1  0  0  0  0
 18 21  1  6  0  0  0
 18 20  1  0  0  0  0
 18 25  1  0  0  0  0
 19 22  1  0  0  0  0
 19 17  1  1  0  0  0
 22 25  1  0  0  0  0
 24 18  1  0  0  0  0
 24 19  1  0  0  0  0
 25 23  1  6  0  0  0
M  END
>  <MODEL>
7

>  <REMARK>
 VINA RESULT:      -8.7      1.061      1.458
  Name = 
  3 active torsions:
  status: ('A' for Active; 'I' for Inactive)
    1  A    between atoms: C_3  and  C_16
    2  A    between atoms: C_6  and  C_16
    3  A    between atoms: C_13  and  C_24
                            x       y       z     vdW  Elec       q    Type
                         _______ _______ _______ _____ _____    ______ ____

>  <TORSDO>
F 3

$$$$
=
 OpenBabel10272400543D

 25 29  0  0  1  0  0  0  0  0999 V2000
  186.9310  178.1600  142.2540 N   0  0  0  0  0  0  0  0  0  0  0  0
  188.2370  177.5180  142.4370 C   0  0  1  0  0  3  0  0  0  0  0  0
  187.2850  178.4640  139.9030 N   0  0  0  0  0  2  0  0  0  0  0  0
  185.9230  178.3700  143.1170 C   0  0  0  0  0  0  0  0  0  0  0  0
  183.6140  179.0060  144.5060 C   0  0  0  0  0  3  0  0  0  0  0  0
  188.3730  177.5700  139.9420 N   0  0  0  0  0  2  0  0  0  0  0  0
  184.8770  178.9830  142.4690 C   0  0  0  0  0  0  0  0  0  0  0  0
  183.7010  179.3180  143.1360 C   0  0  0  0  0  3  0  0  0  0  0  0
  184.6880  178.3730  145.1680 C   0  0  0  0  0  3  0  0  0  0  0  0
  186.4870  178.6100  141.0700 C   0  0  0  0  0  0  0  0  0  0  0  0
  185.2070  179.1560  141.1320 C   0  0  0  0  0  3  0  0  0  0  0  0
  185.8640  178.0440  144.4720 C   0  0  0  0  0  3  0  0  0  0  0  0
  189.1280  177.7710  141.1910 C   0  0  2  0  0  3  0  0  0  0  0  0
  190.3400  176.8490  141.1960 C   0  0  1  0  0  3  0  0  0  0  0  0
  191.2210  177.1690  140.0760 C   0  0  0  0  0  2  0  0  0  0  0  0
  191.5550  177.6460  141.4250 N   0  0  0  0  0  2  0  0  0  0  0  0
  188.9190  178.0730  143.6860 C   0  0  0  0  0  2  0  0  0  0  0  0
  189.7240  177.2430  147.0130 C   0  0  1  0  0  0  0  0  0  0  0  0
  189.1420  176.9780  144.7200 C   0  0  1  0  0  3  0  0  0  0  0  0
  189.7740  178.3130  147.8850 F   0  0  0  0  0  0  0  0  0  0  0  0
  189.5810  175.9380  147.7840 C   0  0  0  0  0  1  0  0  0  0  0  0
  190.5200  176.7120  144.8440 O   0  0  0  0  0  0  0  0  0  0  0  0
  192.0600  176.5410  146.6070 N   0  0  0  0  0  1  0  0  0  0  0  0
  188.5740  177.3890  146.0700 C   0  0  0  0  0  2  0  0  0  0  0  0
  190.9150  177.2620  146.0730 C   0  0  2  0  0  3  0  0  0  0  0  0
  1  2  1  0  0  0  0
  1  4  1  0  0  0  0
  2 17  1  1  0  0  0
  3  6  1  0  0  0  0
  3 10  1  0  0  0  0
  4 12  1  0  0  0  0
  5  9  1  0  0  0  0
  7  4  2  0  0  0  0
  7  8  1  0  0  0  0
  8  5  2  0  0  0  0
 10 11  2  0  0  0  0
 10  1  1  0  0  0  0
 11  7  1  0  0  0  0
 12  9  2  0  0  0  0
 13  6  1  6  0  0  0
 13 14  1  0  0  0  0
 13  2  1  0  0  0  0
 14 15  1  6  0  0  0
 14 16  1  0  0  0  0
 15 16  1  0  0  0  0
 18 21  1  1  0  0  0
 18 20  1  0  0  0  0
 19 17  1  6  0  0  0
 19 22  1  0  0  0  0
 19 24  1  0  0  0  0
 22 25  1  0  0  0  0
 24 18  1  0  0  0  0
 25 23  1  1  0  0  0
 25 18  1  0  0  0  0
M  END
>  <MODEL>
8

>  <REMARK>
 VINA RESULT:      -8.7      2.436      4.614
  Name = 
  3 active torsions:
  status: ('A' for Active; 'I' for Inactive)
    1  A    between atoms: C_3  and  C_16
    2  A    between atoms: C_6  and  C_16
    3  A    between atoms: C_13  and  C_24
                            x       y       z     vdW  Elec       q    Type
                         _______ _______ _______ _____ _____    ______ ____

>  <TORSDO>
F 3

$$$$
=
 OpenBabel10272400543D

 25 29  0  0  1  0  0  0  0  0999 V2000
  186.4370  178.0460  143.2400 N   0  0  0  0  0  0  0  0  0  0  0  0
  186.2570  178.0910  141.7840 C   0  0  1  0  0  3  0  0  0  0  0  0
  184.1630  178.6850  143.6520 N   0  0  0  0  0  2  0  0  0  0  0  0
  187.4880  177.6740  143.9870 C   0  0  0  0  0  0  0  0  0  0  0  0
  189.3620  177.0090  145.9140 C   0  0  0  0  0  3  0  0  0  0  0  0
  183.8360  178.4180  142.3080 N   0  0  0  0  0  2  0  0  0  0  0  0
  187.1670  177.7680  145.3210 C   0  0  0  0  0  0  0  0  0  0  0  0
  188.0850  177.4420  146.3170 C   0  0  0  0  0  3  0  0  0  0  0  0
  189.6880  176.9100  144.5440 C   0  0  0  0  0  3  0  0  0  0  0  0
  185.4600  178.3300  144.1150 C   0  0  0  0  0  0  0  0  0  0  0  0
  185.8520  178.1930  145.4440 C   0  0  0  0  0  3  0  0  0  0  0  0
  188.7440  177.2430  143.5580 C   0  0  0  0  0  3  0  0  0  0  0  0
  184.9450  178.8450  141.4380 C   0  0  2  0  0  3  0  0  0  0  0  0
  184.5570  178.6160  139.9840 C   0  0  1  0  0  3  0  0  0  0  0  0
  183.2550  179.2190  139.7090 C   0  0  0  0  0  2  0  0  0  0  0  0
  184.4810  179.9120  139.2920 N   0  0  0  0  0  2  0  0  0  0  0  0
  187.4480  178.7940  141.1350 C   0  0  0  0  0  2  0  0  0  0  0  0
  189.1080  178.3820  138.0570 C   0  0  1  0  0  0  0  0  0  0  0  0
  188.1850  177.8580  140.1870 C   0  0  1  0  0  3  0  0  0  0  0  0
  189.3570  179.5520  137.3670 F   0  0  0  0  0  0  0  0  0  0  0  0
  190.0060  177.2640  137.5420 C   0  0  0  0  0  1  0  0  0  0  0  0
  187.2960  177.3760  139.2060 O   0  0  0  0  0  0  0  0  0  0  0  0
  187.2800  177.2210  136.8640 N   0  0  0  0  0  1  0  0  0  0  0  0
  189.3480  178.5750  139.5190 C   0  0  0  0  0  2  0  0  0  0  0  0
  187.6320  178.0380  138.0150 C   0  0  2  0  0  3  0  0  0  0  0  0
  1  4  1  0  0  0  0
  1 10  1  0  0  0  0
  2 17  1  6  0  0  0
  2  1  1  0  0  0  0
  3 10  1  0  0  0  0
  4  7  1  0  0  0  0
  5  8  1  0  0  0  0
  6  3  1  0  0  0  0
  7 11  1  0  0  0  0
  7  8  2  0  0  0  0
  9  5  2  0  0  0  0
 10 11  2  0  0  0  0
 12  4  2  0  0  0  0
 12  9  1  0  0  0  0
 13  2  1  0  0  0  0
 13  6  1  1  0  0  0
 14 15  1  1  0  0  0
 14 13  1  0  0  0  0
 16 15  1  0  0  0  0
 16 14  1  0  0  0  0
 18 21  1  6  0  0  0
 18 24  1  0  0  0  0
 19 17  1  1  0  0  0
 20 18  1  0  0  0  0
 22 19  1  0  0  0  0
 24 19  1  0  0  0  0
 25 23  1  6  0  0  0
 25 18  1  0  0  0  0
 25 22  1  0  0  0  0
M  END
>  <MODEL>
9

>  <REMARK>
 VINA RESULT:      -8.3      3.450      5.825
  Name = 
  3 active torsions:
  status: ('A' for Active; 'I' for Inactive)
    1  A    between atoms: C_3  and  C_16
    2  A    between atoms: C_6  and  C_16
    3  A    between atoms: C_13  and  C_24
                            x       y       z     vdW  Elec       q    Type
                         _______ _______ _______ _____ _____    ______ ____

>  <TORSDO>
F 3

$$$$
