=
 OpenBabel10272401073D

 27 31  0  0  1  0  0  0  0  0999 V2000
  182.9530  179.2560  138.1060 C   0  0  1  0  0  3  0  0  0  0  0  0
  179.9820  181.8330  138.6510 C   0  0  0  0  0  3  0  0  0  0  0  0
  182.4280  180.4340  138.9290 C   0  0  1  0  0  0  0  0  0  0  0  0
  181.3110  180.2230  139.9230 C   0  0  0  0  0  3  0  0  0  0  0  0
  183.8230  179.8880  139.2260 C   0  0  1  0  0  3  0  0  0  0  0  0
  180.1600  180.8780  139.7630 C   0  0  0  0  0  3  0  0  0  0  0  0
  181.0140  182.2140  137.8880 C   0  0  0  0  0  3  0  0  0  0  0  0
  182.4220  181.7600  138.1700 C   0  0  0  0  0  2  0  0  0  0  0  0
  183.9110  179.0680  140.4400 N   0  0  0  0  0  0  0  0  0  0  0  0
  186.2550  178.7330  140.4130 O   0  0  0  0  0  0  0  0  0  0  0  0
  183.7790  179.0250  145.1880 C   0  0  0  0  0  3  0  0  0  0  0  0
  185.0800  178.9130  145.4640 C   0  0  0  0  0  3  0  0  0  0  0  0
  182.9530  179.1380  141.5440 C   0  0  0  0  0  2  0  0  0  0  0  0
  186.0560  177.9470  143.3460 C   0  0  0  0  0  0  0  0  0  0  0  0
  187.1140  177.2980  142.8000 F   0  0  0  0  0  0  0  0  0  0  0  0
  185.0030  178.4530  142.4420 C   0  0  0  0  0  0  0  0  0  0  0  0
  186.0870  178.1850  144.6640 C   0  0  0  0  0  3  0  0  0  0  0  0
  183.7320  178.6800  142.7430 C   0  0  0  0  0  0  0  0  0  0  0  0
  185.1580  178.7250  141.0310 C   0  0  0  0  0  0  0  0  0  0  0  0
  183.1020  178.3350  144.0480 C   0  0  0  0  0  2  0  0  0  0  0  0
  181.5180  175.0370  139.2420 C   0  0  0  0  0  3  0  0  0  0  0  0
  180.4650  175.9670  139.7430 C   0  0  0  0  0  2  0  0  0  0  0  0
  182.2950  177.9250  138.4000 C   0  0  0  0  0  0  0  0  0  0  0  0
  182.6900  175.4520  138.7610 C   0  0  0  0  0  3  0  0  0  0  0  0
  180.0250  176.9090  138.6750 C   0  0  0  0  0  3  0  0  0  0  0  0
  180.8470  177.7940  138.1100 C   0  0  0  0  0  3  0  0  0  0  0  0
  183.0930  176.8620  138.5850 C   0  0  0  0  0  3  0  0  0  0  0  0
  1 23  1  1  0  0  0
  1  3  1  0  0  0  0
  1  5  1  0  0  0  0
  2  6  1  0  0  0  0
  3  8  1  6  0  0  0
  3  5  1  0  0  0  0
  3  4  1  0  0  0  0
  5  9  1  1  0  0  0
  6  4  2  0  0  0  0
  7  8  1  0  0  0  0
  7  2  2  0  0  0  0
  9 19  1  0  0  0  0
  9 13  1  0  0  0  0
 10 19  2  0  0  0  0
 11 12  2  0  0  0  0
 13 18  1  0  0  0  0
 14 17  2  0  0  0  0
 15 14  1  0  0  0  0
 16 18  2  0  0  0  0
 16 14  1  0  0  0  0
 17 12  1  0  0  0  0
 18 20  1  0  0  0  0
 19 16  1  0  0  0  0
 20 11  1  0  0  0  0
 21 22  1  0  0  0  0
 23 27  2  0  0  0  0
 24 21  2  0  0  0  0
 25 22  1  0  0  0  0
 26 23  1  0  0  0  0
 26 25  2  0  0  0  0
 27 24  1  0  0  0  0
M  END
>  <MODEL>
1

>  <REMARK>
 VINA RESULT:      -6.6      0.000      0.000
  Name = 
  2 active torsions:
  status: ('A' for Active; 'I' for Inactive)
    1  A    between atoms: C_1  and  C_18
    2  A    between atoms: N_2  and  C_15
                            x       y       z     vdW  Elec       q    Type
                         _______ _______ _______ _____ _____    ______ ____

>  <TORSDO>
F 2

$$$$
=
 OpenBabel10272401073D

 27 31  0  0  1  0  0  0  0  0999 V2000
  189.8240  177.4590  136.8020 C   0  0  1  0  0  3  0  0  0  0  0  0
  192.7970  174.8400  136.5390 C   0  0  0  0  0  3  0  0  0  0  0  0
  190.2680  176.0890  136.2860 C   0  0  1  0  0  0  0  0  0  0  0  0
  190.4610  174.9450  137.2530 C   0  0  0  0  0  3  0  0  0  0  0  0
  188.8590  176.5800  135.9620 C   0  0  1  0  0  3  0  0  0  0  0  0
  191.6640  174.3820  137.3700 C   0  0  0  0  0  3  0  0  0  0  0  0
  192.6150  175.6890  135.5210 C   0  0  0  0  0  3  0  0  0  0  0  0
  191.2430  176.1590  135.1120 C   0  0  0  0  0  2  0  0  0  0  0  0
  187.7950  175.9490  136.7520 N   0  0  0  0  0  0  0  0  0  0  0  0
  186.1320  177.5960  136.3980 O   0  0  0  0  0  0  0  0  0  0  0  0
  184.5640  172.4720  136.9500 C   0  0  0  0  0  3  0  0  0  0  0  0
  183.4510  173.1620  136.6890 C   0  0  0  0  0  3  0  0  0  0  0  0
  187.6990  174.5070  136.9880 C   0  0  0  0  0  2  0  0  0  0  0  0
  184.0730  175.5360  137.2810 C   0  0  0  0  0  0  0  0  0  0  0  0
  183.6010  176.7710  137.5850 F   0  0  0  0  0  0  0  0  0  0  0  0
  185.5280  175.3740  137.0760 C   0  0  0  0  0  0  0  0  0  0  0  0
  183.1770  174.5610  137.0780 C   0  0  0  0  0  3  0  0  0  0  0  0
  186.2380  174.2660  137.2330 C   0  0  0  0  0  0  0  0  0  0  0  0
  186.4570  176.4270  136.7360 C   0  0  0  0  0  0  0  0  0  0  0  0
  185.6970  172.9890  137.7760 C   0  0  0  0  0  2  0  0  0  0  0  0
  188.4670  177.7660  141.1850 C   0  0  0  0  0  3  0  0  0  0  0  0
  189.3650  176.5760  141.1260 C   0  0  0  0  0  2  0  0  0  0  0  0
  189.5810  177.5350  138.2930 C   0  0  0  0  0  0  0  0  0  0  0  0
  188.0450  178.4160  140.1010 C   0  0  0  0  0  3  0  0  0  0  0  0
  190.6580  176.9100  140.4630 C   0  0  0  0  0  3  0  0  0  0  0  0
  190.7370  177.3060  139.1930 C   0  0  0  0  0  3  0  0  0  0  0  0
  188.4460  178.1170  138.7120 C   0  0  0  0  0  3  0  0  0  0  0  0
  1 23  1  1  0  0  0
  2  6  1  0  0  0  0
  3  8  1  6  0  0  0
  3  1  1  0  0  0  0
  3  4  1  0  0  0  0
  4  6  2  0  0  0  0
  5  3  1  0  0  0  0
  5  9  1  1  0  0  0
  5  1  1  0  0  0  0
  7  2  2  0  0  0  0
  8  7  1  0  0  0  0
  9 13  1  0  0  0  0
 10 19  2  0  0  0  0
 11 20  1  0  0  0  0
 12 11  2  0  0  0  0
 12 17  1  0  0  0  0
 13 18  1  0  0  0  0
 14 15  1  0  0  0  0
 16 18  2  0  0  0  0
 16 14  1  0  0  0  0
 17 14  2  0  0  0  0
 18 20  1  0  0  0  0
 19  9  1  0  0  0  0
 19 16  1  0  0  0  0
 22 21  1  0  0  0  0
 23 27  2  0  0  0  0
 23 26  1  0  0  0  0
 24 21  2  0  0  0  0
 25 22  1  0  0  0  0
 26 25  2  0  0  0  0
 27 24  1  0  0  0  0
M  END
>  <MODEL>
2

>  <REMARK>
 VINA RESULT:      -6.2      5.779      9.003
  Name = 
  2 active torsions:
  status: ('A' for Active; 'I' for Inactive)
    1  A    between atoms: C_1  and  C_18
    2  A    between atoms: N_2  and  C_15
                            x       y       z     vdW  Elec       q    Type
                         _______ _______ _______ _____ _____    ______ ____

>  <TORSDO>
F 2

$$$$
=
 OpenBabel10272401073D

 27 31  0  0  1  0  0  0  0  0999 V2000
  180.1260  177.6060  138.5600 C   0  0  1  0  0  3  0  0  0  0  0  0
  182.1440  176.2920  135.4030 C   0  0  0  0  0  3  0  0  0  0  0  0
  181.3340  176.8080  138.0670 C   0  0  1  0  0  0  0  0  0  0  0  0
  182.5250  177.5270  137.4780 C   0  0  0  0  0  3  0  0  0  0  0  0
  181.0640  176.8880  139.5680 C   0  0  1  0  0  3  0  0  0  0  0  0
  182.8790  177.2820  136.2160 C   0  0  0  0  0  3  0  0  0  0  0  0
  181.2350  175.4780  135.9520 C   0  0  0  0  0  3  0  0  0  0  0  0
  180.9690  175.4650  137.4350 C   0  0  0  0  0  2  0  0  0  0  0  0
  181.9530  177.7980  140.3000 N   0  0  0  0  0  0  0  0  0  0  0  0
  180.6240  178.0230  142.2470 O   0  0  0  0  0  0  0  0  0  0  0  0
  185.9800  178.2290  142.7820 C   0  0  0  0  0  3  0  0  0  0  0  0
  185.4920  178.3030  144.0230 C   0  0  0  0  0  3  0  0  0  0  0  0
  183.4020  177.8610  140.1010 C   0  0  0  0  0  2  0  0  0  0  0  0
  183.1050  179.0500  143.6780 C   0  0  0  0  0  0  0  0  0  0  0  0
  182.0140  179.6050  144.2620 F   0  0  0  0  0  0  0  0  0  0  0  0
  182.9710  178.5210  142.3040 C   0  0  0  0  0  0  0  0  0  0  0  0
  184.2100  178.9190  144.4240 C   0  0  0  0  0  3  0  0  0  0  0  0
  183.9350  178.3780  141.4050 C   0  0  0  0  0  0  0  0  0  0  0  0
  181.7360  178.1300  141.6650 C   0  0  0  0  0  0  0  0  0  0  0  0
  185.3340  178.8550  141.5890 C   0  0  0  0  0  2  0  0  0  0  0  0
  180.5950  182.1740  138.8110 C   0  0  0  0  0  3  0  0  0  0  0  0
  181.4940  181.7390  137.7030 C   0  0  0  0  0  2  0  0  0  0  0  0
  180.2560  179.1080  138.4340 C   0  0  0  0  0  0  0  0  0  0  0  0
  179.9820  181.3210  139.6320 C   0  0  0  0  0  3  0  0  0  0  0  0
  180.7710  180.8680  136.7330 C   0  0  0  0  0  3  0  0  0  0  0  0
  180.2520  179.6880  137.0690 C   0  0  0  0  0  3  0  0  0  0  0  0
  180.0350  179.8480  139.5320 C   0  0  0  0  0  3  0  0  0  0  0  0
  1 23  1  1  0  0  0
  1  5  1  0  0  0  0
  2  7  2  0  0  0  0
  2  6  1  0  0  0  0
  3  8  1  6  0  0  0
  3  1  1  0  0  0  0
  3  5  1  0  0  0  0
  4  3  1  0  0  0  0
  5  9  1  1  0  0  0
  6  4  2  0  0  0  0
  7  8  1  0  0  0  0
  9 19  1  0  0  0  0
 11 12  2  0  0  0  0
 12 17  1  0  0  0  0
 13  9  1  0  0  0  0
 13 18  1  0  0  0  0
 14 15  1  0  0  0  0
 14 17  2  0  0  0  0
 16 14  1  0  0  0  0
 18 20  1  0  0  0  0
 18 16  2  0  0  0  0
 19 10  2  0  0  0  0
 19 16  1  0  0  0  0
 20 11  1  0  0  0  0
 21 24  2  0  0  0  0
 22 21  1  0  0  0  0
 23 27  2  0  0  0  0
 25 26  2  0  0  0  0
 25 22  1  0  0  0  0
 26 23  1  0  0  0  0
 27 24  1  0  0  0  0
M  END
>  <MODEL>
3

>  <REMARK>
 VINA RESULT:      -5.9      2.220      4.500
  Name = 
  2 active torsions:
  status: ('A' for Active; 'I' for Inactive)
    1  A    between atoms: C_1  and  C_18
    2  A    between atoms: N_2  and  C_15
                            x       y       z     vdW  Elec       q    Type
                         _______ _______ _______ _____ _____    ______ ____

>  <TORSDO>
F 2

$$$$
=
 OpenBabel10272401073D

 27 31  0  0  1  0  0  0  0  0999 V2000
  189.9790  177.7450  137.3340 C   0  0  1  0  0  3  0  0  0  0  0  0
  192.2170  174.5090  136.7950 C   0  0  0  0  0  3  0  0  0  0  0  0
  190.0950  176.3790  136.6540 C   0  0  1  0  0  0  0  0  0  0  0  0
  189.9460  175.1160  137.4680 C   0  0  0  0  0  3  0  0  0  0  0  0
  188.8710  177.2470  136.3670 C   0  0  1  0  0  3  0  0  0  0  0  0
  190.9640  174.2570  137.5350 C   0  0  0  0  0  3  0  0  0  0  0  0
  192.3060  175.4930  135.8920 C   0  0  0  0  0  3  0  0  0  0  0  0
  191.1170  176.3410  135.5190 C   0  0  0  0  0  2  0  0  0  0  0  0
  187.6440  176.8150  137.0460 N   0  0  0  0  0  0  0  0  0  0  0  0
  186.5520  178.9160  137.0700 O   0  0  0  0  0  0  0  0  0  0  0  0
  183.5280  174.4770  136.6450 C   0  0  0  0  0  3  0  0  0  0  0  0
  182.6770  175.5020  136.5560 C   0  0  0  0  0  3  0  0  0  0  0  0
  187.1210  175.4490  136.9970 C   0  0  0  0  0  2  0  0  0  0  0  0
  183.9500  177.4230  137.5860 C   0  0  0  0  0  0  0  0  0  0  0  0
  183.8530  178.6570  138.1390 F   0  0  0  0  0  0  0  0  0  0  0  0
  185.2990  176.8830  137.3140 C   0  0  0  0  0  0  0  0  0  0  0  0
  182.8140  176.8150  137.2190 C   0  0  0  0  0  3  0  0  0  0  0  0
  185.6460  175.6060  137.2290 C   0  0  0  0  0  0  0  0  0  0  0  0
  186.5070  177.6600  137.1620 C   0  0  0  0  0  0  0  0  0  0  0  0
  184.7360  174.4650  137.5250 C   0  0  0  0  0  2  0  0  0  0  0  0
  188.4970  177.8120  141.6870 C   0  0  0  0  0  3  0  0  0  0  0  0
  189.1660  176.4910  141.5120 C   0  0  0  0  0  2  0  0  0  0  0  0
  189.6840  177.6990  138.8170 C   0  0  0  0  0  0  0  0  0  0  0  0
  188.2500  178.6450  140.6760 C   0  0  0  0  0  3  0  0  0  0  0  0
  190.5280  176.6510  140.9260 C   0  0  0  0  0  3  0  0  0  0  0  0
  190.7360  177.1630  139.7140 C   0  0  0  0  0  3  0  0  0  0  0  0
  188.6540  178.4320  139.2710 C   0  0  0  0  0  3  0  0  0  0  0  0
  1 23  1  1  0  0  0
  2  6  1  0  0  0  0
  3  8  1  6  0  0  0
  3  1  1  0  0  0  0
  3  4  1  0  0  0  0
  4  6  2  0  0  0  0
  5  3  1  0  0  0  0
  5  9  1  1  0  0  0
  5  1  1  0  0  0  0
  7  2  2  0  0  0  0
  8  7  1  0  0  0  0
  9 19  1  0  0  0  0
 10 19  2  0  0  0  0
 11 20  1  0  0  0  0
 12 11  2  0  0  0  0
 12 17  1  0  0  0  0
 13  9  1  0  0  0  0
 13 18  1  0  0  0  0
 14 15  1  0  0  0  0
 16 14  1  0  0  0  0
 17 14  2  0  0  0  0
 18 16  2  0  0  0  0
 18 20  1  0  0  0  0
 19 16  1  0  0  0  0
 22 21  1  0  0  0  0
 23 27  2  0  0  0  0
 23 26  1  0  0  0  0
 24 21  2  0  0  0  0
 25 22  1  0  0  0  0
 26 25  2  0  0  0  0
 27 24  1  0  0  0  0
M  END
>  <MODEL>
4

>  <REMARK>
 VINA RESULT:      -5.7      5.346      8.621
  Name = 
  2 active torsions:
  status: ('A' for Active; 'I' for Inactive)
    1  A    between atoms: C_1  and  C_18
    2  A    between atoms: N_2  and  C_15
                            x       y       z     vdW  Elec       q    Type
                         _______ _______ _______ _____ _____    ______ ____

>  <TORSDO>
F 2

$$$$
=
 OpenBabel10272401073D

 27 31  0  0  1  0  0  0  0  0999 V2000
  189.7890  177.7420  137.1320 C   0  0  1  0  0  3  0  0  0  0  0  0
  186.0300  177.6510  135.8570 C   0  0  0  0  0  3  0  0  0  0  0  0
  188.3300  178.0660  137.4560 C   0  0  1  0  0  0  0  0  0  0  0  0
  187.3630  176.9520  137.7840 C   0  0  0  0  0  3  0  0  0  0  0  0
  189.4140  178.4510  138.4610 C   0  0  1  0  0  3  0  0  0  0  0  0
  186.2960  176.7630  137.0070 C   0  0  0  0  0  3  0  0  0  0  0  0
  186.7300  178.7760  135.6700 C   0  0  0  0  0  3  0  0  0  0  0  0
  187.7680  179.2420  136.6580 C   0  0  0  0  0  2  0  0  0  0  0  0
  189.4910  177.5800  139.6390 N   0  0  0  0  0  0  0  0  0  0  0  0
  191.7920  177.8950  140.1020 O   0  0  0  0  0  0  0  0  0  0  0  0
  188.4490  177.0730  144.2460 C   0  0  0  0  0  3  0  0  0  0  0  0
  189.6480  177.2930  144.7900 C   0  0  0  0  0  3  0  0  0  0  0  0
  188.3550  177.2870  140.5150 C   0  0  0  0  0  2  0  0  0  0  0  0
  191.2530  176.8230  142.8990 C   0  0  0  0  0  0  0  0  0  0  0  0
  192.5370  176.5370  142.5710 F   0  0  0  0  0  0  0  0  0  0  0  0
  190.2980  177.1050  141.8070 C   0  0  0  0  0  0  0  0  0  0  0  0
  190.9560  176.9400  144.2000 C   0  0  0  0  0  3  0  0  0  0  0  0
  188.9820  176.9510  141.8370 C   0  0  0  0  0  0  0  0  0  0  0  0
  190.6420  177.5350  140.4720 C   0  0  0  0  0  0  0  0  0  0  0  0
  188.2320  176.3320  142.9670 C   0  0  0  0  0  2  0  0  0  0  0  0
  190.3770  173.1840  136.9710 C   0  0  0  0  0  3  0  0  0  0  0  0
  191.7190  173.7710  136.6910 C   0  0  0  0  0  2  0  0  0  0  0  0
  190.1500  176.2740  137.2020 C   0  0  0  0  0  0  0  0  0  0  0  0
  189.2620  173.9100  137.0380 C   0  0  0  0  0  3  0  0  0  0  0  0
  192.0900  174.7830  137.7210 C   0  0  0  0  0  3  0  0  0  0  0  0
  191.3970  175.9050  137.9140 C   0  0  0  0  0  3  0  0  0  0  0  0
  189.1880  175.3810  136.9210 C   0  0  0  0  0  3  0  0  0  0  0  0
  1 23  1  1  0  0  0
  1  3  1  0  0  0  0
  1  5  1  0  0  0  0
  2  6  1  0  0  0  0
  3  8  1  6  0  0  0
  3  4  1  0  0  0  0
  3  5  1  0  0  0  0
  5  9  1  1  0  0  0
  6  4  2  0  0  0  0
  7  2  2  0  0  0  0
  7  8  1  0  0  0  0
  9 19  1  0  0  0  0
  9 13  1  0  0  0  0
 10 19  2  0  0  0  0
 11 12  2  0  0  0  0
 13 18  1  0  0  0  0
 14 17  2  0  0  0  0
 15 14  1  0  0  0  0
 16 18  2  0  0  0  0
 16 14  1  0  0  0  0
 17 12  1  0  0  0  0
 18 20  1  0  0  0  0
 19 16  1  0  0  0  0
 20 11  1  0  0  0  0
 21 24  2  0  0  0  0
 22 21  1  0  0  0  0
 22 25  1  0  0  0  0
 23 26  1  0  0  0  0
 25 26  2  0  0  0  0
 27 24  1  0  0  0  0
 27 23  2  0  0  0  0
M  END
>  <MODEL>
5

>  <REMARK>
 VINA RESULT:      -5.5      5.612      7.195
  Name = 
  2 active torsions:
  status: ('A' for Active; 'I' for Inactive)
    1  A    between atoms: C_1  and  C_18
    2  A    between atoms: N_2  and  C_15
                            x       y       z     vdW  Elec       q    Type
                         _______ _______ _______ _____ _____    ______ ____

>  <TORSDO>
F 2

$$$$
=
 OpenBabel10272401073D

 27 31  0  0  1  0  0  0  0  0999 V2000
  183.8050  179.2910  138.2350 C   0  0  1  0  0  3  0  0  0  0  0  0
  179.9820  180.3400  138.4600 C   0  0  0  0  0  3  0  0  0  0  0  0
  182.7290  180.0000  139.0590 C   0  0  1  0  0  0  0  0  0  0  0  0
  181.6820  179.1910  139.7890 C   0  0  0  0  0  3  0  0  0  0  0  0
  184.1700  180.0070  139.5630 C   0  0  1  0  0  3  0  0  0  0  0  0
  180.3950  179.3540  139.4790 C   0  0  0  0  0  3  0  0  0  0  0  0
  180.8490  181.2270  137.9580 C   0  0  0  0  0  3  0  0  0  0  0  0
  182.2660  181.3260  138.4590 C   0  0  0  0  0  2  0  0  0  0  0  0
  184.4320  179.0890  140.6780 N   0  0  0  0  0  0  0  0  0  0  0  0
  186.7240  178.7030  140.2240 O   0  0  0  0  0  0  0  0  0  0  0  0
  185.1020  178.6600  145.3610 C   0  0  0  0  0  3  0  0  0  0  0  0
  186.4260  178.4960  145.4010 C   0  0  0  0  0  3  0  0  0  0  0  0
  183.6770  179.0900  141.9320 C   0  0  0  0  0  2  0  0  0  0  0  0
  186.9940  177.6850  143.0790 C   0  0  0  0  0  0  0  0  0  0  0  0
  187.9200  177.0590  142.3120 F   0  0  0  0  0  0  0  0  0  0  0  0
  185.8230  178.2880  142.4100 C   0  0  0  0  0  0  0  0  0  0  0  0
  187.2550  177.8130  144.3870 C   0  0  0  0  0  3  0  0  0  0  0  0
  184.6300  178.5180  142.9410 C   0  0  0  0  0  0  0  0  0  0  0  0
  185.7470  178.6700  141.0190 C   0  0  0  0  0  0  0  0  0  0  0  0
  184.2170  178.0820  144.3040 C   0  0  0  0  0  2  0  0  0  0  0  0
  182.9860  174.7720  138.4800 C   0  0  0  0  0  3  0  0  0  0  0  0
  183.6500  174.9880  137.1620 C   0  0  0  0  0  2  0  0  0  0  0  0
  183.7340  177.7800  138.2530 C   0  0  0  0  0  0  0  0  0  0  0  0
  182.5740  175.7700  139.2620 C   0  0  0  0  0  3  0  0  0  0  0  0
  184.9050  175.7780  137.3140 C   0  0  0  0  0  3  0  0  0  0  0  0
  184.9200  177.0290  137.7740 C   0  0  0  0  0  3  0  0  0  0  0  0
  182.7690  177.2080  138.9910 C   0  0  0  0  0  3  0  0  0  0  0  0
  1 23  1  1  0  0  0
  1  3  1  0  0  0  0
  1  5  1  0  0  0  0
  2  6  1  0  0  0  0
  3  8  1  6  0  0  0
  3  5  1  0  0  0  0
  3  4  1  0  0  0  0
  5  9  1  1  0  0  0
  6  4  2  0  0  0  0
  7  8  1  0  0  0  0
  7  2  2  0  0  0  0
  9 19  1  0  0  0  0
  9 13  1  0  0  0  0
 10 19  2  0  0  0  0
 11 12  2  0  0  0  0
 13 18  1  0  0  0  0
 14 17  2  0  0  0  0
 15 14  1  0  0  0  0
 16 18  2  0  0  0  0
 16 14  1  0  0  0  0
 17 12  1  0  0  0  0
 18 20  1  0  0  0  0
 19 16  1  0  0  0  0
 20 11  1  0  0  0  0
 21 24  2  0  0  0  0
 22 25  1  0  0  0  0
 22 21  1  0  0  0  0
 23 27  2  0  0  0  0
 25 26  2  0  0  0  0
 26 23  1  0  0  0  0
 27 24  1  0  0  0  0
M  END
>  <MODEL>
6

>  <REMARK>
 VINA RESULT:      -5.5      1.151      1.807
  Name = 
  2 active torsions:
  status: ('A' for Active; 'I' for Inactive)
    1  A    between atoms: C_1  and  C_18
    2  A    between atoms: N_2  and  C_15
                            x       y       z     vdW  Elec       q    Type
                         _______ _______ _______ _____ _____    ______ ____

>  <TORSDO>
F 2

$$$$
=
 OpenBabel10272401073D

 27 31  0  0  1  0  0  0  0  0999 V2000
  184.4500  175.3500  135.0850 C   0  0  1  0  0  3  0  0  0  0  0  0
  184.7130  171.7910  136.8250 C   0  0  0  0  0  3  0  0  0  0  0  0
  183.8090  174.3650  136.0640 C   0  0  1  0  0  0  0  0  0  0  0  0
  184.4270  174.1430  137.4250 C   0  0  0  0  0  3  0  0  0  0  0  0
  183.0910  175.6770  135.7600 C   0  0  1  0  0  3  0  0  0  0  0  0
  184.8620  172.9270  137.7560 C   0  0  0  0  0  3  0  0  0  0  0  0
  183.9760  171.8940  135.7120 C   0  0  0  0  0  3  0  0  0  0  0  0
  183.1920  173.1400  135.3900 C   0  0  0  0  0  2  0  0  0  0  0  0
  183.1850  176.6850  136.8230 N   0  0  0  0  0  0  0  0  0  0  0  0
  182.0470  178.4280  135.6940 O   0  0  0  0  0  0  0  0  0  0  0  0
  181.5650  178.1230  141.0500 C   0  0  0  0  0  3  0  0  0  0  0  0
  180.7740  179.1300  140.6750 C   0  0  0  0  0  3  0  0  0  0  0  0
  183.3010  176.3630  138.2460 C   0  0  0  0  0  2  0  0  0  0  0  0
  181.6610  179.7660  138.3990 C   0  0  0  0  0  0  0  0  0  0  0  0
  181.7000  180.7300  137.4460 F   0  0  0  0  0  0  0  0  0  0  0  0
  182.2510  178.4480  138.0850 C   0  0  0  0  0  0  0  0  0  0  0  0
  180.9930  180.0360  139.5290 C   0  0  0  0  0  3  0  0  0  0  0  0
  182.7310  177.5620  138.9470 C   0  0  0  0  0  0  0  0  0  0  0  0
  182.4780  177.9160  136.7620 C   0  0  0  0  0  0  0  0  0  0  0  0
  182.8770  177.8040  140.4100 C   0  0  0  0  0  2  0  0  0  0  0  0
  187.8500  178.0600  136.5840 C   0  0  0  0  0  3  0  0  0  0  0  0
  187.7350  176.9670  137.5920 C   0  0  0  0  0  2  0  0  0  0  0  0
  185.6780  176.0640  135.6060 C   0  0  0  0  0  0  0  0  0  0  0  0
  186.9700  178.2400  135.5990 C   0  0  0  0  0  3  0  0  0  0  0  0
  187.7500  175.6270  136.9380 C   0  0  0  0  0  3  0  0  0  0  0  0
  186.8100  175.2320  136.0790 C   0  0  0  0  0  3  0  0  0  0  0  0
  185.8140  177.3670  135.3120 C   0  0  0  0  0  3  0  0  0  0  0  0
  1 23  1  1  0  0  0
  1  5  1  0  0  0  0
  1  3  1  0  0  0  0
  2  6  1  0  0  0  0
  3  8  1  6  0  0  0
  3  4  1  0  0  0  0
  4  6  2  0  0  0  0
  5  3  1  0  0  0  0
  5  9  1  1  0  0  0
  7  2  2  0  0  0  0
  8  7  1  0  0  0  0
  9 13  1  0  0  0  0
 10 19  2  0  0  0  0
 12 11  2  0  0  0  0
 13 18  1  0  0  0  0
 14 17  2  0  0  0  0
 15 14  1  0  0  0  0
 16 14  1  0  0  0  0
 16 18  2  0  0  0  0
 17 12  1  0  0  0  0
 18 20  1  0  0  0  0
 19  9  1  0  0  0  0
 19 16  1  0  0  0  0
 20 11  1  0  0  0  0
 21 22  1  0  0  0  0
 23 26  1  0  0  0  0
 24 21  2  0  0  0  0
 25 22  1  0  0  0  0
 26 25  2  0  0  0  0
 27 24  1  0  0  0  0
 27 23  2  0  0  0  0
M  END
>  <MODEL>
7

>  <REMARK>
 VINA RESULT:      -5.0      3.914      6.874
  Name = 
  2 active torsions:
  status: ('A' for Active; 'I' for Inactive)
    1  A    between atoms: C_1  and  C_18
    2  A    between atoms: N_2  and  C_15
                            x       y       z     vdW  Elec       q    Type
                         _______ _______ _______ _____ _____    ______ ____

>  <TORSDO>
F 2

$$$$
=
 OpenBabel10272401073D

 27 31  0  0  1  0  0  0  0  0999 V2000
  188.1190  179.2450  141.5400 C   0  0  1  0  0  3  0  0  0  0  0  0
  188.8440  176.8140  144.5940 C   0  0  0  0  0  3  0  0  0  0  0  0
  188.9950  178.1150  142.0830 C   0  0  1  0  0  0  0  0  0  0  0  0
  188.4420  176.7130  142.1850 C   0  0  0  0  0  3  0  0  0  0  0  0
  189.3180  178.7070  140.7130 C   0  0  1  0  0  3  0  0  0  0  0  0
  188.3630  176.1260  143.3790 C   0  0  0  0  0  3  0  0  0  0  0  0
  189.5410  177.9540  144.5190 C   0  0  0  0  0  3  0  0  0  0  0  0
  189.9450  178.5540  143.1970 C   0  0  0  0  0  2  0  0  0  0  0  0
  188.9230  177.8660  139.5770 N   0  0  0  0  0  0  0  0  0  0  0  0
  188.8950  179.5700  137.9320 O   0  0  0  0  0  0  0  0  0  0  0  0
  190.3070  174.5950  136.4230 C   0  0  0  0  0  3  0  0  0  0  0  0
  190.4500  175.3540  135.3350 C   0  0  0  0  0  3  0  0  0  0  0  0
  189.2030  176.4330  139.4850 C   0  0  0  0  0  2  0  0  0  0  0  0
  189.0180  177.3740  135.8280 C   0  0  0  0  0  0  0  0  0  0  0  0
  188.3730  178.4410  135.2960 F   0  0  0  0  0  0  0  0  0  0  0  0
  189.0890  177.2620  137.3000 C   0  0  0  0  0  0  0  0  0  0  0  0
  189.6460  176.5440  134.9850 C   0  0  0  0  0  3  0  0  0  0  0  0
  189.2330  176.1520  138.0110 C   0  0  0  0  0  0  0  0  0  0  0  0
  188.9370  178.3480  138.2400 C   0  0  0  0  0  0  0  0  0  0  0  0
  189.2240  174.7780  137.4360 C   0  0  0  0  0  2  0  0  0  0  0  0
  183.7180  178.1190  140.8230 C   0  0  0  0  0  3  0  0  0  0  0  0
  184.1040  178.9820  139.6700 C   0  0  0  0  0  2  0  0  0  0  0  0
  186.7300  178.8280  141.1080 C   0  0  0  0  0  0  0  0  0  0  0  0
  184.4940  177.9390  141.8920 C   0  0  0  0  0  3  0  0  0  0  0  0
  185.3660  178.5030  139.0370 C   0  0  0  0  0  3  0  0  0  0  0  0
  186.5300  178.4690  139.6830 C   0  0  0  0  0  3  0  0  0  0  0  0
  185.8540  178.4900  142.0670 C   0  0  0  0  0  3  0  0  0  0  0  0
  1 23  1  6  0  0  0
  1  3  1  0  0  0  0
  3  4  1  1  0  0  0
  3  8  1  0  0  0  0
  4  6  2  0  0  0  0
  5  9  1  6  0  0  0
  5  1  1  0  0  0  0
  5  3  1  0  0  0  0
  6  2  1  0  0  0  0
  7  2  2  0  0  0  0
  8  7  1  0  0  0  0
 10 19  2  0  0  0  0
 11 20  1  0  0  0  0
 12 11  2  0  0  0  0
 13  9  1  0  0  0  0
 14 16  1  0  0  0  0
 15 14  1  0  0  0  0
 16 18  2  0  0  0  0
 16 19  1  0  0  0  0
 17 12  1  0  0  0  0
 17 14  2  0  0  0  0
 18 13  1  0  0  0  0
 19  9  1  0  0  0  0
 20 18  1  0  0  0  0
 21 24  2  0  0  0  0
 22 21  1  0  0  0  0
 23 27  2  0  0  0  0
 24 27  1  0  0  0  0
 25 22  1  0  0  0  0
 25 26  2  0  0  0  0
 26 23  1  0  0  0  0
M  END
>  <MODEL>
8

>  <REMARK>
 VINA RESULT:      -5.0      4.666      7.868
  Name = 
  2 active torsions:
  status: ('A' for Active; 'I' for Inactive)
    1  A    between atoms: C_1  and  C_18
    2  A    between atoms: N_2  and  C_15
                            x       y       z     vdW  Elec       q    Type
                         _______ _______ _______ _____ _____    ______ ____

>  <TORSDO>
F 2

$$$$
=
 OpenBabel10272401073D

 27 31  0  0  1  0  0  0  0  0999 V2000
  187.4780  175.7770  134.4570 C   0  0  1  0  0  3  0  0  0  0  0  0
  183.9440  176.6280  136.0540 C   0  0  0  0  0  3  0  0  0  0  0  0
  186.7120  176.6470  135.4540 C   0  0  1  0  0  0  0  0  0  0  0  0
  186.2150  176.0510  136.7500 C   0  0  0  0  0  3  0  0  0  0  0  0
  188.2050  176.8940  135.2540 C   0  0  1  0  0  3  0  0  0  0  0  0
  184.9060  176.0360  137.0050 C   0  0  0  0  0  3  0  0  0  0  0  0
  184.3550  177.3600  135.0120 C   0  0  0  0  0  3  0  0  0  0  0  0
  185.8090  177.6900  134.7960 C   0  0  0  0  0  2  0  0  0  0  0  0
  189.0580  176.3880  136.3360 N   0  0  0  0  0  0  0  0  0  0  0  0
  191.0780  176.2720  135.1060 O   0  0  0  0  0  0  0  0  0  0  0  0
  191.3590  177.4300  140.3590 C   0  0  0  0  0  3  0  0  0  0  0  0
  192.6120  177.5050  139.9070 C   0  0  0  0  0  3  0  0  0  0  0  0
  188.7990  176.6230  137.7580 C   0  0  0  0  0  2  0  0  0  0  0  0
  192.5520  176.1700  137.7660 C   0  0  0  0  0  0  0  0  0  0  0  0
  193.2930  175.5120  136.8400 F   0  0  0  0  0  0  0  0  0  0  0  0
  191.1100  176.3550  137.5050 C   0  0  0  0  0  0  0  0  0  0  0  0
  193.1970  176.7070  138.8100 C   0  0  0  0  0  3  0  0  0  0  0  0
  190.1500  176.5270  138.4040 C   0  0  0  0  0  0  0  0  0  0  0  0
  190.4710  176.3070  136.2100 C   0  0  0  0  0  0  0  0  0  0  0  0
  190.3520  176.4370  139.8770 C   0  0  0  0  0  2  0  0  0  0  0  0
  188.7850  171.5490  135.7060 C   0  0  0  0  0  3  0  0  0  0  0  0
  187.8130  171.9920  136.7470 C   0  0  0  0  0  2  0  0  0  0  0  0
  187.7040  174.3470  134.8940 C   0  0  0  0  0  0  0  0  0  0  0  0
  189.2660  172.3600  134.7640 C   0  0  0  0  0  3  0  0  0  0  0  0
  186.5550  172.4980  136.1270 C   0  0  0  0  0  3  0  0  0  0  0  0
  186.5210  173.5650  135.3290 C   0  0  0  0  0  3  0  0  0  0  0  0
  188.8680  173.7680  134.5600 C   0  0  0  0  0  3  0  0  0  0  0  0
  1 23  1  1  0  0  0
  1  5  1  0  0  0  0
  1  3  1  0  0  0  0
  2  6  1  0  0  0  0
  3  8  1  6  0  0  0
  3  4  1  0  0  0  0
  4  6  2  0  0  0  0
  5  3  1  0  0  0  0
  5  9  1  1  0  0  0
  7  2  2  0  0  0  0
  8  7  1  0  0  0  0
  9 13  1  0  0  0  0
 10 19  2  0  0  0  0
 12 11  2  0  0  0  0
 13 18  1  0  0  0  0
 14 17  2  0  0  0  0
 15 14  1  0  0  0  0
 16 14  1  0  0  0  0
 16 18  2  0  0  0  0
 17 12  1  0  0  0  0
 18 20  1  0  0  0  0
 19  9  1  0  0  0  0
 19 16  1  0  0  0  0
 20 11  1  0  0  0  0
 21 22  1  0  0  0  0
 23 26  1  0  0  0  0
 24 21  2  0  0  0  0
 25 22  1  0  0  0  0
 26 25  2  0  0  0  0
 27 24  1  0  0  0  0
 27 23  2  0  0  0  0
M  END
>  <MODEL>
9

>  <REMARK>
 VINA RESULT:      -4.9      6.456      7.875
  Name = 
  2 active torsions:
  status: ('A' for Active; 'I' for Inactive)
    1  A    between atoms: C_1  and  C_18
    2  A    between atoms: N_2  and  C_15
                            x       y       z     vdW  Elec       q    Type
                         _______ _______ _______ _____ _____    ______ ____

>  <TORSDO>
F 2

$$$$
