=
 OpenBabel10272414363D

 43 48  0  0  1  0  0  0  0  0999 V2000
  187.7700  177.7080  145.3430 N   0  0  0  0  0  2  0  0  0  0  0  0
  181.3280  179.1240  141.7620 C   0  0  0  0  0  0  0  0  0  0  0  0
  185.8950  178.3220  143.7770 C   0  0  0  0  0  0  0  0  0  0  0  0
  186.3670  178.0290  141.3300 C   0  0  0  0  0  2  0  0  0  0  0  0
  183.1800  178.8380  143.2970 C   0  0  0  0  0  0  0  0  0  0  0  0
  182.1840  178.8970  140.6810 C   0  0  0  0  0  3  0  0  0  0  0  0
  179.9820  179.3770  141.5380 O   0  0  0  0  0  1  0  0  0  0  0  0
  184.0540  178.6090  142.2070 C   0  0  0  0  0  0  0  0  0  0  0  0
  181.8250  179.0940  143.0670 C   0  0  0  0  0  3  0  0  0  0  0  0
  183.5400  178.6410  140.9010 C   0  0  0  0  0  3  0  0  0  0  0  0
  187.7800  178.5190  141.6790 C   0  0  1  0  0  3  0  0  0  0  0  0
  185.4170  178.3560  142.4510 C   0  0  0  0  0  0  0  0  0  0  0  0
  185.0160  178.5420  144.8440 C   0  0  0  0  0  3  0  0  0  0  0  0
  187.3290  178.0550  144.0210 C   0  0  0  0  0  0  0  0  0  0  0  0
  188.1700  178.1030  143.0290 N   0  0  0  0  0  0  0  0  0  0  0  0
  183.6660  178.8010  144.6050 C   0  0  0  0  0  3  0  0  0  0  0  0
  190.6970  176.9470  147.5620 C   0  0  0  0  0  3  0  0  0  0  0  0
  191.4740  176.0480  146.6370 C   0  0  1  0  0  3  0  0  0  0  0  0
  189.9370  176.8500  144.8370 C   0  0  0  0  0  3  0  0  0  0  0  0
  189.5640  177.5220  147.1480 C   0  0  0  0  0  3  0  0  0  0  0  0
  189.0980  177.3510  145.7510 C   0  0  0  0  0  0  0  0  0  0  0  0
  191.3680  176.5400  145.1890 C   0  0  0  0  0  2  0  0  0  0  0  0
  192.7770  175.7010  148.3920 C   0  0  0  0  0  1  0  0  0  0  0  0
  192.8130  176.0040  147.0300 O   0  0  0  0  0  0  0  0  0  0  0  0
  188.8360  178.0920  140.6570 C   0  0  1  0  0  3  0  0  0  0  0  0
  189.9640  177.3050  141.3050 C   0  0  0  0  0  1  0  0  0  0  0  0
  188.2280  177.2790  139.5230 C   0  0  0  0  0  2  0  0  0  0  0  0
  189.0420  179.4270  138.1150 O   0  0  0  0  0  0  0  0  0  0  0  0
  188.1310  178.2370  138.0170 S   0  0  0  0  0  0  0  0  0  0  0  0
  186.7120  178.7010  137.8430 O   0  0  0  0  0  0  0  0  0  0  0  0
  188.6040  177.2560  136.6550 N   0  0  0  0  0  0  0  0  0  0  0  0
  189.9860  176.9100  136.4510 C   0  0  0  0  0  0  0  0  0  0  0  0
  190.3930  176.5770  135.3060 O   0  0  0  0  0  0  0  0  0  0  0  0
  187.3930  175.4350  135.5570 C   0  0  0  0  0  2  0  0  0  0  0  0
  187.6130  176.9380  135.6250 C   0  0  0  0  0  3  0  0  0  0  0  0
  186.3800  176.3100  136.2530 C   0  0  0  0  0  2  0  0  0  0  0  0
  190.9520  176.8770  137.5930 C   0  0  0  0  0  2  0  0  0  0  0  0
  192.0160  175.8630  137.3450 C   0  0  0  0  0  0  0  0  0  0  0  0
  192.6910  173.5490  137.0960 C   0  0  0  0  0  3  0  0  0  0  0  0
  194.3460  175.3120  136.9670 C   0  0  0  0  0  3  0  0  0  0  0  0
  194.0190  173.9540  136.9250 C   0  0  0  0  0  3  0  0  0  0  0  0
  193.3450  176.2660  137.1780 C   0  0  0  0  0  3  0  0  0  0  0  0
  191.6910  174.5020  137.3080 C   0  0  0  0  0  3  0  0  0  0  0  0
  1 21  1  0  0  0  0
  2  9  1  0  0  0  0
  3 14  1  0  0  0  0
  3 13  1  0  0  0  0
  4 11  1  0  0  0  0
  4 12  1  0  0  0  0
  5 16  1  0  0  0  0
  6 10  1  0  0  0  0
  6  2  2  0  0  0  0
  7  2  1  0  0  0  0
  8 12  1  0  0  0  0
  8  5  1  0  0  0  0
  9  5  2  0  0  0  0
 10  8  2  0  0  0  0
 11 25  1  6  0  0  0
 11 15  1  0  0  0  0
 12  3  2  0  0  0  0
 14  1  1  0  0  0  0
 15 14  2  0  0  0  0
 16 13  2  0  0  0  0
 18 24  1  1  0  0  0
 18 17  1  0  0  0  0
 19 22  1  0  0  0  0
 19 21  2  0  0  0  0
 20 17  2  0  0  0  0
 21 20  1  0  0  0  0
 22 18  1  0  0  0  0
 24 23  1  0  0  0  0
 25 26  1  1  0  0  0
 27 25  1  0  0  0  0
 29 28  2  0  0  0  0
 29 27  1  0  0  0  0
 30 29  2  0  0  0  0
 31 29  1  0  0  0  0
 32 31  1  0  0  0  0
 32 37  1  0  0  0  0
 33 32  2  0  0  0  0
 34 35  1  0  0  0  0
 34 36  1  0  0  0  0
 35 36  1  0  0  0  0
 35 31  1  0  0  0  0
 38 37  1  0  0  0  0
 39 43  2  0  0  0  0
 40 42  1  0  0  0  0
 41 40  2  0  0  0  0
 41 39  1  0  0  0  0
 42 38  2  0  0  0  0
 43 38  1  0  0  0  0
M  END
>  <MODEL>
1

>  <REMARK>
 VINA RESULT:      -9.7      0.000      0.000
  Name = 
  9 active torsions:
  status: ('A' for Active; 'I' for Inactive)
    1  A    between atoms: N_1  and  C_35
    2  A    between atoms: C_2  and  C_6
    3  A    between atoms: C_2  and  C_27
    4  A    between atoms: N_4  and  S_12
    5  A    between atoms: N_4  and  C_15
    6  A    between atoms: C_6  and  S_12
    7  A    between atoms: C_11  and  C_14
    8  A    between atoms: C_14  and  C_22
    9  A    between atoms: C_19  and  O_37
                            x       y       z     vdW  Elec       q    Type
                         _______ _______ _______ _____ _____    ______ ____

>  <TORSDO>
F 9

$$$$
=
 OpenBabel10272414363D

 43 48  0  0  1  0  0  0  0  0999 V2000
  187.8130  177.6900  145.4610 N   0  0  0  0  0  2  0  0  0  0  0  0
  181.3310  179.0950  141.9480 C   0  0  0  0  0  0  0  0  0  0  0  0
  185.9200  178.2990  143.9140 C   0  0  0  0  0  0  0  0  0  0  0  0
  186.3660  178.0000  141.4630 C   0  0  0  0  0  2  0  0  0  0  0  0
  183.2000  178.8130  143.4630 C   0  0  0  0  0  0  0  0  0  0  0  0
  182.1750  178.8650  140.8580 C   0  0  0  0  0  3  0  0  0  0  0  0
  179.9830  179.3470  141.7390 O   0  0  0  0  0  1  0  0  0  0  0  0
  184.0620  178.5810  142.3640 C   0  0  0  0  0  0  0  0  0  0  0  0
  181.8420  179.0680  143.2480 C   0  0  0  0  0  3  0  0  0  0  0  0
  183.5330  178.6090  141.0640 C   0  0  0  0  0  3  0  0  0  0  0  0
  187.7810  178.4910  141.7950 C   0  0  1  0  0  3  0  0  0  0  0  0
  185.4280  178.3290  142.5930 C   0  0  0  0  0  0  0  0  0  0  0  0
  185.0530  178.5220  144.9910 C   0  0  0  0  0  3  0  0  0  0  0  0
  187.3580  178.0330  144.1430 C   0  0  0  0  0  0  0  0  0  0  0  0
  188.1870  178.0790  143.1410 N   0  0  0  0  0  0  0  0  0  0  0  0
  183.7000  178.7800  144.7660 C   0  0  0  0  0  3  0  0  0  0  0  0
  190.7560  176.9030  147.6500 C   0  0  0  0  0  3  0  0  0  0  0  0
  191.5360  176.0310  146.7020 C   0  0  1  0  0  3  0  0  0  0  0  0
  189.9840  176.8610  144.9260 C   0  0  0  0  0  3  0  0  0  0  0  0
  189.6170  177.4780  147.2530 C   0  0  0  0  0  3  0  0  0  0  0  0
  189.1460  177.3340  145.8550 C   0  0  0  0  0  0  0  0  0  0  0  0
  191.4190  176.5540  145.2650 C   0  0  0  0  0  2  0  0  0  0  0  0
  192.8460  175.8150  148.4720 C   0  0  0  0  0  1  0  0  0  0  0  0
  192.8770  175.9890  147.0870 O   0  0  0  0  0  0  0  0  0  0  0  0
  188.8270  178.0620  140.7630 C   0  0  1  0  0  3  0  0  0  0  0  0
  189.9550  177.2650  141.3980 C   0  0  0  0  0  1  0  0  0  0  0  0
  188.2030  177.2570  139.6310 C   0  0  0  0  0  2  0  0  0  0  0  0
  190.2010  177.5450  137.8450 O   0  0  0  0  0  0  0  0  0  0  0  0
  188.7430  177.8550  138.0350 S   0  0  0  0  0  0  0  0  0  0  0  0
  188.5340  179.3420  137.9930 O   0  0  0  0  0  0  0  0  0  0  0  0
  187.8200  177.0920  136.7690 N   0  0  0  0  0  0  0  0  0  0  0  0
  186.4020  176.8910  136.9200 C   0  0  0  0  0  0  0  0  0  0  0  0
  185.8120  176.0080  136.2410 O   0  0  0  0  0  0  0  0  0  0  0  0
  188.3080  177.3400  134.3840 C   0  0  0  0  0  2  0  0  0  0  0  0
  188.5220  176.4960  135.6300 C   0  0  0  0  0  3  0  0  0  0  0  0
  189.6130  177.4320  135.1350 C   0  0  0  0  0  2  0  0  0  0  0  0
  185.5910  177.7560  137.8310 C   0  0  0  0  0  2  0  0  0  0  0  0
  184.1670  177.3140  137.8380 C   0  0  0  0  0  0  0  0  0  0  0  0
  182.4800  175.6820  138.4410 C   0  0  0  0  0  3  0  0  0  0  0  0
  181.8570  177.6600  137.1920 C   0  0  0  0  0  3  0  0  0  0  0  0
  181.5030  176.4580  137.8110 C   0  0  0  0  0  3  0  0  0  0  0  0
  183.1890  178.0870  137.2040 C   0  0  0  0  0  3  0  0  0  0  0  0
  183.8110  176.1070  138.4530 C   0  0  0  0  0  3  0  0  0  0  0  0
  1 21  1  0  0  0  0
  2  9  1  0  0  0  0
  3 14  1  0  0  0  0
  3 13  1  0  0  0  0
  4 11  1  0  0  0  0
  4 12  1  0  0  0  0
  5 16  1  0  0  0  0
  6 10  1  0  0  0  0
  6  2  2  0  0  0  0
  7  2  1  0  0  0  0
  8 12  1  0  0  0  0
  8  5  1  0  0  0  0
  9  5  2  0  0  0  0
 10  8  2  0  0  0  0
 11 25  1  6  0  0  0
 11 15  1  0  0  0  0
 12  3  2  0  0  0  0
 14  1  1  0  0  0  0
 15 14  2  0  0  0  0
 16 13  2  0  0  0  0
 18 24  1  1  0  0  0
 18 17  1  0  0  0  0
 19 22  1  0  0  0  0
 19 21  2  0  0  0  0
 20 17  2  0  0  0  0
 21 20  1  0  0  0  0
 22 18  1  0  0  0  0
 24 23  1  0  0  0  0
 25 26  1  1  0  0  0
 27 25  1  0  0  0  0
 28 29  2  0  0  0  0
 29 27  1  0  0  0  0
 30 29  2  0  0  0  0
 31 32  1  0  0  0  0
 31 29  1  0  0  0  0
 32 37  1  0  0  0  0
 33 32  2  0  0  0  0
 34 36  1  0  0  0  0
 34 35  1  0  0  0  0
 35 31  1  0  0  0  0
 36 35  1  0  0  0  0
 37 38  1  0  0  0  0
 38 43  1  0  0  0  0
 39 43  2  0  0  0  0
 40 42  1  0  0  0  0
 40 41  2  0  0  0  0
 41 39  1  0  0  0  0
 42 38  2  0  0  0  0
M  END
>  <MODEL>
2

>  <REMARK>
 VINA RESULT:      -9.7      1.990      4.224
  Name = 
  9 active torsions:
  status: ('A' for Active; 'I' for Inactive)
    1  A    between atoms: N_1  and  C_35
    2  A    between atoms: C_2  and  C_6
    3  A    between atoms: C_2  and  C_27
    4  A    between atoms: N_4  and  S_12
    5  A    between atoms: N_4  and  C_15
    6  A    between atoms: C_6  and  S_12
    7  A    between atoms: C_11  and  C_14
    8  A    between atoms: C_14  and  C_22
    9  A    between atoms: C_19  and  O_37
                            x       y       z     vdW  Elec       q    Type
                         _______ _______ _______ _____ _____    ______ ____

>  <TORSDO>
F 9

$$$$
=
 OpenBabel10272414363D

 43 48  0  0  1  0  0  0  0  0999 V2000
  187.3910  177.9810  146.5230 N   0  0  0  0  0  2  0  0  0  0  0  0
  181.3900  178.9290  142.1160 C   0  0  0  0  0  0  0  0  0  0  0  0
  185.7030  178.3750  144.6950 C   0  0  0  0  0  0  0  0  0  0  0  0
  186.4090  177.6960  142.3840 C   0  0  0  0  0  2  0  0  0  0  0  0
  183.0680  178.8550  143.8610 C   0  0  0  0  0  0  0  0  0  0  0  0
  182.3430  178.5220  141.1770 C   0  0  0  0  0  3  0  0  0  0  0  0
  180.0820  179.1660  141.7170 O   0  0  0  0  0  1  0  0  0  0  0  0
  184.0400  178.4440  142.9160 C   0  0  0  0  0  0  0  0  0  0  0  0
  181.7520  179.0950  143.4540 C   0  0  0  0  0  3  0  0  0  0  0  0
  183.6600  178.2800  141.5740 C   0  0  0  0  0  3  0  0  0  0  0  0
  187.7940  178.2110  142.7990 C   0  0  1  0  0  3  0  0  0  0  0  0
  185.3620  178.2090  143.3360 C   0  0  0  0  0  0  0  0  0  0  0  0
  184.7290  178.7730  145.6180 C   0  0  0  0  0  3  0  0  0  0  0  0
  187.0970  178.1250  145.1250 C   0  0  0  0  0  0  0  0  0  0  0  0
  188.0340  178.0040  144.2300 N   0  0  0  0  0  0  0  0  0  0  0  0
  183.4190  179.0140  145.2030 C   0  0  0  0  0  3  0  0  0  0  0  0
  190.8030  176.4930  146.9850 C   0  0  0  0  0  3  0  0  0  0  0  0
  191.3950  177.5280  147.9050 C   0  0  1  0  0  3  0  0  0  0  0  0
  189.0610  178.3790  148.1780 C   0  0  0  0  0  3  0  0  0  0  0  0
  189.5300  176.5920  146.5920 C   0  0  0  0  0  3  0  0  0  0  0  0
  188.6590  177.6700  147.1170 C   0  0  0  0  0  0  0  0  0  0  0  0
  190.3410  178.0390  148.8940 C   0  0  0  0  0  2  0  0  0  0  0  0
  192.6630  175.7190  148.0380 C   0  0  0  0  0  1  0  0  0  0  0  0
  192.4770  176.9840  148.5990 O   0  0  0  0  0  0  0  0  0  0  0  0
  188.9340  177.6120  141.9700 C   0  0  1  0  0  3  0  0  0  0  0  0
  189.5590  176.4070  142.6550 C   0  0  0  0  0  1  0  0  0  0  0  0
  188.4710  177.2260  140.5720 C   0  0  0  0  0  2  0  0  0  0  0  0
  190.9590  178.0300  139.9190 O   0  0  0  0  0  0  0  0  0  0  0  0
  189.5920  177.8430  139.3240 S   0  0  0  0  0  0  0  0  0  0  0  0
  189.0710  179.1630  138.8320 O   0  0  0  0  0  0  0  0  0  0  0  0
  189.6890  176.7140  137.9990 N   0  0  0  0  0  0  0  0  0  0  0  0
  188.7020  176.7340  136.9510 C   0  0  0  0  0  0  0  0  0  0  0  0
  188.5120  175.7100  136.2400 O   0  0  0  0  0  0  0  0  0  0  0  0
  191.6620  175.7670  136.9050 C   0  0  0  0  0  2  0  0  0  0  0  0
  190.6730  175.6310  138.0520 C   0  0  0  0  0  3  0  0  0  0  0  0
  192.0640  176.1940  138.2960 C   0  0  0  0  0  2  0  0  0  0  0  0
  187.9270  177.9750  136.6410 C   0  0  0  0  0  2  0  0  0  0  0  0
  186.4650  177.7270  136.7900 C   0  0  0  0  0  0  0  0  0  0  0  0
  184.3520  177.0080  135.8460 C   0  0  0  0  0  3  0  0  0  0  0  0
  184.4460  177.8140  138.1280 C   0  0  0  0  0  3  0  0  0  0  0  0
  183.7110  177.3040  137.0540 C   0  0  0  0  0  3  0  0  0  0  0  0
  185.8220  178.0270  137.9960 C   0  0  0  0  0  3  0  0  0  0  0  0
  185.7270  177.2210  135.7130 C   0  0  0  0  0  3  0  0  0  0  0  0
  1 21  1  0  0  0  0
  2  9  1  0  0  0  0
  3 14  1  0  0  0  0
  3 13  1  0  0  0  0
  4 11  1  0  0  0  0
  4 12  1  0  0  0  0
  5 16  1  0  0  0  0
  6 10  1  0  0  0  0
  6  2  2  0  0  0  0
  7  2  1  0  0  0  0
  8 12  1  0  0  0  0
  8  5  1  0  0  0  0
  9  5  2  0  0  0  0
 10  8  2  0  0  0  0
 11 25  1  6  0  0  0
 11 15  1  0  0  0  0
 12  3  2  0  0  0  0
 14  1  1  0  0  0  0
 15 14  2  0  0  0  0
 16 13  2  0  0  0  0
 17 18  1  0  0  0  0
 18 24  1  1  0  0  0
 18 22  1  0  0  0  0
 19 22  1  0  0  0  0
 20 17  2  0  0  0  0
 20 21  1  0  0  0  0
 21 19  2  0  0  0  0
 23 24  1  0  0  0  0
 25 26  1  1  0  0  0
 27 25  1  0  0  0  0
 29 28  2  0  0  0  0
 29 27  1  0  0  0  0
 30 29  2  0  0  0  0
 31 35  1  0  0  0  0
 31 29  1  0  0  0  0
 32 31  1  0  0  0  0
 33 32  2  0  0  0  0
 34 35  1  0  0  0  0
 34 36  1  0  0  0  0
 35 36  1  0  0  0  0
 37 38  1  0  0  0  0
 37 32  1  0  0  0  0
 38 42  1  0  0  0  0
 39 41  2  0  0  0  0
 41 40  1  0  0  0  0
 42 40  2  0  0  0  0
 43 39  1  0  0  0  0
 43 38  2  0  0  0  0
M  END
>  <MODEL>
3

>  <REMARK>
 VINA RESULT:      -9.6      1.455      3.804
  Name = 
  9 active torsions:
  status: ('A' for Active; 'I' for Inactive)
    1  A    between atoms: N_1  and  C_35
    2  A    between atoms: C_2  and  C_6
    3  A    between atoms: C_2  and  C_27
    4  A    between atoms: N_4  and  S_12
    5  A    between atoms: N_4  and  C_15
    6  A    between atoms: C_6  and  S_12
    7  A    between atoms: C_11  and  C_14
    8  A    between atoms: C_14  and  C_22
    9  A    between atoms: C_19  and  O_37
                            x       y       z     vdW  Elec       q    Type
                         _______ _______ _______ _____ _____    ______ ____

>  <TORSDO>
F 9

$$$$
=
 OpenBabel10272414363D

 43 48  0  0  1  0  0  0  0  0999 V2000
  186.5930  177.2530  137.2550 N   0  0  0  0  0  2  0  0  0  0  0  0
  193.6530  175.3220  135.5940 C   0  0  0  0  0  0  0  0  0  0  0  0
  189.0770  176.8640  137.0890 C   0  0  0  0  0  0  0  0  0  0  0  0
  190.3290  176.8250  139.2640 C   0  0  0  0  0  2  0  0  0  0  0  0
  191.3240  175.9850  135.6600 C   0  0  0  0  0  0  0  0  0  0  0  0
  193.7570  175.5350  136.9710 C   0  0  0  0  0  3  0  0  0  0  0  0
  194.7560  174.8830  134.8750 O   0  0  0  0  0  1  0  0  0  0  0  0
  191.4220  176.2060  137.0550 C   0  0  0  0  0  0  0  0  0  0  0  0
  192.4390  175.5450  134.9400 C   0  0  0  0  0  3  0  0  0  0  0  0
  192.6490  175.9750  137.6990 C   0  0  0  0  0  3  0  0  0  0  0  0
  189.3670  177.9440  139.6860 C   0  0  1  0  0  3  0  0  0  0  0  0
  190.2940  176.6520  137.7690 C   0  0  0  0  0  0  0  0  0  0  0  0
  188.9940  176.6330  135.7110 C   0  0  0  0  0  3  0  0  0  0  0  0
  187.8970  177.3330  137.8500 C   0  0  0  0  0  0  0  0  0  0  0  0
  188.0510  177.7800  139.0630 N   0  0  0  0  0  0  0  0  0  0  0  0
  190.1130  176.1980  135.0000 C   0  0  0  0  0  3  0  0  0  0  0  0
  184.0010  179.1770  139.1650 C   0  0  0  0  0  3  0  0  0  0  0  0
  182.7600  178.6160  138.5210 C   0  0  1  0  0  3  0  0  0  0  0  0
  184.2580  176.8670  137.5480 C   0  0  0  0  0  3  0  0  0  0  0  0
  185.2060  178.7160  138.8190 C   0  0  0  0  0  3  0  0  0  0  0  0
  185.3380  177.5920  137.8610 C   0  0  0  0  0  0  0  0  0  0  0  0
  182.9350  177.1230  138.2200 C   0  0  0  0  0  2  0  0  0  0  0  0
  181.9910  178.1480  140.5420 C   0  0  0  0  0  1  0  0  0  0  0  0
  181.6610  178.8100  139.3580 O   0  0  0  0  0  0  0  0  0  0  0  0
  189.2300  178.0820  141.2040 C   0  0  1  0  0  3  0  0  0  0  0  0
  188.1140  179.0400  141.5870 C   0  0  0  0  0  1  0  0  0  0  0  0
  189.0020  176.7330  141.8740 C   0  0  0  0  0  2  0  0  0  0  0  0
  191.6200  176.8910  142.4940 O   0  0  0  0  0  0  0  0  0  0  0  0
  190.3220  176.3450  143.0160 S   0  0  0  0  0  0  0  0  0  0  0  0
  190.4160  174.8500  143.1380 O   0  0  0  0  0  0  0  0  0  0  0  0
  189.9850  177.0450  144.5770 N   0  0  0  0  0  0  0  0  0  0  0  0
  188.6410  177.4230  144.9320 C   0  0  0  0  0  0  0  0  0  0  0  0
  188.4420  178.2760  145.8380 O   0  0  0  0  0  0  0  0  0  0  0  0
  190.9540  176.7250  146.8000 C   0  0  0  0  0  2  0  0  0  0  0  0
  191.1000  177.4120  145.4520 C   0  0  0  0  0  3  0  0  0  0  0  0
  191.9340  176.1860  145.7870 C   0  0  0  0  0  2  0  0  0  0  0  0
  187.4590  176.7750  144.2840 C   0  0  0  0  0  2  0  0  0  0  0  0
  186.2340  177.5980  144.4960 C   0  0  0  0  0  0  0  0  0  0  0  0
  184.6460  178.6490  145.9950 C   0  0  0  0  0  3  0  0  0  0  0  0
  184.3350  178.8060  143.5990 C   0  0  0  0  0  3  0  0  0  0  0  0
  183.9100  179.1050  144.8960 C   0  0  0  0  0  3  0  0  0  0  0  0
  185.4950  178.0520  143.3980 C   0  0  0  0  0  3  0  0  0  0  0  0
  185.8060  177.8950  145.7950 C   0  0  0  0  0  3  0  0  0  0  0  0
  1 14  1  0  0  0  0
  1 21  1  0  0  0  0
  2  6  1  0  0  0  0
  3 12  1  0  0  0  0
  3 14  1  0  0  0  0
  4 11  1  0  0  0  0
  5  8  1  0  0  0  0
  6 10  2  0  0  0  0
  7  2  1  0  0  0  0
  8 10  1  0  0  0  0
  8 12  2  0  0  0  0
  9  2  2  0  0  0  0
  9  5  1  0  0  0  0
 11 25  1  1  0  0  0
 12  4  1  0  0  0  0
 13  3  2  0  0  0  0
 14 15  2  0  0  0  0
 15 11  1  0  0  0  0
 16  5  2  0  0  0  0
 16 13  1  0  0  0  0
 18 17  1  0  0  0  0
 18 24  1  1  0  0  0
 19 21  2  0  0  0  0
 19 22  1  0  0  0  0
 20 17  2  0  0  0  0
 21 20  1  0  0  0  0
 22 18  1  0  0  0  0
 24 23  1  0  0  0  0
 25 26  1  6  0  0  0
 25 27  1  0  0  0  0
 27 29  1  0  0  0  0
 28 29  2  0  0  0  0
 29 30  2  0  0  0  0
 29 31  1  0  0  0  0
 31 32  1  0  0  0  0
 31 35  1  0  0  0  0
 32 33  2  0  0  0  0
 35 36  1  0  0  0  0
 35 34  1  0  0  0  0
 36 34  1  0  0  0  0
 37 38  1  0  0  0  0
 37 32  1  0  0  0  0
 38 43  1  0  0  0  0
 40 41  2  0  0  0  0
 41 39  1  0  0  0  0
 42 40  1  0  0  0  0
 42 38  2  0  0  0  0
 43 39  2  0  0  0  0
M  END
>  <MODEL>
4

>  <REMARK>
 VINA RESULT:      -9.6      2.323     10.023
  Name = 
  9 active torsions:
  status: ('A' for Active; 'I' for Inactive)
    1  A    between atoms: N_1  and  C_35
    2  A    between atoms: C_2  and  C_6
    3  A    between atoms: C_2  and  C_27
    4  A    between atoms: N_4  and  S_12
    5  A    between atoms: N_4  and  C_15
    6  A    between atoms: C_6  and  S_12
    7  A    between atoms: C_11  and  C_14
    8  A    between atoms: C_14  and  C_22
    9  A    between atoms: C_19  and  O_37
                            x       y       z     vdW  Elec       q    Type
                         _______ _______ _______ _____ _____    ______ ____

>  <TORSDO>
F 9

$$$$
=
 OpenBabel10272414363D

 43 48  0  0  1  0  0  0  0  0999 V2000
  187.8410  177.7120  145.5050 N   0  0  0  0  0  2  0  0  0  0  0  0
  181.3800  179.0460  141.9250 C   0  0  0  0  0  0  0  0  0  0  0  0
  185.9570  178.2930  143.9360 C   0  0  0  0  0  0  0  0  0  0  0  0
  186.4210  177.9610  141.4920 C   0  0  0  0  0  2  0  0  0  0  0  0
  183.2380  178.7920  143.4570 C   0  0  0  0  0  0  0  0  0  0  0  0
  182.2320  178.8030  140.8450 C   0  0  0  0  0  3  0  0  0  0  0  0
  180.0320  179.2900  141.7030 O   0  0  0  0  0  1  0  0  0  0  0  0
  184.1090  178.5470  142.3680 C   0  0  0  0  0  0  0  0  0  0  0  0
  181.8810  179.0390  143.2290 C   0  0  0  0  0  3  0  0  0  0  0  0
  183.5900  178.5550  141.0640 C   0  0  0  0  0  3  0  0  0  0  0  0
  187.8330  178.4610  141.8270 C   0  0  1  0  0  3  0  0  0  0  0  0
  185.4740  178.3030  142.6110 C   0  0  0  0  0  0  0  0  0  0  0  0
  185.0810  178.5290  145.0020 C   0  0  0  0  0  3  0  0  0  0  0  0
  187.3930  178.0350  144.1790 C   0  0  0  0  0  0  0  0  0  0  0  0
  188.2300  178.0690  143.1820 N   0  0  0  0  0  0  0  0  0  0  0  0
  183.7290  178.7790  144.7640 C   0  0  0  0  0  3  0  0  0  0  0  0
  190.7510  176.8930  147.7240 C   0  0  0  0  0  3  0  0  0  0  0  0
  191.5690  176.0760  146.7590 C   0  0  1  0  0  3  0  0  0  0  0  0
  190.0390  176.9480  144.9850 C   0  0  0  0  0  3  0  0  0  0  0  0
  189.6090  177.4620  147.3260 C   0  0  0  0  0  3  0  0  0  0  0  0
  189.1710  177.3670  145.9130 C   0  0  0  0  0  0  0  0  0  0  0  0
  191.4720  176.6550  145.3430 C   0  0  0  0  0  2  0  0  0  0  0  0
  192.8450  175.7950  148.5450 C   0  0  0  0  0  1  0  0  0  0  0  0
  192.9010  176.0450  147.1720 O   0  0  0  0  0  0  0  0  0  0  0  0
  188.8870  178.0200  140.8090 C   0  0  1  0  0  3  0  0  0  0  0  0
  189.9350  177.1130  141.4350 C   0  0  0  0  0  1  0  0  0  0  0  0
  188.2560  177.3250  139.6100 C   0  0  0  0  0  2  0  0  0  0  0  0
  190.3070  177.3910  137.8630 O   0  0  0  0  0  0  0  0  0  0  0  0
  188.9270  177.9460  138.0730 S   0  0  0  0  0  0  0  0  0  0  0  0
  188.9920  179.4440  138.1580 O   0  0  0  0  0  0  0  0  0  0  0  0
  187.9040  177.4730  136.7430 N   0  0  0  0  0  0  0  0  0  0  0  0
  188.3740  176.5290  135.7620 C   0  0  0  0  0  0  0  0  0  0  0  0
  187.8480  176.4920  134.6170 O   0  0  0  0  0  0  0  0  0  0  0  0
  185.4690  177.2570  136.8540 C   0  0  0  0  0  2  0  0  0  0  0  0
  186.6370  178.1750  136.5300 C   0  0  0  0  0  3  0  0  0  0  0  0
  185.8850  178.3170  137.8430 C   0  0  0  0  0  2  0  0  0  0  0  0
  189.4450  175.5380  136.0920 C   0  0  0  0  0  2  0  0  0  0  0  0
  188.8970  174.1520  136.0640 C   0  0  0  0  0  0  0  0  0  0  0  0
  187.3630  172.4850  136.9260 C   0  0  0  0  0  3  0  0  0  0  0  0
  188.9330  171.8970  135.1790 C   0  0  0  0  0  3  0  0  0  0  0  0
  187.8980  171.5380  136.0460 C   0  0  0  0  0  3  0  0  0  0  0  0
  189.4330  173.2020  135.1890 C   0  0  0  0  0  3  0  0  0  0  0  0
  187.8630  173.7900  136.9370 C   0  0  0  0  0  3  0  0  0  0  0  0
  1 21  1  0  0  0  0
  2  9  1  0  0  0  0
  3 14  1  0  0  0  0
  3 13  1  0  0  0  0
  4 11  1  0  0  0  0
  4 12  1  0  0  0  0
  5 16  1  0  0  0  0
  6 10  1  0  0  0  0
  6  2  2  0  0  0  0
  7  2  1  0  0  0  0
  8 12  1  0  0  0  0
  8  5  1  0  0  0  0
  9  5  2  0  0  0  0
 10  8  2  0  0  0  0
 11 25  1  6  0  0  0
 11 15  1  0  0  0  0
 12  3  2  0  0  0  0
 14  1  1  0  0  0  0
 15 14  2  0  0  0  0
 16 13  2  0  0  0  0
 18 24  1  1  0  0  0
 18 17  1  0  0  0  0
 19 22  1  0  0  0  0
 19 21  2  0  0  0  0
 20 17  2  0  0  0  0
 21 20  1  0  0  0  0
 22 18  1  0  0  0  0
 24 23  1  0  0  0  0
 25 26  1  1  0  0  0
 27 25  1  0  0  0  0
 28 29  2  0  0  0  0
 29 30  2  0  0  0  0
 29 27  1  0  0  0  0
 31 29  1  0  0  0  0
 32 37  1  0  0  0  0
 32 31  1  0  0  0  0
 33 32  2  0  0  0  0
 34 36  1  0  0  0  0
 35 31  1  0  0  0  0
 35 34  1  0  0  0  0
 35 36  1  0  0  0  0
 38 37  1  0  0  0  0
 38 43  1  0  0  0  0
 39 43  2  0  0  0  0
 40 42  1  0  0  0  0
 40 41  2  0  0  0  0
 41 39  1  0  0  0  0
 42 38  2  0  0  0  0
M  END
>  <MODEL>
5

>  <REMARK>
 VINA RESULT:      -9.6      1.704      2.288
  Name = 
  9 active torsions:
  status: ('A' for Active; 'I' for Inactive)
    1  A    between atoms: N_1  and  C_35
    2  A    between atoms: C_2  and  C_6
    3  A    between atoms: C_2  and  C_27
    4  A    between atoms: N_4  and  S_12
    5  A    between atoms: N_4  and  C_15
    6  A    between atoms: C_6  and  S_12
    7  A    between atoms: C_11  and  C_14
    8  A    between atoms: C_14  and  C_22
    9  A    between atoms: C_19  and  O_37
                            x       y       z     vdW  Elec       q    Type
                         _______ _______ _______ _____ _____    ______ ____

>  <TORSDO>
F 9

$$$$
=
 OpenBabel10272414363D

 43 48  0  0  1  0  0  0  0  0999 V2000
  185.0520  178.3490  143.3380 N   0  0  0  0  0  2  0  0  0  0  0  0
  191.2590  176.8540  147.2830 C   0  0  0  0  0  0  0  0  0  0  0  0
  187.3160  177.7060  144.2360 C   0  0  0  0  0  0  0  0  0  0  0  0
  189.2430  177.9730  142.6510 C   0  0  0  0  0  2  0  0  0  0  0  0
  189.0290  177.1680  146.3910 C   0  0  0  0  0  0  0  0  0  0  0  0
  191.8020  177.0740  146.0140 C   0  0  0  0  0  3  0  0  0  0  0  0
  192.0960  176.5910  148.3590 O   0  0  0  0  0  1  0  0  0  0  0  0
  189.5710  177.3900  145.1020 C   0  0  0  0  0  0  0  0  0  0  0  0
  189.8760  176.9020  147.4720 C   0  0  0  0  0  3  0  0  0  0  0  0
  190.9640  177.3410  144.9290 C   0  0  0  0  0  3  0  0  0  0  0  0
  188.2550  177.4950  141.5780 C   0  0  1  0  0  3  0  0  0  0  0  0
  188.7090  177.6540  144.0220 C   0  0  0  0  0  0  0  0  0  0  0  0
  186.7960  177.4930  145.5190 C   0  0  0  0  0  3  0  0  0  0  0  0
  186.4190  177.9840  143.0930 C   0  0  0  0  0  0  0  0  0  0  0  0
  186.8880  177.9290  141.8800 N   0  0  0  0  0  0  0  0  0  0  0  0
  187.6480  177.2240  146.5900 C   0  0  0  0  0  3  0  0  0  0  0  0
  183.4890  179.1770  140.0300 C   0  0  0  0  0  3  0  0  0  0  0  0
  182.0620  178.8070  140.3380 C   0  0  1  0  0  3  0  0  0  0  0  0
  182.7760  178.7220  142.7320 C   0  0  0  0  0  3  0  0  0  0  0  0
  184.4250  179.0940  140.9790 C   0  0  0  0  0  3  0  0  0  0  0  0
  184.0630  178.7180  142.3670 C   0  0  0  0  0  0  0  0  0  0  0  0
  181.7050  179.1850  141.7800 C   0  0  0  0  0  2  0  0  0  0  0  0
  181.7910  179.2840  138.1940 C   0  0  0  0  0  1  0  0  0  0  0  0
  181.2010  179.4520  139.4480 O   0  0  0  0  0  0  0  0  0  0  0  0
  188.6520  177.9160  140.1610 C   0  0  1  0  0  3  0  0  0  0  0  0
  190.1190  177.6370  139.8780 C   0  0  0  0  0  1  0  0  0  0  0  0
  187.7870  177.2360  139.1080 C   0  0  0  0  0  2  0  0  0  0  0  0
  188.5350  179.4080  137.6980 O   0  0  0  0  0  0  0  0  0  0  0  0
  187.5110  178.3080  137.7040 S   0  0  0  0  0  0  0  0  0  0  0  0
  186.1360  178.9000  137.8250 O   0  0  0  0  0  0  0  0  0  0  0  0
  187.6340  177.3950  136.2240 N   0  0  0  0  0  0  0  0  0  0  0  0
  188.9080  177.2250  135.5750 C   0  0  0  0  0  0  0  0  0  0  0  0
  188.9610  176.9460  134.3470 O   0  0  0  0  0  0  0  0  0  0  0  0
  186.2630  175.4460  135.6670 C   0  0  0  0  0  2  0  0  0  0  0  0
  186.4100  176.9550  135.5510 C   0  0  0  0  0  3  0  0  0  0  0  0
  185.4440  176.3490  136.5560 C   0  0  0  0  0  2  0  0  0  0  0  0
  190.1870  177.3140  136.3460 C   0  0  0  0  0  2  0  0  0  0  0  0
  190.8310  175.9730  136.4420 C   0  0  0  0  0  0  0  0  0  0  0  0
  192.8190  174.5890  136.3540 C   0  0  0  0  0  3  0  0  0  0  0  0
  190.6530  173.5740  136.7290 C   0  0  0  0  0  3  0  0  0  0  0  0
  192.0370  173.4510  136.5770 C   0  0  0  0  0  3  0  0  0  0  0  0
  190.0500  174.8330  136.6610 C   0  0  0  0  0  3  0  0  0  0  0  0
  192.2170  175.8490  136.2850 C   0  0  0  0  0  3  0  0  0  0  0  0
  2  9  1  0  0  0  0
  2  7  1  0  0  0  0
  3 13  1  0  0  0  0
  4 12  1  0  0  0  0
  5 16  1  0  0  0  0
  5  9  2  0  0  0  0
  6  2  2  0  0  0  0
  8  5  1  0  0  0  0
 10  8  2  0  0  0  0
 10  6  1  0  0  0  0
 11 25  1  6  0  0  0
 11 15  1  0  0  0  0
 11  4  1  0  0  0  0
 12  3  2  0  0  0  0
 12  8  1  0  0  0  0
 13 16  2  0  0  0  0
 14  1  1  0  0  0  0
 14  3  1  0  0  0  0
 15 14  2  0  0  0  0
 17 18  1  0  0  0  0
 17 20  2  0  0  0  0
 18 24  1  6  0  0  0
 18 22  1  0  0  0  0
 20 21  1  0  0  0  0
 21 19  2  0  0  0  0
 21  1  1  0  0  0  0
 22 19  1  0  0  0  0
 23 24  1  0  0  0  0
 25 26  1  6  0  0  0
 27 25  1  0  0  0  0
 28 29  2  0  0  0  0
 29 30  2  0  0  0  0
 29 27  1  0  0  0  0
 31 29  1  0  0  0  0
 32 31  1  0  0  0  0
 32 37  1  0  0  0  0
 33 32  2  0  0  0  0
 34 36  1  0  0  0  0
 35 34  1  0  0  0  0
 35 31  1  0  0  0  0
 35 36  1  0  0  0  0
 37 38  1  0  0  0  0
 38 42  1  0  0  0  0
 39 41  2  0  0  0  0
 41 40  1  0  0  0  0
 42 40  2  0  0  0  0
 43 39  1  0  0  0  0
 43 38  2  0  0  0  0
M  END
>  <MODEL>
6

>  <REMARK>
 VINA RESULT:      -9.5      1.336      6.480
  Name = 
  9 active torsions:
  status: ('A' for Active; 'I' for Inactive)
    1  A    between atoms: N_1  and  C_35
    2  A    between atoms: C_2  and  C_6
    3  A    between atoms: C_2  and  C_27
    4  A    between atoms: N_4  and  S_12
    5  A    between atoms: N_4  and  C_15
    6  A    between atoms: C_6  and  S_12
    7  A    between atoms: C_11  and  C_14
    8  A    between atoms: C_14  and  C_22
    9  A    between atoms: C_19  and  O_37
                            x       y       z     vdW  Elec       q    Type
                         _______ _______ _______ _____ _____    ______ ____

>  <TORSDO>
F 9

$$$$
=
 OpenBabel10272414363D

 43 48  0  0  1  0  0  0  0  0999 V2000
  184.5670  178.3270  143.6470 N   0  0  0  0  0  2  0  0  0  0  0  0
  191.2060  176.9360  146.8610 C   0  0  0  0  0  0  0  0  0  0  0  0
  186.9380  177.7530  144.2760 C   0  0  0  0  0  0  0  0  0  0  0  0
  188.6790  178.2090  142.5280 C   0  0  0  0  0  2  0  0  0  0  0  0
  188.8850  177.1840  146.2140 C   0  0  0  0  0  0  0  0  0  0  0  0
  191.6060  177.2550  145.5600 C   0  0  0  0  0  3  0  0  0  0  0  0
  192.1590  176.6560  147.8300 O   0  0  0  0  0  1  0  0  0  0  0  0
  189.2820  177.5060  144.8940 C   0  0  0  0  0  0  0  0  0  0  0  0
  189.8480  176.9010  147.1870 C   0  0  0  0  0  3  0  0  0  0  0  0
  190.6500  177.5390  144.5810 C   0  0  0  0  0  3  0  0  0  0  0  0
  187.6100  177.7430  141.5300 C   0  0  1  0  0  3  0  0  0  0  0  0
  188.3030  177.7860  143.9220 C   0  0  0  0  0  0  0  0  0  0  0  0
  186.5620  177.4410  145.5880 C   0  0  0  0  0  3  0  0  0  0  0  0
  185.9180  178.0490  143.2460 C   0  0  0  0  0  0  0  0  0  0  0  0
  186.2630  178.0870  141.9920 N   0  0  0  0  0  0  0  0  0  0  0  0
  187.5300  177.1560  146.5520 C   0  0  0  0  0  3  0  0  0  0  0  0
  182.4870  178.7940  140.5610 C   0  0  0  0  0  3  0  0  0  0  0  0
  181.1190  178.8100  141.1920 C   0  0  1  0  0  3  0  0  0  0  0  0
  182.3120  179.0540  143.3750 C   0  0  0  0  0  3  0  0  0  0  0  0
  183.5790  178.7030  141.3250 C   0  0  0  0  0  3  0  0  0  0  0  0
  183.4690  178.6990  142.8030 C   0  0  0  0  0  0  0  0  0  0  0  0
  181.1550  179.5370  142.5410 C   0  0  0  0  0  2  0  0  0  0  0  0
  180.3220  178.7440  139.1290 C   0  0  0  0  0  1  0  0  0  0  0  0
  180.2090  179.4340  140.3370 O   0  0  0  0  0  0  0  0  0  0  0  0
  187.8410  178.2630  140.1100 C   0  0  1  0  0  3  0  0  0  0  0  0
  189.3220  178.3810  139.7840 C   0  0  0  0  0  1  0  0  0  0  0  0
  187.1550  177.3880  139.0700 C   0  0  0  0  0  2  0  0  0  0  0  0
  187.3550  179.3010  137.1830 O   0  0  0  0  0  0  0  0  0  0  0  0
  186.3530  178.3770  137.8150 S   0  0  0  0  0  0  0  0  0  0  0  0
  185.2680  179.1830  138.4720 O   0  0  0  0  0  0  0  0  0  0  0  0
  185.6650  177.3440  136.5910 N   0  0  0  0  0  0  0  0  0  0  0  0
  186.3980  177.0520  135.3870 C   0  0  0  0  0  0  0  0  0  0  0  0
  185.7880  176.6740  134.3510 O   0  0  0  0  0  0  0  0  0  0  0  0
  184.1910  175.4200  136.9250 C   0  0  0  0  0  2  0  0  0  0  0  0
  184.2680  176.9230  136.7140 C   0  0  0  0  0  3  0  0  0  0  0  0
  184.0080  176.3510  138.0980 C   0  0  0  0  0  2  0  0  0  0  0  0
  187.8920  177.1280  135.3530 C   0  0  0  0  0  2  0  0  0  0  0  0
  188.4890  175.8900  135.9290 C   0  0  0  0  0  0  0  0  0  0  0  0
  190.2360  174.8050  137.2120 C   0  0  0  0  0  3  0  0  0  0  0  0
  188.4700  173.4840  136.2120 C   0  0  0  0  0  3  0  0  0  0  0  0
  189.6390  173.5630  136.9740 C   0  0  0  0  0  3  0  0  0  0  0  0
  187.8970  174.6460  135.6890 C   0  0  0  0  0  3  0  0  0  0  0  0
  189.6630  175.9680  136.6890 C   0  0  0  0  0  3  0  0  0  0  0  0
  2  9  1  0  0  0  0
  2  7  1  0  0  0  0
  3 13  1  0  0  0  0
  4 12  1  0  0  0  0
  5 16  1  0  0  0  0
  5  9  2  0  0  0  0
  6  2  2  0  0  0  0
  8  5  1  0  0  0  0
 10  8  2  0  0  0  0
 10  6  1  0  0  0  0
 11 25  1  6  0  0  0
 11 15  1  0  0  0  0
 11  4  1  0  0  0  0
 12  3  2  0  0  0  0
 12  8  1  0  0  0  0
 13 16  2  0  0  0  0
 14  1  1  0  0  0  0
 14  3  1  0  0  0  0
 15 14  2  0  0  0  0
 17 18  1  0  0  0  0
 17 20  2  0  0  0  0
 18 24  1  6  0  0  0
 18 22  1  0  0  0  0
 20 21  1  0  0  0  0
 21 19  2  0  0  0  0
 21  1  1  0  0  0  0
 22 19  1  0  0  0  0
 23 24  1  0  0  0  0
 25 26  1  6  0  0  0
 27 25  1  0  0  0  0
 28 29  2  0  0  0  0
 29 30  2  0  0  0  0
 29 27  1  0  0  0  0
 31 35  1  0  0  0  0
 31 29  1  0  0  0  0
 32 31  1  0  0  0  0
 33 32  2  0  0  0  0
 34 36  1  0  0  0  0
 35 34  1  0  0  0  0
 35 36  1  0  0  0  0
 37 32  1  0  0  0  0
 37 38  1  0  0  0  0
 38 43  1  0  0  0  0
 40 41  2  0  0  0  0
 41 39  1  0  0  0  0
 42 38  2  0  0  0  0
 42 40  1  0  0  0  0
 43 39  2  0  0  0  0
M  END
>  <MODEL>
7

>  <REMARK>
 VINA RESULT:      -9.4      1.886      6.811
  Name = 
  9 active torsions:
  status: ('A' for Active; 'I' for Inactive)
    1  A    between atoms: N_1  and  C_35
    2  A    between atoms: C_2  and  C_6
    3  A    between atoms: C_2  and  C_27
    4  A    between atoms: N_4  and  S_12
    5  A    between atoms: N_4  and  C_15
    6  A    between atoms: C_6  and  S_12
    7  A    between atoms: C_11  and  C_14
    8  A    between atoms: C_14  and  C_22
    9  A    between atoms: C_19  and  O_37
                            x       y       z     vdW  Elec       q    Type
                         _______ _______ _______ _____ _____    ______ ____

>  <TORSDO>
F 9

$$$$
=
 OpenBabel10272414363D

 43 48  0  0  1  0  0  0  0  0999 V2000
  185.2610  178.3820  142.5920 N   0  0  0  0  0  2  0  0  0  0  0  0
  191.1420  176.9260  147.0220 C   0  0  0  0  0  0  0  0  0  0  0  0
  187.4410  177.7300  143.6730 C   0  0  0  0  0  0  0  0  0  0  0  0
  189.4790  177.8890  142.2170 C   0  0  0  0  0  2  0  0  0  0  0  0
  188.9880  177.2490  145.9630 C   0  0  0  0  0  0  0  0  0  0  0  0
  191.7770  177.0800  145.7870 C   0  0  0  0  0  3  0  0  0  0  0  0
  191.8960  176.6910  148.1640 O   0  0  0  0  0  1  0  0  0  0  0  0
  189.6230  177.4040  144.7080 C   0  0  0  0  0  0  0  0  0  0  0  0
  189.7510  177.0110  147.1110 C   0  0  0  0  0  3  0  0  0  0  0  0
  191.0230  177.3180  144.6350 C   0  0  0  0  0  3  0  0  0  0  0  0
  188.5570  177.3870  141.0980 C   0  0  1  0  0  3  0  0  0  0  0  0
  188.8440  177.6400  143.5590 C   0  0  0  0  0  0  0  0  0  0  0  0
  186.8290  177.5840  144.9240 C   0  0  0  0  0  3  0  0  0  0  0  0
  186.6330  177.9790  142.4590 C   0  0  0  0  0  0  0  0  0  0  0  0
  187.1830  177.8620  141.2850 N   0  0  0  0  0  0  0  0  0  0  0  0
  187.5980  177.3420  146.0620 C   0  0  0  0  0  3  0  0  0  0  0  0
  183.9970  179.3780  139.2040 C   0  0  0  0  0  3  0  0  0  0  0  0
  182.6110  178.7950  139.2830 C   0  0  1  0  0  3  0  0  0  0  0  0
  183.0420  178.5280  141.7300 C   0  0  0  0  0  3  0  0  0  0  0  0
  184.8180  179.3070  140.2560 C   0  0  0  0  0  3  0  0  0  0  0  0
  184.3510  178.7310  141.5400 C   0  0  0  0  0  0  0  0  0  0  0  0
  182.0360  178.9550  140.6950 C   0  0  0  0  0  2  0  0  0  0  0  0
  181.9530  180.7880  138.5800 C   0  0  0  0  0  1  0  0  0  0  0  0
  181.7780  179.4210  138.3540 O   0  0  0  0  0  0  0  0  0  0  0  0
  189.0610  177.7390  139.6960 C   0  0  1  0  0  3  0  0  0  0  0  0
  190.5250  177.3720  139.5130 C   0  0  0  0  0  1  0  0  0  0  0  0
  188.2250  177.0710  138.6130 C   0  0  0  0  0  2  0  0  0  0  0  0
  189.1580  179.1500  137.1740 O   0  0  0  0  0  0  0  0  0  0  0  0
  188.0580  178.1270  137.1800 S   0  0  0  0  0  0  0  0  0  0  0  0
  186.7260  178.8180  137.2550 O   0  0  0  0  0  0  0  0  0  0  0  0
  188.1470  177.1730  135.7230 N   0  0  0  0  0  0  0  0  0  0  0  0
  187.1130  176.2210  135.4110 C   0  0  0  0  0  0  0  0  0  0  0  0
  187.3500  175.2640  134.6240 O   0  0  0  0  0  0  0  0  0  0  0  0
  190.5120  176.5480  135.6560 C   0  0  0  0  0  2  0  0  0  0  0  0
  189.3660  177.2170  134.9130 C   0  0  0  0  0  3  0  0  0  0  0  0
  189.8070  175.8090  134.5460 C   0  0  0  0  0  2  0  0  0  0  0  0
  185.7290  176.3740  135.9570 C   0  0  0  0  0  2  0  0  0  0  0  0
  185.1850  175.0500  136.3720 C   0  0  0  0  0  0  0  0  0  0  0  0
  185.3790  173.0180  137.6790 C   0  0  0  0  0  3  0  0  0  0  0  0
  183.4970  173.3210  136.1850 C   0  0  0  0  0  3  0  0  0  0  0  0
  184.1880  172.5440  137.1190 C   0  0  0  0  0  3  0  0  0  0  0  0
  183.9960  174.5720  135.8110 C   0  0  0  0  0  3  0  0  0  0  0  0
  185.8780  174.2680  137.3050 C   0  0  0  0  0  3  0  0  0  0  0  0
  2  9  1  0  0  0  0
  2  7  1  0  0  0  0
  3 13  1  0  0  0  0
  4 12  1  0  0  0  0
  5 16  1  0  0  0  0
  5  9  2  0  0  0  0
  6  2  2  0  0  0  0
  8  5  1  0  0  0  0
 10  8  2  0  0  0  0
 10  6  1  0  0  0  0
 11 25  1  6  0  0  0
 11 15  1  0  0  0  0
 11  4  1  0  0  0  0
 12  3  2  0  0  0  0
 12  8  1  0  0  0  0
 13 16  2  0  0  0  0
 14  1  1  0  0  0  0
 14  3  1  0  0  0  0
 15 14  2  0  0  0  0
 17 18  1  0  0  0  0
 17 20  2  0  0  0  0
 18 24  1  6  0  0  0
 18 22  1  0  0  0  0
 20 21  1  0  0  0  0
 21 19  2  0  0  0  0
 21  1  1  0  0  0  0
 22 19  1  0  0  0  0
 24 23  1  0  0  0  0
 25 26  1  1  0  0  0
 27 25  1  0  0  0  0
 28 29  2  0  0  0  0
 29 30  2  0  0  0  0
 29 27  1  0  0  0  0
 31 29  1  0  0  0  0
 32 31  1  0  0  0  0
 32 37  1  0  0  0  0
 33 32  2  0  0  0  0
 35 34  1  0  0  0  0
 35 31  1  0  0  0  0
 36 35  1  0  0  0  0
 36 34  1  0  0  0  0
 37 38  1  0  0  0  0
 38 43  1  0  0  0  0
 40 41  2  0  0  0  0
 41 39  1  0  0  0  0
 42 40  1  0  0  0  0
 42 38  2  0  0  0  0
 43 39  2  0  0  0  0
M  END
>  <MODEL>
8

>  <REMARK>
 VINA RESULT:      -9.4      2.030      7.299
  Name = 
  9 active torsions:
  status: ('A' for Active; 'I' for Inactive)
    1  A    between atoms: N_1  and  C_35
    2  A    between atoms: C_2  and  C_6
    3  A    between atoms: C_2  and  C_27
    4  A    between atoms: N_4  and  S_12
    5  A    between atoms: N_4  and  C_15
    6  A    between atoms: C_6  and  S_12
    7  A    between atoms: C_11  and  C_14
    8  A    between atoms: C_14  and  C_22
    9  A    between atoms: C_19  and  O_37
                            x       y       z     vdW  Elec       q    Type
                         _______ _______ _______ _____ _____    ______ ____

>  <TORSDO>
F 9

$$$$
=
 OpenBabel10272414363D

 43 48  0  0  1  0  0  0  0  0999 V2000
  182.5450  179.5610  140.1520 N   0  0  0  0  0  2  0  0  0  0  0  0
  186.7340  177.9890  146.1790 C   0  0  0  0  0  0  0  0  0  0  0  0
  184.2240  178.7850  141.8630 C   0  0  0  0  0  0  0  0  0  0  0  0
  186.5650  178.4420  141.0270 C   0  0  0  0  0  2  0  0  0  0  0  0
  185.0170  178.4430  144.5320 C   0  0  0  0  0  0  0  0  0  0  0  0
  187.6830  177.8680  145.1610 C   0  0  0  0  0  3  0  0  0  0  0  0
  187.1130  177.8260  147.5040 O   0  0  0  0  0  1  0  0  0  0  0  0
  185.9730  178.3200  143.4950 C   0  0  0  0  0  0  0  0  0  0  0  0
  185.4030  178.2770  145.8650 C   0  0  0  0  0  3  0  0  0  0  0  0
  187.3070  178.0320  143.8260 C   0  0  0  0  0  3  0  0  0  0  0  0
  185.8920  177.9110  139.7540 C   0  0  1  0  0  3  0  0  0  0  0  0
  185.5710  178.4870  142.1560 C   0  0  0  0  0  0  0  0  0  0  0  0
  183.2930  178.9120  142.9010 C   0  0  0  0  0  3  0  0  0  0  0  0
  183.8140  178.9580  140.4520 C   0  0  0  0  0  0  0  0  0  0  0  0
  184.6210  178.5930  139.4980 N   0  0  0  0  0  0  0  0  0  0  0  0
  183.6870  178.7400  144.2280 C   0  0  0  0  0  3  0  0  0  0  0  0
  181.1930  179.0850  136.6860 C   0  0  0  0  0  3  0  0  0  0  0  0
  180.3850  180.3510  136.5660 C   0  0  1  0  0  3  0  0  0  0  0  0
  181.5910  181.1170  138.6180 C   0  0  0  0  0  3  0  0  0  0  0  0
  181.9220  178.8540  137.7810 C   0  0  0  0  0  3  0  0  0  0  0  0
  182.0140  179.8700  138.8570 C   0  0  0  0  0  0  0  0  0  0  0  0
  181.1050  181.5190  137.2500 C   0  0  0  0  0  2  0  0  0  0  0  0
  180.2560  182.0400  135.1420 C   0  0  0  0  0  1  0  0  0  0  0  0
  180.1640  180.6480  135.2210 O   0  0  0  0  0  0  0  0  0  0  0  0
  186.7960  177.9770  138.5200 C   0  0  1  0  0  3  0  0  0  0  0  0
  186.4200  179.1300  137.6040 C   0  0  0  0  0  1  0  0  0  0  0  0
  188.2660  178.0830  138.9040 C   0  0  0  0  0  2  0  0  0  0  0  0
  189.4360  177.7420  136.5000 O   0  0  0  0  0  0  0  0  0  0  0  0
  189.2880  177.0750  137.8380 S   0  0  0  0  0  0  0  0  0  0  0  0
  188.6200  175.7410  137.6670 O   0  0  0  0  0  0  0  0  0  0  0  0
  190.8630  176.8600  138.5540 N   0  0  0  0  0  0  0  0  0  0  0  0
  191.0810  177.1680  139.9440 C   0  0  0  0  0  0  0  0  0  0  0  0
  192.2440  177.4140  140.3630 O   0  0  0  0  0  0  0  0  0  0  0  0
  192.4890  175.1240  137.9770 C   0  0  0  0  0  2  0  0  0  0  0  0
  192.0020  176.5360  137.6930 C   0  0  0  0  0  3  0  0  0  0  0  0
  191.6470  175.3940  136.7550 C   0  0  0  0  0  2  0  0  0  0  0  0
  189.9550  177.1450  140.9270 C   0  0  0  0  0  2  0  0  0  0  0  0
  190.4790  177.2340  142.3200 C   0  0  0  0  0  0  0  0  0  0  0  0
  191.2540  178.5690  144.1880 C   0  0  0  0  0  3  0  0  0  0  0  0
  191.2460  176.1530  144.3480 C   0  0  0  0  0  3  0  0  0  0  0  0
  191.5050  177.4020  144.9180 C   0  0  0  0  0  3  0  0  0  0  0  0
  190.7340  176.0680  143.0500 C   0  0  0  0  0  3  0  0  0  0  0  0
  190.7430  178.4850  142.8900 C   0  0  0  0  0  3  0  0  0  0  0  0
  1 14  1  0  0  0  0
  2  7  1  0  0  0  0
  3 12  2  0  0  0  0
  3 13  1  0  0  0  0
  4 12  1  0  0  0  0
  5  9  2  0  0  0  0
  6  2  2  0  0  0  0
  8 10  2  0  0  0  0
  8  5  1  0  0  0  0
  9  2  1  0  0  0  0
 10  6  1  0  0  0  0
 11 25  1  6  0  0  0
 11  4  1  0  0  0  0
 12  8  1  0  0  0  0
 13 16  2  0  0  0  0
 14  3  1  0  0  0  0
 15 11  1  0  0  0  0
 15 14  2  0  0  0  0
 16  5  1  0  0  0  0
 17 20  2  0  0  0  0
 18 24  1  6  0  0  0
 18 17  1  0  0  0  0
 18 22  1  0  0  0  0
 19 21  2  0  0  0  0
 20 21  1  0  0  0  0
 21  1  1  0  0  0  0
 22 19  1  0  0  0  0
 23 24  1  0  0  0  0
 25 26  1  1  0  0  0
 25 27  1  0  0  0  0
 28 29  2  0  0  0  0
 29 31  1  0  0  0  0
 29 27  1  0  0  0  0
 30 29  2  0  0  0  0
 31 32  1  0  0  0  0
 32 33  2  0  0  0  0
 32 37  1  0  0  0  0
 35 34  1  0  0  0  0
 35 31  1  0  0  0  0
 36 35  1  0  0  0  0
 36 34  1  0  0  0  0
 37 38  1  0  0  0  0
 38 43  2  0  0  0  0
 38 42  1  0  0  0  0
 39 41  2  0  0  0  0
 40 41  1  0  0  0  0
 42 40  2  0  0  0  0
 43 39  1  0  0  0  0
M  END
>  <MODEL>
9

>  <REMARK>
 VINA RESULT:      -9.3      2.909      7.848
  Name = 
  9 active torsions:
  status: ('A' for Active; 'I' for Inactive)
    1  A    between atoms: N_1  and  C_35
    2  A    between atoms: C_2  and  C_6
    3  A    between atoms: C_2  and  C_27
    4  A    between atoms: N_4  and  S_12
    5  A    between atoms: N_4  and  C_15
    6  A    between atoms: C_6  and  S_12
    7  A    between atoms: C_11  and  C_14
    8  A    between atoms: C_14  and  C_22
    9  A    between atoms: C_19  and  O_37
                            x       y       z     vdW  Elec       q    Type
                         _______ _______ _______ _____ _____    ______ ____

>  <TORSDO>
F 9

$$$$
