=
 OpenBabel10272415183D

 34 39  0  0  0  0  0  0  0  0999 V2000
  184.2300  178.6760  141.7710 C   0  0  0  0  0  0  0  0  0  0  0  0
  185.5020  178.3270  138.1510 C   0  0  0  0  0  3  0  0  0  0  0  0
  183.3020  178.5150  139.1250 C   0  0  0  0  0  3  0  0  0  0  0  0
  183.4320  178.8940  144.0870 C   0  0  0  0  0  0  0  0  0  0  0  0
  184.5020  178.7660  143.1570 C   0  0  0  0  0  3  0  0  0  0  0  0
  181.8680  178.8320  142.2690 C   0  0  0  0  0  0  0  0  0  0  0  0
  180.7080  178.8340  141.5740 N   0  0  0  0  0  0  0  0  0  0  0  0
  182.0850  178.9240  143.6420 C   0  0  0  0  0  3  0  0  0  0  0  0
  182.4610  178.6420  140.1770 N   0  0  0  0  0  0  0  0  0  0  0  0
  182.9010  178.7170  141.4150 C   0  0  0  0  0  0  0  0  0  0  0  0
  181.1120  178.7130  140.2700 C   0  0  0  0  0  3  0  0  0  0  0  0
  186.8170  178.2450  137.9890 C   0  0  0  0  0  3  0  0  0  0  0  0
  187.8890  178.2660  138.9890 C   0  0  0  0  0  0  0  0  0  0  0  0
  187.7050  178.3780  140.3030 C   0  0  0  0  0  3  0  0  0  0  0  0
  184.6960  178.4630  139.3700 C   0  0  0  0  0  0  0  0  0  0  0  0
  186.4700  178.5040  141.0830 C   0  0  0  0  0  3  0  0  0  0  0  0
  185.1820  178.5440  140.7230 C   0  0  0  0  0  0  0  0  0  0  0  0
  189.2730  178.1530  138.4870 C   0  0  0  0  0  0  0  0  0  0  0  0
  190.2790  177.6720  139.3160 O   0  0  0  0  0  1  0  0  0  0  0  0
  189.5610  178.4900  137.3070 O   0  0  0  0  0  0  0  0  0  0  0  0
  183.7290  178.9610  145.5480 C   0  0  0  0  0  2  0  0  0  0  0  0
  187.0050  178.3450  147.3530 C   0  0  0  0  0  3  0  0  0  0  0  0
  185.9290  178.0460  144.7790 C   0  0  0  0  0  3  0  0  0  0  0  0
  189.9230  176.9650  145.5340 C   0  0  0  0  0  0  0  0  0  0  0  0
  189.1250  177.4750  146.5680 C   0  0  0  0  0  3  0  0  0  0  0  0
  187.7980  177.8350  146.3230 C   0  0  0  0  0  0  0  0  0  0  0  0
  188.0510  177.1780  143.9950 C   0  0  0  0  0  3  0  0  0  0  0  0
  187.2570  177.6850  145.0260 C   0  0  0  0  0  0  0  0  0  0  0  0
  189.3780  176.8190  144.2490 C   0  0  0  0  0  3  0  0  0  0  0  0
  185.1370  178.5510  145.8180 C   0  0  0  0  0  0  0  0  0  0  0  0
  185.6770  178.7050  147.1000 C   0  0  0  0  0  3  0  0  0  0  0  0
  191.3200  176.5880  145.8000 C   0  0  0  0  0  0  0  0  0  0  0  0
  192.0000  175.9930  144.9210 O   0  0  0  0  0  0  0  0  0  0  0  0
  191.9050  176.8840  147.0260 O   0  0  0  0  0  1  0  0  0  0  0  0
  1  5  1  0  0  0  0
  2 15  1  0  0  0  0
  3 15  2  0  0  0  0
  3  9  1  0  0  0  0
  4 21  1  0  0  0  0
  5  4  2  0  0  0  0
  6  8  2  0  0  0  0
  7  6  1  0  0  0  0
  8  4  1  0  0  0  0
  9 11  1  0  0  0  0
  9 10  1  0  0  0  0
 10  1  2  0  0  0  0
 10  6  1  0  0  0  0
 11  7  2  0  0  0  0
 12  2  2  0  0  0  0
 12 13  1  0  0  0  0
 13 14  2  0  0  0  0
 14 16  1  0  0  0  0
 15 17  1  0  0  0  0
 17 16  2  0  0  0  0
 17  1  1  0  0  0  0
 18 13  1  0  0  0  0
 18 19  1  0  0  0  0
 20 18  2  0  0  0  0
 21 30  1  0  0  0  0
 23 28  2  0  0  0  0
 23 30  1  0  0  0  0
 24 32  1  0  0  0  0
 24 25  2  0  0  0  0
 26 25  1  0  0  0  0
 26 22  2  0  0  0  0
 27 29  2  0  0  0  0
 27 28  1  0  0  0  0
 28 26  1  0  0  0  0
 29 24  1  0  0  0  0
 30 31  2  0  0  0  0
 31 22  1  0  0  0  0
 32 34  1  0  0  0  0
 33 32  2  0  0  0  0
M  END
>  <MODEL>
1

>  <REMARK>
 VINA RESULT:     -12.3      0.000      0.000
  Name = 
  4 active torsions:
  status: ('A' for Active; 'I' for Inactive)
    1  A    between atoms: C_3  and  C_25
    2  A    between atoms: C_7  and  C_11
    3  A    between atoms: C_8  and  C_18
    4  A    between atoms: C_18  and  C_30
                            x       y       z     vdW  Elec       q    Type
                         _______ _______ _______ _____ _____    ______ ____

>  <TORSDO>
F 4

$$$$
=
 OpenBabel10272415183D

 34 39  0  0  0  0  0  0  0  0999 V2000
  189.0940  177.5510  144.3150 C   0  0  0  0  0  0  0  0  0  0  0  0
  191.4450  177.0960  141.2970 C   0  0  0  0  0  3  0  0  0  0  0  0
  191.6970  176.7190  143.6670 C   0  0  0  0  0  3  0  0  0  0  0  0
  187.5840  177.8500  146.2330 C   0  0  0  0  0  0  0  0  0  0  0  0
  187.8350  177.9340  144.8340 C   0  0  0  0  0  3  0  0  0  0  0  0
  189.8140  177.0270  146.5650 C   0  0  0  0  0  0  0  0  0  0  0  0
  190.9340  176.5650  147.1630 N   0  0  0  0  0  0  0  0  0  0  0  0
  188.5900  177.3940  147.1230 C   0  0  0  0  0  3  0  0  0  0  0  0
  191.2380  176.7230  144.9390 N   0  0  0  0  0  0  0  0  0  0  0  0
  190.0170  177.1140  145.2380 C   0  0  0  0  0  0  0  0  0  0  0  0
  191.8060  176.3850  146.1210 C   0  0  0  0  0  3  0  0  0  0  0  0
  190.9520  177.4160  140.1070 C   0  0  0  0  0  3  0  0  0  0  0  0
  189.6260  177.9280  139.7470 C   0  0  0  0  0  0  0  0  0  0  0  0
  188.6400  178.1680  140.6090 C   0  0  0  0  0  3  0  0  0  0  0  0
  190.8340  177.1480  142.6300 C   0  0  0  0  0  0  0  0  0  0  0  0
  188.5900  178.0060  142.0650 C   0  0  0  0  0  3  0  0  0  0  0  0
  189.4970  177.5770  142.9510 C   0  0  0  0  0  0  0  0  0  0  0  0
  189.3780  178.1920  138.3150 C   0  0  0  0  0  0  0  0  0  0  0  0
  188.7770  179.3820  137.9190 O   0  0  0  0  0  1  0  0  0  0  0  0
  189.7040  177.3490  137.4370 O   0  0  0  0  0  0  0  0  0  0  0  0
  186.2620  178.2820  146.7730 C   0  0  0  0  0  2  0  0  0  0  0  0
  183.0170  178.9550  144.9320 C   0  0  0  0  0  3  0  0  0  0  0  0
  185.6640  178.2360  144.3420 C   0  0  0  0  0  3  0  0  0  0  0  0
  182.8530  178.6620  141.2420 C   0  0  0  0  0  0  0  0  0  0  0  0
  182.4700  178.8800  142.5740 C   0  0  0  0  0  3  0  0  0  0  0  0
  183.4000  178.7400  143.6070 C   0  0  0  0  0  0  0  0  0  0  0  0
  185.1150  178.1580  141.9840 C   0  0  0  0  0  3  0  0  0  0  0  0
  184.7330  178.3770  143.3090 C   0  0  0  0  0  0  0  0  0  0  0  0
  184.1790  178.3010  140.9550 C   0  0  0  0  0  3  0  0  0  0  0  0
  185.2750  178.4590  145.6690 C   0  0  0  0  0  0  0  0  0  0  0  0
  183.9530  178.8120  145.9620 C   0  0  0  0  0  3  0  0  0  0  0  0
  181.8690  178.8110  140.1590 C   0  0  0  0  0  0  0  0  0  0  0  0
  182.0900  179.5930  139.1970 O   0  0  0  0  0  0  0  0  0  0  0  0
  180.6810  178.0880  140.1880 O   0  0  0  0  0  1  0  0  0  0  0  0
  1  5  2  0  0  0  0
  1 10  1  0  0  0  0
  2 15  1  0  0  0  0
  3  9  1  0  0  0  0
  4 21  1  0  0  0  0
  4  8  2  0  0  0  0
  5  4  1  0  0  0  0
  6  8  1  0  0  0  0
  6  7  1  0  0  0  0
  9 10  1  0  0  0  0
  9 11  1  0  0  0  0
 10  6  2  0  0  0  0
 11  7  2  0  0  0  0
 12  2  2  0  0  0  0
 13 12  1  0  0  0  0
 13 14  2  0  0  0  0
 14 16  1  0  0  0  0
 15 17  1  0  0  0  0
 15  3  2  0  0  0  0
 16 17  2  0  0  0  0
 17  1  1  0  0  0  0
 18 13  1  0  0  0  0
 19 18  1  0  0  0  0
 20 18  2  0  0  0  0
 22 31  1  0  0  0  0
 23 30  1  0  0  0  0
 24 25  2  0  0  0  0
 25 26  1  0  0  0  0
 26 22  2  0  0  0  0
 27 28  1  0  0  0  0
 28 26  1  0  0  0  0
 28 23  2  0  0  0  0
 29 24  1  0  0  0  0
 29 27  2  0  0  0  0
 30 31  2  0  0  0  0
 30 21  1  0  0  0  0
 32 34  1  0  0  0  0
 32 24  1  0  0  0  0
 33 32  2  0  0  0  0
M  END
>  <MODEL>
2

>  <REMARK>
 VINA RESULT:     -12.3      3.576      6.940
  Name = 
  4 active torsions:
  status: ('A' for Active; 'I' for Inactive)
    1  A    between atoms: C_3  and  C_25
    2  A    between atoms: C_7  and  C_11
    3  A    between atoms: C_8  and  C_18
    4  A    between atoms: C_18  and  C_30
                            x       y       z     vdW  Elec       q    Type
                         _______ _______ _______ _____ _____    ______ ____

>  <TORSDO>
F 4

$$$$
=
 OpenBabel10272415183D

 34 39  0  0  0  0  0  0  0  0999 V2000
  187.7800  177.7350  145.2400 C   0  0  0  0  0  0  0  0  0  0  0  0
  184.1190  178.8490  145.6890 C   0  0  0  0  0  3  0  0  0  0  0  0
  185.9580  178.5380  147.2210 C   0  0  0  0  0  3  0  0  0  0  0  0
  190.1140  177.0180  144.9390 C   0  0  0  0  0  0  0  0  0  0  0  0
  188.8310  177.3080  144.3940 C   0  0  0  0  0  3  0  0  0  0  0  0
  189.2880  177.5660  147.1250 C   0  0  0  0  0  0  0  0  0  0  0  0
  189.2290  177.7690  148.4600 N   0  0  0  0  0  0  0  0  0  0  0  0
  190.3530  177.1420  146.3320 C   0  0  0  0  0  3  0  0  0  0  0  0
  187.2390  178.2120  147.5090 N   0  0  0  0  0  0  0  0  0  0  0  0
  188.0890  177.8370  146.5780 C   0  0  0  0  0  0  0  0  0  0  0  0
  187.9360  178.1720  148.6690 C   0  0  0  0  0  3  0  0  0  0  0  0
  183.3770  178.9040  144.5900 C   0  0  0  0  0  3  0  0  0  0  0  0
  183.7330  178.6020  143.2000 C   0  0  0  0  0  0  0  0  0  0  0  0
  184.9340  178.1980  142.7890 C   0  0  0  0  0  3  0  0  0  0  0  0
  185.5250  178.4710  145.8740 C   0  0  0  0  0  0  0  0  0  0  0  0
  186.1650  177.9540  143.5480 C   0  0  0  0  0  3  0  0  0  0  0  0
  186.4510  178.0600  144.8510 C   0  0  0  0  0  0  0  0  0  0  0  0
  182.6690  178.7610  142.1880 C   0  0  0  0  0  0  0  0  0  0  0  0
  181.3910  179.1490  142.5740 O   0  0  0  0  0  1  0  0  0  0  0  0
  182.9020  178.5470  140.9680 O   0  0  0  0  0  0  0  0  0  0  0  0
  191.2070  176.5430  144.0420 C   0  0  0  0  0  2  0  0  0  0  0  0
  191.7030  177.3980  140.3820 C   0  0  0  0  0  3  0  0  0  0  0  0
  189.5970  177.1360  142.2190 C   0  0  0  0  0  3  0  0  0  0  0  0
  188.7980  178.2210  138.2340 C   0  0  0  0  0  0  0  0  0  0  0  0
  190.1170  177.9880  138.6490 C   0  0  0  0  0  3  0  0  0  0  0  0
  190.3880  177.6270  139.9710 C   0  0  0  0  0  0  0  0  0  0  0  0
  188.0130  177.7290  140.4840 C   0  0  0  0  0  3  0  0  0  0  0  0
  189.3270  177.4960  140.8950 C   0  0  0  0  0  0  0  0  0  0  0  0
  187.7500  178.0890  139.1590 C   0  0  0  0  0  3  0  0  0  0  0  0
  190.9170  176.9010  142.6240 C   0  0  0  0  0  0  0  0  0  0  0  0
  191.9670  177.0380  141.7080 C   0  0  0  0  0  3  0  0  0  0  0  0
  188.5200  178.6010  136.8400 C   0  0  0  0  0  0  0  0  0  0  0  0
  189.1430  178.0540  135.8920 O   0  0  0  0  0  0  0  0  0  0  0  0
  187.5650  179.5710  136.5560 O   0  0  0  0  0  1  0  0  0  0  0  0
  1 10  1  0  0  0  0
  2 15  1  0  0  0  0
  3  9  1  0  0  0  0
  4  8  2  0  0  0  0
  5  4  1  0  0  0  0
  5  1  2  0  0  0  0
  6  7  1  0  0  0  0
  7 11  2  0  0  0  0
  8  6  1  0  0  0  0
  9 11  1  0  0  0  0
 10  6  2  0  0  0  0
 10  9  1  0  0  0  0
 12  2  2  0  0  0  0
 13 12  1  0  0  0  0
 14 13  2  0  0  0  0
 14 16  1  0  0  0  0
 15  3  2  0  0  0  0
 16 17  2  0  0  0  0
 17  1  1  0  0  0  0
 17 15  1  0  0  0  0
 18 19  1  0  0  0  0
 18 13  1  0  0  0  0
 20 18  2  0  0  0  0
 21  4  1  0  0  0  0
 22 31  1  0  0  0  0
 23 30  1  0  0  0  0
 24 25  2  0  0  0  0
 24 29  1  0  0  0  0
 25 26  1  0  0  0  0
 26 22  2  0  0  0  0
 26 28  1  0  0  0  0
 27 28  1  0  0  0  0
 28 23  2  0  0  0  0
 29 27  2  0  0  0  0
 30 21  1  0  0  0  0
 31 30  2  0  0  0  0
 32 24  1  0  0  0  0
 33 32  2  0  0  0  0
 34 32  1  0  0  0  0
M  END
>  <MODEL>
3

>  <REMARK>
 VINA RESULT:     -12.2      3.597      7.602
  Name = 
  4 active torsions:
  status: ('A' for Active; 'I' for Inactive)
    1  A    between atoms: C_3  and  C_25
    2  A    between atoms: C_7  and  C_11
    3  A    between atoms: C_8  and  C_18
    4  A    between atoms: C_18  and  C_30
                            x       y       z     vdW  Elec       q    Type
                         _______ _______ _______ _____ _____    ______ ____

>  <TORSDO>
F 4

$$$$
=
 OpenBabel10272415183D

 34 39  0  0  0  0  0  0  0  0999 V2000
  185.5620  178.4940  141.6750 C   0  0  0  0  0  0  0  0  0  0  0  0
  187.6500  178.0360  138.4700 C   0  0  0  0  0  3  0  0  0  0  0  0
  185.3140  178.4850  138.8780 C   0  0  0  0  0  3  0  0  0  0  0  0
  184.2410  178.7810  143.7300 C   0  0  0  0  0  0  0  0  0  0  0  0
  185.4870  178.5320  143.0880 C   0  0  0  0  0  3  0  0  0  0  0  0
  183.1860  178.9380  141.5810 C   0  0  0  0  0  0  0  0  0  0  0  0
  182.2450  179.0930  140.6220 N   0  0  0  0  0  0  0  0  0  0  0  0
  183.0610  178.9830  142.9680 C   0  0  0  0  0  3  0  0  0  0  0  0
  184.2570  178.7010  139.6940 N   0  0  0  0  0  0  0  0  0  0  0  0
  184.3790  178.7050  141.0050 C   0  0  0  0  0  0  0  0  0  0  0  0
  182.9460  178.9390  139.4550 C   0  0  0  0  0  3  0  0  0  0  0  0
  188.9440  177.7930  138.6350 C   0  0  0  0  0  3  0  0  0  0  0  0
  189.7270  177.6670  139.8690 C   0  0  0  0  0  0  0  0  0  0  0  0
  189.2340  177.7850  141.1010 C   0  0  0  0  0  3  0  0  0  0  0  0
  186.5860  178.2560  139.4570 C   0  0  0  0  0  0  0  0  0  0  0  0
  187.8670  178.0530  141.5560 C   0  0  0  0  0  3  0  0  0  0  0  0
  186.7240  178.2580  140.8900 C   0  0  0  0  0  0  0  0  0  0  0  0
  191.1690  177.3900  139.7200 C   0  0  0  0  0  0  0  0  0  0  0  0
  191.6530  176.8190  138.5480 O   0  0  0  0  0  0  0  0  0  0  0  0
  191.9780  177.6630  140.6460 O   0  0  0  0  0  1  0  0  0  0  0  0
  184.1680  178.7910  145.2210 C   0  0  0  0  0  2  0  0  0  0  0  0
  186.9880  178.3840  147.7210 C   0  0  0  0  0  3  0  0  0  0  0  0
  186.4810  177.8560  145.0120 C   0  0  0  0  0  3  0  0  0  0  0  0
  190.2260  176.9130  146.6790 C   0  0  0  0  0  0  0  0  0  0  0  0
  189.2270  177.4920  147.4760 C   0  0  0  0  0  3  0  0  0  0  0  0
  187.9810  177.8060  146.9270 C   0  0  0  0  0  0  0  0  0  0  0  0
  188.7210  176.9660  144.7680 C   0  0  0  0  0  3  0  0  0  0  0  0
  187.7270  177.5410  145.5630 C   0  0  0  0  0  0  0  0  0  0  0  0
  189.9650  176.6530  145.3250 C   0  0  0  0  0  3  0  0  0  0  0  0
  185.4870  178.4300  145.8150 C   0  0  0  0  0  0  0  0  0  0  0  0
  185.7440  178.6980  147.1640 C   0  0  0  0  0  3  0  0  0  0  0  0
  191.5350  176.5840  147.2640 C   0  0  0  0  0  0  0  0  0  0  0  0
  191.9950  177.2590  148.2230 O   0  0  0  0  0  1  0  0  0  0  0  0
  192.2800  175.5230  146.7610 O   0  0  0  0  0  0  0  0  0  0  0  0
  1  5  1  0  0  0  0
  2 12  2  0  0  0  0
  2 15  1  0  0  0  0
  3 15  2  0  0  0  0
  3  9  1  0  0  0  0
  4 21  1  0  0  0  0
  5  4  2  0  0  0  0
  6  8  2  0  0  0  0
  7  6  1  0  0  0  0
  8  4  1  0  0  0  0
  9 10  1  0  0  0  0
 10  6  1  0  0  0  0
 10  1  2  0  0  0  0
 11  9  1  0  0  0  0
 11  7  2  0  0  0  0
 12 13  1  0  0  0  0
 13 14  2  0  0  0  0
 14 16  1  0  0  0  0
 15 17  1  0  0  0  0
 17 16  2  0  0  0  0
 17  1  1  0  0  0  0
 18 13  1  0  0  0  0
 18 20  1  0  0  0  0
 19 18  2  0  0  0  0
 21 30  1  0  0  0  0
 23 28  2  0  0  0  0
 23 30  1  0  0  0  0
 24 32  1  0  0  0  0
 24 25  2  0  0  0  0
 26 25  1  0  0  0  0
 26 22  2  0  0  0  0
 27 29  2  0  0  0  0
 27 28  1  0  0  0  0
 28 26  1  0  0  0  0
 29 24  1  0  0  0  0
 30 31  2  0  0  0  0
 31 22  1  0  0  0  0
 32 33  1  0  0  0  0
 34 32  2  0  0  0  0
M  END
>  <MODEL>
4

>  <REMARK>
 VINA RESULT:     -12.0      1.139      1.724
  Name = 
  4 active torsions:
  status: ('A' for Active; 'I' for Inactive)
    1  A    between atoms: C_3  and  C_25
    2  A    between atoms: C_7  and  C_11
    3  A    between atoms: C_8  and  C_18
    4  A    between atoms: C_18  and  C_30
                            x       y       z     vdW  Elec       q    Type
                         _______ _______ _______ _____ _____    ______ ____

>  <TORSDO>
F 4

$$$$
=
 OpenBabel10272415183D

 34 39  0  0  0  0  0  0  0  0999 V2000
  187.7020  177.8560  144.9530 C   0  0  0  0  0  0  0  0  0  0  0  0
  190.9940  176.7890  143.2600 C   0  0  0  0  0  3  0  0  0  0  0  0
  190.3280  177.0700  145.5630 C   0  0  0  0  0  3  0  0  0  0  0  0
  185.5940  178.5420  146.0200 C   0  0  0  0  0  0  0  0  0  0  0  0
  186.3530  178.2710  144.8460 C   0  0  0  0  0  3  0  0  0  0  0  0
  187.5090  177.9980  147.3600 C   0  0  0  0  0  0  0  0  0  0  0  0
  188.3080  177.7910  148.4310 N   0  0  0  0  0  0  0  0  0  0  0  0
  186.1790  178.4100  147.3060 C   0  0  0  0  0  3  0  0  0  0  0  0
  189.4270  177.3770  146.5240 N   0  0  0  0  0  0  0  0  0  0  0  0
  188.1970  177.7450  146.2330 C   0  0  0  0  0  0  0  0  0  0  0  0
  189.4990  177.4050  147.8750 C   0  0  0  0  0  3  0  0  0  0  0  0
  190.9930  176.7470  141.9340 C   0  0  0  0  0  3  0  0  0  0  0  0
  189.9160  177.0490  140.9860 C   0  0  0  0  0  0  0  0  0  0  0  0
  188.6880  177.4380  141.3230 C   0  0  0  0  0  3  0  0  0  0  0  0
  189.9300  177.1470  144.2060 C   0  0  0  0  0  0  0  0  0  0  0  0
  188.0920  177.6630  142.6440 C   0  0  0  0  0  3  0  0  0  0  0  0
  188.5860  177.5500  143.8820 C   0  0  0  0  0  0  0  0  0  0  0  0
  190.2310  176.9080  139.5500 C   0  0  0  0  0  0  0  0  0  0  0  0
  189.2240  177.0320  138.5990 O   0  0  0  0  0  0  0  0  0  0  0  0
  191.4090  176.6730  139.1670 O   0  0  0  0  0  1  0  0  0  0  0  0
  184.1820  179.0060  145.8950 C   0  0  0  0  0  2  0  0  0  0  0  0
  181.9340  178.6890  142.8590 C   0  0  0  0  0  3  0  0  0  0  0  0
  184.6650  178.9630  143.4390 C   0  0  0  0  0  3  0  0  0  0  0  0
  183.3760  178.6680  139.4460 C   0  0  0  0  0  0  0  0  0  0  0  0
  182.4420  178.6300  140.4910 C   0  0  0  0  0  3  0  0  0  0  0  0
  182.8650  178.7290  141.8190 C   0  0  0  0  0  0  0  0  0  0  0  0
  185.1720  178.9020  141.0700 C   0  0  0  0  0  3  0  0  0  0  0  0
  184.2410  178.8660  142.1100 C   0  0  0  0  0  0  0  0  0  0  0  0
  184.7410  178.8040  139.7440 C   0  0  0  0  0  3  0  0  0  0  0  0
  183.7260  178.9290  144.4770 C   0  0  0  0  0  0  0  0  0  0  0  0
  182.3650  178.7860  144.1860 C   0  0  0  0  0  3  0  0  0  0  0  0
  182.9240  178.5640  138.0500 C   0  0  0  0  0  0  0  0  0  0  0  0
  183.5030  177.7840  137.2470 O   0  0  0  0  0  0  0  0  0  0  0  0
  181.8510  179.3270  137.6020 O   0  0  0  0  0  1  0  0  0  0  0  0
  1 10  1  0  0  0  0
  2 15  1  0  0  0  0
  3  9  1  0  0  0  0
  4  8  2  0  0  0  0
  5  1  2  0  0  0  0
  5  4  1  0  0  0  0
  6  7  1  0  0  0  0
  8  6  1  0  0  0  0
  9 11  1  0  0  0  0
 10  9  1  0  0  0  0
 10  6  2  0  0  0  0
 11  7  2  0  0  0  0
 12  2  2  0  0  0  0
 13 14  2  0  0  0  0
 13 12  1  0  0  0  0
 14 16  1  0  0  0  0
 15  3  2  0  0  0  0
 16 17  2  0  0  0  0
 17 15  1  0  0  0  0
 17  1  1  0  0  0  0
 18 13  1  0  0  0  0
 19 18  2  0  0  0  0
 20 18  1  0  0  0  0
 21  4  1  0  0  0  0
 22 31  1  0  0  0  0
 23 30  1  0  0  0  0
 24 29  1  0  0  0  0
 24 25  2  0  0  0  0
 25 26  1  0  0  0  0
 26 28  1  0  0  0  0
 26 22  2  0  0  0  0
 27 28  1  0  0  0  0
 28 23  2  0  0  0  0
 29 27  2  0  0  0  0
 30 21  1  0  0  0  0
 31 30  2  0  0  0  0
 32 24  1  0  0  0  0
 33 32  2  0  0  0  0
 34 32  1  0  0  0  0
M  END
>  <MODEL>
5

>  <REMARK>
 VINA RESULT:     -11.6      3.124      6.935
  Name = 
  4 active torsions:
  status: ('A' for Active; 'I' for Inactive)
    1  A    between atoms: C_3  and  C_25
    2  A    between atoms: C_7  and  C_11
    3  A    between atoms: C_8  and  C_18
    4  A    between atoms: C_18  and  C_30
                            x       y       z     vdW  Elec       q    Type
                         _______ _______ _______ _____ _____    ______ ____

>  <TORSDO>
F 4

$$$$
=
 OpenBabel10272415183D

 34 39  0  0  0  0  0  0  0  0999 V2000
  186.7090  178.1250  143.8430 C   0  0  0  0  0  0  0  0  0  0  0  0
  187.8910  177.5070  147.4570 C   0  0  0  0  0  3  0  0  0  0  0  0
  185.7840  178.1850  146.4940 C   0  0  0  0  0  3  0  0  0  0  0  0
  185.9690  178.5190  141.5300 C   0  0  0  0  0  0  0  0  0  0  0  0
  186.9880  178.1570  142.4550 C   0  0  0  0  0  3  0  0  0  0  0  0
  184.4410  178.8140  143.3570 C   0  0  0  0  0  0  0  0  0  0  0  0
  183.3170  179.0850  144.0580 N   0  0  0  0  0  0  0  0  0  0  0  0
  184.6680  178.8610  141.9820 C   0  0  0  0  0  3  0  0  0  0  0  0
  184.9860  178.4930  145.4460 N   0  0  0  0  0  0  0  0  0  0  0  0
  185.4240  178.4630  144.2050 C   0  0  0  0  0  0  0  0  0  0  0  0
  183.6900  178.8750  145.3600 C   0  0  0  0  0  3  0  0  0  0  0  0
  189.1550  177.1360  147.6120 C   0  0  0  0  0  3  0  0  0  0  0  0
  190.2000  176.9180  146.6070 C   0  0  0  0  0  0  0  0  0  0  0  0
  190.0390  177.0650  145.2930 C   0  0  0  0  0  3  0  0  0  0  0  0
  187.1290  177.8200  146.2420 C   0  0  0  0  0  0  0  0  0  0  0  0
  188.8590  177.4610  144.5190 C   0  0  0  0  0  3  0  0  0  0  0  0
  187.6130  177.7860  144.8860 C   0  0  0  0  0  0  0  0  0  0  0  0
  191.5280  176.5020  147.1030 C   0  0  0  0  0  0  0  0  0  0  0  0
  192.2460  175.5180  146.4330 O   0  0  0  0  0  0  0  0  0  0  0  0
  192.0260  177.0300  148.1330 O   0  0  0  0  0  1  0  0  0  0  0  0
  186.2820  178.5770  140.0720 C   0  0  0  0  0  2  0  0  0  0  0  0
  189.9470  177.7360  140.5570 C   0  0  0  0  0  3  0  0  0  0  0  0
  187.9870  177.5430  138.5590 C   0  0  0  0  0  3  0  0  0  0  0  0
  191.9050  176.2110  137.8060 C   0  0  0  0  0  0  0  0  0  0  0  0
  191.5740  176.7530  139.0570 C   0  0  0  0  0  3  0  0  0  0  0  0
  190.2740  177.1950  139.3120 C   0  0  0  0  0  0  0  0  0  0  0  0
  189.6170  176.5610  137.0590 C   0  0  0  0  0  3  0  0  0  0  0  0
  189.2880  177.0990  138.3050 C   0  0  0  0  0  0  0  0  0  0  0  0
  190.9200  176.1190  136.8110 C   0  0  0  0  0  3  0  0  0  0  0  0
  187.6630  178.0790  139.8110 C   0  0  0  0  0  0  0  0  0  0  0  0
  188.6430  178.1800  140.8050 C   0  0  0  0  0  3  0  0  0  0  0  0
  193.2760  175.7470  137.5450 C   0  0  0  0  0  0  0  0  0  0  0  0
  193.6220  174.5730  137.8450 O   0  0  0  0  0  1  0  0  0  0  0  0
  194.2060  176.6010  136.9630 O   0  0  0  0  0  0  0  0  0  0  0  0
  1 10  1  0  0  0  0
  1 17  1  0  0  0  0
  2 12  2  0  0  0  0
  4  8  2  0  0  0  0
  4  5  1  0  0  0  0
  5  1  2  0  0  0  0
  6  7  1  0  0  0  0
  6 10  2  0  0  0  0
  7 11  2  0  0  0  0
  8  6  1  0  0  0  0
  9  3  1  0  0  0  0
 10  9  1  0  0  0  0
 11  9  1  0  0  0  0
 13 18  1  0  0  0  0
 13 12  1  0  0  0  0
 14 13  2  0  0  0  0
 15  3  2  0  0  0  0
 15  2  1  0  0  0  0
 16 17  2  0  0  0  0
 16 14  1  0  0  0  0
 17 15  1  0  0  0  0
 18 20  1  0  0  0  0
 19 18  2  0  0  0  0
 21  4  1  0  0  0  0
 22 31  1  0  0  0  0
 23 30  1  0  0  0  0
 24 25  2  0  0  0  0
 25 26  1  0  0  0  0
 26 22  2  0  0  0  0
 27 28  1  0  0  0  0
 28 23  2  0  0  0  0
 28 26  1  0  0  0  0
 29 27  2  0  0  0  0
 29 24  1  0  0  0  0
 30 21  1  0  0  0  0
 30 31  2  0  0  0  0
 32 24  1  0  0  0  0
 32 33  1  0  0  0  0
 34 32  2  0  0  0  0
M  END
>  <MODEL>
6

>  <REMARK>
 VINA RESULT:     -11.5      2.274      6.981
  Name = 
  4 active torsions:
  status: ('A' for Active; 'I' for Inactive)
    1  A    between atoms: C_3  and  C_25
    2  A    between atoms: C_7  and  C_11
    3  A    between atoms: C_8  and  C_18
    4  A    between atoms: C_18  and  C_30
                            x       y       z     vdW  Elec       q    Type
                         _______ _______ _______ _____ _____    ______ ____

>  <TORSDO>
F 4

$$$$
=
 OpenBabel10272415183D

 34 39  0  0  0  0  0  0  0  0999 V2000
  186.1970  178.2300  143.2010 C   0  0  0  0  0  0  0  0  0  0  0  0
  187.8360  177.5250  146.6160 C   0  0  0  0  0  3  0  0  0  0  0  0
  185.6230  178.2190  145.9500 C   0  0  0  0  0  3  0  0  0  0  0  0
  185.1650  178.6800  141.0140 C   0  0  0  0  0  0  0  0  0  0  0  0
  186.2950  178.2980  141.7910 C   0  0  0  0  0  3  0  0  0  0  0  0
  183.8860  178.9230  143.0300 C   0  0  0  0  0  0  0  0  0  0  0  0
  182.8620  179.1710  143.8770 N   0  0  0  0  0  0  0  0  0  0  0  0
  183.9330  179.0050  141.6400 C   0  0  0  0  0  3  0  0  0  0  0  0
  184.6960  178.5510  145.0220 N   0  0  0  0  0  0  0  0  0  0  0  0
  184.9700  178.5540  143.7350 C   0  0  0  0  0  0  0  0  0  0  0  0
  183.4000  178.9300  145.1140 C   0  0  0  0  0  3  0  0  0  0  0  0
  189.1110  177.1540  146.5970 C   0  0  0  0  0  3  0  0  0  0  0  0
  190.0170  176.9650  145.4600 C   0  0  0  0  0  0  0  0  0  0  0  0
  189.6880  177.1460  144.1820 C   0  0  0  0  0  3  0  0  0  0  0  0
  186.9240  177.8650  145.5170 C   0  0  0  0  0  0  0  0  0  0  0  0
  188.4170  177.5570  143.5770 C   0  0  0  0  0  3  0  0  0  0  0  0
  187.2290  177.8680  144.1100 C   0  0  0  0  0  0  0  0  0  0  0  0
  191.3970  176.5420  145.7690 C   0  0  0  0  0  0  0  0  0  0  0  0
  191.9760  176.8830  146.9870 O   0  0  0  0  0  1  0  0  0  0  0  0
  192.0680  175.8710  144.9390 O   0  0  0  0  0  0  0  0  0  0  0  0
  185.2870  178.7750  139.5310 C   0  0  0  0  0  2  0  0  0  0  0  0
  187.7860  176.8460  137.4320 C   0  0  0  0  0  3  0  0  0  0  0  0
  187.7140  178.2550  139.8570 C   0  0  0  0  0  3  0  0  0  0  0  0
  191.2870  176.4420  138.5760 C   0  0  0  0  0  0  0  0  0  0  0  0
  190.1280  176.3450  137.7920 C   0  0  0  0  0  3  0  0  0  0  0  0
  188.9390  176.9460  138.2130 C   0  0  0  0  0  0  0  0  0  0  0  0
  190.0560  177.7500  140.2170 C   0  0  0  0  0  3  0  0  0  0  0  0
  188.9030  177.6540  139.4350 C   0  0  0  0  0  0  0  0  0  0  0  0
  191.2430  177.1470  139.7890 C   0  0  0  0  0  3  0  0  0  0  0  0
  186.5620  178.1570  139.0670 C   0  0  0  0  0  0  0  0  0  0  0  0
  186.5980  177.4490  137.8600 C   0  0  0  0  0  3  0  0  0  0  0  0
  192.5350  175.8060  138.1270 C   0  0  0  0  0  0  0  0  0  0  0  0
  192.5460  174.5980  137.7730 O   0  0  0  0  0  0  0  0  0  0  0  0
  193.7190  176.5360  138.0910 O   0  0  0  0  0  1  0  0  0  0  0  0
  1 10  1  0  0  0  0
  1 17  1  0  0  0  0
  4  8  2  0  0  0  0
  4  5  1  0  0  0  0
  5  1  2  0  0  0  0
  6 10  2  0  0  0  0
  6  7  1  0  0  0  0
  7 11  2  0  0  0  0
  8  6  1  0  0  0  0
  9 11  1  0  0  0  0
  9  3  1  0  0  0  0
 10  9  1  0  0  0  0
 12  2  2  0  0  0  0
 13 18  1  0  0  0  0
 13 12  1  0  0  0  0
 14 13  2  0  0  0  0
 15  3  2  0  0  0  0
 15  2  1  0  0  0  0
 16 17  2  0  0  0  0
 16 14  1  0  0  0  0
 17 15  1  0  0  0  0
 18 19  1  0  0  0  0
 20 18  2  0  0  0  0
 21  4  1  0  0  0  0
 22 31  2  0  0  0  0
 22 26  1  0  0  0  0
 24 29  1  0  0  0  0
 25 26  1  0  0  0  0
 25 24  2  0  0  0  0
 26 28  2  0  0  0  0
 28 23  1  0  0  0  0
 28 27  1  0  0  0  0
 29 27  2  0  0  0  0
 30 21  1  0  0  0  0
 30 23  2  0  0  0  0
 31 30  1  0  0  0  0
 32 24  1  0  0  0  0
 33 32  2  0  0  0  0
 34 32  1  0  0  0  0
M  END
>  <MODEL>
7

>  <REMARK>
 VINA RESULT:     -11.2      1.908      6.486
  Name = 
  4 active torsions:
  status: ('A' for Active; 'I' for Inactive)
    1  A    between atoms: C_3  and  C_25
    2  A    between atoms: C_7  and  C_11
    3  A    between atoms: C_8  and  C_18
    4  A    between atoms: C_18  and  C_30
                            x       y       z     vdW  Elec       q    Type
                         _______ _______ _______ _____ _____    ______ ____

>  <TORSDO>
F 4

$$$$
=
 OpenBabel10272415183D

 34 39  0  0  0  0  0  0  0  0999 V2000
  188.8180  177.6480  143.9090 C   0  0  0  0  0  0  0  0  0  0  0  0
  185.5820  178.0920  145.9530 C   0  0  0  0  0  3  0  0  0  0  0  0
  187.8700  177.6080  146.5520 C   0  0  0  0  0  3  0  0  0  0  0  0
  190.8750  177.3630  142.5900 C   0  0  0  0  0  0  0  0  0  0  0  0
  189.4760  177.6220  142.6560 C   0  0  0  0  0  3  0  0  0  0  0  0
  190.9300  177.1560  144.9800 C   0  0  0  0  0  0  0  0  0  0  0  0
  191.3790  176.9630  146.2410 N   0  0  0  0  0  0  0  0  0  0  0  0
  191.6220  177.1190  143.7710 C   0  0  0  0  0  3  0  0  0  0  0  0
  189.1700  177.3880  146.2490 N   0  0  0  0  0  0  0  0  0  0  0  0
  189.6090  177.4080  145.0090 C   0  0  0  0  0  0  0  0  0  0  0  0
  190.2560  177.1150  147.0100 C   0  0  0  0  0  3  0  0  0  0  0  0
  184.4780  178.3560  145.2660 C   0  0  0  0  0  3  0  0  0  0  0  0
  184.2850  178.5090  143.8200 C   0  0  0  0  0  0  0  0  0  0  0  0
  185.2480  178.4020  142.9060 C   0  0  0  0  0  3  0  0  0  0  0  0
  186.9600  177.8680  145.4980 C   0  0  0  0  0  0  0  0  0  0  0  0
  186.6780  178.1200  143.0600 C   0  0  0  0  0  3  0  0  0  0  0  0
  187.4350  177.8900  144.1390 C   0  0  0  0  0  0  0  0  0  0  0  0
  182.9150  178.8040  143.3570 C   0  0  0  0  0  0  0  0  0  0  0  0
  182.6180  178.7850  141.9990 O   0  0  0  0  0  0  0  0  0  0  0  0
  182.0000  179.0770  144.1800 O   0  0  0  0  0  1  0  0  0  0  0  0
  191.5540  177.3110  141.2630 C   0  0  0  0  0  2  0  0  0  0  0  0
  189.9460  175.9620  138.1050 C   0  0  0  0  0  3  0  0  0  0  0  0
  189.3500  177.7690  140.1670 C   0  0  0  0  0  3  0  0  0  0  0  0
  186.5940  177.1400  137.0520 C   0  0  0  0  0  0  0  0  0  0  0  0
  187.8130  176.4470  137.0640 C   0  0  0  0  0  3  0  0  0  0  0  0
  188.7310  176.6520  138.0970 C   0  0  0  0  0  0  0  0  0  0  0  0
  187.2180  178.2550  139.1230 C   0  0  0  0  0  3  0  0  0  0  0  0
  188.4310  177.5630  139.1340 C   0  0  0  0  0  0  0  0  0  0  0  0
  186.3040  178.0440  138.0860 C   0  0  0  0  0  3  0  0  0  0  0  0
  190.5630  177.0700  140.1740 C   0  0  0  0  0  0  0  0  0  0  0  0
  190.8610  176.1730  139.1420 C   0  0  0  0  0  3  0  0  0  0  0  0
  185.6320  176.9200  135.9610 C   0  0  0  0  0  0  0  0  0  0  0  0
  184.4250  177.2550  136.0960 O   0  0  0  0  0  1  0  0  0  0  0  0
  186.0470  176.3380  134.7680 O   0  0  0  0  0  0  0  0  0  0  0  0
  1 17  1  0  0  0  0
  1 10  1  0  0  0  0
  4  5  1  0  0  0  0
  4  8  2  0  0  0  0
  5  1  2  0  0  0  0
  6 10  2  0  0  0  0
  6  7  1  0  0  0  0
  7 11  2  0  0  0  0
  8  6  1  0  0  0  0
  9  3  1  0  0  0  0
  9 11  1  0  0  0  0
 10  9  1  0  0  0  0
 12  2  2  0  0  0  0
 13 12  1  0  0  0  0
 14 16  1  0  0  0  0
 14 13  2  0  0  0  0
 15  2  1  0  0  0  0
 15  3  2  0  0  0  0
 16 17  2  0  0  0  0
 17 15  1  0  0  0  0
 18 13  1  0  0  0  0
 18 20  1  0  0  0  0
 19 18  2  0  0  0  0
 21  4  1  0  0  0  0
 22 31  1  0  0  0  0
 23 30  1  0  0  0  0
 24 25  2  0  0  0  0
 24 29  1  0  0  0  0
 25 26  1  0  0  0  0
 26 22  2  0  0  0  0
 26 28  1  0  0  0  0
 27 28  1  0  0  0  0
 28 23  2  0  0  0  0
 29 27  2  0  0  0  0
 30 21  1  0  0  0  0
 31 30  2  0  0  0  0
 32 33  1  0  0  0  0
 32 24  1  0  0  0  0
 34 32  2  0  0  0  0
M  END
>  <MODEL>
8

>  <REMARK>
 VINA RESULT:     -11.1      3.918      8.476
  Name = 
  4 active torsions:
  status: ('A' for Active; 'I' for Inactive)
    1  A    between atoms: C_3  and  C_25
    2  A    between atoms: C_7  and  C_11
    3  A    between atoms: C_8  and  C_18
    4  A    between atoms: C_18  and  C_30
                            x       y       z     vdW  Elec       q    Type
                         _______ _______ _______ _____ _____    ______ ____

>  <TORSDO>
F 4

$$$$
=
 OpenBabel10272415183D

 34 39  0  0  0  0  0  0  0  0999 V2000
  188.3250  177.9460  141.1970 C   0  0  0  0  0  0  0  0  0  0  0  0
  188.1860  177.9140  145.0470 C   0  0  0  0  0  3  0  0  0  0  0  0
  189.9620  177.5780  143.4490 C   0  0  0  0  0  3  0  0  0  0  0  0
  188.3980  177.9670  138.7390 C   0  0  0  0  0  0  0  0  0  0  0  0
  187.6660  178.0950  139.9530 C   0  0  0  0  0  3  0  0  0  0  0  0
  190.3910  177.5430  140.0060 C   0  0  0  0  0  0  0  0  0  0  0  0
  191.6780  177.2730  140.3200 N   0  0  0  0  0  0  0  0  0  0  0  0
  189.7870  177.6800  138.7570 C   0  0  0  0  0  3  0  0  0  0  0  0
  190.4440  177.5010  142.1870 N   0  0  0  0  0  0  0  0  0  0  0  0
  189.6730  177.6750  141.1350 C   0  0  0  0  0  0  0  0  0  0  0  0
  191.6790  177.2540  141.6900 C   0  0  0  0  0  3  0  0  0  0  0  0
  187.0010  178.1430  145.6000 C   0  0  0  0  0  3  0  0  0  0  0  0
  185.7060  178.4130  144.9680 C   0  0  0  0  0  0  0  0  0  0  0  0
  185.4960  178.4760  143.6540 C   0  0  0  0  0  3  0  0  0  0  0  0
  188.5860  177.8540  143.6360 C   0  0  0  0  0  0  0  0  0  0  0  0
  186.4260  178.3070  142.5340 C   0  0  0  0  0  3  0  0  0  0  0  0
  187.7370  178.0440  142.4890 C   0  0  0  0  0  0  0  0  0  0  0  0
  184.5550  178.6300  145.8680 C   0  0  0  0  0  0  0  0  0  0  0  0
  183.3570  179.1210  145.3620 O   0  0  0  0  0  0  0  0  0  0  0  0
  184.6420  178.3740  147.0990 O   0  0  0  0  0  1  0  0  0  0  0  0
  187.6880  178.0980  137.4330 C   0  0  0  0  0  2  0  0  0  0  0  0
  184.3050  176.3990  137.2340 C   0  0  0  0  0  3  0  0  0  0  0  0
  187.0220  175.7020  137.1500 C   0  0  0  0  0  3  0  0  0  0  0  0
  184.0680  172.7230  136.8330 C   0  0  0  0  0  0  0  0  0  0  0  0
  183.6980  174.0680  136.9800 C   0  0  0  0  0  3  0  0  0  0  0  0
  184.6760  175.0600  137.0850 C   0  0  0  0  0  0  0  0  0  0  0  0
  186.4130  173.3700  136.8990 C   0  0  0  0  0  3  0  0  0  0  0  0
  186.0430  174.7080  137.0440 C   0  0  0  0  0  0  0  0  0  0  0  0
  185.4290  172.3810  136.7930 C   0  0  0  0  0  3  0  0  0  0  0  0
  186.6440  177.0420  137.2930 C   0  0  0  0  0  0  0  0  0  0  0  0
  185.2890  177.3880  137.3400 C   0  0  0  0  0  3  0  0  0  0  0  0
  183.0350  171.6820  136.7230 C   0  0  0  0  0  0  0  0  0  0  0  0
  183.3570  170.4710  136.5960 O   0  0  0  0  0  0  0  0  0  0  0  0
  181.6880  172.0270  136.7570 O   0  0  0  0  0  1  0  0  0  0  0  0
  1 17  1  0  0  0  0
  2 12  2  0  0  0  0
  3 15  2  0  0  0  0
  4  8  2  0  0  0  0
  4  5  1  0  0  0  0
  5  1  2  0  0  0  0
  6  7  1  0  0  0  0
  6 10  2  0  0  0  0
  7 11  2  0  0  0  0
  8  6  1  0  0  0  0
  9  3  1  0  0  0  0
 10  1  1  0  0  0  0
 10  9  1  0  0  0  0
 11  9  1  0  0  0  0
 13 12  1  0  0  0  0
 13 18  1  0  0  0  0
 14 13  2  0  0  0  0
 15  2  1  0  0  0  0
 16 14  1  0  0  0  0
 17 16  2  0  0  0  0
 17 15  1  0  0  0  0
 18 20  1  0  0  0  0
 19 18  2  0  0  0  0
 21  4  1  0  0  0  0
 22 31  1  0  0  0  0
 23 30  1  0  0  0  0
 24 25  2  0  0  0  0
 25 26  1  0  0  0  0
 26 22  2  0  0  0  0
 27 28  1  0  0  0  0
 28 26  1  0  0  0  0
 28 23  2  0  0  0  0
 29 24  1  0  0  0  0
 29 27  2  0  0  0  0
 30 31  2  0  0  0  0
 30 21  1  0  0  0  0
 32 34  1  0  0  0  0
 32 24  1  0  0  0  0
 33 32  2  0  0  0  0
M  END
>  <MODEL>
9

>  <REMARK>
 VINA RESULT:     -11.0      4.699      9.059
  Name = 
  4 active torsions:
  status: ('A' for Active; 'I' for Inactive)
    1  A    between atoms: C_3  and  C_25
    2  A    between atoms: C_7  and  C_11
    3  A    between atoms: C_8  and  C_18
    4  A    between atoms: C_18  and  C_30
                            x       y       z     vdW  Elec       q    Type
                         _______ _______ _______ _____ _____    ______ ____

>  <TORSDO>
F 4

$$$$
