=
 OpenBabel10272413413D

 30 35  0  0  1  0  0  0  0  0999 V2000
  190.3930  176.3960  139.5920 C   0  0  1  0  0  3  0  0  0  0  0  0
  189.5990  176.9120  141.9250 C   0  0  0  0  0  0  0  0  0  0  0  0
  187.2250  178.4490  138.2570 O   0  0  0  0  0  0  0  0  0  0  0  0
  189.6960  176.1560  138.2370 C   0  0  1  0  0  3  0  0  0  0  0  0
  191.7810  177.0400  139.4140 C   0  0  0  0  0  2  0  0  0  0  0  0
  192.9380  175.9570  136.1150 C   0  0  0  0  0  2  0  0  0  0  0  0
  189.2370  173.9960  135.6200 C   0  0  0  0  0  2  0  0  0  0  0  0
  191.8280  176.3240  137.0470 C   0  0  2  0  0  3  0  0  0  0  0  0
  193.8550  176.5250  138.1110 O   0  0  0  0  0  0  0  0  0  0  0  0
  188.3750  176.3510  135.9480 C   0  0  1  0  0  3  0  0  0  0  0  0
  186.7480  177.2410  137.7210 C   0  0  0  0  0  0  0  0  0  0  0  0
  192.5110  176.1980  138.3900 C   0  0  1  0  0  3  0  0  0  0  0  0
  190.5240  175.5200  137.0980 C   0  0  2  0  0  3  0  0  0  0  0  0
  188.8750  177.6520  142.8040 N   0  0  0  0  0  0  0  0  0  0  0  0
  187.4200  176.1980  134.7580 C   0  0  0  0  0  2  0  0  0  0  0  0
  188.0650  173.7850  134.6940 C   0  0  0  0  0  3  0  0  0  0  0  0
  195.3570  176.0750  136.2010 N   0  0  0  0  0  1  0  0  0  0  0  0
  190.4400  175.7980  142.4530 C   0  0  0  0  0  1  0  0  0  0  0  0
  188.5600  178.6840  138.6960 C   0  0  0  0  0  2  0  0  0  0  0  0
  188.1040  178.6620  142.4030 N   0  0  0  0  0  0  0  0  0  0  0  0
  194.0620  176.1950  136.7790 C   0  0  1  0  0  3  0  0  0  0  0  0
  189.5430  177.2070  140.5500 C   0  0  0  0  0  0  0  0  0  0  0  0
  188.4230  175.5830  138.3480 O   0  0  0  0  0  0  0  0  0  0  0  0
  185.5090  177.1180  137.5430 O   0  0  0  0  0  0  0  0  0  0  0  0
  187.6340  176.1000  137.2920 C   0  0  2  0  0  3  0  0  0  0  0  0
  187.2220  174.7640  134.3460 C   0  0  0  0  0  3  0  0  0  0  0  0
  190.4130  175.9020  134.5530 C   0  0  0  0  0  1  0  0  0  0  0  0
  188.0060  178.9990  141.0930 C   0  0  0  0  0  3  0  0  0  0  0  0
  188.7190  178.2810  140.1330 C   0  0  0  0  0  0  0  0  0  0  0  0
  189.6490  175.4640  135.8010 C   0  0  1  0  0  0  0  0  0  0  0  0
  1  5  1  6  0  0  0
  1 22  1  0  0  0  0
  2 18  1  0  0  0  0
  2 14  1  0  0  0  0
  3 19  1  0  0  0  0
  4 23  1  1  0  0  0
  4  1  1  0  0  0  0
  6 21  1  0  0  0  0
  7 30  1  0  0  0  0
  8  6  1  6  0  0  0
  8 13  1  0  0  0  0
  8 12  1  0  0  0  0
  9 12  1  0  0  0  0
 10 15  1  6  0  0  0
 10 25  1  0  0  0  0
 11  3  1  0  0  0  0
 12  5  1  1  0  0  0
 13  4  1  0  0  0  0
 16  7  1  0  0  0  0
 17 21  1  0  0  0  0
 19 29  1  0  0  0  0
 20 14  2  0  0  0  0
 21  9  1  0  0  0  0
 22  2  2  0  0  0  0
 24 11  2  0  0  0  0
 25 11  1  0  0  0  0
 25 23  1  0  0  0  0
 26 16  2  0  0  0  0
 26 15  1  0  0  0  0
 27 30  1  0  0  0  0
 28 20  1  0  0  0  0
 29 22  1  0  0  0  0
 29 28  2  0  0  0  0
 30 10  1  0  0  0  0
 30 13  1  0  0  0  0
M  END
>  <MODEL>
1

>  <REMARK>
 VINA RESULT:      -6.8      0.000      0.000
  Name = 
  0 active torsions:
  status: ('A' for Active; 'I' for Inactive)
                            x       y       z     vdW  Elec       q    Type
                         _______ _______ _______ _____ _____    ______ ____

>  <TORSDO>
F 0

$$$$
=
 OpenBabel10272413413D

 30 35  0  0  1  0  0  0  0  0999 V2000
  187.6850  178.2750  139.2440 C   0  0  1  0  0  3  0  0  0  0  0  0
  187.7110  178.7170  136.7650 C   0  0  0  0  0  0  0  0  0  0  0  0
  183.8350  177.2550  138.8360 O   0  0  0  0  0  0  0  0  0  0  0  0
  186.6220  178.3910  140.3550 C   0  0  1  0  0  3  0  0  0  0  0  0
  188.6910  177.1450  139.5320 C   0  0  0  0  0  2  0  0  0  0  0  0
  188.7760  176.8260  143.1770 C   0  0  0  0  0  2  0  0  0  0  0  0
  185.7950  179.8040  143.3640 C   0  0  0  0  0  2  0  0  0  0  0  0
  188.0380  177.1490  141.9170 C   0  0  2  0  0  3  0  0  0  0  0  0
  190.1890  176.5040  141.4320 O   0  0  0  0  0  0  0  0  0  0  0  0
  184.5420  178.1030  141.9730 C   0  0  1  0  0  3  0  0  0  0  0  0
  183.5200  178.3680  139.6340 C   0  0  0  0  0  0  0  0  0  0  0  0
  189.1790  177.3620  140.9490 C   0  0  1  0  0  3  0  0  0  0  0  0
  187.1000  178.3580  141.8240 C   0  0  2  0  0  3  0  0  0  0  0  0
  187.2020  178.5510  135.5180 N   0  0  0  0  0  0  0  0  0  0  0  0
  183.2870  178.2780  142.8360 C   0  0  0  0  0  2  0  0  0  0  0  0
  184.4600  180.1790  143.9560 C   0  0  0  0  0  3  0  0  0  0  0  0
  190.9350  175.8570  143.6970 N   0  0  0  0  0  1  0  0  0  0  0  0
  188.9450  179.5410  136.9300 C   0  0  0  0  0  1  0  0  0  0  0  0
  185.1290  176.6700  138.7120 C   0  0  0  0  0  2  0  0  0  0  0  0
  186.1060  177.8270  135.2980 N   0  0  0  0  0  0  0  0  0  0  0  0
  189.9640  176.3750  142.7960 C   0  0  1  0  0  3  0  0  0  0  0  0
  187.0740  178.1140  137.8670 C   0  0  0  0  0  0  0  0  0  0  0  0
  185.6740  179.3980  140.1310 O   0  0  0  0  0  0  0  0  0  0  0  0
  182.3810  178.8850  139.5100 O   0  0  0  0  0  0  0  0  0  0  0  0
  184.4450  178.9500  140.6730 C   0  0  2  0  0  3  0  0  0  0  0  0
  183.3260  179.5230  143.6810 C   0  0  0  0  0  3  0  0  0  0  0  0
  185.9570  177.3920  143.9210 C   0  0  0  0  0  1  0  0  0  0  0  0
  185.4440  177.2190  136.3140 C   0  0  0  0  0  3  0  0  0  0  0  0
  185.9090  177.3470  137.6230 C   0  0  0  0  0  0  0  0  0  0  0  0
  185.8520  178.3890  142.7680 C   0  0  1  0  0  0  0  0  0  0  0  0
  1  5  1  1  0  0  0
  1  4  1  0  0  0  0
  2 18  1  0  0  0  0
  2 22  1  0  0  0  0
  3 11  1  0  0  0  0
  4 23  1  6  0  0  0
  4 13  1  0  0  0  0
  7 16  1  0  0  0  0
  8  6  1  1  0  0  0
  9 21  1  0  0  0  0
 10 30  1  0  0  0  0
 10 15  1  1  0  0  0
 11 25  1  0  0  0  0
 12  5  1  6  0  0  0
 12  9  1  0  0  0  0
 12  8  1  0  0  0  0
 13  8  1  0  0  0  0
 13 30  1  0  0  0  0
 14  2  2  0  0  0  0
 15 26  1  0  0  0  0
 19  3  1  0  0  0  0
 20 14  1  0  0  0  0
 20 28  2  0  0  0  0
 21  6  1  0  0  0  0
 21 17  1  0  0  0  0
 22  1  1  0  0  0  0
 23 25  1  0  0  0  0
 24 11  2  0  0  0  0
 25 10  1  0  0  0  0
 26 16  2  0  0  0  0
 28 29  1  0  0  0  0
 29 22  2  0  0  0  0
 29 19  1  0  0  0  0
 30  7  1  0  0  0  0
 30 27  1  0  0  0  0
M  END
>  <MODEL>
2

>  <REMARK>
 VINA RESULT:      -6.2      3.642      6.887
  Name = 
  0 active torsions:
  status: ('A' for Active; 'I' for Inactive)
                            x       y       z     vdW  Elec       q    Type
                         _______ _______ _______ _____ _____    ______ ____

>  <TORSDO>
F 0

$$$$
=
 OpenBabel10272413413D

 30 35  0  0  1  0  0  0  0  0999 V2000
  183.8270  177.5750  139.1390 C   0  0  1  0  0  3  0  0  0  0  0  0
  182.2920  178.6500  140.8210 C   0  0  0  0  0  0  0  0  0  0  0  0
  180.5470  176.4790  137.1210 O   0  0  0  0  0  0  0  0  0  0  0  0
  183.7320  176.3420  138.2170 C   0  0  1  0  0  3  0  0  0  0  0  0
  184.7010  178.6830  138.5230 C   0  0  0  0  0  2  0  0  0  0  0  0
  187.0750  176.9490  136.3440 C   0  0  0  0  0  2  0  0  0  0  0  0
  185.1250  173.3420  137.3290 C   0  0  0  0  0  2  0  0  0  0  0  0
  185.7270  177.0410  136.9840 C   0  0  2  0  0  3  0  0  0  0  0  0
  187.0180  178.8440  137.5890 O   0  0  0  0  0  0  0  0  0  0  0  0
  183.1550  174.5740  136.3280 C   0  0  1  0  0  3  0  0  0  0  0  0
  180.8960  175.1470  137.4010 C   0  0  0  0  0  0  0  0  0  0  0  0
  185.9960  178.0200  138.1050 C   0  0  1  0  0  3  0  0  0  0  0  0
  185.0360  175.8110  137.5800 C   0  0  2  0  0  3  0  0  0  0  0  0
  181.0930  179.1760  141.1770 N   0  0  0  0  0  0  0  0  0  0  0  0
  182.7600  173.3390  135.5110 C   0  0  0  0  0  2  0  0  0  0  0  0
  184.5080  172.0800  136.7780 C   0  0  0  0  0  3  0  0  0  0  0  0
  188.9920  178.4210  136.1640 N   0  0  0  0  0  1  0  0  0  0  0  0
  183.4000  178.6550  141.8220 C   0  0  0  0  0  1  0  0  0  0  0  0
  181.4170  177.6010  137.2460 C   0  0  0  0  0  2  0  0  0  0  0  0
  180.0610  179.2070  140.3340 N   0  0  0  0  0  0  0  0  0  0  0  0
  187.7080  178.0690  136.6680 C   0  0  1  0  0  3  0  0  0  0  0  0
  182.4670  178.1170  139.5300 C   0  0  0  0  0  0  0  0  0  0  0  0
  182.9350  175.3100  138.7290 O   0  0  0  0  0  0  0  0  0  0  0  0
  179.9820  174.2840  137.4190 O   0  0  0  0  0  0  0  0  0  0  0  0
  182.3090  174.6750  137.6290 C   0  0  2  0  0  3  0  0  0  0  0  0
  183.4190  172.0770  136.0010 C   0  0  0  0  0  3  0  0  0  0  0  0
  185.4350  174.7120  135.2840 C   0  0  0  0  0  1  0  0  0  0  0  0
  180.1630  178.7110  139.0760 C   0  0  0  0  0  3  0  0  0  0  0  0
  181.3650  178.1520  138.6410 C   0  0  0  0  0  0  0  0  0  0  0  0
  184.6870  174.6290  136.6140 C   0  0  1  0  0  0  0  0  0  0  0  0
  1  5  1  6  0  0  0
  1 22  1  0  0  0  0
  2 14  1  0  0  0  0
  2 18  1  0  0  0  0
  3 19  1  0  0  0  0
  3 11  1  0  0  0  0
  4 23  1  1  0  0  0
  4  1  1  0  0  0  0
  6 21  1  0  0  0  0
  8  6  1  1  0  0  0
  8 13  1  0  0  0  0
  8 12  1  0  0  0  0
  9 12  1  0  0  0  0
 10 15  1  1  0  0  0
 10 30  1  0  0  0  0
 10 25  1  0  0  0  0
 11 24  2  0  0  0  0
 11 25  1  0  0  0  0
 12  5  1  6  0  0  0
 13  4  1  0  0  0  0
 15 26  1  0  0  0  0
 16  7  1  0  0  0  0
 17 21  1  0  0  0  0
 19 29  1  0  0  0  0
 20 14  2  0  0  0  0
 21  9  1  0  0  0  0
 22  2  2  0  0  0  0
 25 23  1  0  0  0  0
 26 16  2  0  0  0  0
 27 30  1  0  0  0  0
 28 20  1  0  0  0  0
 29 28  2  0  0  0  0
 29 22  1  0  0  0  0
 30  7  1  0  0  0  0
 30 13  1  0  0  0  0
M  END
>  <MODEL>
3

>  <REMARK>
 VINA RESULT:      -5.9      4.622      6.508
  Name = 
  0 active torsions:
  status: ('A' for Active; 'I' for Inactive)
                            x       y       z     vdW  Elec       q    Type
                         _______ _______ _______ _____ _____    ______ ____

>  <TORSDO>
F 0

$$$$
=
 OpenBabel10272413413D

 30 35  0  0  1  0  0  0  0  0999 V2000
  182.6640  178.3610  138.2530 C   0  0  1  0  0  3  0  0  0  0  0  0
  180.8340  179.6540  139.4020 C   0  0  0  0  0  0  0  0  0  0  0  0
  184.6180  178.3760  141.7480 O   0  0  0  0  0  0  0  0  0  0  0  0
  184.1970  178.2830  138.4050 C   0  0  1  0  0  3  0  0  0  0  0  0
  182.0690  177.0210  137.7800 C   0  0  0  0  0  2  0  0  0  0  0  0
  184.7340  175.3940  135.8720 C   0  0  0  0  0  2  0  0  0  0  0  0
  187.2290  178.6490  136.8560 C   0  0  0  0  0  2  0  0  0  0  0  0
  184.2940  176.2960  136.9800 C   0  0  2  0  0  3  0  0  0  0  0  0
  182.4660  175.4420  135.8800 O   0  0  0  0  0  0  0  0  0  0  0  0
  186.6910  177.8650  139.1990 C   0  0  1  0  0  3  0  0  0  0  0  0
  185.6000  179.1630  141.1250 C   0  0  0  0  0  0  0  0  0  0  0  0
  182.8720  176.6050  136.5670 C   0  0  1  0  0  3  0  0  0  0  0  0
  185.0060  177.6220  137.2670 C   0  0  2  0  0  3  0  0  0  0  0  0
  180.1810  180.0600  140.5200 N   0  0  0  0  0  0  0  0  0  0  0  0
  188.1660  177.9700  139.6050 C   0  0  0  0  0  2  0  0  0  0  0  0
  188.5810  179.0510  137.3910 C   0  0  0  0  0  3  0  0  0  0  0  0
  183.6140  173.8790  134.3480 N   0  0  0  0  0  1  0  0  0  0  0  0
  180.3140  180.0890  138.0730 C   0  0  0  0  0  1  0  0  0  0  0  0
  183.6150  177.6220  141.0720 C   0  0  0  0  0  2  0  0  0  0  0  0
  180.5890  179.7080  141.7390 N   0  0  0  0  0  0  0  0  0  0  0  0
  183.6240  174.8770  135.3620 C   0  0  1  0  0  3  0  0  0  0  0  0
  181.9770  178.8390  139.5160 C   0  0  0  0  0  0  0  0  0  0  0  0
  184.7850  179.4750  138.8470 O   0  0  0  0  0  0  0  0  0  0  0  0
  186.3060  179.9130  141.8450 O   0  0  0  0  0  0  0  0  0  0  0  0
  185.8990  179.1250  139.6480 C   0  0  2  0  0  3  0  0  0  0  0  0
  188.9820  178.7880  138.6400 C   0  0  0  0  0  3  0  0  0  0  0  0
  187.1660  176.2210  137.3620 C   0  0  0  0  0  1  0  0  0  0  0  0
  181.6810  178.9240  141.9190 C   0  0  0  0  0  3  0  0  0  0  0  0
  182.4040  178.4710  140.8160 C   0  0  0  0  0  0  0  0  0  0  0  0
  186.5150  177.5670  137.6790 C   0  0  1  0  0  0  0  0  0  0  0  0
  1  5  1  1  0  0  0
  1  4  1  0  0  0  0
  1 22  1  0  0  0  0
  2 22  2  0  0  0  0
  2 14  1  0  0  0  0
  4 23  1  6  0  0  0
  7 16  1  0  0  0  0
  7 30  1  0  0  0  0
  8  6  1  6  0  0  0
  8 13  1  0  0  0  0
  9 12  1  0  0  0  0
 10 15  1  6  0  0  0
 10 25  1  0  0  0  0
 11  3  1  0  0  0  0
 11 24  2  0  0  0  0
 12  8  1  0  0  0  0
 12  5  1  1  0  0  0
 13 30  1  0  0  0  0
 13  4  1  0  0  0  0
 14 20  2  0  0  0  0
 16 26  2  0  0  0  0
 17 21  1  0  0  0  0
 18  2  1  0  0  0  0
 19  3  1  0  0  0  0
 20 28  1  0  0  0  0
 21  6  1  0  0  0  0
 21  9  1  0  0  0  0
 22 29  1  0  0  0  0
 23 25  1  0  0  0  0
 25 11  1  0  0  0  0
 26 15  1  0  0  0  0
 27 30  1  0  0  0  0
 29 19  1  0  0  0  0
 29 28  2  0  0  0  0
 30 10  1  0  0  0  0
M  END
>  <MODEL>
4

>  <REMARK>
 VINA RESULT:      -5.8      4.661      7.494
  Name = 
  0 active torsions:
  status: ('A' for Active; 'I' for Inactive)
                            x       y       z     vdW  Elec       q    Type
                         _______ _______ _______ _____ _____    ______ ____

>  <TORSDO>
F 0

$$$$
=
 OpenBabel10272413413D

 30 35  0  0  1  0  0  0  0  0999 V2000
  183.2260  176.5360  136.5890 C   0  0  1  0  0  3  0  0  0  0  0  0
  181.7670  178.5760  136.8150 C   0  0  0  0  0  0  0  0  0  0  0  0
  186.0560  178.5670  138.5640 O   0  0  0  0  0  0  0  0  0  0  0  0
  184.7430  176.2980  136.4440 C   0  0  1  0  0  3  0  0  0  0  0  0
  182.5350  175.3780  137.3330 C   0  0  0  0  0  2  0  0  0  0  0  0
  184.5940  172.4280  136.6630 C   0  0  0  0  0  2  0  0  0  0  0  0
  187.2370  174.9320  134.5350 C   0  0  0  0  0  2  0  0  0  0  0  0
  184.4640  173.9040  136.8640 C   0  0  2  0  0  3  0  0  0  0  0  0
  182.4130  172.8910  137.0830 O   0  0  0  0  0  0  0  0  0  0  0  0
  187.3620  176.0790  136.7870 C   0  0  1  0  0  3  0  0  0  0  0  0
  186.8250  178.5140  137.3900 C   0  0  0  0  0  0  0  0  0  0  0  0
  182.9820  174.1060  136.6460 C   0  0  1  0  0  3  0  0  0  0  0  0
  185.2170  174.9030  135.9800 C   0  0  2  0  0  3  0  0  0  0  0  0
  181.4390  179.7490  137.4160 N   0  0  0  0  0  0  0  0  0  0  0  0
  188.8900  176.1540  136.6960 C   0  0  0  0  0  2  0  0  0  0  0  0
  188.6800  175.3300  134.3470 C   0  0  0  0  0  3  0  0  0  0  0  0
  183.1140  170.5270  136.9220 N   0  0  0  0  0  1  0  0  0  0  0  0
  180.9010  178.0740  135.7080 C   0  0  0  0  0  1  0  0  0  0  0  0
  184.9130  177.7600  138.8370 C   0  0  0  0  0  2  0  0  0  0  0  0
  182.1660  180.2550  138.4110 N   0  0  0  0  0  0  0  0  0  0  0  0
  183.3910  171.9220  136.9030 C   0  0  1  0  0  3  0  0  0  0  0  0
  182.9040  177.8650  137.2440 C   0  0  0  0  0  0  0  0  0  0  0  0
  185.4190  177.3330  135.7850 O   0  0  0  0  0  0  0  0  0  0  0  0
  187.6950  179.4040  137.2080 O   0  0  0  0  0  0  0  0  0  0  0  0
  186.7120  177.4230  136.3550 C   0  0  2  0  0  3  0  0  0  0  0  0
  189.4070  175.9210  135.3020 C   0  0  0  0  0  3  0  0  0  0  0  0
  187.3330  173.5740  136.6090 C   0  0  0  0  0  1  0  0  0  0  0  0
  183.2720  179.6200  138.8720 C   0  0  0  0  0  3  0  0  0  0  0  0
  183.6710  178.4110  138.3010 C   0  0  0  0  0  0  0  0  0  0  0  0
  186.7820  174.8630  136.0010 C   0  0  1  0  0  0  0  0  0  0  0  0
  1 22  1  0  0  0  0
  1  5  1  1  0  0  0
  2 22  2  0  0  0  0
  2 14  1  0  0  0  0
  3 19  1  0  0  0  0
  4 23  1  6  0  0  0
  4  1  1  0  0  0  0
  6 21  1  0  0  0  0
  7 30  1  0  0  0  0
  8  6  1  6  0  0  0
 10 15  1  6  0  0  0
 11  3  1  0  0  0  0
 12  8  1  0  0  0  0
 12  9  1  0  0  0  0
 12  5  1  1  0  0  0
 13 30  1  0  0  0  0
 13  4  1  0  0  0  0
 13  8  1  0  0  0  0
 14 20  2  0  0  0  0
 16  7  1  0  0  0  0
 16 26  2  0  0  0  0
 18  2  1  0  0  0  0
 20 28  1  0  0  0  0
 21 17  1  0  0  0  0
 21  9  1  0  0  0  0
 22 29  1  0  0  0  0
 23 25  1  0  0  0  0
 24 11  2  0  0  0  0
 25 10  1  0  0  0  0
 25 11  1  0  0  0  0
 26 15  1  0  0  0  0
 29 19  1  0  0  0  0
 29 28  2  0  0  0  0
 30 27  1  0  0  0  0
 30 10  1  0  0  0  0
M  END
>  <MODEL>
5

>  <REMARK>
 VINA RESULT:      -5.7      4.441      7.065
  Name = 
  0 active torsions:
  status: ('A' for Active; 'I' for Inactive)
                            x       y       z     vdW  Elec       q    Type
                         _______ _______ _______ _____ _____    ______ ____

>  <TORSDO>
F 0

$$$$
=
 OpenBabel10272413413D

 30 35  0  0  1  0  0  0  0  0999 V2000
  192.2590  176.1590  137.2440 C   0  0  1  0  0  3  0  0  0  0  0  0
  193.9220  175.1690  135.6330 C   0  0  0  0  0  0  0  0  0  0  0  0
  189.5960  173.5280  135.8250 O   0  0  0  0  0  0  0  0  0  0  0  0
  190.7320  176.3730  137.2310 C   0  0  1  0  0  3  0  0  0  0  0  0
  192.7910  175.9290  138.6710 C   0  0  0  0  0  2  0  0  0  0  0  0
  190.4490  177.6770  140.8740 C   0  0  0  0  0  2  0  0  0  0  0  0
  188.1770  178.6430  137.4550 C   0  0  0  0  0  2  0  0  0  0  0  0
  190.7320  176.9190  139.6160 C   0  0  2  0  0  3  0  0  0  0  0  0
  192.6500  177.1270  140.8640 O   0  0  0  0  0  0  0  0  0  0  0  0
  188.0930  176.1220  137.2630 C   0  0  1  0  0  3  0  0  0  0  0  0
  188.8700  174.6240  135.3300 C   0  0  0  0  0  0  0  0  0  0  0  0
  192.2340  177.0530  139.5180 C   0  0  1  0  0  3  0  0  0  0  0  0
  190.1260  177.3390  138.2730 C   0  0  2  0  0  3  0  0  0  0  0  0
  194.3530  174.1630  134.8300 N   0  0  0  0  0  0  0  0  0  0  0  0
  186.5870  176.1640  136.9830 C   0  0  0  0  0  2  0  0  0  0  0  0
  186.7940  178.6510  136.8530 C   0  0  0  0  0  3  0  0  0  0  0  0
  191.7020  178.1880  142.8840 N   0  0  0  0  0  1  0  0  0  0  0  0
  194.7690  176.3920  135.7640 C   0  0  0  0  0  1  0  0  0  0  0  0
  190.6320  173.5990  136.8000 C   0  0  0  0  0  2  0  0  0  0  0  0
  193.6490  173.0430  134.6690 N   0  0  0  0  0  0  0  0  0  0  0  0
  191.5800  177.6620  141.5680 C   0  0  1  0  0  3  0  0  0  0  0  0
  192.6990  175.0420  136.3190 C   0  0  0  0  0  0  0  0  0  0  0  0
  190.1980  176.5730  135.9520 O   0  0  0  0  0  0  0  0  0  0  0  0
  188.1100  174.4390  134.3460 O   0  0  0  0  0  0  0  0  0  0  0  0
  188.9020  176.0020  135.9410 C   0  0  2  0  0  3  0  0  0  0  0  0
  186.1000  177.5360  136.5970 C   0  0  0  0  0  3  0  0  0  0  0  0
  187.8560  177.2590  139.4890 C   0  0  0  0  0  1  0  0  0  0  0  0
  192.4640  172.8570  135.3010 C   0  0  0  0  0  3  0  0  0  0  0  0
  191.9570  173.8490  136.1400 C   0  0  0  0  0  0  0  0  0  0  0  0
  188.5660  177.3230  138.1380 C   0  0  1  0  0  0  0  0  0  0  0  0
  1  5  1  1  0  0  0
  2 18  1  0  0  0  0
  2 22  1  0  0  0  0
  3 19  1  0  0  0  0
  4 23  1  6  0  0  0
  4  1  1  0  0  0  0
  4 13  1  0  0  0  0
  6 21  1  0  0  0  0
  7 30  1  0  0  0  0
  8  6  1  1  0  0  0
  9 21  1  0  0  0  0
 10 15  1  6  0  0  0
 10 30  1  0  0  0  0
 11  3  1  0  0  0  0
 11 25  1  0  0  0  0
 12  5  1  1  0  0  0
 12  8  1  0  0  0  0
 12  9  1  0  0  0  0
 13  8  1  0  0  0  0
 14  2  2  0  0  0  0
 16  7  1  0  0  0  0
 20 14  1  0  0  0  0
 20 28  2  0  0  0  0
 21 17  1  0  0  0  0
 22  1  1  0  0  0  0
 24 11  2  0  0  0  0
 25 23  1  0  0  0  0
 25 10  1  0  0  0  0
 26 16  2  0  0  0  0
 26 15  1  0  0  0  0
 28 29  1  0  0  0  0
 29 22  2  0  0  0  0
 29 19  1  0  0  0  0
 30 13  1  0  0  0  0
 30 27  1  0  0  0  0
M  END
>  <MODEL>
6

>  <REMARK>
 VINA RESULT:      -5.6      2.090      5.571
  Name = 
  0 active torsions:
  status: ('A' for Active; 'I' for Inactive)
                            x       y       z     vdW  Elec       q    Type
                         _______ _______ _______ _____ _____    ______ ____

>  <TORSDO>
F 0

$$$$
=
 OpenBabel10272413413D

 30 35  0  0  1  0  0  0  0  0999 V2000
  188.2280  175.2420  137.0570 C   0  0  1  0  0  3  0  0  0  0  0  0
  188.9550  177.3990  138.1340 C   0  0  0  0  0  0  0  0  0  0  0  0
  185.2650  177.3140  135.3360 O   0  0  0  0  0  0  0  0  0  0  0  0
  186.8710  174.6470  136.6300 C   0  0  1  0  0  3  0  0  0  0  0  0
  189.3750  174.7590  136.1500 C   0  0  0  0  0  2  0  0  0  0  0  0
  188.3130  171.4860  134.9030 C   0  0  0  0  0  2  0  0  0  0  0  0
  184.6780  172.0390  136.9680 C   0  0  0  0  0  2  0  0  0  0  0  0
  187.9850  172.8670  135.3720 C   0  0  2  0  0  3  0  0  0  0  0  0
  190.2600  172.5460  135.3850 O   0  0  0  0  0  0  0  0  0  0  0  0
  184.5660  174.0650  135.4590 C   0  0  1  0  0  3  0  0  0  0  0  0
  184.3700  176.5430  136.0960 C   0  0  0  0  0  0  0  0  0  0  0  0
  189.2600  173.2510  136.0880 C   0  0  1  0  0  3  0  0  0  0  0  0
  186.8090  173.1350  136.3170 C   0  0  2  0  0  3  0  0  0  0  0  0
  188.9770  178.7550  138.1940 N   0  0  0  0  0  0  0  0  0  0  0  0
  183.1050  173.7600  135.1090 C   0  0  0  0  0  2  0  0  0  0  0  0
  183.1750  171.9790  136.8600 C   0  0  0  0  0  3  0  0  0  0  0  0
  190.3550  170.3060  134.3470 N   0  0  0  0  0  1  0  0  0  0  0  0
  189.7380  176.6260  139.1430 C   0  0  0  0  0  1  0  0  0  0  0  0
  186.6380  177.0000  135.1140 C   0  0  0  0  0  2  0  0  0  0  0  0
  188.3040  179.5080  137.3250 N   0  0  0  0  0  0  0  0  0  0  0  0
  189.6380  171.4260  134.8510 C   0  0  1  0  0  3  0  0  0  0  0  0
  188.2030  176.7560  137.1330 C   0  0  0  0  0  0  0  0  0  0  0  0
  185.7930  175.0690  137.4180 O   0  0  0  0  0  0  0  0  0  0  0  0
  183.2390  177.0280  136.3550 O   0  0  0  0  0  0  0  0  0  0  0  0
  184.6570  175.1430  136.5750 C   0  0  2  0  0  3  0  0  0  0  0  0
  182.4650  172.7850  136.0610 C   0  0  0  0  0  3  0  0  0  0  0  0
  185.3830  171.8530  134.5970 C   0  0  0  0  0  1  0  0  0  0  0  0
  187.5610  178.9510  136.3360 C   0  0  0  0  0  3  0  0  0  0  0  0
  187.4890  177.5640  136.2150 C   0  0  0  0  0  0  0  0  0  0  0  0
  185.3700  172.7780  135.8130 C   0  0  1  0  0  0  0  0  0  0  0  0
  1  5  1  6  0  0  0
  1 22  1  0  0  0  0
  2 14  1  0  0  0  0
  2 18  1  0  0  0  0
  3 11  1  0  0  0  0
  4  1  1  0  0  0  0
  4 23  1  1  0  0  0
  8  6  1  1  0  0  0
  8 12  1  0  0  0  0
  8 13  1  0  0  0  0
  9 12  1  0  0  0  0
 10 15  1  1  0  0  0
 10 30  1  0  0  0  0
 10 25  1  0  0  0  0
 11 24  2  0  0  0  0
 11 25  1  0  0  0  0
 12  5  1  6  0  0  0
 13  4  1  0  0  0  0
 15 26  1  0  0  0  0
 16  7  1  0  0  0  0
 17 21  1  0  0  0  0
 19  3  1  0  0  0  0
 19 29  1  0  0  0  0
 20 14  2  0  0  0  0
 21  6  1  0  0  0  0
 21  9  1  0  0  0  0
 22  2  2  0  0  0  0
 25 23  1  0  0  0  0
 26 16  2  0  0  0  0
 27 30  1  0  0  0  0
 28 20  1  0  0  0  0
 29 28  2  0  0  0  0
 29 22  1  0  0  0  0
 30 13  1  0  0  0  0
 30  7  1  0  0  0  0
M  END
>  <MODEL>
7

>  <REMARK>
 VINA RESULT:      -5.5      3.304      4.845
  Name = 
  0 active torsions:
  status: ('A' for Active; 'I' for Inactive)
                            x       y       z     vdW  Elec       q    Type
                         _______ _______ _______ _____ _____    ______ ____

>  <TORSDO>
F 0

$$$$
=
 OpenBabel10272413413D

 30 35  0  0  1  0  0  0  0  0999 V2000
  186.5320  178.0590  138.0760 C   0  0  1  0  0  3  0  0  0  0  0  0
  188.6700  177.8010  136.7710 C   0  0  0  0  0  0  0  0  0  0  0  0
  185.2330  174.7410  136.2490 O   0  0  0  0  0  0  0  0  0  0  0  0
  185.0510  177.7250  137.8070 C   0  0  1  0  0  3  0  0  0  0  0  0
  186.8790  177.9540  139.5730 C   0  0  0  0  0  2  0  0  0  0  0  0
  183.7530  178.6520  141.3440 C   0  0  0  0  0  2  0  0  0  0  0  0
  181.8570  178.9420  137.5880 C   0  0  0  0  0  2  0  0  0  0  0  0
  184.4800  178.1090  140.1560 C   0  0  2  0  0  3  0  0  0  0  0  0
  185.9780  178.9080  141.7040 O   0  0  0  0  0  0  0  0  0  0  0  0
  182.7020  176.5660  137.4010 C   0  0  1  0  0  3  0  0  0  0  0  0
  184.2540  175.5390  135.6340 C   0  0  0  0  0  0  0  0  0  0  0  0
  185.8340  178.7650  140.3080 C   0  0  1  0  0  3  0  0  0  0  0  0
  183.9860  178.3610  138.7280 C   0  0  2  0  0  3  0  0  0  0  0  0
  189.5500  177.0530  136.0580 N   0  0  0  0  0  0  0  0  0  0  0  0
  181.3430  176.0930  136.8730 C   0  0  0  0  0  2  0  0  0  0  0  0
  180.6750  178.4980  136.7640 C   0  0  0  0  0  3  0  0  0  0  0  0
  184.4100  179.4620  143.5310 N   0  0  0  0  0  1  0  0  0  0  0  0
  188.9980  179.2330  137.0340 C   0  0  0  0  0  1  0  0  0  0  0  0
  186.0090  175.1190  137.3830 C   0  0  0  0  0  2  0  0  0  0  0  0
  189.3240  175.7680  135.7880 N   0  0  0  0  0  0  0  0  0  0  0  0
  184.6910  178.9970  142.2170 C   0  0  1  0  0  3  0  0  0  0  0  0
  187.4800  177.2170  137.2440 C   0  0  0  0  0  0  0  0  0  0  0  0
  184.6900  177.7940  136.4560 O   0  0  0  0  0  0  0  0  0  0  0  0
  183.7740  175.1520  134.5380 O   0  0  0  0  0  0  0  0  0  0  0  0
  183.6990  176.8070  136.2320 C   0  0  2  0  0  3  0  0  0  0  0  0
  180.4700  177.2260  136.4030 C   0  0  0  0  0  3  0  0  0  0  0  0
  181.7290  177.4280  139.5490 C   0  0  0  0  0  1  0  0  0  0  0  0
  188.1970  175.1450  136.2150 C   0  0  0  0  0  3  0  0  0  0  0  0
  187.2460  175.8510  136.9510 C   0  0  0  0  0  0  0  0  0  0  0  0
  182.5750  177.8080  138.3340 C   0  0  1  0  0  0  0  0  0  0  0  0
  1  5  1  1  0  0  0
  2 18  1  0  0  0  0
  2 22  1  0  0  0  0
  3 19  1  0  0  0  0
  4 23  1  6  0  0  0
  4  1  1  0  0  0  0
  4 13  1  0  0  0  0
  6 21  1  0  0  0  0
  7 30  1  0  0  0  0
  8 12  1  0  0  0  0
  8  6  1  1  0  0  0
  9 21  1  0  0  0  0
 10 15  1  6  0  0  0
 10 30  1  0  0  0  0
 11 25  1  0  0  0  0
 11  3  1  0  0  0  0
 12  5  1  1  0  0  0
 12  9  1  0  0  0  0
 13  8  1  0  0  0  0
 14  2  2  0  0  0  0
 16  7  1  0  0  0  0
 20 14  1  0  0  0  0
 20 28  2  0  0  0  0
 21 17  1  0  0  0  0
 22  1  1  0  0  0  0
 24 11  2  0  0  0  0
 25 23  1  0  0  0  0
 25 10  1  0  0  0  0
 26 16  2  0  0  0  0
 26 15  1  0  0  0  0
 28 29  1  0  0  0  0
 29 22  2  0  0  0  0
 29 19  1  0  0  0  0
 30 13  1  0  0  0  0
 30 27  1  0  0  0  0
M  END
>  <MODEL>
8

>  <REMARK>
 VINA RESULT:      -5.5      3.781      7.233
  Name = 
  0 active torsions:
  status: ('A' for Active; 'I' for Inactive)
                            x       y       z     vdW  Elec       q    Type
                         _______ _______ _______ _____ _____    ______ ____

>  <TORSDO>
F 0

$$$$
=
 OpenBabel10272413413D

 30 35  0  0  1  0  0  0  0  0999 V2000
  184.6210  177.1450  137.9740 C   0  0  1  0  0  3  0  0  0  0  0  0
  183.4610  178.9930  139.2310 C   0  0  0  0  0  0  0  0  0  0  0  0
  181.1960  176.6070  135.9710 O   0  0  0  0  0  0  0  0  0  0  0  0
  184.1690  175.8110  137.3460 C   0  0  1  0  0  3  0  0  0  0  0  0
  185.8010  177.7670  137.2040 C   0  0  0  0  0  2  0  0  0  0  0  0
  187.5660  174.9430  135.6860 C   0  0  0  0  0  2  0  0  0  0  0  0
  184.5920  172.4130  137.2780 C   0  0  0  0  0  2  0  0  0  0  0  0
  186.3010  175.5780  136.1690 C   0  0  2  0  0  3  0  0  0  0  0  0
  188.0710  177.0130  136.4660 O   0  0  0  0  0  0  0  0  0  0  0  0
  183.1090  173.8910  135.8570 C   0  0  1  0  0  3  0  0  0  0  0  0
  181.1160  175.3400  136.5710 C   0  0  0  0  0  0  0  0  0  0  0  0
  186.8380  176.6740  137.0620 C   0  0  1  0  0  3  0  0  0  0  0  0
  185.2570  174.7840  136.9620 C   0  0  2  0  0  3  0  0  0  0  0  0
  182.4740  179.9170  139.3530 N   0  0  0  0  0  0  0  0  0  0  0  0
  182.3690  172.6670  135.3060 C   0  0  0  0  0  2  0  0  0  0  0  0
  183.6280  171.2940  136.9710 C   0  0  0  0  0  3  0  0  0  0  0  0
  189.8430  175.7020  135.3520 N   0  0  0  0  0  1  0  0  0  0  0  0
  184.5010  178.9130  140.2990 C   0  0  0  0  0  1  0  0  0  0  0  0
  182.3640  177.4210  135.9180 C   0  0  0  0  0  2  0  0  0  0  0  0
  181.5150  180.0460  138.4370 N   0  0  0  0  0  0  0  0  0  0  0  0
  188.5060  175.8730  135.8060 C   0  0  1  0  0  3  0  0  0  0  0  0
  183.4850  178.1390  138.1120 C   0  0  0  0  0  0  0  0  0  0  0  0
  183.0860  175.2120  138.0030 O   0  0  0  0  0  0  0  0  0  0  0  0
  179.9820  174.8130  136.7010 O   0  0  0  0  0  0  0  0  0  0  0  0
  182.3140  174.5430  137.0230 C   0  0  2  0  0  3  0  0  0  0  0  0
  182.6020  171.4230  136.1210 C   0  0  0  0  0  3  0  0  0  0  0  0
  185.3380  173.1000  135.0140 C   0  0  0  0  0  1  0  0  0  0  0  0
  181.4800  179.2550  137.3350 C   0  0  0  0  0  3  0  0  0  0  0  0
  182.4600  178.2820  137.1440 C   0  0  0  0  0  0  0  0  0  0  0  0
  184.5800  173.5610  136.2580 C   0  0  1  0  0  0  0  0  0  0  0  0
  1  5  1  6  0  0  0
  1 22  1  0  0  0  0
  2 14  1  0  0  0  0
  2 18  1  0  0  0  0
  3 11  1  0  0  0  0
  4  1  1  0  0  0  0
  4 23  1  1  0  0  0
  6 21  1  0  0  0  0
  8  6  1  1  0  0  0
  8 13  1  0  0  0  0
  8 12  1  0  0  0  0
  9 12  1  0  0  0  0
 10 15  1  1  0  0  0
 10 30  1  0  0  0  0
 10 25  1  0  0  0  0
 11 24  2  0  0  0  0
 11 25  1  0  0  0  0
 12  5  1  6  0  0  0
 13  4  1  0  0  0  0
 15 26  1  0  0  0  0
 16  7  1  0  0  0  0
 17 21  1  0  0  0  0
 19  3  1  0  0  0  0
 19 29  1  0  0  0  0
 20 14  2  0  0  0  0
 21  9  1  0  0  0  0
 22  2  2  0  0  0  0
 25 23  1  0  0  0  0
 26 16  2  0  0  0  0
 27 30  1  0  0  0  0
 28 20  1  0  0  0  0
 29 28  2  0  0  0  0
 29 22  1  0  0  0  0
 30 13  1  0  0  0  0
 30  7  1  0  0  0  0
M  END
>  <MODEL>
9

>  <REMARK>
 VINA RESULT:      -5.4      4.362      6.202
  Name = 
  0 active torsions:
  status: ('A' for Active; 'I' for Inactive)
                            x       y       z     vdW  Elec       q    Type
                         _______ _______ _______ _____ _____    ______ ____

>  <TORSDO>
F 0

$$$$
