=
 OpenBabel10272413433D

 30 31  0  0  1  0  0  0  0  0999 V2000
  182.5940  177.4370  139.5970 O   0  0  0  0  0  0  0  0  0  0  0  0
  181.1910  175.3960  139.4880 C   0  0  2  0  0  3  0  0  0  0  0  0
  184.1520  177.9560  137.0580 C   0  0  0  0  0  2  0  0  0  0  0  0
  183.4720  177.5640  140.6770 C   0  0  0  0  0  2  0  0  0  0  0  0
  185.8080  178.2950  138.9660 C   0  0  0  0  0  2  0  0  0  0  0  0
  187.6680  176.5610  137.6370 N   0  0  0  0  0  2  0  0  0  0  0  0
  184.7910  179.3430  139.4260 C   0  0  0  0  0  2  0  0  0  0  0  0
  184.0790  178.9600  140.7260 C   0  0  2  0  0  3  0  0  0  0  0  0
  185.4470  177.6780  137.6840 N   0  0  0  0  0  0  0  0  0  0  0  0
  180.6030  174.9260  138.1600 C   0  0  0  0  0  2  0  0  0  0  0  0
  179.9830  176.4260  140.3820 S   0  0  0  0  0  1  0  0  0  0  0  0
  183.8570  173.7590  136.4630 C   0  0  0  0  0  1  0  0  0  0  0  0
  181.5360  173.9620  137.4140 C   0  0  0  0  0  2  0  0  0  0  0  0
  182.5790  176.0630  139.3320 C   0  0  1  0  0  3  0  0  0  0  0  0
  183.3080  176.6890  136.8660 C   0  0  1  0  0  3  0  0  0  0  0  0
  186.1880  176.4440  135.8380 O   0  0  0  0  0  0  0  0  0  0  0  0
  183.0280  174.2360  137.6430 C   0  0  2  0  0  3  0  0  0  0  0  0
  183.3440  175.6840  138.0450 C   0  0  2  0  0  3  0  0  0  0  0  0
  186.4240  176.8760  137.0000 C   0  0  0  0  0  0  0  0  0  0  0  0
  188.7060  175.7720  136.9920 C   0  0  0  0  0  2  0  0  0  0  0  0
  189.6870  176.6850  136.2810 C   0  0  0  0  0  1  0  0  0  0  0  0
  185.0200  179.0620  141.9150 C   0  0  0  0  0  2  0  0  0  0  0  0
  185.6600  178.2430  143.8600 C   0  0  0  0  0  1  0  0  0  0  0  0
  184.8170  177.9870  142.7790 O   0  0  0  0  0  0  0  0  0  0  0  0
  181.9260  176.9570  136.2540 C   0  0  1  0  0  3  0  0  0  0  0  0
  180.0870  178.4200  137.1590 C   0  0  0  0  0  1  0  0  0  0  0  0
  181.4310  178.3970  136.4550 C   0  0  2  0  0  3  0  0  0  0  0  0
  181.3380  179.0810  135.2410 O   0  0  0  0  0  1  0  0  0  0  0  0
  181.8970  176.5150  134.7960 C   0  0  0  0  0  2  0  0  0  0  0  0
  180.2780  175.8030  134.3930 S   0  0  0  0  0  1  0  0  0  0  0  0
  1  4  1  0  0  0  0
  2 11  1  6  0  0  0
  3  9  1  0  0  0  0
  4  8  1  0  0  0  0
  5  7  1  0  0  0  0
  7  8  1  0  0  0  0
  8 22  1  1  0  0  0
  9  5  1  0  0  0  0
 10  2  1  0  0  0  0
 13 17  1  0  0  0  0
 13 10  1  0  0  0  0
 14  2  1  0  0  0  0
 14  1  1  6  0  0  0
 15 25  1  1  0  0  0
 15  3  1  0  0  0  0
 15 18  1  0  0  0  0
 16 19  2  0  0  0  0
 17 12  1  6  0  0  0
 17 18  1  0  0  0  0
 18 14  1  0  0  0  0
 19  6  1  0  0  0  0
 19  9  1  0  0  0  0
 20  6  1  0  0  0  0
 21 20  1  0  0  0  0
 22 24  1  0  0  0  0
 24 23  1  0  0  0  0
 25 27  1  0  0  0  0
 27 26  1  0  0  0  0
 28 27  1  0  0  0  0
 29 25  1  0  0  0  0
 30 29  1  0  0  0  0
M  END
>  <MODEL>
1

>  <REMARK>
 VINA RESULT:      -4.1      0.000      0.000
  Name = 
  6 active torsions:
  status: ('A' for Active; 'I' for Inactive)
    1  A    between atoms: N_7  and  C_16
    2  A    between atoms: C_9  and  C_12
    3  A    between atoms: C_9  and  O_21
    4  A    between atoms: C_10  and  C_25
    5  A    between atoms: C_11  and  C_25
    6  A    between atoms: C_23  and  C_25
                            x       y       z     vdW  Elec       q    Type
                         _______ _______ _______ _____ _____    ______ ____

>  <TORSDO>
F 6

$$$$
=
 OpenBabel10272413433D

 30 31  0  0  1  0  0  0  0  0999 V2000
  181.8990  176.7240  138.8280 O   0  0  0  0  0  0  0  0  0  0  0  0
  181.7790  174.3290  138.1960 C   0  0  2  0  0  3  0  0  0  0  0  0
  184.0240  178.2550  137.3190 C   0  0  0  0  0  2  0  0  0  0  0  0
  182.0260  177.0300  140.1860 C   0  0  0  0  0  2  0  0  0  0  0  0
  184.2790  178.9440  139.7610 C   0  0  0  0  0  2  0  0  0  0  0  0
  187.0900  178.3960  139.6040 N   0  0  0  0  0  2  0  0  0  0  0  0
  182.8190  179.3770  139.6060 C   0  0  0  0  0  2  0  0  0  0  0  0
  181.8480  178.5230  140.4280 C   0  0  2  0  0  3  0  0  0  0  0  0
  184.8600  178.4500  138.5060 N   0  0  0  0  0  0  0  0  0  0  0  0
  182.1410  173.8780  136.7830 C   0  0  0  0  0  2  0  0  0  0  0  0
  179.9820  174.5940  138.3310 S   0  0  0  0  0  1  0  0  0  0  0  0
  185.9410  174.4830  136.9350 C   0  0  0  0  0  1  0  0  0  0  0  0
  183.6300  173.5330  136.6410 C   0  0  0  0  0  2  0  0  0  0  0  0
  182.6220  175.5340  138.6800 C   0  0  1  0  0  3  0  0  0  0  0  0
  184.0280  176.8010  136.8300 C   0  0  1  0  0  3  0  0  0  0  0  0
  186.8220  177.9620  137.3280 O   0  0  0  0  0  0  0  0  0  0  0  0
  184.5530  174.3670  137.5390 C   0  0  2  0  0  3  0  0  0  0  0  0
  183.9660  175.7270  137.9460 C   0  0  2  0  0  3  0  0  0  0  0  0
  186.2820  178.2580  138.4290 C   0  0  0  0  0  0  0  0  0  0  0  0
  188.5360  178.2340  139.5890 C   0  0  0  0  0  2  0  0  0  0  0  0
  188.9920  177.5180  140.8460 C   0  0  0  0  0  1  0  0  0  0  0  0
  181.9860  178.8170  141.9130 C   0  0  0  0  0  2  0  0  0  0  0  0
  180.1000  179.8710  142.3520 C   0  0  0  0  0  1  0  0  0  0  0  0
  180.7550  178.6560  142.5480 O   0  0  0  0  0  0  0  0  0  0  0  0
  183.1220  176.5580  135.6140 C   0  0  1  0  0  3  0  0  0  0  0  0
  180.6300  176.8830  135.4470 C   0  0  0  0  0  1  0  0  0  0  0  0
  181.9790  177.5760  135.4840 C   0  0  2  0  0  3  0  0  0  0  0  0
  182.1300  178.3720  134.3460 O   0  0  0  0  0  1  0  0  0  0  0  0
  183.9590  176.4350  134.3470 C   0  0  0  0  0  2  0  0  0  0  0  0
  185.6480  177.0230  134.6570 S   0  0  0  0  0  1  0  0  0  0  0  0
  1  4  1  0  0  0  0
  2 11  1  6  0  0  0
  2 14  1  0  0  0  0
  3  9  1  0  0  0  0
  4  8  1  0  0  0  0
  7  5  1  0  0  0  0
  7  8  1  0  0  0  0
  8 22  1  1  0  0  0
  9  5  1  0  0  0  0
 10  2  1  0  0  0  0
 13 10  1  0  0  0  0
 13 17  1  0  0  0  0
 14  1  1  6  0  0  0
 15 25  1  6  0  0  0
 15  3  1  0  0  0  0
 15 18  1  0  0  0  0
 16 19  2  0  0  0  0
 17 12  1  6  0  0  0
 17 18  1  0  0  0  0
 18 14  1  0  0  0  0
 19  9  1  0  0  0  0
 19  6  1  0  0  0  0
 20  6  1  0  0  0  0
 20 21  1  0  0  0  0
 22 24  1  0  0  0  0
 23 24  1  0  0  0  0
 26 27  1  0  0  0  0
 27 25  1  0  0  0  0
 28 27  1  0  0  0  0
 29 30  1  0  0  0  0
 29 25  1  0  0  0  0
M  END
>  <MODEL>
2

>  <REMARK>
 VINA RESULT:      -3.6      2.196      2.637
  Name = 
  6 active torsions:
  status: ('A' for Active; 'I' for Inactive)
    1  A    between atoms: N_7  and  C_16
    2  A    between atoms: C_9  and  C_12
    3  A    between atoms: C_9  and  O_21
    4  A    between atoms: C_10  and  C_25
    5  A    between atoms: C_11  and  C_25
    6  A    between atoms: C_23  and  C_25
                            x       y       z     vdW  Elec       q    Type
                         _______ _______ _______ _____ _____    ______ ____

>  <TORSDO>
F 6

$$$$
=
 OpenBabel10272413433D

 30 31  0  0  1  0  0  0  0  0999 V2000
  182.7420  178.3820  141.2310 O   0  0  0  0  0  0  0  0  0  0  0  0
  180.7500  177.0630  140.5660 C   0  0  2  0  0  3  0  0  0  0  0  0
  184.2690  179.5110  138.8780 C   0  0  0  0  0  2  0  0  0  0  0  0
  183.6610  177.7780  142.0940 C   0  0  0  0  0  2  0  0  0  0  0  0
  186.0290  178.5150  140.4310 C   0  0  0  0  0  2  0  0  0  0  0  0
  187.1660  177.1040  138.2080 N   0  0  0  0  0  2  0  0  0  0  0  0
  185.4280  179.4900  141.4470 C   0  0  0  0  0  2  0  0  0  0  0  0
  184.6890  178.7870  142.5900 C   0  0  2  0  0  3  0  0  0  0  0  0
  185.4310  178.6460  139.0970 N   0  0  0  0  0  0  0  0  0  0  0  0
  179.9830  177.4010  139.2910 C   0  0  0  0  0  2  0  0  0  0  0  0
  179.9820  177.8830  142.0000 S   0  0  0  0  0  1  0  0  0  0  0  0
  182.6060  176.2560  136.7140 C   0  0  0  0  0  1  0  0  0  0  0  0
  180.5200  176.6470  138.0660 C   0  0  0  0  0  2  0  0  0  0  0  0
  182.2720  177.3240  140.4440 C   0  0  1  0  0  3  0  0  0  0  0  0
  183.0530  178.7400  138.3490 C   0  0  1  0  0  3  0  0  0  0  0  0
  185.6490  178.1940  136.8110 O   0  0  0  0  0  0  0  0  0  0  0  0
  182.0290  176.3740  138.1130 C   0  0  2  0  0  3  0  0  0  0  0  0
  182.8140  177.3530  138.9990 C   0  0  2  0  0  3  0  0  0  0  0  0
  186.0650  177.9920  137.9850 C   0  0  0  0  0  0  0  0  0  0  0  0
  187.8640  176.4260  137.1250 C   0  0  0  0  0  2  0  0  0  0  0  0
  188.9780  177.3070  136.5930 C   0  0  0  0  0  1  0  0  0  0  0  0
  185.6640  178.0980  143.5290 C   0  0  0  0  0  2  0  0  0  0  0  0
  186.8380  178.2140  145.3920 C   0  0  0  0  0  1  0  0  0  0  0  0
  186.1170  178.9980  144.4930 O   0  0  0  0  0  0  0  0  0  0  0  0
  181.8060  179.6140  138.1560 C   0  0  1  0  0  3  0  0  0  0  0  0
  180.3470  181.0270  139.6450 C   0  0  0  0  0  1  0  0  0  0  0  0
  181.7480  180.8250  139.1010 C   0  0  2  0  0  3  0  0  0  0  0  0
  182.1800  181.9910  138.4660 O   0  0  0  0  0  1  0  0  0  0  0  0
  181.6490  179.9950  136.6890 C   0  0  0  0  0  2  0  0  0  0  0  0
  180.0380  179.4340  136.0690 S   0  0  0  0  0  1  0  0  0  0  0  0
  1  4  1  0  0  0  0
  2 11  1  1  0  0  0
  3  9  1  0  0  0  0
  4  8  1  0  0  0  0
  5  7  1  0  0  0  0
  7  8  1  0  0  0  0
  8 22  1  1  0  0  0
  9  5  1  0  0  0  0
 10  2  1  0  0  0  0
 13 17  1  0  0  0  0
 13 10  1  0  0  0  0
 14  2  1  0  0  0  0
 14  1  1  6  0  0  0
 15 25  1  1  0  0  0
 15  3  1  0  0  0  0
 15 18  1  0  0  0  0
 16 19  2  0  0  0  0
 17 12  1  6  0  0  0
 17 18  1  0  0  0  0
 18 14  1  0  0  0  0
 19  6  1  0  0  0  0
 19  9  1  0  0  0  0
 20  6  1  0  0  0  0
 21 20  1  0  0  0  0
 22 24  1  0  0  0  0
 24 23  1  0  0  0  0
 25 27  1  0  0  0  0
 27 26  1  0  0  0  0
 28 27  1  0  0  0  0
 29 25  1  0  0  0  0
 30 29  1  0  0  0  0
M  END
>  <MODEL>
3

>  <REMARK>
 VINA RESULT:      -3.5      2.040      2.506
  Name = 
  6 active torsions:
  status: ('A' for Active; 'I' for Inactive)
    1  A    between atoms: N_7  and  C_16
    2  A    between atoms: C_9  and  C_12
    3  A    between atoms: C_9  and  O_21
    4  A    between atoms: C_10  and  C_25
    5  A    between atoms: C_11  and  C_25
    6  A    between atoms: C_23  and  C_25
                            x       y       z     vdW  Elec       q    Type
                         _______ _______ _______ _____ _____    ______ ____

>  <TORSDO>
F 6

$$$$
=
 OpenBabel10272413433D

 30 31  0  0  1  0  0  0  0  0999 V2000
  182.4310  173.6370  135.6520 O   0  0  0  0  0  0  0  0  0  0  0  0
  181.6010  175.5750  134.3480 C   0  0  2  0  0  3  0  0  0  0  0  0
  184.5590  174.3740  137.6690 C   0  0  0  0  0  2  0  0  0  0  0  0
  182.8760  172.5190  134.9400 C   0  0  0  0  0  2  0  0  0  0  0  0
  185.4200  172.2850  136.4870 C   0  0  0  0  0  2  0  0  0  0  0  0
  187.9270  173.6000  136.0250 N   0  0  0  0  0  2  0  0  0  0  0  0
  184.1120  171.6740  136.9970 C   0  0  0  0  0  2  0  0  0  0  0  0
  183.1260  171.3410  135.8730 C   0  0  2  0  0  3  0  0  0  0  0  0
  185.6200  173.6640  136.9490 N   0  0  0  0  0  0  0  0  0  0  0  0
  181.5740  176.9720  134.9620 C   0  0  0  0  0  2  0  0  0  0  0  0
  179.9830  174.7640  134.5570 S   0  0  0  0  0  1  0  0  0  0  0  0
  185.3660  177.6350  135.0680 C   0  0  0  0  0  1  0  0  0  0  0  0
  182.8770  177.7460  134.7170 C   0  0  0  0  0  2  0  0  0  0  0  0
  182.7930  174.7200  134.8430 C   0  0  1  0  0  3  0  0  0  0  0  0
  184.1090  175.6480  136.9430 C   0  0  1  0  0  3  0  0  0  0  0  0
  187.1480  175.4060  137.2790 O   0  0  0  0  0  0  0  0  0  0  0  0
  184.1270  176.8590  134.6550 C   0  0  2  0  0  3  0  0  0  0  0  0
  183.9850  175.5250  135.4030 C   0  0  2  0  0  3  0  0  0  0  0  0
  186.9090  174.2740  136.7750 C   0  0  0  0  0  0  0  0  0  0  0  0
  189.2580  174.1540  135.8290 C   0  0  0  0  0  2  0  0  0  0  0  0
  190.1890  173.6710  136.9250 C   0  0  0  0  0  1  0  0  0  0  0  0
  183.6020  170.1460  135.0650 C   0  0  0  0  0  2  0  0  0  0  0  0
  183.7230  168.0800  135.8270 C   0  0  0  0  0  1  0  0  0  0  0  0
  182.8180  169.0300  135.3550 O   0  0  0  0  0  0  0  0  0  0  0  0
  182.9650  176.3880  137.6520 C   0  0  1  0  0  3  0  0  0  0  0  0
  180.6510  175.6030  138.2600 C   0  0  0  0  0  1  0  0  0  0  0  0
  182.1300  175.4900  138.5770 C   0  0  2  0  0  3  0  0  0  0  0  0
  182.3470  175.7980  139.9220 O   0  0  0  0  0  1  0  0  0  0  0  0
  183.4930  177.6360  138.3480 C   0  0  0  0  0  2  0  0  0  0  0  0
  182.2530  178.9590  138.2780 S   0  0  0  0  0  1  0  0  0  0  0  0
  2 11  1  1  0  0  0
  2 14  1  0  0  0  0
  2 10  1  0  0  0  0
  4  1  1  0  0  0  0
  4  8  1  0  0  0  0
  5  9  1  0  0  0  0
  5  7  1  0  0  0  0
  6 19  1  0  0  0  0
  8 22  1  6  0  0  0
  8  7  1  0  0  0  0
  9  3  1  0  0  0  0
 13 10  1  0  0  0  0
 14 18  1  0  0  0  0
 14  1  1  1  0  0  0
 15 25  1  1  0  0  0
 15  3  1  0  0  0  0
 17 13  1  0  0  0  0
 17 12  1  1  0  0  0
 17 18  1  0  0  0  0
 18 15  1  0  0  0  0
 19  9  1  0  0  0  0
 19 16  2  0  0  0  0
 20  6  1  0  0  0  0
 20 21  1  0  0  0  0
 22 24  1  0  0  0  0
 24 23  1  0  0  0  0
 25 29  1  0  0  0  0
 25 27  1  0  0  0  0
 26 27  1  0  0  0  0
 27 28  1  0  0  0  0
 30 29  1  0  0  0  0
M  END
>  <MODEL>
4

>  <REMARK>
 VINA RESULT:      -3.2      2.906      5.943
  Name = 
  6 active torsions:
  status: ('A' for Active; 'I' for Inactive)
    1  A    between atoms: N_7  and  C_16
    2  A    between atoms: C_9  and  C_12
    3  A    between atoms: C_9  and  O_21
    4  A    between atoms: C_10  and  C_25
    5  A    between atoms: C_11  and  C_25
    6  A    between atoms: C_23  and  C_25
                            x       y       z     vdW  Elec       q    Type
                         _______ _______ _______ _____ _____    ______ ____

>  <TORSDO>
F 6

$$$$
=
 OpenBabel10272413433D

 30 31  0  0  1  0  0  0  0  0999 V2000
  183.4190  178.1880  139.3770 O   0  0  0  0  0  0  0  0  0  0  0  0
  181.4050  177.3690  140.5690 C   0  0  2  0  0  3  0  0  0  0  0  0
  183.5420  177.3040  136.4880 C   0  0  0  0  0  2  0  0  0  0  0  0
  184.6640  177.9380  139.9610 C   0  0  0  0  0  2  0  0  0  0  0  0
  185.8730  176.8920  137.4380 C   0  0  0  0  0  2  0  0  0  0  0  0
  185.8080  174.2210  136.3930 N   0  0  0  0  0  2  0  0  0  0  0  0
  185.8200  178.3920  137.7400 C   0  0  0  0  0  2  0  0  0  0  0  0
  185.7680  178.7010  139.2390 C   0  0  2  0  0  3  0  0  0  0  0  0
  184.6890  176.4180  136.7110 N   0  0  0  0  0  0  0  0  0  0  0  0
  180.0960  177.1380  139.8180 C   0  0  0  0  0  2  0  0  0  0  0  0
  181.4190  179.0310  141.3130 S   0  0  0  0  0  1  0  0  0  0  0  0
  181.1370  174.0450  137.7720 C   0  0  0  0  0  1  0  0  0  0  0  0
  179.9820  175.7110  139.2640 C   0  0  0  0  0  2  0  0  0  0  0  0
  182.6560  177.0620  139.7100 C   0  0  1  0  0  3  0  0  0  0  0  0
  182.2510  176.7600  137.1130 C   0  0  1  0  0  3  0  0  0  0  0  0
  183.7620  174.7230  135.3900 O   0  0  0  0  0  0  0  0  0  0  0  0
  181.3250  175.0890  138.8590 C   0  0  2  0  0  3  0  0  0  0  0  0
  182.4110  176.1180  138.5140 C   0  0  2  0  0  3  0  0  0  0  0  0
  184.7110  175.1040  136.1300 C   0  0  0  0  0  0  0  0  0  0  0  0
  185.9000  172.8870  135.8200 C   0  0  0  0  0  2  0  0  0  0  0  0
  187.2920  172.3230  136.0360 C   0  0  0  0  0  1  0  0  0  0  0  0
  187.1030  178.4110  139.9050 C   0  0  0  0  0  2  0  0  0  0  0  0
  189.2550  178.0740  139.5620 C   0  0  0  0  0  1  0  0  0  0  0  0
  188.1480  178.7450  139.0450 O   0  0  0  0  0  0  0  0  0  0  0  0
  181.0430  177.6910  136.9350 C   0  0  1  0  0  3  0  0  0  0  0  0
  181.1950  180.1020  137.6470 C   0  0  0  0  0  1  0  0  0  0  0  0
  181.4210  179.1190  136.5140 C   0  0  2  0  0  3  0  0  0  0  0  0
  180.7040  179.5270  135.3870 O   0  0  0  0  0  1  0  0  0  0  0  0
  180.0120  177.0510  136.0140 C   0  0  0  0  0  2  0  0  0  0  0  0
  180.8450  176.1490  134.6780 S   0  0  0  0  0  1  0  0  0  0  0  0
  1  4  1  0  0  0  0
  2 11  1  6  0  0  0
  3  9  1  0  0  0  0
  3 15  1  0  0  0  0
  5  7  1  0  0  0  0
  7  8  1  0  0  0  0
  8 22  1  1  0  0  0
  8  4  1  0  0  0  0
  9  5  1  0  0  0  0
 10  2  1  0  0  0  0
 13 10  1  0  0  0  0
 14  1  1  6  0  0  0
 14  2  1  0  0  0  0
 15 25  1  1  0  0  0
 15 18  1  0  0  0  0
 16 19  2  0  0  0  0
 17 12  1  6  0  0  0
 17 13  1  0  0  0  0
 18 17  1  0  0  0  0
 18 14  1  0  0  0  0
 19  6  1  0  0  0  0
 19  9  1  0  0  0  0
 20 21  1  0  0  0  0
 20  6  1  0  0  0  0
 24 23  1  0  0  0  0
 24 22  1  0  0  0  0
 27 25  1  0  0  0  0
 27 26  1  0  0  0  0
 28 27  1  0  0  0  0
 29 25  1  0  0  0  0
 30 29  1  0  0  0  0
M  END
>  <MODEL>
5

>  <REMARK>
 VINA RESULT:      -3.0      1.988      2.702
  Name = 
  6 active torsions:
  status: ('A' for Active; 'I' for Inactive)
    1  A    between atoms: N_7  and  C_16
    2  A    between atoms: C_9  and  C_12
    3  A    between atoms: C_9  and  O_21
    4  A    between atoms: C_10  and  C_25
    5  A    between atoms: C_11  and  C_25
    6  A    between atoms: C_23  and  C_25
                            x       y       z     vdW  Elec       q    Type
                         _______ _______ _______ _____ _____    ______ ____

>  <TORSDO>
F 6

$$$$
=
 OpenBabel10272413433D

 30 31  0  0  1  0  0  0  0  0999 V2000
  182.8510  173.5160  135.8530 O   0  0  0  0  0  0  0  0  0  0  0  0
  181.0530  174.3270  134.3510 C   0  0  2  0  0  3  0  0  0  0  0  0
  183.6630  175.5380  137.9490 C   0  0  0  0  0  2  0  0  0  0  0  0
  184.0130  173.0140  135.2610 C   0  0  0  0  0  2  0  0  0  0  0  0
  185.8420  174.6210  136.9920 C   0  0  0  0  0  2  0  0  0  0  0  0
  186.7800  177.3030  136.6030 N   0  0  0  0  0  2  0  0  0  0  0  0
  185.2720  173.2780  137.4570 C   0  0  0  0  0  2  0  0  0  0  0  0
  184.9090  172.3460  136.2970 C   0  0  2  0  0  3  0  0  0  0  0  0
  184.9870  175.7560  137.3600 N   0  0  0  0  0  0  0  0  0  0  0  0
  180.0080  175.3200  134.8530 C   0  0  0  0  0  2  0  0  0  0  0  0
  180.4310  172.6230  134.5110 S   0  0  0  0  0  1  0  0  0  0  0  0
  182.2610  178.4280  135.1680 C   0  0  0  0  0  1  0  0  0  0  0  0
  180.4350  176.7790  134.6390 C   0  0  0  0  0  2  0  0  0  0  0  0
  182.4470  174.5410  134.9910 C   0  0  1  0  0  3  0  0  0  0  0  0
  182.5360  176.1390  137.0990 C   0  0  1  0  0  3  0  0  0  0  0  0
  184.8480  178.0740  137.6590 O   0  0  0  0  0  0  0  0  0  0  0  0
  181.9490  177.0070  134.7320 C   0  0  2  0  0  3  0  0  0  0  0  0
  182.6890  175.9520  135.5680 C   0  0  2  0  0  3  0  0  0  0  0  0
  185.5100  177.0890  137.2290 C   0  0  0  0  0  0  0  0  0  0  0  0
  187.3740  178.6240  136.4570 C   0  0  0  0  0  2  0  0  0  0  0  0
  188.4190  178.8470  137.5340 C   0  0  0  0  0  1  0  0  0  0  0  0
  186.1570  171.8080  135.6170 C   0  0  0  0  0  2  0  0  0  0  0  0
  188.3550  171.8410  135.7840 C   0  0  0  0  0  1  0  0  0  0  0  0
  187.1940  171.6940  136.5410 O   0  0  0  0  0  0  0  0  0  0  0  0
  181.1330  175.8840  137.6690 C   0  0  1  0  0  3  0  0  0  0  0  0
  180.3670  173.5090  138.0060 C   0  0  0  0  0  1  0  0  0  0  0  0
  181.0680  174.6950  138.6400 C   0  0  2  0  0  3  0  0  0  0  0  0
  180.4260  175.0410  139.8310 O   0  0  0  0  0  1  0  0  0  0  0  0
  180.5600  177.1670  138.2570 C   0  0  0  0  0  2  0  0  0  0  0  0
  181.8090  177.9950  139.2810 S   0  0  0  0  0  1  0  0  0  0  0  0
  2 11  1  1  0  0  0
  2 10  1  0  0  0  0
  2 14  1  0  0  0  0
  4  1  1  0  0  0  0
  4  8  1  0  0  0  0
  5  9  1  0  0  0  0
  5  7  1  0  0  0  0
  6 19  1  0  0  0  0
  8 22  1  6  0  0  0
  8  7  1  0  0  0  0
  9  3  1  0  0  0  0
 13 17  1  0  0  0  0
 13 10  1  0  0  0  0
 14 18  1  0  0  0  0
 14  1  1  1  0  0  0
 15 25  1  1  0  0  0
 15  3  1  0  0  0  0
 17 12  1  1  0  0  0
 17 18  1  0  0  0  0
 18 15  1  0  0  0  0
 19  9  1  0  0  0  0
 19 16  2  0  0  0  0
 20  6  1  0  0  0  0
 20 21  1  0  0  0  0
 22 24  1  0  0  0  0
 23 24  1  0  0  0  0
 25 29  1  0  0  0  0
 25 27  1  0  0  0  0
 26 27  1  0  0  0  0
 27 28  1  0  0  0  0
 29 30  1  0  0  0  0
M  END
>  <MODEL>
6

>  <REMARK>
 VINA RESULT:      -2.7      2.837      5.295
  Name = 
  6 active torsions:
  status: ('A' for Active; 'I' for Inactive)
    1  A    between atoms: N_7  and  C_16
    2  A    between atoms: C_9  and  C_12
    3  A    between atoms: C_9  and  O_21
    4  A    between atoms: C_10  and  C_25
    5  A    between atoms: C_11  and  C_25
    6  A    between atoms: C_23  and  C_25
                            x       y       z     vdW  Elec       q    Type
                         _______ _______ _______ _____ _____    ______ ____

>  <TORSDO>
F 6

$$$$
=
 OpenBabel10272413433D

 30 31  0  0  1  0  0  0  0  0999 V2000
  185.7230  177.1520  138.6450 O   0  0  0  0  0  0  0  0  0  0  0  0
  187.0020  177.1230  136.5210 C   0  0  2  0  0  3  0  0  0  0  0  0
  182.7790  176.5690  138.2780 C   0  0  0  0  0  2  0  0  0  0  0  0
  185.8430  178.2820  139.4590 C   0  0  0  0  0  2  0  0  0  0  0  0
  182.8960  178.5820  139.8390 C   0  0  0  0  0  2  0  0  0  0  0  0
  181.0060  179.9590  138.1770 N   0  0  0  0  0  2  0  0  0  0  0  0
  183.7240  177.6330  140.7100 C   0  0  0  0  0  2  0  0  0  0  0  0
  185.1950  178.0470  140.8180 C   0  0  2  0  0  3  0  0  0  0  0  0
  182.3690  177.9300  138.6340 N   0  0  0  0  0  0  0  0  0  0  0  0
  186.5730  176.2210  135.3670 C   0  0  0  0  0  2  0  0  0  0  0  0
  188.2690  176.2920  137.5320 S   0  0  0  0  0  1  0  0  0  0  0  0
  183.3540  178.0720  134.3460 C   0  0  0  0  0  1  0  0  0  0  0  0
  185.5870  176.9140  134.4160 C   0  0  0  0  0  2  0  0  0  0  0  0
  185.8060  177.6610  137.3440 C   0  0  1  0  0  3  0  0  0  0  0  0
  183.4670  176.5020  136.9080 C   0  0  1  0  0  3  0  0  0  0  0  0
  180.8020  178.0190  136.8980 O   0  0  0  0  0  0  0  0  0  0  0  0
  184.6610  177.9250  135.1050 C   0  0  2  0  0  3  0  0  0  0  0  0
  184.4510  177.6590  136.6030 C   0  0  2  0  0  3  0  0  0  0  0  0
  181.3660  178.6090  137.8600 C   0  0  0  0  0  0  0  0  0  0  0  0
  179.9850  180.6950  137.4470 C   0  0  0  0  0  2  0  0  0  0  0  0
  180.6140  181.4550  136.2950 C   0  0  0  0  0  1  0  0  0  0  0  0
  185.3510  179.2920  141.6750 C   0  0  0  0  0  2  0  0  0  0  0  0
  186.4140  178.0410  143.1480 C   0  0  0  0  0  1  0  0  0  0  0  0
  185.3590  178.9440  143.0260 O   0  0  0  0  0  0  0  0  0  0  0  0
  183.9490  175.0940  136.5310 C   0  0  1  0  0  3  0  0  0  0  0  0
  185.3700  173.4010  137.7380 C   0  0  0  0  0  1  0  0  0  0  0  0
  184.0410  174.1320  137.7250 C   0  0  2  0  0  3  0  0  0  0  0  0
  182.9950  173.2070  137.7200 O   0  0  0  0  0  1  0  0  0  0  0  0
  183.1160  174.5390  135.3820 C   0  0  0  0  0  2  0  0  0  0  0  0
  184.1220  173.4200  134.3670 S   0  0  0  0  0  1  0  0  0  0  0  0
  1  4  1  0  0  0  0
  2 14  1  0  0  0  0
  2 11  1  1  0  0  0
  3  9  1  0  0  0  0
  4  8  1  0  0  0  0
  5  7  1  0  0  0  0
  7  8  1  0  0  0  0
  8 22  1  1  0  0  0
  9  5  1  0  0  0  0
 10  2  1  0  0  0  0
 13 17  1  0  0  0  0
 13 10  1  0  0  0  0
 14  1  1  1  0  0  0
 15 25  1  1  0  0  0
 15  3  1  0  0  0  0
 16 19  2  0  0  0  0
 17 12  1  6  0  0  0
 17 18  1  0  0  0  0
 18 15  1  0  0  0  0
 18 14  1  0  0  0  0
 19  6  1  0  0  0  0
 19  9  1  0  0  0  0
 20  6  1  0  0  0  0
 21 20  1  0  0  0  0
 22 24  1  0  0  0  0
 24 23  1  0  0  0  0
 25 27  1  0  0  0  0
 27 26  1  0  0  0  0
 28 27  1  0  0  0  0
 29 25  1  0  0  0  0
 30 29  1  0  0  0  0
M  END
>  <MODEL>
7

>  <REMARK>
 VINA RESULT:      -2.2      2.712      5.185
  Name = 
  6 active torsions:
  status: ('A' for Active; 'I' for Inactive)
    1  A    between atoms: N_7  and  C_16
    2  A    between atoms: C_9  and  C_12
    3  A    between atoms: C_9  and  O_21
    4  A    between atoms: C_10  and  C_25
    5  A    between atoms: C_11  and  C_25
    6  A    between atoms: C_23  and  C_25
                            x       y       z     vdW  Elec       q    Type
                         _______ _______ _______ _____ _____    ______ ____

>  <TORSDO>
F 6

$$$$
=
 OpenBabel10272413433D

 30 31  0  0  1  0  0  0  0  0999 V2000
  185.7790  177.5340  139.2820 O   0  0  0  0  0  0  0  0  0  0  0  0
  188.0320  178.0960  138.4110 C   0  0  2  0  0  3  0  0  0  0  0  0
  184.0440  176.0910  137.2700 C   0  0  0  0  0  2  0  0  0  0  0  0
  185.0250  178.5680  139.8430 C   0  0  0  0  0  2  0  0  0  0  0  0
  182.5600  177.8930  138.2980 C   0  0  0  0  0  2  0  0  0  0  0  0
  181.8050  178.7480  135.6660 N   0  0  0  0  0  2  0  0  0  0  0  0
  182.9060  177.1790  139.6080 C   0  0  0  0  0  2  0  0  0  0  0  0
  183.7830  178.0230  140.5380 C   0  0  2  0  0  3  0  0  0  0  0  0
  183.1190  177.2180  137.1200 N   0  0  0  0  0  0  0  0  0  0  0  0
  188.7050  177.2120  137.3650 C   0  0  0  0  0  2  0  0  0  0  0  0
  188.5740  177.6200  140.0830 S   0  0  0  0  0  1  0  0  0  0  0  0
  186.4460  178.0410  134.3580 C   0  0  0  0  0  1  0  0  0  0  0  0
  188.3700  177.6410  135.9300 C   0  0  0  0  0  2  0  0  0  0  0  0
  186.4930  178.1570  138.2510 C   0  0  1  0  0  3  0  0  0  0  0  0
  185.4110  176.3650  136.6310 C   0  0  1  0  0  3  0  0  0  0  0  0
  183.0290  176.9630  134.7950 O   0  0  0  0  0  0  0  0  0  0  0  0
  186.9690  178.2450  135.7700 C   0  0  2  0  0  3  0  0  0  0  0  0
  185.9680  177.7950  136.8450 C   0  0  2  0  0  3  0  0  0  0  0  0
  182.6660  177.6130  135.8140 C   0  0  0  0  0  0  0  0  0  0  0  0
  181.2950  179.1870  134.3750 C   0  0  0  0  0  2  0  0  0  0  0  0
  180.7150  180.5830  134.4930 C   0  0  0  0  0  1  0  0  0  0  0  0
  182.9930  179.1720  141.1400 C   0  0  0  0  0  2  0  0  0  0  0  0
  181.0680  179.1360  142.2140 C   0  0  0  0  0  1  0  0  0  0  0  0
  182.4080  178.7730  142.3410 O   0  0  0  0  0  0  0  0  0  0  0  0
  186.4160  175.2190  136.8150 C   0  0  1  0  0  3  0  0  0  0  0  0
  186.7570  172.8400  137.5670 C   0  0  0  0  0  1  0  0  0  0  0  0
  185.9000  174.0830  137.7100 C   0  0  2  0  0  3  0  0  0  0  0  0
  184.5680  173.7720  137.4260 O   0  0  0  0  0  1  0  0  0  0  0  0
  186.9160  174.7310  135.4610 C   0  0  0  0  0  2  0  0  0  0  0  0
  185.5130  174.4420  134.3460 S   0  0  0  0  0  1  0  0  0  0  0  0
  1  4  1  0  0  0  0
  2 11  1  1  0  0  0
  4  8  1  0  0  0  0
  5  7  1  0  0  0  0
  6 19  1  0  0  0  0
  7  8  1  0  0  0  0
  8 22  1  6  0  0  0
  9  3  1  0  0  0  0
  9  5  1  0  0  0  0
 10  2  1  0  0  0  0
 13 10  1  0  0  0  0
 14  2  1  0  0  0  0
 14  1  1  1  0  0  0
 15 25  1  1  0  0  0
 15 18  1  0  0  0  0
 15  3  1  0  0  0  0
 16 19  2  0  0  0  0
 17 12  1  6  0  0  0
 17 13  1  0  0  0  0
 17 18  1  0  0  0  0
 18 14  1  0  0  0  0
 19  9  1  0  0  0  0
 20 21  1  0  0  0  0
 20  6  1  0  0  0  0
 22 24  1  0  0  0  0
 23 24  1  0  0  0  0
 25 27  1  0  0  0  0
 26 27  1  0  0  0  0
 28 27  1  0  0  0  0
 29 25  1  0  0  0  0
 30 29  1  0  0  0  0
M  END
>  <MODEL>
8

>  <REMARK>
 VINA RESULT:      -2.0      2.900      5.572
  Name = 
  6 active torsions:
  status: ('A' for Active; 'I' for Inactive)
    1  A    between atoms: N_7  and  C_16
    2  A    between atoms: C_9  and  C_12
    3  A    between atoms: C_9  and  O_21
    4  A    between atoms: C_10  and  C_25
    5  A    between atoms: C_11  and  C_25
    6  A    between atoms: C_23  and  C_25
                            x       y       z     vdW  Elec       q    Type
                         _______ _______ _______ _____ _____    ______ ____

>  <TORSDO>
F 6

$$$$
=
 OpenBabel10272413433D

 30 31  0  0  1  0  0  0  0  0999 V2000
  184.5240  176.3660  137.0460 O   0  0  0  0  0  0  0  0  0  0  0  0
  184.5710  174.0400  136.1880 C   0  0  2  0  0  3  0  0  0  0  0  0
  187.2430  177.6880  137.0690 C   0  0  0  0  0  2  0  0  0  0  0  0
  183.9240  176.5870  138.2890 C   0  0  0  0  0  2  0  0  0  0  0  0
  186.1970  178.2180  139.3330 C   0  0  0  0  0  2  0  0  0  0  0  0
  188.5950  177.3270  140.6300 N   0  0  0  0  0  2  0  0  0  0  0  0
  185.0910  178.8400  138.4760 C   0  0  0  0  0  2  0  0  0  0  0  0
  183.7660  178.0780  138.5610 C   0  0  2  0  0  3  0  0  0  0  0  0
  187.3210  177.7170  138.5320 N   0  0  0  0  0  0  0  0  0  0  0  0
  185.5990  173.6160  135.1430 C   0  0  0  0  0  2  0  0  0  0  0  0
  183.0120  174.5230  135.3800 S   0  0  0  0  0  1  0  0  0  0  0  0
  188.7530  173.7260  137.3500 C   0  0  0  0  0  1  0  0  0  0  0  0
  186.8960  173.0920  135.7740 C   0  0  0  0  0  2  0  0  0  0  0  0
  185.1140  175.1030  137.1740 C   0  0  1  0  0  3  0  0  0  0  0  0
  187.3920  176.2700  136.5010 C   0  0  1  0  0  3  0  0  0  0  0  0
  189.5620  177.0410  138.5260 O   0  0  0  0  0  0  0  0  0  0  0  0
  187.2540  173.7580  137.1100 C   0  0  2  0  0  3  0  0  0  0  0  0
  186.6520  175.1600  137.2890 C   0  0  2  0  0  3  0  0  0  0  0  0
  188.5390  177.3500  139.1990 C   0  0  0  0  0  0  0  0  0  0  0  0
  189.8030  176.9840  141.3660 C   0  0  0  0  0  2  0  0  0  0  0  0
  189.4430  176.2470  142.6420 C   0  0  0  0  0  1  0  0  0  0  0  0
  183.1050  178.2780  139.9150 C   0  0  0  0  0  2  0  0  0  0  0  0
  181.1660  178.4300  140.9540 C   0  0  0  0  0  1  0  0  0  0  0  0
  181.7960  178.7270  139.7460 O   0  0  0  0  0  0  0  0  0  0  0  0
  187.2680  176.2040  134.9720 C   0  0  1  0  0  3  0  0  0  0  0  0
  187.1200  178.7180  135.0080 C   0  0  0  0  0  1  0  0  0  0  0  0
  186.6130  177.4480  134.3520 C   0  0  2  0  0  3  0  0  0  0  0  0
  185.2210  177.3930  134.4430 O   0  0  0  0  0  1  0  0  0  0  0  0
  188.6140  175.8630  134.3460 C   0  0  0  0  0  2  0  0  0  0  0  0
  189.9610  176.5080  135.3770 S   0  0  0  0  0  1  0  0  0  0  0  0
  1  4  1  0  0  0  0
  2 11  1  6  0  0  0
  2 14  1  0  0  0  0
  3  9  1  0  0  0  0
  4  8  1  0  0  0  0
  6 20  1  0  0  0  0
  7  8  1  0  0  0  0
  7  5  1  0  0  0  0
  8 22  1  1  0  0  0
  9 19  1  0  0  0  0
  9  5  1  0  0  0  0
 10 13  1  0  0  0  0
 10  2  1  0  0  0  0
 13 17  1  0  0  0  0
 14  1  1  6  0  0  0
 14 18  1  0  0  0  0
 15 25  1  6  0  0  0
 15  3  1  0  0  0  0
 15 18  1  0  0  0  0
 16 19  2  0  0  0  0
 17 18  1  0  0  0  0
 17 12  1  6  0  0  0
 19  6  1  0  0  0  0
 20 21  1  0  0  0  0
 24 22  1  0  0  0  0
 24 23  1  0  0  0  0
 27 28  1  0  0  0  0
 27 25  1  0  0  0  0
 27 26  1  0  0  0  0
 29 25  1  0  0  0  0
 29 30  1  0  0  0  0
M  END
>  <MODEL>
9

>  <REMARK>
 VINA RESULT:      -1.7      3.004      4.785
  Name = 
  6 active torsions:
  status: ('A' for Active; 'I' for Inactive)
    1  A    between atoms: N_7  and  C_16
    2  A    between atoms: C_9  and  C_12
    3  A    between atoms: C_9  and  O_21
    4  A    between atoms: C_10  and  C_25
    5  A    between atoms: C_11  and  C_25
    6  A    between atoms: C_23  and  C_25
                            x       y       z     vdW  Elec       q    Type
                         _______ _______ _______ _____ _____    ______ ____

>  <TORSDO>
F 6

$$$$
