=
 OpenBabel10272400473D

 25 28  0  0  1  0  0  0  0  0999 V2000
  187.4130  177.8850  145.5850 C   0  0  0  0  0  0  0  0  0  0  0  0
  188.7560  177.5310  145.3330 C   0  0  0  0  0  0  0  0  0  0  0  0
  187.8240  177.9180  147.9920 C   0  0  0  0  0  3  0  0  0  0  0  0
  186.3730  178.0930  144.6590 C   0  0  0  0  0  0  0  0  0  0  0  0
  184.1050  178.5810  143.1610 N   0  0  0  0  0  0  0  0  0  0  0  0
  189.1570  177.5670  147.7510 C   0  0  0  0  0  3  0  0  0  0  0  0
  185.1700  178.4320  145.2680 C   0  0  0  0  0  0  0  0  0  0  0  0
  184.0260  178.6780  144.5180 C   0  0  0  0  0  3  0  0  0  0  0  0
  191.0290  177.0210  146.1900 C   0  0  0  0  0  0  0  0  0  0  0  0
  191.8270  176.8440  147.1480 O   0  0  0  0  0  0  0  0  0  0  0  0
  189.2500  177.2890  143.9290 C   0  0  0  0  0  2  0  0  0  0  0  0
  185.2710  178.2510  142.5280 C   0  0  0  0  0  3  0  0  0  0  0  0
  186.9780  178.0700  146.8990 C   0  0  0  0  0  0  0  0  0  0  0  0
  185.3430  178.4850  146.9410 S   0  0  0  0  0  0  0  0  0  0  0  0
  191.5010  176.8900  144.8480 N   0  0  0  0  0  0  0  0  0  0  0  0
  186.4380  177.9980  143.2650 C   0  0  0  0  0  3  0  0  0  0  0  0
  190.7300  177.0270  143.8100 C   0  0  0  0  0  0  0  0  0  0  0  0
  189.6250  177.3740  146.4370 C   0  0  0  0  0  0  0  0  0  0  0  0
  191.4330  176.8450  142.1780 S   0  0  0  0  0  0  0  0  0  0  0  0
  189.8410  177.2010  141.3720 C   0  0  0  0  0  2  0  0  0  0  0  0
  190.0630  177.6550  139.9390 C   0  0  1  0  0  3  0  0  0  0  0  0
  190.3460  176.4630  139.0400 C   0  0  0  0  0  1  0  0  0  0  0  0
  188.8710  178.4030  139.4430 C   0  0  0  0  0  0  0  0  0  0  0  0
  188.9940  179.2330  138.3370 O   0  0  0  0  0  0  0  0  0  0  0  0
  187.7550  178.2890  140.0170 O   0  0  0  0  0  1  0  0  0  0  0  0
  1 13  1  0  0  0  0
  2  1  2  0  0  0  0
  2 18  1  0  0  0  0
  4  7  1  0  0  0  0
  4  1  1  0  0  0  0
  5  8  1  0  0  0  0
  6  3  1  0  0  0  0
  7 14  1  0  0  0  0
  8  7  2  0  0  0  0
  9 18  1  0  0  0  0
  9 10  2  0  0  0  0
 11  2  1  0  0  0  0
 12  5  2  0  0  0  0
 12 16  1  0  0  0  0
 13 14  1  0  0  0  0
 13  3  2  0  0  0  0
 15  9  1  0  0  0  0
 16  4  2  0  0  0  0
 17 11  1  0  0  0  0
 17 15  2  0  0  0  0
 18  6  2  0  0  0  0
 19 17  1  0  0  0  0
 20 19  1  0  0  0  0
 21 22  1  6  0  0  0
 21 20  1  0  0  0  0
 23 21  1  0  0  0  0
 23 25  1  0  0  0  0
 24 23  2  0  0  0  0
M  END
>  <MODEL>
1

>  <REMARK>
 VINA RESULT:      -9.9      0.000      0.000
  Name = 
  4 active torsions:
  status: ('A' for Active; 'I' for Inactive)
    1  A    between atoms: C_2  and  C_21
    2  A    between atoms: S_6  and  C_15
    3  A    between atoms: S_6  and  C_23
    4  A    between atoms: C_15  and  C_21
                            x       y       z     vdW  Elec       q    Type
                         _______ _______ _______ _____ _____    ______ ____

>  <TORSDO>
F 4

$$$$
=
 OpenBabel10272400473D

 25 28  0  0  1  0  0  0  0  0999 V2000
  187.0020  177.8620  144.7170 C   0  0  0  0  0  0  0  0  0  0  0  0
  188.2340  177.4790  144.1460 C   0  0  0  0  0  0  0  0  0  0  0  0
  187.9360  177.6860  146.9650 C   0  0  0  0  0  3  0  0  0  0  0  0
  185.7950  178.1850  144.0650 C   0  0  0  0  0  0  0  0  0  0  0  0
  183.2830  178.8780  143.1530 N   0  0  0  0  0  0  0  0  0  0  0  0
  189.1610  177.3050  146.4070 C   0  0  0  0  0  3  0  0  0  0  0  0
  184.7780  178.5180  144.9510 C   0  0  0  0  0  0  0  0  0  0  0  0
  183.5120  178.8680  144.4970 C   0  0  0  0  0  3  0  0  0  0  0  0
  190.6080  176.8150  144.4310 C   0  0  0  0  0  0  0  0  0  0  0  0
  191.5880  176.5320  145.1710 O   0  0  0  0  0  0  0  0  0  0  0  0
  188.3900  177.3320  142.6520 C   0  0  0  0  0  2  0  0  0  0  0  0
  184.2600  178.5560  142.2530 C   0  0  0  0  0  3  0  0  0  0  0  0
  186.8790  177.9580  146.1050 C   0  0  0  0  0  0  0  0  0  0  0  0
  185.3200  178.4300  146.5420 S   0  0  0  0  0  0  0  0  0  0  0  0
  190.7640  176.7750  143.0110 N   0  0  0  0  0  0  0  0  0  0  0  0
  185.5460  178.2000  142.6890 C   0  0  0  0  0  3  0  0  0  0  0  0
  189.7910  177.0240  142.1850 C   0  0  0  0  0  0  0  0  0  0  0  0
  189.3160  177.2000  145.0110 C   0  0  0  0  0  0  0  0  0  0  0  0
  190.1040  176.9480  140.4290 S   0  0  0  0  0  0  0  0  0  0  0  0
  188.7080  178.0530  140.0570 C   0  0  0  0  0  2  0  0  0  0  0  0
  188.1370  177.7410  138.6830 C   0  0  1  0  0  3  0  0  0  0  0  0
  186.6720  178.1330  138.6140 C   0  0  0  0  0  1  0  0  0  0  0  0
  188.9130  178.4560  137.6270 C   0  0  0  0  0  0  0  0  0  0  0  0
  189.5740  177.7250  136.6490 O   0  0  0  0  0  0  0  0  0  0  0  0
  188.9730  179.7150  137.6130 O   0  0  0  0  0  1  0  0  0  0  0  0
  1 13  1  0  0  0  0
  2  1  2  0  0  0  0
  2 18  1  0  0  0  0
  4  1  1  0  0  0  0
  4  7  1  0  0  0  0
  5  8  1  0  0  0  0
  6  3  1  0  0  0  0
  7 14  1  0  0  0  0
  8  7  2  0  0  0  0
  9 18  1  0  0  0  0
  9 10  2  0  0  0  0
 11  2  1  0  0  0  0
 12 16  1  0  0  0  0
 12  5  2  0  0  0  0
 13 14  1  0  0  0  0
 13  3  2  0  0  0  0
 15  9  1  0  0  0  0
 16  4  2  0  0  0  0
 17 11  1  0  0  0  0
 17 15  2  0  0  0  0
 18  6  2  0  0  0  0
 19 17  1  0  0  0  0
 20 19  1  0  0  0  0
 21 22  1  1  0  0  0
 21 20  1  0  0  0  0
 23 21  1  0  0  0  0
 24 23  2  0  0  0  0
 25 23  1  0  0  0  0
M  END
>  <MODEL>
2

>  <REMARK>
 VINA RESULT:      -9.4      1.346      1.773
  Name = 
  4 active torsions:
  status: ('A' for Active; 'I' for Inactive)
    1  A    between atoms: C_2  and  C_21
    2  A    between atoms: S_6  and  C_15
    3  A    between atoms: S_6  and  C_23
    4  A    between atoms: C_15  and  C_21
                            x       y       z     vdW  Elec       q    Type
                         _______ _______ _______ _____ _____    ______ ____

>  <TORSDO>
F 4

$$$$
=
 OpenBabel10272400473D

 25 28  0  0  1  0  0  0  0  0999 V2000
  187.9900  177.6760  145.4770 C   0  0  0  0  0  0  0  0  0  0  0  0
  187.3610  177.9890  144.2530 C   0  0  0  0  0  0  0  0  0  0  0  0
  185.9200  178.0990  146.7010 C   0  0  0  0  0  3  0  0  0  0  0  0
  189.3250  177.2880  145.7020 C   0  0  0  0  0  0  0  0  0  0  0  0
  191.8400  176.5060  146.5310 N   0  0  0  0  0  0  0  0  0  0  0  0
  185.2900  178.4110  145.4920 C   0  0  0  0  0  3  0  0  0  0  0  0
  189.5980  177.0590  147.0460 C   0  0  0  0  0  0  0  0  0  0  0  0
  190.8630  176.6660  147.4680 C   0  0  0  0  0  3  0  0  0  0  0  0
  185.3250  178.6710  143.0080 C   0  0  0  0  0  0  0  0  0  0  0  0
  184.1180  179.0320  142.9910 O   0  0  0  0  0  0  0  0  0  0  0  0
  188.1270  177.9670  142.9530 C   0  0  0  0  0  2  0  0  0  0  0  0
  191.6070  176.7220  145.2010 C   0  0  0  0  0  3  0  0  0  0  0  0
  187.2620  177.7370  146.6670 C   0  0  0  0  0  0  0  0  0  0  0  0
  188.2280  177.3230  147.9870 S   0  0  0  0  0  0  0  0  0  0  0  0
  186.0410  178.5520  141.7780 N   0  0  0  0  0  0  0  0  0  0  0  0
  190.3380  177.1200  144.7530 C   0  0  0  0  0  3  0  0  0  0  0  0
  187.2960  178.2160  141.7190 C   0  0  0  0  0  0  0  0  0  0  0  0
  185.9970  178.3580  144.2760 C   0  0  0  0  0  0  0  0  0  0  0  0
  188.0870  178.0950  140.1230 S   0  0  0  0  0  0  0  0  0  0  0  0
  189.3580  176.9580  140.7560 C   0  0  0  0  0  2  0  0  0  0  0  0
  190.7360  177.3860  140.2800 C   0  0  1  0  0  3  0  0  0  0  0  0
  191.7390  177.3110  141.4180 C   0  0  0  0  0  1  0  0  0  0  0  0
  191.1810  176.5260  139.1440 C   0  0  0  0  0  0  0  0  0  0  0  0
  192.3780  176.8080  138.4990 O   0  0  0  0  0  0  0  0  0  0  0  0
  190.4820  175.5490  138.7640 O   0  0  0  0  0  1  0  0  0  0  0  0
  1  4  1  0  0  0  0
  1 13  2  0  0  0  0
  2 18  2  0  0  0  0
  2  1  1  0  0  0  0
  4  7  1  0  0  0  0
  5  8  1  0  0  0  0
  6  3  2  0  0  0  0
  7  8  2  0  0  0  0
  7 14  1  0  0  0  0
  9 18  1  0  0  0  0
 10  9  2  0  0  0  0
 11  2  1  0  0  0  0
 12  5  2  0  0  0  0
 13  3  1  0  0  0  0
 13 14  1  0  0  0  0
 15  9  1  0  0  0  0
 16 12  1  0  0  0  0
 16  4  2  0  0  0  0
 17 15  2  0  0  0  0
 17 11  1  0  0  0  0
 18  6  1  0  0  0  0
 19 20  1  0  0  0  0
 19 17  1  0  0  0  0
 21 20  1  0  0  0  0
 21 22  1  1  0  0  0
 23 21  1  0  0  0  0
 24 23  2  0  0  0  0
 25 23  1  0  0  0  0
M  END
>  <MODEL>
3

>  <REMARK>
 VINA RESULT:      -9.4      2.551      4.716
  Name = 
  4 active torsions:
  status: ('A' for Active; 'I' for Inactive)
    1  A    between atoms: C_2  and  C_21
    2  A    between atoms: S_6  and  C_15
    3  A    between atoms: S_6  and  C_23
    4  A    between atoms: C_15  and  C_21
                            x       y       z     vdW  Elec       q    Type
                         _______ _______ _______ _____ _____    ______ ____

>  <TORSDO>
F 4

$$$$
=
 OpenBabel10272400473D

 25 28  0  0  1  0  0  0  0  0999 V2000
  189.4320  177.3430  144.3700 C   0  0  0  0  0  0  0  0  0  0  0  0
  188.4700  177.6490  145.3550 C   0  0  0  0  0  0  0  0  0  0  0  0
  191.0710  176.7640  146.0840 C   0  0  0  0  0  3  0  0  0  0  0  0
  189.3040  177.4120  142.9690 C   0  0  0  0  0  0  0  0  0  0  0  0
  189.4320  177.4170  140.2110 N   0  0  0  0  0  0  0  0  0  0  0  0
  190.1230  177.0640  147.0670 C   0  0  0  0  0  3  0  0  0  0  0  0
  190.4660  177.0350  142.3040 C   0  0  0  0  0  0  0  0  0  0  0  0
  190.5350  177.0360  140.9160 C   0  0  0  0  0  3  0  0  0  0  0  0
  187.8370  177.8020  147.7500 C   0  0  0  0  0  0  0  0  0  0  0  0
  188.1320  177.7120  148.9720 O   0  0  0  0  0  0  0  0  0  0  0  0
  187.0980  178.1520  144.9790 C   0  0  0  0  0  2  0  0  0  0  0  0
  188.2740  177.7940  140.8300 C   0  0  0  0  0  3  0  0  0  0  0  0
  190.7040  176.9100  144.7510 C   0  0  0  0  0  0  0  0  0  0  0  0
  191.6700  176.6110  143.4010 S   0  0  0  0  0  0  0  0  0  0  0  0
  186.5140  178.1860  147.3720 N   0  0  0  0  0  0  0  0  0  0  0  0
  188.1820  177.8000  142.2310 C   0  0  0  0  0  3  0  0  0  0  0  0
  186.1450  178.3300  146.1340 C   0  0  0  0  0  0  0  0  0  0  0  0
  188.8330  177.5030  146.7140 C   0  0  0  0  0  0  0  0  0  0  0  0
  184.4620  178.8100  145.7810 S   0  0  0  0  0  0  0  0  0  0  0  0
  184.8610  179.2170  144.0530 C   0  0  0  0  0  2  0  0  0  0  0  0
  183.9150  178.4980  143.1070 C   0  0  1  0  0  3  0  0  0  0  0  0
  182.4960  179.0120  143.2780 C   0  0  0  0  0  1  0  0  0  0  0  0
  184.3620  178.6780  141.6930 C   0  0  0  0  0  0  0  0  0  0  0  0
  183.8190  177.8800  140.6960 O   0  0  0  0  0  0  0  0  0  0  0  0
  185.2250  179.5470  141.3970 O   0  0  0  0  0  1  0  0  0  0  0  0
  1 13  1  0  0  0  0
  1  2  2  0  0  0  0
  2 18  1  0  0  0  0
  3  6  1  0  0  0  0
  4  1  1  0  0  0  0
  5 12  2  0  0  0  0
  5  8  1  0  0  0  0
  7  4  1  0  0  0  0
  7 14  1  0  0  0  0
  8  7  2  0  0  0  0
  9 10  2  0  0  0  0
 11  2  1  0  0  0  0
 11 17  1  0  0  0  0
 12 16  1  0  0  0  0
 13  3  2  0  0  0  0
 14 13  1  0  0  0  0
 15  9  1  0  0  0  0
 16  4  2  0  0  0  0
 17 15  2  0  0  0  0
 18  6  2  0  0  0  0
 18  9  1  0  0  0  0
 19 17  1  0  0  0  0
 20 19  1  0  0  0  0
 21 22  1  6  0  0  0
 21 20  1  0  0  0  0
 23 21  1  0  0  0  0
 24 23  2  0  0  0  0
 25 23  1  0  0  0  0
M  END
>  <MODEL>
4

>  <REMARK>
 VINA RESULT:      -9.4      2.258      5.166
  Name = 
  4 active torsions:
  status: ('A' for Active; 'I' for Inactive)
    1  A    between atoms: C_2  and  C_21
    2  A    between atoms: S_6  and  C_15
    3  A    between atoms: S_6  and  C_23
    4  A    between atoms: C_15  and  C_21
                            x       y       z     vdW  Elec       q    Type
                         _______ _______ _______ _____ _____    ______ ____

>  <TORSDO>
F 4

$$$$
=
 OpenBabel10272400473D

 25 28  0  0  1  0  0  0  0  0999 V2000
  186.2480  178.3230  142.6950 C   0  0  0  0  0  0  0  0  0  0  0  0
  186.4500  178.1380  144.0790 C   0  0  0  0  0  0  0  0  0  0  0  0
  183.9310  178.9940  143.0760 C   0  0  0  0  0  3  0  0  0  0  0  0
  187.1650  178.1370  141.6420 C   0  0  0  0  0  0  0  0  0  0  0  0
  188.6640  177.8860  139.3370 N   0  0  0  0  0  0  0  0  0  0  0  0
  184.1240  178.8130  144.4490 C   0  0  0  0  0  3  0  0  0  0  0  0
  186.6160  178.4140  140.3950 C   0  0  0  0  0  0  0  0  0  0  0  0
  187.3670  178.2890  139.2320 C   0  0  0  0  0  3  0  0  0  0  0  0
  185.5680  178.2160  146.3970 C   0  0  0  0  0  0  0  0  0  0  0  0
  184.6200  178.4020  147.2060 O   0  0  0  0  0  0  0  0  0  0  0  0
  187.7730  177.6510  144.6170 C   0  0  0  0  0  2  0  0  0  0  0  0
  189.2380  177.6050  140.5460 C   0  0  0  0  0  3  0  0  0  0  0  0
  185.0020  178.7450  142.2250 C   0  0  0  0  0  0  0  0  0  0  0  0
  185.0090  178.8910  140.5440 S   0  0  0  0  0  0  0  0  0  0  0  0
  186.8560  177.8460  146.8950 N   0  0  0  0  0  0  0  0  0  0  0  0
  188.4970  177.7240  141.7330 C   0  0  0  0  0  3  0  0  0  0  0  0
  187.8720  177.6070  146.1210 C   0  0  0  0  0  0  0  0  0  0  0  0
  185.3680  178.3890  144.9530 C   0  0  0  0  0  0  0  0  0  0  0  0
  189.4350  177.1560  146.8570 S   0  0  0  0  0  0  0  0  0  0  0  0
  190.3450  177.5120  145.3220 C   0  0  0  0  0  2  0  0  0  0  0  0
  191.6490  176.7330  145.2860 C   0  0  1  0  0  3  0  0  0  0  0  0
  191.9180  176.0810  146.6320 C   0  0  0  0  0  1  0  0  0  0  0  0
  191.6040  175.6980  144.2110 C   0  0  0  0  0  0  0  0  0  0  0  0
  192.3530  174.5370  144.3470 O   0  0  0  0  0  1  0  0  0  0  0  0
  190.8940  175.8680  143.1840 O   0  0  0  0  0  0  0  0  0  0  0  0
  1  2  2  0  0  0  0
  2 11  1  0  0  0  0
  2 18  1  0  0  0  0
  3  6  1  0  0  0  0
  4 16  1  0  0  0  0
  4  1  1  0  0  0  0
  5 12  1  0  0  0  0
  6 18  2  0  0  0  0
  7 14  1  0  0  0  0
  7  4  2  0  0  0  0
  8  5  2  0  0  0  0
  8  7  1  0  0  0  0
  9 15  1  0  0  0  0
  9 10  2  0  0  0  0
 11 17  1  0  0  0  0
 12 16  2  0  0  0  0
 13  1  1  0  0  0  0
 13  3  2  0  0  0  0
 14 13  1  0  0  0  0
 17 19  1  0  0  0  0
 17 15  2  0  0  0  0
 18  9  1  0  0  0  0
 20 19  1  0  0  0  0
 21 20  1  0  0  0  0
 21 22  1  1  0  0  0
 23 24  1  0  0  0  0
 23 21  1  0  0  0  0
 25 23  2  0  0  0  0
M  END
>  <MODEL>
5

>  <REMARK>
 VINA RESULT:      -9.3      3.045      5.357
  Name = 
  4 active torsions:
  status: ('A' for Active; 'I' for Inactive)
    1  A    between atoms: C_2  and  C_21
    2  A    between atoms: S_6  and  C_15
    3  A    between atoms: S_6  and  C_23
    4  A    between atoms: C_15  and  C_21
                            x       y       z     vdW  Elec       q    Type
                         _______ _______ _______ _____ _____    ______ ____

>  <TORSDO>
F 4

$$$$
=
 OpenBabel10272400473D

 25 28  0  0  1  0  0  0  0  0999 V2000
  186.1850  178.3710  144.3980 C   0  0  0  0  0  0  0  0  0  0  0  0
  187.1660  178.0660  145.3650 C   0  0  0  0  0  0  0  0  0  0  0  0
  184.4800  178.5970  146.1310 C   0  0  0  0  0  3  0  0  0  0  0  0
  186.3310  178.4620  143.0000 C   0  0  0  0  0  0  0  0  0  0  0  0
  186.2270  178.7300  140.2540 N   0  0  0  0  0  0  0  0  0  0  0  0
  185.4470  178.2950  147.0960 C   0  0  0  0  0  3  0  0  0  0  0  0
  185.1420  178.7840  142.3560 C   0  0  0  0  0  0  0  0  0  0  0  0
  185.0850  178.9200  140.9740 C   0  0  0  0  0  3  0  0  0  0  0  0
  187.7920  177.7300  147.7430 C   0  0  0  0  0  0  0  0  0  0  0  0
  187.4790  177.6620  148.9620 O   0  0  0  0  0  0  0  0  0  0  0  0
  188.5860  177.7480  144.9650 C   0  0  0  0  0  2  0  0  0  0  0  0
  187.4130  178.4130  140.8540 C   0  0  0  0  0  3  0  0  0  0  0  0
  184.8720  178.6290  144.7970 C   0  0  0  0  0  0  0  0  0  0  0  0
  183.8910  178.9660  143.4670 S   0  0  0  0  0  0  0  0  0  0  0  0
  189.1510  177.5260  147.3530 N   0  0  0  0  0  0  0  0  0  0  0  0
  187.4940  178.2710  142.2480 C   0  0  0  0  0  3  0  0  0  0  0  0
  189.5430  177.5500  146.1140 C   0  0  0  0  0  0  0  0  0  0  0  0
  186.7790  178.0310  146.7240 C   0  0  0  0  0  0  0  0  0  0  0  0
  191.2700  177.2860  145.7450 S   0  0  0  0  0  0  0  0  0  0  0  0
  191.0580  177.8120  144.0170 C   0  0  0  0  0  2  0  0  0  0  0  0
  191.6960  176.8060  143.0740 C   0  0  1  0  0  3  0  0  0  0  0  0
  191.6110  175.4040  143.6540 C   0  0  0  0  0  1  0  0  0  0  0  0
  191.0310  176.8530  141.7390 C   0  0  0  0  0  0  0  0  0  0  0  0
  191.5540  177.6640  140.7410 O   0  0  0  0  0  0  0  0  0  0  0  0
  190.0010  176.1640  141.5090 O   0  0  0  0  0  1  0  0  0  0  0  0
  1 13  1  0  0  0  0
  1  2  2  0  0  0  0
  2 18  1  0  0  0  0
  3  6  1  0  0  0  0
  4  1  1  0  0  0  0
  5 12  2  0  0  0  0
  5  8  1  0  0  0  0
  7  4  1  0  0  0  0
  7 14  1  0  0  0  0
  8  7  2  0  0  0  0
  9 10  2  0  0  0  0
 11  2  1  0  0  0  0
 11 17  1  0  0  0  0
 12 16  1  0  0  0  0
 13  3  2  0  0  0  0
 14 13  1  0  0  0  0
 15  9  1  0  0  0  0
 16  4  2  0  0  0  0
 17 15  2  0  0  0  0
 18  6  2  0  0  0  0
 18  9  1  0  0  0  0
 19 17  1  0  0  0  0
 20 19  1  0  0  0  0
 21 22  1  1  0  0  0
 21 20  1  0  0  0  0
 23 21  1  0  0  0  0
 24 23  2  0  0  0  0
 25 23  1  0  0  0  0
M  END
>  <MODEL>
6

>  <REMARK>
 VINA RESULT:      -9.1      2.280      3.292
  Name = 
  4 active torsions:
  status: ('A' for Active; 'I' for Inactive)
    1  A    between atoms: C_2  and  C_21
    2  A    between atoms: S_6  and  C_15
    3  A    between atoms: S_6  and  C_23
    4  A    between atoms: C_15  and  C_21
                            x       y       z     vdW  Elec       q    Type
                         _______ _______ _______ _____ _____    ______ ____

>  <TORSDO>
F 4

$$$$
=
 OpenBabel10272400473D

 25 28  0  0  1  0  0  0  0  0999 V2000
  187.4880  177.8740  145.7060 C   0  0  0  0  0  0  0  0  0  0  0  0
  186.6070  178.1910  144.6510 C   0  0  0  0  0  0  0  0  0  0  0  0
  185.7110  178.1960  147.3490 C   0  0  0  0  0  3  0  0  0  0  0  0
  188.8510  177.5270  145.6360 C   0  0  0  0  0  0  0  0  0  0  0  0
  191.5060  176.8160  145.8970 N   0  0  0  0  0  0  0  0  0  0  0  0
  184.8310  178.5120  146.3090 C   0  0  0  0  0  3  0  0  0  0  0  0
  189.4080  177.2780  146.8850 C   0  0  0  0  0  0  0  0  0  0  0  0
  190.7440  176.9200  147.0210 C   0  0  0  0  0  3  0  0  0  0  0  0
  184.3350  178.8300  143.8810 C   0  0  0  0  0  0  0  0  0  0  0  0
  183.1420  179.1480  144.1280 O   0  0  0  0  0  0  0  0  0  0  0  0
  187.0830  178.2260  143.2200 C   0  0  0  0  0  2  0  0  0  0  0  0
  190.9930  177.0530  144.6520 C   0  0  0  0  0  3  0  0  0  0  0  0
  187.0250  177.8820  147.0240 C   0  0  0  0  0  0  0  0  0  0  0  0
  188.2590  177.4720  148.1000 S   0  0  0  0  0  0  0  0  0  0  0  0
  184.7810  178.7630  142.5250 N   0  0  0  0  0  0  0  0  0  0  0  0
  189.6470  177.4160  144.4920 C   0  0  0  0  0  3  0  0  0  0  0  0
  186.0040  178.4730  142.1950 C   0  0  0  0  0  0  0  0  0  0  0  0
  185.2680  178.5120  144.9700 C   0  0  0  0  0  0  0  0  0  0  0  0
  186.4450  178.4150  140.4660 S   0  0  0  0  0  0  0  0  0  0  0  0
  188.2250  178.4190  140.8430 C   0  0  0  0  0  2  0  0  0  0  0  0
  188.9920  177.6440  139.7850 C   0  0  1  0  0  3  0  0  0  0  0  0
  189.2840  178.5270  138.5840 C   0  0  0  0  0  1  0  0  0  0  0  0
  190.2650  177.1120  140.3550 C   0  0  0  0  0  0  0  0  0  0  0  0
  190.2190  176.1380  141.3430 O   0  0  0  0  0  1  0  0  0  0  0  0
  191.3800  177.5380  139.9490 O   0  0  0  0  0  0  0  0  0  0  0  0
  1 13  2  0  0  0  0
  2 18  2  0  0  0  0
  2  1  1  0  0  0  0
  4  1  1  0  0  0  0
  4  7  1  0  0  0  0
  5  8  1  0  0  0  0
  6  3  2  0  0  0  0
  7  8  2  0  0  0  0
  7 14  1  0  0  0  0
  9 10  2  0  0  0  0
  9 18  1  0  0  0  0
 11  2  1  0  0  0  0
 12  5  2  0  0  0  0
 13  3  1  0  0  0  0
 13 14  1  0  0  0  0
 15  9  1  0  0  0  0
 16 12  1  0  0  0  0
 16  4  2  0  0  0  0
 17 15  2  0  0  0  0
 17 11  1  0  0  0  0
 18  6  1  0  0  0  0
 19 20  1  0  0  0  0
 19 17  1  0  0  0  0
 21 22  1  6  0  0  0
 21 23  1  0  0  0  0
 21 20  1  0  0  0  0
 23 24  1  0  0  0  0
 25 23  2  0  0  0  0
M  END
>  <MODEL>
7

>  <REMARK>
 VINA RESULT:      -9.1      2.169      4.799
  Name = 
  4 active torsions:
  status: ('A' for Active; 'I' for Inactive)
    1  A    between atoms: C_2  and  C_21
    2  A    between atoms: S_6  and  C_15
    3  A    between atoms: S_6  and  C_23
    4  A    between atoms: C_15  and  C_21
                            x       y       z     vdW  Elec       q    Type
                         _______ _______ _______ _____ _____    ______ ____

>  <TORSDO>
F 4

$$$$
=
 OpenBabel10272400473D

 25 28  0  0  1  0  0  0  0  0999 V2000
  186.1320  178.3290  144.4560 C   0  0  0  0  0  0  0  0  0  0  0  0
  186.1330  178.4880  143.0540 C   0  0  0  0  0  0  0  0  0  0  0  0
  183.7820  178.9800  144.5750 C   0  0  0  0  0  3  0  0  0  0  0  0
  187.1930  177.9350  145.2940 C   0  0  0  0  0  0  0  0  0  0  0  0
  189.0110  177.1990  147.2380 N   0  0  0  0  0  0  0  0  0  0  0  0
  183.7740  179.1400  143.1860 C   0  0  0  0  0  3  0  0  0  0  0  0
  186.8290  177.8860  146.6350 C   0  0  0  0  0  0  0  0  0  0  0  0
  187.7410  177.5160  147.6170 C   0  0  0  0  0  3  0  0  0  0  0  0
  184.9160  179.0540  140.9660 C   0  0  0  0  0  0  0  0  0  0  0  0
  183.8760  179.4450  140.3730 O   0  0  0  0  0  0  0  0  0  0  0  0
  187.3850  178.2640  142.2430 C   0  0  0  0  0  2  0  0  0  0  0  0
  189.4050  177.2360  145.9290 C   0  0  0  0  0  3  0  0  0  0  0  0
  184.9650  178.5750  145.1830 C   0  0  0  0  0  0  0  0  0  0  0  0
  185.2150  178.3180  146.8310 S   0  0  0  0  0  0  0  0  0  0  0  0
  186.0850  178.7440  140.2060 N   0  0  0  0  0  0  0  0  0  0  0  0
  188.5000  177.6070  144.9210 C   0  0  0  0  0  3  0  0  0  0  0  0
  187.2040  178.3650  140.7490 C   0  0  0  0  0  0  0  0  0  0  0  0
  184.9350  178.8990  142.4260 C   0  0  0  0  0  0  0  0  0  0  0  0
  188.5990  178.0000  139.6970 S   0  0  0  0  0  0  0  0  0  0  0  0
  189.7700  178.1080  141.0860 C   0  0  0  0  0  2  0  0  0  0  0  0
  190.7610  176.9580  141.0330 C   0  0  1  0  0  3  0  0  0  0  0  0
  192.0830  177.4190  140.4430 C   0  0  0  0  0  1  0  0  0  0  0  0
  190.9750  176.3960  142.4000 C   0  0  0  0  0  0  0  0  0  0  0  0
  190.1970  175.3310  142.8320 O   0  0  0  0  0  0  0  0  0  0  0  0
  191.8540  176.8790  143.1630 O   0  0  0  0  0  1  0  0  0  0  0  0
  1 13  2  0  0  0  0
  1  4  1  0  0  0  0
  2  1  1  0  0  0  0
  3 13  1  0  0  0  0
  4  7  1  0  0  0  0
  5  8  1  0  0  0  0
  6  3  2  0  0  0  0
  7 14  1  0  0  0  0
  7  8  2  0  0  0  0
  9 18  1  0  0  0  0
 10  9  2  0  0  0  0
 11  2  1  0  0  0  0
 12  5  2  0  0  0  0
 13 14  1  0  0  0  0
 15 17  2  0  0  0  0
 15  9  1  0  0  0  0
 16  4  2  0  0  0  0
 16 12  1  0  0  0  0
 17 11  1  0  0  0  0
 18  2  2  0  0  0  0
 18  6  1  0  0  0  0
 19 17  1  0  0  0  0
 19 20  1  0  0  0  0
 21 22  1  1  0  0  0
 21 20  1  0  0  0  0
 21 23  1  0  0  0  0
 23 24  2  0  0  0  0
 23 25  1  0  0  0  0
M  END
>  <MODEL>
8

>  <REMARK>
 VINA RESULT:      -9.0      2.235      5.030
  Name = 
  4 active torsions:
  status: ('A' for Active; 'I' for Inactive)
    1  A    between atoms: C_2  and  C_21
    2  A    between atoms: S_6  and  C_15
    3  A    between atoms: S_6  and  C_23
    4  A    between atoms: C_15  and  C_21
                            x       y       z     vdW  Elec       q    Type
                         _______ _______ _______ _____ _____    ______ ____

>  <TORSDO>
F 4

$$$$
=
 OpenBabel10272400473D

 25 28  0  0  1  0  0  0  0  0999 V2000
  186.9240  177.9020  144.6160 C   0  0  0  0  0  0  0  0  0  0  0  0
  188.0400  177.5390  143.8330 C   0  0  0  0  0  0  0  0  0  0  0  0
  188.2060  177.5900  146.6700 C   0  0  0  0  0  3  0  0  0  0  0  0
  185.6350  178.2720  144.1870 C   0  0  0  0  0  0  0  0  0  0  0  0
  183.0220  179.0400  143.7340 N   0  0  0  0  0  0  0  0  0  0  0  0
  189.3170  177.2290  145.9010 C   0  0  0  0  0  3  0  0  0  0  0  0
  184.7800  178.5660  145.2430 C   0  0  0  0  0  0  0  0  0  0  0  0
  183.4640  178.9530  145.0200 C   0  0  0  0  0  3  0  0  0  0  0  0
  190.4160  176.8360  143.6930 C   0  0  0  0  0  0  0  0  0  0  0  0
  191.4970  176.5020  144.2480 O   0  0  0  0  0  0  0  0  0  0  0  0
  187.9510  177.4740  142.3280 C   0  0  0  0  0  2  0  0  0  0  0  0
  183.8330  178.7590  142.6710 C   0  0  0  0  0  3  0  0  0  0  0  0
  187.0290  177.9210  146.0090 C   0  0  0  0  0  0  0  0  0  0  0  0
  185.5700  178.3830  146.7180 S   0  0  0  0  0  0  0  0  0  0  0  0
  190.3400  176.8750  142.2670 N   0  0  0  0  0  0  0  0  0  0  0  0
  185.1660  178.3670  142.8730 C   0  0  0  0  0  3  0  0  0  0  0  0
  189.2510  177.1790  141.6240 C   0  0  0  0  0  0  0  0  0  0  0  0
  189.2420  177.2010  144.4950 C   0  0  0  0  0  0  0  0  0  0  0  0
  189.2750  177.1980  139.8390 S   0  0  0  0  0  0  0  0  0  0  0  0
  191.0880  177.0550  139.7870 C   0  0  0  0  0  2  0  0  0  0  0  0
  191.5250  176.3150  138.5340 C   0  0  1  0  0  3  0  0  0  0  0  0
  190.6920  176.7490  137.3410 C   0  0  0  0  0  1  0  0  0  0  0  0
  192.9740  176.5590  138.2690 C   0  0  0  0  0  0  0  0  0  0  0  0
  193.7720  177.1010  139.2670 O   0  0  0  0  0  1  0  0  0  0  0  0
  193.4790  176.2790  137.1480 O   0  0  0  0  0  0  0  0  0  0  0  0
  1 13  2  0  0  0  0
  2 18  2  0  0  0  0
  2  1  1  0  0  0  0
  4  1  1  0  0  0  0
  4  7  1  0  0  0  0
  5  8  1  0  0  0  0
  6  3  2  0  0  0  0
  7 14  1  0  0  0  0
  8  7  2  0  0  0  0
  9 10  2  0  0  0  0
  9 18  1  0  0  0  0
 11  2  1  0  0  0  0
 12 16  1  0  0  0  0
 12  5  2  0  0  0  0
 13  3  1  0  0  0  0
 13 14  1  0  0  0  0
 15  9  1  0  0  0  0
 16  4  2  0  0  0  0
 17 15  2  0  0  0  0
 17 11  1  0  0  0  0
 18  6  1  0  0  0  0
 19 17  1  0  0  0  0
 20 19  1  0  0  0  0
 21 22  1  6  0  0  0
 21 20  1  0  0  0  0
 23 21  1  0  0  0  0
 23 24  1  0  0  0  0
 25 23  2  0  0  0  0
M  END
>  <MODEL>
9

>  <REMARK>
 VINA RESULT:      -8.9      2.140      2.644
  Name = 
  4 active torsions:
  status: ('A' for Active; 'I' for Inactive)
    1  A    between atoms: C_2  and  C_21
    2  A    between atoms: S_6  and  C_15
    3  A    between atoms: S_6  and  C_23
    4  A    between atoms: C_15  and  C_21
                            x       y       z     vdW  Elec       q    Type
                         _______ _______ _______ _____ _____    ______ ____

>  <TORSDO>
F 4

$$$$
