=
 OpenBabel10272400103D

 34 38  0  0  1  0  0  0  0  0999 V2000
  190.0490  177.3590  145.8710 C   0  0  0  0  0  0  0  0  0  0  0  0
  191.0550  175.7420  144.3610 C   0  0  0  0  0  0  0  0  0  0  0  0
  189.0810  177.1970  143.5810 C   0  0  0  0  0  0  0  0  0  0  0  0
  188.3080  177.7160  141.3370 C   0  0  0  0  0  0  0  0  0  0  0  0
  190.9990  177.0420  146.8440 C   0  0  0  0  0  3  0  0  0  0  0  0
  191.9950  175.4280  145.3480 C   0  0  0  0  0  3  0  0  0  0  0  0
  190.7600  177.2790  141.6650 C   0  0  0  0  0  2  0  0  0  0  0  0
  190.1140  176.7770  144.5860 C   0  0  0  0  0  0  0  0  0  0  0  0
  190.7860  177.0770  140.1530 C   0  0  0  0  0  2  0  0  0  0  0  0
  188.5180  177.7600  139.8500 C   0  0  0  0  0  2  0  0  0  0  0  0
  191.9840  176.0910  146.5750 C   0  0  0  0  0  3  0  0  0  0  0  0
  187.8240  177.6280  144.0730 C   0  0  0  0  0  0  0  0  0  0  0  0
  188.9260  178.2870  146.2120 C   0  0  0  0  0  2  0  0  0  0  0  0
  190.9950  174.9200  143.2000 N   0  0  0  0  0  1  0  0  0  0  0  0
  187.0790  177.9960  141.8330 N   0  0  0  0  0  0  0  0  0  0  0  0
  186.7970  177.9760  143.1630 C   0  0  0  0  0  0  0  0  0  0  0  0
  189.9130  178.0630  139.5180 N   0  0  0  0  0  0  0  0  0  0  0  0
  189.3490  177.3220  142.1980 C   0  0  0  0  0  0  0  0  0  0  0  0
  187.6390  177.7730  145.5650 C   0  0  0  0  0  2  0  0  0  0  0  0
  183.0830  178.6880  143.0060 C   0  0  0  0  0  0  0  0  0  0  0  0
  182.7820  178.9460  144.3450 C   0  0  0  0  0  3  0  0  0  0  0  0
  185.4210  178.3410  143.5860 C   0  0  0  0  0  0  0  0  0  0  0  0
  183.7930  178.8940  145.3090 C   0  0  0  0  0  3  0  0  0  0  0  0
  184.3940  178.3820  142.6310 C   0  0  0  0  0  3  0  0  0  0  0  0
  185.1030  178.5880  144.9310 C   0  0  0  0  0  3  0  0  0  0  0  0
  182.0790  178.7340  142.0490 O   0  0  0  0  0  1  0  0  0  0  0  0
  190.0950  178.0170  138.0640 C   0  0  0  0  0  2  0  0  0  0  0  0
  188.9810  178.7380  137.2870 C   0  0  0  0  0  2  0  0  0  0  0  0
  188.9090  177.9700  134.9000 F   0  0  0  0  0  0  0  0  0  0  0  0
  185.6760  177.7460  137.6330 O   0  0  0  0  0  0  0  0  0  0  0  0
  186.5760  177.6970  136.2020 P   0  0  0  0  0  0  0  0  0  0  0  0
  187.9610  176.6650  136.5070 O   0  0  0  0  0  0  0  0  0  0  0  0
  188.3640  177.8980  136.1670 C   0  0  1  0  0  3  0  0  0  0  0  0
  185.8520  177.1320  135.0020 O   0  0  0  0  0  0  0  0  0  0  0  0
  1 13  1  0  0  0  0
  1  5  1  0  0  0  0
  2  8  1  0  0  0  0
  2  6  2  0  0  0  0
  3 12  1  0  0  0  0
  3  8  1  0  0  0  0
  4 15  2  0  0  0  0
  4 18  1  0  0  0  0
  6 11  1  0  0  0  0
  7 18  1  0  0  0  0
  8  1  2  0  0  0  0
  9  7  1  0  0  0  0
 10  4  1  0  0  0  0
 11  5  2  0  0  0  0
 12 19  1  0  0  0  0
 14  2  1  0  0  0  0
 15 16  1  0  0  0  0
 16 22  1  0  0  0  0
 16 12  2  0  0  0  0
 17 10  1  0  0  0  0
 17  9  1  0  0  0  0
 18  3  2  0  0  0  0
 19 13  1  0  0  0  0
 20 21  1  0  0  0  0
 21 23  2  0  0  0  0
 22 25  2  0  0  0  0
 24 20  2  0  0  0  0
 24 22  1  0  0  0  0
 25 23  1  0  0  0  0
 26 20  1  0  0  0  0
 27 17  1  0  0  0  0
 28 27  1  0  0  0  0
 31 32  1  0  0  0  0
 31 30  2  0  0  0  0
 33 29  1  6  0  0  0
 33 32  1  0  0  0  0
 33 28  1  0  0  0  0
 34 31  2  0  0  0  0
M  END
>  <MODEL>
1

>  <REMARK>
 VINA RESULT:     -10.4      0.000      0.000
  Name = 
  4 active torsions:
  status: ('A' for Active; 'I' for Inactive)
    1  A    between atoms: C_3  and  C_13
    2  A    between atoms: C_3  and  N_29
    3  A    between atoms: C_12  and  C_28
    4  A    between atoms: C_13  and  C_33
                            x       y       z     vdW  Elec       q    Type
                         _______ _______ _______ _____ _____    ______ ____

>  <TORSDO>
F 4

$$$$
=
 OpenBabel10272400103D

 34 38  0  0  1  0  0  0  0  0999 V2000
  189.9900  177.3400  145.7480 C   0  0  0  0  0  0  0  0  0  0  0  0
  190.9190  175.8020  144.1130 C   0  0  0  0  0  0  0  0  0  0  0  0
  188.9120  177.2920  143.5030 C   0  0  0  0  0  0  0  0  0  0  0  0
  188.0320  177.9220  141.3270 C   0  0  0  0  0  0  0  0  0  0  0  0
  190.9850  176.9750  146.6580 C   0  0  0  0  0  3  0  0  0  0  0  0
  191.9060  175.4400  145.0350 C   0  0  0  0  0  3  0  0  0  0  0  0
  190.4970  177.4720  141.5150 C   0  0  0  0  0  2  0  0  0  0  0  0
  189.9910  176.8230  144.4340 C   0  0  0  0  0  0  0  0  0  0  0  0
  190.4500  177.3480  139.9950 C   0  0  0  0  0  2  0  0  0  0  0  0
  188.1710  178.0420  139.8360 C   0  0  0  0  0  2  0  0  0  0  0  0
  191.9550  176.0410  146.2940 C   0  0  0  0  0  3  0  0  0  0  0  0
  187.6800  177.6950  144.0760 C   0  0  0  0  0  0  0  0  0  0  0  0
  188.8850  178.2480  146.1900 C   0  0  0  0  0  2  0  0  0  0  0  0
  190.8030  175.0390  142.9160 N   0  0  0  0  0  1  0  0  0  0  0  0
  186.8280  178.1750  141.8960 N   0  0  0  0  0  0  0  0  0  0  0  0
  186.6120  178.0880  143.2350 C   0  0  0  0  0  0  0  0  0  0  0  0
  189.5490  178.3630  139.4530 N   0  0  0  0  0  0  0  0  0  0  0  0
  189.1140  177.4860  142.1170 C   0  0  0  0  0  0  0  0  0  0  0  0
  187.5680  177.7650  145.5800 C   0  0  0  0  0  2  0  0  0  0  0  0
  182.8970  178.8140  143.2910 C   0  0  0  0  0  0  0  0  0  0  0  0
  182.6590  178.9920  144.6560 C   0  0  0  0  0  3  0  0  0  0  0  0
  185.2580  178.4290  143.7420 C   0  0  0  0  0  0  0  0  0  0  0  0
  183.7120  178.8800  145.5680 C   0  0  0  0  0  3  0  0  0  0  0  0
  184.1880  178.5290  142.8390 C   0  0  0  0  0  3  0  0  0  0  0  0
  185.0030  178.5960  145.1130 C   0  0  0  0  0  3  0  0  0  0  0  0
  181.8510  178.9180  142.3860 O   0  0  0  0  0  1  0  0  0  0  0  0
  189.6600  178.3910  137.9920 C   0  0  0  0  0  2  0  0  0  0  0  0
  189.1510  177.1070  137.3160 C   0  0  0  0  0  2  0  0  0  0  0  0
  189.9320  177.1640  134.9330 F   0  0  0  0  0  0  0  0  0  0  0  0
  190.4630  173.9090  137.5970 O   0  0  0  0  0  0  0  0  0  0  0  0
  190.4280  174.8400  136.1860 P   0  0  0  0  0  0  0  0  0  0  0  0
  191.3170  176.3140  136.5280 O   0  0  0  0  0  0  0  0  0  0  0  0
  190.0520  176.6010  136.1880 C   0  0  1  0  0  3  0  0  0  0  0  0
  191.0670  174.2020  134.9740 O   0  0  0  0  0  0  0  0  0  0  0  0
  1 13  1  0  0  0  0
  1  5  1  0  0  0  0
  2  8  1  0  0  0  0
  2  6  2  0  0  0  0
  3 12  1  0  0  0  0
  3  8  1  0  0  0  0
  4 15  2  0  0  0  0
  4 18  1  0  0  0  0
  6 11  1  0  0  0  0
  7 18  1  0  0  0  0
  8  1  2  0  0  0  0
  9  7  1  0  0  0  0
 10  4  1  0  0  0  0
 11  5  2  0  0  0  0
 12 19  1  0  0  0  0
 14  2  1  0  0  0  0
 15 16  1  0  0  0  0
 16 22  1  0  0  0  0
 16 12  2  0  0  0  0
 17 10  1  0  0  0  0
 17  9  1  0  0  0  0
 18  3  2  0  0  0  0
 19 13  1  0  0  0  0
 20 21  1  0  0  0  0
 21 23  2  0  0  0  0
 22 25  2  0  0  0  0
 24 20  2  0  0  0  0
 24 22  1  0  0  0  0
 25 23  1  0  0  0  0
 26 20  1  0  0  0  0
 27 17  1  0  0  0  0
 28 27  1  0  0  0  0
 31 32  1  0  0  0  0
 31 30  2  0  0  0  0
 33 29  1  6  0  0  0
 33 32  1  0  0  0  0
 33 28  1  0  0  0  0
 34 31  2  0  0  0  0
M  END
>  <MODEL>
2

>  <REMARK>
 VINA RESULT:     -10.4      1.802      1.875
  Name = 
  4 active torsions:
  status: ('A' for Active; 'I' for Inactive)
    1  A    between atoms: C_3  and  C_13
    2  A    between atoms: C_3  and  N_29
    3  A    between atoms: C_12  and  C_28
    4  A    between atoms: C_13  and  C_33
                            x       y       z     vdW  Elec       q    Type
                         _______ _______ _______ _____ _____    ______ ____

>  <TORSDO>
F 4

$$$$
=
 OpenBabel10272400103D

 34 38  0  0  1  0  0  0  0  0999 V2000
  185.3730  178.8300  144.8630 C   0  0  0  0  0  0  0  0  0  0  0  0
  187.2000  177.2860  144.4380 C   0  0  0  0  0  0  0  0  0  0  0  0
  185.8150  178.2300  142.4850 C   0  0  0  0  0  0  0  0  0  0  0  0
  186.3240  178.3370  140.1120 C   0  0  0  0  0  0  0  0  0  0  0  0
  185.6760  178.8150  146.2260 C   0  0  0  0  0  3  0  0  0  0  0  0
  187.4880  177.2730  145.8060 C   0  0  0  0  0  3  0  0  0  0  0  0
  188.2430  178.4280  141.7320 C   0  0  0  0  0  2  0  0  0  0  0  0
  186.1820  178.1340  143.9370 C   0  0  0  0  0  0  0  0  0  0  0  0
  189.1010  178.0710  140.5220 C   0  0  0  0  0  2  0  0  0  0  0  0
  187.2960  178.2580  138.9700 C   0  0  0  0  0  2  0  0  0  0  0  0
  186.7450  178.0520  146.6950 C   0  0  0  0  0  3  0  0  0  0  0  0
  184.4540  178.4570  142.1650 C   0  0  0  0  0  0  0  0  0  0  0  0
  184.1510  179.5510  144.3870 C   0  0  0  0  0  2  0  0  0  0  0  0
  187.8650  176.3450  143.6010 N   0  0  0  0  0  1  0  0  0  0  0  0
  184.9990  178.4230  139.8400 N   0  0  0  0  0  0  0  0  0  0  0  0
  184.0500  178.4940  140.8100 C   0  0  0  0  0  0  0  0  0  0  0  0
  188.6080  178.7900  139.3480 N   0  0  0  0  0  0  0  0  0  0  0  0
  186.7720  178.2520  141.4440 C   0  0  0  0  0  0  0  0  0  0  0  0
  183.4800  178.7260  143.2880 C   0  0  0  0  0  2  0  0  0  0  0  0
  180.8350  180.0230  139.5210 C   0  0  0  0  0  0  0  0  0  0  0  0
  179.9820  178.9170  139.4920 C   0  0  0  0  0  3  0  0  0  0  0  0
  182.6320  178.6270  140.3850 C   0  0  0  0  0  0  0  0  0  0  0  0
  180.4500  177.6650  139.8980 C   0  0  0  0  0  3  0  0  0  0  0  0
  182.1540  179.8760  139.9600 C   0  0  0  0  0  3  0  0  0  0  0  0
  181.7690  177.5210  140.3370 C   0  0  0  0  0  3  0  0  0  0  0  0
  180.3730  181.2660  139.1130 O   0  0  0  0  0  1  0  0  0  0  0  0
  189.5480  178.6210  138.2370 C   0  0  0  0  0  2  0  0  0  0  0  0
  189.4690  177.2350  137.5750 C   0  0  0  0  0  2  0  0  0  0  0  0
  191.9650  176.9900  137.6280 F   0  0  0  0  0  0  0  0  0  0  0  0
  189.2130  173.8140  137.0700 O   0  0  0  0  0  0  0  0  0  0  0  0
  190.6550  174.6930  137.1580 P   0  0  0  0  0  0  0  0  0  0  0  0
  190.6830  175.4660  138.7330 O   0  0  0  0  0  0  0  0  0  0  0  0
  190.7290  176.3880  137.7600 C   0  0  1  0  0  3  0  0  0  0  0  0
  191.9200  173.8740  137.0380 O   0  0  0  0  0  0  0  0  0  0  0  0
  1  5  1  0  0  0  0
  2  6  2  0  0  0  0
  3  8  1  0  0  0  0
  4 18  1  0  0  0  0
  5 11  2  0  0  0  0
  6 11  1  0  0  0  0
  8  2  1  0  0  0  0
  8  1  2  0  0  0  0
  9  7  1  0  0  0  0
 10 17  1  0  0  0  0
 10  4  1  0  0  0  0
 12  3  1  0  0  0  0
 12 19  1  0  0  0  0
 13  1  1  0  0  0  0
 14  2  1  0  0  0  0
 15  4  2  0  0  0  0
 15 16  1  0  0  0  0
 16 12  2  0  0  0  0
 17  9  1  0  0  0  0
 18  7  1  0  0  0  0
 18  3  2  0  0  0  0
 19 13  1  0  0  0  0
 20 24  1  0  0  0  0
 21 20  2  0  0  0  0
 21 23  1  0  0  0  0
 22 16  1  0  0  0  0
 23 25  2  0  0  0  0
 24 22  2  0  0  0  0
 25 22  1  0  0  0  0
 26 20  1  0  0  0  0
 27 17  1  0  0  0  0
 28 33  1  0  0  0  0
 28 27  1  0  0  0  0
 30 31  2  0  0  0  0
 31 32  1  0  0  0  0
 33 29  1  1  0  0  0
 33 32  1  0  0  0  0
 34 31  2  0  0  0  0
M  END
>  <MODEL>
3

>  <REMARK>
 VINA RESULT:     -10.2      2.829      4.266
  Name = 
  4 active torsions:
  status: ('A' for Active; 'I' for Inactive)
    1  A    between atoms: C_3  and  C_13
    2  A    between atoms: C_3  and  N_29
    3  A    between atoms: C_12  and  C_28
    4  A    between atoms: C_13  and  C_33
                            x       y       z     vdW  Elec       q    Type
                         _______ _______ _______ _____ _____    ______ ____

>  <TORSDO>
F 4

$$$$
=
 OpenBabel10272400103D

 34 38  0  0  1  0  0  0  0  0999 V2000
  186.8930  178.4170  146.0240 C   0  0  0  0  0  0  0  0  0  0  0  0
  188.4760  176.9110  144.9600 C   0  0  0  0  0  0  0  0  0  0  0  0
  186.6170  178.0320  143.5780 C   0  0  0  0  0  0  0  0  0  0  0  0
  186.4260  178.3520  141.1770 C   0  0  0  0  0  0  0  0  0  0  0  0
  187.5730  178.2770  147.2350 C   0  0  0  0  0  3  0  0  0  0  0  0
  189.1430  176.7740  146.1810 C   0  0  0  0  0  3  0  0  0  0  0  0
  188.7310  178.2900  142.1760 C   0  0  0  0  0  2  0  0  0  0  0  0
  187.3820  177.8050  144.8490 C   0  0  0  0  0  0  0  0  0  0  0  0
  189.1950  178.0410  140.7450 C   0  0  0  0  0  2  0  0  0  0  0  0
  187.0270  178.3730  139.8000 C   0  0  0  0  0  2  0  0  0  0  0  0
  188.7100  177.4720  147.3090 C   0  0  0  0  0  3  0  0  0  0  0  0
  185.2280  178.2920  143.6840 C   0  0  0  0  0  0  0  0  0  0  0  0
  185.6070  179.1820  145.9840 C   0  0  0  0  0  2  0  0  0  0  0  0
  188.8440  176.0480  143.8890 N   0  0  0  0  0  1  0  0  0  0  0  0
  185.0820  178.4660  141.3060 N   0  0  0  0  0  0  0  0  0  0  0  0
  184.4530  178.4530  142.5110 C   0  0  0  0  0  0  0  0  0  0  0  0
  188.4070  178.8640  139.8290 N   0  0  0  0  0  0  0  0  0  0  0  0
  187.2340  178.1450  142.3100 C   0  0  0  0  0  0  0  0  0  0  0  0
  184.6250  178.4620  145.0590 C   0  0  0  0  0  2  0  0  0  0  0  0
  180.8730  178.6960  141.3050 C   0  0  0  0  0  0  0  0  0  0  0  0
  180.1770  178.8700  142.5030 C   0  0  0  0  0  3  0  0  0  0  0  0
  182.9780  178.6280  142.5260 C   0  0  0  0  0  0  0  0  0  0  0  0
  180.8730  178.9140  143.7140 C   0  0  0  0  0  3  0  0  0  0  0  0
  182.2650  178.5710  141.3180 C   0  0  0  0  0  3  0  0  0  0  0  0
  182.2650  178.7880  143.7250 C   0  0  0  0  0  3  0  0  0  0  0  0
  180.1830  178.6470  140.1030 O   0  0  0  0  0  1  0  0  0  0  0  0
  188.9840  178.7940  138.4830 C   0  0  0  0  0  2  0  0  0  0  0  0
  189.7390  177.4820  138.2100 C   0  0  0  0  0  2  0  0  0  0  0  0
  187.8370  176.9140  136.6760 F   0  0  0  0  0  0  0  0  0  0  0  0
  190.9970  174.2880  137.7210 O   0  0  0  0  0  0  0  0  0  0  0  0
  189.5420  174.8810  137.0950 P   0  0  0  0  0  0  0  0  0  0  0  0
  189.9460  176.2720  136.1040 O   0  0  0  0  0  0  0  0  0  0  0  0
  189.1220  176.6320  137.0980 C   0  0  1  0  0  3  0  0  0  0  0  0
  188.7730  173.9170  136.2220 O   0  0  0  0  0  0  0  0  0  0  0  0
  1  5  1  0  0  0  0
  2  6  2  0  0  0  0
  3 12  1  0  0  0  0
  3  8  1  0  0  0  0
  4 15  2  0  0  0  0
  4 18  1  0  0  0  0
  5 11  2  0  0  0  0
  6 11  1  0  0  0  0
  7 18  1  0  0  0  0
  8  2  1  0  0  0  0
  8  1  2  0  0  0  0
  9  7  1  0  0  0  0
 10 17  1  0  0  0  0
 10  4  1  0  0  0  0
 12 19  1  0  0  0  0
 13  1  1  0  0  0  0
 14  2  1  0  0  0  0
 15 16  1  0  0  0  0
 16 22  1  0  0  0  0
 16 12  2  0  0  0  0
 17  9  1  0  0  0  0
 18  3  2  0  0  0  0
 19 13  1  0  0  0  0
 20 24  2  0  0  0  0
 20 21  1  0  0  0  0
 21 23  2  0  0  0  0
 22 25  2  0  0  0  0
 23 25  1  0  0  0  0
 24 22  1  0  0  0  0
 26 20  1  0  0  0  0
 27 17  1  0  0  0  0
 28 27  1  0  0  0  0
 31 30  2  0  0  0  0
 32 31  1  0  0  0  0
 32 33  1  0  0  0  0
 33 29  1  6  0  0  0
 33 28  1  0  0  0  0
 34 31  2  0  0  0  0
M  END
>  <MODEL>
4

>  <REMARK>
 VINA RESULT:     -10.0      2.100      2.957
  Name = 
  4 active torsions:
  status: ('A' for Active; 'I' for Inactive)
    1  A    between atoms: C_3  and  C_13
    2  A    between atoms: C_3  and  N_29
    3  A    between atoms: C_12  and  C_28
    4  A    between atoms: C_13  and  C_33
                            x       y       z     vdW  Elec       q    Type
                         _______ _______ _______ _____ _____    ______ ____

>  <TORSDO>
F 4

$$$$
=
 OpenBabel10272400103D

 34 38  0  0  1  0  0  0  0  0999 V2000
  190.3380  177.2340  146.3910 C   0  0  0  0  0  0  0  0  0  0  0  0
  191.5560  175.5630  145.1140 C   0  0  0  0  0  0  0  0  0  0  0  0
  189.6930  176.9460  144.0020 C   0  0  0  0  0  0  0  0  0  0  0  0
  189.2300  177.3450  141.6500 C   0  0  0  0  0  0  0  0  0  0  0  0
  191.1490  176.9790  147.4990 C   0  0  0  0  0  3  0  0  0  0  0  0
  192.3560  175.3120  146.2340 C   0  0  0  0  0  3  0  0  0  0  0  0
  191.6190  176.9640  142.3300 C   0  0  0  0  0  2  0  0  0  0  0  0
  190.5830  176.5920  145.1570 C   0  0  0  0  0  0  0  0  0  0  0  0
  191.8530  176.6910  140.8480 C   0  0  0  0  0  2  0  0  0  0  0  0
  189.6410  177.3210  140.2050 C   0  0  0  0  0  2  0  0  0  0  0  0
  192.1700  176.0330  147.4140 C   0  0  0  0  0  3  0  0  0  0  0  0
  188.3770  177.3800  144.2960 C   0  0  0  0  0  0  0  0  0  0  0  0
  189.1700  178.1580  146.5300 C   0  0  0  0  0  2  0  0  0  0  0  0
  191.6640  174.6850  143.9980 N   0  0  0  0  0  1  0  0  0  0  0  0
  187.9410  177.6280  141.9600 N   0  0  0  0  0  0  0  0  0  0  0  0
  187.4810  177.6670  143.2380 C   0  0  0  0  0  0  0  0  0  0  0  0
  191.0650  177.6300  140.0510 N   0  0  0  0  0  0  0  0  0  0  0  0
  190.1470  177.0090  142.6640 C   0  0  0  0  0  0  0  0  0  0  0  0
  187.9890  177.5930  145.7400 C   0  0  0  0  0  2  0  0  0  0  0  0
  184.2720  178.6620  144.9820 C   0  0  0  0  0  0  0  0  0  0  0  0
  183.3910  178.7990  143.9070 C   0  0  0  0  0  3  0  0  0  0  0  0
  186.0570  178.0300  143.4520 C   0  0  0  0  0  0  0  0  0  0  0  0
  183.8380  178.5630  142.6040 C   0  0  0  0  0  3  0  0  0  0  0  0
  185.5980  178.2850  144.7540 C   0  0  0  0  0  3  0  0  0  0  0  0
  185.1650  178.1850  142.3790 C   0  0  0  0  0  3  0  0  0  0  0  0
  183.8310  178.9030  146.2750 O   0  0  0  0  0  1  0  0  0  0  0  0
  191.4440  177.5180  138.6400 C   0  0  0  0  0  2  0  0  0  0  0  0
  191.9010  176.1050  138.2410 C   0  0  0  0  0  2  0  0  0  0  0  0
  192.3370  176.0020  135.7730 F   0  0  0  0  0  0  0  0  0  0  0  0
  195.1430  175.0040  138.7910 O   0  0  0  0  0  0  0  0  0  0  0  0
  194.4060  175.1840  137.2790 P   0  0  0  0  0  0  0  0  0  0  0  0
  193.9380  176.8700  137.1410 O   0  0  0  0  0  0  0  0  0  0  0  0
  192.8600  176.0780  137.0490 C   0  0  1  0  0  3  0  0  0  0  0  0
  195.2810  174.8630  136.0900 O   0  0  0  0  0  0  0  0  0  0  0  0
  1 13  1  0  0  0  0
  1  5  1  0  0  0  0
  2  8  1  0  0  0  0
  2  6  2  0  0  0  0
  3 12  1  0  0  0  0
  3  8  1  0  0  0  0
  4 15  2  0  0  0  0
  4 18  1  0  0  0  0
  6 11  1  0  0  0  0
  7 18  1  0  0  0  0
  8  1  2  0  0  0  0
  9  7  1  0  0  0  0
 10  4  1  0  0  0  0
 11  5  2  0  0  0  0
 12 19  1  0  0  0  0
 14  2  1  0  0  0  0
 15 16  1  0  0  0  0
 16 22  1  0  0  0  0
 16 12  2  0  0  0  0
 17 10  1  0  0  0  0
 17  9  1  0  0  0  0
 18  3  2  0  0  0  0
 19 13  1  0  0  0  0
 20 26  1  0  0  0  0
 21 20  2  0  0  0  0
 22 24  2  0  0  0  0
 23 21  1  0  0  0  0
 24 20  1  0  0  0  0
 25 23  2  0  0  0  0
 25 22  1  0  0  0  0
 27 17  1  0  0  0  0
 28 27  1  0  0  0  0
 31 30  2  0  0  0  0
 32 31  1  0  0  0  0
 33 29  1  6  0  0  0
 33 32  1  0  0  0  0
 33 28  1  0  0  0  0
 34 31  2  0  0  0  0
M  END
>  <MODEL>
5

>  <REMARK>
 VINA RESULT:      -9.7      3.100      3.523
  Name = 
  4 active torsions:
  status: ('A' for Active; 'I' for Inactive)
    1  A    between atoms: C_3  and  C_13
    2  A    between atoms: C_3  and  N_29
    3  A    between atoms: C_12  and  C_28
    4  A    between atoms: C_13  and  C_33
                            x       y       z     vdW  Elec       q    Type
                         _______ _______ _______ _____ _____    ______ ____

>  <TORSDO>
F 4

$$$$
=
 OpenBabel10272400103D

 34 38  0  0  1  0  0  0  0  0999 V2000
  191.0750  175.9490  145.0720 C   0  0  0  0  0  0  0  0  0  0  0  0
  190.1430  177.5830  146.6100 C   0  0  0  0  0  0  0  0  0  0  0  0
  189.1700  177.3240  144.2420 C   0  0  0  0  0  0  0  0  0  0  0  0
  187.0280  178.0330  143.3420 C   0  0  0  0  0  0  0  0  0  0  0  0
  191.9510  175.5100  146.0670 C   0  0  0  0  0  3  0  0  0  0  0  0
  191.0300  177.1400  147.5960 C   0  0  0  0  0  3  0  0  0  0  0  0
  187.1410  177.4400  145.7810 C   0  0  0  0  0  2  0  0  0  0  0  0
  190.1000  176.9320  145.3520 C   0  0  0  0  0  0  0  0  0  0  0  0
  185.8240  178.2020  145.8860 C   0  0  0  0  0  2  0  0  0  0  0  0
  185.6160  178.5120  143.5270 C   0  0  0  0  0  2  0  0  0  0  0  0
  191.9140  176.0910  147.3350 C   0  0  0  0  0  3  0  0  0  0  0  0
  189.6420  177.1900  142.9120 C   0  0  0  0  0  0  0  0  0  0  0  0
  191.2050  175.4050  143.6840 C   0  0  0  0  0  2  0  0  0  0  0  0
  189.3890  178.7640  146.8640 N   0  0  0  0  0  1  0  0  0  0  0  0
  187.5550  178.0170  142.0940 N   0  0  0  0  0  0  0  0  0  0  0  0
  188.8240  177.6030  141.8340 C   0  0  0  0  0  0  0  0  0  0  0  0
  185.0000  177.9100  144.7130 N   0  0  0  0  0  0  0  0  0  0  0  0
  187.8160  177.6730  144.4510 C   0  0  0  0  0  0  0  0  0  0  0  0
  190.9850  176.5380  142.6810 C   0  0  0  0  0  2  0  0  0  0  0  0
  189.2110  178.5980  138.2020 C   0  0  0  0  0  0  0  0  0  0  0  0
  190.1540  177.6720  137.7490 C   0  0  0  0  0  3  0  0  0  0  0  0
  189.2740  177.5930  140.4180 C   0  0  0  0  0  0  0  0  0  0  0  0
  190.6660  176.7130  138.6260 C   0  0  0  0  0  3  0  0  0  0  0  0
  188.7780  178.5610  139.5300 C   0  0  0  0  0  3  0  0  0  0  0  0
  190.2320  176.6780  139.9540 C   0  0  0  0  0  3  0  0  0  0  0  0
  188.7060  179.5540  137.3330 O   0  0  0  0  0  1  0  0  0  0  0  0
  183.6570  178.4630  144.9050 C   0  0  0  0  0  2  0  0  0  0  0  0
  183.1470  179.2640  143.6950 C   0  0  0  0  0  2  0  0  0  0  0  0
  180.8980  178.2960  144.2410 F   0  0  0  0  0  0  0  0  0  0  0  0
  182.2680  179.2370  140.3410 O   0  0  0  0  0  0  0  0  0  0  0  0
  181.3290  178.6330  141.6110 P   0  0  0  0  0  0  0  0  0  0  0  0
  181.0340  179.9730  142.7060 O   0  0  0  0  0  0  0  0  0  0  0  0
  181.6850  178.9860  143.3400 C   0  0  1  0  0  3  0  0  0  0  0  0
  179.9820  178.0760  141.2120 O   0  0  0  0  0  0  0  0  0  0  0  0
  1  8  2  0  0  0  0
  1  5  1  0  0  0  0
  2 14  1  0  0  0  0
  2  6  2  0  0  0  0
  3 18  1  0  0  0  0
  3  8  1  0  0  0  0
  4 10  1  0  0  0  0
  4 18  2  0  0  0  0
  5 11  2  0  0  0  0
  7  9  1  0  0  0  0
  8  2  1  0  0  0  0
 10 17  1  0  0  0  0
 11  6  1  0  0  0  0
 12  3  2  0  0  0  0
 13  1  1  0  0  0  0
 15  4  1  0  0  0  0
 16 15  2  0  0  0  0
 16 12  1  0  0  0  0
 17 27  1  0  0  0  0
 17  9  1  0  0  0  0
 18  7  1  0  0  0  0
 19 12  1  0  0  0  0
 19 13  1  0  0  0  0
 20 24  1  0  0  0  0
 21 20  2  0  0  0  0
 21 23  1  0  0  0  0
 22 16  1  0  0  0  0
 23 25  2  0  0  0  0
 24 22  2  0  0  0  0
 25 22  1  0  0  0  0
 26 20  1  0  0  0  0
 28 27  1  0  0  0  0
 30 31  2  0  0  0  0
 31 32  1  0  0  0  0
 32 33  1  0  0  0  0
 33 28  1  0  0  0  0
 33 29  1  1  0  0  0
 34 31  2  0  0  0  0
M  END
>  <MODEL>
6

>  <REMARK>
 VINA RESULT:      -9.6      3.028      6.374
  Name = 
  4 active torsions:
  status: ('A' for Active; 'I' for Inactive)
    1  A    between atoms: C_3  and  C_13
    2  A    between atoms: C_3  and  N_29
    3  A    between atoms: C_12  and  C_28
    4  A    between atoms: C_13  and  C_33
                            x       y       z     vdW  Elec       q    Type
                         _______ _______ _______ _____ _____    ______ ____

>  <TORSDO>
F 4

$$$$
=
 OpenBabel10272400103D

 34 38  0  0  1  0  0  0  0  0999 V2000
  188.3470  177.1200  146.1940 C   0  0  0  0  0  0  0  0  0  0  0  0
  186.8170  178.8330  146.9860 C   0  0  0  0  0  0  0  0  0  0  0  0
  186.8420  178.1580  144.5030 C   0  0  0  0  0  0  0  0  0  0  0  0
  185.1760  178.5060  142.7680 C   0  0  0  0  0  0  0  0  0  0  0  0
  188.7950  176.9140  147.5010 C   0  0  0  0  0  3  0  0  0  0  0  0
  187.2800  178.6230  148.2890 C   0  0  0  0  0  3  0  0  0  0  0  0
  184.3740  178.2590  145.1370 C   0  0  0  0  0  2  0  0  0  0  0  0
  187.2930  178.0200  145.9270 C   0  0  0  0  0  0  0  0  0  0  0  0
  183.0820  178.8810  144.6190 C   0  0  0  0  0  2  0  0  0  0  0  0
  183.7790  178.8510  142.3350 C   0  0  0  0  0  2  0  0  0  0  0  0
  188.2470  177.6510  148.5500 C   0  0  0  0  0  3  0  0  0  0  0  0
  187.7930  177.9010  143.4850 C   0  0  0  0  0  0  0  0  0  0  0  0
  189.0270  176.4130  145.0630 C   0  0  0  0  0  2  0  0  0  0  0  0
  185.9670  179.9500  146.7440 N   0  0  0  0  0  1  0  0  0  0  0  0
  186.1420  178.3820  141.8260 N   0  0  0  0  0  0  0  0  0  0  0  0
  187.4320  178.0760  142.1280 C   0  0  0  0  0  0  0  0  0  0  0  0
  182.7860  178.3490  143.2890 N   0  0  0  0  0  0  0  0  0  0  0  0
  185.4950  178.3850  144.1340 C   0  0  0  0  0  0  0  0  0  0  0  0
  189.1520  177.3730  143.8790 C   0  0  0  0  0  2  0  0  0  0  0  0
  189.1500  178.6340  138.8010 C   0  0  0  0  0  0  0  0  0  0  0  0
  190.2230  177.7440  138.8780 C   0  0  0  0  0  3  0  0  0  0  0  0
  188.3900  177.9260  141.0030 C   0  0  0  0  0  0  0  0  0  0  0  0
  190.3910  176.9510  140.0170 C   0  0  0  0  0  3  0  0  0  0  0  0
  188.2420  178.7280  139.8600 C   0  0  0  0  0  3  0  0  0  0  0  0
  189.4820  177.0460  141.0740 C   0  0  0  0  0  3  0  0  0  0  0  0
  188.9850  179.4260  137.6730 O   0  0  0  0  0  1  0  0  0  0  0  0
  181.4460  178.7750  142.8750 C   0  0  0  0  0  2  0  0  0  0  0  0
  181.3090  178.9680  141.3560 C   0  0  0  0  0  2  0  0  0  0  0  0
  179.9830  176.8390  141.3660 F   0  0  0  0  0  0  0  0  0  0  0  0
  182.6980  178.0070  138.3270 O   0  0  0  0  0  0  0  0  0  0  0  0
  181.6340  177.0820  139.2610 P   0  0  0  0  0  0  0  0  0  0  0  0
  180.1590  178.0190  139.4270 O   0  0  0  0  0  0  0  0  0  0  0  0
  180.6910  177.7700  140.6320 C   0  0  1  0  0  3  0  0  0  0  0  0
  181.2510  175.7450  138.6720 O   0  0  0  0  0  0  0  0  0  0  0  0
  1  5  1  0  0  0  0
  2  6  2  0  0  0  0
  3  8  1  0  0  0  0
  4 18  2  0  0  0  0
  5 11  2  0  0  0  0
  6 11  1  0  0  0  0
  8  1  2  0  0  0  0
  8  2  1  0  0  0  0
  9  7  1  0  0  0  0
 10  4  1  0  0  0  0
 10 17  1  0  0  0  0
 12 19  1  0  0  0  0
 12  3  2  0  0  0  0
 13  1  1  0  0  0  0
 14  2  1  0  0  0  0
 15 16  2  0  0  0  0
 15  4  1  0  0  0  0
 16 12  1  0  0  0  0
 17  9  1  0  0  0  0
 18  3  1  0  0  0  0
 18  7  1  0  0  0  0
 19 13  1  0  0  0  0
 20 21  2  0  0  0  0
 20 24  1  0  0  0  0
 21 23  1  0  0  0  0
 22 25  1  0  0  0  0
 22 16  1  0  0  0  0
 23 25  2  0  0  0  0
 24 22  2  0  0  0  0
 26 20  1  0  0  0  0
 27 17  1  0  0  0  0
 28 27  1  0  0  0  0
 30 31  2  0  0  0  0
 31 32  1  0  0  0  0
 32 33  1  0  0  0  0
 33 28  1  0  0  0  0
 33 29  1  1  0  0  0
 34 31  2  0  0  0  0
M  END
>  <MODEL>
7

>  <REMARK>
 VINA RESULT:      -9.3      3.096      6.295
  Name = 
  4 active torsions:
  status: ('A' for Active; 'I' for Inactive)
    1  A    between atoms: C_3  and  C_13
    2  A    between atoms: C_3  and  N_29
    3  A    between atoms: C_12  and  C_28
    4  A    between atoms: C_13  and  C_33
                            x       y       z     vdW  Elec       q    Type
                         _______ _______ _______ _____ _____    ______ ____

>  <TORSDO>
F 4

$$$$
=
 OpenBabel10272400103D

 34 38  0  0  1  0  0  0  0  0999 V2000
  182.1540  178.6760  141.0540 C   0  0  0  0  0  0  0  0  0  0  0  0
  183.0450  180.0230  139.2380 C   0  0  0  0  0  0  0  0  0  0  0  0
  184.6330  178.8560  140.8930 C   0  0  0  0  0  0  0  0  0  0  0  0
  186.9980  178.3360  140.6930 C   0  0  0  0  0  0  0  0  0  0  0  0
  180.8580  178.8950  140.5810 C   0  0  0  0  0  3  0  0  0  0  0  0
  181.7420  180.2400  138.7800 C   0  0  0  0  0  3  0  0  0  0  0  0
  185.6250  178.3980  138.5900 C   0  0  0  0  0  2  0  0  0  0  0  0
  183.2720  179.1640  140.3430 C   0  0  0  0  0  0  0  0  0  0  0  0
  186.9700  178.5040  137.8790 C   0  0  0  0  0  2  0  0  0  0  0  0
  188.2450  178.1730  139.8710 C   0  0  0  0  0  2  0  0  0  0  0  0
  180.6540  179.6600  139.4330 C   0  0  0  0  0  3  0  0  0  0  0  0
  184.7470  178.6600  142.2920 C   0  0  0  0  0  0  0  0  0  0  0  0
  182.3530  177.9590  142.3520 C   0  0  0  0  0  2  0  0  0  0  0  0
  184.1020  180.7750  138.6500 N   0  0  0  0  0  1  0  0  0  0  0  0
  187.0930  178.2850  142.0440 N   0  0  0  0  0  0  0  0  0  0  0  0
  186.0200  178.4260  142.8660 C   0  0  0  0  0  0  0  0  0  0  0  0
  187.9400  177.6340  138.5430 N   0  0  0  0  0  0  0  0  0  0  0  0
  185.7620  178.6100  140.0780 C   0  0  0  0  0  0  0  0  0  0  0  0
  183.4880  178.6330  143.1250 C   0  0  0  0  0  2  0  0  0  0  0  0
  187.6560  177.5700  146.1690 C   0  0  0  0  0  0  0  0  0  0  0  0
  186.7650  178.1310  147.0870 C   0  0  0  0  0  3  0  0  0  0  0  0
  186.2450  178.3090  144.3290 C   0  0  0  0  0  0  0  0  0  0  0  0
  185.6190  178.7890  146.6320 C   0  0  0  0  0  3  0  0  0  0  0  0
  187.4000  177.6640  144.7990 C   0  0  0  0  0  3  0  0  0  0  0  0
  185.3650  178.8820  145.2610 C   0  0  0  0  0  3  0  0  0  0  0  0
  188.7970  176.9200  146.6200 O   0  0  0  0  0  1  0  0  0  0  0  0
  189.1680  177.5660  137.7450 C   0  0  0  0  0  2  0  0  0  0  0  0
  189.7060  176.1360  137.5740 C   0  0  0  0  0  2  0  0  0  0  0  0
  190.9860  176.1630  139.7310 F   0  0  0  0  0  0  0  0  0  0  0  0
  192.7190  175.9210  135.8700 O   0  0  0  0  0  0  0  0  0  0  0  0
  192.5420  176.0880  137.5430 P   0  0  0  0  0  0  0  0  0  0  0  0
  191.6120  174.7070  138.0960 O   0  0  0  0  0  0  0  0  0  0  0  0
  190.9700  175.8480  138.3860 C   0  0  1  0  0  3  0  0  0  0  0  0
  193.8320  176.1040  138.3310 O   0  0  0  0  0  0  0  0  0  0  0  0
  1 13  1  0  0  0  0
  2  8  1  0  0  0  0
  3 12  1  0  0  0  0
  4 15  2  0  0  0  0
  5  1  1  0  0  0  0
  6  2  2  0  0  0  0
  6 11  1  0  0  0  0
  7 18  1  0  0  0  0
  8  3  1  0  0  0  0
  8  1  2  0  0  0  0
  9 17  1  0  0  0  0
  9  7  1  0  0  0  0
 10  4  1  0  0  0  0
 11  5  2  0  0  0  0
 12 16  2  0  0  0  0
 12 19  1  0  0  0  0
 13 19  1  0  0  0  0
 14  2  1  0  0  0  0
 15 16  1  0  0  0  0
 16 22  1  0  0  0  0
 17 10  1  0  0  0  0
 18  4  1  0  0  0  0
 18  3  2  0  0  0  0
 20 26  1  0  0  0  0
 20 21  1  0  0  0  0
 22 24  1  0  0  0  0
 22 25  2  0  0  0  0
 23 21  2  0  0  0  0
 24 20  2  0  0  0  0
 25 23  1  0  0  0  0
 27 17  1  0  0  0  0
 28 27  1  0  0  0  0
 28 33  1  0  0  0  0
 30 31  2  0  0  0  0
 31 32  1  0  0  0  0
 31 34  2  0  0  0  0
 32 33  1  0  0  0  0
 33 29  1  1  0  0  0
M  END
>  <MODEL>
8

>  <REMARK>
 VINA RESULT:      -9.2      3.517      6.606
  Name = 
  4 active torsions:
  status: ('A' for Active; 'I' for Inactive)
    1  A    between atoms: C_3  and  C_13
    2  A    between atoms: C_3  and  N_29
    3  A    between atoms: C_12  and  C_28
    4  A    between atoms: C_13  and  C_33
                            x       y       z     vdW  Elec       q    Type
                         _______ _______ _______ _____ _____    ______ ____

>  <TORSDO>
F 4

$$$$
=
 OpenBabel10272400103D

 34 38  0  0  1  0  0  0  0  0999 V2000
  185.7590  177.6150  137.1380 C   0  0  0  0  0  0  0  0  0  0  0  0
  187.9440  178.6690  137.0020 C   0  0  0  0  0  0  0  0  0  0  0  0
  186.8540  178.2240  139.2910 C   0  0  0  0  0  0  0  0  0  0  0  0
  187.8460  178.1340  141.5070 C   0  0  0  0  0  0  0  0  0  0  0  0
  185.7410  177.4720  135.7480 C   0  0  0  0  0  3  0  0  0  0  0  0
  187.9100  178.5270  135.6120 C   0  0  0  0  0  3  0  0  0  0  0  0
  189.2740  177.4630  139.5510 C   0  0  0  0  0  2  0  0  0  0  0  0
  186.8960  178.1370  137.7930 C   0  0  0  0  0  0  0  0  0  0  0  0
  190.4420  177.6630  140.5110 C   0  0  0  0  0  2  0  0  0  0  0  0
  189.0420  178.0330  142.4100 C   0  0  0  0  0  2  0  0  0  0  0  0
  186.8250  177.9090  134.9880 C   0  0  0  0  0  3  0  0  0  0  0  0
  185.5860  178.3690  139.9050 C   0  0  0  0  0  0  0  0  0  0  0  0
  184.5420  177.2560  137.9310 C   0  0  0  0  0  2  0  0  0  0  0  0
  188.9820  179.4590  137.5740 N   0  0  0  0  0  1  0  0  0  0  0  0
  186.6350  178.4030  142.0520 N   0  0  0  0  0  0  0  0  0  0  0  0
  185.5010  178.5160  141.3100 C   0  0  0  0  0  0  0  0  0  0  0  0
  190.0730  177.1640  141.8350 N   0  0  0  0  0  0  0  0  0  0  0  0
  187.9890  178.0230  140.1110 C   0  0  0  0  0  0  0  0  0  0  0  0
  184.3490  178.2880  139.0430 C   0  0  0  0  0  2  0  0  0  0  0  0
  181.7920  178.7900  142.0130 C   0  0  0  0  0  0  0  0  0  0  0  0
  181.7800  179.1640  143.3590 C   0  0  0  0  0  3  0  0  0  0  0  0
  184.2260  178.7720  142.0270 C   0  0  0  0  0  0  0  0  0  0  0  0
  182.9860  179.3330  144.0450 C   0  0  0  0  0  3  0  0  0  0  0  0
  183.0070  178.5900  141.3540 C   0  0  0  0  0  3  0  0  0  0  0  0
  184.2000  179.1340  143.3840 C   0  0  0  0  0  3  0  0  0  0  0  0
  180.5950  178.6150  141.3320 O   0  0  0  0  0  1  0  0  0  0  0  0
  191.2520  177.1560  142.7050 C   0  0  0  0  0  2  0  0  0  0  0  0
  191.1300  176.1840  143.8900 C   0  0  0  0  0  2  0  0  0  0  0  0
  192.3570  176.5860  146.0410 F   0  0  0  0  0  0  0  0  0  0  0  0
  188.2190  177.2760  145.4260 O   0  0  0  0  0  0  0  0  0  0  0  0
  189.7220  177.0930  146.1790 P   0  0  0  0  0  0  0  0  0  0  0  0
  190.8480  178.1340  145.3260 O   0  0  0  0  0  0  0  0  0  0  0  0
  191.2510  176.8570  145.2590 C   0  0  1  0  0  3  0  0  0  0  0  0
  189.7670  177.4840  147.6380 O   0  0  0  0  0  0  0  0  0  0  0  0
  1  8  1  0  0  0  0
  1 13  1  0  0  0  0
  2 14  1  0  0  0  0
  2  8  2  0  0  0  0
  3 12  2  0  0  0  0
  3 18  1  0  0  0  0
  4 15  1  0  0  0  0
  4 10  1  0  0  0  0
  5  1  2  0  0  0  0
  6  2  1  0  0  0  0
  7 18  1  0  0  0  0
  7  9  1  0  0  0  0
  8  3  1  0  0  0  0
  9 17  1  0  0  0  0
 11  6  2  0  0  0  0
 11  5  1  0  0  0  0
 12 16  1  0  0  0  0
 13 19  1  0  0  0  0
 16 22  1  0  0  0  0
 16 15  2  0  0  0  0
 17 10  1  0  0  0  0
 17 27  1  0  0  0  0
 18  4  2  0  0  0  0
 19 12  1  0  0  0  0
 20 21  1  0  0  0  0
 21 23  2  0  0  0  0
 22 25  2  0  0  0  0
 24 20  2  0  0  0  0
 24 22  1  0  0  0  0
 25 23  1  0  0  0  0
 26 20  1  0  0  0  0
 27 28  1  0  0  0  0
 28 33  1  0  0  0  0
 30 31  2  0  0  0  0
 31 34  2  0  0  0  0
 32 31  1  0  0  0  0
 33 32  1  0  0  0  0
 33 29  1  6  0  0  0
M  END
>  <MODEL>
9

>  <REMARK>
 VINA RESULT:      -9.1      4.132      7.094
  Name = 
  4 active torsions:
  status: ('A' for Active; 'I' for Inactive)
    1  A    between atoms: C_3  and  C_13
    2  A    between atoms: C_3  and  N_29
    3  A    between atoms: C_12  and  C_28
    4  A    between atoms: C_13  and  C_33
                            x       y       z     vdW  Elec       q    Type
                         _______ _______ _______ _____ _____    ______ ____

>  <TORSDO>
F 4

$$$$
