=
 OpenBabel10272401033D

 27 31  0  0  1  0  0  0  0  0999 V2000
  187.3040  176.2280  143.6620 C   0  0  0  0  0  2  0  0  0  0  0  0
  186.7750  178.2280  142.3680 C   0  0  2  0  0  3  0  0  0  0  0  0
  185.1210  178.1420  144.1400 N   0  0  0  0  0  2  0  0  0  0  0  0
  183.5870  179.3920  140.0770 N   0  0  0  0  0  0  0  0  0  0  0  0
  181.1880  179.3630  140.5710 C   0  0  0  0  0  1  0  0  0  0  0  0
  187.0060  178.8260  141.0990 C   0  0  0  0  0  3  0  0  0  0  0  0
  183.0470  178.5850  142.0530 C   0  0  0  0  0  0  0  0  0  0  0  0
  186.1100  179.7310  147.3420 C   0  0  0  0  0  3  0  0  0  0  0  0
  182.2010  178.1890  143.2200 C   0  0  0  0  0  1  0  0  0  0  0  0
  187.1300  178.9060  147.8080 C   0  0  0  0  0  3  0  0  0  0  0  0
  184.4220  178.5040  141.9580 C   0  0  0  0  0  0  0  0  0  0  0  0
  187.7410  177.4490  142.9020 C   0  0  2  0  0  3  0  0  0  0  0  0
  182.5810  179.1030  140.8940 N   0  0  0  0  0  0  0  0  0  0  0  0
  184.7060  179.0240  140.7260 C   0  0  0  0  0  0  0  0  0  0  0  0
  187.4900  176.4330  145.0790 N   0  0  0  0  0  2  0  0  0  0  0  0
  185.4360  178.2030  142.8710 C   0  0  1  0  0  3  0  0  0  0  0  0
  185.5070  179.4610  146.1130 C   0  0  0  0  0  3  0  0  0  0  0  0
  185.9740  179.2390  140.3060 N   0  0  0  0  0  0  0  0  0  0  0  0
  187.5470  177.8180  147.0420 C   0  0  0  0  0  3  0  0  0  0  0  0
  186.9610  177.5430  145.8010 C   0  0  0  0  0  0  0  0  0  0  0  0
  185.9210  178.3840  145.3150 C   0  0  0  0  0  0  0  0  0  0  0  0
  191.9310  177.7730  141.9820 C   0  0  0  0  0  3  0  0  0  0  0  0
  189.1870  177.5930  142.5710 C   0  0  0  0  0  0  0  0  0  0  0  0
  190.0660  178.2540  143.4470 C   0  0  0  0  0  3  0  0  0  0  0  0
  191.4270  178.3490  143.1520 C   0  0  0  0  0  3  0  0  0  0  0  0
  191.0730  177.0980  141.1110 C   0  0  0  0  0  3  0  0  0  0  0  0
  189.7100  177.0050  141.4060 C   0  0  0  0  0  3  0  0  0  0  0  0
  1 15  1  0  0  0  0
  2  6  1  6  0  0  0
  2 16  1  0  0  0  0
  2 12  1  0  0  0  0
  3 21  1  0  0  0  0
  4 14  2  0  0  0  0
  4 13  1  0  0  0  0
  5 13  1  0  0  0  0
  7  9  1  0  0  0  0
  8 10  1  0  0  0  0
 11  7  2  0  0  0  0
 12 23  1  6  0  0  0
 12  1  1  0  0  0  0
 13  7  1  0  0  0  0
 14 11  1  0  0  0  0
 15 20  1  0  0  0  0
 16 11  1  1  0  0  0
 16  3  1  0  0  0  0
 17  8  2  0  0  0  0
 18 14  1  0  0  0  0
 18  6  2  0  0  0  0
 19 10  2  0  0  0  0
 20 19  1  0  0  0  0
 21 20  2  0  0  0  0
 21 17  1  0  0  0  0
 22 25  1  0  0  0  0
 23 24  1  0  0  0  0
 25 24  2  0  0  0  0
 26 27  1  0  0  0  0
 26 22  2  0  0  0  0
 27 23  2  0  0  0  0
M  END
>  <MODEL>
1

>  <REMARK>
 VINA RESULT:      -7.7      0.000      0.000
  Name = 
  1 active torsions:
  status: ('A' for Active; 'I' for Inactive)
    1  A    between atoms: C_9  and  C_15
                            x       y       z     vdW  Elec       q    Type
                         _______ _______ _______ _____ _____    ______ ____

>  <TORSDO>
F 1

$$$$
=
 OpenBabel10272401033D

 27 31  0  0  1  0  0  0  0  0999 V2000
  190.0370  179.0670  143.7830 C   0  0  0  0  0  2  0  0  0  0  0  0
  189.4250  177.4450  142.0660 C   0  0  2  0  0  3  0  0  0  0  0  0
  191.7450  176.9820  142.6030 N   0  0  0  0  0  2  0  0  0  0  0  0
  190.6550  176.7470  138.2230 N   0  0  0  0  0  0  0  0  0  0  0  0
  192.9130  176.5210  137.3000 C   0  0  0  0  0  1  0  0  0  0  0  0
  188.4560  177.2090  141.0520 C   0  0  0  0  0  3  0  0  0  0  0  0
  192.2910  176.9860  139.6780 C   0  0  0  0  0  0  0  0  0  0  0  0
  192.3060  174.6720  145.4500 C   0  0  0  0  0  3  0  0  0  0  0  0
  193.6790  177.0210  140.2300 C   0  0  0  0  0  1  0  0  0  0  0  0
  191.8570  175.4000  146.5480 C   0  0  0  0  0  3  0  0  0  0  0  0
  191.1140  177.1610  140.3770 C   0  0  0  0  0  0  0  0  0  0  0  0
  189.0480  178.1090  143.1800 C   0  0  2  0  0  3  0  0  0  0  0  0
  191.9730  176.7620  138.3830 N   0  0  0  0  0  0  0  0  0  0  0  0
  190.1350  176.9930  139.4380 C   0  0  0  0  0  0  0  0  0  0  0  0
  190.5870  178.5110  144.9970 N   0  0  0  0  0  2  0  0  0  0  0  0
  190.8060  177.2680  141.7370 C   0  0  1  0  0  3  0  0  0  0  0  0
  192.2130  175.2190  144.1690 C   0  0  0  0  0  3  0  0  0  0  0  0
  188.8210  176.9610  139.7600 N   0  0  0  0  0  0  0  0  0  0  0  0
  191.3110  176.6700  146.3610 C   0  0  0  0  0  3  0  0  0  0  0  0
  191.1990  177.2260  145.0820 C   0  0  0  0  0  0  0  0  0  0  0  0
  191.6510  176.4860  143.9540 C   0  0  0  0  0  0  0  0  0  0  0  0
  185.0090  178.2730  144.6520 C   0  0  0  0  0  3  0  0  0  0  0  0
  187.6460  178.1310  143.6860 C   0  0  0  0  0  0  0  0  0  0  0  0
  187.3570  177.8180  145.0250 C   0  0  0  0  0  3  0  0  0  0  0  0
  186.0460  177.8820  145.5050 C   0  0  0  0  0  3  0  0  0  0  0  0
  185.2840  178.6040  143.3240 C   0  0  0  0  0  3  0  0  0  0  0  0
  186.5950  178.5380  142.8450 C   0  0  0  0  0  3  0  0  0  0  0  0
  1 15  1  0  0  0  0
  2  6  1  6  0  0  0
  2 12  1  0  0  0  0
  3 21  1  0  0  0  0
  4 13  1  0  0  0  0
  4 14  2  0  0  0  0
  5 13  1  0  0  0  0
  7  9  1  0  0  0  0
  7 11  2  0  0  0  0
  8 10  1  0  0  0  0
 12 23  1  6  0  0  0
 12  1  1  0  0  0  0
 13  7  1  0  0  0  0
 14 18  1  0  0  0  0
 14 11  1  0  0  0  0
 15 20  1  0  0  0  0
 16 11  1  6  0  0  0
 16  2  1  0  0  0  0
 16  3  1  0  0  0  0
 17  8  2  0  0  0  0
 18  6  2  0  0  0  0
 19 10  2  0  0  0  0
 20 19  1  0  0  0  0
 21 17  1  0  0  0  0
 21 20  2  0  0  0  0
 22 25  1  0  0  0  0
 23 24  1  0  0  0  0
 24 25  2  0  0  0  0
 26 22  2  0  0  0  0
 27 26  1  0  0  0  0
 27 23  2  0  0  0  0
M  END
>  <MODEL>
2

>  <REMARK>
 VINA RESULT:      -7.5      3.009      6.597
  Name = 
  1 active torsions:
  status: ('A' for Active; 'I' for Inactive)
    1  A    between atoms: C_9  and  C_15
                            x       y       z     vdW  Elec       q    Type
                         _______ _______ _______ _____ _____    ______ ____

>  <TORSDO>
F 1

$$$$
=
 OpenBabel10272401033D

 27 31  0  0  1  0  0  0  0  0999 V2000
  190.4820  179.0280  144.0440 C   0  0  0  0  0  2  0  0  0  0  0  0
  188.6190  177.5120  144.4790 C   0  0  2  0  0  3  0  0  0  0  0  0
  188.3210  178.2730  142.1950 N   0  0  0  0  0  2  0  0  0  0  0  0
  184.5530  177.9600  144.6720 N   0  0  0  0  0  0  0  0  0  0  0  0
  183.0050  179.0400  143.1120 C   0  0  0  0  0  1  0  0  0  0  0  0
  187.8980  176.9130  145.5480 C   0  0  0  0  0  3  0  0  0  0  0  0
  185.4900  178.8630  142.8950 C   0  0  0  0  0  0  0  0  0  0  0  0
  190.1070  176.3130  139.6020 C   0  0  0  0  0  3  0  0  0  0  0  0
  185.6120  179.5590  141.5780 C   0  0  0  0  0  1  0  0  0  0  0  0
  191.4470  176.5820  139.8620 C   0  0  0  0  0  3  0  0  0  0  0  0
  186.5140  178.3260  143.6500 C   0  0  0  0  0  0  0  0  0  0  0  0
  189.9360  177.7630  144.6470 C   0  0  2  0  0  3  0  0  0  0  0  0
  184.3300  178.6420  143.5550 N   0  0  0  0  0  0  0  0  0  0  0  0
  185.8840  177.7720  144.7280 C   0  0  0  0  0  0  0  0  0  0  0  0
  191.2780  178.7180  142.8800 N   0  0  0  0  0  2  0  0  0  0  0  0
  187.8760  178.1160  143.4160 C   0  0  1  0  0  3  0  0  0  0  0  0
  189.1180  176.8600  140.4200 C   0  0  0  0  0  3  0  0  0  0  0  0
  186.5420  177.0270  145.6470 N   0  0  0  0  0  0  0  0  0  0  0  0
  191.7950  177.3930  140.9420 C   0  0  0  0  0  3  0  0  0  0  0  0
  190.8140  177.9380  141.7790 C   0  0  0  0  0  0  0  0  0  0  0  0
  189.4420  177.6630  141.5230 C   0  0  0  0  0  0  0  0  0  0  0  0
  192.3710  175.4890  147.3690 C   0  0  0  0  0  3  0  0  0  0  0  0
  190.8030  177.0000  145.5880 C   0  0  0  0  0  0  0  0  0  0  0  0
  190.8130  177.2970  146.9620 C   0  0  0  0  0  3  0  0  0  0  0  0
  191.5970  176.5510  147.8460 C   0  0  0  0  0  3  0  0  0  0  0  0
  192.3570  175.1720  146.0090 C   0  0  0  0  0  3  0  0  0  0  0  0
  191.5740  175.9190  145.1250 C   0  0  0  0  0  3  0  0  0  0  0  0
  1 12  1  0  0  0  0
  2 12  1  0  0  0  0
  2  6  1  1  0  0  0
  4 14  2  0  0  0  0
  5 13  1  0  0  0  0
  6 18  2  0  0  0  0
  7 13  1  0  0  0  0
  7 11  2  0  0  0  0
  8 10  2  0  0  0  0
  8 17  1  0  0  0  0
  9  7  1  0  0  0  0
 10 19  1  0  0  0  0
 11 14  1  0  0  0  0
 12 23  1  1  0  0  0
 13  4  1  0  0  0  0
 14 18  1  0  0  0  0
 15  1  1  0  0  0  0
 16  3  1  6  0  0  0
 16 11  1  0  0  0  0
 16  2  1  0  0  0  0
 17 21  2  0  0  0  0
 19 20  2  0  0  0  0
 20 15  1  0  0  0  0
 21 20  1  0  0  0  0
 21  3  1  0  0  0  0
 22 25  1  0  0  0  0
 23 24  1  0  0  0  0
 24 25  2  0  0  0  0
 26 22  2  0  0  0  0
 27 23  2  0  0  0  0
 27 26  1  0  0  0  0
M  END
>  <MODEL>
3

>  <REMARK>
 VINA RESULT:      -7.5      2.385      5.110
  Name = 
  1 active torsions:
  status: ('A' for Active; 'I' for Inactive)
    1  A    between atoms: C_9  and  C_15
                            x       y       z     vdW  Elec       q    Type
                         _______ _______ _______ _____ _____    ______ ____

>  <TORSDO>
F 1

$$$$
=
 OpenBabel10272401033D

 27 31  0  0  1  0  0  0  0  0999 V2000
  189.3590  179.0790  138.6700 C   0  0  0  0  0  2  0  0  0  0  0  0
  188.8000  177.3430  140.2920 C   0  0  2  0  0  3  0  0  0  0  0  0
  186.6940  178.4000  139.7180 N   0  0  0  0  0  2  0  0  0  0  0  0
  187.2500  177.3620  144.0820 N   0  0  0  0  0  0  0  0  0  0  0  0
  185.2780  178.5050  144.9790 C   0  0  0  0  0  1  0  0  0  0  0  0
  189.3910  176.5250  141.2950 C   0  0  0  0  0  3  0  0  0  0  0  0
  186.1470  178.6040  142.6350 C   0  0  0  0  0  0  0  0  0  0  0  0
  184.9660  177.0270  136.7370 C   0  0  0  0  0  3  0  0  0  0  0  0
  185.0840  179.4950  142.0800 C   0  0  0  0  0  1  0  0  0  0  0  0
  185.8060  177.3830  135.6860 C   0  0  0  0  0  3  0  0  0  0  0  0
  187.2180  178.0630  141.9530 C   0  0  0  0  0  0  0  0  0  0  0  0
  189.5460  177.6920  139.2210 C   0  0  2  0  0  3  0  0  0  0  0  0
  186.2140  178.1770  143.9170 N   0  0  0  0  0  0  0  0  0  0  0  0
  187.8600  177.2970  142.8860 C   0  0  0  0  0  0  0  0  0  0  0  0
  188.6330  179.0230  137.4230 N   0  0  0  0  0  2  0  0  0  0  0  0
  187.5810  178.0220  140.6040 C   0  0  1  0  0  3  0  0  0  0  0  0
  185.3200  177.3490  138.0480 C   0  0  0  0  0  3  0  0  0  0  0  0
  188.9000  176.4920  142.5680 N   0  0  0  0  0  0  0  0  0  0  0  0
  186.9990  178.0560  135.9500 C   0  0  0  0  0  3  0  0  0  0  0  0
  187.3740  178.3740  137.2610 C   0  0  0  0  0  0  0  0  0  0  0  0
  186.5230  178.0080  138.3410 C   0  0  0  0  0  0  0  0  0  0  0  0
  192.8820  175.4330  137.7140 C   0  0  0  0  0  3  0  0  0  0  0  0
  190.6960  176.8860  138.7230 C   0  0  0  0  0  0  0  0  0  0  0  0
  190.4930  175.7850  137.8740 C   0  0  0  0  0  3  0  0  0  0  0  0
  191.5770  175.0590  137.3770 C   0  0  0  0  0  3  0  0  0  0  0  0
  193.1000  176.5350  138.5430 C   0  0  0  0  0  3  0  0  0  0  0  0
  192.0140  177.2600  139.0410 C   0  0  0  0  0  3  0  0  0  0  0  0
  1 12  1  0  0  0  0
  2 16  1  0  0  0  0
  2  6  1  1  0  0  0
  6 18  2  0  0  0  0
  7 13  1  0  0  0  0
  8 17  1  0  0  0  0
  9  7  1  0  0  0  0
 10 19  1  0  0  0  0
 10  8  2  0  0  0  0
 11  7  2  0  0  0  0
 11 14  1  0  0  0  0
 12 23  1  1  0  0  0
 12  2  1  0  0  0  0
 13  4  1  0  0  0  0
 13  5  1  0  0  0  0
 14  4  2  0  0  0  0
 15  1  1  0  0  0  0
 16  3  1  6  0  0  0
 16 11  1  0  0  0  0
 17 21  2  0  0  0  0
 18 14  1  0  0  0  0
 19 20  2  0  0  0  0
 20 15  1  0  0  0  0
 20 21  1  0  0  0  0
 21  3  1  0  0  0  0
 22 26  1  0  0  0  0
 23 27  1  0  0  0  0
 24 23  2  0  0  0  0
 25 22  2  0  0  0  0
 25 24  1  0  0  0  0
 26 27  2  0  0  0  0
M  END
>  <MODEL>
4

>  <REMARK>
 VINA RESULT:      -7.2      2.937      6.290
  Name = 
  1 active torsions:
  status: ('A' for Active; 'I' for Inactive)
    1  A    between atoms: C_9  and  C_15
                            x       y       z     vdW  Elec       q    Type
                         _______ _______ _______ _____ _____    ______ ____

>  <TORSDO>
F 1

$$$$
=
 OpenBabel10272401033D

 27 31  0  0  1  0  0  0  0  0999 V2000
  188.0300  175.9200  144.1580 C   0  0  0  0  0  2  0  0  0  0  0  0
  189.8140  177.4080  143.4100 C   0  0  2  0  0  3  0  0  0  0  0  0
  188.2000  177.3620  141.5990 N   0  0  0  0  0  2  0  0  0  0  0  0
  192.5470  177.2890  140.3630 N   0  0  0  0  0  0  0  0  0  0  0  0
  192.2360  176.8430  137.9750 C   0  0  0  0  0  1  0  0  0  0  0  0
  191.1720  177.7390  143.6730 C   0  0  0  0  0  3  0  0  0  0  0  0
  190.4770  176.8520  139.7530 C   0  0  0  0  0  0  0  0  0  0  0  0
  185.4290  179.8140  141.8530 C   0  0  0  0  0  3  0  0  0  0  0  0
  189.3130  176.5530  138.8640 C   0  0  0  0  0  1  0  0  0  0  0  0
  184.7000  179.3630  142.9500 C   0  0  0  0  0  3  0  0  0  0  0  0
  190.4490  177.0570  141.1180 C   0  0  0  0  0  0  0  0  0  0  0  0
  189.0350  177.0030  144.4370 C   0  0  2  0  0  3  0  0  0  0  0  0
  191.7590  176.9780  139.3410 N   0  0  0  0  0  0  0  0  0  0  0  0
  191.7480  177.3340  141.4430 C   0  0  0  0  0  0  0  0  0  0  0  0
  186.6990  176.4780  144.1240 N   0  0  0  0  0  2  0  0  0  0  0  0
  189.4190  177.2020  142.0500 C   0  0  1  0  0  3  0  0  0  0  0  0
  186.5930  179.1460  141.4720 C   0  0  0  0  0  3  0  0  0  0  0  0
  192.1140  177.7230  142.6860 N   0  0  0  0  0  0  0  0  0  0  0  0
  185.1410  178.2490  143.6650 C   0  0  0  0  0  3  0  0  0  0  0  0
  186.3140  177.5770  143.3020 C   0  0  0  0  0  0  0  0  0  0  0  0
  187.0670  178.0360  142.1850 C   0  0  0  0  0  0  0  0  0  0  0  0
  189.7300  178.0120  148.5610 C   0  0  0  0  0  3  0  0  0  0  0  0
  189.2850  177.3850  145.8560 C   0  0  0  0  0  0  0  0  0  0  0  0
  188.3230  178.0950  146.5930 C   0  0  0  0  0  3  0  0  0  0  0  0
  188.5450  178.4130  147.9350 C   0  0  0  0  0  3  0  0  0  0  0  0
  190.6880  177.2910  147.8450 C   0  0  0  0  0  3  0  0  0  0  0  0
  190.4650  176.9750  146.5030 C   0  0  0  0  0  3  0  0  0  0  0  0
  1 12  1  0  0  0  0
  2  6  1  1  0  0  0
  2 12  1  0  0  0  0
  3 16  1  0  0  0  0
  3 21  1  0  0  0  0
  4 14  2  0  0  0  0
  5 13  1  0  0  0  0
  7 11  2  0  0  0  0
  8 10  1  0  0  0  0
  9  7  1  0  0  0  0
 10 19  2  0  0  0  0
 11 14  1  0  0  0  0
 12 23  1  1  0  0  0
 13  7  1  0  0  0  0
 13  4  1  0  0  0  0
 14 18  1  0  0  0  0
 15  1  1  0  0  0  0
 16 11  1  6  0  0  0
 16  2  1  0  0  0  0
 17  8  2  0  0  0  0
 17 21  1  0  0  0  0
 18  6  2  0  0  0  0
 20 19  1  0  0  0  0
 20 15  1  0  0  0  0
 21 20  2  0  0  0  0
 23 27  2  0  0  0  0
 23 24  1  0  0  0  0
 24 25  2  0  0  0  0
 25 22  1  0  0  0  0
 26 22  2  0  0  0  0
 27 26  1  0  0  0  0
M  END
>  <MODEL>
5

>  <REMARK>
 VINA RESULT:      -7.0      2.698      5.948
  Name = 
  1 active torsions:
  status: ('A' for Active; 'I' for Inactive)
    1  A    between atoms: C_9  and  C_15
                            x       y       z     vdW  Elec       q    Type
                         _______ _______ _______ _____ _____    ______ ____

>  <TORSDO>
F 1

$$$$
=
 OpenBabel10272401033D

 27 31  0  0  1  0  0  0  0  0999 V2000
  182.9830  177.1800  140.9080 C   0  0  0  0  0  2  0  0  0  0  0  0
  185.0120  178.4140  140.3490 C   0  0  2  0  0  3  0  0  0  0  0  0
  183.5540  178.6510  138.4250 N   0  0  0  0  0  2  0  0  0  0  0  0
  187.9300  177.9850  137.5080 N   0  0  0  0  0  0  0  0  0  0  0  0
  187.7460  177.6540  135.0880 C   0  0  0  0  0  1  0  0  0  0  0  0
  186.3790  178.5380  140.7240 C   0  0  0  0  0  3  0  0  0  0  0  0
  185.8720  177.8680  136.7320 C   0  0  0  0  0  0  0  0  0  0  0  0
  181.1480  181.4690  138.5690 C   0  0  0  0  0  3  0  0  0  0  0  0
  184.7500  177.7650  135.7500 C   0  0  0  0  0  1  0  0  0  0  0  0
  180.2790  181.0980  139.5910 C   0  0  0  0  0  3  0  0  0  0  0  0
  185.7680  178.0370  138.0980 C   0  0  0  0  0  0  0  0  0  0  0  0
  184.1070  178.0980  141.3000 C   0  0  2  0  0  3  0  0  0  0  0  0
  187.1870  177.8180  136.4200 N   0  0  0  0  0  0  0  0  0  0  0  0
  187.0630  178.1150  138.5280 C   0  0  0  0  0  0  0  0  0  0  0  0
  181.7500  177.9240  140.7980 N   0  0  0  0  0  2  0  0  0  0  0  0
  184.6990  178.3050  138.9570 C   0  0  1  0  0  3  0  0  0  0  0  0
  182.2310  180.6510  138.2480 C   0  0  0  0  0  3  0  0  0  0  0  0
  187.3830  178.4130  139.8080 N   0  0  0  0  0  0  0  0  0  0  0  0
  180.5000  179.9130  140.2930 C   0  0  0  0  0  3  0  0  0  0  0  0
  181.5910  179.0890  139.9920 C   0  0  0  0  0  0  0  0  0  0  0  0
  182.4860  179.4640  138.9510 C   0  0  0  0  0  0  0  0  0  0  0  0
  184.6410  178.8750  145.4980 C   0  0  0  0  0  3  0  0  0  0  0  0
  184.2970  178.4010  142.7470 C   0  0  0  0  0  0  0  0  0  0  0  0
  183.2450  178.9210  143.5210 C   0  0  0  0  0  3  0  0  0  0  0  0
  183.4170  179.1630  144.8860 C   0  0  0  0  0  3  0  0  0  0  0  0
  185.6890  178.3420  144.7450 C   0  0  0  0  0  3  0  0  0  0  0  0
  185.5170  178.1010  143.3800 C   0  0  0  0  0  3  0  0  0  0  0  0
  1 12  1  0  0  0  0
  2  6  1  6  0  0  0
  2 12  1  0  0  0  0
  3 21  1  0  0  0  0
  3 16  1  0  0  0  0
  4 14  2  0  0  0  0
  5 13  1  0  0  0  0
  7 11  2  0  0  0  0
  8 10  1  0  0  0  0
  9  7  1  0  0  0  0
 10 19  2  0  0  0  0
 11 14  1  0  0  0  0
 12 23  1  1  0  0  0
 13  7  1  0  0  0  0
 13  4  1  0  0  0  0
 14 18  1  0  0  0  0
 15  1  1  0  0  0  0
 16 11  1  6  0  0  0
 16  2  1  0  0  0  0
 17  8  2  0  0  0  0
 17 21  1  0  0  0  0
 18  6  2  0  0  0  0
 20 19  1  0  0  0  0
 20 15  1  0  0  0  0
 21 20  2  0  0  0  0
 23 27  2  0  0  0  0
 23 24  1  0  0  0  0
 24 25  2  0  0  0  0
 25 22  1  0  0  0  0
 26 22  2  0  0  0  0
 27 26  1  0  0  0  0
M  END
>  <MODEL>
6

>  <REMARK>
 VINA RESULT:      -6.9      3.049      6.725
  Name = 
  1 active torsions:
  status: ('A' for Active; 'I' for Inactive)
    1  A    between atoms: C_9  and  C_15
                            x       y       z     vdW  Elec       q    Type
                         _______ _______ _______ _____ _____    ______ ____

>  <TORSDO>
F 1

$$$$
=
 OpenBabel10272401033D

 27 31  0  0  1  0  0  0  0  0999 V2000
  187.9380  175.7930  143.7210 C   0  0  0  0  0  2  0  0  0  0  0  0
  189.4910  177.3170  142.6160 C   0  0  2  0  0  3  0  0  0  0  0  0
  187.3420  177.6940  141.5560 N   0  0  0  0  0  2  0  0  0  0  0  0
  190.9200  177.6690  138.7950 N   0  0  0  0  0  0  0  0  0  0  0  0
  189.7270  177.7090  136.6570 C   0  0  0  0  0  1  0  0  0  0  0  0
  190.8810  177.5300  142.4050 C   0  0  0  0  0  3  0  0  0  0  0  0
  188.7330  177.4500  138.9380 C   0  0  0  0  0  0  0  0  0  0  0  0
  185.1400  180.1700  143.2220 C   0  0  0  0  0  3  0  0  0  0  0  0
  187.3030  177.3820  138.5110 C   0  0  0  0  0  1  0  0  0  0  0  0
  184.8060  179.5480  144.4210 C   0  0  0  0  0  3  0  0  0  0  0  0
  189.2200  177.3880  140.2280 C   0  0  0  0  0  0  0  0  0  0  0  0
  189.0910  176.7560  143.7780 C   0  0  2  0  0  3  0  0  0  0  0  0
  189.7880  177.5970  138.1040 N   0  0  0  0  0  0  0  0  0  0  0  0
  190.5710  177.5390  140.0870 C   0  0  0  0  0  0  0  0  0  0  0  0
  186.7540  176.4040  144.2770 N   0  0  0  0  0  2  0  0  0  0  0  0
  188.6140  177.3960  141.4880 C   0  0  1  0  0  3  0  0  0  0  0  0
  186.0070  179.5380  142.3300 C   0  0  0  0  0  3  0  0  0  0  0  0
  191.3990  177.6630  141.1500 N   0  0  0  0  0  0  0  0  0  0  0  0
  185.3450  178.2980  144.7280 C   0  0  0  0  0  3  0  0  0  0  0  0
  186.2270  177.6580  143.8490 C   0  0  0  0  0  0  0  0  0  0  0  0
  186.5770  178.2910  142.6230 C   0  0  0  0  0  0  0  0  0  0  0  0
  191.3280  176.9130  147.4500 C   0  0  0  0  0  3  0  0  0  0  0  0
  189.8740  176.8430  145.0440 C   0  0  0  0  0  0  0  0  0  0  0  0
  189.3090  177.3970  146.2050 C   0  0  0  0  0  3  0  0  0  0  0  0
  190.0330  177.4390  147.3990 C   0  0  0  0  0  3  0  0  0  0  0  0
  191.8950  176.3440  146.3080 C   0  0  0  0  0  3  0  0  0  0  0  0
  191.1710  176.3050  145.1130 C   0  0  0  0  0  3  0  0  0  0  0  0
  1 12  1  0  0  0  0
  1 15  1  0  0  0  0
  2  6  1  6  0  0  0
  2 12  1  0  0  0  0
  3 21  1  0  0  0  0
  4 14  2  0  0  0  0
  5 13  1  0  0  0  0
  7 11  2  0  0  0  0
  8 10  1  0  0  0  0
  9  7  1  0  0  0  0
 10 19  2  0  0  0  0
 12 23  1  6  0  0  0
 13  4  1  0  0  0  0
 13  7  1  0  0  0  0
 14 11  1  0  0  0  0
 14 18  1  0  0  0  0
 16 11  1  6  0  0  0
 16  3  1  0  0  0  0
 16  2  1  0  0  0  0
 17 21  1  0  0  0  0
 17  8  2  0  0  0  0
 18  6  2  0  0  0  0
 20 15  1  0  0  0  0
 20 19  1  0  0  0  0
 21 20  2  0  0  0  0
 23 27  2  0  0  0  0
 23 24  1  0  0  0  0
 24 25  2  0  0  0  0
 25 22  1  0  0  0  0
 26 22  2  0  0  0  0
 27 26  1  0  0  0  0
M  END
>  <MODEL>
7

>  <REMARK>
 VINA RESULT:      -6.9      2.737      4.874
  Name = 
  1 active torsions:
  status: ('A' for Active; 'I' for Inactive)
    1  A    between atoms: C_9  and  C_15
                            x       y       z     vdW  Elec       q    Type
                         _______ _______ _______ _____ _____    ______ ____

>  <TORSDO>
F 1

$$$$
=
 OpenBabel10272401033D

 27 31  0  0  1  0  0  0  0  0999 V2000
  189.1130  178.7460  137.6610 C   0  0  0  0  0  2  0  0  0  0  0  0
  189.7290  176.4040  137.3540 C   0  0  2  0  0  3  0  0  0  0  0  0
  190.8190  177.1020  139.4060 N   0  0  0  0  0  2  0  0  0  0  0  0
  193.2590  174.4390  136.6880 N   0  0  0  0  0  0  0  0  0  0  0  0
  195.4080  174.6090  137.8510 C   0  0  0  0  0  1  0  0  0  0  0  0
  189.7890  175.3900  136.3590 C   0  0  0  0  0  3  0  0  0  0  0  0
  193.3210  175.9000  138.3350 C   0  0  0  0  0  0  0  0  0  0  0  0
  188.7840  176.7970  142.4910 C   0  0  0  0  0  3  0  0  0  0  0  0
  193.8500  176.6790  139.4960 C   0  0  0  0  0  1  0  0  0  0  0  0
  187.7860  177.7500  142.3130 C   0  0  0  0  0  3  0  0  0  0  0  0
  192.0490  175.9620  137.8020 C   0  0  0  0  0  0  0  0  0  0  0  0
  188.7570  177.3390  137.2680 C   0  0  2  0  0  3  0  0  0  0  0  0
  194.0240  174.9900  137.6230 N   0  0  0  0  0  0  0  0  0  0  0  0
  192.0580  175.0350  136.7980 C   0  0  0  0  0  0  0  0  0  0  0  0
  188.5140  179.0710  138.9340 N   0  0  0  0  0  2  0  0  0  0  0  0
  190.8660  176.5900  138.2020 C   0  0  1  0  0  3  0  0  0  0  0  0
  189.7350  176.5930  141.4910 C   0  0  0  0  0  3  0  0  0  0  0  0
  190.9410  174.7030  136.1100 N   0  0  0  0  0  0  0  0  0  0  0  0
  187.7380  178.4930  141.1340 C   0  0  0  0  0  3  0  0  0  0  0  0
  188.6780  178.2900  140.1160 C   0  0  0  0  0  0  0  0  0  0  0  0
  189.6980  177.3140  140.2880 C   0  0  0  0  0  0  0  0  0  0  0  0
  184.9700  176.7630  135.3100 C   0  0  0  0  0  3  0  0  0  0  0  0
  187.4550  177.1070  136.5810 C   0  0  0  0  0  0  0  0  0  0  0  0
  186.4070  176.4300  137.2290 C   0  0  0  0  0  3  0  0  0  0  0  0
  185.1750  176.2530  136.5960 C   0  0  0  0  0  3  0  0  0  0  0  0
  185.9960  177.4530  134.6610 C   0  0  0  0  0  3  0  0  0  0  0  0
  187.2290  177.6290  135.2950 C   0  0  0  0  0  3  0  0  0  0  0  0
  1 15  1  0  0  0  0
  2  6  1  6  0  0  0
  2 16  1  0  0  0  0
  3 21  1  0  0  0  0
  4 14  2  0  0  0  0
  4 13  1  0  0  0  0
  7  9  1  0  0  0  0
 10  8  1  0  0  0  0
 11  7  2  0  0  0  0
 12 23  1  6  0  0  0
 12  2  1  0  0  0  0
 12  1  1  0  0  0  0
 13  5  1  0  0  0  0
 13  7  1  0  0  0  0
 14 11  1  0  0  0  0
 15 20  1  0  0  0  0
 16 11  1  1  0  0  0
 16  3  1  0  0  0  0
 17  8  2  0  0  0  0
 18  6  2  0  0  0  0
 18 14  1  0  0  0  0
 19 10  2  0  0  0  0
 20 21  2  0  0  0  0
 20 19  1  0  0  0  0
 21 17  1  0  0  0  0
 22 25  1  0  0  0  0
 23 24  1  0  0  0  0
 25 24  2  0  0  0  0
 26 27  1  0  0  0  0
 26 22  2  0  0  0  0
 27 23  2  0  0  0  0
M  END
>  <MODEL>
8

>  <REMARK>
 VINA RESULT:      -6.7      4.910      8.518
  Name = 
  1 active torsions:
  status: ('A' for Active; 'I' for Inactive)
    1  A    between atoms: C_9  and  C_15
                            x       y       z     vdW  Elec       q    Type
                         _______ _______ _______ _____ _____    ______ ____

>  <TORSDO>
F 1

$$$$
=
 OpenBabel10272401033D

 27 31  0  0  1  0  0  0  0  0999 V2000
  187.7850  175.8360  143.7210 C   0  0  0  0  0  2  0  0  0  0  0  0
  188.7050  177.5140  145.2350 C   0  0  2  0  0  3  0  0  0  0  0  0
  190.6230  176.4490  144.2000 N   0  0  0  0  0  2  0  0  0  0  0  0
  191.0200  177.3590  148.6090 N   0  0  0  0  0  0  0  0  0  0  0  0
  193.1140  176.1630  149.0380 C   0  0  0  0  0  1  0  0  0  0  0  0
  188.3550  178.3080  146.3620 C   0  0  0  0  0  3  0  0  0  0  0  0
  191.7690  176.1480  146.9290 C   0  0  0  0  0  0  0  0  0  0  0  0
  191.7080  177.8920  140.9600 C   0  0  0  0  0  3  0  0  0  0  0  0
  192.6740  175.2610  146.1370 C   0  0  0  0  0  1  0  0  0  0  0  0
  190.6590  177.5790  140.1010 C   0  0  0  0  0  3  0  0  0  0  0  0
  190.5880  176.7230  146.5030 C   0  0  0  0  0  0  0  0  0  0  0  0
  187.7440  177.2070  144.3360 C   0  0  2  0  0  3  0  0  0  0  0  0
  191.9820  176.5360  148.2070 N   0  0  0  0  0  0  0  0  0  0  0  0
  190.1720  177.4690  147.5710 C   0  0  0  0  0  0  0  0  0  0  0  0
  188.2320  175.9210  142.3500 N   0  0  0  0  0  2  0  0  0  0  0  0
  189.9500  176.8100  145.2630 C   0  0  1  0  0  3  0  0  0  0  0  0
  191.6330  177.5340  142.3070 C   0  0  0  0  0  3  0  0  0  0  0  0
  189.1030  178.2960  147.5030 N   0  0  0  0  0  0  0  0  0  0  0  0
  189.5360  176.9130  140.5920 C   0  0  0  0  0  3  0  0  0  0  0  0
  189.4400  176.5600  141.9430 C   0  0  0  0  0  0  0  0  0  0  0  0
  190.5070  176.8810  142.8290 C   0  0  0  0  0  0  0  0  0  0  0  0
  184.1830  179.5380  143.7070 C   0  0  0  0  0  3  0  0  0  0  0  0
  186.5300  178.0430  144.1160 C   0  0  0  0  0  0  0  0  0  0  0  0
  186.1360  178.4160  142.8190 C   0  0  0  0  0  3  0  0  0  0  0  0
  184.9740  179.1640  142.6160 C   0  0  0  0  0  3  0  0  0  0  0  0
  184.5530  179.1590  144.9990 C   0  0  0  0  0  3  0  0  0  0  0  0
  185.7170  178.4130  145.2020 C   0  0  0  0  0  3  0  0  0  0  0  0
  1 12  1  0  0  0  0
  2 16  1  0  0  0  0
  2  6  1  1  0  0  0
  6 18  2  0  0  0  0
  7 13  1  0  0  0  0
  8 17  1  0  0  0  0
  9  7  1  0  0  0  0
 10 19  1  0  0  0  0
 10  8  2  0  0  0  0
 11  7  2  0  0  0  0
 11 14  1  0  0  0  0
 12 23  1  1  0  0  0
 12  2  1  0  0  0  0
 13  4  1  0  0  0  0
 13  5  1  0  0  0  0
 14  4  2  0  0  0  0
 15  1  1  0  0  0  0
 16  3  1  6  0  0  0
 16 11  1  0  0  0  0
 17 21  2  0  0  0  0
 18 14  1  0  0  0  0
 19 20  2  0  0  0  0
 20 15  1  0  0  0  0
 20 21  1  0  0  0  0
 21  3  1  0  0  0  0
 22 26  1  0  0  0  0
 23 27  1  0  0  0  0
 24 23  2  0  0  0  0
 25 24  1  0  0  0  0
 25 22  2  0  0  0  0
 26 27  2  0  0  0  0
M  END
>  <MODEL>
9

>  <REMARK>
 VINA RESULT:      -6.5      2.788      7.664
  Name = 
  1 active torsions:
  status: ('A' for Active; 'I' for Inactive)
    1  A    between atoms: C_9  and  C_15
                            x       y       z     vdW  Elec       q    Type
                         _______ _______ _______ _____ _____    ______ ____

>  <TORSDO>
F 1

$$$$
