=
 OpenBabel10272414503D

 37 41  0  0  1  0  0  0  0  0999 V2000
  184.6300  179.4040  142.3890 C   0  0  2  0  0  3  0  0  0  0  0  0
  183.2220  178.5810  144.7220 N   0  0  0  0  0  0  0  0  0  0  0  0
  185.1860  178.7690  141.1180 C   0  0  0  0  0  2  0  0  0  0  0  0
  185.3580  178.9470  143.6360 C   0  0  0  0  0  0  0  0  0  0  0  0
  183.9760  178.3270  140.2940 C   0  0  1  0  0  0  0  0  0  0  0  0
  181.1160  178.6990  143.6780 N   0  0  0  0  0  1  0  0  0  0  0  0
  181.6310  179.3680  140.4510 C   0  0  0  0  0  1  0  0  0  0  0  0
  182.5360  178.7970  143.6430 C   0  0  0  0  0  0  0  0  0  0  0  0
  183.2160  179.0640  142.4140 N   0  0  0  0  0  0  0  0  0  0  0  0
  184.6610  178.5960  144.7440 C   0  0  0  0  0  0  0  0  0  0  0  0
  183.1310  177.1340  140.7700 C   0  0  1  0  0  3  0  0  0  0  0  0
  182.7380  178.5720  141.1390 C   0  0  2  0  0  0  0  0  0  0  0  0
  180.7550  176.5570  139.8760 C   0  0  0  0  0  2  0  0  0  0  0  0
  182.2600  176.5280  139.7020 C   0  0  0  0  0  0  0  0  0  0  0  0
  182.8270  175.7810  138.7470 C   0  0  0  0  0  3  0  0  0  0  0  0
  182.5460  174.3900  136.8550 O   0  0  0  0  0  0  0  0  0  0  0  0
  180.5610  175.3530  137.7040 C   0  0  0  0  0  3  0  0  0  0  0  0
  182.0080  175.1200  137.7260 C   0  0  0  0  0  0  0  0  0  0  0  0
  179.9820  176.0470  138.6830 C   0  0  0  0  0  3  0  0  0  0  0  0
  185.3490  178.1860  146.0230 C   0  0  0  0  0  0  0  0  0  0  0  0
  186.2920  179.1320  146.3850 F   0  0  0  0  0  0  0  0  0  0  0  0
  184.4230  178.0760  147.0460 F   0  0  0  0  0  0  0  0  0  0  0  0
  185.9890  176.9730  145.8510 F   0  0  0  0  0  0  0  0  0  0  0  0
  184.5560  179.8910  138.9130 O   0  0  0  0  0  1  0  0  0  0  0  0
  183.8550  178.7760  138.9690 O   0  0  0  0  0  0  0  0  0  0  0  0
  186.8630  179.0060  143.6500 C   0  0  0  0  0  2  0  0  0  0  0  0
  188.3280  177.1420  143.9960 O   0  0  0  0  0  0  0  0  0  0  0  0
  189.3030  176.4680  143.2430 C   0  0  1  0  0  3  0  0  0  0  0  0
  188.2900  178.0770  141.8090 C   0  0  0  0  0  2  0  0  0  0  0  0
  189.5200  177.2280  141.9510 C   0  0  2  0  0  3  0  0  0  0  0  0
  187.4840  177.7500  143.0510 C   0  0  2  0  0  3  0  0  0  0  0  0
  190.6000  176.3490  144.0330 C   0  0  0  0  0  2  0  0  0  0  0  0
  191.6000  177.1420  143.4640 O   0  0  0  0  0  1  0  0  0  0  0  0
  189.7000  176.3510  140.8370 O   0  0  0  0  0  0  0  0  0  0  0  0
  190.6780  176.5130  139.8480 C   0  0  0  0  0  0  0  0  0  0  0  0
  191.5420  177.4200  139.9760 O   0  0  0  0  0  1  0  0  0  0  0  0
  190.7120  175.6920  138.7270 O   0  0  0  0  0  0  0  0  0  0  0  0
  1  3  1  6  0  0  0
  1  9  1  0  0  0  0
  1  4  1  0  0  0  0
  2 10  1  0  0  0  0
  4 26  1  0  0  0  0
  4 10  2  0  0  0  0
  5 25  1  6  0  0  0
  5 11  1  0  0  0  0
  5  3  1  0  0  0  0
  5 12  1  0  0  0  0
  8  6  1  0  0  0  0
  8  2  2  0  0  0  0
  9  8  1  0  0  0  0
 10 20  1  0  0  0  0
 11 14  1  6  0  0  0
 11 12  1  0  0  0  0
 12  7  1  6  0  0  0
 12  9  1  0  0  0  0
 14 13  1  0  0  0  0
 15 14  2  0  0  0  0
 16 18  2  0  0  0  0
 17 18  1  0  0  0  0
 17 19  2  0  0  0  0
 18 15  1  0  0  0  0
 19 13  1  0  0  0  0
 20 21  1  0  0  0  0
 20 22  1  0  0  0  0
 23 20  1  0  0  0  0
 24 25  1  0  0  0  0
 28 27  1  0  0  0  0
 28 32  1  1  0  0  0
 29 30  1  0  0  0  0
 29 31  1  0  0  0  0
 30 34  1  6  0  0  0
 30 28  1  0  0  0  0
 31 26  1  1  0  0  0
 31 27  1  0  0  0  0
 33 32  1  0  0  0  0
 35 36  1  0  0  0  0
 35 34  1  0  0  0  0
 37 35  2  0  0  0  0
M  END
>  <MODEL>
1

>  <REMARK>
 VINA RESULT:      -7.4      0.000      0.000
  Name = 
  8 active torsions:
  status: ('A' for Active; 'I' for Inactive)
    1  A    between atoms: C_3  and  C_30
    2  A    between atoms: C_5  and  C_12
    3  A    between atoms: C_6  and  C_31
    4  A    between atoms: C_11  and  O_26
    5  A    between atoms: C_13  and  C_20
    6  A    between atoms: C_14  and  O_27
    7  A    between atoms: C_20  and  C_36
    8  A    between atoms: O_26  and  C_33
                            x       y       z     vdW  Elec       q    Type
                         _______ _______ _______ _____ _____    ______ ____

>  <TORSDO>
F 8

$$$$
=
 OpenBabel10272414503D

 37 41  0  0  1  0  0  0  0  0999 V2000
  183.9850  179.1630  140.4840 C   0  0  2  0  0  3  0  0  0  0  0  0
  182.2160  178.7980  142.6840 N   0  0  0  0  0  0  0  0  0  0  0  0
  184.8240  178.2990  139.5480 C   0  0  0  0  0  2  0  0  0  0  0  0
  184.4890  179.1360  141.9120 C   0  0  0  0  0  0  0  0  0  0  0  0
  183.8330  177.5120  138.6870 C   0  0  1  0  0  0  0  0  0  0  0  0
  180.3500  178.3810  141.3110 N   0  0  0  0  0  1  0  0  0  0  0  0
  181.4320  178.2580  138.1580 C   0  0  0  0  0  1  0  0  0  0  0  0
  181.7390  178.6430  141.4880 C   0  0  0  0  0  0  0  0  0  0  0  0
  182.6230  178.6680  140.3650 N   0  0  0  0  0  0  0  0  0  0  0  0
  183.6180  178.9970  142.9410 C   0  0  0  0  0  0  0  0  0  0  0  0
  183.0050  176.3850  139.3250 C   0  0  1  0  0  3  0  0  0  0  0  0
  182.4400  177.8090  139.2130 C   0  0  2  0  0  0  0  0  0  0  0  0
  180.9060  175.2080  138.3310 C   0  0  0  0  0  2  0  0  0  0  0  0
  182.4060  175.4220  138.3350 C   0  0  0  0  0  0  0  0  0  0  0  0
  183.2170  174.6120  137.6450 C   0  0  0  0  0  3  0  0  0  0  0  0
  183.4390  172.8330  136.1020 O   0  0  0  0  0  0  0  0  0  0  0  0
  181.2240  173.5670  136.4850 C   0  0  0  0  0  3  0  0  0  0  0  0
  182.6710  173.6150  136.7180 C   0  0  0  0  0  0  0  0  0  0  0  0
  180.4060  174.3300  137.2100 C   0  0  0  0  0  3  0  0  0  0  0  0
  184.0730  179.0190  144.3800 C   0  0  0  0  0  0  0  0  0  0  0  0
  184.7210  177.8380  144.6960 F   0  0  0  0  0  0  0  0  0  0  0  0
  184.9500  180.0690  144.5840 F   0  0  0  0  0  0  0  0  0  0  0  0
  182.9850  179.1600  145.2210 F   0  0  0  0  0  0  0  0  0  0  0  0
  185.2320  177.6620  137.0400 O   0  0  0  0  0  1  0  0  0  0  0  0
  183.9390  177.5880  137.2890 O   0  0  0  0  0  0  0  0  0  0  0  0
  185.9530  179.3840  142.1610 C   0  0  0  0  0  2  0  0  0  0  0  0
  187.0310  177.6670  143.4390 O   0  0  0  0  0  0  0  0  0  0  0  0
  188.2340  176.9480  143.3550 C   0  0  1  0  0  3  0  0  0  0  0  0
  188.0720  178.2840  141.3910 C   0  0  0  0  0  2  0  0  0  0  0  0
  189.0620  177.5300  142.2290 C   0  0  2  0  0  3  0  0  0  0  0  0
  186.7590  178.0910  142.1270 C   0  0  2  0  0  3  0  0  0  0  0  0
  188.9860  177.0100  144.6780 C   0  0  0  0  0  2  0  0  0  0  0  0
  188.2580  177.7300  145.6280 O   0  0  0  0  0  1  0  0  0  0  0  0
  189.7390  176.5160  141.4820 O   0  0  0  0  0  0  0  0  0  0  0  0
  190.6320  176.7650  140.4330 C   0  0  0  0  0  0  0  0  0  0  0  0
  190.4810  176.1640  139.3380 O   0  0  0  0  0  0  0  0  0  0  0  0
  191.6830  177.6630  140.5790 O   0  0  0  0  0  1  0  0  0  0  0  0
  1  3  1  6  0  0  0
  1  4  1  0  0  0  0
  2 10  1  0  0  0  0
  4 26  1  0  0  0  0
  4 10  2  0  0  0  0
  5 25  1  6  0  0  0
  5 12  1  0  0  0  0
  5 11  1  0  0  0  0
  5  3  1  0  0  0  0
  6  8  1  0  0  0  0
  8  2  2  0  0  0  0
  9  1  1  0  0  0  0
  9  8  1  0  0  0  0
 10 20  1  0  0  0  0
 11 14  1  6  0  0  0
 12  7  1  6  0  0  0
 12 11  1  0  0  0  0
 12  9  1  0  0  0  0
 13 14  1  0  0  0  0
 15 14  2  0  0  0  0
 16 18  2  0  0  0  0
 17 18  1  0  0  0  0
 17 19  2  0  0  0  0
 18 15  1  0  0  0  0
 19 13  1  0  0  0  0
 20 22  1  0  0  0  0
 20 21  1  0  0  0  0
 20 23  1  0  0  0  0
 24 25  1  0  0  0  0
 28 27  1  0  0  0  0
 28 32  1  1  0  0  0
 29 31  1  0  0  0  0
 29 30  1  0  0  0  0
 30 34  1  6  0  0  0
 30 28  1  0  0  0  0
 31 26  1  1  0  0  0
 31 27  1  0  0  0  0
 32 33  1  0  0  0  0
 35 37  1  0  0  0  0
 35 34  1  0  0  0  0
 36 35  2  0  0  0  0
M  END
>  <MODEL>
2

>  <REMARK>
 VINA RESULT:      -7.3      1.543      2.157
  Name = 
  8 active torsions:
  status: ('A' for Active; 'I' for Inactive)
    1  A    between atoms: C_3  and  C_30
    2  A    between atoms: C_5  and  C_12
    3  A    between atoms: C_6  and  C_31
    4  A    between atoms: C_11  and  O_26
    5  A    between atoms: C_13  and  C_20
    6  A    between atoms: C_14  and  O_27
    7  A    between atoms: C_20  and  C_36
    8  A    between atoms: O_26  and  C_33
                            x       y       z     vdW  Elec       q    Type
                         _______ _______ _______ _____ _____    ______ ____

>  <TORSDO>
F 8

$$$$
=
 OpenBabel10272414503D

 37 41  0  0  1  0  0  0  0  0999 V2000
  188.8090  178.5960  139.1900 C   0  0  2  0  0  3  0  0  0  0  0  0
  185.9920  178.2500  138.9670 N   0  0  0  0  0  0  0  0  0  0  0  0
  190.0390  177.7330  139.4480 C   0  0  0  0  0  2  0  0  0  0  0  0
  187.8990  178.6900  140.3980 C   0  0  0  0  0  0  0  0  0  0  0  0
  190.1960  176.8320  138.2210 C   0  0  1  0  0  0  0  0  0  0  0  0
  186.0950  177.6270  136.6990 N   0  0  0  0  0  1  0  0  0  0  0  0
  189.3170  177.3840  135.8700 C   0  0  0  0  0  1  0  0  0  0  0  0
  186.7200  177.9900  137.9260 C   0  0  0  0  0  0  0  0  0  0  0  0
  188.1450  178.0050  138.0380 N   0  0  0  0  0  0  0  0  0  0  0  0
  186.5570  178.5570  140.2540 C   0  0  0  0  0  0  0  0  0  0  0  0
  189.1900  175.6940  137.9850 C   0  0  1  0  0  3  0  0  0  0  0  0
  188.9910  177.0680  137.3290 C   0  0  2  0  0  0  0  0  0  0  0  0
  188.6580  173.9260  136.1500 C   0  0  0  0  0  2  0  0  0  0  0  0
  189.6680  174.6340  137.0290 C   0  0  0  0  0  0  0  0  0  0  0  0
  190.9230  174.1810  137.1360 C   0  0  0  0  0  3  0  0  0  0  0  0
  192.5770  172.6600  136.3990 O   0  0  0  0  0  0  0  0  0  0  0  0
  190.5330  172.5820  135.2130 C   0  0  0  0  0  3  0  0  0  0  0  0
  191.4090  173.1050  136.2660 C   0  0  0  0  0  0  0  0  0  0  0  0
  189.2650  172.9860  135.1370 C   0  0  0  0  0  3  0  0  0  0  0  0
  185.6130  178.6960  141.4220 C   0  0  0  0  0  0  0  0  0  0  0  0
  185.7760  177.6390  142.3010 F   0  0  0  0  0  0  0  0  0  0  0  0
  185.8680  179.8740  142.1010 F   0  0  0  0  0  0  0  0  0  0  0  0
  184.3030  178.6970  140.9780 F   0  0  0  0  0  0  0  0  0  0  0  0
  192.3470  176.8920  138.4670 O   0  0  0  0  0  1  0  0  0  0  0  0
  191.4190  176.8290  137.5320 O   0  0  0  0  0  0  0  0  0  0  0  0
  188.5070  179.0490  141.7280 C   0  0  0  0  0  2  0  0  0  0  0  0
  188.1060  177.5840  143.5820 O   0  0  0  0  0  0  0  0  0  0  0  0
  188.8930  176.9320  144.5440 C   0  0  1  0  0  3  0  0  0  0  0  0
  190.3800  177.9810  143.0090 C   0  0  0  0  0  2  0  0  0  0  0  0
  190.3230  177.4060  144.3940 C   0  0  2  0  0  3  0  0  0  0  0  0
  188.9640  177.8120  142.4920 C   0  0  2  0  0  3  0  0  0  0  0  0
  188.3660  177.2140  145.9450 C   0  0  0  0  0  2  0  0  0  0  0  0
  187.1090  177.8200  145.8880 O   0  0  0  0  0  1  0  0  0  0  0  0
  191.2620  176.3430  144.5740 O   0  0  0  0  0  0  0  0  0  0  0  0
  191.8690  176.0160  145.7920 C   0  0  0  0  0  0  0  0  0  0  0  0
  192.3850  174.8780  145.9400 O   0  0  0  0  0  0  0  0  0  0  0  0
  191.9130  176.9260  146.8420 O   0  0  0  0  0  1  0  0  0  0  0  0
  1  3  1  1  0  0  0
  1  4  1  0  0  0  0
  2 10  1  0  0  0  0
  4 26  1  0  0  0  0
  5 25  1  6  0  0  0
  5  3  1  0  0  0  0
  6  8  1  0  0  0  0
  8  9  1  0  0  0  0
  8  2  2  0  0  0  0
  9  1  1  0  0  0  0
 10  4  2  0  0  0  0
 10 20  1  0  0  0  0
 11 14  1  6  0  0  0
 11  5  1  0  0  0  0
 12  7  1  6  0  0  0
 12 11  1  0  0  0  0
 12  9  1  0  0  0  0
 12  5  1  0  0  0  0
 13 14  1  0  0  0  0
 14 15  2  0  0  0  0
 17 18  1  0  0  0  0
 18 16  2  0  0  0  0
 18 15  1  0  0  0  0
 19 17  2  0  0  0  0
 19 13  1  0  0  0  0
 20 22  1  0  0  0  0
 20 21  1  0  0  0  0
 23 20  1  0  0  0  0
 25 24  1  0  0  0  0
 27 28  1  0  0  0  0
 28 32  1  1  0  0  0
 29 30  1  0  0  0  0
 30 28  1  0  0  0  0
 30 34  1  6  0  0  0
 31 26  1  1  0  0  0
 31 29  1  0  0  0  0
 31 27  1  0  0  0  0
 33 32  1  0  0  0  0
 34 35  1  0  0  0  0
 35 36  2  0  0  0  0
 35 37  1  0  0  0  0
M  END
>  <MODEL>
3

>  <REMARK>
 VINA RESULT:      -6.9      4.163      6.650
  Name = 
  8 active torsions:
  status: ('A' for Active; 'I' for Inactive)
    1  A    between atoms: C_3  and  C_30
    2  A    between atoms: C_5  and  C_12
    3  A    between atoms: C_6  and  C_31
    4  A    between atoms: C_11  and  O_26
    5  A    between atoms: C_13  and  C_20
    6  A    between atoms: C_14  and  O_27
    7  A    between atoms: C_20  and  C_36
    8  A    between atoms: O_26  and  C_33
                            x       y       z     vdW  Elec       q    Type
                         _______ _______ _______ _____ _____    ______ ____

>  <TORSDO>
F 8

$$$$
=
 OpenBabel10272414503D

 37 41  0  0  1  0  0  0  0  0999 V2000
  185.6270  178.3680  137.7350 C   0  0  2  0  0  3  0  0  0  0  0  0
  183.5780  176.4750  137.1680 N   0  0  0  0  0  0  0  0  0  0  0  0
  186.9660  178.4030  138.4640 C   0  0  0  0  0  2  0  0  0  0  0  0
  184.4570  178.1590  138.6750 C   0  0  0  0  0  0  0  0  0  0  0  0
  187.9240  177.5350  137.6460 C   0  0  1  0  0  0  0  0  0  0  0  0
  184.6880  175.6100  135.2820 N   0  0  0  0  0  1  0  0  0  0  0  0
  187.6900  177.0570  135.1320 C   0  0  0  0  0  1  0  0  0  0  0  0
  184.6280  176.4790  136.4080 C   0  0  0  0  0  0  0  0  0  0  0  0
  185.7430  177.3070  136.7470 N   0  0  0  0  0  0  0  0  0  0  0  0
  183.4770  177.2760  138.3590 C   0  0  0  0  0  0  0  0  0  0  0  0
  187.7360  176.0090  137.6310 C   0  0  1  0  0  3  0  0  0  0  0  0
  187.1140  176.8890  136.5360 C   0  0  2  0  0  0  0  0  0  0  0  0
  188.7590  174.0660  136.2330 C   0  0  0  0  0  2  0  0  0  0  0  0
  188.9470  175.2420  137.1690 C   0  0  0  0  0  0  0  0  0  0  0  0
  190.1230  175.4630  137.7680 C   0  0  0  0  0  3  0  0  0  0  0  0
  192.4050  174.8800  137.9860 O   0  0  0  0  0  0  0  0  0  0  0  0
  191.2270  173.7290  136.2900 C   0  0  0  0  0  3  0  0  0  0  0  0
  191.3130  174.6920  137.3930 C   0  0  0  0  0  0  0  0  0  0  0  0
  190.0470  173.4610  135.7290 C   0  0  0  0  0  3  0  0  0  0  0  0
  182.2690  177.0780  139.2410 C   0  0  0  0  0  0  0  0  0  0  0  0
  181.2640  176.4340  138.5410 F   0  0  0  0  0  0  0  0  0  0  0  0
  182.6050  176.3040  140.3380 F   0  0  0  0  0  0  0  0  0  0  0  0
  181.7880  178.3010  139.6720 F   0  0  0  0  0  0  0  0  0  0  0  0
  189.0530  179.3760  137.4770 O   0  0  0  0  0  1  0  0  0  0  0  0
  189.1400  178.0870  137.2120 O   0  0  0  0  0  0  0  0  0  0  0  0
  184.3520  179.0340  139.8950 C   0  0  0  0  0  2  0  0  0  0  0  0
  183.6820  178.5760  142.1500 O   0  0  0  0  0  0  0  0  0  0  0  0
  184.3310  178.3970  143.3820 C   0  0  1  0  0  3  0  0  0  0  0  0
  186.0200  178.5870  141.7150 C   0  0  0  0  0  2  0  0  0  0  0  0
  185.8030  178.6980  143.1950 C   0  0  2  0  0  3  0  0  0  0  0  0
  184.6420  178.2570  141.1740 C   0  0  2  0  0  3  0  0  0  0  0  0
  183.7170  179.2980  144.4450 C   0  0  0  0  0  2  0  0  0  0  0  0
  183.9490  178.7840  145.7230 O   0  0  0  0  0  1  0  0  0  0  0  0
  186.6330  177.7960  143.9300 O   0  0  0  0  0  0  0  0  0  0  0  0
  187.8240  177.2400  143.4490 C   0  0  0  0  0  0  0  0  0  0  0  0
  187.8640  176.0130  143.1700 O   0  0  0  0  0  0  0  0  0  0  0  0
  188.9630  178.0170  143.2730 O   0  0  0  0  0  1  0  0  0  0  0  0
  1  3  1  1  0  0  0
  1  4  1  0  0  0  0
  2 10  1  0  0  0  0
  4 26  1  0  0  0  0
  5 25  1  6  0  0  0
  5  3  1  0  0  0  0
  6  8  1  0  0  0  0
  8  9  1  0  0  0  0
  8  2  2  0  0  0  0
  9  1  1  0  0  0  0
 10  4  2  0  0  0  0
 10 20  1  0  0  0  0
 11 14  1  6  0  0  0
 11  5  1  0  0  0  0
 12  7  1  6  0  0  0
 12  9  1  0  0  0  0
 12 11  1  0  0  0  0
 12  5  1  0  0  0  0
 13 14  1  0  0  0  0
 14 15  2  0  0  0  0
 17 18  1  0  0  0  0
 18 15  1  0  0  0  0
 18 16  2  0  0  0  0
 19 13  1  0  0  0  0
 19 17  2  0  0  0  0
 20 23  1  0  0  0  0
 20 22  1  0  0  0  0
 21 20  1  0  0  0  0
 25 24  1  0  0  0  0
 27 28  1  0  0  0  0
 28 32  1  1  0  0  0
 29 30  1  0  0  0  0
 30 28  1  0  0  0  0
 30 34  1  1  0  0  0
 31 26  1  6  0  0  0
 31 29  1  0  0  0  0
 31 27  1  0  0  0  0
 32 33  1  0  0  0  0
 35 34  1  0  0  0  0
 36 35  2  0  0  0  0
 37 35  1  0  0  0  0
M  END
>  <MODEL>
4

>  <REMARK>
 VINA RESULT:      -6.7      4.065      6.950
  Name = 
  8 active torsions:
  status: ('A' for Active; 'I' for Inactive)
    1  A    between atoms: C_3  and  C_30
    2  A    between atoms: C_5  and  C_12
    3  A    between atoms: C_6  and  C_31
    4  A    between atoms: C_11  and  O_26
    5  A    between atoms: C_13  and  C_20
    6  A    between atoms: C_14  and  O_27
    7  A    between atoms: C_20  and  C_36
    8  A    between atoms: O_26  and  C_33
                            x       y       z     vdW  Elec       q    Type
                         _______ _______ _______ _____ _____    ______ ____

>  <TORSDO>
F 8

$$$$
=
 OpenBabel10272414503D

 37 41  0  0  1  0  0  0  0  0999 V2000
  188.8330  178.0100  139.0090 C   0  0  2  0  0  3  0  0  0  0  0  0
  191.0680  176.2850  139.3720 N   0  0  0  0  0  0  0  0  0  0  0  0
  187.3790  178.0920  139.4650 C   0  0  0  0  0  2  0  0  0  0  0  0
  189.0890  176.8380  138.0850 C   0  0  0  0  0  0  0  0  0  0  0  0
  187.4150  178.3710  140.9680 C   0  0  1  0  0  0  0  0  0  0  0  0
  191.7060  177.2880  141.4040 N   0  0  0  0  0  1  0  0  0  0  0  0
  189.3560  179.5160  142.2040 C   0  0  0  0  0  1  0  0  0  0  0  0
  190.8200  177.1610  140.2960 C   0  0  0  0  0  0  0  0  0  0  0  0
  189.6250  177.9420  140.2270 N   0  0  0  0  0  0  0  0  0  0  0  0
  190.1830  176.0560  138.2610 C   0  0  0  0  0  0  0  0  0  0  0  0
  187.8730  177.2640  141.9320 C   0  0  1  0  0  3  0  0  0  0  0  0
  188.8680  178.3090  141.4060 C   0  0  2  0  0  0  0  0  0  0  0  0
  188.3830  177.0000  144.4720 C   0  0  0  0  0  2  0  0  0  0  0  0
  187.4690  177.4870  143.3660 C   0  0  0  0  0  0  0  0  0  0  0  0
  186.2240  177.8960  143.6340 C   0  0  0  0  0  3  0  0  0  0  0  0
  184.5870  178.4120  145.2610 O   0  0  0  0  0  0  0  0  0  0  0  0
  186.7220  177.8620  146.1150 C   0  0  0  0  0  3  0  0  0  0  0  0
  185.7700  178.0630  145.0190 C   0  0  0  0  0  0  0  0  0  0  0  0
  187.9460  177.4000  145.8600 C   0  0  0  0  0  3  0  0  0  0  0  0
  190.5030  174.9120  137.3310 C   0  0  0  0  0  0  0  0  0  0  0  0
  191.6760  174.2890  137.7200 F   0  0  0  0  0  0  0  0  0  0  0  0
  189.4810  173.9790  137.3590 F   0  0  0  0  0  0  0  0  0  0  0  0
  190.6630  175.3790  136.0390 F   0  0  0  0  0  0  0  0  0  0  0  0
  185.6010  179.5380  140.7740 O   0  0  0  0  0  1  0  0  0  0  0  0
  186.7190  179.4830  141.4700 O   0  0  0  0  0  0  0  0  0  0  0  0
  188.1720  176.6380  136.9080 C   0  0  0  0  0  2  0  0  0  0  0  0
  186.6640  174.8280  137.3460 O   0  0  0  0  0  0  0  0  0  0  0  0
  185.3090  174.5590  137.1000 C   0  0  1  0  0  3  0  0  0  0  0  0
  185.7180  176.8020  136.4160 C   0  0  0  0  0  2  0  0  0  0  0  0
  184.7480  175.6710  136.2390 C   0  0  2  0  0  3  0  0  0  0  0  0
  186.7710  176.2300  137.3460 C   0  0  2  0  0  3  0  0  0  0  0  0
  185.1480  173.2050  136.4210 C   0  0  0  0  0  2  0  0  0  0  0  0
  184.4710  172.3110  137.2540 O   0  0  0  0  0  1  0  0  0  0  0  0
  183.4210  176.0340  136.6280 O   0  0  0  0  0  0  0  0  0  0  0  0
  182.9250  175.9510  137.9350 C   0  0  0  0  0  0  0  0  0  0  0  0
  182.1100  175.0380  138.2290 O   0  0  0  0  0  0  0  0  0  0  0  0
  183.3160  176.8580  138.9130 O   0  0  0  0  0  1  0  0  0  0  0  0
  1  3  1  1  0  0  0
  1  9  1  0  0  0  0
  2  8  2  0  0  0  0
  3  5  1  0  0  0  0
  4 10  2  0  0  0  0
  4  1  1  0  0  0  0
  5 12  1  0  0  0  0
  5 25  1  1  0  0  0
  5 11  1  0  0  0  0
  8  6  1  0  0  0  0
  9  8  1  0  0  0  0
  9 12  1  0  0  0  0
 10  2  1  0  0  0  0
 11 14  1  1  0  0  0
 12 11  1  0  0  0  0
 12  7  1  1  0  0  0
 13 19  1  0  0  0  0
 14 15  2  0  0  0  0
 14 13  1  0  0  0  0
 15 18  1  0  0  0  0
 18 16  2  0  0  0  0
 18 17  1  0  0  0  0
 19 17  2  0  0  0  0
 20 22  1  0  0  0  0
 20 21  1  0  0  0  0
 20 10  1  0  0  0  0
 23 20  1  0  0  0  0
 24 25  1  0  0  0  0
 26  4  1  0  0  0  0
 28 32  1  6  0  0  0
 28 27  1  0  0  0  0
 29 31  1  0  0  0  0
 30 29  1  0  0  0  0
 30 34  1  1  0  0  0
 30 28  1  0  0  0  0
 31 26  1  6  0  0  0
 31 27  1  0  0  0  0
 32 33  1  0  0  0  0
 34 35  1  0  0  0  0
 35 36  2  0  0  0  0
 35 37  1  0  0  0  0
M  END
>  <MODEL>
5

>  <REMARK>
 VINA RESULT:      -6.5      4.647      8.225
  Name = 
  8 active torsions:
  status: ('A' for Active; 'I' for Inactive)
    1  A    between atoms: C_3  and  C_30
    2  A    between atoms: C_5  and  C_12
    3  A    between atoms: C_6  and  C_31
    4  A    between atoms: C_11  and  O_26
    5  A    between atoms: C_13  and  C_20
    6  A    between atoms: C_14  and  O_27
    7  A    between atoms: C_20  and  C_36
    8  A    between atoms: O_26  and  C_33
                            x       y       z     vdW  Elec       q    Type
                         _______ _______ _______ _____ _____    ______ ____

>  <TORSDO>
F 8

$$$$
=
 OpenBabel10272414503D

 37 41  0  0  1  0  0  0  0  0999 V2000
  188.8700  176.0980  136.9250 C   0  0  2  0  0  3  0  0  0  0  0  0
  188.2230  177.8630  139.0630 N   0  0  0  0  0  0  0  0  0  0  0  0
  188.6230  174.6420  136.5440 C   0  0  0  0  0  2  0  0  0  0  0  0
  189.7670  176.2390  138.1380 C   0  0  0  0  0  0  0  0  0  0  0  0
  187.1250  174.5210  136.2580 C   0  0  1  0  0  0  0  0  0  0  0  0
  186.1060  178.3970  138.1830 N   0  0  0  0  0  1  0  0  0  0  0  0
  185.6100  176.4600  135.5140 C   0  0  0  0  0  1  0  0  0  0  0  0
  187.3300  177.6700  138.1430 C   0  0  0  0  0  0  0  0  0  0  0  0
  187.5540  176.6800  137.1360 N   0  0  0  0  0  0  0  0  0  0  0  0
  189.4510  177.1150  139.1230 C   0  0  0  0  0  0  0  0  0  0  0  0
  186.1230  174.6040  137.4210 C   0  0  1  0  0  3  0  0  0  0  0  0
  186.4880  175.8540  136.6070 C   0  0  2  0  0  0  0  0  0  0  0  0
  183.5730  175.0000  137.0800 C   0  0  0  0  0  2  0  0  0  0  0  0
  184.7580  174.0560  137.1020 C   0  0  0  0  0  0  0  0  0  0  0  0
  184.5810  172.7300  137.0720 C   0  0  0  0  0  3  0  0  0  0  0  0
  183.0900  170.9090  136.8390 O   0  0  0  0  0  0  0  0  0  0  0  0
  182.1290  173.0460  136.5290 C   0  0  0  0  0  3  0  0  0  0  0  0
  183.2540  172.1550  136.8280 C   0  0  0  0  0  0  0  0  0  0  0  0
  182.2840  174.3680  136.6140 C   0  0  0  0  0  3  0  0  0  0  0  0
  190.3440  177.3240  140.3210 C   0  0  0  0  0  0  0  0  0  0  0  0
  191.5770  177.8100  139.9220 F   0  0  0  0  0  0  0  0  0  0  0  0
  189.7710  178.2400  141.1860 F   0  0  0  0  0  0  0  0  0  0  0  0
  190.5390  176.1270  140.9840 F   0  0  0  0  0  0  0  0  0  0  0  0
  187.6870  173.2090  134.6290 O   0  0  0  0  0  1  0  0  0  0  0  0
  186.7090  174.0010  135.0220 O   0  0  0  0  0  0  0  0  0  0  0  0
  191.0650  175.4760  138.1630 C   0  0  0  0  0  2  0  0  0  0  0  0
  191.9630  175.1990  135.9590 O   0  0  0  0  0  0  0  0  0  0  0  0
  193.2340  175.2730  135.3670 C   0  0  1  0  0  3  0  0  0  0  0  0
  193.4690  175.9590  137.6350 C   0  0  0  0  0  2  0  0  0  0  0  0
  194.2620  175.4570  136.4640 C   0  0  2  0  0  3  0  0  0  0  0  0
  192.0440  175.9920  137.1160 C   0  0  2  0  0  3  0  0  0  0  0  0
  193.5190  174.0160  134.5550 C   0  0  0  0  0  2  0  0  0  0  0  0
  194.0370  173.0070  135.3700 O   0  0  0  0  0  1  0  0  0  0  0  0
  195.2950  176.3690  136.0830 O   0  0  0  0  0  0  0  0  0  0  0  0
  196.5680  175.9890  135.6420 C   0  0  0  0  0  0  0  0  0  0  0  0
  197.5450  176.0750  136.4300 O   0  0  0  0  0  1  0  0  0  0  0  0
  196.7720  175.5190  134.3500 O   0  0  0  0  0  0  0  0  0  0  0  0
  1  3  1  1  0  0  0
  1  9  1  0  0  0  0
  1  4  1  0  0  0  0
  2 10  1  0  0  0  0
  4 26  1  0  0  0  0
  4 10  2  0  0  0  0
  5 25  1  6  0  0  0
  5  3  1  0  0  0  0
  5 12  1  0  0  0  0
  5 11  1  0  0  0  0
  8  6  1  0  0  0  0
  8  2  2  0  0  0  0
  9  8  1  0  0  0  0
 10 20  1  0  0  0  0
 11 14  1  6  0  0  0
 12  7  1  6  0  0  0
 12  9  1  0  0  0  0
 12 11  1  0  0  0  0
 13 14  1  0  0  0  0
 15 14  2  0  0  0  0
 17 19  2  0  0  0  0
 17 18  1  0  0  0  0
 18 16  2  0  0  0  0
 18 15  1  0  0  0  0
 19 13  1  0  0  0  0
 20 23  1  0  0  0  0
 20 22  1  0  0  0  0
 21 20  1  0  0  0  0
 24 25  1  0  0  0  0
 27 31  1  0  0  0  0
 28 32  1  1  0  0  0
 28 27  1  0  0  0  0
 28 30  1  0  0  0  0
 30 34  1  6  0  0  0
 30 29  1  0  0  0  0
 31 29  1  0  0  0  0
 31 26  1  1  0  0  0
 32 33  1  0  0  0  0
 35 34  1  0  0  0  0
 35 36  1  0  0  0  0
 37 35  2  0  0  0  0
M  END
>  <MODEL>
6

>  <REMARK>
 VINA RESULT:      -6.4      5.357      7.060
  Name = 
  8 active torsions:
  status: ('A' for Active; 'I' for Inactive)
    1  A    between atoms: C_3  and  C_30
    2  A    between atoms: C_5  and  C_12
    3  A    between atoms: C_6  and  C_31
    4  A    between atoms: C_11  and  O_26
    5  A    between atoms: C_13  and  C_20
    6  A    between atoms: C_14  and  O_27
    7  A    between atoms: C_20  and  C_36
    8  A    between atoms: O_26  and  C_33
                            x       y       z     vdW  Elec       q    Type
                         _______ _______ _______ _____ _____    ______ ____

>  <TORSDO>
F 8

$$$$
=
 OpenBabel10272414503D

 37 41  0  0  1  0  0  0  0  0999 V2000
  187.7930  176.3960  136.8270 C   0  0  2  0  0  3  0  0  0  0  0  0
  188.3770  173.6120  136.9500 N   0  0  0  0  0  0  0  0  0  0  0  0
  187.3750  177.5090  137.7820 C   0  0  0  0  0  2  0  0  0  0  0  0
  186.7140  175.3490  136.6430 C   0  0  0  0  0  0  0  0  0  0  0  0
  188.5660  177.7480  138.7110 C   0  0  1  0  0  0  0  0  0  0  0  0
  190.6090  173.9550  137.6140 N   0  0  0  0  0  1  0  0  0  0  0  0
  191.0140  177.2260  138.1270 C   0  0  0  0  0  1  0  0  0  0  0  0
  189.3140  174.4450  137.2830 C   0  0  0  0  0  0  0  0  0  0  0  0
  189.0180  175.8400  137.3800 N   0  0  0  0  0  0  0  0  0  0  0  0
  187.0290  174.0310  136.6700 C   0  0  0  0  0  0  0  0  0  0  0  0
  188.9250  176.6910  139.7690 C   0  0  1  0  0  3  0  0  0  0  0  0
  189.6080  176.6900  138.3930 C   0  0  2  0  0  0  0  0  0  0  0  0
  191.3040  176.9900  140.7830 C   0  0  0  0  0  2  0  0  0  0  0  0
  189.8060  177.2010  140.8780 C   0  0  0  0  0  0  0  0  0  0  0  0
  189.2420  177.6170  142.0170 C   0  0  0  0  0  3  0  0  0  0  0  0
  189.5290  178.4140  144.2250 O   0  0  0  0  0  0  0  0  0  0  0  0
  191.5230  178.1280  142.9880 C   0  0  0  0  0  3  0  0  0  0  0  0
  190.0670  178.0600  143.1460 C   0  0  0  0  0  0  0  0  0  0  0  0
  192.0960  177.6610  141.8780 C   0  0  0  0  0  3  0  0  0  0  0  0
  185.9930  172.9580  136.4380 C   0  0  0  0  0  0  0  0  0  0  0  0
  185.1780  172.8290  137.5490 F   0  0  0  0  0  0  0  0  0  0  0  0
  185.2040  173.2890  135.3500 F   0  0  0  0  0  0  0  0  0  0  0  0
  186.6100  171.7430  136.2040 F   0  0  0  0  0  0  0  0  0  0  0  0
  188.8480  179.6220  137.6630 O   0  0  0  0  0  1  0  0  0  0  0  0
  189.0910  179.0450  138.8230 O   0  0  0  0  0  0  0  0  0  0  0  0
  185.3180  175.8080  136.3130 C   0  0  0  0  0  2  0  0  0  0  0  0
  183.5630  175.3980  137.8930 O   0  0  0  0  0  0  0  0  0  0  0  0
  182.5790  176.1660  138.5340 C   0  0  1  0  0  3  0  0  0  0  0  0
  183.9600  177.6680  137.3070 C   0  0  0  0  0  2  0  0  0  0  0  0
  182.6100  177.5640  137.9530 C   0  0  2  0  0  3  0  0  0  0  0  0
  184.5800  176.3050  137.5500 C   0  0  2  0  0  3  0  0  0  0  0  0
  181.2060  175.5300  138.3600 C   0  0  0  0  0  2  0  0  0  0  0  0
  181.3210  174.2490  137.8140 O   0  0  0  0  0  1  0  0  0  0  0  0
  182.4130  178.5660  138.9540 O   0  0  0  0  0  0  0  0  0  0  0  0
  183.4410  179.1640  139.6920 C   0  0  0  0  0  0  0  0  0  0  0  0
  183.7680  178.6760  140.8050 O   0  0  0  0  0  1  0  0  0  0  0  0
  184.1080  180.2890  139.2190 O   0  0  0  0  0  0  0  0  0  0  0  0
  1  9  1  0  0  0  0
  1  3  1  1  0  0  0
  2  8  2  0  0  0  0
  3  5  1  0  0  0  0
  4 10  2  0  0  0  0
  4  1  1  0  0  0  0
  5 25  1  1  0  0  0
  5 11  1  0  0  0  0
  8  9  1  0  0  0  0
  8  6  1  0  0  0  0
  9 12  1  0  0  0  0
 10  2  1  0  0  0  0
 11 14  1  1  0  0  0
 12  7  1  6  0  0  0
 12  5  1  0  0  0  0
 12 11  1  0  0  0  0
 13 14  1  0  0  0  0
 13 19  1  0  0  0  0
 14 15  2  0  0  0  0
 15 18  1  0  0  0  0
 17 18  1  0  0  0  0
 18 16  2  0  0  0  0
 19 17  2  0  0  0  0
 20 10  1  0  0  0  0
 20 21  1  0  0  0  0
 22 20  1  0  0  0  0
 23 20  1  0  0  0  0
 24 25  1  0  0  0  0
 26  4  1  0  0  0  0
 27 28  1  0  0  0  0
 28 32  1  6  0  0  0
 29 31  1  0  0  0  0
 29 30  1  0  0  0  0
 30 28  1  0  0  0  0
 30 34  1  1  0  0  0
 31 26  1  6  0  0  0
 31 27  1  0  0  0  0
 33 32  1  0  0  0  0
 34 35  1  0  0  0  0
 35 36  1  0  0  0  0
 37 35  2  0  0  0  0
M  END
>  <MODEL>
7

>  <REMARK>
 VINA RESULT:      -6.3      4.684      9.096
  Name = 
  8 active torsions:
  status: ('A' for Active; 'I' for Inactive)
    1  A    between atoms: C_3  and  C_30
    2  A    between atoms: C_5  and  C_12
    3  A    between atoms: C_6  and  C_31
    4  A    between atoms: C_11  and  O_26
    5  A    between atoms: C_13  and  C_20
    6  A    between atoms: C_14  and  O_27
    7  A    between atoms: C_20  and  C_36
    8  A    between atoms: O_26  and  C_33
                            x       y       z     vdW  Elec       q    Type
                         _______ _______ _______ _____ _____    ______ ____

>  <TORSDO>
F 8

$$$$
=
 OpenBabel10272414503D

 37 41  0  0  1  0  0  0  0  0999 V2000
  184.7380  178.8610  139.3960 C   0  0  2  0  0  3  0  0  0  0  0  0
  182.9370  178.4040  141.5520 N   0  0  0  0  0  0  0  0  0  0  0  0
  185.6250  178.0390  138.4670 C   0  0  0  0  0  2  0  0  0  0  0  0
  185.2120  178.8310  140.8340 C   0  0  0  0  0  0  0  0  0  0  0  0
  184.6820  177.2310  137.5750 C   0  0  1  0  0  0  0  0  0  0  0  0
  181.1160  177.9410  140.1340 N   0  0  0  0  0  1  0  0  0  0  0  0
  182.2670  177.9000  137.0040 C   0  0  0  0  0  1  0  0  0  0  0  0
  182.4900  178.2480  140.3450 C   0  0  0  0  0  0  0  0  0  0  0  0
  183.3960  178.3200  139.2410 N   0  0  0  0  0  0  0  0  0  0  0  0
  184.3250  178.6480  141.8430 C   0  0  0  0  0  0  0  0  0  0  0  0
  183.8800  176.0670  138.1800 C   0  0  1  0  0  3  0  0  0  0  0  0
  183.2680  177.4720  138.0750 C   0  0  2  0  0  0  0  0  0  0  0  0
  181.8380  174.8870  137.0770 C   0  0  0  0  0  2  0  0  0  0  0  0
  183.3360  175.0970  137.1640 C   0  0  0  0  0  0  0  0  0  0  0  0
  184.1830  174.2800  136.5280 C   0  0  0  0  0  3  0  0  0  0  0  0
  184.4890  172.4890  135.0140 O   0  0  0  0  0  0  0  0  0  0  0  0
  182.2580  173.2310  135.2640 C   0  0  0  0  0  3  0  0  0  0  0  0
  183.6890  173.2770  135.5790 C   0  0  0  0  0  0  0  0  0  0  0  0
  181.4010  174.0010  135.9350 C   0  0  0  0  0  3  0  0  0  0  0  0
  184.7490  178.6650  143.2910 C   0  0  0  0  0  0  0  0  0  0  0  0
  185.7430  177.7280  143.5110 F   0  0  0  0  0  0  0  0  0  0  0  0
  185.2400  179.9140  143.6260 F   0  0  0  0  0  0  0  0  0  0  0  0
  183.6730  178.3610  144.1050 F   0  0  0  0  0  0  0  0  0  0  0  0
  186.1110  177.4070  135.9570 O   0  0  0  0  0  1  0  0  0  0  0  0
  184.8140  177.3300  136.1810 O   0  0  0  0  0  0  0  0  0  0  0  0
  186.6610  179.1270  141.1180 C   0  0  0  0  0  2  0  0  0  0  0  0
  188.1990  177.3470  141.5740 O   0  0  0  0  0  0  0  0  0  0  0  0
  189.4230  176.9070  141.0460 C   0  0  1  0  0  3  0  0  0  0  0  0
  188.6520  178.6810  139.6580 C   0  0  0  0  0  2  0  0  0  0  0  0
  189.8910  177.9160  140.0190 C   0  0  2  0  0  3  0  0  0  0  0  0
  187.5800  178.0610  140.5340 C   0  0  2  0  0  3  0  0  0  0  0  0
  190.4530  176.7350  142.1550 C   0  0  0  0  0  2  0  0  0  0  0  0
  189.9930  175.8360  143.1210 O   0  0  0  0  0  1  0  0  0  0  0  0
  190.4860  177.2880  138.8810 O   0  0  0  0  0  0  0  0  0  0  0  0
  190.0880  176.0520  138.3570 C   0  0  0  0  0  0  0  0  0  0  0  0
  190.8530  175.0590  138.4670 O   0  0  0  0  0  1  0  0  0  0  0  0
  188.8640  175.9010  137.7170 O   0  0  0  0  0  0  0  0  0  0  0  0
  1  3  1  6  0  0  0
  1  4  1  0  0  0  0
  2 10  1  0  0  0  0
  4 26  1  0  0  0  0
  4 10  2  0  0  0  0
  5 25  1  6  0  0  0
  5 12  1  0  0  0  0
  5 11  1  0  0  0  0
  5  3  1  0  0  0  0
  6  8  1  0  0  0  0
  8  2  2  0  0  0  0
  9  1  1  0  0  0  0
  9  8  1  0  0  0  0
 10 20  1  0  0  0  0
 11 14  1  6  0  0  0
 12  7  1  6  0  0  0
 12 11  1  0  0  0  0
 12  9  1  0  0  0  0
 13 14  1  0  0  0  0
 15 14  2  0  0  0  0
 16 18  2  0  0  0  0
 17 18  1  0  0  0  0
 17 19  2  0  0  0  0
 18 15  1  0  0  0  0
 19 13  1  0  0  0  0
 20 21  1  0  0  0  0
 20 22  1  0  0  0  0
 20 23  1  0  0  0  0
 24 25  1  0  0  0  0
 28 27  1  0  0  0  0
 28 32  1  1  0  0  0
 29 30  1  0  0  0  0
 29 31  1  0  0  0  0
 30 34  1  6  0  0  0
 30 28  1  0  0  0  0
 31 26  1  1  0  0  0
 31 27  1  0  0  0  0
 32 33  1  0  0  0  0
 35 36  1  0  0  0  0
 35 34  1  0  0  0  0
 37 35  2  0  0  0  0
M  END
>  <MODEL>
8

>  <REMARK>
 VINA RESULT:      -6.3      2.221      3.012
  Name = 
  8 active torsions:
  status: ('A' for Active; 'I' for Inactive)
    1  A    between atoms: C_3  and  C_30
    2  A    between atoms: C_5  and  C_12
    3  A    between atoms: C_6  and  C_31
    4  A    between atoms: C_11  and  O_26
    5  A    between atoms: C_13  and  C_20
    6  A    between atoms: C_14  and  O_27
    7  A    between atoms: C_20  and  C_36
    8  A    between atoms: O_26  and  C_33
                            x       y       z     vdW  Elec       q    Type
                         _______ _______ _______ _____ _____    ______ ____

>  <TORSDO>
F 8

$$$$
=
 OpenBabel10272414503D

 37 41  0  0  1  0  0  0  0  0999 V2000
  186.9770  176.1540  135.9140 C   0  0  2  0  0  3  0  0  0  0  0  0
  187.1030  173.3140  136.0530 N   0  0  0  0  0  0  0  0  0  0  0  0
  187.1370  177.3420  136.8570 C   0  0  0  0  0  2  0  0  0  0  0  0
  185.7530  175.3200  136.2300 C   0  0  0  0  0  0  0  0  0  0  0  0
  188.6120  177.3760  137.2590 C   0  0  1  0  0  0  0  0  0  0  0  0
  189.4440  173.2530  135.8170 N   0  0  0  0  0  1  0  0  0  0  0  0
  190.5390  176.4040  135.8630 C   0  0  0  0  0  1  0  0  0  0  0  0
  188.2180  173.9660  135.9450 C   0  0  0  0  0  0  0  0  0  0  0  0
  188.2120  175.3940  136.0240 N   0  0  0  0  0  0  0  0  0  0  0  0
  185.8360  173.9660  136.2530 C   0  0  0  0  0  0  0  0  0  0  0  0
  189.1660  176.2910  138.1970 C   0  0  1  0  0  3  0  0  0  0  0  0
  189.2700  176.1400  136.6720 C   0  0  2  0  0  0  0  0  0  0  0  0
  191.7690  176.2590  138.1810 C   0  0  0  0  0  2  0  0  0  0  0  0
  190.4710  176.6510  138.8560 C   0  0  0  0  0  0  0  0  0  0  0  0
  190.4600  177.0970  140.1180 C   0  0  0  0  0  3  0  0  0  0  0  0
  191.6950  177.7800  142.0160 O   0  0  0  0  0  0  0  0  0  0  0  0
  192.9840  177.2880  140.0960 C   0  0  0  0  0  3  0  0  0  0  0  0
  191.7130  177.3970  140.8180 C   0  0  0  0  0  0  0  0  0  0  0  0
  193.0080  176.7910  138.8590 C   0  0  0  0  0  3  0  0  0  0  0  0
  184.6290  173.0980  136.5100 C   0  0  0  0  0  0  0  0  0  0  0  0
  184.3860  173.0030  137.8700 F   0  0  0  0  0  0  0  0  0  0  0  0
  183.5130  173.6440  135.9020 F   0  0  0  0  0  0  0  0  0  0  0  0
  184.8450  171.8250  136.0150 F   0  0  0  0  0  0  0  0  0  0  0  0
  188.5120  179.5380  137.3460 O   0  0  0  0  0  1  0  0  0  0  0  0
  189.3450  178.5570  137.0580 O   0  0  0  0  0  0  0  0  0  0  0  0
  184.4310  176.0200  136.3980 C   0  0  0  0  0  2  0  0  0  0  0  0
  183.1780  175.6270  138.4030 O   0  0  0  0  0  0  0  0  0  0  0  0
  182.5750  176.4200  139.3910 C   0  0  1  0  0  3  0  0  0  0  0  0
  183.7690  177.8840  137.9420 C   0  0  0  0  0  2  0  0  0  0  0  0
  182.6730  177.8700  138.9660 C   0  0  2  0  0  3  0  0  0  0  0  0
  184.1880  176.4290  137.8460 C   0  0  2  0  0  3  0  0  0  0  0  0
  181.1240  176.0060  139.5980 C   0  0  0  0  0  2  0  0  0  0  0  0
  180.8030  174.9120  138.7910 O   0  0  0  0  0  1  0  0  0  0  0  0
  182.9560  178.7340  140.0690 O   0  0  0  0  0  0  0  0  0  0  0  0
  184.1640  178.7510  140.7760 C   0  0  0  0  0  0  0  0  0  0  0  0
  184.2860  178.0380  141.8070 O   0  0  0  0  0  1  0  0  0  0  0  0
  185.2320  179.5380  140.3620 O   0  0  0  0  0  0  0  0  0  0  0  0
  1  9  1  0  0  0  0
  1  4  1  0  0  0  0
  1  3  1  1  0  0  0
  2 10  1  0  0  0  0
  3  5  1  0  0  0  0
  4 10  2  0  0  0  0
  4 26  1  0  0  0  0
  5 25  1  6  0  0  0
  5 11  1  0  0  0  0
  6  8  1  0  0  0  0
  8  9  1  0  0  0  0
  8  2  2  0  0  0  0
  9 12  1  0  0  0  0
 10 20  1  0  0  0  0
 11 14  1  1  0  0  0
 12  7  1  6  0  0  0
 12  5  1  0  0  0  0
 12 11  1  0  0  0  0
 13 14  1  0  0  0  0
 13 19  1  0  0  0  0
 14 15  2  0  0  0  0
 15 18  1  0  0  0  0
 17 18  1  0  0  0  0
 18 16  2  0  0  0  0
 19 17  2  0  0  0  0
 20 21  1  0  0  0  0
 22 20  1  0  0  0  0
 23 20  1  0  0  0  0
 25 24  1  0  0  0  0
 27 28  1  0  0  0  0
 28 32  1  6  0  0  0
 29 30  1  0  0  0  0
 30 28  1  0  0  0  0
 30 34  1  1  0  0  0
 31 26  1  6  0  0  0
 31 29  1  0  0  0  0
 31 27  1  0  0  0  0
 33 32  1  0  0  0  0
 34 35  1  0  0  0  0
 35 36  1  0  0  0  0
 37 35  2  0  0  0  0
M  END
>  <MODEL>
9

>  <REMARK>
 VINA RESULT:      -6.2      4.857      9.180
  Name = 
  8 active torsions:
  status: ('A' for Active; 'I' for Inactive)
    1  A    between atoms: C_3  and  C_30
    2  A    between atoms: C_5  and  C_12
    3  A    between atoms: C_6  and  C_31
    4  A    between atoms: C_11  and  O_26
    5  A    between atoms: C_13  and  C_20
    6  A    between atoms: C_14  and  O_27
    7  A    between atoms: C_20  and  C_36
    8  A    between atoms: O_26  and  C_33
                            x       y       z     vdW  Elec       q    Type
                         _______ _______ _______ _____ _____    ______ ____

>  <TORSDO>
F 8

$$$$
