=
 OpenBabel10272401153D

 27 31  0  0  1  0  0  0  0  0999 V2000
  187.0870  178.1720  142.5570 N   0  0  0  0  0  0  0  0  0  0  0  0
  186.0210  178.5490  140.4710 C   0  0  0  0  0  0  0  0  0  0  0  0
  183.5610  179.0320  143.1850 C   0  0  0  0  0  3  0  0  0  0  0  0
  185.8710  178.6620  139.0660 N   0  0  0  0  0  0  0  0  0  0  0  0
  184.6930  178.6380  145.3050 C   0  0  0  0  0  0  0  0  0  0  0  0
  187.1830  178.2220  141.1930 C   0  0  0  0  0  0  0  0  0  0  0  0
  183.8040  179.1140  140.0840 C   0  0  1  0  0  3  0  0  0  0  0  0
  185.9220  178.4310  143.2230 C   0  0  0  0  0  0  0  0  0  0  0  0
  184.8400  178.8040  141.1120 C   0  0  0  0  0  0  0  0  0  0  0  0
  183.5330  178.9690  144.5810 C   0  0  0  0  0  3  0  0  0  0  0  0
  184.6340  178.9810  138.8300 C   0  0  0  0  0  3  0  0  0  0  0  0
  185.8830  178.3710  144.6190 C   0  0  0  0  0  3  0  0  0  0  0  0
  184.7510  178.7630  142.5040 C   0  0  0  0  0  0  0  0  0  0  0  0
  181.3970  178.4550  140.5510 C   0  0  0  0  0  3  0  0  0  0  0  0
  180.6510  176.2360  140.0780 N   0  0  0  0  0  0  0  0  0  0  0  0
  181.8880  175.8850  139.6350 C   0  0  0  0  0  3  0  0  0  0  0  0
  182.9250  176.8210  139.6360 C   0  0  0  0  0  3  0  0  0  0  0  0
  182.6810  178.1170  140.0980 C   0  0  0  0  0  0  0  0  0  0  0  0
  180.3880  177.4910  140.5320 C   0  0  0  0  0  3  0  0  0  0  0  0
  190.8950  177.1180  139.3160 C   0  0  0  0  0  3  0  0  0  0  0  0
  188.4840  177.9280  140.5400 C   0  0  0  0  0  0  0  0  0  0  0  0
  188.8720  178.5560  139.2230 C   0  0  0  0  0  2  0  0  0  0  0  0
  189.8060  177.6450  138.4270 C   0  0  0  0  0  2  0  0  0  0  0  0
  190.6620  176.8770  140.5710 N   0  0  0  0  0  0  0  0  0  0  0  0
  189.3930  177.1750  141.1770 C   0  0  0  0  0  3  0  0  0  0  0  0
  185.8520  178.7920  147.4850 C   0  0  0  0  0  1  0  0  0  0  0  0
  184.6890  178.5690  146.7010 O   0  0  0  0  0  0  0  0  0  0  0  0
  1  8  1  0  0  0  0
  2  9  2  0  0  0  0
  2  6  1  0  0  0  0
  3 10  1  0  0  0  0
  4  2  1  0  0  0  0
  5 27  1  0  0  0  0
  6  1  2  0  0  0  0
  7 18  1  6  0  0  0
  7  9  1  0  0  0  0
  8 12  2  0  0  0  0
  9 13  1  0  0  0  0
 10  5  2  0  0  0  0
 11  4  2  0  0  0  0
 11  7  1  0  0  0  0
 12  5  1  0  0  0  0
 13  3  2  0  0  0  0
 13  8  1  0  0  0  0
 15 19  2  0  0  0  0
 16 17  2  0  0  0  0
 16 15  1  0  0  0  0
 17 18  1  0  0  0  0
 18 14  2  0  0  0  0
 19 14  1  0  0  0  0
 20 24  2  0  0  0  0
 21 25  2  0  0  0  0
 21  6  1  0  0  0  0
 22 21  1  0  0  0  0
 23 22  1  0  0  0  0
 23 20  1  0  0  0  0
 24 25  1  0  0  0  0
 27 26  1  0  0  0  0
M  END
>  <MODEL>
1

>  <REMARK>
 VINA RESULT:      -8.5      0.000      0.000
  Name = 
  3 active torsions:
  status: ('A' for Active; 'I' for Inactive)
    1  A    between atoms: C_9  and  C_15
    2  A    between atoms: C_13  and  O_22
    3  A    between atoms: C_14  and  C_17
                            x       y       z     vdW  Elec       q    Type
                         _______ _______ _______ _____ _____    ______ ____

>  <TORSDO>
F 3

$$$$
=
 OpenBabel10272401153D

 27 31  0  0  1  0  0  0  0  0999 V2000
  187.4360  177.5620  143.2210 N   0  0  0  0  0  0  0  0  0  0  0  0
  188.9140  177.6990  141.3700 C   0  0  0  0  0  0  0  0  0  0  0  0
  185.5720  178.8880  140.3330 C   0  0  0  0  0  3  0  0  0  0  0  0
  190.1200  177.5920  140.6310 N   0  0  0  0  0  0  0  0  0  0  0  0
  184.0890  178.7330  142.2580 C   0  0  0  0  0  0  0  0  0  0  0  0
  188.6960  177.3740  142.7200 C   0  0  0  0  0  0  0  0  0  0  0  0
  188.4400  178.4260  139.2170 C   0  0  1  0  0  3  0  0  0  0  0  0
  186.4090  178.0520  142.4640 C   0  0  0  0  0  0  0  0  0  0  0  0
  187.9010  178.1820  140.5870 C   0  0  0  0  0  0  0  0  0  0  0  0
  184.3100  179.0620  140.9080 C   0  0  0  0  0  3  0  0  0  0  0  0
  189.8740  177.9990  139.4230 C   0  0  0  0  0  3  0  0  0  0  0  0
  185.1430  178.2290  143.0290 C   0  0  0  0  0  3  0  0  0  0  0  0
  186.6220  178.3830  141.1060 C   0  0  0  0  0  0  0  0  0  0  0  0
  186.6940  178.0510  137.4130 C   0  0  0  0  0  3  0  0  0  0  0  0
  186.5700  175.9490  136.2860 N   0  0  0  0  0  0  0  0  0  0  0  0
  187.6050  175.4620  137.0230 C   0  0  0  0  0  3  0  0  0  0  0  0
  188.2200  176.2660  137.9850 C   0  0  0  0  0  3  0  0  0  0  0  0
  187.7630  177.5710  138.1860 C   0  0  0  0  0  0  0  0  0  0  0  0
  186.1070  177.2160  136.4610 C   0  0  0  0  0  3  0  0  0  0  0  0
  191.9580  175.9170  145.1190 C   0  0  0  0  0  3  0  0  0  0  0  0
  189.7610  176.8380  143.6050 C   0  0  0  0  0  0  0  0  0  0  0  0
  189.8130  177.1690  145.0770 C   0  0  0  0  0  2  0  0  0  0  0  0
  191.2490  177.1500  145.6010 C   0  0  0  0  0  2  0  0  0  0  0  0
  191.6800  175.4080  143.9560 N   0  0  0  0  0  0  0  0  0  0  0  0
  190.6410  175.9480  143.1230 C   0  0  0  0  0  3  0  0  0  0  0  0
  182.6420  178.8580  144.2610 C   0  0  0  0  0  1  0  0  0  0  0  0
  182.8350  178.8980  142.8540 O   0  0  0  0  0  0  0  0  0  0  0  0
  2  6  2  0  0  0  0
  3 10  2  0  0  0  0
  3 13  1  0  0  0  0
  4  2  1  0  0  0  0
  5 27  1  0  0  0  0
  5 12  2  0  0  0  0
  6  1  1  0  0  0  0
  6 21  1  0  0  0  0
  7 18  1  6  0  0  0
  7 11  1  0  0  0  0
  7  9  1  0  0  0  0
  8 12  1  0  0  0  0
  8  1  2  0  0  0  0
  9 13  2  0  0  0  0
  9  2  1  0  0  0  0
 10  5  1  0  0  0  0
 11  4  2  0  0  0  0
 13  8  1  0  0  0  0
 14 18  1  0  0  0  0
 15 19  1  0  0  0  0
 15 16  2  0  0  0  0
 16 17  1  0  0  0  0
 17 18  2  0  0  0  0
 19 14  2  0  0  0  0
 20 23  1  0  0  0  0
 21 22  1  0  0  0  0
 22 23  1  0  0  0  0
 24 20  2  0  0  0  0
 25 21  2  0  0  0  0
 25 24  1  0  0  0  0
 27 26  1  0  0  0  0
M  END
>  <MODEL>
2

>  <REMARK>
 VINA RESULT:      -7.9      2.612      4.644
  Name = 
  3 active torsions:
  status: ('A' for Active; 'I' for Inactive)
    1  A    between atoms: C_9  and  C_15
    2  A    between atoms: C_13  and  O_22
    3  A    between atoms: C_14  and  C_17
                            x       y       z     vdW  Elec       q    Type
                         _______ _______ _______ _____ _____    ______ ____

>  <TORSDO>
F 3

$$$$
=
 OpenBabel10272401153D

 27 31  0  0  1  0  0  0  0  0999 V2000
  190.8310  176.4610  139.9730 N   0  0  0  0  0  0  0  0  0  0  0  0
  189.8910  177.1660  137.9120 C   0  0  0  0  0  0  0  0  0  0  0  0
  187.6970  178.2650  140.6760 C   0  0  0  0  0  3  0  0  0  0  0  0
  189.7610  177.3460  136.5120 N   0  0  0  0  0  0  0  0  0  0  0  0
  188.6980  177.5250  142.7690 C   0  0  0  0  0  0  0  0  0  0  0  0
  190.9220  176.5110  138.6080 C   0  0  0  0  0  0  0  0  0  0  0  0
  187.9170  178.3400  137.5730 C   0  0  1  0  0  3  0  0  0  0  0  0
  189.7950  177.0240  140.6630 C   0  0  0  0  0  0  0  0  0  0  0  0
  188.8360  177.7300  138.5780 C   0  0  0  0  0  0  0  0  0  0  0  0
  187.6700  178.1840  142.0710 C   0  0  0  0  0  3  0  0  0  0  0  0
  188.6620  178.0050  136.3030 C   0  0  0  0  0  3  0  0  0  0  0  0
  189.7570  176.9480  142.0580 C   0  0  0  0  0  3  0  0  0  0  0  0
  188.7560  177.6870  139.9700 C   0  0  0  0  0  0  0  0  0  0  0  0
  185.4380  178.3540  138.1190 C   0  0  0  0  0  3  0  0  0  0  0  0
  184.0810  176.4670  137.5720 N   0  0  0  0  0  0  0  0  0  0  0  0
  185.1540  175.8110  137.0540 C   0  0  0  0  0  3  0  0  0  0  0  0
  186.4120  176.4170  137.0530 C   0  0  0  0  0  3  0  0  0  0  0  0
  186.5590  177.6980  137.5900 C   0  0  0  0  0  0  0  0  0  0  0  0
  184.1970  177.7150  138.0990 C   0  0  0  0  0  3  0  0  0  0  0  0
  194.4210  174.7320  136.8440 C   0  0  0  0  0  3  0  0  0  0  0  0
  192.0790  175.8760  137.9290 C   0  0  0  0  0  0  0  0  0  0  0  0
  192.0190  174.4580  137.4150 C   0  0  0  0  0  2  0  0  0  0  0  0
  193.4000  173.8020  137.4320 C   0  0  0  0  0  2  0  0  0  0  0  0
  194.3060  176.0170  136.9960 N   0  0  0  0  0  0  0  0  0  0  0  0
  193.1730  176.6040  137.6570 C   0  0  0  0  0  3  0  0  0  0  0  0
  189.7250  177.9700  144.9750 C   0  0  0  0  0  1  0  0  0  0  0  0
  188.6910  177.4310  144.1640 O   0  0  0  0  0  0  0  0  0  0  0  0
  1  8  1  0  0  0  0
  2  9  2  0  0  0  0
  2  6  1  0  0  0  0
  3 10  1  0  0  0  0
  4  2  1  0  0  0  0
  5 27  1  0  0  0  0
  6  1  2  0  0  0  0
  7 18  1  6  0  0  0
  7  9  1  0  0  0  0
  8 12  2  0  0  0  0
  9 13  1  0  0  0  0
 10  5  2  0  0  0  0
 11  4  2  0  0  0  0
 11  7  1  0  0  0  0
 12  5  1  0  0  0  0
 13  8  1  0  0  0  0
 13  3  2  0  0  0  0
 15 19  2  0  0  0  0
 16 15  1  0  0  0  0
 17 16  2  0  0  0  0
 17 18  1  0  0  0  0
 18 14  2  0  0  0  0
 19 14  1  0  0  0  0
 20 24  2  0  0  0  0
 20 23  1  0  0  0  0
 21  6  1  0  0  0  0
 22 23  1  0  0  0  0
 22 21  1  0  0  0  0
 24 25  1  0  0  0  0
 25 21  2  0  0  0  0
 27 26  1  0  0  0  0
M  END
>  <MODEL>
3

>  <REMARK>
 VINA RESULT:      -7.5      3.128      4.840
  Name = 
  3 active torsions:
  status: ('A' for Active; 'I' for Inactive)
    1  A    between atoms: C_9  and  C_15
    2  A    between atoms: C_13  and  O_22
    3  A    between atoms: C_14  and  C_17
                            x       y       z     vdW  Elec       q    Type
                         _______ _______ _______ _____ _____    ______ ____

>  <TORSDO>
F 3

$$$$
=
 OpenBabel10272401153D

 27 31  0  0  1  0  0  0  0  0999 V2000
  187.1040  178.1460  141.7970 N   0  0  0  0  0  0  0  0  0  0  0  0
  185.7410  178.6770  139.9290 C   0  0  0  0  0  0  0  0  0  0  0  0
  183.7270  178.9750  143.0130 C   0  0  0  0  0  3  0  0  0  0  0  0
  185.3820  178.8900  138.5740 N   0  0  0  0  0  0  0  0  0  0  0  0
  185.1610  178.4260  144.9030 C   0  0  0  0  0  0  0  0  0  0  0  0
  186.9930  178.2940  140.4410 C   0  0  0  0  0  0  0  0  0  0  0  0
  183.4990  179.2780  139.9250 C   0  0  1  0  0  3  0  0  0  0  0  0
  186.0580  178.3630  142.6490 C   0  0  0  0  0  0  0  0  0  0  0  0
  184.6740  178.8900  140.7590 C   0  0  0  0  0  0  0  0  0  0  0  0
  183.9110  178.8140  144.3890 C   0  0  0  0  0  3  0  0  0  0  0  0
  184.1290  179.2310  138.5530 C   0  0  0  0  0  3  0  0  0  0  0  0
  186.2290  178.2030  144.0270 C   0  0  0  0  0  3  0  0  0  0  0  0
  184.7960  178.7510  142.1410 C   0  0  0  0  0  0  0  0  0  0  0  0
  182.5540  176.9300  139.7280 C   0  0  0  0  0  3  0  0  0  0  0  0
  180.2710  176.5080  140.2900 N   0  0  0  0  0  0  0  0  0  0  0  0
  180.0760  177.8190  140.5970 C   0  0  0  0  0  3  0  0  0  0  0  0
  181.1270  178.7310  140.4770 C   0  0  0  0  0  3  0  0  0  0  0  0
  182.3770  178.2870  140.0390 C   0  0  0  0  0  0  0  0  0  0  0  0
  181.4780  176.0500  139.8630 C   0  0  0  0  0  3  0  0  0  0  0  0
  190.3940  177.3080  137.9930 C   0  0  0  0  0  3  0  0  0  0  0  0
  188.1760  178.0410  139.5790 C   0  0  0  0  0  0  0  0  0  0  0  0
  188.2430  178.5410  138.1560 C   0  0  0  0  0  2  0  0  0  0  0  0
  189.1080  177.6290  137.2860 C   0  0  0  0  0  2  0  0  0  0  0  0
  190.4240  177.1980  139.2880 N   0  0  0  0  0  0  0  0  0  0  0  0
  189.2640  177.4510  140.0970 C   0  0  0  0  0  3  0  0  0  0  0  0
  186.5840  177.7600  146.8140 C   0  0  0  0  0  1  0  0  0  0  0  0
  185.3670  178.2570  146.2750 O   0  0  0  0  0  0  0  0  0  0  0  0
  1  8  1  0  0  0  0
  2  6  1  0  0  0  0
  2  9  2  0  0  0  0
  3 10  1  0  0  0  0
  4  2  1  0  0  0  0
  5 27  1  0  0  0  0
  6  1  2  0  0  0  0
  7 18  1  6  0  0  0
  7  9  1  0  0  0  0
  8 12  2  0  0  0  0
  9 13  1  0  0  0  0
 10  5  2  0  0  0  0
 11  4  2  0  0  0  0
 11  7  1  0  0  0  0
 12  5  1  0  0  0  0
 13  8  1  0  0  0  0
 13  3  2  0  0  0  0
 14 19  2  0  0  0  0
 14 18  1  0  0  0  0
 15 16  2  0  0  0  0
 17 16  1  0  0  0  0
 18 17  2  0  0  0  0
 19 15  1  0  0  0  0
 20 24  2  0  0  0  0
 21 25  2  0  0  0  0
 21  6  1  0  0  0  0
 22 21  1  0  0  0  0
 23 20  1  0  0  0  0
 23 22  1  0  0  0  0
 24 25  1  0  0  0  0
 27 26  1  0  0  0  0
M  END
>  <MODEL>
4

>  <REMARK>
 VINA RESULT:      -7.4      0.773      1.228
  Name = 
  3 active torsions:
  status: ('A' for Active; 'I' for Inactive)
    1  A    between atoms: C_9  and  C_15
    2  A    between atoms: C_13  and  O_22
    3  A    between atoms: C_14  and  C_17
                            x       y       z     vdW  Elec       q    Type
                         _______ _______ _______ _____ _____    ______ ____

>  <TORSDO>
F 3

$$$$
=
 OpenBabel10272401153D

 27 31  0  0  1  0  0  0  0  0999 V2000
  186.5630  178.5680  140.8690 N   0  0  0  0  0  0  0  0  0  0  0  0
  188.5950  177.3420  140.8860 C   0  0  0  0  0  0  0  0  0  0  0  0
  187.2020  177.4150  144.3090 C   0  0  0  0  0  3  0  0  0  0  0  0
  189.7770  176.7380  140.3900 N   0  0  0  0  0  0  0  0  0  0  0  0
  185.1220  178.6790  144.2460 C   0  0  0  0  0  0  0  0  0  0  0  0
  187.6320  178.0760  140.1710 C   0  0  0  0  0  0  0  0  0  0  0  0
  189.6340  176.3300  142.6990 C   0  0  1  0  0  3  0  0  0  0  0  0
  186.4050  178.3650  142.2110 C   0  0  0  0  0  0  0  0  0  0  0  0
  188.4650  177.1320  142.2320 C   0  0  0  0  0  0  0  0  0  0  0  0
  186.0830  177.9400  144.9600 C   0  0  0  0  0  3  0  0  0  0  0  0
  190.3720  176.1640  141.3920 C   0  0  0  0  0  3  0  0  0  0  0  0
  185.2890  178.8860  142.8730 C   0  0  0  0  0  3  0  0  0  0  0  0
  187.3670  177.6250  142.9370 C   0  0  0  0  0  0  0  0  0  0  0  0
  190.9350  178.3780  143.4460 C   0  0  0  0  0  3  0  0  0  0  0  0
  191.9820  178.4130  145.5920 N   0  0  0  0  0  0  0  0  0  0  0  0
  191.5390  177.1550  145.8590 C   0  0  0  0  0  3  0  0  0  0  0  0
  190.7730  176.4670  144.9160 C   0  0  0  0  0  3  0  0  0  0  0  0
  190.4670  177.0800  143.6990 C   0  0  0  0  0  0  0  0  0  0  0  0
  191.6970  179.0330  144.4150 C   0  0  0  0  0  3  0  0  0  0  0  0
  188.1240  178.6600  135.9350 C   0  0  0  0  0  3  0  0  0  0  0  0
  187.7360  178.3370  138.7130 C   0  0  0  0  0  0  0  0  0  0  0  0
  186.5390  178.2300  137.7990 C   0  0  0  0  0  2  0  0  0  0  0  0
  186.9550  177.8300  136.3830 C   0  0  0  0  0  2  0  0  0  0  0  0
  189.0180  179.0560  136.7910 N   0  0  0  0  0  0  0  0  0  0  0  0
  188.8890  178.7900  138.1980 C   0  0  0  0  0  3  0  0  0  0  0  0
  182.6690  178.9080  144.4710 C   0  0  0  0  0  1  0  0  0  0  0  0
  183.9950  179.2140  144.8770 O   0  0  0  0  0  0  0  0  0  0  0  0
  1  8  1  0  0  0  0
  2  9  2  0  0  0  0
  3 10  1  0  0  0  0
  4  2  1  0  0  0  0
  4 11  2  0  0  0  0
  5 27  1  0  0  0  0
  5 10  2  0  0  0  0
  6  1  2  0  0  0  0
  6  2  1  0  0  0  0
  7 18  1  1  0  0  0
  8 12  2  0  0  0  0
  8 13  1  0  0  0  0
  9  7  1  0  0  0  0
  9 13  1  0  0  0  0
 11  7  1  0  0  0  0
 12  5  1  0  0  0  0
 13  3  2  0  0  0  0
 14 18  2  0  0  0  0
 14 19  1  0  0  0  0
 15 16  1  0  0  0  0
 17 16  2  0  0  0  0
 18 17  1  0  0  0  0
 19 15  2  0  0  0  0
 20 23  1  0  0  0  0
 20 24  2  0  0  0  0
 21  6  1  0  0  0  0
 22 21  1  0  0  0  0
 23 22  1  0  0  0  0
 24 25  1  0  0  0  0
 25 21  2  0  0  0  0
 26 27  1  0  0  0  0
M  END
>  <MODEL>
5

>  <REMARK>
 VINA RESULT:      -7.4      2.742      6.069
  Name = 
  3 active torsions:
  status: ('A' for Active; 'I' for Inactive)
    1  A    between atoms: C_9  and  C_15
    2  A    between atoms: C_13  and  O_22
    3  A    between atoms: C_14  and  C_17
                            x       y       z     vdW  Elec       q    Type
                         _______ _______ _______ _____ _____    ______ ____

>  <TORSDO>
F 3

$$$$
=
 OpenBabel10272401153D

 27 31  0  0  1  0  0  0  0  0999 V2000
  188.3440  177.3910  143.8850 N   0  0  0  0  0  0  0  0  0  0  0  0
  189.9980  177.4490  142.1840 C   0  0  0  0  0  0  0  0  0  0  0  0
  186.7750  178.5740  140.7700 C   0  0  0  0  0  3  0  0  0  0  0  0
  191.2700  177.3140  141.5740 N   0  0  0  0  0  0  0  0  0  0  0  0
  185.1090  178.5020  142.5440 C   0  0  0  0  0  0  0  0  0  0  0  0
  189.6470  177.1860  143.5200 C   0  0  0  0  0  0  0  0  0  0  0  0
  189.7380  178.0750  139.9650 C   0  0  1  0  0  3  0  0  0  0  0  0
  187.3970  177.8410  143.0090 C   0  0  0  0  0  0  0  0  0  0  0  0
  189.0670  177.8920  141.2840 C   0  0  0  0  0  0  0  0  0  0  0  0
  185.4620  178.7690  141.2090 C   0  0  0  0  0  3  0  0  0  0  0  0
  191.1450  177.6630  140.3300 C   0  0  0  0  0  3  0  0  0  0  0  0
  186.0810  178.0390  143.4370 C   0  0  0  0  0  3  0  0  0  0  0  0
  187.7430  178.1110  141.6640 C   0  0  0  0  0  0  0  0  0  0  0  0
  187.9160  177.4180  138.3240 C   0  0  0  0  0  3  0  0  0  0  0  0
  188.1770  175.4750  136.9610 N   0  0  0  0  0  0  0  0  0  0  0  0
  189.3900  175.2140  137.5170 C   0  0  0  0  0  3  0  0  0  0  0  0
  189.9060  176.0590  138.5010 C   0  0  0  0  0  3  0  0  0  0  0  0
  189.1660  177.1700  138.9110 C   0  0  0  0  0  0  0  0  0  0  0  0
  187.4360  176.5500  137.3410 C   0  0  0  0  0  3  0  0  0  0  0  0
  192.2680  175.7150  146.6020 C   0  0  0  0  0  3  0  0  0  0  0  0
  190.6200  176.6950  144.5290 C   0  0  0  0  0  0  0  0  0  0  0  0
  191.6260  175.6180  144.2040 C   0  0  0  0  0  2  0  0  0  0  0  0
  191.9870  174.8000  145.4450 C   0  0  0  0  0  2  0  0  0  0  0  0
  191.6280  176.8400  146.7230 N   0  0  0  0  0  0  0  0  0  0  0  0
  190.6930  177.2910  145.7290 C   0  0  0  0  0  3  0  0  0  0  0  0
  183.5090  179.1330  144.3220 C   0  0  0  0  0  1  0  0  0  0  0  0
  183.8030  178.6880  143.0060 O   0  0  0  0  0  0  0  0  0  0  0  0
  2  6  2  0  0  0  0
  3 10  2  0  0  0  0
  3 13  1  0  0  0  0
  4  2  1  0  0  0  0
  5 27  1  0  0  0  0
  5 12  2  0  0  0  0
  6  1  1  0  0  0  0
  6 21  1  0  0  0  0
  7 18  1  6  0  0  0
  7 11  1  0  0  0  0
  7  9  1  0  0  0  0
  8 12  1  0  0  0  0
  8  1  2  0  0  0  0
  9 13  2  0  0  0  0
  9  2  1  0  0  0  0
 10  5  1  0  0  0  0
 11  4  2  0  0  0  0
 13  8  1  0  0  0  0
 14 18  1  0  0  0  0
 15 19  1  0  0  0  0
 15 16  2  0  0  0  0
 16 17  1  0  0  0  0
 17 18  2  0  0  0  0
 19 14  2  0  0  0  0
 20 24  2  0  0  0  0
 21 25  2  0  0  0  0
 22 21  1  0  0  0  0
 22 23  1  0  0  0  0
 23 20  1  0  0  0  0
 25 24  1  0  0  0  0
 27 26  1  0  0  0  0
M  END
>  <MODEL>
6

>  <REMARK>
 VINA RESULT:      -7.4      2.965      5.559
  Name = 
  3 active torsions:
  status: ('A' for Active; 'I' for Inactive)
    1  A    between atoms: C_9  and  C_15
    2  A    between atoms: C_13  and  O_22
    3  A    between atoms: C_14  and  C_17
                            x       y       z     vdW  Elec       q    Type
                         _______ _______ _______ _____ _____    ______ ____

>  <TORSDO>
F 3

$$$$
=
 OpenBabel10272401153D

 27 31  0  0  1  0  0  0  0  0999 V2000
  187.4860  177.8900  142.0400 N   0  0  0  0  0  0  0  0  0  0  0  0
  188.2780  178.1010  144.2670 C   0  0  0  0  0  0  0  0  0  0  0  0
  191.1570  177.5850  142.0080 C   0  0  0  0  0  3  0  0  0  0  0  0
  188.2350  178.2800  145.6730 N   0  0  0  0  0  0  0  0  0  0  0  0
  190.3020  177.3770  139.7380 C   0  0  0  0  0  0  0  0  0  0  0  0
  187.2000  178.0810  143.3650 C   0  0  0  0  0  0  0  0  0  0  0  0
  190.4720  177.9980  145.0160 C   0  0  1  0  0  3  0  0  0  0  0  0
  188.7620  177.7270  141.5800 C   0  0  0  0  0  0  0  0  0  0  0  0
  189.5640  177.9310  143.8340 C   0  0  0  0  0  0  0  0  0  0  0  0
  191.3800  177.4010  140.6410 C   0  0  0  0  0  3  0  0  0  0  0  0
  189.4570  178.2280  146.1100 C   0  0  0  0  0  3  0  0  0  0  0  0
  188.9970  177.5410  140.2140 C   0  0  0  0  0  3  0  0  0  0  0  0
  189.8520  177.7480  142.4810 C   0  0  0  0  0  0  0  0  0  0  0  0
  191.4570  175.8130  144.1770 C   0  0  0  0  0  3  0  0  0  0  0  0
  192.6050  174.3610  145.6860 N   0  0  0  0  0  0  0  0  0  0  0  0
  192.3820  175.2140  146.7210 C   0  0  0  0  0  3  0  0  0  0  0  0
  191.6830  176.4050  146.5090 C   0  0  0  0  0  3  0  0  0  0  0  0
  191.2140  176.7090  145.2290 C   0  0  0  0  0  0  0  0  0  0  0  0
  192.1610  174.6340  144.4290 C   0  0  0  0  0  3  0  0  0  0  0  0
  183.1660  178.8110  144.6770 C   0  0  0  0  0  3  0  0  0  0  0  0
  185.7870  178.2510  143.7910 C   0  0  0  0  0  0  0  0  0  0  0  0
  184.6370  178.0150  142.8410 C   0  0  0  0  0  2  0  0  0  0  0  0
  183.4320  178.8840  143.2010 C   0  0  0  0  0  2  0  0  0  0  0  0
  184.1480  178.6750  145.5170 N   0  0  0  0  0  0  0  0  0  0  0  0
  185.5050  178.5110  145.0760 C   0  0  0  0  0  3  0  0  0  0  0  0
  191.6630  176.5690  137.8360 C   0  0  0  0  0  1  0  0  0  0  0  0
  190.5020  177.1920  138.3670 O   0  0  0  0  0  0  0  0  0  0  0  0
  1  6  1  0  0  0  0
  2  4  1  0  0  0  0
  3 13  1  0  0  0  0
  4 11  2  0  0  0  0
  5 12  2  0  0  0  0
  5 10  1  0  0  0  0
  6 21  1  0  0  0  0
  6  2  2  0  0  0  0
  7 18  1  1  0  0  0
  7 11  1  0  0  0  0
  8  1  2  0  0  0  0
  8 13  1  0  0  0  0
  9  2  1  0  0  0  0
  9  7  1  0  0  0  0
 10  3  2  0  0  0  0
 12  8  1  0  0  0  0
 13  9  2  0  0  0  0
 14 19  2  0  0  0  0
 14 18  1  0  0  0  0
 15 16  2  0  0  0  0
 17 16  1  0  0  0  0
 18 17  2  0  0  0  0
 19 15  1  0  0  0  0
 20 24  2  0  0  0  0
 21 25  2  0  0  0  0
 22 23  1  0  0  0  0
 22 21  1  0  0  0  0
 23 20  1  0  0  0  0
 25 24  1  0  0  0  0
 26 27  1  0  0  0  0
 27  5  1  0  0  0  0
M  END
>  <MODEL>
7

>  <REMARK>
 VINA RESULT:      -7.1      3.702      8.425
  Name = 
  3 active torsions:
  status: ('A' for Active; 'I' for Inactive)
    1  A    between atoms: C_9  and  C_15
    2  A    between atoms: C_13  and  O_22
    3  A    between atoms: C_14  and  C_17
                            x       y       z     vdW  Elec       q    Type
                         _______ _______ _______ _____ _____    ______ ____

>  <TORSDO>
F 3

$$$$
=
 OpenBabel10272401153D

 27 31  0  0  1  0  0  0  0  0999 V2000
  190.5480  176.5030  140.1550 N   0  0  0  0  0  0  0  0  0  0  0  0
  189.6050  177.2750  138.1190 C   0  0  0  0  0  0  0  0  0  0  0  0
  187.4930  178.4080  140.9310 C   0  0  0  0  0  3  0  0  0  0  0  0
  189.4630  177.4810  136.7230 N   0  0  0  0  0  0  0  0  0  0  0  0
  188.4950  177.5990  142.9970 C   0  0  0  0  0  0  0  0  0  0  0  0
  190.6210  176.5720  138.7900 C   0  0  0  0  0  0  0  0  0  0  0  0
  187.6710  178.5250  137.8270 C   0  0  1  0  0  3  0  0  0  0  0  0
  189.5430  177.0920  140.8680 C   0  0  0  0  0  0  0  0  0  0  0  0
  188.5810  177.8660  138.8090 C   0  0  0  0  0  0  0  0  0  0  0  0
  187.4820  178.3060  142.3250 C   0  0  0  0  0  3  0  0  0  0  0  0
  188.3850  178.1830  136.5410 C   0  0  0  0  0  3  0  0  0  0  0  0
  189.5210  176.9960  142.2630 C   0  0  0  0  0  3  0  0  0  0  0  0
  188.5190  177.8030  140.2000 C   0  0  0  0  0  0  0  0  0  0  0  0
  186.0120  176.6830  137.2790 C   0  0  0  0  0  3  0  0  0  0  0  0
  183.7300  176.8890  137.9530 N   0  0  0  0  0  0  0  0  0  0  0  0
  183.9770  178.1020  138.5160 C   0  0  0  0  0  3  0  0  0  0  0  0
  185.2630  178.6440  138.4770 C   0  0  0  0  0  3  0  0  0  0  0  0
  186.2910  177.9330  137.8530 C   0  0  0  0  0  0  0  0  0  0  0  0
  184.7130  176.1750  137.3420 C   0  0  0  0  0  3  0  0  0  0  0  0
  193.7260  174.6230  136.5340 C   0  0  0  0  0  3  0  0  0  0  0  0
  191.7450  175.9060  138.0830 C   0  0  0  0  0  0  0  0  0  0  0  0
  193.1100  176.5440  137.9840 C   0  0  0  0  0  2  0  0  0  0  0  0
  193.8340  176.1100  136.7090 C   0  0  0  0  0  2  0  0  0  0  0  0
  192.6630  173.9890  136.9290 N   0  0  0  0  0  0  0  0  0  0  0  0
  191.5910  174.6590  137.6130 C   0  0  0  0  0  3  0  0  0  0  0  0
  187.3420  177.6730  145.1850 C   0  0  0  0  0  1  0  0  0  0  0  0
  188.5040  177.4830  144.3910 O   0  0  0  0  0  0  0  0  0  0  0  0
  1  8  1  0  0  0  0
  2  6  1  0  0  0  0
  2  9  2  0  0  0  0
  3 10  1  0  0  0  0
  4  2  1  0  0  0  0
  5 27  1  0  0  0  0
  6  1  2  0  0  0  0
  7 18  1  6  0  0  0
  7  9  1  0  0  0  0
  8 12  2  0  0  0  0
  9 13  1  0  0  0  0
 10  5  2  0  0  0  0
 11  4  2  0  0  0  0
 11  7  1  0  0  0  0
 12  5  1  0  0  0  0
 13  8  1  0  0  0  0
 13  3  2  0  0  0  0
 14 19  2  0  0  0  0
 14 18  1  0  0  0  0
 15 16  2  0  0  0  0
 17 16  1  0  0  0  0
 18 17  2  0  0  0  0
 19 15  1  0  0  0  0
 20 23  1  0  0  0  0
 20 24  2  0  0  0  0
 21  6  1  0  0  0  0
 22 21  1  0  0  0  0
 23 22  1  0  0  0  0
 24 25  1  0  0  0  0
 25 21  2  0  0  0  0
 27 26  1  0  0  0  0
M  END
>  <MODEL>
8

>  <REMARK>
 VINA RESULT:      -7.1      2.666      4.520
  Name = 
  3 active torsions:
  status: ('A' for Active; 'I' for Inactive)
    1  A    between atoms: C_9  and  C_15
    2  A    between atoms: C_13  and  O_22
    3  A    between atoms: C_14  and  C_17
                            x       y       z     vdW  Elec       q    Type
                         _______ _______ _______ _____ _____    ______ ____

>  <TORSDO>
F 3

$$$$
=
 OpenBabel10272401153D

 27 31  0  0  1  0  0  0  0  0999 V2000
  186.3490  177.9660  142.9580 N   0  0  0  0  0  0  0  0  0  0  0  0
  188.1100  178.0860  141.3720 C   0  0  0  0  0  0  0  0  0  0  0  0
  184.9160  178.8800  139.6900 C   0  0  0  0  0  3  0  0  0  0  0  0
  189.4290  178.0290  140.8550 N   0  0  0  0  0  0  0  0  0  0  0  0
  183.1400  178.7480  141.3510 C   0  0  0  0  0  0  0  0  0  0  0  0
  187.6870  177.8530  142.6920 C   0  0  0  0  0  0  0  0  0  0  0  0
  187.9590  178.5910  139.1110 C   0  0  1  0  0  3  0  0  0  0  0  0
  185.4340  178.2980  142.0000 C   0  0  0  0  0  0  0  0  0  0  0  0
  187.2130  178.4110  140.3910 C   0  0  0  0  0  0  0  0  0  0  0  0
  183.5640  178.9850  140.0310 C   0  0  0  0  0  3  0  0  0  0  0  0
  189.3640  178.3120  139.5890 C   0  0  0  0  0  3  0  0  0  0  0  0
  184.0800  178.4060  142.3290 C   0  0  0  0  0  3  0  0  0  0  0  0
  185.8520  178.5370  140.6700 C   0  0  0  0  0  0  0  0  0  0  0  0
  186.6070  177.9250  137.0690 C   0  0  0  0  0  3  0  0  0  0  0  0
  186.8120  175.7250  136.1620 N   0  0  0  0  0  0  0  0  0  0  0  0
  187.7150  175.3850  137.1210 C   0  0  0  0  0  3  0  0  0  0  0  0
  188.0930  176.3160  138.0900 C   0  0  0  0  0  3  0  0  0  0  0  0
  187.5360  177.5970  138.0680 C   0  0  0  0  0  0  0  0  0  0  0  0
  186.2560  176.9650  136.1170 C   0  0  0  0  0  3  0  0  0  0  0  0
  190.5710  176.9530  145.7580 C   0  0  0  0  0  3  0  0  0  0  0  0
  188.6220  177.4880  143.7870 C   0  0  0  0  0  0  0  0  0  0  0  0
  188.2370  177.6280  145.2400 C   0  0  0  0  0  2  0  0  0  0  0  0
  189.4610  177.8990  146.1160 C   0  0  0  0  0  2  0  0  0  0  0  0
  190.7210  176.5470  144.5330 N   0  0  0  0  0  0  0  0  0  0  0  0
  189.7990  176.9140  143.4940 C   0  0  0  0  0  3  0  0  0  0  0  0
  181.3740  179.2840  142.9990 C   0  0  0  0  0  1  0  0  0  0  0  0
  181.7930  178.8470  141.7140 O   0  0  0  0  0  0  0  0  0  0  0  0
  2  6  2  0  0  0  0
  3 10  2  0  0  0  0
  3 13  1  0  0  0  0
  4  2  1  0  0  0  0
  5 27  1  0  0  0  0
  5 12  2  0  0  0  0
  6  1  1  0  0  0  0
  6 21  1  0  0  0  0
  7 18  1  6  0  0  0
  7 11  1  0  0  0  0
  7  9  1  0  0  0  0
  8 12  1  0  0  0  0
  8  1  2  0  0  0  0
  9 13  2  0  0  0  0
  9  2  1  0  0  0  0
 10  5  1  0  0  0  0
 11  4  2  0  0  0  0
 13  8  1  0  0  0  0
 14 18  1  0  0  0  0
 15 16  2  0  0  0  0
 16 17  1  0  0  0  0
 18 17  2  0  0  0  0
 19 15  1  0  0  0  0
 19 14  2  0  0  0  0
 20 23  1  0  0  0  0
 21 22  1  0  0  0  0
 22 23  1  0  0  0  0
 24 20  2  0  0  0  0
 25 21  2  0  0  0  0
 25 24  1  0  0  0  0
 27 26  1  0  0  0  0
M  END
>  <MODEL>
9

>  <REMARK>
 VINA RESULT:      -7.0      2.620      4.832
  Name = 
  3 active torsions:
  status: ('A' for Active; 'I' for Inactive)
    1  A    between atoms: C_9  and  C_15
    2  A    between atoms: C_13  and  O_22
    3  A    between atoms: C_14  and  C_17
                            x       y       z     vdW  Elec       q    Type
                         _______ _______ _______ _____ _____    ______ ____

>  <TORSDO>
F 3

$$$$
