=
 OpenBabel10272415253D

 34 39  0  0  0  0  0  0  0  0999 V2000
  186.9840  178.1170  144.1050 C   0  0  0  0  0  0  0  0  0  0  0  0
  183.2930  178.9860  144.4700 C   0  0  0  0  0  3  0  0  0  0  0  0
  185.0600  178.8830  146.1130 O   0  0  0  0  0  0  0  0  0  0  0  0
  189.4760  176.9330  145.0130 C   0  0  0  0  0  2  0  0  0  0  0  0
  187.5600  176.9600  143.4250 N   0  0  0  0  0  2  0  0  0  0  0  0
  188.5140  177.5310  146.0030 C   0  0  0  0  0  0  0  0  0  0  0  0
  187.9220  178.0390  148.2980 C   0  0  0  0  0  3  0  0  0  0  0  0
  188.8370  177.5420  147.3630 C   0  0  0  0  0  3  0  0  0  0  0  0
  188.9530  177.0020  143.6420 N   0  0  0  0  0  0  0  0  0  0  0  0
  186.3360  178.4850  146.5230 C   0  0  0  0  0  0  0  0  0  0  0  0
  187.2700  178.0260  145.5790 C   0  0  0  0  0  0  0  0  0  0  0  0
  186.6710  178.5030  147.8790 C   0  0  0  0  0  3  0  0  0  0  0  0
  182.8310  178.8250  143.1600 C   0  0  0  0  0  0  0  0  0  0  0  0
  183.7240  178.4040  142.1630 C   0  0  0  0  0  3  0  0  0  0  0  0
  184.6270  178.7220  144.7920 C   0  0  0  0  0  0  0  0  0  0  0  0
  185.0610  178.1460  142.4750 C   0  0  0  0  0  2  0  0  0  0  0  0
  185.5180  178.2830  143.7920 C   0  0  0  0  0  0  0  0  0  0  0  0
  192.0840  177.3190  141.6060 C   0  0  0  0  0  3  0  0  0  0  0  0
  189.3920  176.6370  141.2370 C   0  0  0  0  0  3  0  0  0  0  0  0
  192.0400  176.6010  137.9720 C   0  0  0  0  0  0  0  0  0  0  0  0
  192.5020  176.9550  139.2470 C   0  0  0  0  0  3  0  0  0  0  0  0
  191.6250  176.9680  140.3360 C   0  0  0  0  0  0  0  0  0  0  0  0
  189.8070  176.2720  138.8790 C   0  0  0  0  0  3  0  0  0  0  0  0
  190.2670  176.6240  140.1490 C   0  0  0  0  0  0  0  0  0  0  0  0
  190.6900  176.2610  137.7950 C   0  0  0  0  0  3  0  0  0  0  0  0
  189.8500  176.9930  142.5170 C   0  0  0  0  0  0  0  0  0  0  0  0
  191.2020  177.3300  142.6890 C   0  0  0  0  0  3  0  0  0  0  0  0
  192.9680  176.5880  136.8300 C   0  0  0  0  0  0  0  0  0  0  0  0
  192.5310  176.1700  135.5780 O   0  0  0  0  0  0  0  0  0  0  0  0
  194.1650  176.9540  136.9740 O   0  0  0  0  0  1  0  0  0  0  0  0
  181.4490  179.1030  142.8730 N   0  0  0  0  0  2  0  0  0  0  0  0
  180.8510  179.1260  141.5950 N   0  0  0  0  0  0  0  0  0  0  0  0
  179.9820  180.2900  141.4960 C   0  0  0  0  0  1  0  0  0  0  0  0
  180.0430  177.9270  141.4250 C   0  0  0  0  0  1  0  0  0  0  0  0
  1 11  1  0  0  0  0
  2 15  2  0  0  0  0
  3 10  1  0  0  0  0
  4  6  1  0  0  0  0
  5  9  1  0  0  0  0
  5  1  1  0  0  0  0
  6  8  1  0  0  0  0
  8  7  2  0  0  0  0
  9  4  1  0  0  0  0
 10 12  2  0  0  0  0
 11  6  2  0  0  0  0
 11 10  1  0  0  0  0
 12  7  1  0  0  0  0
 13  2  1  0  0  0  0
 14 16  1  0  0  0  0
 14 13  2  0  0  0  0
 15  3  1  0  0  0  0
 16 17  1  0  0  0  0
 17  1  2  0  0  0  0
 17 15  1  0  0  0  0
 18 27  1  0  0  0  0
 19 26  1  0  0  0  0
 20 21  2  0  0  0  0
 21 22  1  0  0  0  0
 22 18  2  0  0  0  0
 23 24  1  0  0  0  0
 24 22  1  0  0  0  0
 24 19  2  0  0  0  0
 25 20  1  0  0  0  0
 25 23  2  0  0  0  0
 26 27  2  0  0  0  0
 26  9  1  0  0  0  0
 28 30  1  0  0  0  0
 28 20  1  0  0  0  0
 29 28  2  0  0  0  0
 31 13  1  0  0  0  0
 32 31  1  0  0  0  0
 33 32  1  0  0  0  0
 34 32  1  0  0  0  0
M  END
>  <MODEL>
1

>  <REMARK>
 VINA RESULT:     -10.4      0.000      0.000
  Name = 
  4 active torsions:
  status: ('A' for Active; 'I' for Inactive)
    1  A    between atoms: N_3  and  N_25
    2  A    between atoms: C_7  and  C_11
    3  A    between atoms: N_18  and  C_30
    4  A    between atoms: C_23  and  N_25
                            x       y       z     vdW  Elec       q    Type
                         _______ _______ _______ _____ _____    ______ ____

>  <TORSDO>
F 4

$$$$
=
 OpenBabel10272415253D

 34 39  0  0  1  0  0  0  0  0999 V2000
  187.7420  177.6470  143.1520 C   0  0  0  0  0  0  0  0  0  0  0  0
  188.7380  177.4090  146.8210 C   0  0  0  0  0  3  0  0  0  0  0  0
  186.5870  177.7870  145.7910 O   0  0  0  0  0  0  0  0  0  0  0  0
  186.1900  178.7270  140.9460 C   0  0  0  0  0  2  0  0  0  0  0  0
  188.3730  178.4560  142.1120 N   0  0  0  0  0  2  0  0  0  0  0  0
  185.5750  178.5900  142.3120 C   0  0  2  0  0  3  0  0  0  0  0  0
  183.6790  178.8930  143.7910 C   0  0  0  0  0  3  0  0  0  0  0  0
  184.2410  178.9570  142.5120 C   0  0  0  0  0  3  0  0  0  0  0  0
  187.5980  178.3060  140.9420 N   0  0  0  0  0  0  0  0  0  0  0  0
  185.7930  178.1260  144.6920 C   0  0  0  0  0  0  0  0  0  0  0  0
  186.3460  178.1500  143.4010 C   0  0  0  0  0  0  0  0  0  0  0  0
  184.4550  178.4840  144.8800 C   0  0  0  0  0  3  0  0  0  0  0  0
  190.1200  177.2170  146.7290 C   0  0  0  0  0  0  0  0  0  0  0  0
  190.7290  177.1930  145.4650 C   0  0  0  0  0  3  0  0  0  0  0  0
  187.9670  177.5880  145.6700 C   0  0  0  0  0  0  0  0  0  0  0  0
  189.9630  177.3630  144.3090 C   0  0  0  0  0  3  0  0  0  0  0  0
  188.5830  177.5800  144.4020 C   0  0  0  0  0  0  0  0  0  0  0  0
  188.1420  177.5330  137.3150 C   0  0  0  0  0  3  0  0  0  0  0  0
  189.5180  177.3110  139.7460 C   0  0  0  0  0  3  0  0  0  0  0  0
  191.3240  176.0180  136.1760 C   0  0  0  0  0  0  0  0  0  0  0  0
  190.0320  176.5600  136.1540 C   0  0  0  0  0  3  0  0  0  0  0  0
  189.4280  176.9920  137.3380 C   0  0  0  0  0  0  0  0  0  0  0  0
  191.4090  176.3380  138.5870 C   0  0  0  0  0  3  0  0  0  0  0  0
  190.1220  176.8800  138.5630 C   0  0  0  0  0  0  0  0  0  0  0  0
  192.0070  175.9090  137.3970 C   0  0  0  0  0  3  0  0  0  0  0  0
  188.2230  177.8540  139.7280 C   0  0  0  0  0  0  0  0  0  0  0  0
  187.5440  177.9620  138.5030 C   0  0  0  0  0  3  0  0  0  0  0  0
  191.9560  175.5650  134.9260 C   0  0  0  0  0  0  0  0  0  0  0  0
  193.0060  176.2880  134.3710 O   0  0  0  0  0  1  0  0  0  0  0  0
  191.5520  174.5220  134.3470 O   0  0  0  0  0  0  0  0  0  0  0  0
  190.8780  177.0420  147.9400 N   0  0  0  0  0  2  0  0  0  0  0  0
  192.2750  176.8650  148.0320 N   0  0  0  0  0  0  0  0  0  0  0  0
  192.5850  175.4480  147.9120 C   0  0  0  0  0  1  0  0  0  0  0  0
  192.7310  177.3330  149.3330 C   0  0  0  0  0  1  0  0  0  0  0  0
  1 11  2  0  0  0  0
  1 17  1  0  0  0  0
  5  1  1  0  0  0  0
  6  4  1  1  0  0  0
  6  8  1  0  0  0  0
  6 11  1  0  0  0  0
  7 12  1  0  0  0  0
  8  7  2  0  0  0  0
  9  4  1  0  0  0  0
  9  5  1  0  0  0  0
 10 12  2  0  0  0  0
 10  3  1  0  0  0  0
 11 10  1  0  0  0  0
 13  2  1  0  0  0  0
 13 31  1  0  0  0  0
 14 13  2  0  0  0  0
 15  3  1  0  0  0  0
 15  2  2  0  0  0  0
 16 17  2  0  0  0  0
 16 14  1  0  0  0  0
 17 15  1  0  0  0  0
 18 22  2  0  0  0  0
 18 27  1  0  0  0  0
 20 25  1  0  0  0  0
 21 20  2  0  0  0  0
 21 22  1  0  0  0  0
 22 24  1  0  0  0  0
 24 23  1  0  0  0  0
 24 19  2  0  0  0  0
 25 23  2  0  0  0  0
 26 19  1  0  0  0  0
 26  9  1  0  0  0  0
 27 26  2  0  0  0  0
 28 20  1  0  0  0  0
 29 28  1  0  0  0  0
 30 28  2  0  0  0  0
 31 32  1  0  0  0  0
 32 34  1  0  0  0  0
 33 32  1  0  0  0  0
M  END
>  <MODEL>
2

>  <REMARK>
 VINA RESULT:      -9.7      2.454      6.167
  Name = 
  4 active torsions:
  status: ('A' for Active; 'I' for Inactive)
    1  A    between atoms: N_3  and  N_25
    2  A    between atoms: C_7  and  C_11
    3  A    between atoms: N_18  and  C_30
    4  A    between atoms: C_23  and  N_25
                            x       y       z     vdW  Elec       q    Type
                         _______ _______ _______ _____ _____    ______ ____

>  <TORSDO>
F 4

$$$$
=
 OpenBabel10272415253D

 34 39  0  0  1  0  0  0  0  0999 V2000
  189.4110  176.7580  138.5200 C   0  0  0  0  0  0  0  0  0  0  0  0
  187.1980  176.6810  135.4200 C   0  0  0  0  0  3  0  0  0  0  0  0
  189.5090  176.0500  135.7250 O   0  0  0  0  0  0  0  0  0  0  0  0
  191.9390  177.1440  139.8980 C   0  0  0  0  0  2  0  0  0  0  0  0
  189.6010  177.8700  139.4470 N   0  0  0  0  0  2  0  0  0  0  0  0
  191.9130  176.5880  138.5010 C   0  0  0  0  0  0  0  0  0  0  0  0
  193.1030  175.7700  136.5540 C   0  0  0  0  0  3  0  0  0  0  0  0
  193.1110  176.2290  137.8750 C   0  0  0  0  0  3  0  0  0  0  0  0
  190.5880  177.4740  140.3740 N   0  0  0  0  0  0  0  0  0  0  0  0
  190.7000  176.0600  136.4570 C   0  0  0  0  0  0  0  0  0  0  0  0
  190.7010  176.4810  137.7970 C   0  0  0  0  0  0  0  0  0  0  0  0
  191.9000  175.6930  135.8440 C   0  0  0  0  0  3  0  0  0  0  0  0
  185.9990  177.2050  135.9130 C   0  0  0  0  0  0  0  0  0  0  0  0
  185.9250  177.6080  137.2540 C   0  0  0  0  0  3  0  0  0  0  0  0
  188.3190  176.5690  136.2470 C   0  0  1  0  0  3  0  0  0  0  0  0
  187.0380  177.4920  138.0900 C   0  0  0  0  0  3  0  0  0  0  0  0
  188.2470  176.9910  137.5900 C   0  0  0  0  0  0  0  0  0  0  0  0
  191.0770  177.5800  144.0890 C   0  0  0  0  0  3  0  0  0  0  0  0
  188.9700  177.5310  142.2420 C   0  0  0  0  0  3  0  0  0  0  0  0
  188.1550  177.6580  146.3640 C   0  0  0  0  0  0  0  0  0  0  0  0
  189.4810  177.6400  145.9100 C   0  0  0  0  0  3  0  0  0  0  0  0
  189.7570  177.5980  144.5410 C   0  0  0  0  0  0  0  0  0  0  0  0
  187.3730  177.5910  144.0610 C   0  0  0  0  0  3  0  0  0  0  0  0
  188.6940  177.5730  143.6100 C   0  0  0  0  0  0  0  0  0  0  0  0
  187.1050  177.6330  145.4330 C   0  0  0  0  0  3  0  0  0  0  0  0
  190.2980  177.5110  141.7820 C   0  0  0  0  0  0  0  0  0  0  0  0
  191.3450  177.5380  142.7180 C   0  0  0  0  0  3  0  0  0  0  0  0
  187.8700  177.7030  147.8080 C   0  0  0  0  0  0  0  0  0  0  0  0
  187.1670  178.7730  148.3490 O   0  0  0  0  0  0  0  0  0  0  0  0
  188.2600  176.7750  148.5650 O   0  0  0  0  0  1  0  0  0  0  0  0
  184.8700  177.3070  135.0250 N   0  0  0  0  0  2  0  0  0  0  0  0
  183.5200  177.0740  135.3630 N   0  0  0  0  0  0  0  0  0  0  0  0
  183.2680  175.6400  135.3530 C   0  0  0  0  0  1  0  0  0  0  0  0
  182.6640  177.7040  134.3680 C   0  0  0  0  0  1  0  0  0  0  0  0
  1  5  1  0  0  0  0
  2 13  2  0  0  0  0
  3 15  1  0  0  0  0
  3 10  1  0  0  0  0
  4  9  1  0  0  0  0
  5  9  1  0  0  0  0
  6  4  1  0  0  0  0
  7  8  2  0  0  0  0
  8  6  1  0  0  0  0
  9 26  1  0  0  0  0
 10 11  1  0  0  0  0
 11  6  2  0  0  0  0
 11  1  1  0  0  0  0
 12 10  2  0  0  0  0
 12  7  1  0  0  0  0
 13 14  1  0  0  0  0
 14 16  2  0  0  0  0
 15  2  1  6  0  0  0
 15 17  1  0  0  0  0
 17 16  1  0  0  0  0
 17  1  2  0  0  0  0
 18 22  1  0  0  0  0
 19 24  1  0  0  0  0
 20 28  1  0  0  0  0
 21 20  1  0  0  0  0
 22 21  2  0  0  0  0
 23 25  1  0  0  0  0
 24 23  2  0  0  0  0
 24 22  1  0  0  0  0
 25 20  2  0  0  0  0
 26 19  2  0  0  0  0
 26 27  1  0  0  0  0
 27 18  2  0  0  0  0
 28 29  2  0  0  0  0
 28 30  1  0  0  0  0
 31 32  1  0  0  0  0
 31 13  1  0  0  0  0
 33 32  1  0  0  0  0
 34 32  1  0  0  0  0
M  END
>  <MODEL>
3

>  <REMARK>
 VINA RESULT:      -9.0      3.424      8.393
  Name = 
  4 active torsions:
  status: ('A' for Active; 'I' for Inactive)
    1  A    between atoms: N_3  and  N_25
    2  A    between atoms: C_7  and  C_11
    3  A    between atoms: N_18  and  C_30
    4  A    between atoms: C_23  and  N_25
                            x       y       z     vdW  Elec       q    Type
                         _______ _______ _______ _____ _____    ______ ____

>  <TORSDO>
F 4

$$$$
=
 OpenBabel10272415253D

 34 39  0  0  1  0  0  0  0  0999 V2000
  186.8700  177.9590  139.3880 C   0  0  0  0  0  0  0  0  0  0  0  0
  183.2480  178.7230  138.4900 C   0  0  0  0  0  3  0  0  0  0  0  0
  185.1140  178.0670  137.1030 O   0  0  0  0  0  0  0  0  0  0  0  0
  189.7320  177.9800  138.8870 C   0  0  0  0  0  2  0  0  0  0  0  0
  187.7720  178.7680  140.2040 N   0  0  0  0  0  2  0  0  0  0  0  0
  188.7620  177.8400  137.7460 C   0  0  0  0  0  0  0  0  0  0  0  0
  188.3490  177.6210  135.3680 C   0  0  0  0  0  3  0  0  0  0  0  0
  189.2420  177.6890  136.4420 C   0  0  0  0  0  3  0  0  0  0  0  0
  189.0360  178.1420  140.1710 N   0  0  0  0  0  0  0  0  0  0  0  0
  186.4830  177.8890  136.8890 C   0  0  2  0  0  3  0  0  0  0  0  0
  187.3770  177.9160  137.9720 C   0  0  0  0  0  0  0  0  0  0  0  0
  186.9730  177.7280  135.5900 C   0  0  0  0  0  3  0  0  0  0  0  0
  182.7130  179.0690  139.7340 C   0  0  0  0  0  0  0  0  0  0  0  0
  183.5460  179.0770  140.8630 C   0  0  0  0  0  3  0  0  0  0  0  0
  184.6020  178.4010  138.3620 C   0  0  0  0  0  0  0  0  0  0  0  0
  184.8990  178.7480  140.7460 C   0  0  0  0  0  3  0  0  0  0  0  0
  185.4410  178.4260  139.4950 C   0  0  0  0  0  0  0  0  0  0  0  0
  191.6390  176.9320  142.5820 C   0  0  0  0  0  3  0  0  0  0  0  0
  189.0150  177.9150  142.6320 C   0  0  0  0  0  3  0  0  0  0  0  0
  190.9370  176.8560  146.2180 C   0  0  0  0  0  0  0  0  0  0  0  0
  191.6060  176.7180  144.9950 C   0  0  0  0  0  3  0  0  0  0  0  0
  190.9720  177.0690  143.8000 C   0  0  0  0  0  0  0  0  0  0  0  0
  188.9810  177.7020  145.0440 C   0  0  0  0  0  3  0  0  0  0  0  0
  189.6490  177.5650  143.8260 C   0  0  0  0  0  0  0  0  0  0  0  0
  189.6230  177.3490  146.2360 C   0  0  0  0  0  3  0  0  0  0  0  0
  189.6820  177.7770  141.4030 C   0  0  0  0  0  0  0  0  0  0  0  0
  190.9980  177.2850  141.3920 C   0  0  0  0  0  3  0  0  0  0  0  0
  191.6110  176.4860  147.4740 C   0  0  0  0  0  0  0  0  0  0  0  0
  191.9900  175.1670  147.7010 O   0  0  0  0  0  0  0  0  0  0  0  0
  191.8490  177.3560  148.3520 O   0  0  0  0  0  1  0  0  0  0  0  0
  181.3150  179.4000  139.8200 N   0  0  0  0  0  2  0  0  0  0  0  0
  180.2880  178.5630  140.3070 N   0  0  0  0  0  0  0  0  0  0  0  0
  180.1610  178.7530  141.7450 C   0  0  0  0  0  1  0  0  0  0  0  0
  180.6420  177.1750  140.0500 C   0  0  0  0  0  1  0  0  0  0  0  0
  1 17  1  0  0  0  0
  1  5  1  0  0  0  0
  2 13  1  0  0  0  0
  3 15  1  0  0  0  0
  4  9  1  0  0  0  0
  6 11  1  0  0  0  0
  6  4  1  0  0  0  0
  7 12  2  0  0  0  0
  7  8  1  0  0  0  0
  8  6  2  0  0  0  0
  9  5  1  0  0  0  0
  9 26  1  0  0  0  0
 10 12  1  6  0  0  0
 10  3  1  0  0  0  0
 10 11  1  0  0  0  0
 11  1  2  0  0  0  0
 13 31  1  0  0  0  0
 13 14  2  0  0  0  0
 15  2  2  0  0  0  0
 15 17  1  0  0  0  0
 16 14  1  0  0  0  0
 17 16  2  0  0  0  0
 18 22  1  0  0  0  0
 19 24  1  0  0  0  0
 20 25  1  0  0  0  0
 20 28  1  0  0  0  0
 21 20  2  0  0  0  0
 22 24  2  0  0  0  0
 22 21  1  0  0  0  0
 23 25  2  0  0  0  0
 24 23  1  0  0  0  0
 26 19  2  0  0  0  0
 27 26  1  0  0  0  0
 27 18  2  0  0  0  0
 28 29  2  0  0  0  0
 28 30  1  0  0  0  0
 31 32  1  0  0  0  0
 32 33  1  0  0  0  0
 34 32  1  0  0  0  0
M  END
>  <MODEL>
4

>  <REMARK>
 VINA RESULT:      -9.0      3.341      6.881
  Name = 
  4 active torsions:
  status: ('A' for Active; 'I' for Inactive)
    1  A    between atoms: N_3  and  N_25
    2  A    between atoms: C_7  and  C_11
    3  A    between atoms: N_18  and  C_30
    4  A    between atoms: C_23  and  N_25
                            x       y       z     vdW  Elec       q    Type
                         _______ _______ _______ _____ _____    ______ ____

>  <TORSDO>
F 4

$$$$
=
 OpenBabel10272415253D

 34 39  0  0  1  0  0  0  0  0999 V2000
  190.8440  176.7450  138.0880 C   0  0  0  0  0  0  0  0  0  0  0  0
  193.2640  175.5750  135.3880 C   0  0  0  0  0  3  0  0  0  0  0  0
  191.1520  176.7350  135.2200 O   0  0  0  0  0  0  0  0  0  0  0  0
  188.1910  177.2580  139.1530 C   0  0  0  0  0  2  0  0  0  0  0  0
  190.3180  175.9660  139.2060 N   0  0  0  0  0  2  0  0  0  0  0  0
  188.4650  177.4280  137.6840 C   0  0  0  0  0  0  0  0  0  0  0  0
  187.6720  177.9650  135.4580 C   0  0  0  0  0  3  0  0  0  0  0  0
  187.4440  177.8640  136.8340 C   0  0  0  0  0  3  0  0  0  0  0  0
  189.3790  176.7800  139.8740 N   0  0  0  0  0  0  0  0  0  0  0  0
  189.9360  177.1590  135.7630 C   0  0  2  0  0  3  0  0  0  0  0  0
  189.7220  177.0980  137.1500 C   0  0  0  0  0  0  0  0  0  0  0  0
  188.9130  177.6070  134.9230 C   0  0  0  0  0  3  0  0  0  0  0  0
  194.2580  174.9500  136.1480 C   0  0  0  0  0  0  0  0  0  0  0  0
  194.1210  174.8890  137.5430 C   0  0  0  0  0  3  0  0  0  0  0  0
  192.1360  176.1240  136.0050 C   0  0  0  0  0  0  0  0  0  0  0  0
  193.0010  175.4430  138.1680 C   0  0  0  0  0  3  0  0  0  0  0  0
  191.9930  176.0460  137.4050 C   0  0  0  0  0  0  0  0  0  0  0  0
  190.9570  177.6110  143.1710 C   0  0  0  0  0  3  0  0  0  0  0  0
  188.4250  176.9860  142.1440 C   0  0  0  0  0  3  0  0  0  0  0  0
  188.9020  177.7610  146.2490 C   0  0  0  0  0  0  0  0  0  0  0  0
  190.0080  177.8140  145.3910 C   0  0  0  0  0  3  0  0  0  0  0  0
  189.8550  177.5570  144.0260 C   0  0  0  0  0  0  0  0  0  0  0  0
  187.4750  177.1890  144.3630 C   0  0  0  0  0  3  0  0  0  0  0  0
  188.5780  177.2430  143.5080 C   0  0  0  0  0  0  0  0  0  0  0  0
  187.6370  177.4480  145.7280 C   0  0  0  0  0  3  0  0  0  0  0  0
  189.5320  177.0370  141.2810 C   0  0  0  0  0  0  0  0  0  0  0  0
  190.7960  177.3530  141.8070 C   0  0  0  0  0  3  0  0  0  0  0  0
  189.0690  178.0330  147.6860 C   0  0  0  0  0  0  0  0  0  0  0  0
  188.0150  178.5550  148.4270 O   0  0  0  0  0  1  0  0  0  0  0  0
  190.1670  177.7970  148.2570 O   0  0  0  0  0  0  0  0  0  0  0  0
  195.4000  174.3930  135.4720 N   0  0  0  0  0  2  0  0  0  0  0  0
  196.7380  174.4400  135.9170 N   0  0  0  0  0  0  0  0  0  0  0  0
  197.3140  175.7290  135.5600 C   0  0  0  0  0  1  0  0  0  0  0  0
  197.4980  173.3910  135.2550 C   0  0  0  0  0  1  0  0  0  0  0  0
  1  5  1  0  0  0  0
  2 15  2  0  0  0  0
  2 13  1  0  0  0  0
  3 10  1  0  0  0  0
  3 15  1  0  0  0  0
  4  9  1  0  0  0  0
  5  9  1  0  0  0  0
  6  4  1  0  0  0  0
  7  8  1  0  0  0  0
  8  6  2  0  0  0  0
  9 26  1  0  0  0  0
 10 12  1  6  0  0  0
 10 11  1  0  0  0  0
 11  6  1  0  0  0  0
 11  1  2  0  0  0  0
 12  7  2  0  0  0  0
 13 14  2  0  0  0  0
 14 16  1  0  0  0  0
 15 17  1  0  0  0  0
 17  1  1  0  0  0  0
 17 16  2  0  0  0  0
 18 22  1  0  0  0  0
 19 24  1  0  0  0  0
 20 28  1  0  0  0  0
 21 20  2  0  0  0  0
 22 21  1  0  0  0  0
 23 25  2  0  0  0  0
 24 22  2  0  0  0  0
 24 23  1  0  0  0  0
 25 20  1  0  0  0  0
 26 27  1  0  0  0  0
 26 19  2  0  0  0  0
 27 18  2  0  0  0  0
 28 30  2  0  0  0  0
 28 29  1  0  0  0  0
 31 32  1  0  0  0  0
 31 13  1  0  0  0  0
 33 32  1  0  0  0  0
 34 32  1  0  0  0  0
M  END
>  <MODEL>
5

>  <REMARK>
 VINA RESULT:      -8.6      3.760     10.723
  Name = 
  4 active torsions:
  status: ('A' for Active; 'I' for Inactive)
    1  A    between atoms: N_3  and  N_25
    2  A    between atoms: C_7  and  C_11
    3  A    between atoms: N_18  and  C_30
    4  A    between atoms: C_23  and  N_25
                            x       y       z     vdW  Elec       q    Type
                         _______ _______ _______ _____ _____    ______ ____

>  <TORSDO>
F 4

$$$$
=
 OpenBabel10272415253D

 34 39  0  0  0  0  0  0  0  0999 V2000
  189.7420  177.0670  143.7920 C   0  0  0  0  0  0  0  0  0  0  0  0
  192.7450  176.5140  141.5140 C   0  0  0  0  0  3  0  0  0  0  0  0
  192.4120  175.9780  143.8450 O   0  0  0  0  0  0  0  0  0  0  0  0
  188.4930  177.6930  146.3390 C   0  0  0  0  0  2  0  0  0  0  0  0
  188.9830  178.3020  143.9750 N   0  0  0  0  0  2  0  0  0  0  0  0
  189.7990  176.9470  146.2960 C   0  0  0  0  0  0  0  0  0  0  0  0
  191.6410  175.8890  147.4620 C   0  0  0  0  0  3  0  0  0  0  0  0
  190.3970  176.5280  147.4880 C   0  0  0  0  0  3  0  0  0  0  0  0
  188.0350  178.0590  144.9910 N   0  0  0  0  0  0  0  0  0  0  0  0
  191.7180  176.1150  145.0510 C   0  0  0  0  0  0  0  0  0  0  0  0
  190.4500  176.7180  145.0720 C   0  0  0  0  0  0  0  0  0  0  0  0
  192.3040  175.6890  146.2460 C   0  0  0  0  0  3  0  0  0  0  0  0
  192.3000  177.0780  140.3140 C   0  0  0  0  0  0  0  0  0  0  0  0
  191.0260  177.6630  140.2600 C   0  0  0  0  0  3  0  0  0  0  0  0
  191.9380  176.5420  142.6550 C   0  0  0  0  0  0  0  0  0  0  0  0
  190.2100  177.6870  141.3940 C   0  0  0  0  0  2  0  0  0  0  0  0
  190.6650  177.1450  142.6020 C   0  0  0  0  0  0  0  0  0  0  0  0
  184.3930  178.7450  145.5560 C   0  0  0  0  0  3  0  0  0  0  0  0
  186.1450  178.2910  143.4160 C   0  0  0  0  0  3  0  0  0  0  0  0
  182.0610  178.9770  142.6870 C   0  0  0  0  0  0  0  0  0  0  0  0
  182.5500  178.9740  144.0000 C   0  0  0  0  0  3  0  0  0  0  0  0
  183.9070  178.7470  144.2480 C   0  0  0  0  0  0  0  0  0  0  0  0
  184.3030  178.5200  141.8600 C   0  0  0  0  0  3  0  0  0  0  0  0
  184.7890  178.5180  143.1690 C   0  0  0  0  0  0  0  0  0  0  0  0
  182.9450  178.7490  141.6200 C   0  0  0  0  0  3  0  0  0  0  0  0
  186.6380  178.2860  144.7320 C   0  0  0  0  0  0  0  0  0  0  0  0
  185.7510  178.5170  145.7950 C   0  0  0  0  0  3  0  0  0  0  0  0
  180.6320  179.2170  142.4320 C   0  0  0  0  0  0  0  0  0  0  0  0
  179.9830  180.2860  143.0410 O   0  0  0  0  0  1  0  0  0  0  0  0
  179.9830  178.4590  141.6640 O   0  0  0  0  0  0  0  0  0  0  0  0
  193.1650  177.0330  139.1640 N   0  0  0  0  0  2  0  0  0  0  0  0
  193.2360  175.9920  138.2150 N   0  0  0  0  0  0  0  0  0  0  0  0
  193.6980  176.5350  136.9460 C   0  0  0  0  0  1  0  0  0  0  0  0
  191.9080  175.4280  138.0240 C   0  0  0  0  0  1  0  0  0  0  0  0
  1  5  1  0  0  0  0
  1 11  1  0  0  0  0
  2 15  2  0  0  0  0
  3 10  1  0  0  0  0
  5  9  1  0  0  0  0
  6  4  1  0  0  0  0
  6  8  1  0  0  0  0
  7  8  2  0  0  0  0
  9  4  1  0  0  0  0
 10 11  1  0  0  0  0
 10 12  2  0  0  0  0
 11  6  2  0  0  0  0
 12  7  1  0  0  0  0
 13  2  1  0  0  0  0
 14 13  2  0  0  0  0
 14 16  1  0  0  0  0
 15  3  1  0  0  0  0
 16 17  1  0  0  0  0
 17 15  1  0  0  0  0
 17  1  2  0  0  0  0
 18 27  1  0  0  0  0
 19 26  1  0  0  0  0
 20 21  2  0  0  0  0
 21 22  1  0  0  0  0
 22 18  2  0  0  0  0
 23 24  1  0  0  0  0
 24 19  2  0  0  0  0
 24 22  1  0  0  0  0
 25 23  2  0  0  0  0
 25 20  1  0  0  0  0
 26  9  1  0  0  0  0
 26 27  2  0  0  0  0
 28 20  1  0  0  0  0
 28 29  1  0  0  0  0
 30 28  2  0  0  0  0
 31 13  1  0  0  0  0
 32 31  1  0  0  0  0
 33 32  1  0  0  0  0
 34 32  1  0  0  0  0
M  END
>  <MODEL>
6

>  <REMARK>
 VINA RESULT:      -8.6      3.048      8.736
  Name = 
  4 active torsions:
  status: ('A' for Active; 'I' for Inactive)
    1  A    between atoms: N_3  and  N_25
    2  A    between atoms: C_7  and  C_11
    3  A    between atoms: N_18  and  C_30
    4  A    between atoms: C_23  and  N_25
                            x       y       z     vdW  Elec       q    Type
                         _______ _______ _______ _____ _____    ______ ____

>  <TORSDO>
F 4

$$$$
=
 OpenBabel10272415253D

 34 39  0  0  1  0  0  0  0  0999 V2000
  187.6650  178.0680  141.6880 C   0  0  0  0  0  0  0  0  0  0  0  0
  188.1930  178.0640  137.9150 C   0  0  0  0  0  3  0  0  0  0  0  0
  186.3010  178.7620  139.2430 O   0  0  0  0  0  0  0  0  0  0  0  0
  186.0540  177.7610  144.0860 C   0  0  0  0  0  2  0  0  0  0  0  0
  187.9010  176.9670  142.6180 N   0  0  0  0  0  2  0  0  0  0  0  0
  185.4430  178.3080  142.8250 C   0  0  0  0  0  0  0  0  0  0  0  0
  183.5060  179.1490  141.6350 C   0  0  0  0  0  3  0  0  0  0  0  0
  184.1000  178.6980  142.8180 C   0  0  0  0  0  3  0  0  0  0  0  0
  187.4640  177.3960  143.8890 N   0  0  0  0  0  0  0  0  0  0  0  0
  185.5840  178.7900  140.4430 C   0  0  0  0  0  0  0  0  0  0  0  0
  186.1940  178.3770  141.6390 C   0  0  0  0  0  0  0  0  0  0  0  0
  184.2450  179.1880  140.4480 C   0  0  0  0  0  3  0  0  0  0  0  0
  189.4720  177.5090  137.8070 C   0  0  0  0  0  0  0  0  0  0  0  0
  190.1500  177.1110  138.9700 C   0  0  0  0  0  3  0  0  0  0  0  0
  187.5850  178.2120  139.1650 C   0  0  1  0  0  3  0  0  0  0  0  0
  189.5520  177.2640  140.2230 C   0  0  0  0  0  3  0  0  0  0  0  0
  188.2610  177.7960  140.3300 C   0  0  0  0  0  0  0  0  0  0  0  0
  188.9310  178.0100  147.2830 C   0  0  0  0  0  3  0  0  0  0  0  0
  189.5730  176.6340  144.9280 C   0  0  0  0  0  3  0  0  0  0  0  0
  192.1970  176.5290  148.2110 C   0  0  0  0  0  0  0  0  0  0  0  0
  190.9990  177.2520  148.2920 C   0  0  0  0  0  3  0  0  0  0  0  0
  190.1240  177.2900  147.2030 C   0  0  0  0  0  0  0  0  0  0  0  0
  191.6410  175.8750  145.9350 C   0  0  0  0  0  3  0  0  0  0  0  0
  190.4480  176.5950  146.0160 C   0  0  0  0  0  0  0  0  0  0  0  0
  192.5110  175.8420  147.0290 C   0  0  0  0  0  3  0  0  0  0  0  0
  188.3720  177.3590  145.0040 C   0  0  0  0  0  0  0  0  0  0  0  0
  188.0600  178.0430  146.1910 C   0  0  0  0  0  3  0  0  0  0  0  0
  193.1150  176.4920  149.3620 C   0  0  0  0  0  0  0  0  0  0  0  0
  193.7110  177.6630  149.8180 O   0  0  0  0  0  0  0  0  0  0  0  0
  193.3700  175.4040  149.9410 O   0  0  0  0  0  1  0  0  0  0  0  0
  190.0600  177.3690  136.5010 N   0  0  0  0  0  2  0  0  0  0  0  0
  189.6140  176.5100  135.4740 N   0  0  0  0  0  0  0  0  0  0  0  0
  190.7350  175.7130  134.9980 C   0  0  0  0  0  1  0  0  0  0  0  0
  189.1100  177.3110  134.3670 C   0  0  0  0  0  1  0  0  0  0  0  0
  1  5  1  0  0  0  0
  3 10  1  0  0  0  0
  5  9  1  0  0  0  0
  6  4  1  0  0  0  0
  7  8  2  0  0  0  0
  8  6  1  0  0  0  0
  9  4  1  0  0  0  0
  9 26  1  0  0  0  0
 10 12  2  0  0  0  0
 10 11  1  0  0  0  0
 11  1  1  0  0  0  0
 11  6  2  0  0  0  0
 12  7  1  0  0  0  0
 13  2  2  0  0  0  0
 13 14  1  0  0  0  0
 14 16  2  0  0  0  0
 15  2  1  6  0  0  0
 15  3  1  0  0  0  0
 15 17  1  0  0  0  0
 16 17  1  0  0  0  0
 17  1  2  0  0  0  0
 19 26  2  0  0  0  0
 19 24  1  0  0  0  0
 20 21  1  0  0  0  0
 20 28  1  0  0  0  0
 22 18  1  0  0  0  0
 22 21  2  0  0  0  0
 23 24  2  0  0  0  0
 23 25  1  0  0  0  0
 24 22  1  0  0  0  0
 25 20  2  0  0  0  0
 26 27  1  0  0  0  0
 27 18  2  0  0  0  0
 28 29  2  0  0  0  0
 28 30  1  0  0  0  0
 31 13  1  0  0  0  0
 32 31  1  0  0  0  0
 33 32  1  0  0  0  0
 34 32  1  0  0  0  0
M  END
>  <MODEL>
7

>  <REMARK>
 VINA RESULT:      -8.4      3.795      8.019
  Name = 
  4 active torsions:
  status: ('A' for Active; 'I' for Inactive)
    1  A    between atoms: N_3  and  N_25
    2  A    between atoms: C_7  and  C_11
    3  A    between atoms: N_18  and  C_30
    4  A    between atoms: C_23  and  N_25
                            x       y       z     vdW  Elec       q    Type
                         _______ _______ _______ _____ _____    ______ ____

>  <TORSDO>
F 4

$$$$
=
 OpenBabel10272415253D

 34 39  0  0  1  0  0  0  0  0999 V2000
  186.0440  178.0410  142.2750 C   0  0  0  0  0  0  0  0  0  0  0  0
  185.5770  178.2230  146.0520 C   0  0  0  0  0  3  0  0  0  0  0  0
  183.9670  178.3390  144.2550 O   0  0  0  0  0  0  0  0  0  0  0  0
  185.4110  178.7880  139.5410 C   0  0  0  0  0  2  0  0  0  0  0  0
  186.9940  178.7940  141.4610 N   0  0  0  0  0  2  0  0  0  0  0  0
  184.3280  178.7330  140.5830 C   0  0  2  0  0  3  0  0  0  0  0  0
  182.0020  179.0280  141.1980 C   0  0  0  0  0  3  0  0  0  0  0  0
  183.0060  179.0150  140.2240 C   0  0  0  0  0  3  0  0  0  0  0  0
  186.7290  178.4770  140.1130 N   0  0  0  0  0  0  0  0  0  0  0  0
  183.6400  178.5130  142.9080 C   0  0  0  0  0  0  0  0  0  0  0  0
  184.6410  178.4570  141.9240 C   0  0  0  0  0  0  0  0  0  0  0  0
  182.3200  178.7840  142.5380 C   0  0  0  0  0  3  0  0  0  0  0  0
  186.8960  178.1290  146.5070 C   0  0  0  0  0  0  0  0  0  0  0  0
  187.9390  178.0330  145.5740 C   0  0  0  0  0  3  0  0  0  0  0  0
  185.2950  178.2350  144.6830 C   0  0  0  0  0  0  0  0  0  0  0  0
  187.6660  178.0360  144.2040 C   0  0  0  0  0  3  0  0  0  0  0  0
  186.3470  178.1550  143.7480 C   0  0  0  0  0  0  0  0  0  0  0  0
  188.5580  177.1880  137.1060 C   0  0  0  0  0  3  0  0  0  0  0  0
  189.0680  177.7440  139.8050 C   0  0  0  0  0  3  0  0  0  0  0  0
  192.1360  176.2570  137.3440 C   0  0  0  0  0  0  0  0  0  0  0  0
  190.8560  176.4750  136.8170 C   0  0  0  0  0  3  0  0  0  0  0  0
  189.8330  176.9700  137.6310 C   0  0  0  0  0  0  0  0  0  0  0  0
  191.3650  177.0320  139.5180 C   0  0  0  0  0  3  0  0  0  0  0  0
  190.0910  177.2500  138.9920 C   0  0  0  0  0  0  0  0  0  0  0  0
  192.3840  176.5380  138.6960 C   0  0  0  0  0  3  0  0  0  0  0  0
  187.7830  177.9620  139.2810 C   0  0  0  0  0  0  0  0  0  0  0  0
  187.5410  177.6820  137.9260 C   0  0  0  0  0  3  0  0  0  0  0  0
  193.2090  175.7370  136.4820 C   0  0  0  0  0  0  0  0  0  0  0  0
  192.9400  174.7330  135.5580 O   0  0  0  0  0  0  0  0  0  0  0  0
  194.3800  176.1940  136.5720 O   0  0  0  0  0  1  0  0  0  0  0  0
  187.1410  178.1260  147.9250 N   0  0  0  0  0  2  0  0  0  0  0  0
  188.2220  177.5020  148.5830 N   0  0  0  0  0  0  0  0  0  0  0  0
  189.3570  178.4130  148.6060 C   0  0  0  0  0  1  0  0  0  0  0  0
  188.6020  176.3050  147.8460 C   0  0  0  0  0  1  0  0  0  0  0  0
  1 17  1  0  0  0  0
  2 13  1  0  0  0  0
  3 15  1  0  0  0  0
  4  9  1  0  0  0  0
  5  1  1  0  0  0  0
  6  4  1  1  0  0  0
  6 11  1  0  0  0  0
  7 12  1  0  0  0  0
  8  6  1  0  0  0  0
  8  7  2  0  0  0  0
  9  5  1  0  0  0  0
 10  3  1  0  0  0  0
 11  1  2  0  0  0  0
 11 10  1  0  0  0  0
 12 10  2  0  0  0  0
 13 31  1  0  0  0  0
 14 13  2  0  0  0  0
 15  2  2  0  0  0  0
 16 14  1  0  0  0  0
 17 16  2  0  0  0  0
 17 15  1  0  0  0  0
 18 22  2  0  0  0  0
 18 27  1  0  0  0  0
 20 25  1  0  0  0  0
 21 20  2  0  0  0  0
 21 22  1  0  0  0  0
 22 24  1  0  0  0  0
 24 23  1  0  0  0  0
 24 19  2  0  0  0  0
 25 23  2  0  0  0  0
 26 19  1  0  0  0  0
 26  9  1  0  0  0  0
 27 26  2  0  0  0  0
 28 30  1  0  0  0  0
 28 20  1  0  0  0  0
 29 28  2  0  0  0  0
 31 32  1  0  0  0  0
 32 33  1  0  0  0  0
 34 32  1  0  0  0  0
M  END
>  <MODEL>
8

>  <REMARK>
 VINA RESULT:      -8.4      2.169      5.472
  Name = 
  4 active torsions:
  status: ('A' for Active; 'I' for Inactive)
    1  A    between atoms: N_3  and  N_25
    2  A    between atoms: C_7  and  C_11
    3  A    between atoms: N_18  and  C_30
    4  A    between atoms: C_23  and  N_25
                            x       y       z     vdW  Elec       q    Type
                         _______ _______ _______ _____ _____    ______ ____

>  <TORSDO>
F 4

$$$$
=
 OpenBabel10272415253D

 34 39  0  0  1  0  0  0  0  0999 V2000
  186.6480  177.4320  138.4030 C   0  0  0  0  0  0  0  0  0  0  0  0
  183.3210  177.6450  136.5600 C   0  0  0  0  0  3  0  0  0  0  0  0
  185.5330  177.0900  135.7650 O   0  0  0  0  0  0  0  0  0  0  0  0
  189.5270  177.7600  138.6140 C   0  0  0  0  0  2  0  0  0  0  0  0
  187.2290  178.4260  139.3030 N   0  0  0  0  0  2  0  0  0  0  0  0
  188.8990  177.3850  137.2990 C   0  0  0  0  0  0  0  0  0  0  0  0
  189.1320  176.8780  134.9410 C   0  0  0  0  0  3  0  0  0  0  0  0
  189.7100  177.1650  136.1820 C   0  0  0  0  0  3  0  0  0  0  0  0
  188.5130  177.9620  139.6590 N   0  0  0  0  0  0  0  0  0  0  0  0
  186.9220  177.0640  135.9150 C   0  0  2  0  0  3  0  0  0  0  0  0
  187.5020  177.3100  137.1710 C   0  0  0  0  0  0  0  0  0  0  0  0
  187.7410  176.8340  134.8060 C   0  0  0  0  0  3  0  0  0  0  0  0
  182.4540  178.0440  137.5820 C   0  0  0  0  0  0  0  0  0  0  0  0
  182.9660  178.2700  138.8680 C   0  0  0  0  0  3  0  0  0  0  0  0
  184.6870  177.4820  136.8080 C   0  0  0  0  0  0  0  0  0  0  0  0
  184.3280  178.1020  139.1270 C   0  0  0  0  0  3  0  0  0  0  0  0
  185.2010  177.7260  138.0980 C   0  0  0  0  0  0  0  0  0  0  0  0
  190.5420  177.5150  142.7790 C   0  0  0  0  0  3  0  0  0  0  0  0
  187.8560  177.8080  142.0360 C   0  0  0  0  0  3  0  0  0  0  0  0
  188.8860  177.3700  146.0890 C   0  0  0  0  0  0  0  0  0  0  0  0
  189.8840  177.3690  145.1060 C   0  0  0  0  0  3  0  0  0  0  0  0
  189.5470  177.5150  143.7570 C   0  0  0  0  0  0  0  0  0  0  0  0
  187.1970  177.6630  144.3620 C   0  0  0  0  0  3  0  0  0  0  0  0
  188.1930  177.6630  143.3830 C   0  0  0  0  0  0  0  0  0  0  0  0
  187.5430  177.5170  145.7090 C   0  0  0  0  0  3  0  0  0  0  0  0
  188.8540  177.8060  141.0470 C   0  0  0  0  0  0  0  0  0  0  0  0
  190.1970  177.6610  141.4320 C   0  0  0  0  0  3  0  0  0  0  0  0
  189.2470  177.2160  147.5070 C   0  0  0  0  0  0  0  0  0  0  0  0
  188.2670  177.2940  148.4910 O   0  0  0  0  0  1  0  0  0  0  0  0
  190.4440  177.0150  147.8440 O   0  0  0  0  0  0  0  0  0  0  0  0
  181.0560  178.2050  137.2820 N   0  0  0  0  0  2  0  0  0  0  0  0
  180.3020  179.3890  137.4280 N   0  0  0  0  0  0  0  0  0  0  0  0
  181.0960  180.5190  136.9680 C   0  0  0  0  0  1  0  0  0  0  0  0
  179.9880  179.5840  138.8360 C   0  0  0  0  0  1  0  0  0  0  0  0
  1  5  1  0  0  0  0
  2 15  2  0  0  0  0
  2 13  1  0  0  0  0
  3 10  1  0  0  0  0
  3 15  1  0  0  0  0
  4  9  1  0  0  0  0
  5  9  1  0  0  0  0
  6  4  1  0  0  0  0
  7  8  1  0  0  0  0
  8  6  2  0  0  0  0
  9 26  1  0  0  0  0
 10 12  1  6  0  0  0
 10 11  1  0  0  0  0
 11  6  1  0  0  0  0
 11  1  2  0  0  0  0
 12  7  2  0  0  0  0
 13 14  2  0  0  0  0
 14 16  1  0  0  0  0
 15 17  1  0  0  0  0
 17  1  1  0  0  0  0
 17 16  2  0  0  0  0
 18 22  1  0  0  0  0
 19 24  1  0  0  0  0
 20 28  1  0  0  0  0
 21 20  2  0  0  0  0
 22 21  1  0  0  0  0
 23 25  2  0  0  0  0
 24 22  2  0  0  0  0
 24 23  1  0  0  0  0
 25 20  1  0  0  0  0
 26 27  1  0  0  0  0
 26 19  2  0  0  0  0
 27 18  2  0  0  0  0
 28 30  2  0  0  0  0
 28 29  1  0  0  0  0
 31 32  1  0  0  0  0
 31 13  1  0  0  0  0
 32 34  1  0  0  0  0
 33 32  1  0  0  0  0
M  END
>  <MODEL>
9

>  <REMARK>
 VINA RESULT:      -8.3      3.523      7.647
  Name = 
  4 active torsions:
  status: ('A' for Active; 'I' for Inactive)
    1  A    between atoms: N_3  and  N_25
    2  A    between atoms: C_7  and  C_11
    3  A    between atoms: N_18  and  C_30
    4  A    between atoms: C_23  and  N_25
                            x       y       z     vdW  Elec       q    Type
                         _______ _______ _______ _____ _____    ______ ____

>  <TORSDO>
F 4

$$$$
