=
 OpenBabel10272413153D

 32 36  0  0  1  0  0  0  0  0999 V2000
  188.5320  176.3980  142.5150 C   0  0  0  0  0  2  0  0  0  0  0  0
  186.5460  178.6350  140.5400 C   0  0  1  0  0  3  0  0  0  0  0  0
  189.7330  177.1800  141.9760 C   0  0  0  0  0  2  0  0  0  0  0  0
  187.6670  177.8430  140.3300 O   0  0  0  0  0  0  0  0  0  0  0  0
  185.5460  178.3470  139.4000 C   0  0  2  0  0  0  0  0  0  0  0  0
  186.0780  178.3750  141.9780 C   0  0  1  0  0  3  0  0  0  0  0  0
  186.1730  177.9910  138.0820 C   0  0  1  0  0  0  0  0  0  0  0  0
  188.3690  178.4090  139.2740 C   0  0  2  0  0  3  0  0  0  0  0  0
  187.7160  177.9580  137.9650 C   0  0  0  0  0  2  0  0  0  0  0  0
  189.8550  178.0490  139.3830 C   0  0  0  0  0  2  0  0  0  0  0  0
  187.2300  178.5160  142.8790 N   0  0  0  0  0  2  0  0  0  0  0  0
  185.3490  177.2990  137.0100 C   0  0  0  0  0  1  0  0  0  0  0  0
  187.5950  177.2110  143.4300 C   0  0  2  0  0  3  0  0  0  0  0  0
  185.6770  179.2830  138.3490 O   0  0  0  0  0  0  0  0  0  0  0  0
  190.1960  176.5080  140.3330 S   0  0  0  0  0  0  0  0  0  0  0  0
  189.5320  178.2640  148.6090 F   0  0  0  0  0  0  0  0  0  0  0  0
  190.0120  177.3960  146.4390 C   0  0  0  0  0  2  0  0  0  0  0  0
  188.1410  177.3570  144.8210 C   0  0  0  0  0  0  0  0  0  0  0  0
  187.7040  178.0420  147.1280 C   0  0  0  0  0  3  0  0  0  0  0  0
  189.4630  177.3010  145.0420 C   0  0  0  0  0  3  0  0  0  0  0  0
  187.2170  177.6180  145.9560 C   0  0  0  0  0  0  0  0  0  0  0  0
  189.1670  178.3530  147.2810 C   0  0  1  0  0  3  0  0  0  0  0  0
  185.7490  177.3720  145.8260 C   0  0  0  0  0  2  0  0  0  0  0  0
  185.0020  177.8750  147.0530 C   0  0  0  0  0  2  0  0  0  0  0  0
  185.2140  179.2440  147.2150 O   0  0  0  0  0  1  0  0  0  0  0  0
  183.9600  179.5960  144.5250 C   0  0  0  0  0  2  0  0  0  0  0  0
  183.6470  178.5840  142.5620 C   0  0  0  0  0  2  0  0  0  0  0  0
  184.9530  179.3310  142.3920 C   0  0  1  0  0  3  0  0  0  0  0  0
  183.3750  178.4660  143.9330 O   0  0  0  0  0  0  0  0  0  0  0  0
  185.1950  179.9600  143.7370 C   0  0  0  0  0  2  0  0  0  0  0  0
  183.2300  178.9530  139.2470 O   0  0  0  0  0  1  0  0  0  0  0  0
  184.0970  177.9360  139.6500 C   0  0  0  0  0  2  0  0  0  0  0  0
  1 13  1  0  0  0  0
  2  4  1  6  0  0  0
  2  6  1  0  0  0  0
  3  1  1  0  0  0  0
  5 32  1  1  0  0  0
  5  2  1  0  0  0  0
  6 28  1  0  0  0  0
  6 11  1  1  0  0  0
  7 12  1  6  0  0  0
  7 14  1  0  0  0  0
  7  5  1  0  0  0  0
  8  9  1  6  0  0  0
  8 10  1  0  0  0  0
  8  4  1  0  0  0  0
  9  7  1  0  0  0  0
 10 15  1  0  0  0  0
 11 13  1  0  0  0  0
 13 18  1  1  0  0  0
 14  5  1  0  0  0  0
 15  3  1  0  0  0  0
 17 22  1  0  0  0  0
 18 20  2  0  0  0  0
 18 21  1  0  0  0  0
 19 22  1  0  0  0  0
 20 17  1  0  0  0  0
 21 19  2  0  0  0  0
 22 16  1  1  0  0  0
 23 21  1  0  0  0  0
 23 24  1  0  0  0  0
 24 25  1  0  0  0  0
 27 29  1  0  0  0  0
 28 27  1  1  0  0  0
 28 30  1  0  0  0  0
 29 26  1  0  0  0  0
 30 26  1  0  0  0  0
 31 32  1  0  0  0  0
M  END
>  <MODEL>
1

>  <REMARK>
 VINA RESULT:      -8.0      0.000      0.000
  Name = 
  5 active torsions:
  status: ('A' for Active; 'I' for Inactive)
    1  A    between atoms: C_3  and  C_23
    2  A    between atoms: C_6  and  C_17
    3  A    between atoms: C_10  and  C_28
    4  A    between atoms: C_16  and  C_27
    5  A    between atoms: C_22  and  C_23
                            x       y       z     vdW  Elec       q    Type
                         _______ _______ _______ _____ _____    ______ ____

>  <TORSDO>
F 5

$$$$
=
 OpenBabel10272413153D

 32 36  0  0  1  0  0  0  0  0999 V2000
  188.2660  176.6040  142.8750 C   0  0  0  0  0  2  0  0  0  0  0  0
  186.3020  178.6300  140.6660 C   0  0  1  0  0  3  0  0  0  0  0  0
  189.4450  177.4740  142.4320 C   0  0  0  0  0  2  0  0  0  0  0  0
  187.4990  177.9320  140.5820 O   0  0  0  0  0  0  0  0  0  0  0  0
  185.4430  178.2380  139.4450 C   0  0  2  0  0  0  0  0  0  0  0  0
  185.7220  178.3570  142.0600 C   0  0  1  0  0  3  0  0  0  0  0  0
  186.2210  177.9140  138.2010 C   0  0  1  0  0  0  0  0  0  0  0  0
  188.2510  178.5370  139.5840 C   0  0  2  0  0  3  0  0  0  0  0  0
  187.7650  178.0090  138.2310 C   0  0  0  0  0  2  0  0  0  0  0  0
  189.7440  178.3050  139.8410 C   0  0  0  0  0  2  0  0  0  0  0  0
  186.7660  178.6100  143.0610 N   0  0  0  0  0  2  0  0  0  0  0  0
  185.5630  177.1360  137.0750 C   0  0  0  0  0  1  0  0  0  0  0  0
  187.1820  177.3500  143.6780 C   0  0  2  0  0  3  0  0  0  0  0  0
  185.5970  179.1640  138.3870 O   0  0  0  0  0  0  0  0  0  0  0  0
  190.1180  176.8150  140.8580 S   0  0  0  0  0  0  0  0  0  0  0  0
  188.6250  177.6480  149.1100 F   0  0  0  0  0  0  0  0  0  0  0  0
  187.1260  178.3770  147.4020 C   0  0  0  0  0  2  0  0  0  0  0  0
  187.5790  177.5660  145.1090 C   0  0  0  0  0  0  0  0  0  0  0  0
  189.1670  177.0370  146.8930 C   0  0  0  0  0  3  0  0  0  0  0  0
  186.7160  178.1110  145.9800 C   0  0  0  0  0  3  0  0  0  0  0  0
  188.9180  177.1250  145.5810 C   0  0  0  0  0  0  0  0  0  0  0  0
  188.0760  177.2840  147.8970 C   0  0  1  0  0  3  0  0  0  0  0  0
  190.0140  176.8180  144.6120 C   0  0  0  0  0  2  0  0  0  0  0  0
  191.3780  176.9560  145.2710 C   0  0  0  0  0  2  0  0  0  0  0  0
  192.0110  175.7140  145.3280 O   0  0  0  0  0  1  0  0  0  0  0  0
  183.4310  179.6440  144.4190 C   0  0  0  0  0  2  0  0  0  0  0  0
  183.2720  178.3560  142.6040 C   0  0  0  0  0  2  0  0  0  0  0  0
  184.4860  179.2210  142.3410 C   0  0  1  0  0  3  0  0  0  0  0  0
  182.9900  178.3870  143.9780 O   0  0  0  0  0  0  0  0  0  0  0  0
  184.6300  180.0430  143.5930 C   0  0  0  0  0  2  0  0  0  0  0  0
  183.1060  178.6710  139.1220 O   0  0  0  0  0  1  0  0  0  0  0  0
  184.0160  177.7120  139.5680 C   0  0  0  0  0  2  0  0  0  0  0  0
  1 13  1  0  0  0  0
  2  4  1  6  0  0  0
  2  6  1  0  0  0  0
  3  1  1  0  0  0  0
  5 32  1  1  0  0  0
  5  2  1  0  0  0  0
  6 28  1  0  0  0  0
  6 11  1  1  0  0  0
  7 12  1  6  0  0  0
  7  9  1  0  0  0  0
  7 14  1  0  0  0  0
  7  5  1  0  0  0  0
  8  9  1  6  0  0  0
  8 10  1  0  0  0  0
  8  4  1  0  0  0  0
 10 15  1  0  0  0  0
 11 13  1  0  0  0  0
 13 18  1  1  0  0  0
 14  5  1  0  0  0  0
 15  3  1  0  0  0  0
 17 22  1  0  0  0  0
 18 21  1  0  0  0  0
 18 20  2  0  0  0  0
 19 22  1  0  0  0  0
 20 17  1  0  0  0  0
 21 19  2  0  0  0  0
 22 16  1  1  0  0  0
 23 24  1  0  0  0  0
 23 21  1  0  0  0  0
 24 25  1  0  0  0  0
 27 29  1  0  0  0  0
 28 27  1  1  0  0  0
 28 30  1  0  0  0  0
 29 26  1  0  0  0  0
 30 26  1  0  0  0  0
 31 32  1  0  0  0  0
M  END
>  <MODEL>
2

>  <REMARK>
 VINA RESULT:      -7.6      1.395      2.244
  Name = 
  5 active torsions:
  status: ('A' for Active; 'I' for Inactive)
    1  A    between atoms: C_3  and  C_23
    2  A    between atoms: C_6  and  C_17
    3  A    between atoms: C_10  and  C_28
    4  A    between atoms: C_16  and  C_27
    5  A    between atoms: C_22  and  C_23
                            x       y       z     vdW  Elec       q    Type
                         _______ _______ _______ _____ _____    ______ ____

>  <TORSDO>
F 5

$$$$
=
 OpenBabel10272413153D

 32 36  0  0  1  0  0  0  0  0999 V2000
  187.7920  178.2210  139.2250 C   0  0  0  0  0  2  0  0  0  0  0  0
  190.8200  176.3270  139.5280 C   0  0  1  0  0  3  0  0  0  0  0  0
  187.1920  176.9410  138.6360 C   0  0  0  0  0  2  0  0  0  0  0  0
  189.8880  176.5680  138.5270 O   0  0  0  0  0  0  0  0  0  0  0  0
  192.2220  176.5780  138.9330 C   0  0  2  0  0  0  0  0  0  0  0  0
  190.4020  177.1690  140.7410 C   0  0  1  0  0  3  0  0  0  0  0  0
  192.3560  176.2620  137.4700 C   0  0  1  0  0  0  0  0  0  0  0  0
  189.9480  175.4930  137.6510 C   0  0  2  0  0  3  0  0  0  0  0  0
  191.1300  175.7130  136.7020 C   0  0  0  0  0  2  0  0  0  0  0  0
  188.6030  175.3230  136.9370 C   0  0  0  0  0  2  0  0  0  0  0  0
  188.9810  176.9200  141.0160 N   0  0  0  0  0  2  0  0  0  0  0  0
  193.5180  176.8280  136.6730 C   0  0  0  0  0  1  0  0  0  0  0  0
  188.1970  178.1170  140.7090 C   0  0  2  0  0  3  0  0  0  0  0  0
  192.8100  175.3770  138.4700 O   0  0  0  0  0  0  0  0  0  0  0  0
  187.5910  176.8600  136.8470 S   0  0  0  0  0  0  0  0  0  0  0  0
  183.8600  179.0490  144.1740 F   0  0  0  0  0  0  0  0  0  0  0  0
  185.9200  177.8980  143.8230 C   0  0  0  0  0  2  0  0  0  0  0  0
  187.0180  178.2290  141.6310 C   0  0  0  0  0  0  0  0  0  0  0  0
  184.8080  179.2070  142.0150 C   0  0  0  0  0  3  0  0  0  0  0  0
  187.1130  177.8350  142.9090 C   0  0  0  0  0  3  0  0  0  0  0  0
  185.7490  178.8300  141.1400 C   0  0  0  0  0  0  0  0  0  0  0  0
  185.0600  179.1190  143.4940 C   0  0  1  0  0  3  0  0  0  0  0  0
  185.4840  178.9840  139.6780 C   0  0  0  0  0  2  0  0  0  0  0  0
  184.0470  179.4160  139.4280 C   0  0  0  0  0  2  0  0  0  0  0  0
  184.0190  180.7140  138.9160 O   0  0  0  0  0  1  0  0  0  0  0  0
  190.5570  176.6640  144.2310 C   0  0  0  0  0  2  0  0  0  0  0  0
  191.4960  178.0940  142.8000 C   0  0  0  0  0  2  0  0  0  0  0  0
  191.2530  176.8480  141.9750 C   0  0  1  0  0  3  0  0  0  0  0  0
  190.6960  178.0320  143.9510 O   0  0  0  0  0  0  0  0  0  0  0  0
  190.5610  175.9080  142.9240 C   0  0  0  0  0  2  0  0  0  0  0  0
  194.2910  176.8040  140.1260 O   0  0  0  0  0  1  0  0  0  0  0  0
  193.2360  177.5260  139.5670 C   0  0  0  0  0  2  0  0  0  0  0  0
  1 13  1  0  0  0  0
  2  4  1  6  0  0  0
  2  6  1  0  0  0  0
  3  1  1  0  0  0  0
  5  2  1  0  0  0  0
  5 32  1  1  0  0  0
  6 11  1  1  0  0  0
  6 28  1  0  0  0  0
  7 12  1  6  0  0  0
  7 14  1  0  0  0  0
  7  5  1  0  0  0  0
  8  9  1  6  0  0  0
  8  4  1  0  0  0  0
  9  7  1  0  0  0  0
 10  8  1  0  0  0  0
 13 11  1  0  0  0  0
 13 18  1  1  0  0  0
 14  5  1  0  0  0  0
 15 10  1  0  0  0  0
 15  3  1  0  0  0  0
 18 20  2  0  0  0  0
 19 22  1  0  0  0  0
 20 17  1  0  0  0  0
 21 18  1  0  0  0  0
 21 19  2  0  0  0  0
 22 17  1  0  0  0  0
 22 16  1  1  0  0  0
 23 21  1  0  0  0  0
 24 23  1  0  0  0  0
 25 24  1  0  0  0  0
 27 29  1  0  0  0  0
 28 27  1  1  0  0  0
 28 30  1  0  0  0  0
 29 26  1  0  0  0  0
 30 26  1  0  0  0  0
 32 31  1  0  0  0  0
M  END
>  <MODEL>
3

>  <REMARK>
 VINA RESULT:      -7.3      3.152      6.209
  Name = 
  5 active torsions:
  status: ('A' for Active; 'I' for Inactive)
    1  A    between atoms: C_3  and  C_23
    2  A    between atoms: C_6  and  C_17
    3  A    between atoms: C_10  and  C_28
    4  A    between atoms: C_16  and  C_27
    5  A    between atoms: C_22  and  C_23
                            x       y       z     vdW  Elec       q    Type
                         _______ _______ _______ _____ _____    ______ ____

>  <TORSDO>
F 5

$$$$
=
 OpenBabel10272413153D

 32 36  0  0  1  0  0  0  0  0999 V2000
  189.5350  176.7000  142.0170 C   0  0  0  0  0  2  0  0  0  0  0  0
  190.3230  176.7540  138.5210 C   0  0  1  0  0  3  0  0  0  0  0  0
  190.5390  177.8490  142.1390 C   0  0  0  0  0  2  0  0  0  0  0  0
  191.0440  176.7300  139.7070 O   0  0  0  0  0  0  0  0  0  0  0  0
  190.8900  175.6500  137.6050 C   0  0  2  0  0  0  0  0  0  0  0  0
  188.8380  176.6710  138.8980 C   0  0  1  0  0  3  0  0  0  0  0  0
  192.3590  175.3800  137.7700 C   0  0  1  0  0  0  0  0  0  0  0  0
  192.2860  177.2880  139.4370 C   0  0  2  0  0  3  0  0  0  0  0  0
  193.1660  176.2110  138.7960 C   0  0  0  0  0  2  0  0  0  0  0  0
  192.8770  177.8930  140.7150 C   0  0  0  0  0  2  0  0  0  0  0  0
  188.5570  177.6850  139.9230 N   0  0  0  0  0  2  0  0  0  0  0  0
  192.9580  174.0840  137.2540 C   0  0  0  0  0  1  0  0  0  0  0  0
  188.2700  177.0350  141.2020 C   0  0  2  0  0  3  0  0  0  0  0  0
  191.8580  176.1650  136.7110 O   0  0  0  0  0  0  0  0  0  0  0  0
  192.2320  177.1550  142.2740 S   0  0  0  0  0  0  0  0  0  0  0  0
  184.2480  179.6170  144.1740 F   0  0  0  0  0  0  0  0  0  0  0  0
  185.5840  179.6280  142.1970 C   0  0  0  0  0  2  0  0  0  0  0  0
  187.2780  177.8360  141.9930 C   0  0  0  0  0  0  0  0  0  0  0  0
  185.9940  178.0290  144.0670 C   0  0  0  0  0  3  0  0  0  0  0  0
  186.5430  178.7880  141.3990 C   0  0  0  0  0  3  0  0  0  0  0  0
  187.0670  177.5390  143.4350 C   0  0  0  0  0  0  0  0  0  0  0  0
  184.9460  178.7970  143.3110 C   0  0  1  0  0  3  0  0  0  0  0  0
  188.0610  176.7340  144.2090 C   0  0  0  0  0  2  0  0  0  0  0  0
  188.3420  177.3710  145.5610 C   0  0  0  0  0  2  0  0  0  0  0  0
  189.5650  178.0410  145.5310 O   0  0  0  0  0  1  0  0  0  0  0  0
  187.3510  178.8990  136.5980 C   0  0  0  0  0  2  0  0  0  0  0  0
  186.5860  177.4340  138.0950 C   0  0  0  0  0  2  0  0  0  0  0  0
  187.9290  176.8740  137.6790 C   0  0  1  0  0  3  0  0  0  0  0  0
  186.5350  178.7880  137.7340 O   0  0  0  0  0  0  0  0  0  0  0  0
  188.4720  177.8950  136.7180 C   0  0  0  0  0  2  0  0  0  0  0  0
  189.8480  174.8170  135.6100 O   0  0  0  0  0  1  0  0  0  0  0  0
  190.0200  174.5660  136.9720 C   0  0  0  0  0  2  0  0  0  0  0  0
  1  3  1  0  0  0  0
  2  6  1  0  0  0  0
  2  4  1  1  0  0  0
  3 15  1  0  0  0  0
  5 32  1  6  0  0  0
  5  7  1  0  0  0  0
  5  2  1  0  0  0  0
  6 11  1  1  0  0  0
  7 12  1  6  0  0  0
  7  9  1  0  0  0  0
  8  9  1  1  0  0  0
  8  4  1  0  0  0  0
  8 10  1  0  0  0  0
 10 15  1  0  0  0  0
 11 13  1  0  0  0  0
 13 18  1  1  0  0  0
 13  1  1  0  0  0  0
 14  5  1  0  0  0  0
 14  7  1  0  0  0  0
 17 22  1  0  0  0  0
 18 21  1  0  0  0  0
 20 18  2  0  0  0  0
 20 17  1  0  0  0  0
 21 19  2  0  0  0  0
 21 23  1  0  0  0  0
 22 19  1  0  0  0  0
 22 16  1  1  0  0  0
 23 24  1  0  0  0  0
 25 24  1  0  0  0  0
 26 30  1  0  0  0  0
 26 29  1  0  0  0  0
 28 30  1  6  0  0  0
 28 27  1  0  0  0  0
 28  6  1  0  0  0  0
 29 27  1  0  0  0  0
 31 32  1  0  0  0  0
M  END
>  <MODEL>
4

>  <REMARK>
 VINA RESULT:      -7.2      3.101      5.453
  Name = 
  5 active torsions:
  status: ('A' for Active; 'I' for Inactive)
    1  A    between atoms: C_3  and  C_23
    2  A    between atoms: C_6  and  C_17
    3  A    between atoms: C_10  and  C_28
    4  A    between atoms: C_16  and  C_27
    5  A    between atoms: C_22  and  C_23
                            x       y       z     vdW  Elec       q    Type
                         _______ _______ _______ _____ _____    ______ ____

>  <TORSDO>
F 5

$$$$
=
 OpenBabel10272413153D

 32 36  0  0  1  0  0  0  0  0999 V2000
  186.2810  179.3720  140.9150 C   0  0  0  0  0  2  0  0  0  0  0  0
  188.8550  176.9710  141.5910 C   0  0  1  0  0  3  0  0  0  0  0  0
  185.8150  178.3900  139.8360 C   0  0  0  0  0  2  0  0  0  0  0  0
  188.3450  177.5980  140.4620 O   0  0  0  0  0  0  0  0  0  0  0  0
  190.3920  177.1120  141.5520 C   0  0  2  0  0  0  0  0  0  0  0  0
  188.1180  177.5600  142.8010 C   0  0  1  0  0  3  0  0  0  0  0  0
  190.9920  177.1330  140.1750 C   0  0  1  0  0  0  0  0  0  0  0  0
  188.6130  176.7670  139.3820 C   0  0  2  0  0  3  0  0  0  0  0  0
  190.0620  177.0000  138.9450 C   0  0  0  0  0  2  0  0  0  0  0  0
  187.5840  177.0040  138.2720 C   0  0  0  0  0  2  0  0  0  0  0  0
  186.6730  177.5000  142.5450 N   0  0  0  0  0  2  0  0  0  0  0  0
  192.3990  177.6650  139.9670 C   0  0  0  0  0  1  0  0  0  0  0  0
  186.1430  178.8520  142.3600 C   0  0  2  0  0  3  0  0  0  0  0  0
  191.0010  175.9730  140.9760 O   0  0  0  0  0  0  0  0  0  0  0  0
  186.7940  178.6680  138.3100 S   0  0  0  0  0  0  0  0  0  0  0  0
  180.9240  178.7180  144.4620 F   0  0  0  0  0  0  0  0  0  0  0  0
  182.2840  178.9640  142.5170 C   0  0  0  0  0  2  0  0  0  0  0  0
  184.7330  178.9420  142.8660 C   0  0  0  0  0  0  0  0  0  0  0  0
  183.2540  178.8950  144.8140 C   0  0  0  0  0  3  0  0  0  0  0  0
  183.6980  178.8230  142.0230 C   0  0  0  0  0  3  0  0  0  0  0  0
  184.4790  179.1120  144.3220 C   0  0  0  0  0  0  0  0  0  0  0  0
  182.1520  178.3850  143.9270 C   0  0  1  0  0  3  0  0  0  0  0  0
  185.5630  179.5650  145.2450 C   0  0  0  0  0  2  0  0  0  0  0  0
  185.2580  179.1630  146.6800 C   0  0  0  0  0  2  0  0  0  0  0  0
  185.9820  179.9620  147.5660 O   0  0  0  0  0  1  0  0  0  0  0  0
  187.5990  177.1680  146.2710 C   0  0  0  0  0  2  0  0  0  0  0  0
  189.3520  177.6630  144.9840 C   0  0  0  0  0  2  0  0  0  0  0  0
  188.4650  176.8150  144.0960 C   0  0  1  0  0  3  0  0  0  0  0  0
  188.5830  178.1440  146.0540 O   0  0  0  0  0  0  0  0  0  0  0  0
  187.2540  176.5370  144.9440 C   0  0  0  0  0  2  0  0  0  0  0  0
  191.9570  176.6960  143.3220 O   0  0  0  0  0  1  0  0  0  0  0  0
  191.2020  177.6950  142.7070 C   0  0  0  0  0  2  0  0  0  0  0  0
  1 13  1  0  0  0  0
  2  4  1  6  0  0  0
  2  6  1  0  0  0  0
  3  1  1  0  0  0  0
  5  2  1  0  0  0  0
  5 32  1  1  0  0  0
  6 11  1  6  0  0  0
  6 28  1  0  0  0  0
  7 12  1  6  0  0  0
  7 14  1  0  0  0  0
  7  5  1  0  0  0  0
  8 10  1  6  0  0  0
  8  4  1  0  0  0  0
  9  8  1  0  0  0  0
  9  7  1  0  0  0  0
 10 15  1  0  0  0  0
 13 11  1  0  0  0  0
 13 18  1  6  0  0  0
 14  5  1  0  0  0  0
 15  3  1  0  0  0  0
 17 22  1  0  0  0  0
 18 21  1  0  0  0  0
 20 17  1  0  0  0  0
 20 18  2  0  0  0  0
 21 19  2  0  0  0  0
 21 23  1  0  0  0  0
 22 16  1  1  0  0  0
 22 19  1  0  0  0  0
 23 24  1  0  0  0  0
 24 25  1  0  0  0  0
 27 29  1  0  0  0  0
 28 30  1  1  0  0  0
 28 27  1  0  0  0  0
 29 26  1  0  0  0  0
 30 26  1  0  0  0  0
 32 31  1  0  0  0  0
M  END
>  <MODEL>
5

>  <REMARK>
 VINA RESULT:      -7.2      2.635      5.273
  Name = 
  5 active torsions:
  status: ('A' for Active; 'I' for Inactive)
    1  A    between atoms: C_3  and  C_23
    2  A    between atoms: C_6  and  C_17
    3  A    between atoms: C_10  and  C_28
    4  A    between atoms: C_16  and  C_27
    5  A    between atoms: C_22  and  C_23
                            x       y       z     vdW  Elec       q    Type
                         _______ _______ _______ _____ _____    ______ ____

>  <TORSDO>
F 5

$$$$
=
 OpenBabel10272413153D

 32 36  0  0  1  0  0  0  0  0999 V2000
  187.6520  177.4300  140.7230 C   0  0  0  0  0  2  0  0  0  0  0  0
  185.9370  178.1330  137.6550 C   0  0  1  0  0  3  0  0  0  0  0  0
  188.5470  178.6170  140.3550 C   0  0  0  0  0  2  0  0  0  0  0  0
  187.2590  177.9650  138.0460 O   0  0  0  0  0  0  0  0  0  0  0  0
  185.6970  177.2450  136.4160 C   0  0  2  0  0  0  0  0  0  0  0  0
  185.0690  177.8740  138.8940 C   0  0  1  0  0  3  0  0  0  0  0  0
  186.8920  177.0660  135.5230 C   0  0  1  0  0  0  0  0  0  0  0  0
  188.0410  178.6540  137.1290 C   0  0  2  0  0  3  0  0  0  0  0  0
  188.2200  177.7720  135.8900 C   0  0  0  0  0  2  0  0  0  0  0  0
  189.3610  179.0790  137.7830 C   0  0  0  0  0  2  0  0  0  0  0  0
  185.5900  178.6760  140.0080 N   0  0  0  0  0  2  0  0  0  0  0  0
  186.9300  175.9240  134.5220 C   0  0  0  0  0  1  0  0  0  0  0  0
  186.1840  177.7990  141.0180 C   0  0  2  0  0  3  0  0  0  0  0  0
  185.8610  177.9770  135.2160 O   0  0  0  0  0  0  0  0  0  0  0  0
  189.8670  178.0420  139.2180 S   0  0  0  0  0  0  0  0  0  0  0  0
  185.2090  179.5630  146.2740 F   0  0  0  0  0  0  0  0  0  0  0  0
  185.1030  180.0770  143.9460 C   0  0  0  0  0  2  0  0  0  0  0  0
  186.0070  178.3770  142.3920 C   0  0  0  0  0  0  0  0  0  0  0  0
  186.2480  178.0330  144.8020 C   0  0  0  0  0  3  0  0  0  0  0  0
  185.2430  179.4640  142.5800 C   0  0  0  0  0  3  0  0  0  0  0  0
  186.6370  177.7120  143.5630 C   0  0  0  0  0  0  0  0  0  0  0  0
  185.1090  178.9900  145.0220 C   0  0  1  0  0  3  0  0  0  0  0  0
  187.7360  176.7150  143.3830 C   0  0  0  0  0  2  0  0  0  0  0  0
  188.9250  177.0490  144.2710 C   0  0  0  0  0  2  0  0  0  0  0  0
  189.6270  178.1340  143.7450 O   0  0  0  0  0  1  0  0  0  0  0  0
  182.0170  179.1490  140.1290 C   0  0  0  0  0  2  0  0  0  0  0  0
  182.6880  177.1910  139.2960 C   0  0  0  0  0  2  0  0  0  0  0  0
  183.5950  178.2080  138.6350 C   0  0  1  0  0  3  0  0  0  0  0  0
  182.1070  177.7810  140.4290 O   0  0  0  0  0  0  0  0  0  0  0  0
  183.1840  179.5200  139.2460 C   0  0  0  0  0  2  0  0  0  0  0  0
  183.5330  176.7040  135.5340 O   0  0  0  0  0  1  0  0  0  0  0  0
  184.5690  176.2200  136.3340 C   0  0  0  0  0  2  0  0  0  0  0  0
  1 13  1  0  0  0  0
  2  4  1  1  0  0  0
  2  6  1  0  0  0  0
  3  1  1  0  0  0  0
  5 32  1  1  0  0  0
  5  2  1  0  0  0  0
  6 11  1  1  0  0  0
  7 12  1  6  0  0  0
  7  9  1  0  0  0  0
  7  5  1  0  0  0  0
  8  9  1  6  0  0  0
  8 10  1  0  0  0  0
  8  4  1  0  0  0  0
 10 15  1  0  0  0  0
 11 13  1  0  0  0  0
 13 18  1  1  0  0  0
 14  7  1  0  0  0  0
 14  5  1  0  0  0  0
 15  3  1  0  0  0  0
 17 22  1  0  0  0  0
 18 20  2  0  0  0  0
 18 21  1  0  0  0  0
 19 22  1  0  0  0  0
 20 17  1  0  0  0  0
 21 19  2  0  0  0  0
 22 16  1  1  0  0  0
 23 21  1  0  0  0  0
 23 24  1  0  0  0  0
 25 24  1  0  0  0  0
 26 29  1  0  0  0  0
 27 29  1  0  0  0  0
 28  6  1  0  0  0  0
 28 30  1  1  0  0  0
 28 27  1  0  0  0  0
 30 26  1  0  0  0  0
 31 32  1  0  0  0  0
M  END
>  <MODEL>
6

>  <REMARK>
 VINA RESULT:      -7.1      2.235      3.726
  Name = 
  5 active torsions:
  status: ('A' for Active; 'I' for Inactive)
    1  A    between atoms: C_3  and  C_23
    2  A    between atoms: C_6  and  C_17
    3  A    between atoms: C_10  and  C_28
    4  A    between atoms: C_16  and  C_27
    5  A    between atoms: C_22  and  C_23
                            x       y       z     vdW  Elec       q    Type
                         _______ _______ _______ _____ _____    ______ ____

>  <TORSDO>
F 5

$$$$
=
 OpenBabel10272413153D

 32 36  0  0  1  0  0  0  0  0999 V2000
  189.3960  178.7420  141.9300 C   0  0  0  0  0  2  0  0  0  0  0  0
  187.5860  177.4420  144.7380 C   0  0  1  0  0  3  0  0  0  0  0  0
  190.2130  177.4500  142.0120 C   0  0  0  0  0  2  0  0  0  0  0  0
  188.9230  177.6170  144.4040 O   0  0  0  0  0  0  0  0  0  0  0  0
  187.3750  178.0270  146.1510 C   0  0  2  0  0  0  0  0  0  0  0  0
  186.7580  178.0380  143.5920 C   0  0  1  0  0  3  0  0  0  0  0  0
  188.5620  177.9170  147.0660 C   0  0  1  0  0  0  0  0  0  0  0  0
  189.6470  176.6840  145.1360 C   0  0  2  0  0  3  0  0  0  0  0  0
  189.8530  177.2380  146.5480 C   0  0  0  0  0  2  0  0  0  0  0  0
  190.9510  176.3460  144.4050 C   0  0  0  0  0  2  0  0  0  0  0  0
  187.2520  177.4910  142.3220 N   0  0  0  0  0  2  0  0  0  0  0  0
  188.6470  178.7870  148.3080 C   0  0  0  0  0  1  0  0  0  0  0  0
  187.9150  178.5430  141.5500 C   0  0  2  0  0  3  0  0  0  0  0  0
  187.4740  177.0240  147.1440 O   0  0  0  0  0  0  0  0  0  0  0  0
  191.5430  177.6590  143.2580 S   0  0  0  0  0  0  0  0  0  0  0  0
  186.9740  177.2540  136.1520 F   0  0  0  0  0  0  0  0  0  0  0  0
  188.5960  177.7670  137.8270 C   0  0  0  0  0  2  0  0  0  0  0  0
  187.7290  178.3170  140.0780 C   0  0  0  0  0  0  0  0  0  0  0  0
  186.1450  177.9700  138.2460 C   0  0  0  0  0  3  0  0  0  0  0  0
  188.7650  177.9450  139.3100 C   0  0  0  0  0  3  0  0  0  0  0  0
  186.3780  178.4530  139.4720 C   0  0  0  0  0  0  0  0  0  0  0  0
  187.2090  177.2020  137.5120 C   0  0  1  0  0  3  0  0  0  0  0  0
  185.2790  179.1630  140.1940 C   0  0  0  0  0  2  0  0  0  0  0  0
  184.1000  179.4240  139.2680 C   0  0  0  0  0  2  0  0  0  0  0  0
  184.1070  180.7540  138.8460 O   0  0  0  0  0  1  0  0  0  0  0  0
  183.4390  178.6870  142.5790 C   0  0  0  0  0  2  0  0  0  0  0  0
  184.5690  178.8710  144.4930 C   0  0  0  0  0  2  0  0  0  0  0  0
  185.2620  177.7430  143.7580 C   0  0  1  0  0  3  0  0  0  0  0  0
  183.8120  179.6080  143.5690 O   0  0  0  0  0  0  0  0  0  0  0  0
  184.5400  177.6630  142.4410 C   0  0  0  0  0  2  0  0  0  0  0  0
  185.3720  178.5490  147.3630 O   0  0  0  0  0  1  0  0  0  0  0  0
  186.3070  179.0700  146.4680 C   0  0  0  0  0  2  0  0  0  0  0  0
  1  3  1  0  0  0  0
  2  4  1  6  0  0  0
  2  5  1  0  0  0  0
  3 15  1  0  0  0  0
  4  8  1  0  0  0  0
  5 32  1  1  0  0  0
  5  7  1  0  0  0  0
  5 14  1  0  0  0  0
  6 11  1  6  0  0  0
  6 28  1  0  0  0  0
  6  2  1  0  0  0  0
  7 14  1  0  0  0  0
  7 12  1  1  0  0  0
  8 10  1  6  0  0  0
  8  9  1  0  0  0  0
  9  7  1  0  0  0  0
 13 18  1  6  0  0  0
 13  1  1  0  0  0  0
 13 11  1  0  0  0  0
 15 10  1  0  0  0  0
 17 20  1  0  0  0  0
 19 21  2  0  0  0  0
 20 18  2  0  0  0  0
 21 18  1  0  0  0  0
 21 23  1  0  0  0  0
 22 16  1  6  0  0  0
 22 17  1  0  0  0  0
 22 19  1  0  0  0  0
 24 23  1  0  0  0  0
 25 24  1  0  0  0  0
 26 29  1  0  0  0  0
 28 30  1  6  0  0  0
 28 27  1  0  0  0  0
 29 27  1  0  0  0  0
 30 26  1  0  0  0  0
 32 31  1  0  0  0  0
M  END
>  <MODEL>
7

>  <REMARK>
 VINA RESULT:      -6.9      2.750      6.653
  Name = 
  5 active torsions:
  status: ('A' for Active; 'I' for Inactive)
    1  A    between atoms: C_3  and  C_23
    2  A    between atoms: C_6  and  C_17
    3  A    between atoms: C_10  and  C_28
    4  A    between atoms: C_16  and  C_27
    5  A    between atoms: C_22  and  C_23
                            x       y       z     vdW  Elec       q    Type
                         _______ _______ _______ _____ _____    ______ ____

>  <TORSDO>
F 5

$$$$
=
 OpenBabel10272413153D

 32 36  0  0  1  0  0  0  0  0999 V2000
  188.7120  173.2480  137.1780 C   0  0  0  0  0  2  0  0  0  0  0  0
  186.0640  175.3960  136.0720 C   0  0  1  0  0  3  0  0  0  0  0  0
  188.7110  172.7080  135.7450 C   0  0  0  0  0  2  0  0  0  0  0  0
  186.3480  174.0380  135.9970 O   0  0  0  0  0  0  0  0  0  0  0  0
  184.6160  175.5440  136.5840 C   0  0  2  0  0  0  0  0  0  0  0  0
  187.1820  176.0400  136.9040 C   0  0  1  0  0  3  0  0  0  0  0  0
  183.6810  174.4420  136.1720 C   0  0  1  0  0  0  0  0  0  0  0  0
  185.6730  173.5460  134.8870 C   0  0  2  0  0  3  0  0  0  0  0  0
  184.2170  173.2920  135.2850 C   0  0  0  0  0  2  0  0  0  0  0  0
  186.3930  172.3060  134.3460 C   0  0  0  0  0  2  0  0  0  0  0  0
  188.4770  175.6120  136.3600 N   0  0  0  0  0  2  0  0  0  0  0  0
  182.3730  174.2380  136.9150 C   0  0  0  0  0  1  0  0  0  0  0  0
  189.1460  174.7210  137.3100 C   0  0  2  0  0  3  0  0  0  0  0  0
  183.7020  175.6890  135.5140 O   0  0  0  0  0  0  0  0  0  0  0  0
  187.4180  171.4170  135.5920 S   0  0  0  0  0  0  0  0  0  0  0  0
  194.6460  175.7950  136.7820 F   0  0  0  0  0  0  0  0  0  0  0  0
  192.8540  174.2910  136.3120 C   0  0  0  0  0  2  0  0  0  0  0  0
  190.6360  174.8870  137.2320 C   0  0  0  0  0  0  0  0  0  0  0  0
  192.5750  176.2570  137.8210 C   0  0  0  0  0  3  0  0  0  0  0  0
  191.3560  174.1670  136.3590 C   0  0  0  0  0  3  0  0  0  0  0  0
  191.3150  175.8930  138.0900 C   0  0  0  0  0  0  0  0  0  0  0  0
  193.2790  175.7320  136.6010 C   0  0  1  0  0  3  0  0  0  0  0  0
  190.6290  176.4790  139.2810 C   0  0  0  0  0  2  0  0  0  0  0  0
  191.6010  177.2880  140.1260 C   0  0  0  0  0  2  0  0  0  0  0  0
  191.2010  177.2750  141.4630 O   0  0  0  0  0  1  0  0  0  0  0  0
  188.8200  179.1590  137.1210 C   0  0  0  0  0  2  0  0  0  0  0  0
  187.2430  178.1200  138.3070 C   0  0  0  0  0  2  0  0  0  0  0  0
  187.0790  177.5700  136.9060 C   0  0  1  0  0  3  0  0  0  0  0  0
  188.5150  178.7020  138.4120 O   0  0  0  0  0  0  0  0  0  0  0  0
  188.1840  178.2240  136.1220 C   0  0  0  0  0  2  0  0  0  0  0  0
  183.6690  177.5980  137.3850 O   0  0  0  0  0  1  0  0  0  0  0  0
  184.2460  176.3950  137.7960 C   0  0  0  0  0  2  0  0  0  0  0  0
  1 13  1  0  0  0  0
  2  4  1  1  0  0  0
  2  5  1  0  0  0  0
  2  6  1  0  0  0  0
  3  1  1  0  0  0  0
  5 32  1  1  0  0  0
  6 11  1  6  0  0  0
  6 28  1  0  0  0  0
  7  5  1  0  0  0  0
  7 12  1  1  0  0  0
  8 10  1  1  0  0  0
  8  9  1  0  0  0  0
  8  4  1  0  0  0  0
  9  7  1  0  0  0  0
 10 15  1  0  0  0  0
 11 13  1  0  0  0  0
 13 18  1  6  0  0  0
 14  7  1  0  0  0  0
 14  5  1  0  0  0  0
 15  3  1  0  0  0  0
 17 20  1  0  0  0  0
 17 22  1  0  0  0  0
 18 21  1  0  0  0  0
 19 21  2  0  0  0  0
 20 18  2  0  0  0  0
 21 23  1  0  0  0  0
 22 16  1  1  0  0  0
 22 19  1  0  0  0  0
 23 24  1  0  0  0  0
 24 25  1  0  0  0  0
 26 29  1  0  0  0  0
 27 29  1  0  0  0  0
 28 30  1  6  0  0  0
 28 27  1  0  0  0  0
 30 26  1  0  0  0  0
 31 32  1  0  0  0  0
M  END
>  <MODEL>
8

>  <REMARK>
 VINA RESULT:      -6.8      5.774      7.700
  Name = 
  5 active torsions:
  status: ('A' for Active; 'I' for Inactive)
    1  A    between atoms: C_3  and  C_23
    2  A    between atoms: C_6  and  C_17
    3  A    between atoms: C_10  and  C_28
    4  A    between atoms: C_16  and  C_27
    5  A    between atoms: C_22  and  C_23
                            x       y       z     vdW  Elec       q    Type
                         _______ _______ _______ _____ _____    ______ ____

>  <TORSDO>
F 5

$$$$
=
 OpenBabel10272413153D

 32 36  0  0  1  0  0  0  0  0999 V2000
  185.3800  179.4570  142.7730 C   0  0  0  0  0  2  0  0  0  0  0  0
  182.9140  178.7820  140.2610 C   0  0  1  0  0  3  0  0  0  0  0  0
  184.5890  178.4770  143.6430 C   0  0  0  0  0  2  0  0  0  0  0  0
  182.9020  179.1280  141.6060 O   0  0  0  0  0  0  0  0  0  0  0  0
  181.9490  179.7340  139.5240 C   0  0  2  0  0  0  0  0  0  0  0  0
  184.3820  178.7720  139.8150 C   0  0  1  0  0  3  0  0  0  0  0  0
  180.7700  180.1960  140.3330 C   0  0  1  0  0  0  0  0  0  0  0  0
  181.7010  178.6710  142.1310 C   0  0  2  0  0  3  0  0  0  0  0  0
  180.6090  179.6870  141.7860 C   0  0  0  0  0  2  0  0  0  0  0  0
  181.8520  178.4090  143.6330 C   0  0  0  0  0  2  0  0  0  0  0  0
  185.1550  177.9620  140.7650 N   0  0  0  0  0  2  0  0  0  0  0  0
  179.9830  181.4200  139.9000 C   0  0  0  0  0  1  0  0  0  0  0  0
  186.0520  178.8230  141.5390 C   0  0  2  0  0  3  0  0  0  0  0  0
  180.6640  179.1600  139.3820 O   0  0  0  0  0  0  0  0  0  0  0  0
  183.2000  179.3710  144.4410 S   0  0  0  0  0  0  0  0  0  0  0  0
  190.6500  175.7230  142.5060 F   0  0  0  0  0  0  0  0  0  0  0  0
  188.7040  176.7480  143.4340 C   0  0  0  0  0  2  0  0  0  0  0  0
  187.3160  178.0920  141.8890 C   0  0  0  0  0  0  0  0  0  0  0  0
  189.4320  177.1650  141.0840 C   0  0  0  0  0  3  0  0  0  0  0  0
  187.4230  177.4380  143.0550 C   0  0  0  0  0  3  0  0  0  0  0  0
  188.4390  178.0470  140.9160 C   0  0  0  0  0  0  0  0  0  0  0  0
  189.3760  176.1530  142.1950 C   0  0  1  0  0  3  0  0  0  0  0  0
  188.5030  179.0020  139.7680 C   0  0  0  0  0  2  0  0  0  0  0  0
  189.3610  178.4430  138.6430 C   0  0  0  0  0  2  0  0  0  0  0  0
  189.2190  179.2270  137.4970 O   0  0  0  0  0  1  0  0  0  0  0  0
  185.1740  176.0460  137.7160 C   0  0  0  0  0  2  0  0  0  0  0  0
  186.0020  178.0940  138.0220 C   0  0  0  0  0  2  0  0  0  0  0  0
  184.5390  178.2250  138.3910 C   0  0  1  0  0  3  0  0  0  0  0  0
  186.3500  176.7350  138.0490 O   0  0  0  0  0  0  0  0  0  0  0  0
  183.9970  176.8290  138.2460 C   0  0  0  0  0  2  0  0  0  0  0  0
  183.1150  181.6670  138.7110 O   0  0  0  0  0  1  0  0  0  0  0  0
  182.3640  180.5610  138.3090 C   0  0  0  0  0  2  0  0  0  0  0  0
  1  3  1  0  0  0  0
  2  4  1  1  0  0  0
  3 15  1  0  0  0  0
  4  8  1  0  0  0  0
  5 32  1  6  0  0  0
  5  2  1  0  0  0  0
  5  7  1  0  0  0  0
  6  2  1  0  0  0  0
  6 11  1  1  0  0  0
  7 12  1  6  0  0  0
  7  9  1  0  0  0  0
  8  9  1  1  0  0  0
  8 10  1  0  0  0  0
 10 15  1  0  0  0  0
 11 13  1  0  0  0  0
 13 18  1  1  0  0  0
 13  1  1  0  0  0  0
 14  5  1  0  0  0  0
 14  7  1  0  0  0  0
 18 20  2  0  0  0  0
 19 22  1  0  0  0  0
 20 17  1  0  0  0  0
 21 19  2  0  0  0  0
 21 18  1  0  0  0  0
 22 16  1  1  0  0  0
 22 17  1  0  0  0  0
 23 21  1  0  0  0  0
 24 23  1  0  0  0  0
 25 24  1  0  0  0  0
 26 29  1  0  0  0  0
 26 30  1  0  0  0  0
 27 29  1  0  0  0  0
 28 27  1  1  0  0  0
 28  6  1  0  0  0  0
 30 28  1  0  0  0  0
 32 31  1  0  0  0  0
M  END
>  <MODEL>
9

>  <REMARK>
 VINA RESULT:      -6.7      3.010      6.014
  Name = 
  5 active torsions:
  status: ('A' for Active; 'I' for Inactive)
    1  A    between atoms: C_3  and  C_23
    2  A    between atoms: C_6  and  C_17
    3  A    between atoms: C_10  and  C_28
    4  A    between atoms: C_16  and  C_27
    5  A    between atoms: C_22  and  C_23
                            x       y       z     vdW  Elec       q    Type
                         _______ _______ _______ _____ _____    ______ ____

>  <TORSDO>
F 5

$$$$
