=
 OpenBabel10272401083D

 27 30  0  0  1  0  0  0  0  0999 V2000
  187.4360  177.7600  144.4870 C   0  0  1  0  0  3  0  0  0  0  0  0
  185.9230  177.9670  144.3220 C   0  0  1  0  0  3  0  0  0  0  0  0
  181.9430  179.1940  143.6110 C   0  0  0  0  0  3  0  0  0  0  0  0
  179.9820  179.2020  142.2040 O   0  0  0  0  0  1  0  0  0  0  0  0
  185.3650  179.0680  145.2290 C   0  0  0  0  0  2  0  0  0  0  0  0
  183.4700  178.2510  141.4620 C   0  0  0  0  0  3  0  0  0  0  0  0
  182.1030  178.4960  141.2970 C   0  0  0  0  0  3  0  0  0  0  0  0
  184.0760  178.4690  142.7040 C   0  0  0  0  0  0  0  0  0  0  0  0
  181.3390  178.9650  142.3700 C   0  0  0  0  0  0  0  0  0  0  0  0
  183.3100  178.9600  143.7790 C   0  0  0  0  0  0  0  0  0  0  0  0
  185.5500  178.2320  142.8590 C   0  0  0  0  0  2  0  0  0  0  0  0
  183.9200  179.1720  145.0550 N   0  0  0  0  0  2  0  0  0  0  0  0
  188.8090  177.8050  148.5670 C   0  0  0  0  0  3  0  0  0  0  0  0
  187.8960  177.7690  145.9180 C   0  0  0  0  0  0  0  0  0  0  0  0
  189.2550  177.5880  146.1970 C   0  0  0  0  0  3  0  0  0  0  0  0
  189.7120  177.6050  147.5180 C   0  0  0  0  0  3  0  0  0  0  0  0
  187.4510  177.9890  148.2950 C   0  0  0  0  0  3  0  0  0  0  0  0
  186.9940  177.9710  146.9740 C   0  0  0  0  0  3  0  0  0  0  0  0
  187.8760  176.5450  143.8070 N   0  0  0  0  0  2  0  0  0  0  0  0
  191.4160  176.6170  143.2040 C   0  0  0  0  0  3  0  0  0  0  0  0
  191.1630  177.2560  140.8020 C   0  0  0  0  0  0  0  0  0  0  0  0
  191.9520  177.3980  139.6690 O   0  0  0  0  0  1  0  0  0  0  0  0
  188.9680  176.5140  142.8840 C   0  0  0  0  0  0  0  0  0  0  0  0
  191.8440  177.2520  142.1140 C   0  0  0  0  0  3  0  0  0  0  0  0
  189.8340  177.2080  140.6380 C   0  0  0  0  0  3  0  0  0  0  0  0
  188.8080  177.0990  141.6960 C   0  0  0  0  0  3  0  0  0  0  0  0
  190.2080  175.7420  143.2100 C   0  0  0  0  0  2  0  0  0  0  0  0
  1 19  1  1  0  0  0
  1 14  1  0  0  0  0
  2  1  1  6  0  0  0
  2  5  1  0  0  0  0
  3 10  1  0  0  0  0
  4  9  1  0  0  0  0
  6  8  1  0  0  0  0
  7  6  2  0  0  0  0
  7  9  1  0  0  0  0
  8 11  1  0  0  0  0
  8 10  2  0  0  0  0
  9  3  2  0  0  0  0
 10 12  1  0  0  0  0
 11  2  1  0  0  0  0
 12  5  1  0  0  0  0
 14 15  2  0  0  0  0
 14 18  1  0  0  0  0
 15 16  1  0  0  0  0
 16 13  2  0  0  0  0
 17 13  1  0  0  0  0
 18 17  2  0  0  0  0
 20 27  1  0  0  0  0
 21 24  1  0  0  0  0
 22 21  1  0  0  0  0
 23 27  1  0  0  0  0
 23 19  1  0  0  0  0
 24 20  2  0  0  0  0
 25 21  2  0  0  0  0
 25 26  1  0  0  0  0
 26 23  2  0  0  0  0
M  END
>  <MODEL>
1

>  <REMARK>
 VINA RESULT:     -10.3      0.000      0.000
  Name = 
  4 active torsions:
  status: ('A' for Active; 'I' for Inactive)
    1  A    between atoms: N_1  and  C_15
    2  A    between atoms: N_1  and  C_18
    3  A    between atoms: C_2  and  C_15
    4  A    between atoms: C_9  and  C_15
                            x       y       z     vdW  Elec       q    Type
                         _______ _______ _______ _____ _____    ______ ____

>  <TORSDO>
F 4

$$$$
=
 OpenBabel10272401083D

 27 30  0  0  1  0  0  0  0  0999 V2000
  187.4580  178.0210  143.5340 C   0  0  1  0  0  3  0  0  0  0  0  0
  187.6160  177.7650  142.0270 C   0  0  1  0  0  3  0  0  0  0  0  0
  188.4620  177.6630  137.8890 C   0  0  0  0  0  3  0  0  0  0  0  0
  189.7600  176.8010  136.0460 O   0  0  0  0  0  1  0  0  0  0  0  0
  186.9820  178.8610  141.1630 C   0  0  0  0  0  2  0  0  0  0  0  0
  190.3730  176.6780  139.6830 C   0  0  0  0  0  3  0  0  0  0  0  0
  190.5440  176.4970  138.3070 C   0  0  0  0  0  3  0  0  0  0  0  0
  189.2420  177.3440  140.1670 C   0  0  0  0  0  0  0  0  0  0  0  0
  189.5890  176.9870  137.4110 C   0  0  0  0  0  0  0  0  0  0  0  0
  188.2910  177.8550  139.2620 C   0  0  0  0  0  0  0  0  0  0  0  0
  189.0850  177.5590  141.6440 C   0  0  0  0  0  2  0  0  0  0  0  0
  187.1250  178.5240  139.7500 N   0  0  0  0  0  2  0  0  0  0  0  0
  183.4180  178.7990  144.8000 C   0  0  0  0  0  3  0  0  0  0  0  0
  186.0410  178.2810  143.9590 C   0  0  0  0  0  0  0  0  0  0  0  0
  185.7710  178.5360  145.3080 C   0  0  0  0  0  3  0  0  0  0  0  0
  184.4630  178.7940  145.7290 C   0  0  0  0  0  3  0  0  0  0  0  0
  183.6810  178.5470  143.4510 C   0  0  0  0  0  3  0  0  0  0  0  0
  184.9890  178.2900  143.0300 C   0  0  0  0  0  3  0  0  0  0  0  0
  188.0450  176.9360  144.3140 N   0  0  0  0  0  2  0  0  0  0  0  0
  191.5460  176.4090  144.9170 C   0  0  0  0  0  3  0  0  0  0  0  0
  191.3500  176.7960  147.3780 C   0  0  0  0  0  0  0  0  0  0  0  0
  192.1780  176.9450  148.4820 O   0  0  0  0  0  1  0  0  0  0  0  0
  189.1860  177.1030  145.1590 C   0  0  0  0  0  0  0  0  0  0  0  0
  191.9270  176.1670  146.1710 C   0  0  0  0  0  3  0  0  0  0  0  0
  190.0680  177.1610  147.5030 C   0  0  0  0  0  3  0  0  0  0  0  0
  189.0060  177.0580  146.4800 C   0  0  0  0  0  3  0  0  0  0  0  0
  190.5200  177.4340  144.5660 C   0  0  0  0  0  2  0  0  0  0  0  0
  1 14  1  0  0  0  0
  1 19  1  1  0  0  0
  2  1  1  1  0  0  0
  3 10  1  0  0  0  0
  4  9  1  0  0  0  0
  5  2  1  0  0  0  0
  6  8  1  0  0  0  0
  7  6  2  0  0  0  0
  8 11  1  0  0  0  0
  9  3  2  0  0  0  0
  9  7  1  0  0  0  0
 10 12  1  0  0  0  0
 10  8  2  0  0  0  0
 11  2  1  0  0  0  0
 12  5  1  0  0  0  0
 13 16  1  0  0  0  0
 14 15  1  0  0  0  0
 15 16  2  0  0  0  0
 17 13  2  0  0  0  0
 18 17  1  0  0  0  0
 18 14  2  0  0  0  0
 19 23  1  0  0  0  0
 20 24  2  0  0  0  0
 21 25  2  0  0  0  0
 21 22  1  0  0  0  0
 23 26  2  0  0  0  0
 24 21  1  0  0  0  0
 26 25  1  0  0  0  0
 27 20  1  0  0  0  0
 27 23  1  0  0  0  0
M  END
>  <MODEL>
2

>  <REMARK>
 VINA RESULT:     -10.2      3.004      6.060
  Name = 
  4 active torsions:
  status: ('A' for Active; 'I' for Inactive)
    1  A    between atoms: N_1  and  C_15
    2  A    between atoms: N_1  and  C_18
    3  A    between atoms: C_2  and  C_15
    4  A    between atoms: C_9  and  C_15
                            x       y       z     vdW  Elec       q    Type
                         _______ _______ _______ _____ _____    ______ ____

>  <TORSDO>
F 4

$$$$
=
 OpenBabel10272401083D

 27 30  0  0  1  0  0  0  0  0999 V2000
  186.3600  177.9680  142.6190 C   0  0  1  0  0  3  0  0  0  0  0  0
  187.3150  177.9070  143.8200 C   0  0  1  0  0  3  0  0  0  0  0  0
  189.8540  177.0160  147.0780 C   0  0  0  0  0  3  0  0  0  0  0  0
  192.0740  176.6760  147.9600 O   0  0  0  0  0  1  0  0  0  0  0  0
  186.6490  177.3620  145.0880 C   0  0  0  0  0  2  0  0  0  0  0  0
  190.8600  176.7780  144.4760 C   0  0  0  0  0  3  0  0  0  0  0  0
  191.7190  176.6630  145.5730 C   0  0  0  0  0  3  0  0  0  0  0  0
  189.4970  177.0200  144.6750 C   0  0  0  0  0  0  0  0  0  0  0  0
  191.2180  176.7850  146.8730 C   0  0  0  0  0  0  0  0  0  0  0  0
  188.9890  177.1210  145.9850 C   0  0  0  0  0  0  0  0  0  0  0  0
  188.5810  177.1090  143.4900 C   0  0  0  0  0  2  0  0  0  0  0  0
  187.5990  177.3820  146.1960 N   0  0  0  0  0  2  0  0  0  0  0  0
  182.3130  179.0490  143.6120 C   0  0  0  0  0  3  0  0  0  0  0  0
  184.9550  178.3590  142.9810 C   0  0  0  0  0  0  0  0  0  0  0  0
  183.9570  178.2980  142.0020 C   0  0  0  0  0  3  0  0  0  0  0  0
  182.6390  178.6420  142.3150 C   0  0  0  0  0  3  0  0  0  0  0  0
  183.3040  179.1090  144.5960 C   0  0  0  0  0  3  0  0  0  0  0  0
  184.6210  178.7650  144.2830 C   0  0  0  0  0  3  0  0  0  0  0  0
  186.8880  178.8390  141.5730 N   0  0  0  0  0  2  0  0  0  0  0  0
  189.2760  178.5230  138.9090 C   0  0  0  0  0  3  0  0  0  0  0  0
  187.5310  178.0960  137.1720 C   0  0  0  0  0  0  0  0  0  0  0  0
  187.4540  177.7180  135.8390 O   0  0  0  0  0  1  0  0  0  0  0  0
  187.2090  178.3820  140.2570 C   0  0  0  0  0  0  0  0  0  0  0  0
  188.8240  178.6220  137.6600 C   0  0  0  0  0  3  0  0  0  0  0  0
  186.4140  178.0310  137.9080 C   0  0  0  0  0  3  0  0  0  0  0  0
  186.2550  178.4150  139.3260 C   0  0  0  0  0  3  0  0  0  0  0  0
  188.5490  177.7760  139.9770 C   0  0  0  0  0  2  0  0  0  0  0  0
  1 19  1  6  0  0  0
  1 14  1  0  0  0  0
  2  1  1  6  0  0  0
  2  5  1  0  0  0  0
  5 12  1  0  0  0  0
  6  8  2  0  0  0  0
  6  7  1  0  0  0  0
  7  9  2  0  0  0  0
  8 10  1  0  0  0  0
  9  3  1  0  0  0  0
  9  4  1  0  0  0  0
 10 12  1  0  0  0  0
 10  3  2  0  0  0  0
 11  2  1  0  0  0  0
 11  8  1  0  0  0  0
 13 17  1  0  0  0  0
 14 18  1  0  0  0  0
 15 16  1  0  0  0  0
 15 14  2  0  0  0  0
 16 13  2  0  0  0  0
 18 17  2  0  0  0  0
 20 27  1  0  0  0  0
 21 24  1  0  0  0  0
 21 25  2  0  0  0  0
 22 21  1  0  0  0  0
 23 19  1  0  0  0  0
 24 20  2  0  0  0  0
 25 26  1  0  0  0  0
 26 23  2  0  0  0  0
 27 23  1  0  0  0  0
M  END
>  <MODEL>
3

>  <REMARK>
 VINA RESULT:      -9.8      2.857      6.484
  Name = 
  4 active torsions:
  status: ('A' for Active; 'I' for Inactive)
    1  A    between atoms: N_1  and  C_15
    2  A    between atoms: N_1  and  C_18
    3  A    between atoms: C_2  and  C_15
    4  A    between atoms: C_9  and  C_15
                            x       y       z     vdW  Elec       q    Type
                         _______ _______ _______ _____ _____    ______ ____

>  <TORSDO>
F 4

$$$$
=
 OpenBabel10272401083D

 27 30  0  0  1  0  0  0  0  0999 V2000
  187.5430  178.0680  144.4990 C   0  0  1  0  0  3  0  0  0  0  0  0
  186.0160  178.1340  144.3380 C   0  0  1  0  0  3  0  0  0  0  0  0
  181.9350  178.9960  143.6640 C   0  0  0  0  0  3  0  0  0  0  0  0
  179.9820  178.8670  142.2530 O   0  0  0  0  0  1  0  0  0  0  0  0
  185.3560  179.1410  145.2840 C   0  0  0  0  0  2  0  0  0  0  0  0
  183.5450  178.2870  141.4850 C   0  0  0  0  0  3  0  0  0  0  0  0
  182.1610  178.4050  141.3250 C   0  0  0  0  0  3  0  0  0  0  0  0
  184.1280  178.5160  142.7350 C   0  0  0  0  0  0  0  0  0  0  0  0
  181.3560  178.7560  142.4140 C   0  0  0  0  0  0  0  0  0  0  0  0
  183.3190  178.8890  143.8260 C   0  0  0  0  0  0  0  0  0  0  0  0
  185.6180  178.4170  142.8860 C   0  0  0  0  0  2  0  0  0  0  0  0
  183.9070  179.1110  145.1110 N   0  0  0  0  0  2  0  0  0  0  0  0
  188.8890  177.4010  148.5330 C   0  0  0  0  0  3  0  0  0  0  0  0
  187.9930  177.8290  145.9130 C   0  0  0  0  0  0  0  0  0  0  0  0
  189.3330  177.5090  146.1560 C   0  0  0  0  0  3  0  0  0  0  0  0
  189.7810  177.2940  147.4620 C   0  0  0  0  0  3  0  0  0  0  0  0
  187.5500  177.7230  148.2980 C   0  0  0  0  0  3  0  0  0  0  0  0
  187.1020  177.9370  146.9920 C   0  0  0  0  0  3  0  0  0  0  0  0
  188.1240  177.0810  143.5950 N   0  0  0  0  0  2  0  0  0  0  0  0
  189.1150  177.3270  140.1520 C   0  0  0  0  0  3  0  0  0  0  0  0
  191.5580  177.3170  140.6810 C   0  0  0  0  0  0  0  0  0  0  0  0
  192.7690  177.5070  140.0310 O   0  0  0  0  0  1  0  0  0  0  0  0
  189.1220  177.3990  142.6220 C   0  0  0  0  0  0  0  0  0  0  0  0
  190.3740  177.0140  139.8480 C   0  0  0  0  0  3  0  0  0  0  0  0
  191.5540  177.3450  142.0200 C   0  0  0  0  0  3  0  0  0  0  0  0
  190.3960  177.1320  142.9150 C   0  0  0  0  0  3  0  0  0  0  0  0
  188.7460  178.1160  141.3630 C   0  0  0  0  0  2  0  0  0  0  0  0
  1 19  1  6  0  0  0
  1 14  1  0  0  0  0
  2  1  1  6  0  0  0
  2  5  1  0  0  0  0
  3 10  1  0  0  0  0
  4  9  1  0  0  0  0
  6  8  1  0  0  0  0
  7  6  2  0  0  0  0
  7  9  1  0  0  0  0
  8 11  1  0  0  0  0
  8 10  2  0  0  0  0
  9  3  2  0  0  0  0
 10 12  1  0  0  0  0
 11  2  1  0  0  0  0
 12  5  1  0  0  0  0
 14 15  2  0  0  0  0
 14 18  1  0  0  0  0
 15 16  1  0  0  0  0
 16 13  2  0  0  0  0
 17 13  1  0  0  0  0
 18 17  2  0  0  0  0
 20 27  1  0  0  0  0
 21 25  2  0  0  0  0
 22 21  1  0  0  0  0
 23 26  2  0  0  0  0
 23 19  1  0  0  0  0
 24 20  2  0  0  0  0
 24 21  1  0  0  0  0
 25 26  1  0  0  0  0
 27 23  1  0  0  0  0
M  END
>  <MODEL>
4

>  <REMARK>
 VINA RESULT:      -9.7      0.559      1.300
  Name = 
  4 active torsions:
  status: ('A' for Active; 'I' for Inactive)
    1  A    between atoms: N_1  and  C_15
    2  A    between atoms: N_1  and  C_18
    3  A    between atoms: C_2  and  C_15
    4  A    between atoms: C_9  and  C_15
                            x       y       z     vdW  Elec       q    Type
                         _______ _______ _______ _____ _____    ______ ____

>  <TORSDO>
F 4

$$$$
=
 OpenBabel10272401083D

 27 30  0  0  1  0  0  0  0  0999 V2000
  187.3020  177.4270  142.6480 C   0  0  1  0  0  3  0  0  0  0  0  0
  188.4330  176.9040  143.5460 C   0  0  1  0  0  3  0  0  0  0  0  0
  191.8400  176.1250  145.9210 C   0  0  0  0  0  3  0  0  0  0  0  0
  192.8790  175.9840  148.0940 O   0  0  0  0  0  1  0  0  0  0  0  0
  189.7760  176.7940  142.8160 C   0  0  0  0  0  2  0  0  0  0  0  0
  189.7070  177.5510  147.0430 C   0  0  0  0  0  3  0  0  0  0  0  0
  190.7670  177.1250  147.8500 C   0  0  0  0  0  3  0  0  0  0  0  0
  189.7060  177.2590  145.6760 C   0  0  0  0  0  0  0  0  0  0  0  0
  191.8310  176.4100  147.2900 C   0  0  0  0  0  0  0  0  0  0  0  0
  190.7870  176.5570  145.1090 C   0  0  0  0  0  0  0  0  0  0  0  0
  188.5770  177.7490  144.8160 C   0  0  0  0  0  2  0  0  0  0  0  0
  190.7860  176.2430  143.7140 N   0  0  0  0  0  2  0  0  0  0  0  0
  183.9550  179.0980  144.7780 C   0  0  0  0  0  3  0  0  0  0  0  0
  186.1460  178.0120  143.4090 C   0  0  0  0  0  0  0  0  0  0  0  0
  185.1560  178.7140  142.7120 C   0  0  0  0  0  3  0  0  0  0  0  0
  184.0640  179.2570  143.3930 C   0  0  0  0  0  3  0  0  0  0  0  0
  184.9380  178.3960  145.4800 C   0  0  0  0  0  3  0  0  0  0  0  0
  186.0300  177.8530  144.7990 C   0  0  0  0  0  3  0  0  0  0  0  0
  187.8110  178.3780  141.6640 N   0  0  0  0  0  2  0  0  0  0  0  0
  189.4610  178.4700  138.4760 C   0  0  0  0  0  3  0  0  0  0  0  0
  187.3260  178.3780  137.1800 C   0  0  0  0  0  0  0  0  0  0  0  0
  186.9070  178.2330  135.8660 O   0  0  0  0  0  1  0  0  0  0  0  0
  187.7760  178.1430  140.2540 C   0  0  0  0  0  0  0  0  0  0  0  0
  188.7280  178.7880  137.4100 C   0  0  0  0  0  3  0  0  0  0  0  0
  186.4180  178.2110  138.1500 C   0  0  0  0  0  3  0  0  0  0  0  0
  186.6290  178.3530  139.6060 C   0  0  0  0  0  3  0  0  0  0  0  0
  188.9700  177.5670  139.5570 C   0  0  0  0  0  2  0  0  0  0  0  0
  1 19  1  6  0  0  0
  1 14  1  0  0  0  0
  2  1  1  6  0  0  0
  2 11  1  0  0  0  0
  3  9  1  0  0  0  0
  5  2  1  0  0  0  0
  5 12  1  0  0  0  0
  6  7  1  0  0  0  0
  8  6  2  0  0  0  0
  9  7  2  0  0  0  0
  9  4  1  0  0  0  0
 10  8  1  0  0  0  0
 10  3  2  0  0  0  0
 11  8  1  0  0  0  0
 12 10  1  0  0  0  0
 13 17  1  0  0  0  0
 14 18  1  0  0  0  0
 15 16  1  0  0  0  0
 15 14  2  0  0  0  0
 16 13  2  0  0  0  0
 18 17  2  0  0  0  0
 20 27  1  0  0  0  0
 21 24  1  0  0  0  0
 21 25  2  0  0  0  0
 22 21  1  0  0  0  0
 23 19  1  0  0  0  0
 24 20  2  0  0  0  0
 25 26  1  0  0  0  0
 26 23  2  0  0  0  0
 27 23  1  0  0  0  0
M  END
>  <MODEL>
5

>  <REMARK>
 VINA RESULT:      -9.5      2.967      6.735
  Name = 
  4 active torsions:
  status: ('A' for Active; 'I' for Inactive)
    1  A    between atoms: N_1  and  C_15
    2  A    between atoms: N_1  and  C_18
    3  A    between atoms: C_2  and  C_15
    4  A    between atoms: C_9  and  C_15
                            x       y       z     vdW  Elec       q    Type
                         _______ _______ _______ _____ _____    ______ ____

>  <TORSDO>
F 4

$$$$
=
 OpenBabel10272401083D

 27 30  0  0  1  0  0  0  0  0999 V2000
  187.0160  177.6240  144.1800 C   0  0  1  0  0  3  0  0  0  0  0  0
  188.1310  177.4450  143.1390 C   0  0  1  0  0  3  0  0  0  0  0  0
  190.7400  176.4810  139.9580 C   0  0  0  0  0  3  0  0  0  0  0  0
  191.6800  177.0080  137.8000 O   0  0  0  0  0  1  0  0  0  0  0  0
  188.7240  176.0320  143.1330 C   0  0  0  0  0  2  0  0  0  0  0  0
  188.6970  178.3430  139.5130 C   0  0  0  0  0  3  0  0  0  0  0  0
  189.6800  178.1360  138.5410 C   0  0  0  0  0  3  0  0  0  0  0  0
  188.7360  177.6270  140.7140 C   0  0  0  0  0  0  0  0  0  0  0  0
  190.7030  177.2080  138.7640 C   0  0  0  0  0  0  0  0  0  0  0  0
  189.7540  176.6780  140.9290 C   0  0  0  0  0  0  0  0  0  0  0  0
  187.6570  177.8360  141.7360 C   0  0  0  0  0  2  0  0  0  0  0  0
  189.8080  175.9520  142.1600 N   0  0  0  0  0  2  0  0  0  0  0  0
  188.4070  178.1430  148.2200 C   0  0  0  0  0  3  0  0  0  0  0  0
  187.5200  177.8120  145.5830 C   0  0  0  0  0  0  0  0  0  0  0  0
  186.6050  178.0880  146.6050 C   0  0  0  0  0  3  0  0  0  0  0  0
  187.0460  178.2540  147.9200 C   0  0  0  0  0  3  0  0  0  0  0  0
  189.3260  177.8660  147.2050 C   0  0  0  0  0  3  0  0  0  0  0  0
  188.8850  177.6990  145.8900 C   0  0  0  0  0  3  0  0  0  0  0  0
  186.1160  178.7100  143.8020 N   0  0  0  0  0  2  0  0  0  0  0  0
  183.4320  178.7000  141.4150 C   0  0  0  0  0  3  0  0  0  0  0  0
  181.6540  178.8740  143.1630 C   0  0  0  0  0  0  0  0  0  0  0  0
  180.2720  178.8080  143.2570 O   0  0  0  0  0  1  0  0  0  0  0  0
  184.7290  178.5150  143.5100 C   0  0  0  0  0  0  0  0  0  0  0  0
  182.2370  179.1230  141.8270 C   0  0  0  0  0  3  0  0  0  0  0  0
  182.3650  178.7830  144.2940 C   0  0  0  0  0  3  0  0  0  0  0  0
  183.8340  178.8650  144.4350 C   0  0  0  0  0  3  0  0  0  0  0  0
  184.3140  177.8300  142.2450 C   0  0  0  0  0  2  0  0  0  0  0  0
  1 19  1  6  0  0  0
  1 14  1  0  0  0  0
  2  1  1  1  0  0  0
  3 10  1  0  0  0  0
  4  9  1  0  0  0  0
  5  2  1  0  0  0  0
  6  8  1  0  0  0  0
  7  9  1  0  0  0  0
  7  6  2  0  0  0  0
  8 10  2  0  0  0  0
  8 11  1  0  0  0  0
  9  3  2  0  0  0  0
 10 12  1  0  0  0  0
 11  2  1  0  0  0  0
 12  5  1  0  0  0  0
 14 18  2  0  0  0  0
 14 15  1  0  0  0  0
 15 16  2  0  0  0  0
 16 13  1  0  0  0  0
 17 13  2  0  0  0  0
 18 17  1  0  0  0  0
 20 24  2  0  0  0  0
 20 27  1  0  0  0  0
 21 22  1  0  0  0  0
 21 25  2  0  0  0  0
 23 19  1  0  0  0  0
 23 26  2  0  0  0  0
 24 21  1  0  0  0  0
 25 26  1  0  0  0  0
 27 23  1  0  0  0  0
M  END
>  <MODEL>
6

>  <REMARK>
 VINA RESULT:      -9.4      1.348      6.807
  Name = 
  4 active torsions:
  status: ('A' for Active; 'I' for Inactive)
    1  A    between atoms: N_1  and  C_15
    2  A    between atoms: N_1  and  C_18
    3  A    between atoms: C_2  and  C_15
    4  A    between atoms: C_9  and  C_15
                            x       y       z     vdW  Elec       q    Type
                         _______ _______ _______ _____ _____    ______ ____

>  <TORSDO>
F 4

$$$$
=
 OpenBabel10272401083D

 27 30  0  0  1  0  0  0  0  0999 V2000
  187.5020  177.3330  144.3030 C   0  0  1  0  0  3  0  0  0  0  0  0
  185.9970  177.6420  144.2990 C   0  0  1  0  0  3  0  0  0  0  0  0
  182.0610  179.1650  144.0950 C   0  0  0  0  0  3  0  0  0  0  0  0
  179.9970  179.4550  142.8790 O   0  0  0  0  0  1  0  0  0  0  0  0
  185.5890  178.6520  145.3760 C   0  0  0  0  0  2  0  0  0  0  0  0
  183.3440  178.4130  141.7220 C   0  0  0  0  0  3  0  0  0  0  0  0
  181.9870  178.7520  141.7090 C   0  0  0  0  0  3  0  0  0  0  0  0
  184.0610  178.4420  142.9220 C   0  0  0  0  0  0  0  0  0  0  0  0
  181.3450  179.1250  142.8950 C   0  0  0  0  0  0  0  0  0  0  0  0
  183.4190  178.8370  144.1120 C   0  0  0  0  0  0  0  0  0  0  0  0
  185.5240  178.1070  142.9170 C   0  0  0  0  0  2  0  0  0  0  0  0
  184.1440  178.8550  145.3450 N   0  0  0  0  0  2  0  0  0  0  0  0
  189.3660  177.6670  140.4370 C   0  0  0  0  0  3  0  0  0  0  0  0
  188.1530  177.4720  142.9560 C   0  0  0  0  0  0  0  0  0  0  0  0
  188.9660  176.4360  142.4830 C   0  0  0  0  0  3  0  0  0  0  0  0
  189.5720  176.5330  141.2270 C   0  0  0  0  0  3  0  0  0  0  0  0
  188.5530  178.7040  140.9020 C   0  0  0  0  0  3  0  0  0  0  0  0
  187.9470  178.6070  142.1570 C   0  0  0  0  0  3  0  0  0  0  0  0
  188.1990  178.1380  145.3020 N   0  0  0  0  0  2  0  0  0  0  0  0
  191.4970  176.7760  144.8920 C   0  0  0  0  0  3  0  0  0  0  0  0
  191.7690  176.2630  147.3220 C   0  0  0  0  0  0  0  0  0  0  0  0
  192.7590  175.8380  148.1970 O   0  0  0  0  0  1  0  0  0  0  0  0
  189.4560  177.7650  145.8730 C   0  0  0  0  0  0  0  0  0  0  0  0
  191.9820  176.0250  145.8790 C   0  0  0  0  0  3  0  0  0  0  0  0
  190.6550  176.7930  147.8460 C   0  0  0  0  0  3  0  0  0  0  0  0
  189.4650  177.2740  147.1130 C   0  0  0  0  0  3  0  0  0  0  0  0
  190.7290  178.0320  145.1320 C   0  0  0  0  0  2  0  0  0  0  0  0
  1 19  1  1  0  0  0
  2  1  1  6  0  0  0
  2  5  1  0  0  0  0
  3 10  1  0  0  0  0
  4  9  1  0  0  0  0
  6  8  1  0  0  0  0
  7  6  2  0  0  0  0
  7  9  1  0  0  0  0
  8 10  2  0  0  0  0
  9  3  2  0  0  0  0
 10 12  1  0  0  0  0
 11  8  1  0  0  0  0
 11  2  1  0  0  0  0
 12  5  1  0  0  0  0
 13 17  2  0  0  0  0
 13 16  1  0  0  0  0
 14  1  1  0  0  0  0
 15 14  1  0  0  0  0
 16 15  2  0  0  0  0
 17 18  1  0  0  0  0
 18 14  2  0  0  0  0
 19 23  1  0  0  0  0
 20 27  1  0  0  0  0
 20 24  2  0  0  0  0
 21 25  2  0  0  0  0
 21 22  1  0  0  0  0
 23 26  2  0  0  0  0
 24 21  1  0  0  0  0
 26 25  1  0  0  0  0
 27 23  1  0  0  0  0
M  END
>  <MODEL>
7

>  <REMARK>
 VINA RESULT:      -9.4      2.079      4.129
  Name = 
  4 active torsions:
  status: ('A' for Active; 'I' for Inactive)
    1  A    between atoms: N_1  and  C_15
    2  A    between atoms: N_1  and  C_18
    3  A    between atoms: C_2  and  C_15
    4  A    between atoms: C_9  and  C_15
                            x       y       z     vdW  Elec       q    Type
                         _______ _______ _______ _____ _____    ______ ____

>  <TORSDO>
F 4

$$$$
=
 OpenBabel10272401083D

 27 30  0  0  1  0  0  0  0  0999 V2000
  186.1690  178.3670  142.9100 C   0  0  1  0  0  3  0  0  0  0  0  0
  186.5920  178.0720  141.4630 C   0  0  1  0  0  3  0  0  0  0  0  0
  188.0280  177.9360  137.4920 C   0  0  0  0  0  3  0  0  0  0  0  0
  189.7280  177.2800  135.9100 O   0  0  0  0  0  1  0  0  0  0  0  0
  185.8760  178.9560  140.4370 C   0  0  0  0  0  2  0  0  0  0  0  0
  189.8230  177.4860  139.5940 C   0  0  0  0  0  3  0  0  0  0  0  0
  190.2250  177.2740  138.2720 C   0  0  0  0  0  3  0  0  0  0  0  0
  188.5210  177.9150  139.8700 C   0  0  0  0  0  0  0  0  0  0  0  0
  189.3280  177.4960  137.2210 C   0  0  0  0  0  0  0  0  0  0  0  0
  187.6250  178.1580  138.8110 C   0  0  0  0  0  0  0  0  0  0  0  0
  188.1110  178.1690  141.2920 C   0  0  0  0  0  2  0  0  0  0  0  0
  186.2880  178.5840  139.0870 N   0  0  0  0  0  2  0  0  0  0  0  0
  181.9100  178.7850  143.3730 C   0  0  0  0  0  3  0  0  0  0  0  0
  184.6860  178.5270  143.0880 C   0  0  0  0  0  0  0  0  0  0  0  0
  183.8400  178.2870  141.9990 C   0  0  0  0  0  3  0  0  0  0  0  0
  182.4560  178.4160  142.1400 C   0  0  0  0  0  3  0  0  0  0  0  0
  182.7490  179.0240  144.4650 C   0  0  0  0  0  3  0  0  0  0  0  0
  184.1330  178.8950  144.3240 C   0  0  0  0  0  3  0  0  0  0  0  0
  186.6960  177.3590  143.8260 N   0  0  0  0  0  2  0  0  0  0  0  0
  189.8740  177.0590  145.4730 C   0  0  0  0  0  3  0  0  0  0  0  0
  188.9670  177.7180  147.7060 C   0  0  0  0  0  0  0  0  0  0  0  0
  189.4360  178.0290  148.9740 O   0  0  0  0  0  1  0  0  0  0  0  0
  187.5400  177.6720  144.9370 C   0  0  0  0  0  0  0  0  0  0  0  0
  189.8750  176.9800  146.8030 C   0  0  0  0  0  3  0  0  0  0  0  0
  187.7010  178.0390  147.4100 C   0  0  0  0  0  3  0  0  0  0  0  0
  186.9840  177.7720  146.1450 C   0  0  0  0  0  3  0  0  0  0  0  0
  188.9870  177.9910  144.7180 C   0  0  0  0  0  2  0  0  0  0  0  0
  1 14  1  0  0  0  0
  1 19  1  1  0  0  0
  2  1  1  1  0  0  0
  3 10  1  0  0  0  0
  4  9  1  0  0  0  0
  5  2  1  0  0  0  0
  6  8  1  0  0  0  0
  7  6  2  0  0  0  0
  8 11  1  0  0  0  0
  9  3  2  0  0  0  0
  9  7  1  0  0  0  0
 10 12  1  0  0  0  0
 10  8  2  0  0  0  0
 11  2  1  0  0  0  0
 12  5  1  0  0  0  0
 13 17  1  0  0  0  0
 14 18  1  0  0  0  0
 15 16  1  0  0  0  0
 15 14  2  0  0  0  0
 16 13  2  0  0  0  0
 18 17  2  0  0  0  0
 19 23  1  0  0  0  0
 20 24  2  0  0  0  0
 21 22  1  0  0  0  0
 23 26  2  0  0  0  0
 24 21  1  0  0  0  0
 25 21  2  0  0  0  0
 26 25  1  0  0  0  0
 27 23  1  0  0  0  0
 27 20  1  0  0  0  0
M  END
>  <MODEL>
8

>  <REMARK>
 VINA RESULT:      -9.1      2.864      6.491
  Name = 
  4 active torsions:
  status: ('A' for Active; 'I' for Inactive)
    1  A    between atoms: N_1  and  C_15
    2  A    between atoms: N_1  and  C_18
    3  A    between atoms: C_2  and  C_15
    4  A    between atoms: C_9  and  C_15
                            x       y       z     vdW  Elec       q    Type
                         _______ _______ _______ _____ _____    ______ ____

>  <TORSDO>
F 4

$$$$
=
 OpenBabel10272401083D

 27 30  0  0  1  0  0  0  0  0999 V2000
  189.8080  177.8210  141.6600 C   0  0  1  0  0  3  0  0  0  0  0  0
  188.3720  178.3460  141.8070 C   0  0  1  0  0  3  0  0  0  0  0  0
  184.2240  179.0970  142.0940 C   0  0  0  0  0  3  0  0  0  0  0  0
  182.2510  179.4190  143.4450 O   0  0  0  0  0  1  0  0  0  0  0  0
  187.5560  178.2310  140.5150 C   0  0  0  0  0  2  0  0  0  0  0  0
  185.5620  178.0400  144.3140 C   0  0  0  0  0  3  0  0  0  0  0  0
  184.2350  178.4640  144.4320 C   0  0  0  0  0  3  0  0  0  0  0  0
  186.2270  178.1510  143.0890 C   0  0  0  0  0  0  0  0  0  0  0  0
  183.5670  178.9950  143.3240 C   0  0  0  0  0  0  0  0  0  0  0  0
  185.5470  178.6660  141.9680 C   0  0  0  0  0  0  0  0  0  0  0  0
  187.6410  177.6630  142.9680 C   0  0  0  0  0  2  0  0  0  0  0  0
  186.2250  178.7950  140.7160 N   0  0  0  0  0  2  0  0  0  0  0  0
  191.6060  176.7540  145.4230 C   0  0  0  0  0  3  0  0  0  0  0  0
  190.4470  177.4330  142.9640 C   0  0  0  0  0  0  0  0  0  0  0  0
  190.5880  178.3980  143.9670 C   0  0  0  0  0  3  0  0  0  0  0  0
  191.1670  178.0610  145.1930 C   0  0  0  0  0  3  0  0  0  0  0  0
  191.4660  175.7840  144.4260 C   0  0  0  0  0  3  0  0  0  0  0  0
  190.8880  176.1210  143.2000 C   0  0  0  0  0  3  0  0  0  0  0  0
  189.8680  176.7200  140.7030 N   0  0  0  0  0  2  0  0  0  0  0  0
  190.7680  175.3590  137.5040 C   0  0  0  0  0  3  0  0  0  0  0  0
  193.1200  176.1960  137.6220 C   0  0  0  0  0  0  0  0  0  0  0  0
  194.2360  176.2950  136.8040 O   0  0  0  0  0  1  0  0  0  0  0  0
  190.7470  176.7070  139.5760 C   0  0  0  0  0  0  0  0  0  0  0  0
  192.0650  175.2370  137.2270 C   0  0  0  0  0  3  0  0  0  0  0  0
  193.1030  176.9160  138.7510 C   0  0  0  0  0  3  0  0  0  0  0  0
  192.0440  176.9370  139.7820 C   0  0  0  0  0  3  0  0  0  0  0  0
  190.1950  176.5520  138.1920 C   0  0  0  0  0  2  0  0  0  0  0  0
  1 19  1  6  0  0  0
  1 14  1  0  0  0  0
  2  1  1  6  0  0  0
  2 11  1  0  0  0  0
  3  9  1  0  0  0  0
  5 12  1  0  0  0  0
  5  2  1  0  0  0  0
  6  7  1  0  0  0  0
  8  6  2  0  0  0  0
  9  4  1  0  0  0  0
  9  7  2  0  0  0  0
 10  3  2  0  0  0  0
 10  8  1  0  0  0  0
 11  8  1  0  0  0  0
 12 10  1  0  0  0  0
 14 18  2  0  0  0  0
 14 15  1  0  0  0  0
 15 16  2  0  0  0  0
 16 13  1  0  0  0  0
 17 13  2  0  0  0  0
 18 17  1  0  0  0  0
 20 27  1  0  0  0  0
 21 25  2  0  0  0  0
 22 21  1  0  0  0  0
 23 26  2  0  0  0  0
 23 19  1  0  0  0  0
 24 20  2  0  0  0  0
 24 21  1  0  0  0  0
 25 26  1  0  0  0  0
 27 23  1  0  0  0  0
M  END
>  <MODEL>
9

>  <REMARK>
 VINA RESULT:      -9.0      2.427      4.016
  Name = 
  4 active torsions:
  status: ('A' for Active; 'I' for Inactive)
    1  A    between atoms: N_1  and  C_15
    2  A    between atoms: N_1  and  C_18
    3  A    between atoms: C_2  and  C_15
    4  A    between atoms: C_9  and  C_15
                            x       y       z     vdW  Elec       q    Type
                         _______ _______ _______ _____ _____    ______ ____

>  <TORSDO>
F 4

$$$$
