=
 OpenBabel10272413103D

 32 37  0  0  1  0  0  0  0  0999 V2000
  189.8480  177.1210  142.8200 C   0  0  0  0  0  0  0  0  0  0  0  0
  188.0580  177.8800  144.3260 C   0  0  0  0  0  0  0  0  0  0  0  0
  191.0870  176.2580  142.6790 C   0  0  0  0  0  2  0  0  0  0  0  0
  189.4690  177.6050  144.1500 N   0  0  0  0  0  0  0  0  0  0  0  0
  187.4400  177.8390  145.5990 C   0  0  0  0  0  0  0  0  0  0  0  0
  183.6110  178.5040  142.3510 C   0  0  0  0  0  2  0  0  0  0  0  0
  187.2710  178.2000  143.1880 C   0  0  0  0  0  0  0  0  0  0  0  0
  183.9250  178.7780  144.7590 N   0  0  0  0  0  0  0  0  0  0  0  0
  185.3180  178.4710  144.6100 C   0  0  0  0  0  0  0  0  0  0  0  0
  186.0810  178.1380  145.7270 C   0  0  0  0  0  3  0  0  0  0  0  0
  187.8570  178.1920  141.8750 N   0  0  0  0  0  2  0  0  0  0  0  0
  189.2790  177.9380  141.6520 C   0  0  2  0  0  3  0  0  0  0  0  0
  185.9070  178.4910  143.3360 C   0  0  0  0  0  0  0  0  0  0  0  0
  189.7060  175.6140  142.7150 C   0  0  0  0  0  2  0  0  0  0  0  0
  183.1260  178.8420  143.7340 C   0  0  0  0  0  3  0  0  0  0  0  0
  185.0690  178.9260  142.1640 C   0  0  0  0  0  2  0  0  0  0  0  0
  189.0390  178.3140  138.0650 C   0  0  0  0  0  0  0  0  0  0  0  0
  191.3190  175.8620  136.3350 C   0  0  0  0  0  1  0  0  0  0  0  0
  188.6080  179.4730  137.8230 O   0  0  0  0  0  0  0  0  0  0  0  0
  191.0710  176.1510  138.7210 C   0  0  0  0  0  3  0  0  0  0  0  0
  189.5370  177.3910  140.2710 C   0  0  0  0  0  0  0  0  0  0  0  0
  190.0190  177.7650  137.2360 O   0  0  0  0  0  0  0  0  0  0  0  0
  190.6630  176.7120  140.0240 C   0  0  0  0  0  3  0  0  0  0  0  0
  188.4900  177.5400  139.2160 C   0  0  1  0  0  3  0  0  0  0  0  0
  187.3430  178.1400  139.7130 F   0  0  0  0  0  0  0  0  0  0  0  0
  190.7610  176.6010  137.4970 C   0  0  0  0  0  0  0  0  0  0  0  0
  190.4230  178.4170  144.9140 C   0  0  0  0  0  3  0  0  0  0  0  0
  190.7510  179.5730  144.2360 O   0  0  0  0  0  0  0  0  0  0  0  0
  191.6030  178.5420  144.2110 O   0  0  0  0  0  0  0  0  0  0  0  0
  188.1670  177.3990  146.8260 C   0  0  0  0  0  2  0  0  0  0  0  0
  187.6080  178.0830  148.0280 C   0  0  0  0  0  3  0  0  0  0  0  0
  188.2270  178.0730  149.0780 O   0  0  0  0  0  0  0  0  0  0  0  0
  1  4  1  0  0  0  0
  2  5  1  0  0  0  0
  3 14  1  0  0  0  0
  3  1  1  0  0  0  0
  4  2  1  0  0  0  0
  4 27  1  0  0  0  0
  5 10  2  0  0  0  0
  5 30  1  0  0  0  0
  6 15  1  0  0  0  0
  7 13  1  0  0  0  0
  7  2  2  0  0  0  0
  9  8  1  0  0  0  0
  9 10  1  0  0  0  0
 11  7  1  0  0  0  0
 12 21  1  6  0  0  0
 12 11  1  0  0  0  0
 12  1  1  0  0  0  0
 13  9  2  0  0  0  0
 14  1  1  0  0  0  0
 15  8  2  0  0  0  0
 16  6  1  0  0  0  0
 16 13  1  0  0  0  0
 17 24  1  0  0  0  0
 18 26  1  0  0  0  0
 19 17  2  0  0  0  0
 20 23  1  0  0  0  0
 22 26  1  0  0  0  0
 22 17  1  0  0  0  0
 23 21  2  0  0  0  0
 24 25  1  1  0  0  0
 24 21  1  0  0  0  0
 26 20  2  0  0  0  0
 28 27  1  0  0  0  0
 29 28  1  0  0  0  0
 29 27  1  0  0  0  0
 30 31  1  0  0  0  0
 31 32  2  0  0  0  0
M  END
>  <MODEL>
1

>  <REMARK>
 VINA RESULT:     -10.3      0.000      0.000
  Name = 
  4 active torsions:
  status: ('A' for Active; 'I' for Inactive)
    1  A    between atoms: N_5  and  C_14
    2  A    between atoms: C_6  and  C_29
    3  A    between atoms: C_13  and  C_29
    4  A    between atoms: C_16  and  C_27
                            x       y       z     vdW  Elec       q    Type
                         _______ _______ _______ _____ _____    ______ ____

>  <TORSDO>
F 4

$$$$
=
 OpenBabel10272413103D

 32 37  0  0  1  0  0  0  0  0999 V2000
  189.5290  177.2060  142.5850 C   0  0  0  0  0  0  0  0  0  0  0  0
  188.0820  177.8420  144.4680 C   0  0  0  0  0  0  0  0  0  0  0  0
  190.6740  176.3230  142.1250 C   0  0  0  0  0  2  0  0  0  0  0  0
  189.4210  177.5410  144.0080 N   0  0  0  0  0  0  0  0  0  0  0  0
  187.6990  177.6720  145.8210 C   0  0  0  0  0  0  0  0  0  0  0  0
  183.3950  178.8510  143.4230 C   0  0  0  0  0  2  0  0  0  0  0  0
  187.1230  178.3230  143.5360 C   0  0  0  0  0  0  0  0  0  0  0  0
  184.1480  178.8260  145.7480 N   0  0  0  0  0  0  0  0  0  0  0  0
  185.4730  178.4900  145.3130 C   0  0  0  0  0  0  0  0  0  0  0  0
  186.4020  178.0010  146.2280 C   0  0  0  0  0  3  0  0  0  0  0  0
  187.4650  178.4500  142.1460 N   0  0  0  0  0  2  0  0  0  0  0  0
  188.8080  178.1750  141.6390 C   0  0  2  0  0  3  0  0  0  0  0  0
  185.8260  178.6410  143.9630 C   0  0  0  0  0  0  0  0  0  0  0  0
  189.2880  175.7280  142.3420 C   0  0  0  0  0  2  0  0  0  0  0  0
  183.1840  179.0390  144.9000 C   0  0  0  0  0  3  0  0  0  0  0  0
  184.8190  179.2410  143.0200 C   0  0  0  0  0  2  0  0  0  0  0  0
  190.3060  176.3960  138.8720 C   0  0  0  0  0  0  0  0  0  0  0  0
  187.8570  176.0980  136.0250 C   0  0  0  0  0  1  0  0  0  0  0  0
  191.2550  175.7010  139.3240 O   0  0  0  0  0  0  0  0  0  0  0  0
  187.4390  177.1220  138.1730 C   0  0  0  0  0  3  0  0  0  0  0  0
  188.7850  177.7880  140.1820 C   0  0  0  0  0  0  0  0  0  0  0  0
  189.5030  175.8730  137.8570 O   0  0  0  0  0  0  0  0  0  0  0  0
  187.6180  177.5440  139.5760 C   0  0  0  0  0  3  0  0  0  0  0  0
  190.0650  177.7660  139.4090 C   0  0  1  0  0  3  0  0  0  0  0  0
  191.1360  178.1910  140.1810 F   0  0  0  0  0  0  0  0  0  0  0  0
  188.2850  176.4110  137.4120 C   0  0  0  0  0  0  0  0  0  0  0  0
  190.5400  178.2240  144.6680 C   0  0  0  0  0  3  0  0  0  0  0  0
  190.7200  179.4940  144.1620 O   0  0  0  0  0  0  0  0  0  0  0  0
  191.5260  178.5100  143.7480 O   0  0  0  0  0  0  0  0  0  0  0  0
  188.6070  177.0650  146.8370 C   0  0  0  0  0  2  0  0  0  0  0  0
  188.3600  177.6740  148.1760 C   0  0  0  0  0  3  0  0  0  0  0  0
  189.2030  178.3950  148.6830 O   0  0  0  0  0  0  0  0  0  0  0  0
  1  4  1  0  0  0  0
  2  5  1  0  0  0  0
  3 14  1  0  0  0  0
  3  1  1  0  0  0  0
  4  2  1  0  0  0  0
  4 27  1  0  0  0  0
  5 10  2  0  0  0  0
  5 30  1  0  0  0  0
  6 15  1  0  0  0  0
  7 13  1  0  0  0  0
  7  2  2  0  0  0  0
  9  8  1  0  0  0  0
  9 10  1  0  0  0  0
 11  7  1  0  0  0  0
 12 21  1  6  0  0  0
 12 11  1  0  0  0  0
 12  1  1  0  0  0  0
 13  9  2  0  0  0  0
 14  1  1  0  0  0  0
 15  8  2  0  0  0  0
 16  6  1  0  0  0  0
 16 13  1  0  0  0  0
 17 19  2  0  0  0  0
 17 24  1  0  0  0  0
 18 26  1  0  0  0  0
 20 23  1  0  0  0  0
 22 17  1  0  0  0  0
 23 21  2  0  0  0  0
 24 25  1  1  0  0  0
 24 21  1  0  0  0  0
 26 22  1  0  0  0  0
 26 20  2  0  0  0  0
 28 27  1  0  0  0  0
 29 28  1  0  0  0  0
 29 27  1  0  0  0  0
 30 31  1  0  0  0  0
 31 32  2  0  0  0  0
M  END
>  <MODEL>
2

>  <REMARK>
 VINA RESULT:      -9.9      1.360      1.811
  Name = 
  4 active torsions:
  status: ('A' for Active; 'I' for Inactive)
    1  A    between atoms: N_5  and  C_14
    2  A    between atoms: C_6  and  C_29
    3  A    between atoms: C_13  and  C_29
    4  A    between atoms: C_16  and  C_27
                            x       y       z     vdW  Elec       q    Type
                         _______ _______ _______ _____ _____    ______ ____

>  <TORSDO>
F 4

$$$$
=
 OpenBabel10272413103D

 32 37  0  0  1  0  0  0  0  0999 V2000
  186.6390  177.8760  144.4980 C   0  0  0  0  0  0  0  0  0  0  0  0
  185.8970  178.5400  142.2500 C   0  0  0  0  0  0  0  0  0  0  0  0
  186.2160  177.3250  145.8470 C   0  0  0  0  0  2  0  0  0  0  0  0
  185.6470  178.5740  143.6750 N   0  0  0  0  0  0  0  0  0  0  0  0
  184.8530  178.6750  141.3030 C   0  0  0  0  0  0  0  0  0  0  0  0
  188.9450  177.5720  138.5300 C   0  0  0  0  0  2  0  0  0  0  0  0
  187.2280  178.3680  141.7870 C   0  0  0  0  0  0  0  0  0  0  0  0
  186.7340  178.5090  138.0820 N   0  0  0  0  0  0  0  0  0  0  0  0
  186.4530  178.5140  139.4880 C   0  0  0  0  0  0  0  0  0  0  0  0
  185.1420  178.6640  139.9350 C   0  0  0  0  0  3  0  0  0  0  0  0
  188.3010  178.1700  142.7230 N   0  0  0  0  0  2  0  0  0  0  0  0
  188.0980  178.2130  144.1700 C   0  0  2  0  0  3  0  0  0  0  0  0
  187.4980  178.3530  140.4110 C   0  0  0  0  0  0  0  0  0  0  0  0
  186.3070  176.4020  144.6380 C   0  0  0  0  0  2  0  0  0  0  0  0
  187.8850  178.1220  137.6150 C   0  0  0  0  0  3  0  0  0  0  0  0
  188.9080  178.2680  139.8920 C   0  0  0  0  0  2  0  0  0  0  0  0
  191.2800  176.4970  144.1480 C   0  0  0  0  0  0  0  0  0  0  0  0
  192.4520  175.8660  147.6740 C   0  0  0  0  0  1  0  0  0  0  0  0
  191.8330  176.7150  143.0380 O   0  0  0  0  0  0  0  0  0  0  0  0
  190.4350  177.0240  147.0200 C   0  0  0  0  0  3  0  0  0  0  0  0
  189.1460  177.4150  144.9040 C   0  0  0  0  0  0  0  0  0  0  0  0
  192.0630  176.4580  145.3030 O   0  0  0  0  0  0  0  0  0  0  0  0
  189.4170  177.6900  146.1840 C   0  0  0  0  0  3  0  0  0  0  0  0
  189.8080  176.2650  144.2150 C   0  0  1  0  0  3  0  0  0  0  0  0
  189.2820  176.0550  142.9490 F   0  0  0  0  0  0  0  0  0  0  0  0
  191.5840  176.4580  146.6230 C   0  0  0  0  0  0  0  0  0  0  0  0
  184.9690  179.7550  144.2230 C   0  0  0  0  0  3  0  0  0  0  0  0
  184.5730  179.5450  145.5280 O   0  0  0  0  0  0  0  0  0  0  0  0
  183.6660  179.4410  144.5490 O   0  0  0  0  0  0  0  0  0  0  0  0
  183.4160  178.7430  141.7020 C   0  0  0  0  0  2  0  0  0  0  0  0
  182.5420  178.4430  140.5310 C   0  0  0  0  0  3  0  0  0  0  0  0
  181.4990  179.0550  140.3760 O   0  0  0  0  0  0  0  0  0  0  0  0
  1 14  1  0  0  0  0
  1  3  1  0  0  0  0
  2  4  1  0  0  0  0
  4 27  1  0  0  0  0
  4  1  1  0  0  0  0
  5 30  1  0  0  0  0
  5  2  2  0  0  0  0
  6 16  1  0  0  0  0
  7  2  1  0  0  0  0
  7 11  1  0  0  0  0
  8  9  1  0  0  0  0
  9 10  2  0  0  0  0
  9 13  1  0  0  0  0
 10  5  1  0  0  0  0
 11 12  1  0  0  0  0
 12  1  1  0  0  0  0
 12 21  1  1  0  0  0
 13  7  2  0  0  0  0
 14  3  1  0  0  0  0
 15  8  2  0  0  0  0
 15  6  1  0  0  0  0
 16 13  1  0  0  0  0
 17 24  1  0  0  0  0
 17 22  1  0  0  0  0
 19 17  2  0  0  0  0
 21 23  2  0  0  0  0
 22 26  1  0  0  0  0
 23 20  1  0  0  0  0
 24 25  1  6  0  0  0
 24 21  1  0  0  0  0
 26 20  2  0  0  0  0
 26 18  1  0  0  0  0
 27 29  1  0  0  0  0
 27 28  1  0  0  0  0
 29 28  1  0  0  0  0
 31 30  1  0  0  0  0
 32 31  2  0  0  0  0
M  END
>  <MODEL>
3

>  <REMARK>
 VINA RESULT:      -9.4      2.812      6.427
  Name = 
  4 active torsions:
  status: ('A' for Active; 'I' for Inactive)
    1  A    between atoms: N_5  and  C_14
    2  A    between atoms: C_6  and  C_29
    3  A    between atoms: C_13  and  C_29
    4  A    between atoms: C_16  and  C_27
                            x       y       z     vdW  Elec       q    Type
                         _______ _______ _______ _____ _____    ______ ____

>  <TORSDO>
F 4

$$$$
=
 OpenBabel10272413103D

 32 37  0  0  1  0  0  0  0  0999 V2000
  188.9880  177.4390  142.1370 C   0  0  0  0  0  0  0  0  0  0  0  0
  189.4000  177.2930  139.7170 C   0  0  0  0  0  0  0  0  0  0  0  0
  187.9680  177.2750  143.2480 C   0  0  0  0  0  2  0  0  0  0  0  0
  188.5160  177.7250  140.7790 N   0  0  0  0  0  0  0  0  0  0  0  0
  188.9220  177.0030  138.4160 C   0  0  0  0  0  0  0  0  0  0  0  0
  193.7970  175.6310  138.3120 C   0  0  0  0  0  2  0  0  0  0  0  0
  190.7880  177.1550  139.9880 C   0  0  0  0  0  0  0  0  0  0  0  0
  192.0810  176.1040  136.6390 N   0  0  0  0  0  0  0  0  0  0  0  0
  191.1780  176.5000  137.6790 C   0  0  0  0  0  0  0  0  0  0  0  0
  189.8150  176.6140  137.4130 C   0  0  0  0  0  3  0  0  0  0  0  0
  191.2940  177.3860  141.3130 N   0  0  0  0  0  2  0  0  0  0  0  0
  190.4430  177.8400  142.4100 C   0  0  2  0  0  3  0  0  0  0  0  0
  191.6660  176.7580  138.9700 C   0  0  0  0  0  0  0  0  0  0  0  0
  188.5810  176.0480  142.5840 C   0  0  0  0  0  2  0  0  0  0  0  0
  193.3040  175.7400  136.8950 C   0  0  0  0  0  3  0  0  0  0  0  0
  193.1530  176.6960  139.2010 C   0  0  0  0  0  2  0  0  0  0  0  0
  190.1830  177.8550  146.0160 C   0  0  0  0  0  0  0  0  0  0  0  0
  192.4730  175.2600  147.5060 C   0  0  0  0  0  1  0  0  0  0  0  0
  189.0730  178.3640  146.3250 O   0  0  0  0  0  0  0  0  0  0  0  0
  192.1440  175.7000  145.1530 C   0  0  0  0  0  3  0  0  0  0  0  0
  191.0010  177.4390  143.7530 C   0  0  0  0  0  0  0  0  0  0  0  0
  190.6670  176.7760  146.7580 O   0  0  0  0  0  0  0  0  0  0  0  0
  191.5860  176.2450  143.9000 C   0  0  0  0  0  3  0  0  0  0  0  0
  190.9710  178.4180  144.8820 C   0  0  1  0  0  3  0  0  0  0  0  0
  190.4590  179.6430  144.4830 F   0  0  0  0  0  0  0  0  0  0  0  0
  191.7550  175.9590  146.4090 C   0  0  0  0  0  0  0  0  0  0  0  0
  187.7010  178.9230  140.5440 C   0  0  0  0  0  3  0  0  0  0  0  0
  186.7080  179.0470  141.4940 O   0  0  0  0  0  0  0  0  0  0  0  0
  186.3950  178.5610  140.2870 O   0  0  0  0  0  0  0  0  0  0  0  0
  187.4690  177.0100  138.0800 C   0  0  0  0  0  2  0  0  0  0  0  0
  187.2130  177.9180  136.9240 C   0  0  0  0  0  3  0  0  0  0  0  0
  187.3870  179.1190  137.0420 O   0  0  0  0  0  0  0  0  0  0  0  0
  1 12  1  0  0  0  0
  1 14  1  0  0  0  0
  1  3  1  0  0  0  0
  2  7  1  0  0  0  0
  2  4  1  0  0  0  0
  4  1  1  0  0  0  0
  5  2  2  0  0  0  0
  6 16  1  0  0  0  0
  7 11  1  0  0  0  0
  8 15  2  0  0  0  0
  8  9  1  0  0  0  0
  9 13  1  0  0  0  0
 10  9  2  0  0  0  0
 10  5  1  0  0  0  0
 11 12  1  0  0  0  0
 12 21  1  1  0  0  0
 13 16  1  0  0  0  0
 13  7  2  0  0  0  0
 14  3  1  0  0  0  0
 15  6  1  0  0  0  0
 17 19  2  0  0  0  0
 17 22  1  0  0  0  0
 20 26  2  0  0  0  0
 21 23  2  0  0  0  0
 21 24  1  0  0  0  0
 23 20  1  0  0  0  0
 24 25  1  6  0  0  0
 24 17  1  0  0  0  0
 26 22  1  0  0  0  0
 26 18  1  0  0  0  0
 27  4  1  0  0  0  0
 27 28  1  0  0  0  0
 29 27  1  0  0  0  0
 29 28  1  0  0  0  0
 30  5  1  0  0  0  0
 31 32  2  0  0  0  0
 31 30  1  0  0  0  0
M  END
>  <MODEL>
4

>  <REMARK>
 VINA RESULT:      -9.3      2.758      7.709
  Name = 
  4 active torsions:
  status: ('A' for Active; 'I' for Inactive)
    1  A    between atoms: N_5  and  C_14
    2  A    between atoms: C_6  and  C_29
    3  A    between atoms: C_13  and  C_29
    4  A    between atoms: C_16  and  C_27
                            x       y       z     vdW  Elec       q    Type
                         _______ _______ _______ _____ _____    ______ ____

>  <TORSDO>
F 4

$$$$
=
 OpenBabel10272413103D

 32 37  0  0  1  0  0  0  0  0999 V2000
  190.4200  177.3320  142.3250 C   0  0  0  0  0  0  0  0  0  0  0  0
  188.2280  177.8140  141.3190 C   0  0  0  0  0  0  0  0  0  0  0  0
  191.9230  177.4960  142.1960 C   0  0  0  0  0  2  0  0  0  0  0  0
  189.5950  177.3840  141.1150 N   0  0  0  0  0  0  0  0  0  0  0  0
  187.4690  178.4120  140.2850 C   0  0  0  0  0  0  0  0  0  0  0  0
  184.5420  178.8060  144.4010 C   0  0  0  0  0  2  0  0  0  0  0  0
  187.6310  177.6290  142.5950 C   0  0  0  0  0  0  0  0  0  0  0  0
  184.1930  178.9740  141.9880 N   0  0  0  0  0  0  0  0  0  0  0  0
  185.5550  178.5860  141.7660 C   0  0  0  0  0  0  0  0  0  0  0  0
  186.1420  178.7880  140.5190 C   0  0  0  0  0  3  0  0  0  0  0  0
  188.3950  177.0780  143.6800 N   0  0  0  0  0  2  0  0  0  0  0  0
  189.7710  176.6140  143.5150 C   0  0  2  0  0  3  0  0  0  0  0  0
  186.3010  178.0180  142.8110 C   0  0  0  0  0  0  0  0  0  0  0  0
  191.0570  178.6770  142.6200 C   0  0  0  0  0  2  0  0  0  0  0  0
  183.6880  179.0420  143.1860 C   0  0  0  0  0  3  0  0  0  0  0  0
  185.6120  177.7480  144.1220 C   0  0  0  0  0  2  0  0  0  0  0  0
  189.7810  177.0830  147.1000 C   0  0  0  0  0  0  0  0  0  0  0  0
  192.9950  175.7870  148.5810 C   0  0  0  0  0  1  0  0  0  0  0  0
  188.5860  177.1820  147.4830 O   0  0  0  0  0  0  0  0  0  0  0  0
  192.3560  175.7080  146.2520 C   0  0  0  0  0  3  0  0  0  0  0  0
  190.5350  176.6600  144.8150 C   0  0  0  0  0  0  0  0  0  0  0  0
  190.6960  176.3890  147.8950 O   0  0  0  0  0  0  0  0  0  0  0  0
  191.5440  175.8080  145.0240 C   0  0  0  0  0  3  0  0  0  0  0  0
  190.2090  177.7180  145.8200 C   0  0  1  0  0  3  0  0  0  0  0  0
  189.2370  178.5880  145.3500 F   0  0  0  0  0  0  0  0  0  0  0  0
  191.9870  175.9920  147.5100 C   0  0  0  0  0  0  0  0  0  0  0  0
  189.8560  176.4270  140.0320 C   0  0  0  0  0  3  0  0  0  0  0  0
  191.2070  176.3190  139.7750 O   0  0  0  0  0  0  0  0  0  0  0  0
  190.4500  177.0720  138.9670 O   0  0  0  0  0  0  0  0  0  0  0  0
  188.0550  178.7470  138.9550 C   0  0  0  0  0  2  0  0  0  0  0  0
  187.2490  178.1240  137.8660 C   0  0  0  0  0  3  0  0  0  0  0  0
  187.3040  176.9210  137.6780 O   0  0  0  0  0  0  0  0  0  0  0  0
  1 14  1  0  0  0  0
  1 12  1  0  0  0  0
  2  7  1  0  0  0  0
  3  1  1  0  0  0  0
  3 14  1  0  0  0  0
  4  2  1  0  0  0  0
  4  1  1  0  0  0  0
  5 10  1  0  0  0  0
  5  2  2  0  0  0  0
  7 13  2  0  0  0  0
  7 11  1  0  0  0  0
  8 15  2  0  0  0  0
  9  8  1  0  0  0  0
  9 13  1  0  0  0  0
 10  9  2  0  0  0  0
 12 11  1  0  0  0  0
 12 21  1  1  0  0  0
 13 16  1  0  0  0  0
 15  6  1  0  0  0  0
 16  6  1  0  0  0  0
 17 19  2  0  0  0  0
 17 22  1  0  0  0  0
 20 26  2  0  0  0  0
 21 23  2  0  0  0  0
 21 24  1  0  0  0  0
 23 20  1  0  0  0  0
 24 25  1  6  0  0  0
 24 17  1  0  0  0  0
 26 22  1  0  0  0  0
 26 18  1  0  0  0  0
 27  4  1  0  0  0  0
 28 27  1  0  0  0  0
 29 28  1  0  0  0  0
 29 27  1  0  0  0  0
 30  5  1  0  0  0  0
 31 30  1  0  0  0  0
 32 31  2  0  0  0  0
M  END
>  <MODEL>
5

>  <REMARK>
 VINA RESULT:      -9.2      2.363      6.274
  Name = 
  4 active torsions:
  status: ('A' for Active; 'I' for Inactive)
    1  A    between atoms: N_5  and  C_14
    2  A    between atoms: C_6  and  C_29
    3  A    between atoms: C_13  and  C_29
    4  A    between atoms: C_16  and  C_27
                            x       y       z     vdW  Elec       q    Type
                         _______ _______ _______ _____ _____    ______ ____

>  <TORSDO>
F 4

$$$$
=
 OpenBabel10272413103D

 32 37  0  0  1  0  0  0  0  0999 V2000
  185.1280  178.7730  144.1520 C   0  0  0  0  0  0  0  0  0  0  0  0
  187.3050  178.0400  145.0290 C   0  0  0  0  0  0  0  0  0  0  0  0
  183.9350  179.6880  144.3590 C   0  0  0  0  0  2  0  0  0  0  0  0
  185.9260  178.3750  145.3150 N   0  0  0  0  0  0  0  0  0  0  0  0
  188.3200  178.1470  146.0100 C   0  0  0  0  0  0  0  0  0  0  0  0
  190.7970  177.0270  141.7360 C   0  0  0  0  0  2  0  0  0  0  0  0
  187.6490  177.5900  143.7260 C   0  0  0  0  0  0  0  0  0  0  0  0
  191.3150  176.9580  144.1220 N   0  0  0  0  0  0  0  0  0  0  0  0
  189.9630  177.3270  144.4250 C   0  0  0  0  0  0  0  0  0  0  0  0
  189.6350  177.7860  145.6980 C   0  0  0  0  0  3  0  0  0  0  0  0
  186.6520  177.5270  142.6930 N   0  0  0  0  0  2  0  0  0  0  0  0
  185.2460  177.8390  142.9410 C   0  0  2  0  0  3  0  0  0  0  0  0
  188.9750  177.2400  143.4320 C   0  0  0  0  0  0  0  0  0  0  0  0
  185.2610  180.2580  143.8680 C   0  0  0  0  0  2  0  0  0  0  0  0
  191.7160  176.7720  142.8990 C   0  0  0  0  0  3  0  0  0  0  0  0
  189.3520  176.6700  142.0910 C   0  0  0  0  0  2  0  0  0  0  0  0
  185.3830  178.6150  139.4130 C   0  0  0  0  0  0  0  0  0  0  0  0
  181.9070  178.7610  137.9670 C   0  0  0  0  0  1  0  0  0  0  0  0
  186.5260  178.2960  138.9880 O   0  0  0  0  0  0  0  0  0  0  0  0
  182.4870  178.2280  140.2510 C   0  0  0  0  0  3  0  0  0  0  0  0
  184.5450  178.2900  141.6840 C   0  0  0  0  0  0  0  0  0  0  0  0
  184.2690  178.3920  138.6020 O   0  0  0  0  0  0  0  0  0  0  0  0
  183.2870  177.9000  141.4470 C   0  0  0  0  0  3  0  0  0  0  0  0
  185.2360  179.2390  140.7590 C   0  0  1  0  0  3  0  0  0  0  0  0
  186.4680  179.6350  141.2590 F   0  0  0  0  0  0  0  0  0  0  0  0
  182.9270  178.4720  139.0070 C   0  0  0  0  0  0  0  0  0  0  0  0
  185.2690  177.6770  146.4260 C   0  0  0  0  0  3  0  0  0  0  0  0
  184.0730  178.2790  146.7590 O   0  0  0  0  0  0  0  0  0  0  0  0
  185.1530  178.5210  147.5100 O   0  0  0  0  0  0  0  0  0  0  0  0
  188.0660  178.7190  147.3640 C   0  0  0  0  0  2  0  0  0  0  0  0
  188.4930  177.7540  148.4190 C   0  0  0  0  0  3  0  0  0  0  0  0
  188.0340  176.6250  148.4340 O   0  0  0  0  0  0  0  0  0  0  0  0
  1  3  1  0  0  0  0
  1  4  1  0  0  0  0
  2  4  1  0  0  0  0
  2  5  1  0  0  0  0
  4 27  1  0  0  0  0
  5 30  1  0  0  0  0
  6 16  1  0  0  0  0
  6 15  1  0  0  0  0
  7  2  2  0  0  0  0
  8  9  1  0  0  0  0
  9 10  1  0  0  0  0
 10  5  2  0  0  0  0
 11 12  1  0  0  0  0
 11  7  1  0  0  0  0
 12 21  1  6  0  0  0
 12  1  1  0  0  0  0
 13  7  1  0  0  0  0
 13  9  2  0  0  0  0
 14  1  1  0  0  0  0
 14  3  1  0  0  0  0
 15  8  2  0  0  0  0
 16 13  1  0  0  0  0
 17 24  1  0  0  0  0
 18 26  1  0  0  0  0
 19 17  2  0  0  0  0
 20 23  1  0  0  0  0
 22 26  1  0  0  0  0
 22 17  1  0  0  0  0
 23 21  2  0  0  0  0
 24 25  1  1  0  0  0
 24 21  1  0  0  0  0
 26 20  2  0  0  0  0
 27 28  1  0  0  0  0
 27 29  1  0  0  0  0
 28 29  1  0  0  0  0
 30 31  1  0  0  0  0
 31 32  2  0  0  0  0
M  END
>  <MODEL>
6

>  <REMARK>
 VINA RESULT:      -9.1      2.608      5.552
  Name = 
  4 active torsions:
  status: ('A' for Active; 'I' for Inactive)
    1  A    between atoms: N_5  and  C_14
    2  A    between atoms: C_6  and  C_29
    3  A    between atoms: C_13  and  C_29
    4  A    between atoms: C_16  and  C_27
                            x       y       z     vdW  Elec       q    Type
                         _______ _______ _______ _____ _____    ______ ____

>  <TORSDO>
F 4

$$$$
=
 OpenBabel10272413103D

 32 37  0  0  1  0  0  0  0  0999 V2000
  186.1040  177.9180  138.1170 C   0  0  0  0  0  0  0  0  0  0  0  0
  188.3910  177.5280  138.9340 C   0  0  0  0  0  0  0  0  0  0  0  0
  185.0940  177.6210  137.0240 C   0  0  0  0  0  2  0  0  0  0  0  0
  187.5330  177.8250  137.8050 N   0  0  0  0  0  0  0  0  0  0  0  0
  189.6500  176.9020  138.7730 C   0  0  0  0  0  0  0  0  0  0  0  0
  188.9750  177.1250  143.7880 C   0  0  0  0  0  2  0  0  0  0  0  0
  187.9560  177.8760  140.2400 C   0  0  0  0  0  0  0  0  0  0  0  0
  190.8770  176.7670  142.2970 N   0  0  0  0  0  0  0  0  0  0  0  0
  190.0350  177.0200  141.1650 C   0  0  0  0  0  0  0  0  0  0  0  0
  190.4580  176.6590  139.8880 C   0  0  0  0  0  3  0  0  0  0  0  0
  186.6580  178.4600  140.4410 N   0  0  0  0  0  2  0  0  0  0  0  0
  185.7670  178.7920  139.3320 C   0  0  2  0  0  3  0  0  0  0  0  0
  188.7780  177.6180  141.3460 C   0  0  0  0  0  0  0  0  0  0  0  0
  185.4340  176.5580  138.0630 C   0  0  0  0  0  2  0  0  0  0  0  0
  190.4280  176.8490  143.5160 C   0  0  0  0  0  3  0  0  0  0  0  0
  188.3870  178.0610  142.7310 C   0  0  0  0  0  2  0  0  0  0  0  0
  182.2780  179.2370  138.4950 C   0  0  0  0  0  0  0  0  0  0  0  0
  180.0870  177.8200  141.2140 C   0  0  0  0  0  1  0  0  0  0  0  0
  182.1920  179.3760  137.2460 O   0  0  0  0  0  0  0  0  0  0  0  0
  182.5020  177.7780  141.1520 C   0  0  0  0  0  3  0  0  0  0  0  0
  184.3210  178.8030  139.7610 C   0  0  0  0  0  0  0  0  0  0  0  0
  181.2970  178.5060  139.1680 O   0  0  0  0  0  0  0  0  0  0  0  0
  183.8880  177.9140  140.6620 C   0  0  0  0  0  3  0  0  0  0  0  0
  183.4090  179.8650  139.2380 C   0  0  1  0  0  3  0  0  0  0  0  0
  184.0850  180.7720  138.4360 F   0  0  0  0  0  0  0  0  0  0  0  0
  181.3670  178.0670  140.5000 C   0  0  0  0  0  0  0  0  0  0  0  0
  188.0850  178.6540  136.7270 C   0  0  0  0  0  3  0  0  0  0  0  0
  188.6950  179.7850  137.2290 O   0  0  0  0  0  0  0  0  0  0  0  0
  187.4630  179.8850  136.7150 O   0  0  0  0  0  0  0  0  0  0  0  0
  190.1300  176.4000  137.4520 C   0  0  0  0  0  2  0  0  0  0  0  0
  189.7050  174.9850  137.2540 C   0  0  0  0  0  3  0  0  0  0  0  0
  190.4060  174.0740  137.6600 O   0  0  0  0  0  0  0  0  0  0  0  0
  1 12  1  0  0  0  0
  2  7  1  0  0  0  0
  3 14  1  0  0  0  0
  3  1  1  0  0  0  0
  4  1  1  0  0  0  0
  4  2  1  0  0  0  0
  5  2  2  0  0  0  0
  5 10  1  0  0  0  0
  7 11  1  0  0  0  0
  7 13  2  0  0  0  0
  8 15  2  0  0  0  0
  9 13  1  0  0  0  0
  9  8  1  0  0  0  0
 10  9  2  0  0  0  0
 12 21  1  1  0  0  0
 12 11  1  0  0  0  0
 13 16  1  0  0  0  0
 14  1  1  0  0  0  0
 15  6  1  0  0  0  0
 16  6  1  0  0  0  0
 17 22  1  0  0  0  0
 17 24  1  0  0  0  0
 19 17  2  0  0  0  0
 21 23  2  0  0  0  0
 22 26  1  0  0  0  0
 23 20  1  0  0  0  0
 24 25  1  6  0  0  0
 24 21  1  0  0  0  0
 26 20  2  0  0  0  0
 26 18  1  0  0  0  0
 27 28  1  0  0  0  0
 27  4  1  0  0  0  0
 29 27  1  0  0  0  0
 29 28  1  0  0  0  0
 30  5  1  0  0  0  0
 31 30  1  0  0  0  0
 31 32  2  0  0  0  0
M  END
>  <MODEL>
7

>  <REMARK>
 VINA RESULT:      -8.6      3.642      7.450
  Name = 
  4 active torsions:
  status: ('A' for Active; 'I' for Inactive)
    1  A    between atoms: N_5  and  C_14
    2  A    between atoms: C_6  and  C_29
    3  A    between atoms: C_13  and  C_29
    4  A    between atoms: C_16  and  C_27
                            x       y       z     vdW  Elec       q    Type
                         _______ _______ _______ _____ _____    ______ ____

>  <TORSDO>
F 4

$$$$
=
 OpenBabel10272413103D

 32 37  0  0  1  0  0  0  0  0999 V2000
  185.6210  178.5670  144.1200 C   0  0  0  0  0  0  0  0  0  0  0  0
  187.9660  177.8700  143.8690 C   0  0  0  0  0  0  0  0  0  0  0  0
  184.6210  179.3230  144.9740 C   0  0  0  0  0  2  0  0  0  0  0  0
  186.8290  178.0290  144.7510 N   0  0  0  0  0  0  0  0  0  0  0  0
  189.2960  177.8790  144.3540 C   0  0  0  0  0  0  0  0  0  0  0  0
  189.7820  177.7840  139.3130 C   0  0  0  0  0  2  0  0  0  0  0  0
  187.7400  177.7010  142.4770 C   0  0  0  0  0  0  0  0  0  0  0  0
  191.2410  177.3180  141.2160 N   0  0  0  0  0  0  0  0  0  0  0  0
  190.1360  177.5090  142.1080 C   0  0  0  0  0  0  0  0  0  0  0  0
  190.3640  177.6950  143.4700 C   0  0  0  0  0  3  0  0  0  0  0  0
  186.4050  177.7460  141.9480 N   0  0  0  0  0  2  0  0  0  0  0  0
  185.2270  177.8870  142.8020 C   0  0  2  0  0  3  0  0  0  0  0  0
  188.8250  177.5240  141.6060 C   0  0  0  0  0  0  0  0  0  0  0  0
  185.6250  180.0840  144.1150 C   0  0  0  0  0  2  0  0  0  0  0  0
  191.1000  177.3970  139.9250 C   0  0  0  0  0  3  0  0  0  0  0  0
  188.6140  177.2470  140.1420 C   0  0  0  0  0  2  0  0  0  0  0  0
  183.6040  178.6540  139.6650 C   0  0  0  0  0  0  0  0  0  0  0  0
  180.0070  179.6130  140.2500 C   0  0  0  0  0  1  0  0  0  0  0  0
  184.2490  178.0880  138.7430 O   0  0  0  0  0  0  0  0  0  0  0  0
  181.6010  178.9330  141.9340 C   0  0  0  0  0  3  0  0  0  0  0  0
  184.0690  178.5020  142.0580 C   0  0  0  0  0  0  0  0  0  0  0  0
  182.2100  178.7030  139.5900 O   0  0  0  0  0  0  0  0  0  0  0  0
  182.8320  178.4150  142.5610 C   0  0  0  0  0  3  0  0  0  0  0  0
  184.3300  179.2790  140.8080 C   0  0  1  0  0  3  0  0  0  0  0  0
  185.6870  179.3750  140.5390 F   0  0  0  0  0  0  0  0  0  0  0  0
  181.3430  179.0840  140.6270 C   0  0  0  0  0  0  0  0  0  0  0  0
  186.6910  177.0840  145.8660 C   0  0  0  0  0  3  0  0  0  0  0  0
  185.7440  177.5130  146.7720 O   0  0  0  0  0  0  0  0  0  0  0  0
  187.0400  177.6970  147.0500 O   0  0  0  0  0  0  0  0  0  0  0  0
  189.6250  178.1660  145.7800 C   0  0  0  0  0  2  0  0  0  0  0  0
  190.4260  177.0490  146.3590 C   0  0  0  0  0  3  0  0  0  0  0  0
  191.6240  177.1870  146.5400 O   0  0  0  0  0  0  0  0  0  0  0  0
  1  4  1  0  0  0  0
  1  3  1  0  0  0  0
  2  5  1  0  0  0  0
  2  4  1  0  0  0  0
  4 27  1  0  0  0  0
  5 30  1  0  0  0  0
  6 15  1  0  0  0  0
  6 16  1  0  0  0  0
  7  2  2  0  0  0  0
  8  9  1  0  0  0  0
  9 10  1  0  0  0  0
 10  5  2  0  0  0  0
 11  7  1  0  0  0  0
 11 12  1  0  0  0  0
 12 21  1  6  0  0  0
 12  1  1  0  0  0  0
 13  9  2  0  0  0  0
 13  7  1  0  0  0  0
 14  1  1  0  0  0  0
 14  3  1  0  0  0  0
 15  8  2  0  0  0  0
 16 13  1  0  0  0  0
 17 24  1  0  0  0  0
 18 26  1  0  0  0  0
 19 17  2  0  0  0  0
 20 23  1  0  0  0  0
 21 23  2  0  0  0  0
 22 17  1  0  0  0  0
 22 26  1  0  0  0  0
 24 25  1  6  0  0  0
 24 21  1  0  0  0  0
 26 20  2  0  0  0  0
 27 28  1  0  0  0  0
 27 29  1  0  0  0  0
 28 29  1  0  0  0  0
 30 31  1  0  0  0  0
 31 32  2  0  0  0  0
M  END
>  <MODEL>
8

>  <REMARK>
 VINA RESULT:      -8.2      2.371      6.054
  Name = 
  4 active torsions:
  status: ('A' for Active; 'I' for Inactive)
    1  A    between atoms: N_5  and  C_14
    2  A    between atoms: C_6  and  C_29
    3  A    between atoms: C_13  and  C_29
    4  A    between atoms: C_16  and  C_27
                            x       y       z     vdW  Elec       q    Type
                         _______ _______ _______ _____ _____    ______ ____

>  <TORSDO>
F 4

$$$$
=
 OpenBabel10272413103D

 32 37  0  0  1  0  0  0  0  0999 V2000
  189.2470  177.5450  140.4200 C   0  0  0  0  0  0  0  0  0  0  0  0
  188.4600  177.8260  142.7330 C   0  0  0  0  0  0  0  0  0  0  0  0
  190.2020  176.8070  139.5010 C   0  0  0  0  0  2  0  0  0  0  0  0
  189.5890  177.6770  141.8390 N   0  0  0  0  0  0  0  0  0  0  0  0
  188.5290  177.4510  144.0960 C   0  0  0  0  0  0  0  0  0  0  0  0
  183.6670  178.6640  143.3600 C   0  0  0  0  0  2  0  0  0  0  0  0
  187.2470  178.3650  142.2280 C   0  0  0  0  0  0  0  0  0  0  0  0
  185.1180  178.3740  145.3040 N   0  0  0  0  0  0  0  0  0  0  0  0
  186.2420  178.1850  144.4340 C   0  0  0  0  0  0  0  0  0  0  0  0
  187.4230  177.6370  144.9310 C   0  0  0  0  0  3  0  0  0  0  0  0
  187.1270  178.7010  140.8350 N   0  0  0  0  0  2  0  0  0  0  0  0
  188.2450  178.5840  139.9010 C   0  0  2  0  0  3  0  0  0  0  0  0
  186.1470  178.5390  143.0790 C   0  0  0  0  0  0  0  0  0  0  0  0
  188.9680  176.1000  140.0480 C   0  0  0  0  0  2  0  0  0  0  0  0
  183.9310  178.6370  144.8400 C   0  0  0  0  0  3  0  0  0  0  0  0
  184.8810  179.1960  142.5960 C   0  0  0  0  0  2  0  0  0  0  0  0
  188.9830  177.7810  136.4550 C   0  0  0  0  0  0  0  0  0  0  0  0
  185.8060  177.0210  134.5760 C   0  0  0  0  0  1  0  0  0  0  0  0
  190.1830  177.4010  136.3910 O   0  0  0  0  0  0  0  0  0  0  0  0
  185.9880  177.5660  136.9230 C   0  0  0  0  0  3  0  0  0  0  0  0
  187.7690  178.3960  138.4820 C   0  0  0  0  0  0  0  0  0  0  0  0
  188.0250  177.1450  135.6620 O   0  0  0  0  0  0  0  0  0  0  0  0
  186.5720  177.8450  138.2490 C   0  0  0  0  0  3  0  0  0  0  0  0
  188.6050  178.9080  137.3540 C   0  0  1  0  0  3  0  0  0  0  0  0
  189.7310  179.5740  137.8130 F   0  0  0  0  0  0  0  0  0  0  0  0
  186.6330  177.2860  135.7820 C   0  0  0  0  0  0  0  0  0  0  0  0
  190.8470  178.3340  142.2120 C   0  0  0  0  0  3  0  0  0  0  0  0
  191.9010  177.8640  141.4560 O   0  0  0  0  0  0  0  0  0  0  0  0
  191.7380  177.4030  142.7020 O   0  0  0  0  0  0  0  0  0  0  0  0
  189.7230  176.7710  144.6780 C   0  0  0  0  0  2  0  0  0  0  0  0
  189.9580  177.2480  146.0720 C   0  0  0  0  0  3  0  0  0  0  0  0
  189.6590  176.5390  147.0170 O   0  0  0  0  0  0  0  0  0  0  0  0
  1  4  1  0  0  0  0
  2  5  1  0  0  0  0
  3 14  1  0  0  0  0
  3  1  1  0  0  0  0
  4 27  1  0  0  0  0
  4  2  1  0  0  0  0
  5 30  1  0  0  0  0
  5 10  2  0  0  0  0
  6 15  1  0  0  0  0
  7  2  2  0  0  0  0
  7 13  1  0  0  0  0
  9 10  1  0  0  0  0
  9  8  1  0  0  0  0
 11  7  1  0  0  0  0
 12 21  1  6  0  0  0
 12  1  1  0  0  0  0
 12 11  1  0  0  0  0
 13  9  2  0  0  0  0
 14  1  1  0  0  0  0
 15  8  2  0  0  0  0
 16 13  1  0  0  0  0
 16  6  1  0  0  0  0
 17 24  1  0  0  0  0
 18 26  1  0  0  0  0
 19 17  2  0  0  0  0
 20 23  1  0  0  0  0
 22 26  1  0  0  0  0
 22 17  1  0  0  0  0
 23 21  2  0  0  0  0
 24 25  1  1  0  0  0
 24 21  1  0  0  0  0
 26 20  2  0  0  0  0
 27 29  1  0  0  0  0
 28 27  1  0  0  0  0
 28 29  1  0  0  0  0
 30 31  1  0  0  0  0
 31 32  2  0  0  0  0
M  END
>  <MODEL>
9

>  <REMARK>
 VINA RESULT:      -8.1      1.978      2.810
  Name = 
  4 active torsions:
  status: ('A' for Active; 'I' for Inactive)
    1  A    between atoms: N_5  and  C_14
    2  A    between atoms: C_6  and  C_29
    3  A    between atoms: C_13  and  C_29
    4  A    between atoms: C_16  and  C_27
                            x       y       z     vdW  Elec       q    Type
                         _______ _______ _______ _____ _____    ______ ____

>  <TORSDO>
F 4

$$$$
