=
 OpenBabel10272414433D

 43 47  0  0  1  0  0  0  0  0999 V2000
  184.9980  177.9690  138.0150 C   0  0  1  0  0  3  0  0  0  0  0  0
  183.4260  178.7810  142.8580 C   0  0  0  0  0  0  0  0  0  0  0  0
  182.8330  178.8090  140.5400 C   0  0  0  0  0  0  0  0  0  0  0  0
  184.7780  178.9680  142.4980 C   0  0  0  0  0  3  0  0  0  0  0  0
  182.9850  178.6520  144.5450 Cl  0  0  0  0  0  0  0  0  0  0  0  0
  184.1410  178.9690  140.1880 C   0  0  0  0  0  0  0  0  0  0  0  0
  182.4290  178.7060  141.8690 C   0  0  0  0  0  3  0  0  0  0  0  0
  185.1490  179.0710  141.1460 C   0  0  0  0  0  3  0  0  0  0  0  0
  184.1770  179.0720  138.7010 C   0  0  2  0  0  3  0  0  0  0  0  0
  182.7550  178.9280  138.3590 N   0  0  0  0  0  0  0  0  0  0  0  0
  182.0150  178.7820  139.3880 N   0  0  0  0  0  0  0  0  0  0  0  0
  183.8230  175.7400  138.1760 N   0  0  0  0  0  2  0  0  0  0  0  0
  184.2190  176.8550  137.3730 C   0  0  0  0  0  0  0  0  0  0  0  0
  183.9360  176.9040  136.1450 O   0  0  0  0  0  0  0  0  0  0  0  0
  183.4110  172.2200  136.9420 C   0  0  0  0  0  0  0  0  0  0  0  0
  182.0190  172.1490  136.8310 C   0  0  0  0  0  0  0  0  0  0  0  0
  181.4260  171.0120  136.3920 F   0  0  0  0  0  0  0  0  0  0  0  0
  181.8430  174.4370  137.6030 C   0  0  0  0  0  3  0  0  0  0  0  0
  184.0170  173.4000  137.3810 C   0  0  0  0  0  3  0  0  0  0  0  0
  183.2360  174.5190  137.7100 C   0  0  0  0  0  0  0  0  0  0  0  0
  184.1770  171.1470  136.6260 F   0  0  0  0  0  0  0  0  0  0  0  0
  181.2350  173.2580  137.1620 C   0  0  0  0  0  3  0  0  0  0  0  0
  186.1980  178.3760  137.3790 O   0  0  0  0  0  0  0  0  0  0  0  0
  187.2580  177.5260  137.7510 C   0  0  1  0  0  3  0  0  0  0  0  0
  187.4530  176.4510  136.6950 C   0  0  0  0  0  1  0  0  0  0  0  0
  188.5590  178.3140  137.9110 C   0  0  2  0  0  3  0  0  0  0  0  0
  189.7620  177.4760  137.5150 C   0  0  0  0  0  1  0  0  0  0  0  0
  188.7110  178.7910  139.2620 N   0  0  0  0  0  0  0  0  0  0  0  0
  188.4370  178.0490  140.2230 N   0  0  0  0  0  0  0  0  0  0  0  0
  188.5980  178.5220  141.5720 C   0  0  0  0  0  2  0  0  0  0  0  0
  189.5940  177.6840  142.3110 C   0  0  0  0  0  0  0  0  0  0  0  0
  190.1990  176.1230  144.0710 C   0  0  0  0  0  3  0  0  0  0  0  0
  190.9380  177.7620  141.9340 C   0  0  0  0  0  3  0  0  0  0  0  0
  191.9080  177.0270  142.6210 C   0  0  0  0  0  3  0  0  0  0  0  0
  189.2160  176.8440  143.3770 C   0  0  0  0  0  0  0  0  0  0  0  0
  191.5390  176.2120  143.6920 C   0  0  0  0  0  3  0  0  0  0  0  0
  187.7790  176.7330  143.8020 C   0  0  0  0  0  2  0  0  0  0  0  0
  187.5570  177.2980  145.1690 C   0  0  0  0  0  0  0  0  0  0  0  0
  187.1150  178.3730  147.7160 C   0  0  0  0  0  3  0  0  0  0  0  0
  188.3730  177.8670  147.3800 C   0  0  0  0  0  3  0  0  0  0  0  0
  186.0770  178.3410  146.7800 C   0  0  0  0  0  3  0  0  0  0  0  0
  188.5940  177.3270  146.1100 C   0  0  0  0  0  3  0  0  0  0  0  0
  186.2980  177.8050  145.5090 C   0  0  0  0  0  3  0  0  0  0  0  0
  1 13  1  6  0  0  0
  2  5  1  0  0  0  0
  3  7  1  0  0  0  0
  4  2  1  0  0  0  0
  6  3  2  0  0  0  0
  6  8  1  0  0  0  0
  7  2  2  0  0  0  0
  8  4  2  0  0  0  0
  9  1  1  6  0  0  0
  9  6  1  0  0  0  0
 10  9  1  0  0  0  0
 10 11  2  0  0  0  0
 11  3  1  0  0  0  0
 13 12  1  0  0  0  0
 14 13  2  0  0  0  0
 15 19  1  0  0  0  0
 16 15  2  0  0  0  0
 16 22  1  0  0  0  0
 17 16  1  0  0  0  0
 18 20  1  0  0  0  0
 19 20  2  0  0  0  0
 20 12  1  0  0  0  0
 21 15  1  0  0  0  0
 22 18  2  0  0  0  0
 23 24  1  0  0  0  0
 23  1  1  0  0  0  0
 24 25  1  6  0  0  0
 24 26  1  0  0  0  0
 26 27  1  1  0  0  0
 26 28  1  0  0  0  0
 28 29  2  0  0  0  0
 29 30  1  0  0  0  0
 30 31  1  0  0  0  0
 31 35  1  0  0  0  0
 33 31  2  0  0  0  0
 33 34  1  0  0  0  0
 34 36  2  0  0  0  0
 35 37  1  0  0  0  0
 35 32  2  0  0  0  0
 36 32  1  0  0  0  0
 37 38  1  0  0  0  0
 38 43  2  0  0  0  0
 38 42  1  0  0  0  0
 40 39  1  0  0  0  0
 41 39  2  0  0  0  0
 42 40  2  0  0  0  0
 43 41  1  0  0  0  0
M  END
>  <MODEL>
1

>  <REMARK>
 VINA RESULT:      -9.4      0.000      0.000
  Name = 
  11 active torsions:
  status: ('A' for Active; 'I' for Inactive)
    1  A    between atoms: N_1  and  C_35
    2  A    between atoms: C_2  and  N_6
    3  A    between atoms: C_2  and  C_13
    4  A    between atoms: C_3  and  C_4
    5  A    between atoms: C_3  and  N_12
    6  A    between atoms: C_8  and  O_27
    7  A    between atoms: C_8  and  C_30
    8  A    between atoms: C_8  and  C_34
    9  A    between atoms: C_11  and  C_14
   10  A    between atoms: C_13  and  O_27
   11  A    between atoms: C_14  and  C_41
                            x       y       z     vdW  Elec       q    Type
                         _______ _______ _______ _____ _____    ______ ____

>  <TORSDO>
F 11

$$$$
=
 OpenBabel10272414433D

 43 47  0  0  1  0  0  0  0  0999 V2000
  187.2390  178.1080  141.5460 C   0  0  1  0  0  3  0  0  0  0  0  0
  187.1550  176.5890  136.6200 C   0  0  0  0  0  0  0  0  0  0  0  0
  188.4930  176.9530  138.5700 C   0  0  0  0  0  0  0  0  0  0  0  0
  186.2300  177.5430  137.0960 C   0  0  0  0  0  3  0  0  0  0  0  0
  186.8650  175.7830  135.0960 Cl  0  0  0  0  0  0  0  0  0  0  0  0
  187.5910  177.8610  139.0430 C   0  0  0  0  0  0  0  0  0  0  0  0
  188.3120  176.2870  137.3600 C   0  0  0  0  0  3  0  0  0  0  0  0
  186.4470  178.1990  138.3210 C   0  0  0  0  0  3  0  0  0  0  0  0
  188.1370  178.3790  140.3300 C   0  0  2  0  0  3  0  0  0  0  0  0
  189.3890  177.6200  140.4480 N   0  0  0  0  0  0  0  0  0  0  0  0
  189.5790  176.8290  139.4660 N   0  0  0  0  0  0  0  0  0  0  0  0
  188.6080  178.2500  143.6630 N   0  0  0  0  0  2  0  0  0  0  0  0
  187.8910  177.4420  142.7250 C   0  0  0  0  0  0  0  0  0  0  0  0
  187.8150  176.1920  142.8710 O   0  0  0  0  0  0  0  0  0  0  0  0
  189.7980  177.2700  147.0850 C   0  0  0  0  0  0  0  0  0  0  0  0
  191.0920  176.8290  146.7880 C   0  0  0  0  0  0  0  0  0  0  0  0
  191.9040  176.3820  147.7780 F   0  0  0  0  0  0  0  0  0  0  0  0
  190.7260  177.3330  144.4490 C   0  0  0  0  0  3  0  0  0  0  0  0
  188.9720  177.7440  146.0620 C   0  0  0  0  0  3  0  0  0  0  0  0
  189.4320  177.7830  144.7380 C   0  0  0  0  0  0  0  0  0  0  0  0
  189.3410  177.2390  148.3600 F   0  0  0  0  0  0  0  0  0  0  0  0
  191.5550  176.8610  145.4710 C   0  0  0  0  0  3  0  0  0  0  0  0
  186.2320  179.0690  141.8160 O   0  0  0  0  0  0  0  0  0  0  0  0
  185.1000  178.4440  142.3750 C   0  0  1  0  0  3  0  0  0  0  0  0
  184.7290  179.1190  143.6830 C   0  0  0  0  0  1  0  0  0  0  0  0
  183.9090  178.5160  141.4170 C   0  0  2  0  0  3  0  0  0  0  0  0
  182.6210  178.8150  142.1630 C   0  0  0  0  0  1  0  0  0  0  0  0
  183.7740  177.2940  140.6670 N   0  0  0  0  0  0  0  0  0  0  0  0
  182.7690  177.1000  139.9590 N   0  0  0  0  0  0  0  0  0  0  0  0
  182.6400  175.8830  139.2020 C   0  0  0  0  0  2  0  0  0  0  0  0
  182.7060  176.1640  137.7340 C   0  0  0  0  0  0  0  0  0  0  0  0
  182.9850  175.4620  135.4250 C   0  0  0  0  0  3  0  0  0  0  0  0
  182.6180  177.4930  137.3070 C   0  0  0  0  0  3  0  0  0  0  0  0
  182.7140  177.8060  135.9480 C   0  0  0  0  0  3  0  0  0  0  0  0
  182.8720  175.1360  136.7850 C   0  0  0  0  0  0  0  0  0  0  0  0
  182.9020  176.7910  135.0080 C   0  0  0  0  0  3  0  0  0  0  0  0
  182.9630  173.6980  137.2110 C   0  0  0  0  0  2  0  0  0  0  0  0
  184.2870  173.0960  136.8610 C   0  0  0  0  0  0  0  0  0  0  0  0
  186.7800  171.9950  136.2200 C   0  0  0  0  0  3  0  0  0  0  0  0
  185.6470  171.6310  135.4890 C   0  0  0  0  0  3  0  0  0  0  0  0
  186.6680  172.9080  137.2730 C   0  0  0  0  0  3  0  0  0  0  0  0
  184.4010  172.1770  135.8100 C   0  0  0  0  0  3  0  0  0  0  0  0
  185.4240  173.4570  137.5920 C   0  0  0  0  0  3  0  0  0  0  0  0
  1 23  1  1  0  0  0
  1 13  1  0  0  0  0
  2  4  2  0  0  0  0
  2  7  1  0  0  0  0
  3  6  1  0  0  0  0
  3 11  1  0  0  0  0
  4  8  1  0  0  0  0
  5  2  1  0  0  0  0
  6  9  1  0  0  0  0
  7  3  2  0  0  0  0
  8  6  2  0  0  0  0
  9 10  1  0  0  0  0
  9  1  1  1  0  0  0
 11 10  2  0  0  0  0
 12 20  1  0  0  0  0
 13 14  2  0  0  0  0
 13 12  1  0  0  0  0
 15 21  1  0  0  0  0
 16 15  1  0  0  0  0
 16 17  1  0  0  0  0
 18 20  2  0  0  0  0
 18 22  1  0  0  0  0
 19 15  2  0  0  0  0
 20 19  1  0  0  0  0
 22 16  2  0  0  0  0
 23 24  1  0  0  0  0
 24 25  1  1  0  0  0
 26 27  1  1  0  0  0
 26 24  1  0  0  0  0
 28 26  1  0  0  0  0
 29 28  2  0  0  0  0
 30 29  1  0  0  0  0
 31 30  1  0  0  0  0
 32 35  1  0  0  0  0
 33 31  1  0  0  0  0
 34 33  2  0  0  0  0
 35 37  1  0  0  0  0
 35 31  2  0  0  0  0
 36 32  2  0  0  0  0
 36 34  1  0  0  0  0
 38 37  1  0  0  0  0
 38 43  1  0  0  0  0
 39 41  1  0  0  0  0
 40 42  1  0  0  0  0
 40 39  2  0  0  0  0
 41 43  2  0  0  0  0
 42 38  2  0  0  0  0
M  END
>  <MODEL>
2

>  <REMARK>
 VINA RESULT:      -9.0      4.125      9.513
  Name = 
  11 active torsions:
  status: ('A' for Active; 'I' for Inactive)
    1  A    between atoms: N_1  and  C_35
    2  A    between atoms: C_2  and  N_6
    3  A    between atoms: C_2  and  C_13
    4  A    between atoms: C_3  and  C_4
    5  A    between atoms: C_3  and  N_12
    6  A    between atoms: C_8  and  O_27
    7  A    between atoms: C_8  and  C_30
    8  A    between atoms: C_8  and  C_34
    9  A    between atoms: C_11  and  C_14
   10  A    between atoms: C_13  and  O_27
   11  A    between atoms: C_14  and  C_41
                            x       y       z     vdW  Elec       q    Type
                         _______ _______ _______ _____ _____    ______ ____

>  <TORSDO>
F 11

$$$$
=
 OpenBabel10272414433D

 43 47  0  0  1  0  0  0  0  0999 V2000
  186.3740  178.7790  142.3790 C   0  0  1  0  0  3  0  0  0  0  0  0
  187.6200  177.9850  147.3190 C   0  0  0  0  0  0  0  0  0  0  0  0
  187.8450  177.2260  145.0600 C   0  0  0  0  0  0  0  0  0  0  0  0
  186.3970  178.6000  146.9740 C   0  0  0  0  0  3  0  0  0  0  0  0
  188.2150  178.0940  148.9590 Cl  0  0  0  0  0  0  0  0  0  0  0  0
  186.6730  177.8360  144.7190 C   0  0  0  0  0  0  0  0  0  0  0  0
  188.3590  177.2790  146.3540 C   0  0  0  0  0  3  0  0  0  0  0  0
  185.9050  178.5230  145.6580 C   0  0  0  0  0  3  0  0  0  0  0  0
  186.4360  177.5350  143.2780 C   0  0  2  0  0  3  0  0  0  0  0  0
  187.6180  176.7300  142.9440 N   0  0  0  0  0  0  0  0  0  0  0  0
  188.3960  176.5630  143.9410 N   0  0  0  0  0  0  0  0  0  0  0  0
  186.6320  178.4400  139.8910 N   0  0  0  0  0  2  0  0  0  0  0  0
  187.2350  178.7600  141.1470 C   0  0  0  0  0  0  0  0  0  0  0  0
  188.4690  179.0070  141.2310 O   0  0  0  0  0  0  0  0  0  0  0  0
  189.3020  177.6210  137.3830 C   0  0  0  0  0  0  0  0  0  0  0  0
  188.5740  177.7230  136.1940 C   0  0  0  0  0  0  0  0  0  0  0  0
  189.1830  177.5080  135.0010 F   0  0  0  0  0  0  0  0  0  0  0  0
  186.5910  178.2960  137.4570 C   0  0  0  0  0  3  0  0  0  0  0  0
  188.6720  177.8580  138.6080 C   0  0  0  0  0  3  0  0  0  0  0  0
  187.3130  178.2020  138.6530 C   0  0  0  0  0  0  0  0  0  0  0  0
  190.6160  177.2900  137.3550 F   0  0  0  0  0  0  0  0  0  0  0  0
  187.2190  178.0610  136.2310 C   0  0  0  0  0  3  0  0  0  0  0  0
  185.1180  179.4310  142.2850 O   0  0  0  0  0  0  0  0  0  0  0  0
  184.0740  178.4870  142.3550 C   0  0  1  0  0  3  0  0  0  0  0  0
  183.1520  178.8210  143.5150 C   0  0  0  0  0  1  0  0  0  0  0  0
  183.2630  178.4730  141.0580 C   0  0  2  0  0  3  0  0  0  0  0  0
  181.8050  178.8080  141.3170 C   0  0  0  0  0  1  0  0  0  0  0  0
  183.3680  177.1970  140.3970 N   0  0  0  0  0  0  0  0  0  0  0  0
  183.1900  177.1110  139.1680 N   0  0  0  0  0  0  0  0  0  0  0  0
  183.3050  175.8380  138.5070 C   0  0  0  0  0  2  0  0  0  0  0  0
  183.6640  176.0220  137.0660 C   0  0  0  0  0  0  0  0  0  0  0  0
  184.9550  175.4550  135.0870 C   0  0  0  0  0  3  0  0  0  0  0  0
  183.0460  177.0540  136.3530 C   0  0  0  0  0  3  0  0  0  0  0  0
  183.3800  177.2870  135.0160 C   0  0  0  0  0  3  0  0  0  0  0  0
  184.6140  175.2020  136.4250 C   0  0  0  0  0  0  0  0  0  0  0  0
  184.3370  176.4910  134.3850 C   0  0  0  0  0  3  0  0  0  0  0  0
  185.2910  174.0810  137.1610 C   0  0  0  0  0  2  0  0  0  0  0  0
  184.8170  172.7410  136.6960 C   0  0  0  0  0  0  0  0  0  0  0  0
  183.9080  170.2320  135.8510 C   0  0  0  0  0  3  0  0  0  0  0  0
  185.1710  170.6840  135.4620 C   0  0  0  0  0  3  0  0  0  0  0  0
  183.0980  171.0330  136.6600 C   0  0  0  0  0  3  0  0  0  0  0  0
  185.6250  171.9380  135.8800 C   0  0  0  0  0  3  0  0  0  0  0  0
  183.5520  172.2850  137.0830 C   0  0  0  0  0  3  0  0  0  0  0  0
  1 13  1  6  0  0  0
  2  5  1  0  0  0  0
  3  7  1  0  0  0  0
  4  2  1  0  0  0  0
  6  3  2  0  0  0  0
  6  8  1  0  0  0  0
  7  2  2  0  0  0  0
  8  4  2  0  0  0  0
  9  1  1  6  0  0  0
  9  6  1  0  0  0  0
 10  9  1  0  0  0  0
 10 11  2  0  0  0  0
 11  3  1  0  0  0  0
 12 13  1  0  0  0  0
 13 14  2  0  0  0  0
 15 19  1  0  0  0  0
 16 22  1  0  0  0  0
 16 15  2  0  0  0  0
 17 16  1  0  0  0  0
 18 20  1  0  0  0  0
 19 20  2  0  0  0  0
 20 12  1  0  0  0  0
 21 15  1  0  0  0  0
 22 18  2  0  0  0  0
 23 24  1  0  0  0  0
 23  1  1  0  0  0  0
 24 25  1  1  0  0  0
 26 27  1  1  0  0  0
 26 24  1  0  0  0  0
 28 26  1  0  0  0  0
 29 28  2  0  0  0  0
 30 29  1  0  0  0  0
 31 30  1  0  0  0  0
 32 35  2  0  0  0  0
 33 31  2  0  0  0  0
 34 33  1  0  0  0  0
 35 31  1  0  0  0  0
 35 37  1  0  0  0  0
 36 34  2  0  0  0  0
 36 32  1  0  0  0  0
 38 43  1  0  0  0  0
 38 37  1  0  0  0  0
 39 41  1  0  0  0  0
 40 39  2  0  0  0  0
 40 42  1  0  0  0  0
 41 43  2  0  0  0  0
 42 38  2  0  0  0  0
M  END
>  <MODEL>
3

>  <REMARK>
 VINA RESULT:      -8.9      3.152      8.319
  Name = 
  11 active torsions:
  status: ('A' for Active; 'I' for Inactive)
    1  A    between atoms: N_1  and  C_35
    2  A    between atoms: C_2  and  N_6
    3  A    between atoms: C_2  and  C_13
    4  A    between atoms: C_3  and  C_4
    5  A    between atoms: C_3  and  N_12
    6  A    between atoms: C_8  and  O_27
    7  A    between atoms: C_8  and  C_30
    8  A    between atoms: C_8  and  C_34
    9  A    between atoms: C_11  and  C_14
   10  A    between atoms: C_13  and  O_27
   11  A    between atoms: C_14  and  C_41
                            x       y       z     vdW  Elec       q    Type
                         _______ _______ _______ _____ _____    ______ ____

>  <TORSDO>
F 11

$$$$
=
 OpenBabel10272414433D

 43 47  0  0  1  0  0  0  0  0999 V2000
  183.9970  176.8400  137.8470 C   0  0  1  0  0  3  0  0  0  0  0  0
  189.1170  176.2520  138.0020 C   0  0  0  0  0  0  0  0  0  0  0  0
  187.2610  177.6810  138.4870 C   0  0  0  0  0  0  0  0  0  0  0  0
  188.3490  175.6200  137.0000 C   0  0  0  0  0  3  0  0  0  0  0  0
  190.7580  175.7270  138.2980 Cl  0  0  0  0  0  0  0  0  0  0  0  0
  186.5090  177.0600  137.5330 C   0  0  0  0  0  0  0  0  0  0  0  0
  188.5740  177.3050  138.7580 C   0  0  0  0  0  3  0  0  0  0  0  0
  187.0260  176.0290  136.7500 C   0  0  0  0  0  3  0  0  0  0  0  0
  185.1870  177.7510  137.5090 C   0  0  2  0  0  3  0  0  0  0  0  0
  185.3630  178.7620  138.5600 N   0  0  0  0  0  0  0  0  0  0  0  0
  186.5180  178.7160  139.0980 N   0  0  0  0  0  0  0  0  0  0  0  0
  184.0540  174.3260  137.6220 N   0  0  0  0  0  2  0  0  0  0  0  0
  183.8430  175.6010  137.0090 C   0  0  0  0  0  0  0  0  0  0  0  0
  183.5470  175.6930  135.7880 O   0  0  0  0  0  0  0  0  0  0  0  0
  185.3440  171.3540  135.7280 C   0  0  0  0  0  0  0  0  0  0  0  0
  184.1960  170.5570  135.6910 C   0  0  0  0  0  0  0  0  0  0  0  0
  184.2210  169.3530  135.0680 F   0  0  0  0  0  0  0  0  0  0  0  0
  182.9810  172.2520  136.9200 C   0  0  0  0  0  3  0  0  0  0  0  0
  185.3080  172.6000  136.3590 C   0  0  0  0  0  3  0  0  0  0  0  0
  184.1240  173.0600  136.9560 C   0  0  0  0  0  0  0  0  0  0  0  0
  186.4950  170.9240  135.1550 F   0  0  0  0  0  0  0  0  0  0  0  0
  183.0150  171.0060  136.2870 C   0  0  0  0  0  3  0  0  0  0  0  0
  183.6370  176.7500  139.2150 O   0  0  0  0  0  0  0  0  0  0  0  0
  182.2720  177.0560  139.3800 C   0  0  1  0  0  3  0  0  0  0  0  0
  181.4770  175.7790  139.5910 C   0  0  0  0  0  1  0  0  0  0  0  0
  182.0610  177.9820  140.5800 C   0  0  2  0  0  3  0  0  0  0  0  0
  181.0030  179.0300  140.2870 C   0  0  0  0  0  1  0  0  0  0  0  0
  183.2960  178.6190  140.9630 N   0  0  0  0  0  0  0  0  0  0  0  0
  183.8420  178.3300  142.0440 N   0  0  0  0  0  0  0  0  0  0  0  0
  185.0790  178.9600  142.4210 C   0  0  0  0  0  2  0  0  0  0  0  0
  185.4600  178.5810  143.8180 C   0  0  0  0  0  0  0  0  0  0  0  0
  186.8650  177.4090  145.4160 C   0  0  0  0  0  3  0  0  0  0  0  0
  184.6520  179.0230  144.8700 C   0  0  0  0  0  3  0  0  0  0  0  0
  184.9470  178.6610  146.1870 C   0  0  0  0  0  3  0  0  0  0  0  0
  186.5880  177.7820  144.0920 C   0  0  0  0  0  0  0  0  0  0  0  0
  186.0500  177.8500  146.4590 C   0  0  0  0  0  3  0  0  0  0  0  0
  187.4790  177.2960  142.9850 C   0  0  0  0  0  2  0  0  0  0  0  0
  188.8970  177.1500  143.4340 C   0  0  0  0  0  0  0  0  0  0  0  0
  191.5510  176.8430  144.2720 C   0  0  0  0  0  3  0  0  0  0  0  0
  190.8370  177.9920  144.6200 C   0  0  0  0  0  3  0  0  0  0  0  0
  190.9410  175.8480  143.5040 C   0  0  0  0  0  3  0  0  0  0  0  0
  189.5130  178.1480  144.2000 C   0  0  0  0  0  3  0  0  0  0  0  0
  189.6160  176.0010  143.0860 C   0  0  0  0  0  3  0  0  0  0  0  0
  1 13  1  1  0  0  0
  1 23  1  0  0  0  0
  2  5  1  0  0  0  0
  2  7  1  0  0  0  0
  3  7  2  0  0  0  0
  3 11  1  0  0  0  0
  4  2  2  0  0  0  0
  6  3  1  0  0  0  0
  8  4  1  0  0  0  0
  8  6  2  0  0  0  0
  9  6  1  0  0  0  0
  9  1  1  1  0  0  0
  9 10  1  0  0  0  0
 10 11  2  0  0  0  0
 13 12  1  0  0  0  0
 14 13  2  0  0  0  0
 15 19  1  0  0  0  0
 16 15  2  0  0  0  0
 16 22  1  0  0  0  0
 17 16  1  0  0  0  0
 18 20  1  0  0  0  0
 19 20  2  0  0  0  0
 20 12  1  0  0  0  0
 21 15  1  0  0  0  0
 22 18  2  0  0  0  0
 23 24  1  0  0  0  0
 24 25  1  1  0  0  0
 24 26  1  0  0  0  0
 26 27  1  6  0  0  0
 26 28  1  0  0  0  0
 28 29  2  0  0  0  0
 29 30  1  0  0  0  0
 30 31  1  0  0  0  0
 31 35  2  0  0  0  0
 31 33  1  0  0  0  0
 32 36  2  0  0  0  0
 33 34  2  0  0  0  0
 34 36  1  0  0  0  0
 35 32  1  0  0  0  0
 37 38  1  0  0  0  0
 37 35  1  0  0  0  0
 38 42  1  0  0  0  0
 39 40  1  0  0  0  0
 41 39  2  0  0  0  0
 42 40  2  0  0  0  0
 43 38  2  0  0  0  0
 43 41  1  0  0  0  0
M  END
>  <MODEL>
4

>  <REMARK>
 VINA RESULT:      -8.8      2.329      4.945
  Name = 
  11 active torsions:
  status: ('A' for Active; 'I' for Inactive)
    1  A    between atoms: N_1  and  C_35
    2  A    between atoms: C_2  and  N_6
    3  A    between atoms: C_2  and  C_13
    4  A    between atoms: C_3  and  C_4
    5  A    between atoms: C_3  and  N_12
    6  A    between atoms: C_8  and  O_27
    7  A    between atoms: C_8  and  C_30
    8  A    between atoms: C_8  and  C_34
    9  A    between atoms: C_11  and  C_14
   10  A    between atoms: C_13  and  O_27
   11  A    between atoms: C_14  and  C_41
                            x       y       z     vdW  Elec       q    Type
                         _______ _______ _______ _____ _____    ______ ____

>  <TORSDO>
F 11

$$$$
=
 OpenBabel10272414433D

 43 47  0  0  1  0  0  0  0  0999 V2000
  190.8740  176.3750  139.4020 C   0  0  1  0  0  3  0  0  0  0  0  0
  193.8270  173.1920  136.6230 C   0  0  0  0  0  0  0  0  0  0  0  0
  193.7630  175.1060  138.0570 C   0  0  0  0  0  0  0  0  0  0  0  0
  192.4910  173.4480  136.2470 C   0  0  0  0  0  3  0  0  0  0  0  0
  194.6750  171.8240  135.9400 Cl  0  0  0  0  0  0  0  0  0  0  0  0
  192.4650  175.3450  137.7110 C   0  0  0  0  0  0  0  0  0  0  0  0
  194.4840  174.0340  137.5380 C   0  0  0  0  0  3  0  0  0  0  0  0
  191.7940  174.5430  136.7890 C   0  0  0  0  0  3  0  0  0  0  0  0
  192.0470  176.5810  138.4330 C   0  0  2  0  0  3  0  0  0  0  0  0
  193.2670  176.9130  139.1820 N   0  0  0  0  0  0  0  0  0  0  0  0
  194.2160  176.0880  138.9670 N   0  0  0  0  0  0  0  0  0  0  0  0
  190.4630  176.0990  141.8780 N   0  0  0  0  0  2  0  0  0  0  0  0
  191.0870  176.8300  140.8200 C   0  0  0  0  0  0  0  0  0  0  0  0
  191.7940  177.8450  141.0610 O   0  0  0  0  0  0  0  0  0  0  0  0
  191.3540  176.5560  145.4950 C   0  0  0  0  0  0  0  0  0  0  0  0
  190.2410  177.2740  145.9430 C   0  0  0  0  0  0  0  0  0  0  0  0
  190.1480  177.6480  147.2430 F   0  0  0  0  0  0  0  0  0  0  0  0
  189.2980  177.2010  143.7150 C   0  0  0  0  0  3  0  0  0  0  0  0
  191.4360  176.1610  144.1570 C   0  0  0  0  0  3  0  0  0  0  0  0
  190.4060  176.4770  143.2590 C   0  0  0  0  0  0  0  0  0  0  0  0
  192.3560  176.2430  146.3520 F   0  0  0  0  0  0  0  0  0  0  0  0
  189.2130  177.5950  145.0540 C   0  0  0  0  0  3  0  0  0  0  0  0
  189.5720  176.5230  138.8610 O   0  0  0  0  0  0  0  0  0  0  0  0
  189.4960  177.7000  138.0910 C   0  0  1  0  0  3  0  0  0  0  0  0
  188.9830  177.3750  136.6990 C   0  0  0  0  0  1  0  0  0  0  0  0
  188.5610  178.7200  138.7440 C   0  0  2  0  0  3  0  0  0  0  0  0
  188.3560  178.4130  140.2170 C   0  0  0  0  0  1  0  0  0  0  0  0
  187.2910  178.7650  138.0660 N   0  0  0  0  0  0  0  0  0  0  0  0
  186.2310  178.7360  138.7180 N   0  0  0  0  0  0  0  0  0  0  0  0
  184.9620  178.7900  138.0400 C   0  0  0  0  0  2  0  0  0  0  0  0
  184.0910  177.6480  138.4600 C   0  0  0  0  0  0  0  0  0  0  0  0
  182.5010  176.6050  139.9730 C   0  0  0  0  0  3  0  0  0  0  0  0
  184.1320  176.4690  137.7090 C   0  0  0  0  0  3  0  0  0  0  0  0
  183.3640  175.3640  138.0860 C   0  0  0  0  0  3  0  0  0  0  0  0
  183.2550  177.7260  139.5920 C   0  0  0  0  0  0  0  0  0  0  0  0
  182.5530  175.4310  139.2210 C   0  0  0  0  0  3  0  0  0  0  0  0
  183.1840  178.9800  140.4160 C   0  0  0  0  0  2  0  0  0  0  0  0
  183.7490  178.7800  141.7860 C   0  0  0  0  0  0  0  0  0  0  0  0
  184.7820  178.4260  144.3640 C   0  0  0  0  0  3  0  0  0  0  0  0
  185.6040  178.2390  143.2500 C   0  0  0  0  0  3  0  0  0  0  0  0
  183.4430  178.7880  144.1910 C   0  0  0  0  0  3  0  0  0  0  0  0
  185.0890  178.4130  141.9620 C   0  0  0  0  0  3  0  0  0  0  0  0
  182.9280  178.9660  142.9040 C   0  0  0  0  0  3  0  0  0  0  0  0
  1 23  1  6  0  0  0
  1 13  1  0  0  0  0
  2  7  1  0  0  0  0
  3 11  1  0  0  0  0
  4  2  2  0  0  0  0
  4  8  1  0  0  0  0
  5  2  1  0  0  0  0
  6  3  1  0  0  0  0
  6  9  1  0  0  0  0
  7  3  2  0  0  0  0
  8  6  2  0  0  0  0
  9 10  1  0  0  0  0
  9  1  1  1  0  0  0
 11 10  2  0  0  0  0
 12 20  1  0  0  0  0
 13 14  2  0  0  0  0
 13 12  1  0  0  0  0
 15 16  1  0  0  0  0
 15 21  1  0  0  0  0
 16 17  1  0  0  0  0
 18 22  1  0  0  0  0
 19 15  2  0  0  0  0
 20 18  2  0  0  0  0
 20 19  1  0  0  0  0
 22 16  2  0  0  0  0
 24 25  1  6  0  0  0
 24 26  1  0  0  0  0
 24 23  1  0  0  0  0
 26 27  1  1  0  0  0
 28 29  2  0  0  0  0
 28 26  1  0  0  0  0
 30 31  1  0  0  0  0
 30 29  1  0  0  0  0
 31 35  1  0  0  0  0
 33 34  1  0  0  0  0
 33 31  2  0  0  0  0
 34 36  2  0  0  0  0
 35 32  2  0  0  0  0
 35 37  1  0  0  0  0
 36 32  1  0  0  0  0
 37 38  1  0  0  0  0
 38 42  2  0  0  0  0
 38 43  1  0  0  0  0
 40 39  2  0  0  0  0
 41 39  1  0  0  0  0
 42 40  1  0  0  0  0
 43 41  2  0  0  0  0
M  END
>  <MODEL>
5

>  <REMARK>
 VINA RESULT:      -8.8      4.761      9.050
  Name = 
  11 active torsions:
  status: ('A' for Active; 'I' for Inactive)
    1  A    between atoms: N_1  and  C_35
    2  A    between atoms: C_2  and  N_6
    3  A    between atoms: C_2  and  C_13
    4  A    between atoms: C_3  and  C_4
    5  A    between atoms: C_3  and  N_12
    6  A    between atoms: C_8  and  O_27
    7  A    between atoms: C_8  and  C_30
    8  A    between atoms: C_8  and  C_34
    9  A    between atoms: C_11  and  C_14
   10  A    between atoms: C_13  and  O_27
   11  A    between atoms: C_14  and  C_41
                            x       y       z     vdW  Elec       q    Type
                         _______ _______ _______ _____ _____    ______ ____

>  <TORSDO>
F 11

$$$$
=
 OpenBabel10272414433D

 43 47  0  0  1  0  0  0  0  0999 V2000
  192.3060  175.5770  137.3030 C   0  0  1  0  0  3  0  0  0  0  0  0
  187.7270  176.0890  134.9900 C   0  0  0  0  0  0  0  0  0  0  0  0
  189.1550  174.6760  136.2890 C   0  0  0  0  0  0  0  0  0  0  0  0
  188.8660  176.7530  134.4870 C   0  0  0  0  0  3  0  0  0  0  0  0
  186.1330  176.5840  134.4690 Cl  0  0  0  0  0  0  0  0  0  0  0  0
  190.2580  175.3280  135.8200 C   0  0  0  0  0  0  0  0  0  0  0  0
  187.8650  175.0280  135.9020 C   0  0  0  0  0  3  0  0  0  0  0  0
  190.1560  176.3680  134.8970 C   0  0  0  0  0  3  0  0  0  0  0  0
  191.4440  174.6570  136.4250 C   0  0  2  0  0  3  0  0  0  0  0  0
  190.8100  173.6220  137.2510 N   0  0  0  0  0  0  0  0  0  0  0  0
  189.5370  173.6390  137.1700 N   0  0  0  0  0  0  0  0  0  0  0  0
  194.5480  174.4820  136.9200 N   0  0  0  0  0  2  0  0  0  0  0  0
  193.7620  175.6760  136.9420 C   0  0  0  0  0  0  0  0  0  0  0  0
  194.2760  176.7970  136.6790 O   0  0  0  0  0  0  0  0  0  0  0  0
  198.2180  174.3640  137.7000 C   0  0  0  0  0  0  0  0  0  0  0  0
  198.7460  174.2010  136.4160 C   0  0  0  0  0  0  0  0  0  0  0  0
  200.0880  174.1210  136.2350 F   0  0  0  0  0  0  0  0  0  0  0  0
  196.5090  174.2300  135.4920 C   0  0  0  0  0  3  0  0  0  0  0  0
  196.8350  174.4610  137.8780 C   0  0  0  0  0  3  0  0  0  0  0  0
  195.9710  174.3990  136.7740 C   0  0  0  0  0  0  0  0  0  0  0  0
  199.0400  174.4260  138.7750 F   0  0  0  0  0  0  0  0  0  0  0  0
  197.8920  174.1350  135.3130 C   0  0  0  0  0  3  0  0  0  0  0  0
  191.6780  176.7470  137.8020 O   0  0  0  0  0  0  0  0  0  0  0  0
  191.2110  176.5260  139.1120 C   0  0  1  0  0  3  0  0  0  0  0  0
  192.0230  177.3520  140.0960 C   0  0  0  0  0  1  0  0  0  0  0  0
  189.7340  176.9070  139.2370 C   0  0  2  0  0  3  0  0  0  0  0  0
  189.3510  177.9620  138.2150 C   0  0  0  0  0  1  0  0  0  0  0  0
  189.4320  177.3730  140.5660 N   0  0  0  0  0  0  0  0  0  0  0  0
  188.6750  178.3470  140.7330 N   0  0  0  0  0  0  0  0  0  0  0  0
  188.3650  178.8050  142.0610 C   0  0  0  0  0  2  0  0  0  0  0  0
  189.3740  178.2970  143.0430 C   0  0  0  0  0  0  0  0  0  0  0  0
  190.0270  176.8950  144.9160 C   0  0  0  0  0  3  0  0  0  0  0  0
  190.6550  178.8570  143.0300 C   0  0  0  0  0  3  0  0  0  0  0  0
  191.6170  178.4400  143.9550 C   0  0  0  0  0  3  0  0  0  0  0  0
  189.0600  177.2940  143.9810 C   0  0  0  0  0  0  0  0  0  0  0  0
  191.3010  177.4630  144.9000 C   0  0  0  0  0  3  0  0  0  0  0  0
  187.6940  176.6680  144.0170 C   0  0  0  0  0  2  0  0  0  0  0  0
  186.7400  177.4580  144.8540 C   0  0  0  0  0  0  0  0  0  0  0  0
  184.9660  178.9230  146.4490 C   0  0  0  0  0  3  0  0  0  0  0  0
  184.6720  178.6980  145.1020 C   0  0  0  0  0  3  0  0  0  0  0  0
  186.1470  178.4170  146.9990 C   0  0  0  0  0  3  0  0  0  0  0  0
  185.5580  177.9700  144.3040 C   0  0  0  0  0  3  0  0  0  0  0  0
  187.0320  177.6860  146.2030 C   0  0  0  0  0  3  0  0  0  0  0  0
  1 13  1  6  0  0  0
  1 23  1  0  0  0  0
  2  7  1  0  0  0  0
  3 11  1  0  0  0  0
  4  8  1  0  0  0  0
  4  2  2  0  0  0  0
  5  2  1  0  0  0  0
  6  3  1  0  0  0  0
  6  9  1  0  0  0  0
  7  3  2  0  0  0  0
  8  6  2  0  0  0  0
  9 10  1  0  0  0  0
  9  1  1  1  0  0  0
 11 10  2  0  0  0  0
 12 13  1  0  0  0  0
 14 13  2  0  0  0  0
 15 19  1  0  0  0  0
 15 21  1  0  0  0  0
 16 15  2  0  0  0  0
 17 16  1  0  0  0  0
 18 20  1  0  0  0  0
 20 12  1  0  0  0  0
 20 19  2  0  0  0  0
 22 18  2  0  0  0  0
 22 16  1  0  0  0  0
 23 24  1  0  0  0  0
 24 26  1  0  0  0  0
 24 25  1  1  0  0  0
 26 27  1  6  0  0  0
 26 28  1  0  0  0  0
 28 29  2  0  0  0  0
 29 30  1  0  0  0  0
 30 31  1  0  0  0  0
 31 35  1  0  0  0  0
 33 31  2  0  0  0  0
 33 34  1  0  0  0  0
 34 36  2  0  0  0  0
 35 37  1  0  0  0  0
 35 32  2  0  0  0  0
 36 32  1  0  0  0  0
 37 38  1  0  0  0  0
 38 43  1  0  0  0  0
 39 41  1  0  0  0  0
 40 39  2  0  0  0  0
 42 38  2  0  0  0  0
 42 40  1  0  0  0  0
 43 41  2  0  0  0  0
M  END
>  <MODEL>
6

>  <REMARK>
 VINA RESULT:      -8.7      5.625      8.765
  Name = 
  11 active torsions:
  status: ('A' for Active; 'I' for Inactive)
    1  A    between atoms: N_1  and  C_35
    2  A    between atoms: C_2  and  N_6
    3  A    between atoms: C_2  and  C_13
    4  A    between atoms: C_3  and  C_4
    5  A    between atoms: C_3  and  N_12
    6  A    between atoms: C_8  and  O_27
    7  A    between atoms: C_8  and  C_30
    8  A    between atoms: C_8  and  C_34
    9  A    between atoms: C_11  and  C_14
   10  A    between atoms: C_13  and  O_27
   11  A    between atoms: C_14  and  C_41
                            x       y       z     vdW  Elec       q    Type
                         _______ _______ _______ _____ _____    ______ ____

>  <TORSDO>
F 11

$$$$
=
 OpenBabel10272414433D

 43 47  0  0  1  0  0  0  0  0999 V2000
  185.5760  177.6130  137.5030 C   0  0  1  0  0  3  0  0  0  0  0  0
  190.4410  175.9070  137.4980 C   0  0  0  0  0  0  0  0  0  0  0  0
  188.9950  177.8050  137.3150 C   0  0  0  0  0  0  0  0  0  0  0  0
  189.3870  175.0810  137.0530 C   0  0  0  0  0  3  0  0  0  0  0  0
  191.9950  175.2030  137.8820 Cl  0  0  0  0  0  0  0  0  0  0  0  0
  187.9690  177.0070  136.9030 C   0  0  0  0  0  0  0  0  0  0  0  0
  190.2530  177.2950  137.6280 C   0  0  0  0  0  3  0  0  0  0  0  0
  188.1310  175.6310  136.7410 C   0  0  0  0  0  3  0  0  0  0  0  0
  186.8080  177.9030  136.6330 C   0  0  2  0  0  3  0  0  0  0  0  0
  187.3650  179.2190  136.9710 N   0  0  0  0  0  0  0  0  0  0  0  0
  188.5820  179.1560  137.3490 N   0  0  0  0  0  0  0  0  0  0  0  0
  184.2210  175.4960  137.7410 N   0  0  0  0  0  2  0  0  0  0  0  0
  184.5810  176.6310  136.9500 C   0  0  0  0  0  0  0  0  0  0  0  0
  184.0870  176.8060  135.8030 O   0  0  0  0  0  0  0  0  0  0  0  0
  183.1950  172.0250  136.7450 C   0  0  0  0  0  0  0  0  0  0  0  0
  181.8300  172.2190  136.5140 C   0  0  0  0  0  0  0  0  0  0  0  0
  181.0530  171.1840  136.1110 F   0  0  0  0  0  0  0  0  0  0  0  0
  182.0660  174.5590  137.0910 C   0  0  0  0  0  3  0  0  0  0  0  0
  183.9940  173.0990  137.1470 C   0  0  0  0  0  3  0  0  0  0  0  0
  183.4350  174.3750  137.3180 C   0  0  0  0  0  0  0  0  0  0  0  0
  183.7490  170.7990  136.5830 F   0  0  0  0  0  0  0  0  0  0  0  0
  181.2660  173.4850  136.6870 C   0  0  0  0  0  3  0  0  0  0  0  0
  185.7770  177.6140  138.9070 O   0  0  0  0  0  0  0  0  0  0  0  0
  185.1690  178.7460  139.4850 C   0  0  1  0  0  3  0  0  0  0  0  0
  183.7180  178.4420  139.8150 C   0  0  0  0  0  1  0  0  0  0  0  0
  185.8980  179.1630  140.7640 C   0  0  2  0  0  3  0  0  0  0  0  0
  187.3230  178.6410  140.7800 C   0  0  0  0  0  1  0  0  0  0  0  0
  185.1900  178.7070  141.9330 N   0  0  0  0  0  0  0  0  0  0  0  0
  185.6850  178.8600  143.0650 N   0  0  0  0  0  0  0  0  0  0  0  0
  184.9740  178.4130  144.2330 C   0  0  0  0  0  2  0  0  0  0  0  0
  185.9020  178.2870  145.4000 C   0  0  0  0  0  0  0  0  0  0  0  0
  187.8860  177.3890  146.4770 C   0  0  0  0  0  3  0  0  0  0  0  0
  185.5650  178.9390  146.5910 C   0  0  0  0  0  3  0  0  0  0  0  0
  186.3830  178.8170  147.7180 C   0  0  0  0  0  3  0  0  0  0  0  0
  187.0820  177.5190  145.3340 C   0  0  0  0  0  0  0  0  0  0  0  0
  187.5400  178.0390  147.6620 C   0  0  0  0  0  3  0  0  0  0  0  0
  187.4750  176.8120  144.0690 C   0  0  0  0  0  2  0  0  0  0  0  0
  188.9110  177.0430  143.7230 C   0  0  0  0  0  0  0  0  0  0  0  0
  191.6060  177.4440  143.0810 C   0  0  0  0  0  3  0  0  0  0  0  0
  190.8220  178.5190  143.5070 C   0  0  0  0  0  3  0  0  0  0  0  0
  191.0440  176.1690  142.9730 C   0  0  0  0  0  3  0  0  0  0  0  0
  189.4760  178.3210  143.8250 C   0  0  0  0  0  3  0  0  0  0  0  0
  189.6990  175.9690  143.2940 C   0  0  0  0  0  3  0  0  0  0  0  0
  1 13  1  6  0  0  0
  1 23  1  0  0  0  0
  2  7  1  0  0  0  0
  2  5  1  0  0  0  0
  3 11  1  0  0  0  0
  3  7  2  0  0  0  0
  4  2  2  0  0  0  0
  6  3  1  0  0  0  0
  8  6  2  0  0  0  0
  8  4  1  0  0  0  0
  9  6  1  0  0  0  0
  9 10  1  0  0  0  0
  9  1  1  1  0  0  0
 10 11  2  0  0  0  0
 13 12  1  0  0  0  0
 14 13  2  0  0  0  0
 15 19  1  0  0  0  0
 16 22  1  0  0  0  0
 16 15  2  0  0  0  0
 17 16  1  0  0  0  0
 18 20  1  0  0  0  0
 19 20  2  0  0  0  0
 20 12  1  0  0  0  0
 21 15  1  0  0  0  0
 22 18  2  0  0  0  0
 23 24  1  0  0  0  0
 24 25  1  1  0  0  0
 24 26  1  0  0  0  0
 26 27  1  6  0  0  0
 26 28  1  0  0  0  0
 28 29  2  0  0  0  0
 29 30  1  0  0  0  0
 30 31  1  0  0  0  0
 31 33  1  0  0  0  0
 32 36  2  0  0  0  0
 33 34  2  0  0  0  0
 35 31  2  0  0  0  0
 35 32  1  0  0  0  0
 36 34  1  0  0  0  0
 37 35  1  0  0  0  0
 38 42  1  0  0  0  0
 38 37  1  0  0  0  0
 39 40  1  0  0  0  0
 40 42  2  0  0  0  0
 41 39  2  0  0  0  0
 41 43  1  0  0  0  0
 43 38  2  0  0  0  0
M  END
>  <MODEL>
7

>  <REMARK>
 VINA RESULT:      -8.7      2.272      4.910
  Name = 
  11 active torsions:
  status: ('A' for Active; 'I' for Inactive)
    1  A    between atoms: N_1  and  C_35
    2  A    between atoms: C_2  and  N_6
    3  A    between atoms: C_2  and  C_13
    4  A    between atoms: C_3  and  C_4
    5  A    between atoms: C_3  and  N_12
    6  A    between atoms: C_8  and  O_27
    7  A    between atoms: C_8  and  C_30
    8  A    between atoms: C_8  and  C_34
    9  A    between atoms: C_11  and  C_14
   10  A    between atoms: C_13  and  O_27
   11  A    between atoms: C_14  and  C_41
                            x       y       z     vdW  Elec       q    Type
                         _______ _______ _______ _____ _____    ______ ____

>  <TORSDO>
F 11

$$$$
=
 OpenBabel10272414433D

 43 47  0  0  1  0  0  0  0  0999 V2000
  190.1800  176.1620  138.3850 C   0  0  1  0  0  3  0  0  0  0  0  0
  193.7910  172.9190  136.6460 C   0  0  0  0  0  0  0  0  0  0  0  0
  193.3420  175.0160  137.7090 C   0  0  0  0  0  0  0  0  0  0  0  0
  192.5170  172.9700  136.0420 C   0  0  0  0  0  3  0  0  0  0  0  0
  194.8470  171.5600  136.3360 Cl  0  0  0  0  0  0  0  0  0  0  0  0
  192.1010  175.0580  137.1420 C   0  0  0  0  0  0  0  0  0  0  0  0
  194.2210  173.9580  137.4900 C   0  0  0  0  0  3  0  0  0  0  0  0
  191.6550  174.0550  136.2820 C   0  0  0  0  0  3  0  0  0  0  0  0
  191.4740  176.3390  137.5750 C   0  0  2  0  0  3  0  0  0  0  0  0
  192.5260  176.9120  138.4250 N   0  0  0  0  0  0  0  0  0  0  0  0
  193.5610  176.1690  138.4940 N   0  0  0  0  0  0  0  0  0  0  0  0
  190.3060  176.3250  140.9010 N   0  0  0  0  0  2  0  0  0  0  0  0
  190.0650  176.9700  139.6480 C   0  0  0  0  0  0  0  0  0  0  0  0
  189.7470  178.1890  139.5950 O   0  0  0  0  0  0  0  0  0  0  0  0
  190.5500  178.4910  143.9570 C   0  0  0  0  0  0  0  0  0  0  0  0
  189.5500  177.9230  144.7520 C   0  0  0  0  0  0  0  0  0  0  0  0
  189.3030  178.4140  145.9920 F   0  0  0  0  0  0  0  0  0  0  0  0
  189.0720  176.3180  143.0040 C   0  0  0  0  0  3  0  0  0  0  0  0
  190.8100  177.9700  142.6860 C   0  0  0  0  0  3  0  0  0  0  0  0
  190.0750  176.8770  142.2030 C   0  0  0  0  0  0  0  0  0  0  0  0
  191.2680  179.5470  144.4100 F   0  0  0  0  0  0  0  0  0  0  0  0
  188.8120  176.8370  144.2760 C   0  0  0  0  0  3  0  0  0  0  0  0
  188.9930  175.9430  137.6410 O   0  0  0  0  0  0  0  0  0  0  0  0
  188.5950  177.1310  136.9980 C   0  0  1  0  0  3  0  0  0  0  0  0
  189.0030  177.0900  135.5360 C   0  0  0  0  0  1  0  0  0  0  0  0
  187.0790  177.3210  137.0910 C   0  0  2  0  0  3  0  0  0  0  0  0
  186.5140  177.8730  135.7950 C   0  0  0  0  0  1  0  0  0  0  0  0
  186.7340  178.1850  138.1910 N   0  0  0  0  0  0  0  0  0  0  0  0
  185.5500  178.5260  138.3730 N   0  0  0  0  0  0  0  0  0  0  0  0
  185.2050  179.3820  139.4770 C   0  0  0  0  0  2  0  0  0  0  0  0
  183.7190  179.5100  139.6000 C   0  0  0  0  0  0  0  0  0  0  0  0
  181.5710  178.8080  140.4920 C   0  0  0  0  0  3  0  0  0  0  0  0
  183.0670  180.4700  138.8190 C   0  0  0  0  0  3  0  0  0  0  0  0
  181.6770  180.5990  138.8730 C   0  0  0  0  0  3  0  0  0  0  0  0
  182.9680  178.6820  140.4590 C   0  0  0  0  0  0  0  0  0  0  0  0
  180.9290  179.7640  139.7050 C   0  0  0  0  0  3  0  0  0  0  0  0
  183.6390  177.6460  141.3150 C   0  0  0  0  0  2  0  0  0  0  0  0
  183.9950  178.1820  142.6640 C   0  0  0  0  0  0  0  0  0  0  0  0
  184.6890  179.1670  145.1910 C   0  0  0  0  0  3  0  0  0  0  0  0
  183.3600  179.2140  144.7640 C   0  0  0  0  0  3  0  0  0  0  0  0
  185.6720  178.6280  144.3560 C   0  0  0  0  0  3  0  0  0  0  0  0
  183.0120  178.7260  143.5020 C   0  0  0  0  0  3  0  0  0  0  0  0
  185.3250  178.1360  143.0950 C   0  0  0  0  0  3  0  0  0  0  0  0
  1 23  1  6  0  0  0
  1 13  1  0  0  0  0
  2  7  1  0  0  0  0
  3 11  1  0  0  0  0
  4  8  1  0  0  0  0
  4  2  2  0  0  0  0
  5  2  1  0  0  0  0
  6  9  1  0  0  0  0
  6  3  1  0  0  0  0
  7  3  2  0  0  0  0
  8  6  2  0  0  0  0
  9  1  1  1  0  0  0
  9 10  1  0  0  0  0
 10 11  2  0  0  0  0
 12 20  1  0  0  0  0
 13 12  1  0  0  0  0
 14 13  2  0  0  0  0
 15 21  1  0  0  0  0
 15 16  1  0  0  0  0
 16 17  1  0  0  0  0
 18 22  1  0  0  0  0
 19 15  2  0  0  0  0
 20 19  1  0  0  0  0
 20 18  2  0  0  0  0
 22 16  2  0  0  0  0
 24 25  1  6  0  0  0
 24 26  1  0  0  0  0
 24 23  1  0  0  0  0
 26 27  1  6  0  0  0
 26 28  1  0  0  0  0
 28 29  2  0  0  0  0
 29 30  1  0  0  0  0
 30 31  1  0  0  0  0
 31 35  1  0  0  0  0
 33 34  1  0  0  0  0
 33 31  2  0  0  0  0
 34 36  2  0  0  0  0
 35 32  2  0  0  0  0
 35 37  1  0  0  0  0
 36 32  1  0  0  0  0
 37 38  1  0  0  0  0
 38 43  2  0  0  0  0
 38 42  1  0  0  0  0
 40 39  1  0  0  0  0
 41 39  2  0  0  0  0
 42 40  2  0  0  0  0
 43 41  1  0  0  0  0
M  END
>  <MODEL>
8

>  <REMARK>
 VINA RESULT:      -8.6      4.846      8.829
  Name = 
  11 active torsions:
  status: ('A' for Active; 'I' for Inactive)
    1  A    between atoms: N_1  and  C_35
    2  A    between atoms: C_2  and  N_6
    3  A    between atoms: C_2  and  C_13
    4  A    between atoms: C_3  and  C_4
    5  A    between atoms: C_3  and  N_12
    6  A    between atoms: C_8  and  O_27
    7  A    between atoms: C_8  and  C_30
    8  A    between atoms: C_8  and  C_34
    9  A    between atoms: C_11  and  C_14
   10  A    between atoms: C_13  and  O_27
   11  A    between atoms: C_14  and  C_41
                            x       y       z     vdW  Elec       q    Type
                         _______ _______ _______ _____ _____    ______ ____

>  <TORSDO>
F 11

$$$$
=
 OpenBabel10272414433D

 43 47  0  0  1  0  0  0  0  0999 V2000
  191.6400  175.9280  138.0690 C   0  0  1  0  0  3  0  0  0  0  0  0
  186.8190  176.6240  136.3810 C   0  0  0  0  0  0  0  0  0  0  0  0
  188.5200  175.0410  136.9520 C   0  0  0  0  0  0  0  0  0  0  0  0
  187.8200  177.5820  136.1160 C   0  0  0  0  0  3  0  0  0  0  0  0
  185.1350  177.0480  136.1770 Cl  0  0  0  0  0  0  0  0  0  0  0  0
  189.4900  175.9710  136.7160 C   0  0  0  0  0  0  0  0  0  0  0  0
  187.1660  175.3270  136.8000 C   0  0  0  0  0  3  0  0  0  0  0  0
  189.1790  177.2570  136.2760 C   0  0  0  0  0  3  0  0  0  0  0  0
  190.7990  175.2960  136.9500 C   0  0  2  0  0  3  0  0  0  0  0  0
  190.3710  173.9470  137.3410 N   0  0  0  0  0  0  0  0  0  0  0  0
  189.1030  173.8140  137.3390 N   0  0  0  0  0  0  0  0  0  0  0  0
  193.8610  174.7380  138.2240 N   0  0  0  0  0  2  0  0  0  0  0  0
  193.1310  175.9170  137.8750 C   0  0  0  0  0  0  0  0  0  0  0  0
  193.7200  176.9370  137.4260 O   0  0  0  0  0  0  0  0  0  0  0  0
  197.4000  174.6700  139.4720 C   0  0  0  0  0  0  0  0  0  0  0  0
  198.0740  174.2870  138.3080 C   0  0  0  0  0  0  0  0  0  0  0  0
  199.4230  174.1490  138.3150 F   0  0  0  0  0  0  0  0  0  0  0  0
  195.9690  174.2120  137.1160 C   0  0  0  0  0  3  0  0  0  0  0  0
  196.0120  174.8250  139.4550 C   0  0  0  0  0  3  0  0  0  0  0  0
  195.2870  174.6010  138.2750 C   0  0  0  0  0  0  0  0  0  0  0  0
  198.0880  174.8900  140.6190 F   0  0  0  0  0  0  0  0  0  0  0  0
  197.3580  174.0580  137.1310 C   0  0  0  0  0  3  0  0  0  0  0  0
  191.0770  177.0510  138.7270 O   0  0  0  0  0  0  0  0  0  0  0  0
  190.8450  176.7530  140.0850 C   0  0  1  0  0  3  0  0  0  0  0  0
  191.7430  177.6070  140.9620 C   0  0  0  0  0  1  0  0  0  0  0  0
  189.3840  177.0140  140.4580 C   0  0  2  0  0  3  0  0  0  0  0  0
  188.9450  178.4010  140.0230 C   0  0  0  0  0  1  0  0  0  0  0  0
  189.1760  176.8500  141.8740 N   0  0  0  0  0  0  0  0  0  0  0  0
  188.0510  176.5430  142.3110 N   0  0  0  0  0  0  0  0  0  0  0  0
  187.8470  176.3690  143.7250 C   0  0  0  0  0  2  0  0  0  0  0  0
  186.8570  177.3660  144.2410 C   0  0  0  0  0  0  0  0  0  0  0  0
  185.9710  178.8020  145.9890 C   0  0  0  0  0  3  0  0  0  0  0  0
  185.7960  177.7400  143.4120 C   0  0  0  0  0  3  0  0  0  0  0  0
  184.8270  178.6390  143.8660 C   0  0  0  0  0  3  0  0  0  0  0  0
  186.9590  177.9140  145.5360 C   0  0  0  0  0  0  0  0  0  0  0  0
  184.9120  179.1660  145.1570 C   0  0  0  0  0  3  0  0  0  0  0  0
  188.0910  177.5370  146.4490 C   0  0  0  0  0  2  0  0  0  0  0  0
  189.4200  177.6880  145.7810 C   0  0  0  0  0  0  0  0  0  0  0  0
  191.8940  177.9890  144.5060 C   0  0  0  0  0  3  0  0  0  0  0  0
  191.6790  176.9110  145.3680 C   0  0  0  0  0  3  0  0  0  0  0  0
  190.8740  178.9180  144.2810 C   0  0  0  0  0  3  0  0  0  0  0  0
  190.4460  176.7620  146.0080 C   0  0  0  0  0  3  0  0  0  0  0  0
  189.6390  178.7670  144.9170 C   0  0  0  0  0  3  0  0  0  0  0  0
  1 13  1  6  0  0  0
  1 23  1  0  0  0  0
  2  7  1  0  0  0  0
  3 11  1  0  0  0  0
  4  8  1  0  0  0  0
  4  2  2  0  0  0  0
  5  2  1  0  0  0  0
  6  9  1  0  0  0  0
  6  3  1  0  0  0  0
  7  3  2  0  0  0  0
  8  6  2  0  0  0  0
  9 10  1  0  0  0  0
  9  1  1  1  0  0  0
 11 10  2  0  0  0  0
 12 20  1  0  0  0  0
 13 12  1  0  0  0  0
 14 13  2  0  0  0  0
 15 21  1  0  0  0  0
 16 17  1  0  0  0  0
 16 15  2  0  0  0  0
 18 22  2  0  0  0  0
 18 20  1  0  0  0  0
 19 15  1  0  0  0  0
 20 19  2  0  0  0  0
 22 16  1  0  0  0  0
 23 24  1  0  0  0  0
 24 26  1  0  0  0  0
 24 25  1  1  0  0  0
 26 27  1  1  0  0  0
 26 28  1  0  0  0  0
 28 29  2  0  0  0  0
 29 30  1  0  0  0  0
 30 31  1  0  0  0  0
 31 35  1  0  0  0  0
 33 34  1  0  0  0  0
 33 31  2  0  0  0  0
 34 36  2  0  0  0  0
 35 32  2  0  0  0  0
 35 37  1  0  0  0  0
 36 32  1  0  0  0  0
 38 42  1  0  0  0  0
 38 37  1  0  0  0  0
 39 40  1  0  0  0  0
 40 42  2  0  0  0  0
 41 39  2  0  0  0  0
 41 43  1  0  0  0  0
 43 38  2  0  0  0  0
M  END
>  <MODEL>
9

>  <REMARK>
 VINA RESULT:      -8.6      5.119      8.579
  Name = 
  11 active torsions:
  status: ('A' for Active; 'I' for Inactive)
    1  A    between atoms: N_1  and  C_35
    2  A    between atoms: C_2  and  N_6
    3  A    between atoms: C_2  and  C_13
    4  A    between atoms: C_3  and  C_4
    5  A    between atoms: C_3  and  N_12
    6  A    between atoms: C_8  and  O_27
    7  A    between atoms: C_8  and  C_30
    8  A    between atoms: C_8  and  C_34
    9  A    between atoms: C_11  and  C_14
   10  A    between atoms: C_13  and  O_27
   11  A    between atoms: C_14  and  C_41
                            x       y       z     vdW  Elec       q    Type
                         _______ _______ _______ _____ _____    ______ ____

>  <TORSDO>
F 11

$$$$
