=
 OpenBabel10272413493D

 30 36  0  0  1  0  0  0  0  0999 V2000
  187.3240  178.1800  145.0000 C   0  0  2  0  0  3  0  0  0  0  0  0
  184.9500  178.6450  145.8170 C   0  0  1  0  0  3  0  0  0  0  0  0
  186.6680  179.0400  141.0700 C   0  0  0  0  0  2  0  0  0  0  0  0
  188.2250  177.8760  143.8140 C   0  0  1  0  0  3  0  0  0  0  0  0
  187.8260  177.4540  146.2110 C   0  0  0  0  0  3  0  0  0  0  0  0
  191.6510  177.1280  145.6760 S   0  0  0  0  0  0  0  0  0  0  0  0
  190.8250  177.1500  141.9500 C   0  0  1  0  0  3  0  0  0  0  0  0
  190.0980  178.0660  145.4420 C   0  0  2  0  0  3  0  0  0  0  0  0
  189.7290  176.7010  147.4640 N   0  0  0  0  0  2  0  0  0  0  0  0
  189.6110  176.5720  141.2230 C   0  0  2  0  0  3  0  0  0  0  0  0
  187.9450  178.4690  140.5820 C   0  0  0  0  0  0  0  0  0  0  0  0
  189.1430  177.4460  146.4160 C   0  0  0  0  0  0  0  0  0  0  0  0
  189.5740  177.9820  144.0050 C   0  0  2  0  0  3  0  0  0  0  0  0
  183.4800  178.7320  145.4170 C   0  0  0  0  0  2  0  0  0  0  0  0
  189.9920  176.3890  139.7620 C   0  0  0  0  0  2  0  0  0  0  0  0
  191.8020  177.5390  140.8560 C   0  0  0  0  0  2  0  0  0  0  0  0
  191.6740  175.2750  147.6990 C   0  0  0  0  0  1  0  0  0  0  0  0
  185.0160  177.8220  147.0920 C   0  0  0  0  0  1  0  0  0  0  0  0
  186.2840  178.0590  142.1840 C   0  0  1  0  0  3  0  0  0  0  0  0
  183.3180  179.5160  144.1270 C   0  0  0  0  0  2  0  0  0  0  0  0
  191.1760  176.6690  147.3810 C   0  0  1  0  0  3  0  0  0  0  0  0
  185.8180  178.0240  144.6950 C   0  0  1  0  0  3  0  0  0  0  0  0
  187.5710  177.2990  142.5610 C   0  0  1  0  0  3  0  0  0  0  0  0
  188.5690  178.9110  139.5820 O   0  0  0  0  0  0  0  0  0  0  0  0
  188.4120  177.3980  141.3890 N   0  0  0  0  0  0  0  0  0  0  0  0
  191.4830  176.6320  139.6870 C   0  0  0  0  0  2  0  0  0  0  0  0
  191.6430  178.9940  143.2790 O   0  0  0  0  0  1  0  0  0  0  0  0
  184.0640  178.7990  143.0170 C   0  0  0  0  0  2  0  0  0  0  0  0
  185.5510  178.7380  143.3460 C   0  0  2  0  0  3  0  0  0  0  0  0
  190.4830  178.3450  142.8430 C   0  0  1  0  0  3  0  0  0  0  0  0
  1  5  1  1  0  0  0
  2 18  1  1  0  0  0
  3 19  1  0  0  0  0
  4 13  1  0  0  0  0
  4  1  1  0  0  0  0
  5 12  2  0  0  0  0
  6 21  1  0  0  0  0
  7 30  1  0  0  0  0
  8  6  1  0  0  0  0
  8 12  1  0  0  0  0
 10 25  1  0  0  0  0
 10  7  1  0  0  0  0
 11  3  1  0  0  0  0
 11 25  1  0  0  0  0
 12  9  1  0  0  0  0
 13  8  1  0  0  0  0
 14  2  1  0  0  0  0
 15 10  1  0  0  0  0
 16  7  1  0  0  0  0
 19 23  1  0  0  0  0
 19 29  1  0  0  0  0
 20 14  1  0  0  0  0
 21  9  1  0  0  0  0
 21 17  1  0  0  0  0
 22  1  1  0  0  0  0
 22  2  1  0  0  0  0
 23  4  1  0  0  0  0
 24 11  2  0  0  0  0
 25 23  1  0  0  0  0
 26 15  1  0  0  0  0
 26 16  1  0  0  0  0
 28 29  1  0  0  0  0
 28 20  1  0  0  0  0
 29 22  1  0  0  0  0
 30 27  1  0  0  0  0
 30 13  1  0  0  0  0
M  END
>  <MODEL>
1

>  <REMARK>
 VINA RESULT:     -11.8      0.000      0.000
  Name = 
  0 active torsions:
  status: ('A' for Active; 'I' for Inactive)
                            x       y       z     vdW  Elec       q    Type
                         _______ _______ _______ _____ _____    ______ ____

>  <TORSDO>
F 0

$$$$
=
 OpenBabel10272413493D

 30 36  0  0  1  0  0  0  0  0999 V2000
  186.6190  178.3240  142.8920 C   0  0  2  0  0  3  0  0  0  0  0  0
  187.6250  178.1660  145.2340 C   0  0  1  0  0  3  0  0  0  0  0  0
  182.8630  179.4080  144.0440 C   0  0  0  0  0  2  0  0  0  0  0  0
  185.3550  178.3490  142.0490 C   0  0  1  0  0  3  0  0  0  0  0  0
  187.7050  177.6090  142.1460 C   0  0  0  0  0  3  0  0  0  0  0  0
  186.9080  178.1950  138.3990 S   0  0  0  0  0  0  0  0  0  0  0  0
  183.2660  178.4090  139.5200 C   0  0  1  0  0  3  0  0  0  0  0  0
  186.8790  178.7840  140.1310 C   0  0  2  0  0  3  0  0  0  0  0  0
  188.7460  177.1740  140.0290 N   0  0  0  0  0  2  0  0  0  0  0  0
  182.5500  177.6530  140.6390 C   0  0  2  0  0  3  0  0  0  0  0  0
  182.2360  179.1870  142.7200 C   0  0  0  0  0  0  0  0  0  0  0  0
  187.8290  177.8720  140.8460 C   0  0  0  0  0  0  0  0  0  0  0  0
  185.4760  178.7310  140.7430 C   0  0  2  0  0  3  0  0  0  0  0  0
  187.3260  177.9640  146.7170 C   0  0  0  0  0  2  0  0  0  0  0  0
  181.0580  177.7070  140.3510 C   0  0  0  0  0  2  0  0  0  0  0  0
  182.1690  179.1140  138.7440 C   0  0  0  0  0  2  0  0  0  0  0  0
  188.6960  176.1990  137.8110 C   0  0  0  0  0  1  0  0  0  0  0  0
  188.7890  177.2540  144.8870 C   0  0  0  0  0  1  0  0  0  0  0  0
  183.8750  178.2600  144.1140 C   0  0  1  0  0  3  0  0  0  0  0  0
  186.1490  178.8190  147.1500 C   0  0  0  0  0  2  0  0  0  0  0  0
  188.5740  177.4720  138.6210 C   0  0  1  0  0  3  0  0  0  0  0  0
  186.3890  177.8690  144.3500 C   0  0  1  0  0  3  0  0  0  0  0  0
  184.0840  177.7700  142.6680 C   0  0  1  0  0  3  0  0  0  0  0  0
  181.2590  179.8560  142.2900 O   0  0  0  0  0  0  0  0  0  0  0  0
  182.8840  178.1710  141.9680 N   0  0  0  0  0  0  0  0  0  0  0  0
  180.9240  178.2810  138.9580 C   0  0  0  0  0  2  0  0  0  0  0  0
  184.7510  180.2450  139.0070 O   0  0  0  0  0  1  0  0  0  0  0  0
  184.9200  178.4010  146.3640 C   0  0  0  0  0  2  0  0  0  0  0  0
  185.1500  178.6390  144.8760 C   0  0  2  0  0  3  0  0  0  0  0  0
  184.3110  179.4020  140.0340 C   0  0  1  0  0  3  0  0  0  0  0  0
  1  5  1  6  0  0  0
  1 22  1  0  0  0  0
  2 18  1  6  0  0  0
  2 14  1  0  0  0  0
  3 19  1  0  0  0  0
  4 23  1  0  0  0  0
  4  1  1  0  0  0  0
  6 21  1  0  0  0  0
  6  8  1  0  0  0  0
  7 30  1  0  0  0  0
  7 10  1  0  0  0  0
  8 13  1  0  0  0  0
  8 12  1  0  0  0  0
  9 12  1  0  0  0  0
 10 25  1  0  0  0  0
 11  3  1  0  0  0  0
 12  5  2  0  0  0  0
 13  4  1  0  0  0  0
 14 20  1  0  0  0  0
 15 10  1  0  0  0  0
 16 26  1  0  0  0  0
 16  7  1  0  0  0  0
 17 21  1  0  0  0  0
 19 29  1  0  0  0  0
 21  9  1  0  0  0  0
 22 29  1  0  0  0  0
 22  2  1  0  0  0  0
 23 19  1  0  0  0  0
 24 11  2  0  0  0  0
 25 23  1  0  0  0  0
 25 11  1  0  0  0  0
 26 15  1  0  0  0  0
 27 30  1  0  0  0  0
 28 20  1  0  0  0  0
 29 28  1  0  0  0  0
 30 13  1  0  0  0  0
M  END
>  <MODEL>
2

>  <REMARK>
 VINA RESULT:      -9.5      3.286      6.423
  Name = 
  0 active torsions:
  status: ('A' for Active; 'I' for Inactive)
                            x       y       z     vdW  Elec       q    Type
                         _______ _______ _______ _____ _____    ______ ____

>  <TORSDO>
F 0

$$$$
