=
 OpenBabel10272413343D

 32 36  0  0  1  0  0  0  0  0999 V2000
  188.8270  177.9930  145.3520 C   0  0  2  0  0  3  0  0  0  0  0  0
  191.2160  177.2270  140.8950 C   0  0  0  0  0  0  0  0  0  0  0  0
  188.2080  178.4460  137.2730 C   0  0  0  0  0  2  0  0  0  0  0  0
  189.3050  178.0090  136.2960 C   0  0  0  0  0  2  0  0  0  0  0  0
  190.6810  177.3590  143.2590 C   0  0  0  0  0  0  0  0  0  0  0  0
  188.9070  177.4410  141.6030 C   0  0  0  0  0  3  0  0  0  0  0  0
  188.2580  177.5330  144.0120 C   0  0  0  0  0  2  0  0  0  0  0  0
  188.7680  178.5990  138.6910 C   0  0  0  0  0  2  0  0  0  0  0  0
  189.8510  177.3310  140.5760 C   0  0  0  0  0  0  0  0  0  0  0  0
  189.3770  177.2750  139.1520 C   0  0  0  0  0  0  0  0  0  0  0  0
  191.7410  176.7570  138.4710 C   0  0  0  0  0  0  0  0  0  0  0  0
  190.0620  177.1660  145.6890 C   0  0  0  0  0  2  0  0  0  0  0  0
  189.3110  177.4760  142.9410 C   0  0  0  0  0  0  0  0  0  0  0  0
  191.1670  177.4570  144.6780 C   0  0  0  0  0  2  0  0  0  0  0  0
  189.9440  176.6920  136.7440 C   0  0  0  0  0  2  0  0  0  0  0  0
  190.4290  176.8440  138.1570 C   0  0  0  0  0  0  0  0  0  0  0  0
  191.6220  177.2560  142.2320 C   0  0  0  0  0  3  0  0  0  0  0  0
  192.2650  177.1490  139.8290 C   0  0  0  0  0  3  0  0  0  0  0  0
  187.8650  177.8310  146.3480 O   0  0  0  0  0  0  0  0  0  0  0  0
  186.6460  177.7970  145.6660 C   0  0  0  0  0  2  0  0  0  0  0  0
  185.7280  178.8920  146.1810 C   0  0  0  0  0  2  0  0  0  0  0  0
  184.8580  179.4550  143.7660 C   0  0  0  0  0  1  0  0  0  0  0  0
  184.1310  178.8430  145.3120 S   0  0  0  0  0  0  0  0  0  0  0  0
  192.7530  176.3610  137.4350 C   0  0  0  0  0  2  0  0  0  0  0  0
  193.3120  174.9700  137.7220 C   0  0  2  0  0  3  0  0  0  0  0  0
  195.8620  174.7030  137.8920 C   0  0  1  0  0  3  0  0  0  0  0  0
  195.2410  173.4290  137.3570 C   0  0  0  0  0  2  0  0  0  0  0  0
  194.6340  174.7660  136.9790 C   0  0  1  0  0  3  0  0  0  0  0  0
  195.5310  174.8480  139.2420 O   0  0  0  0  0  1  0  0  0  0  0  0
  192.3030  173.8680  137.3850 C   0  0  0  0  0  2  0  0  0  0  0  0
  191.9640  173.8240  135.9020 C   0  0  0  0  0  2  0  0  0  0  0  0
  190.6200  173.1510  135.7130 C   0  0  0  0  0  1  0  0  0  0  0  0
  1 12  1  0  0  0  0
  1 19  1  1  0  0  0
  2 17  1  0  0  0  0
  3  8  1  0  0  0  0
  4 15  1  0  0  0  0
  4  3  1  0  0  0  0
  5 14  1  0  0  0  0
  6 13  2  0  0  0  0
  7  1  1  0  0  0  0
  8 10  1  0  0  0  0
  9  2  1  0  0  0  0
  9  6  1  0  0  0  0
 10  9  2  0  0  0  0
 11 18  1  0  0  0  0
 13  5  1  0  0  0  0
 13  7  1  0  0  0  0
 14 12  1  0  0  0  0
 15 16  1  0  0  0  0
 16 11  2  0  0  0  0
 16 10  1  0  0  0  0
 17  5  2  0  0  0  0
 18  2  2  0  0  0  0
 20 21  1  0  0  0  0
 20 19  1  0  0  0  0
 22 23  1  0  0  0  0
 23 21  1  0  0  0  0
 24 25  1  0  0  0  0
 24 11  1  0  0  0  0
 25 30  1  6  0  0  0
 26 29  1  1  0  0  0
 27 26  1  0  0  0  0
 28 27  1  0  0  0  0
 28 25  1  1  0  0  0
 28 26  1  0  0  0  0
 31 30  1  0  0  0  0
 32 31  1  0  0  0  0
M  END
>  <MODEL>
1

>  <REMARK>
 VINA RESULT:      -7.4      0.000      0.000
  Name = 
  9 active torsions:
  status: ('A' for Active; 'I' for Inactive)
    1  A    between atoms: C_2  and  O_24
    2  A    between atoms: C_6  and  C_7
    3  A    between atoms: C_7  and  C_32
    4  A    between atoms: C_10  and  C_20
    5  A    between atoms: C_10  and  O_24
    6  A    between atoms: C_16  and  C_27
    7  A    between atoms: S_17  and  C_20
    8  A    between atoms: C_22  and  C_32
    9  A    between atoms: C_27  and  C_32
                            x       y       z     vdW  Elec       q    Type
                         _______ _______ _______ _____ _____    ______ ____

>  <TORSDO>
F 9

$$$$
=
 OpenBabel10272413343D

 32 36  0  0  1  0  0  0  0  0999 V2000
  190.7120  177.0550  139.5700 C   0  0  2  0  0  3  0  0  0  0  0  0
  186.6630  178.6570  142.2520 C   0  0  0  0  0  0  0  0  0  0  0  0
  187.4850  177.8390  146.9750 C   0  0  0  0  0  2  0  0  0  0  0  0
  186.0850  178.3960  147.2530 C   0  0  0  0  0  2  0  0  0  0  0  0
  188.2010  178.1200  140.4530 C   0  0  0  0  0  0  0  0  0  0  0  0
  188.5040  177.1300  142.6500 C   0  0  0  0  0  3  0  0  0  0  0  0
  190.1040  176.4800  140.8480 C   0  0  0  0  0  2  0  0  0  0  0  0
  187.9370  178.1790  145.5510 C   0  0  0  0  0  2  0  0  0  0  0  0
  187.3820  177.8200  143.1220 C   0  0  0  0  0  0  0  0  0  0  0  0
  186.9400  177.6090  144.5420 C   0  0  0  0  0  0  0  0  0  0  0  0
  184.8820  178.9540  144.0170 C   0  0  0  0  0  0  0  0  0  0  0  0
  189.6100  177.2850  138.5440 C   0  0  0  0  0  2  0  0  0  0  0  0
  188.9320  177.2880  141.3290 C   0  0  0  0  0  0  0  0  0  0  0  0
  188.6600  178.3700  139.0440 C   0  0  0  0  0  2  0  0  0  0  0  0
  185.0690  177.8530  146.2450 C   0  0  0  0  0  2  0  0  0  0  0  0
  185.5620  178.1410  144.8560 C   0  0  0  0  0  0  0  0  0  0  0  0
  187.0860  178.8120  140.9290 C   0  0  0  0  0  3  0  0  0  0  0  0
  185.4810  179.4470  142.7240 C   0  0  0  0  0  3  0  0  0  0  0  0
  191.6540  176.1620  139.0590 O   0  0  0  0  0  0  0  0  0  0  0  0
  191.7980  176.5240  137.7170 C   0  0  0  0  0  2  0  0  0  0  0  0
  193.2670  176.5310  137.3340 C   0  0  0  0  0  2  0  0  0  0  0  0
  194.6570  174.3630  137.8610 C   0  0  0  0  0  1  0  0  0  0  0  0
  193.7020  174.9980  136.4550 S   0  0  0  0  0  0  0  0  0  0  0  0
  183.5310  179.4880  144.3920 C   0  0  0  0  0  2  0  0  0  0  0  0
  182.4930  179.1440  143.3290 C   0  0  2  0  0  3  0  0  0  0  0  0
  179.9830  179.5610  143.6910 C   0  0  1  0  0  3  0  0  0  0  0  0
  180.1900  178.2710  142.9240 C   0  0  0  0  0  2  0  0  0  0  0  0
  181.1940  178.6720  143.9870 C   0  0  1  0  0  3  0  0  0  0  0  0
  180.3040  180.6450  142.8680 O   0  0  0  0  0  1  0  0  0  0  0  0
  183.0210  178.1130  142.3260 C   0  0  0  0  0  2  0  0  0  0  0  0
  182.6940  178.4810  140.8860 C   0  0  0  0  0  2  0  0  0  0  0  0
  183.6090  177.7200  139.9520 C   0  0  0  0  0  1  0  0  0  0  0  0
  1 19  1  6  0  0  0
  1  7  1  0  0  0  0
  2 18  2  0  0  0  0
  2  9  1  0  0  0  0
  3  4  1  0  0  0  0
  5 17  2  0  0  0  0
  5 13  1  0  0  0  0
  6  9  1  0  0  0  0
  7 13  1  0  0  0  0
  8  3  1  0  0  0  0
  9 10  2  0  0  0  0
 10 16  1  0  0  0  0
 10  8  1  0  0  0  0
 11 24  1  0  0  0  0
 11 16  2  0  0  0  0
 12 14  1  0  0  0  0
 12  1  1  0  0  0  0
 13  6  2  0  0  0  0
 14  5  1  0  0  0  0
 15  4  1  0  0  0  0
 16 15  1  0  0  0  0
 17  2  1  0  0  0  0
 18 11  1  0  0  0  0
 20 19  1  0  0  0  0
 21 20  1  0  0  0  0
 23 21  1  0  0  0  0
 23 22  1  0  0  0  0
 25 30  1  6  0  0  0
 25 24  1  0  0  0  0
 26 29  1  6  0  0  0
 26 28  1  0  0  0  0
 27 26  1  0  0  0  0
 27 28  1  0  0  0  0
 28 25  1  6  0  0  0
 31 30  1  0  0  0  0
 32 31  1  0  0  0  0
M  END
>  <MODEL>
2

>  <REMARK>
 VINA RESULT:      -7.3      3.632     10.118
  Name = 
  9 active torsions:
  status: ('A' for Active; 'I' for Inactive)
    1  A    between atoms: C_2  and  O_24
    2  A    between atoms: C_6  and  C_7
    3  A    between atoms: C_7  and  C_32
    4  A    between atoms: C_10  and  C_20
    5  A    between atoms: C_10  and  O_24
    6  A    between atoms: C_16  and  C_27
    7  A    between atoms: S_17  and  C_20
    8  A    between atoms: C_22  and  C_32
    9  A    between atoms: C_27  and  C_32
                            x       y       z     vdW  Elec       q    Type
                         _______ _______ _______ _____ _____    ______ ____

>  <TORSDO>
F 9

$$$$
=
 OpenBabel10272413343D

 32 36  0  0  1  0  0  0  0  0999 V2000
  189.2680  177.6410  144.1540 C   0  0  2  0  0  3  0  0  0  0  0  0
  185.2620  178.6820  141.1510 C   0  0  0  0  0  0  0  0  0  0  0  0
  181.3040  179.1790  143.9330 C   0  0  0  0  0  2  0  0  0  0  0  0
  180.5010  179.3980  142.6460 C   0  0  0  0  0  2  0  0  0  0  0  0
  187.4910  178.1800  141.9710 C   0  0  0  0  0  0  0  0  0  0  0  0
  185.5590  177.8190  143.3970 C   0  0  0  0  0  3  0  0  0  0  0  0
  187.8070  177.2260  144.3070 C   0  0  0  0  0  2  0  0  0  0  0  0
  182.8080  179.3010  143.6670 C   0  0  0  0  0  2  0  0  0  0  0  0
  184.7140  178.2780  142.3810 C   0  0  0  0  0  0  0  0  0  0  0  0
  183.2300  178.2800  142.6110 C   0  0  0  0  0  0  0  0  0  0  0  0
  182.9380  178.8880  140.1890 C   0  0  0  0  0  0  0  0  0  0  0  0
  189.7360  177.3400  142.7360 C   0  0  0  0  0  2  0  0  0  0  0  0
  186.9440  177.7850  143.2110 C   0  0  0  0  0  0  0  0  0  0  0  0
  188.9770  178.2220  141.7470 C   0  0  0  0  0  2  0  0  0  0  0  0
  180.9170  178.3980  141.5650 C   0  0  0  0  0  2  0  0  0  0  0  0
  182.4030  178.4890  141.3640 C   0  0  0  0  0  0  0  0  0  0  0  0
  186.6460  178.6450  140.9610 C   0  0  0  0  0  3  0  0  0  0  0  0
  184.4020  179.2200  140.0500 C   0  0  0  0  0  3  0  0  0  0  0  0
  190.0520  176.9350  145.0680 O   0  0  0  0  0  0  0  0  0  0  0  0
  189.5740  177.3220  146.3230 C   0  0  0  0  0  2  0  0  0  0  0  0
  190.5560  176.9080  147.4050 C   0  0  0  0  0  2  0  0  0  0  0  0
  192.7510  175.7680  148.2940 C   0  0  0  0  0  1  0  0  0  0  0  0
  191.9480  175.9870  146.6810 S   0  0  0  0  0  0  0  0  0  0  0  0
  182.0660  179.1190  138.9890 C   0  0  0  0  0  2  0  0  0  0  0  0
  181.9240  177.8440  138.1630 C   0  0  2  0  0  3  0  0  0  0  0  0
  183.9190  177.2100  136.6710 C   0  0  1  0  0  3  0  0  0  0  0  0
  182.6320  176.6840  136.0700 C   0  0  0  0  0  2  0  0  0  0  0  0
  182.6190  178.0080  136.8090 C   0  0  1  0  0  3  0  0  0  0  0  0
  184.2220  176.4800  137.8250 O   0  0  0  0  0  1  0  0  0  0  0  0
  180.4590  177.4310  137.9960 C   0  0  0  0  0  2  0  0  0  0  0  0
  180.1240  176.1550  138.7540 C   0  0  0  0  0  2  0  0  0  0  0  0
  181.3900  175.5750  139.3480 C   0  0  0  0  0  1  0  0  0  0  0  0
  1  7  1  0  0  0  0
  1 19  1  1  0  0  0
  2  9  1  0  0  0  0
  4  3  1  0  0  0  0
  5 13  1  0  0  0  0
  8  3  1  0  0  0  0
  9 10  2  0  0  0  0
  9  6  1  0  0  0  0
 10  8  1  0  0  0  0
 11 16  2  0  0  0  0
 12  1  1  0  0  0  0
 13  6  2  0  0  0  0
 13  7  1  0  0  0  0
 14  5  1  0  0  0  0
 14 12  1  0  0  0  0
 15  4  1  0  0  0  0
 16 15  1  0  0  0  0
 16 10  1  0  0  0  0
 17  2  1  0  0  0  0
 17  5  2  0  0  0  0
 18 11  1  0  0  0  0
 18  2  2  0  0  0  0
 19 20  1  0  0  0  0
 20 21  1  0  0  0  0
 23 21  1  0  0  0  0
 23 22  1  0  0  0  0
 24 11  1  0  0  0  0
 25 30  1  6  0  0  0
 25 24  1  0  0  0  0
 26 28  1  0  0  0  0
 26 29  1  1  0  0  0
 27 26  1  0  0  0  0
 27 28  1  0  0  0  0
 28 25  1  1  0  0  0
 30 31  1  0  0  0  0
 31 32  1  0  0  0  0
M  END
>  <MODEL>
3

>  <REMARK>
 VINA RESULT:      -7.2      4.953      8.496
  Name = 
  9 active torsions:
  status: ('A' for Active; 'I' for Inactive)
    1  A    between atoms: C_2  and  O_24
    2  A    between atoms: C_6  and  C_7
    3  A    between atoms: C_7  and  C_32
    4  A    between atoms: C_10  and  C_20
    5  A    between atoms: C_10  and  O_24
    6  A    between atoms: C_16  and  C_27
    7  A    between atoms: S_17  and  C_20
    8  A    between atoms: C_22  and  C_32
    9  A    between atoms: C_27  and  C_32
                            x       y       z     vdW  Elec       q    Type
                         _______ _______ _______ _____ _____    ______ ____

>  <TORSDO>
F 9

$$$$
=
 OpenBabel10272413343D

 32 36  0  0  1  0  0  0  0  0999 V2000
  189.3680  177.4380  144.1000 C   0  0  2  0  0  3  0  0  0  0  0  0
  185.4600  178.7250  141.0620 C   0  0  0  0  0  0  0  0  0  0  0  0
  181.4240  179.0610  143.7560 C   0  0  0  0  0  2  0  0  0  0  0  0
  180.6620  179.3780  142.4650 C   0  0  0  0  0  2  0  0  0  0  0  0
  187.6600  178.1460  141.9100 C   0  0  0  0  0  0  0  0  0  0  0  0
  185.6840  177.7030  143.2500 C   0  0  0  0  0  3  0  0  0  0  0  0
  187.8990  177.0270  144.1800 C   0  0  0  0  0  2  0  0  0  0  0  0
  182.9360  179.1870  143.5430 C   0  0  0  0  0  2  0  0  0  0  0  0
  184.8730  178.2400  142.2440 C   0  0  0  0  0  0  0  0  0  0  0  0
  183.3820  178.2400  142.4300 C   0  0  0  0  0  0  0  0  0  0  0  0
  183.1660  179.0190  140.0500 C   0  0  0  0  0  0  0  0  0  0  0  0
  189.8750  177.2340  142.6770 C   0  0  0  0  0  2  0  0  0  0  0  0
  187.0730  177.6690  143.1020 C   0  0  0  0  0  0  0  0  0  0  0  0
  189.1520  178.1900  141.7320 C   0  0  0  0  0  2  0  0  0  0  0  0
  181.1020  178.4520  141.3280 C   0  0  0  0  0  2  0  0  0  0  0  0
  182.5940  178.5430  141.1780 C   0  0  0  0  0  0  0  0  0  0  0  0
  186.8490  178.6880  140.9100 C   0  0  0  0  0  3  0  0  0  0  0  0
  184.6360  179.3470  139.9770 C   0  0  0  0  0  3  0  0  0  0  0  0
  190.1190  176.6630  144.9830 O   0  0  0  0  0  0  0  0  0  0  0  0
  190.2980  177.4730  146.1070 C   0  0  0  0  0  2  0  0  0  0  0  0
  189.6080  176.8570  147.3110 C   0  0  0  0  0  2  0  0  0  0  0  0
  187.3050  178.0850  147.6230 C   0  0  0  0  0  1  0  0  0  0  0  0
  188.9440  178.1560  148.3970 S   0  0  0  0  0  0  0  0  0  0  0  0
  182.3330  179.3420  138.8440 C   0  0  0  0  0  2  0  0  0  0  0  0
  182.0500  178.0880  138.0230 C   0  0  2  0  0  3  0  0  0  0  0  0
  183.8490  176.2780  137.7090 C   0  0  1  0  0  3  0  0  0  0  0  0
  183.0190  176.4110  136.4490 C   0  0  0  0  0  2  0  0  0  0  0  0
  183.3120  177.6460  137.2780 C   0  0  1  0  0  3  0  0  0  0  0  0
  183.0730  175.6940  138.7150 O   0  0  0  0  0  1  0  0  0  0  0  0
  180.8720  178.2850  137.0650 C   0  0  0  0  0  2  0  0  0  0  0  0
  180.6640  179.7450  136.6910 C   0  0  0  0  0  2  0  0  0  0  0  0
  180.8500  179.9140  135.1980 C   0  0  0  0  0  1  0  0  0  0  0  0
  1  7  1  0  0  0  0
  1 19  1  1  0  0  0
  2  9  1  0  0  0  0
  4  3  1  0  0  0  0
  5 13  1  0  0  0  0
  8  3  1  0  0  0  0
  9 10  2  0  0  0  0
  9  6  1  0  0  0  0
 10  8  1  0  0  0  0
 11 16  2  0  0  0  0
 12  1  1  0  0  0  0
 13  6  2  0  0  0  0
 13  7  1  0  0  0  0
 14  5  1  0  0  0  0
 14 12  1  0  0  0  0
 15  4  1  0  0  0  0
 16 15  1  0  0  0  0
 16 10  1  0  0  0  0
 17  2  1  0  0  0  0
 17  5  2  0  0  0  0
 18 11  1  0  0  0  0
 18  2  2  0  0  0  0
 19 20  1  0  0  0  0
 20 21  1  0  0  0  0
 21 23  1  0  0  0  0
 22 23  1  0  0  0  0
 24 11  1  0  0  0  0
 25 30  1  6  0  0  0
 25 24  1  0  0  0  0
 26 29  1  1  0  0  0
 27 28  1  0  0  0  0
 27 26  1  0  0  0  0
 28 26  1  0  0  0  0
 28 25  1  1  0  0  0
 31 30  1  0  0  0  0
 32 31  1  0  0  0  0
M  END
>  <MODEL>
4

>  <REMARK>
 VINA RESULT:      -7.1      4.728      8.257
  Name = 
  9 active torsions:
  status: ('A' for Active; 'I' for Inactive)
    1  A    between atoms: C_2  and  O_24
    2  A    between atoms: C_6  and  C_7
    3  A    between atoms: C_7  and  C_32
    4  A    between atoms: C_10  and  C_20
    5  A    between atoms: C_10  and  O_24
    6  A    between atoms: C_16  and  C_27
    7  A    between atoms: S_17  and  C_20
    8  A    between atoms: C_22  and  C_32
    9  A    between atoms: C_27  and  C_32
                            x       y       z     vdW  Elec       q    Type
                         _______ _______ _______ _____ _____    ______ ____

>  <TORSDO>
F 9

$$$$
=
 OpenBabel10272413343D

 32 36  0  0  1  0  0  0  0  0999 V2000
  191.7810  176.8620  138.0160 C   0  0  2  0  0  3  0  0  0  0  0  0
  187.7640  178.1500  140.9080 C   0  0  0  0  0  0  0  0  0  0  0  0
  188.9550  177.5840  145.5890 C   0  0  0  0  0  2  0  0  0  0  0  0
  187.5260  178.0100  145.9420 C   0  0  0  0  0  2  0  0  0  0  0  0
  189.2350  177.7040  139.0290 C   0  0  0  0  0  0  0  0  0  0  0  0
  189.7710  176.8280  141.2290 C   0  0  0  0  0  3  0  0  0  0  0  0
  191.3150  176.2760  139.3470 C   0  0  0  0  0  2  0  0  0  0  0  0
  189.2810  177.9170  144.1290 C   0  0  0  0  0  2  0  0  0  0  0  0
  188.6160  177.4190  141.7530 C   0  0  0  0  0  0  0  0  0  0  0  0
  188.2870  177.2160  143.2050 C   0  0  0  0  0  0  0  0  0  0  0  0
  186.0750  178.3310  142.7750 C   0  0  0  0  0  0  0  0  0  0  0  0
  190.6000  176.9460  137.0570 C   0  0  0  0  0  2  0  0  0  0  0  0
  190.0990  176.9800  139.8790 C   0  0  0  0  0  0  0  0  0  0  0  0
  189.5780  177.9490  137.5860 C   0  0  0  0  0  2  0  0  0  0  0  0
  186.5100  177.3330  145.0180 C   0  0  0  0  0  2  0  0  0  0  0  0
  186.8840  177.6200  143.5920 C   0  0  0  0  0  0  0  0  0  0  0  0
  188.0870  178.2990  139.5560 C   0  0  0  0  0  3  0  0  0  0  0  0
  186.5400  178.8350  141.4320 C   0  0  0  0  0  3  0  0  0  0  0  0
  192.7750  176.0490  137.4710 O   0  0  0  0  0  0  0  0  0  0  0  0
  192.3470  174.7430  137.7210 C   0  0  0  0  0  2  0  0  0  0  0  0
  193.4170  173.7530  137.2980 C   0  0  0  0  0  2  0  0  0  0  0  0
  195.6730  172.4630  137.6960 C   0  0  0  0  0  1  0  0  0  0  0  0
  194.9530  174.0410  138.2300 S   0  0  0  0  0  0  0  0  0  0  0  0
  184.7020  178.7410  143.2220 C   0  0  0  0  0  2  0  0  0  0  0  0
  183.6550  178.3750  142.1750 C   0  0  2  0  0  3  0  0  0  0  0  0
  183.7130  177.8500  139.6600 C   0  0  1  0  0  3  0  0  0  0  0  0
  182.9230  179.1190  139.9080 C   0  0  0  0  0  2  0  0  0  0  0  0
  184.1210  178.8070  140.7830 C   0  0  1  0  0  3  0  0  0  0  0  0
  182.9850  176.7530  140.1320 O   0  0  0  0  0  1  0  0  0  0  0  0
  182.2800  178.9600  142.5130 C   0  0  0  0  0  2  0  0  0  0  0  0
  181.9200  178.7880  143.9810 C   0  0  0  0  0  2  0  0  0  0  0  0
  180.4570  178.4180  144.1010 C   0  0  0  0  0  1  0  0  0  0  0  0
  1 19  1  6  0  0  0
  1  7  1  0  0  0  0
  2 18  2  0  0  0  0
  2  9  1  0  0  0  0
  3  4  1  0  0  0  0
  5 17  2  0  0  0  0
  5 13  1  0  0  0  0
  6  9  1  0  0  0  0
  7 13  1  0  0  0  0
  8  3  1  0  0  0  0
  9 10  2  0  0  0  0
 10 16  1  0  0  0  0
 10  8  1  0  0  0  0
 11 24  1  0  0  0  0
 11 16  2  0  0  0  0
 12 14  1  0  0  0  0
 12  1  1  0  0  0  0
 13  6  2  0  0  0  0
 14  5  1  0  0  0  0
 15  4  1  0  0  0  0
 16 15  1  0  0  0  0
 17  2  1  0  0  0  0
 18 11  1  0  0  0  0
 19 20  1  0  0  0  0
 21 20  1  0  0  0  0
 21 23  1  0  0  0  0
 22 23  1  0  0  0  0
 25 30  1  1  0  0  0
 25 24  1  0  0  0  0
 26 27  1  0  0  0  0
 26 29  1  1  0  0  0
 26 28  1  0  0  0  0
 27 28  1  0  0  0  0
 28 25  1  1  0  0  0
 30 31  1  0  0  0  0
 31 32  1  0  0  0  0
M  END
>  <MODEL>
5

>  <REMARK>
 VINA RESULT:      -6.9      3.487      9.549
  Name = 
  9 active torsions:
  status: ('A' for Active; 'I' for Inactive)
    1  A    between atoms: C_2  and  O_24
    2  A    between atoms: C_6  and  C_7
    3  A    between atoms: C_7  and  C_32
    4  A    between atoms: C_10  and  C_20
    5  A    between atoms: C_10  and  O_24
    6  A    between atoms: C_16  and  C_27
    7  A    between atoms: S_17  and  C_20
    8  A    between atoms: C_22  and  C_32
    9  A    between atoms: C_27  and  C_32
                            x       y       z     vdW  Elec       q    Type
                         _______ _______ _______ _____ _____    ______ ____

>  <TORSDO>
F 9

$$$$
=
 OpenBabel10272413343D

 32 36  0  0  1  0  0  0  0  0999 V2000
  189.6910  177.3610  143.9990 C   0  0  2  0  0  3  0  0  0  0  0  0
  185.7080  178.7640  141.1150 C   0  0  0  0  0  0  0  0  0  0  0  0
  181.7540  179.0500  143.9330 C   0  0  0  0  0  2  0  0  0  0  0  0
  180.9570  179.4090  142.6740 C   0  0  0  0  0  2  0  0  0  0  0  0
  187.9260  178.1450  141.8810 C   0  0  0  0  0  0  0  0  0  0  0  0
  185.9860  177.6770  143.2640 C   0  0  0  0  0  3  0  0  0  0  0  0
  188.2220  176.9580  144.1100 C   0  0  0  0  0  2  0  0  0  0  0  0
  183.2600  179.1710  143.6800 C   0  0  0  0  0  2  0  0  0  0  0  0
  185.1510  178.2480  142.2980 C   0  0  0  0  0  0  0  0  0  0  0  0
  183.6660  178.2530  142.5280 C   0  0  0  0  0  0  0  0  0  0  0  0
  183.3880  179.1040  140.1790 C   0  0  0  0  0  0  0  0  0  0  0  0
  190.1550  177.1950  142.5570 C   0  0  0  0  0  2  0  0  0  0  0  0
  187.3710  177.6380  143.0750 C   0  0  0  0  0  0  0  0  0  0  0  0
  189.4130  178.1830  141.6620 C   0  0  0  0  0  2  0  0  0  0  0  0
  181.3570  178.5140  141.4990 C   0  0  0  0  0  2  0  0  0  0  0  0
  182.8450  178.5990  141.3090 C   0  0  0  0  0  0  0  0  0  0  0  0
  187.0910  178.7220  140.9220 C   0  0  0  0  0  3  0  0  0  0  0  0
  184.8580  179.4230  140.0730 C   0  0  0  0  0  3  0  0  0  0  0  0
  190.4610  176.5540  144.8380 O   0  0  0  0  0  0  0  0  0  0  0  0
  190.8760  177.4030  145.8670 C   0  0  0  0  0  2  0  0  0  0  0  0
  190.5590  176.7810  147.2160 C   0  0  0  0  0  2  0  0  0  0  0  0
  189.0080  178.3960  148.5930 C   0  0  0  0  0  1  0  0  0  0  0  0
  188.7810  176.9120  147.5740 S   0  0  0  0  0  0  0  0  0  0  0  0
  182.5230  179.4680  139.0070 C   0  0  0  0  0  2  0  0  0  0  0  0
  182.4850  178.3380  137.9840 C   0  0  2  0  0  3  0  0  0  0  0  0
  180.4280  177.7540  136.5570 C   0  0  1  0  0  3  0  0  0  0  0  0
  181.1030  176.4870  137.0400 C   0  0  0  0  0  2  0  0  0  0  0  0
  181.0910  177.7090  137.9370 C   0  0  1  0  0  3  0  0  0  0  0  0
  181.2360  178.3710  135.5980 O   0  0  0  0  0  1  0  0  0  0  0  0
  183.5660  177.2870  138.2520 C   0  0  0  0  0  2  0  0  0  0  0  0
  184.4710  177.0620  137.0490 C   0  0  0  0  0  2  0  0  0  0  0  0
  185.8760  177.5150  137.3830 C   0  0  0  0  0  1  0  0  0  0  0  0
  1  7  1  0  0  0  0
  1 19  1  1  0  0  0
  2  9  1  0  0  0  0
  4  3  1  0  0  0  0
  5 13  1  0  0  0  0
  8  3  1  0  0  0  0
  9 10  2  0  0  0  0
  9  6  1  0  0  0  0
 10  8  1  0  0  0  0
 11 16  2  0  0  0  0
 12  1  1  0  0  0  0
 13  6  2  0  0  0  0
 13  7  1  0  0  0  0
 14  5  1  0  0  0  0
 14 12  1  0  0  0  0
 15  4  1  0  0  0  0
 16 15  1  0  0  0  0
 16 10  1  0  0  0  0
 17  2  1  0  0  0  0
 17  5  2  0  0  0  0
 18 11  1  0  0  0  0
 18  2  2  0  0  0  0
 19 20  1  0  0  0  0
 20 21  1  0  0  0  0
 21 23  1  0  0  0  0
 23 22  1  0  0  0  0
 24 11  1  0  0  0  0
 25 30  1  1  0  0  0
 25 24  1  0  0  0  0
 26 29  1  6  0  0  0
 26 27  1  0  0  0  0
 26 28  1  0  0  0  0
 27 28  1  0  0  0  0
 28 25  1  6  0  0  0
 31 32  1  0  0  0  0
 31 30  1  0  0  0  0
M  END
>  <MODEL>
6

>  <REMARK>
 VINA RESULT:      -6.6      4.428      8.291
  Name = 
  9 active torsions:
  status: ('A' for Active; 'I' for Inactive)
    1  A    between atoms: C_2  and  O_24
    2  A    between atoms: C_6  and  C_7
    3  A    between atoms: C_7  and  C_32
    4  A    between atoms: C_10  and  C_20
    5  A    between atoms: C_10  and  O_24
    6  A    between atoms: C_16  and  C_27
    7  A    between atoms: S_17  and  C_20
    8  A    between atoms: C_22  and  C_32
    9  A    between atoms: C_27  and  C_32
                            x       y       z     vdW  Elec       q    Type
                         _______ _______ _______ _____ _____    ______ ____

>  <TORSDO>
F 9

$$$$
=
 OpenBabel10272413343D

 32 36  0  0  1  0  0  0  0  0999 V2000
  187.6350  177.6630  145.9280 C   0  0  2  0  0  3  0  0  0  0  0  0
  187.0340  178.0210  140.8620 C   0  0  0  0  0  0  0  0  0  0  0  0
  191.1450  176.5910  138.6910 C   0  0  0  0  0  2  0  0  0  0  0  0
  190.4810  176.9240  137.3500 C   0  0  0  0  0  2  0  0  0  0  0  0
  186.6730  178.0870  143.2620 C   0  0  0  0  0  0  0  0  0  0  0  0
  188.9270  177.9170  142.3750 C   0  0  0  0  0  3  0  0  0  0  0  0
  188.6550  178.0300  144.8530 C   0  0  0  0  0  2  0  0  0  0  0  0
  190.1070  176.5380  139.8170 C   0  0  0  0  0  2  0  0  0  0  0  0
  188.4210  177.9240  141.0700 C   0  0  0  0  0  0  0  0  0  0  0  0
  189.3810  177.8780  139.9150 C   0  0  0  0  0  0  0  0  0  0  0  0
  187.4290  178.2860  138.3830 C   0  0  0  0  0  0  0  0  0  0  0  0
  186.3680  178.4850  145.7260 C   0  0  0  0  0  2  0  0  0  0  0  0
  188.0640  177.9780  143.4730 C   0  0  0  0  0  0  0  0  0  0  0  0
  185.7030  178.0900  144.4100 C   0  0  0  0  0  2  0  0  0  0  0  0
  189.7320  178.2570  137.4270 C   0  0  0  0  0  2  0  0  0  0  0  0
  188.7650  178.2050  138.5750 C   0  0  0  0  0  0  0  0  0  0  0  0
  186.1700  178.0870  141.9590 C   0  0  0  0  0  3  0  0  0  0  0  0
  186.4450  177.9890  139.4860 C   0  0  0  0  0  3  0  0  0  0  0  0
  188.1710  177.9250  147.1890 O   0  0  0  0  0  0  0  0  0  0  0  0
  188.9900  176.8280  147.4650 C   0  0  0  0  0  2  0  0  0  0  0  0
  190.4110  177.2910  147.7320 C   0  0  0  0  0  2  0  0  0  0  0  0
  192.5590  175.7810  147.8500 C   0  0  0  0  0  1  0  0  0  0  0  0
  191.5590  176.5380  146.5390 S   0  0  0  0  0  0  0  0  0  0  0  0
  186.8660  178.5760  137.0220 C   0  0  0  0  0  2  0  0  0  0  0  0
  186.2480  177.3230  136.4090 C   0  0  2  0  0  3  0  0  0  0  0  0
  187.8130  175.4610  135.5790 C   0  0  1  0  0  3  0  0  0  0  0  0
  186.5570  175.5010  134.7320 C   0  0  0  0  0  2  0  0  0  0  0  0
  187.1290  176.7970  135.2740 C   0  0  1  0  0  3  0  0  0  0  0  0
  187.4960  174.9780  136.8520 O   0  0  0  0  0  1  0  0  0  0  0  0
  184.8110  177.5660  135.9380 C   0  0  0  0  0  2  0  0  0  0  0  0
  183.7810  177.1950  136.9960 C   0  0  0  0  0  2  0  0  0  0  0  0
  184.0710  175.8020  137.5130 C   0  0  0  0  0  1  0  0  0  0  0  0
  1 19  1  1  0  0  0
  2  9  1  0  0  0  0
  2 17  1  0  0  0  0
  3  8  1  0  0  0  0
  4 15  1  0  0  0  0
  4  3  1  0  0  0  0
  5 13  1  0  0  0  0
  5 14  1  0  0  0  0
  6 13  2  0  0  0  0
  7  1  1  0  0  0  0
  8 10  1  0  0  0  0
  9  6  1  0  0  0  0
 10  9  2  0  0  0  0
 11 16  2  0  0  0  0
 11 18  1  0  0  0  0
 12  1  1  0  0  0  0
 13  7  1  0  0  0  0
 14 12  1  0  0  0  0
 15 16  1  0  0  0  0
 16 10  1  0  0  0  0
 17  5  2  0  0  0  0
 18  2  2  0  0  0  0
 19 20  1  0  0  0  0
 20 21  1  0  0  0  0
 23 21  1  0  0  0  0
 23 22  1  0  0  0  0
 24 11  1  0  0  0  0
 25 30  1  6  0  0  0
 25 24  1  0  0  0  0
 26 29  1  1  0  0  0
 27 28  1  0  0  0  0
 27 26  1  0  0  0  0
 28 26  1  0  0  0  0
 28 25  1  1  0  0  0
 30 31  1  0  0  0  0
 31 32  1  0  0  0  0
M  END
>  <MODEL>
7

>  <REMARK>
 VINA RESULT:      -6.5      3.052      5.562
  Name = 
  9 active torsions:
  status: ('A' for Active; 'I' for Inactive)
    1  A    between atoms: C_2  and  O_24
    2  A    between atoms: C_6  and  C_7
    3  A    between atoms: C_7  and  C_32
    4  A    between atoms: C_10  and  C_20
    5  A    between atoms: C_10  and  O_24
    6  A    between atoms: C_16  and  C_27
    7  A    between atoms: S_17  and  C_20
    8  A    between atoms: C_22  and  C_32
    9  A    between atoms: C_27  and  C_32
                            x       y       z     vdW  Elec       q    Type
                         _______ _______ _______ _____ _____    ______ ____

>  <TORSDO>
F 9

$$$$
=
 OpenBabel10272413343D

 32 36  0  0  1  0  0  0  0  0999 V2000
  190.8510  177.3210  144.2400 C   0  0  2  0  0  3  0  0  0  0  0  0
  189.0300  177.3170  139.4620 C   0  0  0  0  0  0  0  0  0  0  0  0
  192.0510  174.7630  136.6330 C   0  0  0  0  0  2  0  0  0  0  0  0
  191.1410  175.1110  135.4500 C   0  0  0  0  0  2  0  0  0  0  0  0
  189.3300  177.6980  141.8400 C   0  0  0  0  0  0  0  0  0  0  0  0
  191.1910  176.9200  140.4870 C   0  0  0  0  0  3  0  0  0  0  0  0
  191.6060  177.3330  142.9130 C   0  0  0  0  0  2  0  0  0  0  0  0
  191.3560  175.0620  137.9650 C   0  0  0  0  0  2  0  0  0  0  0  0
  190.3730  176.9190  139.3510 C   0  0  0  0  0  0  0  0  0  0  0  0
  190.9670  176.5390  138.0250 C   0  0  0  0  0  0  0  0  0  0  0  0
  188.8070  177.2420  136.9480 C   0  0  0  0  0  0  0  0  0  0  0  0
  189.7680  178.3930  144.2170 C   0  0  0  0  0  2  0  0  0  0  0  0
  190.6770  177.2870  141.7340 C   0  0  0  0  0  0  0  0  0  0  0  0
  188.7170  178.0390  143.1690 C   0  0  0  0  0  2  0  0  0  0  0  0
  190.7230  176.5820  135.4960 C   0  0  0  0  0  2  0  0  0  0  0  0
  190.1010  176.8700  136.8320 C   0  0  0  0  0  0  0  0  0  0  0  0
  188.5150  177.6890  140.7060 C   0  0  0  0  0  3  0  0  0  0  0  0
  188.1070  177.2920  138.2830 C   0  0  0  0  0  3  0  0  0  0  0  0
  191.7400  177.5710  145.2860 O   0  0  0  0  0  0  0  0  0  0  0  0
  191.6070  176.4720  146.1390 C   0  0  0  0  0  2  0  0  0  0  0  0
  191.0300  176.9140  147.4720 C   0  0  0  0  0  2  0  0  0  0  0  0
  188.9840  178.3490  148.2870 C   0  0  0  0  0  1  0  0  0  0  0  0
  189.2190  176.7460  147.4680 S   0  0  0  0  0  0  0  0  0  0  0  0
  187.9770  177.5230  135.7290 C   0  0  0  0  0  2  0  0  0  0  0  0
  186.8960  176.4620  135.5480 C   0  0  2  0  0  3  0  0  0  0  0  0
  187.6670  174.0460  135.1320 C   0  0  1  0  0  3  0  0  0  0  0  0
  186.3320  174.2890  134.4580 C   0  0  0  0  0  2  0  0  0  0  0  0
  187.3450  175.4150  134.5260 C   0  0  1  0  0  3  0  0  0  0  0  0
  187.4880  174.0200  136.5180 O   0  0  0  0  0  1  0  0  0  0  0  0
  185.5480  177.0790  135.1640 C   0  0  0  0  0  2  0  0  0  0  0  0
  184.6410  177.2880  136.3680 C   0  0  0  0  0  2  0  0  0  0  0  0
  184.7290  176.0830  137.2810 C   0  0  0  0  0  1  0  0  0  0  0  0
  1 19  1  1  0  0  0
  2 17  1  0  0  0  0
  3  8  1  0  0  0  0
  4 15  1  0  0  0  0
  4  3  1  0  0  0  0
  5 14  1  0  0  0  0
  6 13  2  0  0  0  0
  7  1  1  0  0  0  0
  8 10  1  0  0  0  0
  9  2  1  0  0  0  0
  9  6  1  0  0  0  0
 10  9  2  0  0  0  0
 11 18  1  0  0  0  0
 12  1  1  0  0  0  0
 13  5  1  0  0  0  0
 13  7  1  0  0  0  0
 14 12  1  0  0  0  0
 15 16  1  0  0  0  0
 16 11  2  0  0  0  0
 16 10  1  0  0  0  0
 17  5  2  0  0  0  0
 18  2  2  0  0  0  0
 19 20  1  0  0  0  0
 20 21  1  0  0  0  0
 23 21  1  0  0  0  0
 23 22  1  0  0  0  0
 24 11  1  0  0  0  0
 25 30  1  6  0  0  0
 25 24  1  0  0  0  0
 26 29  1  1  0  0  0
 27 28  1  0  0  0  0
 27 26  1  0  0  0  0
 28 26  1  0  0  0  0
 28 25  1  1  0  0  0
 30 31  1  0  0  0  0
 31 32  1  0  0  0  0
M  END
>  <MODEL>
8

>  <REMARK>
 VINA RESULT:      -6.4      2.861      5.183
  Name = 
  9 active torsions:
  status: ('A' for Active; 'I' for Inactive)
    1  A    between atoms: C_2  and  O_24
    2  A    between atoms: C_6  and  C_7
    3  A    between atoms: C_7  and  C_32
    4  A    between atoms: C_10  and  C_20
    5  A    between atoms: C_10  and  O_24
    6  A    between atoms: C_16  and  C_27
    7  A    between atoms: S_17  and  C_20
    8  A    between atoms: C_22  and  C_32
    9  A    between atoms: C_27  and  C_32
                            x       y       z     vdW  Elec       q    Type
                         _______ _______ _______ _____ _____    ______ ____

>  <TORSDO>
F 9

$$$$
=
 OpenBabel10272413343D

 32 36  0  0  1  0  0  0  0  0999 V2000
  190.7680  176.5370  136.3320 C   0  0  2  0  0  3  0  0  0  0  0  0
  188.7820  178.0540  140.7940 C   0  0  0  0  0  0  0  0  0  0  0  0
  191.6070  176.4250  144.4020 C   0  0  0  0  0  2  0  0  0  0  0  0
  190.6130  177.0560  145.3840 C   0  0  0  0  0  2  0  0  0  0  0  0
  189.1780  177.6720  138.4300 C   0  0  0  0  0  0  0  0  0  0  0  0
  190.3270  176.3230  140.0890 C   0  0  0  0  0  3  0  0  0  0  0  0
  190.7570  175.8250  137.6820 C   0  0  0  0  0  2  0  0  0  0  0  0
  191.3750  176.9450  142.9800 C   0  0  0  0  0  2  0  0  0  0  0  0
  189.6870  177.0270  141.1150 C   0  0  0  0  0  0  0  0  0  0  0  0
  189.9450  176.6350  142.5420 C   0  0  0  0  0  0  0  0  0  0  0  0
  188.1230  178.2270  143.2240 C   0  0  0  0  0  0  0  0  0  0  0  0
  189.3620  177.0270  136.0050 C   0  0  0  0  0  2  0  0  0  0  0  0
  190.0960  176.6490  138.7500 C   0  0  0  0  0  0  0  0  0  0  0  0
  188.9460  178.1000  137.0070 C   0  0  0  0  0  2  0  0  0  0  0  0
  189.1700  176.7730  144.9580 C   0  0  0  0  0  2  0  0  0  0  0  0
  188.9830  177.2330  143.5410 C   0  0  0  0  0  0  0  0  0  0  0  0
  188.5460  178.3780  139.4550 C   0  0  0  0  0  3  0  0  0  0  0  0
  188.1060  178.8630  141.8570 C   0  0  0  0  0  3  0  0  0  0  0  0
  191.2010  175.6560  135.3410 O   0  0  0  0  0  0  0  0  0  0  0  0
  191.8180  174.6120  136.0360 C   0  0  0  0  0  2  0  0  0  0  0  0
  192.4590  173.6420  135.0600 C   0  0  0  0  0  2  0  0  0  0  0  0
  193.8720  173.8640  137.2660 C   0  0  0  0  0  1  0  0  0  0  0  0
  193.7830  172.6990  135.8780 S   0  0  0  0  0  0  0  0  0  0  0  0
  187.2140  178.8150  144.2640 C   0  0  0  0  0  2  0  0  0  0  0  0
  185.8050  178.2410  144.1450 C   0  0  2  0  0  3  0  0  0  0  0  0
  184.1410  178.9280  142.3100 C   0  0  1  0  0  3  0  0  0  0  0  0
  183.4210  178.7740  143.6340 C   0  0  0  0  0  2  0  0  0  0  0  0
  184.8410  179.3070  143.6190 C   0  0  1  0  0  3  0  0  0  0  0  0
  184.5280  177.6680  141.8440 O   0  0  0  0  0  1  0  0  0  0  0  0
  185.3170  177.6460  145.4680 C   0  0  0  0  0  2  0  0  0  0  0  0
  185.5790  178.5660  146.6520 C   0  0  0  0  0  2  0  0  0  0  0  0
  186.7540  178.0380  147.4480 C   0  0  0  0  0  1  0  0  0  0  0  0
  1 19  1  6  0  0  0
  1  7  1  0  0  0  0
  2  9  1  0  0  0  0
  2 18  1  0  0  0  0
  3  4  1  0  0  0  0
  5 13  2  0  0  0  0
  5 17  1  0  0  0  0
  6  9  2  0  0  0  0
  7 13  1  0  0  0  0
  8  3  1  0  0  0  0
  9 10  1  0  0  0  0
 10  8  1  0  0  0  0
 10 16  2  0  0  0  0
 11 16  1  0  0  0  0
 11 24  1  0  0  0  0
 12  1  1  0  0  0  0
 12 14  1  0  0  0  0
 13  6  1  0  0  0  0
 14  5  1  0  0  0  0
 15  4  1  0  0  0  0
 16 15  1  0  0  0  0
 17  2  2  0  0  0  0
 18 11  2  0  0  0  0
 19 20  1  0  0  0  0
 21 23  1  0  0  0  0
 21 20  1  0  0  0  0
 23 22  1  0  0  0  0
 25 24  1  1  0  0  0
 25 30  1  0  0  0  0
 26 29  1  1  0  0  0
 26 28  1  0  0  0  0
 26 27  1  0  0  0  0
 28 27  1  0  0  0  0
 28 25  1  1  0  0  0
 30 31  1  0  0  0  0
 31 32  1  0  0  0  0
M  END
>  <MODEL>
9

>  <REMARK>
 VINA RESULT:      -6.4      3.213      9.546
  Name = 
  9 active torsions:
  status: ('A' for Active; 'I' for Inactive)
    1  A    between atoms: C_2  and  O_24
    2  A    between atoms: C_6  and  C_7
    3  A    between atoms: C_7  and  C_32
    4  A    between atoms: C_10  and  C_20
    5  A    between atoms: C_10  and  O_24
    6  A    between atoms: C_16  and  C_27
    7  A    between atoms: S_17  and  C_20
    8  A    between atoms: C_22  and  C_32
    9  A    between atoms: C_27  and  C_32
                            x       y       z     vdW  Elec       q    Type
                         _______ _______ _______ _____ _____    ______ ____

>  <TORSDO>
F 9

$$$$
