=
 OpenBabel10272415213D

 34 38  0  0  1  0  0  0  0  0999 V2000
  187.2600  177.4620  144.6810 C   0  0  0  0  0  0  0  0  0  0  0  0
  183.7700  179.0610  145.0470 C   0  0  0  0  0  2  0  0  0  0  0  0
  185.5990  178.4840  146.6350 O   0  0  0  0  0  0  0  0  0  0  0  0
  189.3410  177.5650  143.2070 C   0  0  2  0  0  3  0  0  0  0  0  0
  188.0880  176.7720  143.6240 C   0  0  0  0  0  2  0  0  0  0  0  0
  190.2740  177.7000  145.6060 C   0  0  0  0  0  2  0  0  0  0  0  0
  189.3450  176.8100  147.7580 C   0  0  0  0  0  1  0  0  0  0  0  0
  189.9310  178.4510  144.3130 C   0  0  0  0  0  2  0  0  0  0  0  0
  186.9830  178.3600  146.9660 C   0  0  0  0  0  2  0  0  0  0  0  0
  187.7360  177.5530  145.9390 C   0  0  0  0  0  0  0  0  0  0  0  0
  189.0950  176.9680  146.2670 C   0  0  1  0  0  3  0  0  0  0  0  0
  183.2230  178.6800  143.6730 C   0  0  2  0  0  3  0  0  0  0  0  0
  184.2920  178.8840  142.6100 C   0  0  0  0  0  2  0  0  0  0  0  0
  185.1420  178.4980  145.3130 C   0  0  0  0  0  0  0  0  0  0  0  0
  185.4570  177.9480  142.8980 C   0  0  0  0  0  2  0  0  0  0  0  0
  185.9410  178.0390  144.3260 C   0  0  0  0  0  0  0  0  0  0  0  0
  189.0380  178.4360  141.9950 C   0  0  0  0  0  2  0  0  0  0  0  0
  190.6910  176.2410  139.3930 C   0  0  0  0  0  3  0  0  0  0  0  0
  188.3890  177.7950  139.6620 C   0  0  0  0  0  3  0  0  0  0  0  0
  189.8030  176.3510  138.3100 C   0  0  0  0  0  0  0  0  0  0  0  0
  188.6270  177.1170  138.4550 C   0  0  0  0  0  0  0  0  0  0  0  0
  189.2930  177.7000  140.7230 C   0  0  0  0  0  0  0  0  0  0  0  0
  190.4410  176.9170  140.5880 C   0  0  0  0  0  3  0  0  0  0  0  0
  190.6790  174.3810  137.3370 N   0  0  0  0  0  0  0  0  0  0  0  0
  189.3100  174.4390  137.0040 C   0  0  0  0  0  0  0  0  0  0  0  0
  190.0710  175.5710  137.0480 C   0  0  1  0  0  3  0  0  0  0  0  0
  187.9480  172.3560  136.9460 C   0  0  0  0  0  1  0  0  0  0  0  0
  188.0600  173.7930  136.7900 N   0  0  0  0  0  2  0  0  0  0  0  0
  187.7110  177.1910  137.3990 O   0  0  0  0  0  0  0  0  0  0  0  0
  186.3770  177.6530  137.5660 C   0  0  0  0  0  1  0  0  0  0  0  0
  181.9570  179.4700  143.3470 C   0  0  0  0  0  2  0  0  0  0  0  0
  179.9820  178.3250  143.8320 C   0  0  0  0  0  1  0  0  0  0  0  0
  180.2210  179.4120  141.7880 C   0  0  0  0  0  1  0  0  0  0  0  0
  180.9300  178.6130  142.7710 N   0  0  0  0  0  0  0  0  0  0  0  0
  1 10  2  0  0  0  0
  2 14  1  0  0  0  0
  3  9  1  0  0  0  0
  4 17  1  6  0  0  0
  4  5  1  0  0  0  0
  4  8  1  0  0  0  0
  5  1  1  0  0  0  0
  6 11  1  0  0  0  0
  8  6  1  0  0  0  0
 10 11  1  0  0  0  0
 10  9  1  0  0  0  0
 11  7  1  1  0  0  0
 12 31  1  6  0  0  0
 12  2  1  0  0  0  0
 13 15  1  0  0  0  0
 13 12  1  0  0  0  0
 14  3  1  0  0  0  0
 15 16  1  0  0  0  0
 16  1  1  0  0  0  0
 16 14  2  0  0  0  0
 18 23  1  0  0  0  0
 19 22  1  0  0  0  0
 20 21  1  0  0  0  0
 20 18  2  0  0  0  0
 21 19  2  0  0  0  0
 22 17  1  0  0  0  0
 23 22  2  0  0  0  0
 25 26  1  0  0  0  0
 25 24  2  0  0  0  0
 26 24  1  0  0  0  0
 26 20  1  1  0  0  0
 28 27  1  0  0  0  0
 28 25  1  0  0  0  0
 29 30  1  0  0  0  0
 29 21  1  0  0  0  0
 33 34  1  0  0  0  0
 34 31  1  0  0  0  0
 34 32  1  0  0  0  0
M  END
>  <MODEL>
1

>  <REMARK>
 VINA RESULT:     -10.2      0.000      0.000
  Name = 
  6 active torsions:
  status: ('A' for Active; 'I' for Inactive)
    1  A    between atoms: C_8  and  C_18
    2  A    between atoms: C_14  and  C_16
    3  A    between atoms: C_18  and  C_30
    4  A    between atoms: C_23  and  N_24
    5  A    between atoms: C_23  and  C_25
    6  A    between atoms: O_26  and  C_28
                            x       y       z     vdW  Elec       q    Type
                         _______ _______ _______ _____ _____    ______ ____

>  <TORSDO>
F 6

$$$$
=
 OpenBabel10272415213D

 34 38  0  0  1  0  0  0  0  0999 V2000
  187.3550  177.4710  144.6300 C   0  0  0  0  0  0  0  0  0  0  0  0
  183.8810  179.0370  145.2190 C   0  0  0  0  0  2  0  0  0  0  0  0
  185.7850  178.4140  146.6970 O   0  0  0  0  0  0  0  0  0  0  0  0
  189.3630  177.6370  143.0640 C   0  0  2  0  0  3  0  0  0  0  0  0
  188.1340  176.8230  143.5110 C   0  0  0  0  0  2  0  0  0  0  0  0
  190.4090  177.6920  145.4190 C   0  0  0  0  0  2  0  0  0  0  0  0
  189.5870  176.7210  147.5790 C   0  0  0  0  0  1  0  0  0  0  0  0
  190.0020  178.4860  144.1710 C   0  0  0  0  0  2  0  0  0  0  0  0
  187.1840  178.2860  146.9570 C   0  0  0  0  0  2  0  0  0  0  0  0
  187.8900  177.5190  145.8670 C   0  0  0  0  0  0  0  0  0  0  0  0
  189.2650  176.9300  146.1080 C   0  0  1  0  0  3  0  0  0  0  0  0
  183.2700  178.7030  143.8590 C   0  0  2  0  0  3  0  0  0  0  0  0
  184.2860  178.9500  142.7550 C   0  0  0  0  0  2  0  0  0  0  0  0
  185.2660  178.4720  145.3990 C   0  0  0  0  0  0  0  0  0  0  0  0
  185.4670  178.0100  142.9540 C   0  0  0  0  0  2  0  0  0  0  0  0
  186.0190  178.0530  144.3590 C   0  0  0  0  0  0  0  0  0  0  0  0
  189.0000  178.5490  141.8990 C   0  0  0  0  0  2  0  0  0  0  0  0
  190.5140  176.4890  139.1100 C   0  0  0  0  0  3  0  0  0  0  0  0
  188.1780  177.9270  139.6160 C   0  0  0  0  0  3  0  0  0  0  0  0
  189.5310  176.5800  138.1110 C   0  0  0  0  0  0  0  0  0  0  0  0
  188.3390  177.2870  138.3760 C   0  0  0  0  0  0  0  0  0  0  0  0
  189.1750  177.8520  140.5920 C   0  0  0  0  0  0  0  0  0  0  0  0
  190.3410  177.1280  140.3380 C   0  0  0  0  0  3  0  0  0  0  0  0
  190.8500  176.2700  136.1720 N   0  0  0  0  0  0  0  0  0  0  0  0
  190.8270  175.0410  136.8620 C   0  0  0  0  0  0  0  0  0  0  0  0
  189.7210  175.8400  136.8120 C   0  0  1  0  0  3  0  0  0  0  0  0
  192.8650  173.6150  136.9470 C   0  0  0  0  0  1  0  0  0  0  0  0
  191.4780  173.8530  137.2970 N   0  0  0  0  0  2  0  0  0  0  0  0
  187.3310  177.3390  137.4060 O   0  0  0  0  0  0  0  0  0  0  0  0
  187.2600  178.3630  136.4230 C   0  0  0  0  0  1  0  0  0  0  0  0
  181.9870  179.4960  143.6230 C   0  0  0  0  0  2  0  0  0  0  0  0
  179.9830  178.3810  144.0530 C   0  0  0  0  0  1  0  0  0  0  0  0
  180.2780  179.4980  142.0330 C   0  0  0  0  0  1  0  0  0  0  0  0
  180.9550  178.6690  143.0140 N   0  0  0  0  0  0  0  0  0  0  0  0
  1 10  2  0  0  0  0
  2 14  1  0  0  0  0
  3  9  1  0  0  0  0
  4 17  1  6  0  0  0
  4  5  1  0  0  0  0
  4  8  1  0  0  0  0
  5  1  1  0  0  0  0
  6 11  1  0  0  0  0
  8  6  1  0  0  0  0
 10 11  1  0  0  0  0
 10  9  1  0  0  0  0
 11  7  1  1  0  0  0
 12 31  1  6  0  0  0
 12  2  1  0  0  0  0
 13 15  1  0  0  0  0
 13 12  1  0  0  0  0
 14  3  1  0  0  0  0
 15 16  1  0  0  0  0
 16  1  1  0  0  0  0
 16 14  2  0  0  0  0
 18 23  1  0  0  0  0
 19 22  1  0  0  0  0
 20 21  1  0  0  0  0
 20 18  2  0  0  0  0
 21 19  2  0  0  0  0
 22 17  1  0  0  0  0
 23 22  2  0  0  0  0
 24 26  1  0  0  0  0
 24 25  2  0  0  0  0
 25 28  1  0  0  0  0
 26 25  1  0  0  0  0
 26 20  1  1  0  0  0
 27 28  1  0  0  0  0
 29 21  1  0  0  0  0
 30 29  1  0  0  0  0
 33 34  1  0  0  0  0
 34 31  1  0  0  0  0
 34 32  1  0  0  0  0
M  END
>  <MODEL>
2

>  <REMARK>
 VINA RESULT:     -10.1      1.013      1.211
  Name = 
  6 active torsions:
  status: ('A' for Active; 'I' for Inactive)
    1  A    between atoms: C_8  and  C_18
    2  A    between atoms: C_14  and  C_16
    3  A    between atoms: C_18  and  C_30
    4  A    between atoms: C_23  and  N_24
    5  A    between atoms: C_23  and  C_25
    6  A    between atoms: O_26  and  C_28
                            x       y       z     vdW  Elec       q    Type
                         _______ _______ _______ _____ _____    ______ ____

>  <TORSDO>
F 6

$$$$
=
 OpenBabel10272415213D

 34 38  0  0  1  0  0  0  0  0999 V2000
  187.7340  177.4100  144.5890 C   0  0  0  0  0  0  0  0  0  0  0  0
  184.2580  178.8730  145.3960 C   0  0  0  0  0  2  0  0  0  0  0  0
  186.2480  178.2520  146.7580 O   0  0  0  0  0  0  0  0  0  0  0  0
  189.6570  177.6720  142.9320 C   0  0  2  0  0  3  0  0  0  0  0  0
  188.4710  176.8150  143.4140 C   0  0  0  0  0  2  0  0  0  0  0  0
  190.8180  177.6820  145.2330 C   0  0  0  0  0  2  0  0  0  0  0  0
  190.1260  176.6270  147.4000 C   0  0  0  0  0  1  0  0  0  0  0  0
  190.3300  178.5040  144.0330 C   0  0  0  0  0  2  0  0  0  0  0  0
  187.6600  178.1510  146.9460 C   0  0  0  0  0  2  0  0  0  0  0  0
  188.3280  177.4350  145.7990 C   0  0  0  0  0  0  0  0  0  0  0  0
  189.7270  176.8720  145.9540 C   0  0  1  0  0  3  0  0  0  0  0  0
  183.5880  178.5640  144.0580 C   0  0  2  0  0  3  0  0  0  0  0  0
  184.5420  178.8690  142.9140 C   0  0  0  0  0  2  0  0  0  0  0  0
  185.6630  178.3370  145.4900 C   0  0  0  0  0  0  0  0  0  0  0  0
  185.7530  177.9520  143.0250 C   0  0  0  0  0  2  0  0  0  0  0  0
  186.3730  177.9670  144.4020 C   0  0  0  0  0  0  0  0  0  0  0  0
  189.2150  178.6090  141.8150 C   0  0  0  0  0  2  0  0  0  0  0  0
  188.0300  177.3030  138.4680 C   0  0  0  0  0  3  0  0  0  0  0  0
  190.3130  177.1890  140.0680 C   0  0  0  0  0  3  0  0  0  0  0  0
  189.1360  176.5520  138.0370 C   0  0  0  0  0  0  0  0  0  0  0  0
  190.2990  176.5150  138.8350 C   0  0  0  0  0  0  0  0  0  0  0  0
  189.1960  177.9100  140.4980 C   0  0  0  0  0  0  0  0  0  0  0  0
  188.0570  177.9700  139.6930 C   0  0  0  0  0  3  0  0  0  0  0  0
  187.8840  175.2950  136.4730 N   0  0  0  0  0  0  0  0  0  0  0  0
  188.2250  176.5140  135.8520 C   0  0  0  0  0  0  0  0  0  0  0  0
  189.1000  175.8820  136.6880 C   0  0  1  0  0  3  0  0  0  0  0  0
  186.6000  177.6480  134.3470 C   0  0  0  0  0  1  0  0  0  0  0  0
  187.8950  177.6020  134.9970 N   0  0  0  0  0  2  0  0  0  0  0  0
  191.4260  175.8130  138.3900 O   0  0  0  0  0  0  0  0  0  0  0  0
  192.7060  176.4150  138.2520 C   0  0  0  0  0  1  0  0  0  0  0  0
  182.2770  179.3330  143.9090 C   0  0  0  0  0  2  0  0  0  0  0  0
  180.0610  178.6110  144.0300 C   0  0  0  0  0  1  0  0  0  0  0  0
  180.9760  179.2110  141.9750 C   0  0  0  0  0  1  0  0  0  0  0  0
  181.2690  178.5360  143.2270 N   0  0  0  0  0  0  0  0  0  0  0  0
  1 10  2  0  0  0  0
  2 14  1  0  0  0  0
  3  9  1  0  0  0  0
  4 17  1  6  0  0  0
  4  5  1  0  0  0  0
  4  8  1  0  0  0  0
  5  1  1  0  0  0  0
  6 11  1  0  0  0  0
  8  6  1  0  0  0  0
 10 11  1  0  0  0  0
 10  9  1  0  0  0  0
 11  7  1  1  0  0  0
 12 31  1  6  0  0  0
 12  2  1  0  0  0  0
 13 15  1  0  0  0  0
 13 12  1  0  0  0  0
 14  3  1  0  0  0  0
 15 16  1  0  0  0  0
 16  1  1  0  0  0  0
 16 14  2  0  0  0  0
 18 23  1  0  0  0  0
 19 22  1  0  0  0  0
 20 18  2  0  0  0  0
 20 21  1  0  0  0  0
 21 19  2  0  0  0  0
 22 17  1  0  0  0  0
 23 22  2  0  0  0  0
 24 26  1  0  0  0  0
 25 24  2  0  0  0  0
 25 26  1  0  0  0  0
 26 20  1  1  0  0  0
 27 28  1  0  0  0  0
 28 25  1  0  0  0  0
 29 21  1  0  0  0  0
 30 29  1  0  0  0  0
 33 34  1  0  0  0  0
 34 31  1  0  0  0  0
 34 32  1  0  0  0  0
M  END
>  <MODEL>
3

>  <REMARK>
 VINA RESULT:      -9.9      1.421      2.185
  Name = 
  6 active torsions:
  status: ('A' for Active; 'I' for Inactive)
    1  A    between atoms: C_8  and  C_18
    2  A    between atoms: C_14  and  C_16
    3  A    between atoms: C_18  and  C_30
    4  A    between atoms: C_23  and  N_24
    5  A    between atoms: C_23  and  C_25
    6  A    between atoms: O_26  and  C_28
                            x       y       z     vdW  Elec       q    Type
                         _______ _______ _______ _____ _____    ______ ____

>  <TORSDO>
F 6

$$$$
=
 OpenBabel10272415213D

 34 38  0  0  1  0  0  0  0  0999 V2000
  188.5750  177.0830  144.1220 C   0  0  0  0  0  0  0  0  0  0  0  0
  185.0430  178.5810  143.7280 C   0  0  0  0  0  2  0  0  0  0  0  0
  186.4920  178.0200  145.6740 O   0  0  0  0  0  0  0  0  0  0  0  0
  190.9260  177.2720  143.1480 C   0  0  2  0  0  3  0  0  0  0  0  0
  189.6360  176.4370  143.2660 C   0  0  0  0  0  2  0  0  0  0  0  0
  191.3010  177.3830  145.6960 C   0  0  0  0  0  2  0  0  0  0  0  0
  189.9460  176.4240  147.5750 C   0  0  0  0  0  1  0  0  0  0  0  0
  191.2290  178.1500  144.3700 C   0  0  0  0  0  2  0  0  0  0  0  0
  187.7710  177.9270  146.3020 C   0  0  0  0  0  2  0  0  0  0  0  0
  188.7570  177.1610  145.4560 C   0  0  0  0  0  0  0  0  0  0  0  0
  190.0280  176.6050  146.0680 C   0  0  1  0  0  3  0  0  0  0  0  0
  184.8250  178.2130  142.2610 C   0  0  2  0  0  3  0  0  0  0  0  0
  186.0960  178.4670  141.4650 C   0  0  0  0  0  2  0  0  0  0  0  0
  186.3380  178.0490  144.2830 C   0  0  0  0  0  0  0  0  0  0  0  0
  187.1970  177.5570  141.9910 C   0  0  0  0  0  2  0  0  0  0  0  0
  187.3500  177.6320  143.4920 C   0  0  0  0  0  0  0  0  0  0  0  0
  190.8730  178.1580  141.9110 C   0  0  0  0  0  2  0  0  0  0  0  0
  193.3310  176.9640  139.2950 C   0  0  0  0  0  3  0  0  0  0  0  0
  190.6250  176.6780  139.9060 C   0  0  0  0  0  3  0  0  0  0  0  0
  192.5120  176.1940  138.4520 C   0  0  0  0  0  0  0  0  0  0  0  0
  191.1490  176.0300  138.7750 C   0  0  0  0  0  0  0  0  0  0  0  0
  191.4430  177.4630  140.7220 C   0  0  0  0  0  0  0  0  0  0  0  0
  192.7990  177.6000  140.4170 C   0  0  0  0  0  3  0  0  0  0  0  0
  194.3710  175.9670  137.0070 N   0  0  0  0  0  0  0  0  0  0  0  0
  194.1980  174.7310  137.6630 C   0  0  0  0  0  0  0  0  0  0  0  0
  193.1230  175.4770  137.2760 C   0  0  1  0  0  3  0  0  0  0  0  0
  196.1800  173.4020  138.3680 C   0  0  0  0  0  1  0  0  0  0  0  0
  194.7430  173.5700  138.2800 N   0  0  0  0  0  2  0  0  0  0  0  0
  190.3360  175.2230  137.9700 O   0  0  0  0  0  0  0  0  0  0  0  0
  189.3050  175.7470  137.1440 C   0  0  0  0  0  1  0  0  0  0  0  0
  183.6400  178.9750  141.6730 C   0  0  0  0  0  2  0  0  0  0  0  0
  182.9190  177.1690  140.3820 C   0  0  0  0  0  1  0  0  0  0  0  0
  182.2170  179.3250  139.8560 C   0  0  0  0  0  1  0  0  0  0  0  0
  183.3590  178.5510  140.3090 N   0  0  0  0  0  0  0  0  0  0  0  0
  1 10  2  0  0  0  0
  2 14  1  0  0  0  0
  3  9  1  0  0  0  0
  4 17  1  6  0  0  0
  4  5  1  0  0  0  0
  4  8  1  0  0  0  0
  5  1  1  0  0  0  0
  6 11  1  0  0  0  0
  8  6  1  0  0  0  0
 10 11  1  0  0  0  0
 10  9  1  0  0  0  0
 11  7  1  1  0  0  0
 12 31  1  6  0  0  0
 12  2  1  0  0  0  0
 13 15  1  0  0  0  0
 13 12  1  0  0  0  0
 14  3  1  0  0  0  0
 15 16  1  0  0  0  0
 16  1  1  0  0  0  0
 16 14  2  0  0  0  0
 18 23  1  0  0  0  0
 19 22  1  0  0  0  0
 20 21  1  0  0  0  0
 20 18  2  0  0  0  0
 21 19  2  0  0  0  0
 22 17  1  0  0  0  0
 23 22  2  0  0  0  0
 24 26  1  0  0  0  0
 24 25  2  0  0  0  0
 25 28  1  0  0  0  0
 26 25  1  0  0  0  0
 26 20  1  1  0  0  0
 28 27  1  0  0  0  0
 29 21  1  0  0  0  0
 30 29  1  0  0  0  0
 33 34  1  0  0  0  0
 34 32  1  0  0  0  0
 34 31  1  0  0  0  0
M  END
>  <MODEL>
4

>  <REMARK>
 VINA RESULT:      -8.5      2.358      3.073
  Name = 
  6 active torsions:
  status: ('A' for Active; 'I' for Inactive)
    1  A    between atoms: C_8  and  C_18
    2  A    between atoms: C_14  and  C_16
    3  A    between atoms: C_18  and  C_30
    4  A    between atoms: C_23  and  N_24
    5  A    between atoms: C_23  and  C_25
    6  A    between atoms: O_26  and  C_28
                            x       y       z     vdW  Elec       q    Type
                         _______ _______ _______ _____ _____    ______ ____

>  <TORSDO>
F 6

$$$$
=
 OpenBabel10272415213D

 34 38  0  0  1  0  0  0  0  0999 V2000
  188.6560  177.4400  138.0520 C   0  0  0  0  0  0  0  0  0  0  0  0
  185.7490  176.1250  135.8860 C   0  0  0  0  0  2  0  0  0  0  0  0
  188.1890  175.6430  136.0080 O   0  0  0  0  0  0  0  0  0  0  0  0
  189.2220  178.0040  140.4750 C   0  0  2  0  0  3  0  0  0  0  0  0
  188.9170  178.5320  139.0610 C   0  0  0  0  0  2  0  0  0  0  0  0
  191.2030  176.5480  139.7000 C   0  0  0  0  0  2  0  0  0  0  0  0
  192.1650  176.2090  137.4100 C   0  0  0  0  0  1  0  0  0  0  0  0
  189.9010  176.6280  140.5090 C   0  0  0  0  0  2  0  0  0  0  0  0
  189.4020  175.4800  136.7450 C   0  0  0  0  0  2  0  0  0  0  0  0
  189.6770  176.6600  137.6420 C   0  0  0  0  0  0  0  0  0  0  0  0
  191.0640  176.8900  138.2080 C   0  0  1  0  0  3  0  0  0  0  0  0
  184.7330  177.2160  136.2190 C   0  0  2  0  0  3  0  0  0  0  0  0
  184.7840  177.5420  137.7040 C   0  0  0  0  0  2  0  0  0  0  0  0
  187.1000  176.3680  136.5060 C   0  0  0  0  0  0  0  0  0  0  0  0
  186.1610  178.1010  138.0380 C   0  0  0  0  0  2  0  0  0  0  0  0
  187.2850  177.2300  137.5290 C   0  0  0  0  0  0  0  0  0  0  0  0
  187.9460  177.9380  141.3040 C   0  0  0  0  0  2  0  0  0  0  0  0
  189.8490  178.0090  144.5730 C   0  0  0  0  0  3  0  0  0  0  0  0
  187.2270  177.6640  143.6870 C   0  0  0  0  0  3  0  0  0  0  0  0
  188.8340  177.7540  145.5090 C   0  0  0  0  0  0  0  0  0  0  0  0
  187.5040  177.6040  145.0630 C   0  0  0  0  0  0  0  0  0  0  0  0
  188.2490  177.8910  142.7630 C   0  0  0  0  0  0  0  0  0  0  0  0
  189.5600  178.0700  143.2090 C   0  0  0  0  0  3  0  0  0  0  0  0
  189.0320  176.4850  147.4950 N   0  0  0  0  0  0  0  0  0  0  0  0
  190.3030  177.0290  147.2190 C   0  0  0  0  0  0  0  0  0  0  0  0
  189.1650  177.7440  146.9800 C   0  0  1  0  0  3  0  0  0  0  0  0
  192.3570  175.6930  147.6550 C   0  0  0  0  0  1  0  0  0  0  0  0
  191.7210  176.9130  147.1980 N   0  0  0  0  0  2  0  0  0  0  0  0
  186.4770  177.4000  145.9930 O   0  0  0  0  0  0  0  0  0  0  0  0
  185.5450  178.4130  146.3460 C   0  0  0  0  0  1  0  0  0  0  0  0
  183.3260  176.8080  135.7880 C   0  0  0  0  0  2  0  0  0  0  0  0
  181.2500  176.9830  136.8400 C   0  0  0  0  0  1  0  0  0  0  0  0
  182.3030  174.9130  136.6890 C   0  0  0  0  0  1  0  0  0  0  0  0
  182.5430  176.3270  136.9170 N   0  0  0  0  0  0  0  0  0  0  0  0
  1  5  1  0  0  0  0
  2 12  1  0  0  0  0
  2 14  1  0  0  0  0
  3 14  1  0  0  0  0
  3  9  1  0  0  0  0
  4  8  1  0  0  0  0
  4 17  1  1  0  0  0
  5  4  1  0  0  0  0
  6  8  1  0  0  0  0
  9 10  1  0  0  0  0
 10  1  2  0  0  0  0
 10 11  1  0  0  0  0
 11  7  1  6  0  0  0
 11  6  1  0  0  0  0
 12 31  1  1  0  0  0
 12 13  1  0  0  0  0
 13 15  1  0  0  0  0
 14 16  2  0  0  0  0
 16 15  1  0  0  0  0
 16  1  1  0  0  0  0
 17 22  1  0  0  0  0
 18 20  1  0  0  0  0
 19 21  1  0  0  0  0
 21 20  2  0  0  0  0
 21 29  1  0  0  0  0
 22 23  1  0  0  0  0
 22 19  2  0  0  0  0
 23 18  2  0  0  0  0
 25 24  2  0  0  0  0
 26 20  1  6  0  0  0
 26 25  1  0  0  0  0
 26 24  1  0  0  0  0
 28 25  1  0  0  0  0
 28 27  1  0  0  0  0
 29 30  1  0  0  0  0
 31 34  1  0  0  0  0
 32 34  1  0  0  0  0
 33 34  1  0  0  0  0
M  END
>  <MODEL>
5

>  <REMARK>
 VINA RESULT:      -8.2      3.230      7.879
  Name = 
  6 active torsions:
  status: ('A' for Active; 'I' for Inactive)
    1  A    between atoms: C_8  and  C_18
    2  A    between atoms: C_14  and  C_16
    3  A    between atoms: C_18  and  C_30
    4  A    between atoms: C_23  and  N_24
    5  A    between atoms: C_23  and  C_25
    6  A    between atoms: O_26  and  C_28
                            x       y       z     vdW  Elec       q    Type
                         _______ _______ _______ _____ _____    ______ ____

>  <TORSDO>
F 6

$$$$
=
 OpenBabel10272415213D

 34 38  0  0  1  0  0  0  0  0999 V2000
  187.0270  177.4790  144.4910 C   0  0  0  0  0  0  0  0  0  0  0  0
  183.5620  179.1600  144.2850 C   0  0  0  0  0  2  0  0  0  0  0  0
  185.1220  178.6030  146.1450 O   0  0  0  0  0  0  0  0  0  0  0  0
  189.3040  177.4870  143.3400 C   0  0  2  0  0  3  0  0  0  0  0  0
  187.9830  176.7350  143.5920 C   0  0  0  0  0  2  0  0  0  0  0  0
  189.8760  177.6890  145.8450 C   0  0  0  0  0  2  0  0  0  0  0  0
  188.6180  176.8940  147.8630 C   0  0  0  0  0  1  0  0  0  0  0  0
  189.7460  178.4000  144.4920 C   0  0  0  0  0  2  0  0  0  0  0  0
  186.4380  178.4630  146.6810 C   0  0  0  0  0  2  0  0  0  0  0  0
  187.3130  177.6040  145.8030 C   0  0  0  0  0  0  0  0  0  0  0  0
  188.5940  177.0040  146.3470 C   0  0  1  0  0  3  0  0  0  0  0  0
  183.2140  178.7410  142.8570 C   0  0  2  0  0  3  0  0  0  0  0  0
  184.4320  178.8860  141.9600 C   0  0  0  0  0  2  0  0  0  0  0  0
  184.8650  178.5790  144.7700 C   0  0  0  0  0  0  0  0  0  0  0  0
  185.5190  177.9370  142.4470 C   0  0  0  0  0  2  0  0  0  0  0  0
  185.7890  178.0690  143.9270 C   0  0  0  0  0  0  0  0  0  0  0  0
  189.2050  178.3200  142.0690 C   0  0  0  0  0  2  0  0  0  0  0  0
  189.9480  176.3510  138.9250 C   0  0  0  0  0  3  0  0  0  0  0  0
  191.3380  177.7940  140.8660 C   0  0  0  0  0  3  0  0  0  0  0  0
  191.3490  176.4330  138.8510 C   0  0  0  0  0  0  0  0  0  0  0  0
  192.0490  177.1840  139.8190 C   0  0  0  0  0  0  0  0  0  0  0  0
  189.9480  177.6810  140.9440 C   0  0  0  0  0  0  0  0  0  0  0  0
  189.2540  176.9630  139.9690 C   0  0  0  0  0  3  0  0  0  0  0  0
  191.9170  174.4460  137.7010 N   0  0  0  0  0  0  0  0  0  0  0  0
  191.1850  175.2530  136.8050 C   0  0  0  0  0  0  0  0  0  0  0  0
  192.0690  175.8050  137.6860 C   0  0  1  0  0  3  0  0  0  0  0  0
  189.5700  174.2140  135.2220 C   0  0  0  0  0  1  0  0  0  0  0  0
  190.2270  175.3890  135.7620 N   0  0  0  0  0  2  0  0  0  0  0  0
  193.4400  177.3160  139.7240 O   0  0  0  0  0  0  0  0  0  0  0  0
  194.3440  176.4370  140.3790 C   0  0  0  0  0  1  0  0  0  0  0  0
  182.0310  179.5440  142.3220 C   0  0  0  0  0  2  0  0  0  0  0  0
  181.2750  179.5440  140.1140 C   0  0  0  0  0  1  0  0  0  0  0  0
  182.0170  177.5640  141.0860 C   0  0  0  0  0  1  0  0  0  0  0  0
  181.2660  178.7790  141.3480 N   0  0  0  0  0  0  0  0  0  0  0  0
  1 10  2  0  0  0  0
  2 14  1  0  0  0  0
  3  9  1  0  0  0  0
  4 17  1  6  0  0  0
  4  5  1  0  0  0  0
  4  8  1  0  0  0  0
  5  1  1  0  0  0  0
  6 11  1  0  0  0  0
  8  6  1  0  0  0  0
 10 11  1  0  0  0  0
 10  9  1  0  0  0  0
 11  7  1  1  0  0  0
 12 31  1  6  0  0  0
 12  2  1  0  0  0  0
 13 15  1  0  0  0  0
 13 12  1  0  0  0  0
 14  3  1  0  0  0  0
 15 16  1  0  0  0  0
 16  1  1  0  0  0  0
 16 14  2  0  0  0  0
 18 23  1  0  0  0  0
 19 22  1  0  0  0  0
 20 18  2  0  0  0  0
 20 21  1  0  0  0  0
 21 19  2  0  0  0  0
 22 17  1  0  0  0  0
 23 22  2  0  0  0  0
 25 26  1  0  0  0  0
 25 24  2  0  0  0  0
 26 24  1  0  0  0  0
 26 20  1  1  0  0  0
 27 28  1  0  0  0  0
 28 25  1  0  0  0  0
 29 21  1  0  0  0  0
 29 30  1  0  0  0  0
 32 34  1  0  0  0  0
 33 34  1  0  0  0  0
 34 31  1  0  0  0  0
M  END
>  <MODEL>
6

>  <REMARK>
 VINA RESULT:      -7.8      1.739      2.428
  Name = 
  6 active torsions:
  status: ('A' for Active; 'I' for Inactive)
    1  A    between atoms: C_8  and  C_18
    2  A    between atoms: C_14  and  C_16
    3  A    between atoms: C_18  and  C_30
    4  A    between atoms: C_23  and  N_24
    5  A    between atoms: C_23  and  C_25
    6  A    between atoms: O_26  and  C_28
                            x       y       z     vdW  Elec       q    Type
                         _______ _______ _______ _____ _____    ______ ____

>  <TORSDO>
F 6

$$$$
=
 OpenBabel10272415213D

 34 38  0  0  1  0  0  0  0  0999 V2000
  189.3760  176.2320  136.8940 C   0  0  0  0  0  0  0  0  0  0  0  0
  192.9410  175.4270  135.6650 C   0  0  0  0  0  2  0  0  0  0  0  0
  190.7410  175.7450  134.5440 O   0  0  0  0  0  0  0  0  0  0  0  0
  188.1390  177.7740  138.5070 C   0  0  2  0  0  3  0  0  0  0  0  0
  188.6220  176.3450  138.1970 C   0  0  0  0  0  2  0  0  0  0  0  0
  186.8230  178.0020  136.3020 C   0  0  0  0  0  2  0  0  0  0  0  0
  186.5370  176.3790  134.4130 C   0  0  0  0  0  1  0  0  0  0  0  0
  187.8380  178.6280  137.2670 C   0  0  0  0  0  2  0  0  0  0  0  0
  189.4710  176.3880  134.4290 C   0  0  0  0  0  2  0  0  0  0  0  0
  188.7080  176.3590  135.7300 C   0  0  0  0  0  0  0  0  0  0  0  0
  187.2150  176.6210  135.7520 C   0  0  1  0  0  3  0  0  0  0  0  0
  193.5450  175.0470  137.0160 C   0  0  2  0  0  3  0  0  0  0  0  0
  193.0700  176.0130  138.0900 C   0  0  0  0  0  2  0  0  0  0  0  0
  191.4660  175.7240  135.7400 C   0  0  0  0  0  0  0  0  0  0  0  0
  191.5590  175.8890  138.2290 C   0  0  0  0  0  2  0  0  0  0  0  0
  190.8390  175.9920  136.9050 C   0  0  0  0  0  0  0  0  0  0  0  0
  189.1620  178.5060  139.3660 C   0  0  0  0  0  2  0  0  0  0  0  0
  187.7110  177.7310  142.7730 C   0  0  0  0  0  3  0  0  0  0  0  0
  190.1990  177.7340  141.5110 C   0  0  0  0  0  3  0  0  0  0  0  0
  188.8570  177.3870  143.5090 C   0  0  0  0  0  0  0  0  0  0  0  0
  190.1120  177.3650  142.8640 C   0  0  0  0  0  0  0  0  0  0  0  0
  189.0560  178.1010  140.7970 C   0  0  0  0  0  0  0  0  0  0  0  0
  187.8110  178.0930  141.4290 C   0  0  0  0  0  3  0  0  0  0  0  0
  188.9970  177.9860  145.7930 N   0  0  0  0  0  0  0  0  0  0  0  0
  187.6670  177.5860  145.5460 C   0  0  0  0  0  0  0  0  0  0  0  0
  188.7150  176.9520  144.9450 C   0  0  1  0  0  3  0  0  0  0  0  0
  185.7800  178.7760  146.6490 C   0  0  0  0  0  1  0  0  0  0  0  0
  186.2690  177.7400  145.7600 N   0  0  0  0  0  2  0  0  0  0  0  0
  191.2530  176.9740  143.5750 O   0  0  0  0  0  0  0  0  0  0  0  0
  191.6510  175.6160  143.7080 C   0  0  0  0  0  1  0  0  0  0  0  0
  195.0700  175.0020  136.9440 C   0  0  0  0  0  2  0  0  0  0  0  0
  195.2120  173.2690  138.5010 C   0  0  0  0  0  1  0  0  0  0  0  0
  197.0890  174.5630  138.0290 C   0  0  0  0  0  1  0  0  0  0  0  0
  195.6510  174.6250  138.2240 N   0  0  0  0  0  0  0  0  0  0  0  0
  1 16  1  0  0  0  0
  1  5  1  0  0  0  0
  2 14  1  0  0  0  0
  2 12  1  0  0  0  0
  3 14  1  0  0  0  0
  4 17  1  6  0  0  0
  5  4  1  0  0  0  0
  6  8  1  0  0  0  0
  8  4  1  0  0  0  0
  9  3  1  0  0  0  0
  9 10  1  0  0  0  0
 10 11  1  0  0  0  0
 10  1  2  0  0  0  0
 11  7  1  6  0  0  0
 11  6  1  0  0  0  0
 12 31  1  6  0  0  0
 12 13  1  0  0  0  0
 13 15  1  0  0  0  0
 14 16  2  0  0  0  0
 16 15  1  0  0  0  0
 17 22  1  0  0  0  0
 18 20  1  0  0  0  0
 19 21  1  0  0  0  0
 21 20  2  0  0  0  0
 21 29  1  0  0  0  0
 22 23  1  0  0  0  0
 22 19  2  0  0  0  0
 23 18  2  0  0  0  0
 25 28  1  0  0  0  0
 25 24  2  0  0  0  0
 26 20  1  6  0  0  0
 26 25  1  0  0  0  0
 26 24  1  0  0  0  0
 28 27  1  0  0  0  0
 29 30  1  0  0  0  0
 31 34  1  0  0  0  0
 33 34  1  0  0  0  0
 34 32  1  0  0  0  0
M  END
>  <MODEL>
7

>  <REMARK>
 VINA RESULT:      -7.5      3.471     10.229
  Name = 
  6 active torsions:
  status: ('A' for Active; 'I' for Inactive)
    1  A    between atoms: C_8  and  C_18
    2  A    between atoms: C_14  and  C_16
    3  A    between atoms: C_18  and  C_30
    4  A    between atoms: C_23  and  N_24
    5  A    between atoms: C_23  and  C_25
    6  A    between atoms: O_26  and  C_28
                            x       y       z     vdW  Elec       q    Type
                         _______ _______ _______ _____ _____    ______ ____

>  <TORSDO>
F 6

$$$$
=
 OpenBabel10272415213D

 34 38  0  0  1  0  0  0  0  0999 V2000
  190.0290  176.2700  137.1320 C   0  0  0  0  0  0  0  0  0  0  0  0
  193.1120  175.7090  134.8850 C   0  0  0  0  0  2  0  0  0  0  0  0
  190.7940  176.5290  134.4920 O   0  0  0  0  0  0  0  0  0  0  0  0
  189.3820  177.2450  139.4000 C   0  0  2  0  0  3  0  0  0  0  0  0
  189.5850  175.9790  138.5450 C   0  0  0  0  0  2  0  0  0  0  0  0
  187.6830  178.2930  137.7700 C   0  0  0  0  0  2  0  0  0  0  0  0
  186.7860  177.4330  135.5920 C   0  0  0  0  0  1  0  0  0  0  0  0
  188.9540  178.4870  138.6070 C   0  0  0  0  0  2  0  0  0  0  0  0
  189.6310  177.2510  134.8990 C   0  0  0  0  0  2  0  0  0  0  0  0
  189.1580  176.8290  136.2670 C   0  0  0  0  0  0  0  0  0  0  0  0
  187.7540  177.1610  136.7320 C   0  0  1  0  0  3  0  0  0  0  0  0
  193.9240  174.8540  135.8580 C   0  0  2  0  0  3  0  0  0  0  0  0
  193.8210  175.4230  137.2640 C   0  0  0  0  0  2  0  0  0  0  0  0
  191.7410  176.0550  135.4060 C   0  0  0  0  0  0  0  0  0  0  0  0
  192.3700  175.3550  137.7190 C   0  0  0  0  0  2  0  0  0  0  0  0
  191.4140  175.9490  136.7120 C   0  0  0  0  0  0  0  0  0  0  0  0
  190.6540  177.5730  140.1720 C   0  0  0  0  0  2  0  0  0  0  0  0
  191.2310  177.7480  143.9060 C   0  0  0  0  0  3  0  0  0  0  0  0
  189.0890  177.5890  142.1270 C   0  0  0  0  0  3  0  0  0  0  0  0
  189.9220  177.6810  144.4100 C   0  0  0  0  0  0  0  0  0  0  0  0
  188.8370  177.6260  143.5090 C   0  0  0  0  0  0  0  0  0  0  0  0
  190.3980  177.6280  141.6400 C   0  0  0  0  0  0  0  0  0  0  0  0
  191.4680  177.7130  142.5320 C   0  0  0  0  0  3  0  0  0  0  0  0
  189.2990  176.5610  146.3980 N   0  0  0  0  0  0  0  0  0  0  0  0
  190.6150  177.0340  146.5790 C   0  0  0  0  0  0  0  0  0  0  0  0
  189.6920  177.7710  145.8970 C   0  0  1  0  0  3  0  0  0  0  0  0
  192.2790  175.6570  147.8160 C   0  0  0  0  0  1  0  0  0  0  0  0
  191.9330  176.8620  147.0880 N   0  0  0  0  0  2  0  0  0  0  0  0
  187.5260  177.6110  143.9990 O   0  0  0  0  0  0  0  0  0  0  0  0
  186.4140  178.0710  143.2420 C   0  0  0  0  0  1  0  0  0  0  0  0
  195.3780  174.7400  135.4080 C   0  0  0  0  0  2  0  0  0  0  0  0
  197.3880  174.8680  136.5870 C   0  0  0  0  0  1  0  0  0  0  0  0
  196.7350  176.6290  135.2120 C   0  0  0  0  0  1  0  0  0  0  0  0
  196.2380  175.6440  136.1560 N   0  0  0  0  0  0  0  0  0  0  0  0
  1  5  1  0  0  0  0
  2 14  1  0  0  0  0
  2 12  1  0  0  0  0
  3  9  1  0  0  0  0
  3 14  1  0  0  0  0
  4 17  1  6  0  0  0
  5  4  1  0  0  0  0
  6  8  1  0  0  0  0
  8  4  1  0  0  0  0
  9 10  1  0  0  0  0
 10 11  1  0  0  0  0
 10  1  2  0  0  0  0
 11  7  1  6  0  0  0
 11  6  1  0  0  0  0
 12 31  1  6  0  0  0
 12 13  1  0  0  0  0
 13 15  1  0  0  0  0
 14 16  2  0  0  0  0
 16  1  1  0  0  0  0
 16 15  1  0  0  0  0
 17 22  1  0  0  0  0
 18 20  1  0  0  0  0
 19 21  1  0  0  0  0
 21 29  1  0  0  0  0
 21 20  2  0  0  0  0
 22 19  2  0  0  0  0
 22 23  1  0  0  0  0
 23 18  2  0  0  0  0
 24 25  2  0  0  0  0
 25 28  1  0  0  0  0
 26 20  1  6  0  0  0
 26 24  1  0  0  0  0
 26 25  1  0  0  0  0
 28 27  1  0  0  0  0
 30 29  1  0  0  0  0
 31 34  1  0  0  0  0
 33 34  1  0  0  0  0
 34 32  1  0  0  0  0
M  END
>  <MODEL>
8

>  <REMARK>
 VINA RESULT:      -7.5      3.816     10.447
  Name = 
  6 active torsions:
  status: ('A' for Active; 'I' for Inactive)
    1  A    between atoms: C_8  and  C_18
    2  A    between atoms: C_14  and  C_16
    3  A    between atoms: C_18  and  C_30
    4  A    between atoms: C_23  and  N_24
    5  A    between atoms: C_23  and  C_25
    6  A    between atoms: O_26  and  C_28
                            x       y       z     vdW  Elec       q    Type
                         _______ _______ _______ _____ _____    ______ ____

>  <TORSDO>
F 6

$$$$
=
 OpenBabel10272415213D

 34 38  0  0  1  0  0  0  0  0999 V2000
  188.8660  177.0860  144.0320 C   0  0  0  0  0  0  0  0  0  0  0  0
  185.3490  178.6670  144.0440 C   0  0  0  0  0  2  0  0  0  0  0  0
  187.0140  178.1050  145.8080 O   0  0  0  0  0  0  0  0  0  0  0  0
  191.0820  177.1940  142.7720 C   0  0  2  0  0  3  0  0  0  0  0  0
  189.7980  176.3960  143.0660 C   0  0  0  0  0  2  0  0  0  0  0  0
  191.7720  177.3430  145.2510 C   0  0  0  0  0  2  0  0  0  0  0  0
  190.6380  176.4550  147.3040 C   0  0  0  0  0  1  0  0  0  0  0  0
  191.5550  178.0870  143.9280 C   0  0  0  0  0  2  0  0  0  0  0  0
  188.3590  177.9900  146.2750 C   0  0  0  0  0  2  0  0  0  0  0  0
  189.2140  177.1830  145.3310 C   0  0  0  0  0  0  0  0  0  0  0  0
  190.5370  176.6060  145.7950 C   0  0  1  0  0  3  0  0  0  0  0  0
  184.9430  178.2790  142.6230 C   0  0  2  0  0  3  0  0  0  0  0  0
  186.1110  178.4850  141.6710 C   0  0  0  0  0  2  0  0  0  0  0  0
  186.6900  178.1120  144.4470 C   0  0  0  0  0  0  0  0  0  0  0  0
  187.2470  177.5550  142.0770 C   0  0  0  0  0  2  0  0  0  0  0  0
  187.5860  177.6540  143.5460 C   0  0  0  0  0  0  0  0  0  0  0  0
  190.8980  178.0590  141.5320 C   0  0  0  0  0  2  0  0  0  0  0  0
  190.9320  176.4110  138.1270 C   0  0  0  0  0  3  0  0  0  0  0  0
  192.7160  176.9710  140.1970 C   0  0  0  0  0  3  0  0  0  0  0  0
  192.2680  175.9920  138.0170 C   0  0  0  0  0  0  0  0  0  0  0  0
  193.1760  176.2970  139.0530 C   0  0  0  0  0  0  0  0  0  0  0  0
  191.3780  177.3580  140.3070 C   0  0  0  0  0  0  0  0  0  0  0  0
  190.4880  177.0820  139.2670 C   0  0  0  0  0  3  0  0  0  0  0  0
  192.2910  175.9930  135.6520 N   0  0  0  0  0  0  0  0  0  0  0  0
  193.6300  176.0930  136.0820 C   0  0  0  0  0  0  0  0  0  0  0  0
  192.7320  175.3140  136.7530 C   0  0  1  0  0  3  0  0  0  0  0  0
  195.2370  177.5340  134.8440 C   0  0  0  0  0  1  0  0  0  0  0  0
  194.9420  176.6230  135.9320 N   0  0  0  0  0  2  0  0  0  0  0  0
  194.5210  175.9300  138.9290 O   0  0  0  0  0  0  0  0  0  0  0  0
  195.2910  175.4440  140.0210 C   0  0  0  0  0  1  0  0  0  0  0  0
  183.7120  179.0610  142.1700 C   0  0  0  0  0  2  0  0  0  0  0  0
  181.5230  178.4900  141.5950 C   0  0  0  0  0  1  0  0  0  0  0  0
  183.0880  178.9160  139.9250 C   0  0  0  0  0  1  0  0  0  0  0  0
  182.9130  178.2930  141.2250 N   0  0  0  0  0  0  0  0  0  0  0  0
  1 10  2  0  0  0  0
  2 14  1  0  0  0  0
  3  9  1  0  0  0  0
  4 17  1  6  0  0  0
  4  5  1  0  0  0  0
  4  8  1  0  0  0  0
  5  1  1  0  0  0  0
  6 11  1  0  0  0  0
  8  6  1  0  0  0  0
 10 11  1  0  0  0  0
 10  9  1  0  0  0  0
 11  7  1  1  0  0  0
 12 31  1  6  0  0  0
 12  2  1  0  0  0  0
 13 15  1  0  0  0  0
 13 12  1  0  0  0  0
 14  3  1  0  0  0  0
 15 16  1  0  0  0  0
 16  1  1  0  0  0  0
 16 14  2  0  0  0  0
 18 23  1  0  0  0  0
 19 22  1  0  0  0  0
 20 18  2  0  0  0  0
 20 21  1  0  0  0  0
 21 19  2  0  0  0  0
 22 17  1  0  0  0  0
 23 22  2  0  0  0  0
 24 25  2  0  0  0  0
 24 26  1  0  0  0  0
 25 26  1  0  0  0  0
 26 20  1  1  0  0  0
 27 28  1  0  0  0  0
 28 25  1  0  0  0  0
 29 21  1  0  0  0  0
 29 30  1  0  0  0  0
 33 34  1  0  0  0  0
 34 32  1  0  0  0  0
 34 31  1  0  0  0  0
M  END
>  <MODEL>
9

>  <REMARK>
 VINA RESULT:      -7.4      2.601      3.676
  Name = 
  6 active torsions:
  status: ('A' for Active; 'I' for Inactive)
    1  A    between atoms: C_8  and  C_18
    2  A    between atoms: C_14  and  C_16
    3  A    between atoms: C_18  and  C_30
    4  A    between atoms: C_23  and  N_24
    5  A    between atoms: C_23  and  C_25
    6  A    between atoms: O_26  and  C_28
                            x       y       z     vdW  Elec       q    Type
                         _______ _______ _______ _____ _____    ______ ____

>  <TORSDO>
F 6

$$$$
