=
 OpenBabel10272415273D

 34 39  0  0  1  0  0  0  0  0999 V2000
  180.4740  178.2410  139.5980 C   0  0  1  0  0  3  0  0  0  0  0  0
  182.8940  178.2520  136.6880 C   0  0  0  0  0  3  0  0  0  0  0  0
  185.8580  178.1990  138.3650 C   0  0  0  0  0  0  0  0  0  0  0  0
  180.8570  179.5270  136.9830 C   0  0  0  0  0  2  0  0  0  0  0  0
  181.1630  179.2630  141.7840 N   0  0  0  0  0  0  0  0  0  0  0  0
  180.6750  178.0410  141.1210 C   0  0  0  0  0  2  0  0  0  0  0  0
  179.9830  180.6130  140.1950 C   0  0  0  0  0  0  0  0  0  0  0  0
  180.0690  181.8150  139.5940 N   0  0  0  0  0  0  0  0  0  0  0  0
  186.5280  178.5780  137.2070 O   0  0  0  0  0  0  0  0  0  0  0  0
  180.1930  180.3590  141.6460 C   0  0  0  0  0  2  0  0  0  0  0  0
  180.2660  180.2390  138.1470 C   0  0  0  0  0  0  0  0  0  0  0  0
  180.0750  179.6150  139.3110 N   0  0  0  0  0  0  0  0  0  0  0  0
  180.2490  181.5790  138.2990 N   0  0  0  0  0  0  0  0  0  0  0  0
  183.9950  177.2790  136.9730 C   0  0  0  0  0  2  0  0  0  0  0  0
  186.3790  178.4410  139.4860 O   0  0  0  0  0  1  0  0  0  0  0  0
  184.5870  177.5400  138.2820 N   0  0  0  0  0  0  0  0  0  0  0  0
  183.8850  177.1530  139.5070 C   0  0  0  0  0  2  0  0  0  0  0  0
  181.8490  178.5080  137.4890 C   0  0  0  0  0  0  0  0  0  0  0  0
  182.4490  176.7270  139.2220 C   0  0  0  0  0  2  0  0  0  0  0  0
  181.6560  177.8800  138.7940 N   0  0  0  0  0  0  0  0  0  0  0  0
  181.4310  179.0000  143.2040 C   0  0  0  0  0  2  0  0  0  0  0  0
  185.1330  178.2410  142.7680 C   0  0  0  0  0  3  0  0  0  0  0  0
  183.3230  178.7590  144.8470 C   0  0  0  0  0  3  0  0  0  0  0  0
  187.3690  178.0280  145.7140 C   0  0  0  0  0  0  0  0  0  0  0  0
  186.9230  178.0110  144.3830 C   0  0  0  0  0  3  0  0  0  0  0  0
  185.5790  178.2540  144.0910 C   0  0  0  0  0  0  0  0  0  0  0  0
  185.1140  178.5300  146.4620 C   0  0  0  0  0  3  0  0  0  0  0  0
  184.6680  178.5160  145.1400 C   0  0  0  0  0  0  0  0  0  0  0  0
  186.4610  178.2860  146.7490 C   0  0  0  0  0  3  0  0  0  0  0  0
  182.8790  178.7390  143.5190 C   0  0  0  0  0  0  0  0  0  0  0  0
  183.7860  178.4830  142.4830 C   0  0  0  0  0  3  0  0  0  0  0  0
  188.8020  177.7650  146.0520 C   0  0  1  0  0  3  0  0  0  0  0  0
  188.9240  177.1000  147.4110 C   0  0  0  0  0  1  0  0  0  0  0  0
  189.4190  176.9310  145.0360 N   0  0  0  0  0  1  0  0  0  0  0  0
  1  6  1  1  0  0  0
  2 14  1  0  0  0  0
  2 18  2  0  0  0  0
  3 15  1  0  0  0  0
  4 18  1  0  0  0  0
  4 11  1  0  0  0  0
  5 21  1  0  0  0  0
  6  5  1  0  0  0  0
  7 10  1  0  0  0  0
  8  7  2  0  0  0  0
  9  3  2  0  0  0  0
 10  5  1  0  0  0  0
 11 13  2  0  0  0  0
 11 12  1  0  0  0  0
 12  1  1  0  0  0  0
 12  7  1  0  0  0  0
 13  8  1  0  0  0  0
 14 16  1  0  0  0  0
 16  3  1  0  0  0  0
 16 17  1  0  0  0  0
 18 20  1  0  0  0  0
 19 17  1  0  0  0  0
 20 19  1  0  0  0  0
 20  1  1  0  0  0  0
 21 30  1  0  0  0  0
 22 26  1  0  0  0  0
 23 28  1  0  0  0  0
 24 32  1  0  0  0  0
 24 29  1  0  0  0  0
 25 24  2  0  0  0  0
 26 25  1  0  0  0  0
 26 28  2  0  0  0  0
 27 29  2  0  0  0  0
 28 27  1  0  0  0  0
 30 23  2  0  0  0  0
 31 22  2  0  0  0  0
 31 30  1  0  0  0  0
 32 33  1  1  0  0  0
 34 32  1  0  0  0  0
M  END
>  <MODEL>
1

>  <REMARK>
 VINA RESULT:      -9.6      0.000      0.000
  Name = 
  3 active torsions:
  status: ('A' for Active; 'I' for Inactive)
    1  A    between atoms: C_7  and  C_11
    2  A    between atoms: N_8  and  C_18
    3  A    between atoms: C_18  and  C_30
                            x       y       z     vdW  Elec       q    Type
                         _______ _______ _______ _____ _____    ______ ____

>  <TORSDO>
F 3

$$$$
=
 OpenBabel10272415273D

 34 39  0  0  1  0  0  0  0  0999 V2000
  189.1040  176.8620  136.2000 C   0  0  1  0  0  3  0  0  0  0  0  0
  185.5470  176.0280  135.2080 C   0  0  0  0  0  3  0  0  0  0  0  0
  183.8910  176.9920  138.0230 C   0  0  0  0  0  0  0  0  0  0  0  0
  187.5720  174.7520  134.8430 C   0  0  0  0  0  2  0  0  0  0  0  0
  189.7610  176.7880  138.6210 N   0  0  0  0  0  0  0  0  0  0  0  0
  189.6960  177.6260  137.4100 C   0  0  0  0  0  2  0  0  0  0  0  0
  190.0940  174.8380  137.2700 C   0  0  0  0  0  0  0  0  0  0  0  0
  189.8460  173.5150  137.2870 N   0  0  0  0  0  0  0  0  0  0  0  0
  182.7670  176.2840  137.6130 O   0  0  0  0  0  0  0  0  0  0  0  0
  190.6370  175.6260  138.4090 C   0  0  0  0  0  2  0  0  0  0  0  0
  188.7540  174.4600  135.6960 C   0  0  0  0  0  0  0  0  0  0  0  0
  189.4480  175.4450  136.2700 N   0  0  0  0  0  0  0  0  0  0  0  0
  188.9980  173.2750  136.2920 N   0  0  0  0  0  0  0  0  0  0  0  0
  184.6510  177.1430  135.6460 C   0  0  0  0  0  2  0  0  0  0  0  0
  184.0550  177.2320  139.2490 O   0  0  0  0  0  1  0  0  0  0  0  0
  184.8530  177.4420  137.0600 N   0  0  0  0  0  0  0  0  0  0  0  0
  186.0380  178.1780  137.5030 C   0  0  0  0  0  2  0  0  0  0  0  0
  186.8770  175.9800  135.3790 C   0  0  0  0  0  0  0  0  0  0  0  0
  187.0620  178.3230  136.3830 C   0  0  0  0  0  2  0  0  0  0  0  0
  187.6440  177.0200  136.0600 N   0  0  0  0  0  0  0  0  0  0  0  0
  190.2380  177.5800  139.7630 C   0  0  0  0  0  2  0  0  0  0  0  0
  188.7970  176.8690  143.2110 C   0  0  0  0  0  3  0  0  0  0  0  0
  188.0960  178.2740  140.8870 C   0  0  0  0  0  3  0  0  0  0  0  0
  185.5040  178.2540  144.1940 C   0  0  0  0  0  0  0  0  0  0  0  0
  186.7200  177.5560  144.2520 C   0  0  0  0  0  3  0  0  0  0  0  0
  187.5850  177.5600  143.1550 C   0  0  0  0  0  0  0  0  0  0  0  0
  186.0190  178.9610  141.9280 C   0  0  0  0  0  3  0  0  0  0  0  0
  187.2310  178.2690  141.9840 C   0  0  0  0  0  0  0  0  0  0  0  0
  185.1580  178.9530  143.0310 C   0  0  0  0  0  3  0  0  0  0  0  0
  189.3080  177.5750  140.9450 C   0  0  0  0  0  0  0  0  0  0  0  0
  189.6570  176.8780  142.1080 C   0  0  0  0  0  3  0  0  0  0  0  0
  184.5590  178.2590  145.3540 C   0  0  1  0  0  3  0  0  0  0  0  0
  185.2940  178.5530  146.6480 C   0  0  0  0  0  1  0  0  0  0  0  0
  183.5070  179.2390  145.1480 N   0  0  0  0  0  1  0  0  0  0  0  0
  1 12  1  0  0  0  0
  1  6  1  1  0  0  0
  2 18  2  0  0  0  0
  2 14  1  0  0  0  0
  3 15  1  0  0  0  0
  4 18  1  0  0  0  0
  4 11  1  0  0  0  0
  5 21  1  0  0  0  0
  6  5  1  0  0  0  0
  7  8  2  0  0  0  0
  7 10  1  0  0  0  0
  9  3  2  0  0  0  0
 10  5  1  0  0  0  0
 11 12  1  0  0  0  0
 11 13  2  0  0  0  0
 12  7  1  0  0  0  0
 13  8  1  0  0  0  0
 14 16  1  0  0  0  0
 16 17  1  0  0  0  0
 16  3  1  0  0  0  0
 18 20  1  0  0  0  0
 19 17  1  0  0  0  0
 20  1  1  0  0  0  0
 20 19  1  0  0  0  0
 21 30  1  0  0  0  0
 23 30  2  0  0  0  0
 23 28  1  0  0  0  0
 24 25  1  0  0  0  0
 24 32  1  0  0  0  0
 26 22  1  0  0  0  0
 26 25  2  0  0  0  0
 27 28  2  0  0  0  0
 27 29  1  0  0  0  0
 28 26  1  0  0  0  0
 29 24  2  0  0  0  0
 30 31  1  0  0  0  0
 31 22  2  0  0  0  0
 32 33  1  1  0  0  0
 34 32  1  0  0  0  0
M  END
>  <MODEL>
2

>  <REMARK>
 VINA RESULT:      -9.4      3.685      7.115
  Name = 
  3 active torsions:
  status: ('A' for Active; 'I' for Inactive)
    1  A    between atoms: C_7  and  C_11
    2  A    between atoms: N_8  and  C_18
    3  A    between atoms: C_18  and  C_30
                            x       y       z     vdW  Elec       q    Type
                         _______ _______ _______ _____ _____    ______ ____

>  <TORSDO>
F 3

$$$$
=
 OpenBabel10272415273D

 34 39  0  0  1  0  0  0  0  0999 V2000
  189.2440  176.8370  136.1130 C   0  0  1  0  0  3  0  0  0  0  0  0
  185.7870  175.8800  134.9030 C   0  0  0  0  0  3  0  0  0  0  0  0
  183.9170  176.8580  137.5760 C   0  0  0  0  0  0  0  0  0  0  0  0
  187.8660  174.6550  134.7060 C   0  0  0  0  0  2  0  0  0  0  0  0
  189.7370  176.8350  138.5730 N   0  0  0  0  0  0  0  0  0  0  0  0
  189.7320  177.6440  137.3410 C   0  0  0  0  0  2  0  0  0  0  0  0
  190.2130  174.8660  137.2950 C   0  0  0  0  0  0  0  0  0  0  0  0
  190.0010  173.5370  137.3270 N   0  0  0  0  0  0  0  0  0  0  0  0
  182.8430  176.1100  137.1080 O   0  0  0  0  0  0  0  0  0  0  0  0
  190.6550  175.6940  138.4490 C   0  0  0  0  0  2  0  0  0  0  0  0
  188.9940  174.4150  135.6440 C   0  0  0  0  0  0  0  0  0  0  0  0
  189.6200  175.4320  136.2400 N   0  0  0  0  0  0  0  0  0  0  0  0
  189.2290  173.2510  136.2830 N   0  0  0  0  0  0  0  0  0  0  0  0
  184.8330  176.9790  135.2520 C   0  0  0  0  0  2  0  0  0  0  0  0
  183.9910  177.1300  138.8040 O   0  0  0  0  0  1  0  0  0  0  0  0
  184.9310  177.3140  136.6700 N   0  0  0  0  0  0  0  0  0  0  0  0
  186.0620  178.0940  137.1740 C   0  0  0  0  0  2  0  0  0  0  0  0
  187.1030  175.8740  135.1640 C   0  0  0  0  0  0  0  0  0  0  0  0
  187.1560  178.2430  136.1220 C   0  0  0  0  0  2  0  0  0  0  0  0
  187.7930  176.9500  135.8710 N   0  0  0  0  0  0  0  0  0  0  0  0
  190.1130  177.6650  139.7260 C   0  0  0  0  0  2  0  0  0  0  0  0
  186.7570  178.5520  141.2810 C   0  0  0  0  0  3  0  0  0  0  0  0
  189.2210  177.4710  142.0720 C   0  0  0  0  0  3  0  0  0  0  0  0
  186.1470  177.9800  144.8910 C   0  0  0  0  0  0  0  0  0  0  0  0
  185.9410  178.3530  143.5530 C   0  0  0  0  0  3  0  0  0  0  0  0
  186.9600  178.1850  142.6130 C   0  0  0  0  0  0  0  0  0  0  0  0
  188.4050  177.2710  144.3430 C   0  0  0  0  0  3  0  0  0  0  0  0
  188.2020  177.6390  143.0120 C   0  0  0  0  0  0  0  0  0  0  0  0
  187.3800  177.4410  145.2800 C   0  0  0  0  0  3  0  0  0  0  0  0
  189.0150  177.8450  140.7380 C   0  0  0  0  0  0  0  0  0  0  0  0
  187.7820  178.3820  140.3460 C   0  0  0  0  0  3  0  0  0  0  0  0
  185.0730  178.1550  145.9170 C   0  0  1  0  0  3  0  0  0  0  0  0
  185.6470  178.6920  147.2140 C   0  0  0  0  0  1  0  0  0  0  0  0
  184.0410  179.0520  145.4240 N   0  0  0  0  0  1  0  0  0  0  0  0
  1 12  1  0  0  0  0
  1  6  1  1  0  0  0
  2 18  2  0  0  0  0
  2 14  1  0  0  0  0
  3 15  1  0  0  0  0
  4 18  1  0  0  0  0
  4 11  1  0  0  0  0
  5 21  1  0  0  0  0
  6  5  1  0  0  0  0
  7  8  2  0  0  0  0
  7 10  1  0  0  0  0
  9  3  2  0  0  0  0
 10  5  1  0  0  0  0
 11 12  1  0  0  0  0
 11 13  2  0  0  0  0
 12  7  1  0  0  0  0
 13  8  1  0  0  0  0
 14 16  1  0  0  0  0
 16 17  1  0  0  0  0
 16  3  1  0  0  0  0
 18 20  1  0  0  0  0
 19 17  1  0  0  0  0
 20  1  1  0  0  0  0
 20 19  1  0  0  0  0
 21 30  1  0  0  0  0
 22 26  1  0  0  0  0
 23 28  1  0  0  0  0
 24 29  1  0  0  0  0
 24 32  1  0  0  0  0
 25 24  2  0  0  0  0
 26 28  2  0  0  0  0
 26 25  1  0  0  0  0
 27 29  2  0  0  0  0
 28 27  1  0  0  0  0
 30 23  2  0  0  0  0
 31 30  1  0  0  0  0
 31 22  2  0  0  0  0
 32 33  1  1  0  0  0
 34 32  1  0  0  0  0
M  END
>  <MODEL>
3

>  <REMARK>
 VINA RESULT:      -9.4      3.767      7.083
  Name = 
  3 active torsions:
  status: ('A' for Active; 'I' for Inactive)
    1  A    between atoms: C_7  and  C_11
    2  A    between atoms: N_8  and  C_18
    3  A    between atoms: C_18  and  C_30
                            x       y       z     vdW  Elec       q    Type
                         _______ _______ _______ _____ _____    ______ ____

>  <TORSDO>
F 3

$$$$
=
 OpenBabel10272415273D

 34 39  0  0  1  0  0  0  0  0999 V2000
  185.1500  177.3240  137.2780 C   0  0  1  0  0  3  0  0  0  0  0  0
  182.3620  177.3940  139.8360 C   0  0  0  0  0  3  0  0  0  0  0  0
  184.0840  178.4410  142.5810 C   0  0  0  0  0  0  0  0  0  0  0  0
  182.8260  175.7390  138.1310 C   0  0  0  0  0  2  0  0  0  0  0  0
  187.5040  176.8860  138.0270 N   0  0  0  0  0  0  0  0  0  0  0  0
  186.6150  177.8240  137.3190 C   0  0  0  0  0  2  0  0  0  0  0  0
  186.1560  175.0420  137.3050 C   0  0  0  0  0  0  0  0  0  0  0  0
  185.7890  173.8110  137.7070 N   0  0  0  0  0  0  0  0  0  0  0  0
  183.0350  178.0400  143.4020 O   0  0  0  0  0  1  0  0  0  0  0  0
  187.5420  175.5830  137.3470 C   0  0  0  0  0  2  0  0  0  0  0  0
  184.0830  175.1160  137.6390 C   0  0  0  0  0  0  0  0  0  0  0  0
  185.1070  175.8660  137.2270 N   0  0  0  0  0  0  0  0  0  0  0  0
  184.4780  173.8570  137.9200 N   0  0  0  0  0  0  0  0  0  0  0  0
  182.4950  178.6360  140.6610 C   0  0  0  0  0  2  0  0  0  0  0  0
  185.2450  178.5260  143.0630 O   0  0  0  0  0  0  0  0  0  0  0  0
  183.8460  178.7520  141.2020 N   0  0  0  0  0  0  0  0  0  0  0  0
  184.9580  179.1640  140.3450 C   0  0  0  0  0  2  0  0  0  0  0  0
  183.1650  177.0370  138.8240 C   0  0  0  0  0  0  0  0  0  0  0  0
  184.5590  179.1790  138.8740 C   0  0  0  0  0  2  0  0  0  0  0  0
  184.3280  177.8140  138.4000 N   0  0  0  0  0  0  0  0  0  0  0  0
  188.8600  177.4450  138.1250 C   0  0  0  0  0  2  0  0  0  0  0  0
  191.3880  177.2950  140.9640 C   0  0  0  0  0  3  0  0  0  0  0  0
  188.6060  177.4090  140.6290 C   0  0  0  0  0  3  0  0  0  0  0  0
  190.2550  177.2670  144.4910 C   0  0  0  0  0  0  0  0  0  0  0  0
  191.0970  177.2560  143.3680 C   0  0  0  0  0  3  0  0  0  0  0  0
  190.5530  177.3030  142.0820 C   0  0  0  0  0  0  0  0  0  0  0  0
  188.3150  177.3710  143.0330 C   0  0  0  0  0  3  0  0  0  0  0  0
  189.1500  177.3610  141.9150 C   0  0  0  0  0  0  0  0  0  0  0  0
  188.8660  177.3240  144.3180 C   0  0  0  0  0  3  0  0  0  0  0  0
  189.4470  177.3950  139.5090 C   0  0  0  0  0  0  0  0  0  0  0  0
  190.8360  177.3410  139.6800 C   0  0  0  0  0  3  0  0  0  0  0  0
  190.8140  177.2120  145.8770 C   0  0  1  0  0  3  0  0  0  0  0  0
  189.7240  176.9120  146.8880 C   0  0  0  0  0  1  0  0  0  0  0  0
  191.8590  176.2060  145.9630 N   0  0  0  0  0  1  0  0  0  0  0  0
  1  6  1  1  0  0  0
  1 20  1  0  0  0  0
  2 14  1  0  0  0  0
  3 15  2  0  0  0  0
  3  9  1  0  0  0  0
  4 18  1  0  0  0  0
  5 21  1  0  0  0  0
  6  5  1  0  0  0  0
  7 10  1  0  0  0  0
  7  8  2  0  0  0  0
  8 13  1  0  0  0  0
 10  5  1  0  0  0  0
 11 13  2  0  0  0  0
 11  4  1  0  0  0  0
 12  1  1  0  0  0  0
 12  7  1  0  0  0  0
 12 11  1  0  0  0  0
 14 16  1  0  0  0  0
 16  3  1  0  0  0  0
 17 16  1  0  0  0  0
 18  2  2  0  0  0  0
 19 17  1  0  0  0  0
 20 18  1  0  0  0  0
 20 19  1  0  0  0  0
 21 30  1  0  0  0  0
 22 26  1  0  0  0  0
 23 28  1  0  0  0  0
 24 32  1  0  0  0  0
 25 24  2  0  0  0  0
 26 25  1  0  0  0  0
 27 29  2  0  0  0  0
 28 26  2  0  0  0  0
 28 27  1  0  0  0  0
 29 24  1  0  0  0  0
 30 31  1  0  0  0  0
 30 23  2  0  0  0  0
 31 22  2  0  0  0  0
 32 34  1  0  0  0  0
 32 33  1  1  0  0  0
M  END
>  <MODEL>
4

>  <REMARK>
 VINA RESULT:      -9.0      2.979      5.894
  Name = 
  3 active torsions:
  status: ('A' for Active; 'I' for Inactive)
    1  A    between atoms: C_7  and  C_11
    2  A    between atoms: N_8  and  C_18
    3  A    between atoms: C_18  and  C_30
                            x       y       z     vdW  Elec       q    Type
                         _______ _______ _______ _____ _____    ______ ____

>  <TORSDO>
F 3

$$$$
=
 OpenBabel10272415273D

 34 39  0  0  1  0  0  0  0  0999 V2000
  188.9930  176.2730  135.7390 C   0  0  1  0  0  3  0  0  0  0  0  0
  186.9760  173.1600  134.9890 C   0  0  0  0  0  3  0  0  0  0  0  0
  184.3530  173.6100  137.1140 C   0  0  0  0  0  0  0  0  0  0  0  0
  189.3700  173.3990  135.2530 C   0  0  0  0  0  2  0  0  0  0  0  0
  188.8650  177.3090  138.0210 N   0  0  0  0  0  0  0  0  0  0  0  0
  188.6840  177.5390  136.5770 C   0  0  0  0  0  2  0  0  0  0  0  0
  190.6000  175.7210  137.5660 C   0  0  0  0  0  0  0  0  0  0  0  0
  191.1460  174.6090  138.0910 N   0  0  0  0  0  0  0  0  0  0  0  0
  183.9920  172.2760  136.9630 O   0  0  0  0  0  0  0  0  0  0  0  0
  190.2580  176.9540  138.3270 C   0  0  0  0  0  2  0  0  0  0  0  0
  190.2130  174.1660  136.2070 C   0  0  0  0  0  0  0  0  0  0  0  0
  190.0370  175.4780  136.3790 N   0  0  0  0  0  0  0  0  0  0  0  0
  190.9010  173.6240  137.2320 N   0  0  0  0  0  0  0  0  0  0  0  0
  185.5280  173.5310  134.9080 C   0  0  0  0  0  2  0  0  0  0  0  0
  184.0000  174.2300  138.1520 O   0  0  0  0  0  1  0  0  0  0  0  0
  185.1200  174.2710  136.0980 N   0  0  0  0  0  0  0  0  0  0  0  0
  185.5020  175.6730  136.2710 C   0  0  0  0  0  2  0  0  0  0  0  0
  187.9880  174.0050  135.2270 C   0  0  0  0  0  0  0  0  0  0  0  0
  186.5320  176.1070  135.2340 C   0  0  0  0  0  2  0  0  0  0  0  0
  187.8080  175.4340  135.4790 N   0  0  0  0  0  0  0  0  0  0  0  0
  188.4690  178.5030  138.7800 C   0  0  0  0  0  2  0  0  0  0  0  0
  188.8730  177.3270  142.3750 C   0  0  0  0  0  3  0  0  0  0  0  0
  186.9790  178.6710  140.8020 C   0  0  0  0  0  3  0  0  0  0  0  0
  186.1950  177.9330  144.8640 C   0  0  0  0  0  0  0  0  0  0  0  0
  187.4050  177.5050  144.2940 C   0  0  0  0  0  3  0  0  0  0  0  0
  187.6690  177.7480  142.9440 C   0  0  0  0  0  0  0  0  0  0  0  0
  185.5110  178.8500  142.7210 C   0  0  0  0  0  3  0  0  0  0  0  0
  186.7140  178.4270  142.1520 C   0  0  0  0  0  0  0  0  0  0  0  0
  185.2530  178.6030  144.0730 C   0  0  0  0  0  3  0  0  0  0  0  0
  188.1850  178.2410  140.2340 C   0  0  0  0  0  0  0  0  0  0  0  0
  189.1290  177.5730  141.0230 C   0  0  0  0  0  3  0  0  0  0  0  0
  185.8870  177.6780  146.3050 C   0  0  1  0  0  3  0  0  0  0  0  0
  187.0830  178.0040  147.1790 C   0  0  0  0  0  1  0  0  0  0  0  0
  184.7390  178.4620  146.7250 N   0  0  0  0  0  1  0  0  0  0  0  0
  1 12  1  0  0  0  0
  1  6  1  1  0  0  0
  2 18  2  0  0  0  0
  3 15  1  0  0  0  0
  4 11  1  0  0  0  0
  5 10  1  0  0  0  0
  5 21  1  0  0  0  0
  6  5  1  0  0  0  0
  7  8  2  0  0  0  0
  7 10  1  0  0  0  0
  9  3  2  0  0  0  0
 11 12  1  0  0  0  0
 11 13  2  0  0  0  0
 12  7  1  0  0  0  0
 13  8  1  0  0  0  0
 14  2  1  0  0  0  0
 14 16  1  0  0  0  0
 16 17  1  0  0  0  0
 16  3  1  0  0  0  0
 18  4  1  0  0  0  0
 18 20  1  0  0  0  0
 19 20  1  0  0  0  0
 19 17  1  0  0  0  0
 20  1  1  0  0  0  0
 21 30  1  0  0  0  0
 22 26  1  0  0  0  0
 23 28  1  0  0  0  0
 24 32  1  0  0  0  0
 25 24  1  0  0  0  0
 26 25  2  0  0  0  0
 27 29  1  0  0  0  0
 28 27  2  0  0  0  0
 28 26  1  0  0  0  0
 29 24  2  0  0  0  0
 30 23  2  0  0  0  0
 30 31  1  0  0  0  0
 31 22  2  0  0  0  0
 32 34  1  0  0  0  0
 32 33  1  1  0  0  0
M  END
>  <MODEL>
5

>  <REMARK>
 VINA RESULT:      -8.7      4.666      7.411
  Name = 
  3 active torsions:
  status: ('A' for Active; 'I' for Inactive)
    1  A    between atoms: C_7  and  C_11
    2  A    between atoms: N_8  and  C_18
    3  A    between atoms: C_18  and  C_30
                            x       y       z     vdW  Elec       q    Type
                         _______ _______ _______ _____ _____    ______ ____

>  <TORSDO>
F 3

$$$$
=
 OpenBabel10272415273D

 34 39  0  0  1  0  0  0  0  0999 V2000
  188.8180  177.1240  136.6370 C   0  0  1  0  0  3  0  0  0  0  0  0
  187.5680  173.8890  135.1220 C   0  0  0  0  0  3  0  0  0  0  0  0
  184.7760  173.3780  137.0040 C   0  0  0  0  0  0  0  0  0  0  0  0
  189.8330  174.5380  135.6770 C   0  0  0  0  0  2  0  0  0  0  0  0
  188.3210  177.6360  139.0430 N   0  0  0  0  0  0  0  0  0  0  0  0
  188.1910  178.1100  137.6540 C   0  0  0  0  0  2  0  0  0  0  0  0
  190.3820  176.5460  138.4920 C   0  0  0  0  0  0  0  0  0  0  0  0
  191.1180  175.4810  138.8610 N   0  0  0  0  0  0  0  0  0  0  0  0
  184.7200  172.0560  136.5750 O   0  0  0  0  0  0  0  0  0  0  0  0
  189.7350  177.5090  139.4240 C   0  0  0  0  0  2  0  0  0  0  0  0
  190.4280  175.2500  136.8390 C   0  0  0  0  0  0  0  0  0  0  0  0
  189.9640  176.4400  137.2280 N   0  0  0  0  0  0  0  0  0  0  0  0
  191.1470  174.6600  137.8160 N   0  0  0  0  0  0  0  0  0  0  0  0
  186.0830  173.9760  134.9570 C   0  0  0  0  0  2  0  0  0  0  0  0
  184.2310  173.6960  138.0940 O   0  0  0  0  0  1  0  0  0  0  0  0
  185.4480  174.3670  136.2130 N   0  0  0  0  0  0  0  0  0  0  0  0
  185.5100  175.7540  136.6770 C   0  0  0  0  0  2  0  0  0  0  0  0
  188.3580  174.8530  135.6170 C   0  0  0  0  0  0  0  0  0  0  0  0
  186.4890  176.5810  135.8520 C   0  0  0  0  0  2  0  0  0  0  0  0
  187.8600  176.1380  136.1040 N   0  0  0  0  0  0  0  0  0  0  0  0
  187.6300  178.5530  139.9600 C   0  0  0  0  0  2  0  0  0  0  0  0
  186.8860  177.6870  143.5900 C   0  0  0  0  0  3  0  0  0  0  0  0
  189.1160  178.1510  141.9520 C   0  0  0  0  0  3  0  0  0  0  0  0
  189.6470  177.2400  146.0200 C   0  0  0  0  0  0  0  0  0  0  0  0
  188.3520  177.3140  145.4810 C   0  0  0  0  0  3  0  0  0  0  0  0
  188.1720  177.6160  144.1290 C   0  0  0  0  0  0  0  0  0  0  0  0
  190.5820  177.7770  143.8430 C   0  0  0  0  0  3  0  0  0  0  0  0
  189.2970  177.8490  143.3040 C   0  0  0  0  0  0  0  0  0  0  0  0
  190.7560  177.4730  145.1980 C   0  0  0  0  0  3  0  0  0  0  0  0
  187.8240  178.2260  141.4160 C   0  0  0  0  0  0  0  0  0  0  0  0
  186.7130  177.9910  142.2360 C   0  0  0  0  0  3  0  0  0  0  0  0
  189.8650  176.9240  147.4650 C   0  0  1  0  0  3  0  0  0  0  0  0
  191.3370  176.6960  147.7530 C   0  0  0  0  0  1  0  0  0  0  0  0
  189.3580  177.9980  148.3020 N   0  0  0  0  0  1  0  0  0  0  0  0
  1 12  1  0  0  0  0
  1  6  1  1  0  0  0
  2 18  2  0  0  0  0
  3 15  1  0  0  0  0
  4 11  1  0  0  0  0
  5 10  1  0  0  0  0
  5 21  1  0  0  0  0
  6  5  1  0  0  0  0
  7  8  2  0  0  0  0
  7 10  1  0  0  0  0
  9  3  2  0  0  0  0
 11 12  1  0  0  0  0
 11 13  2  0  0  0  0
 12  7  1  0  0  0  0
 13  8  1  0  0  0  0
 14  2  1  0  0  0  0
 14 16  1  0  0  0  0
 16 17  1  0  0  0  0
 16  3  1  0  0  0  0
 18  4  1  0  0  0  0
 18 20  1  0  0  0  0
 19 20  1  0  0  0  0
 19 17  1  0  0  0  0
 20  1  1  0  0  0  0
 21 30  1  0  0  0  0
 22 26  1  0  0  0  0
 23 28  1  0  0  0  0
 24 32  1  0  0  0  0
 25 24  1  0  0  0  0
 26 25  2  0  0  0  0
 27 29  1  0  0  0  0
 28 27  2  0  0  0  0
 28 26  1  0  0  0  0
 29 24  2  0  0  0  0
 30 23  2  0  0  0  0
 30 31  1  0  0  0  0
 31 22  2  0  0  0  0
 32 33  1  6  0  0  0
 32 34  1  0  0  0  0
M  END
>  <MODEL>
6

>  <REMARK>
 VINA RESULT:      -8.6      5.037      7.079
  Name = 
  3 active torsions:
  status: ('A' for Active; 'I' for Inactive)
    1  A    between atoms: C_7  and  C_11
    2  A    between atoms: N_8  and  C_18
    3  A    between atoms: C_18  and  C_30
                            x       y       z     vdW  Elec       q    Type
                         _______ _______ _______ _____ _____    ______ ____

>  <TORSDO>
F 3

$$$$
=
 OpenBabel10272415273D

 34 39  0  0  1  0  0  0  0  0999 V2000
  187.3900  176.5250  136.1810 C   0  0  1  0  0  3  0  0  0  0  0  0
  183.7630  176.4640  137.2620 C   0  0  0  0  0  3  0  0  0  0  0  0
  184.0160  177.9430  140.3190 C   0  0  0  0  0  0  0  0  0  0  0  0
  185.0530  174.7420  136.1520 C   0  0  0  0  0  2  0  0  0  0  0  0
  189.1990  176.4470  137.9190 N   0  0  0  0  0  0  0  0  0  0  0  0
  188.6460  177.2040  136.7830 C   0  0  0  0  0  2  0  0  0  0  0  0
  188.4480  174.3960  136.9340 C   0  0  0  0  0  0  0  0  0  0  0  0
  188.0350  173.1670  137.2960 N   0  0  0  0  0  0  0  0  0  0  0  0
  182.7460  177.4860  140.6540 O   0  0  0  0  0  0  0  0  0  0  0  0
  189.6290  175.1060  137.4960 C   0  0  0  0  0  2  0  0  0  0  0  0
  186.4410  174.2400  136.3330 C   0  0  0  0  0  0  0  0  0  0  0  0
  187.4830  175.0740  136.3070 N   0  0  0  0  0  0  0  0  0  0  0  0
  186.7640  173.0680  136.9170 N   0  0  0  0  0  0  0  0  0  0  0  0
  183.4260  177.7770  137.8940 C   0  0  0  0  0  2  0  0  0  0  0  0
  184.8360  178.2120  141.2370 O   0  0  0  0  0  1  0  0  0  0  0  0
  184.3870  178.1050  138.9440 N   0  0  0  0  0  0  0  0  0  0  0  0
  185.7300  178.5780  138.6020 C   0  0  0  0  0  2  0  0  0  0  0  0
  184.9550  176.1250  136.7490 C   0  0  0  0  0  0  0  0  0  0  0  0
  186.0200  178.4200  137.1130 C   0  0  0  0  0  2  0  0  0  0  0  0
  186.1230  177.0020  136.7670 N   0  0  0  0  0  0  0  0  0  0  0  0
  190.3270  177.1750  138.5160 C   0  0  0  0  0  2  0  0  0  0  0  0
  191.3820  177.5130  142.1550 C   0  0  0  0  0  3  0  0  0  0  0  0
  189.0170  177.2970  140.6620 C   0  0  0  0  0  3  0  0  0  0  0  0
  188.8380  177.6240  144.8480 C   0  0  0  0  0  0  0  0  0  0  0  0
  190.0820  177.6210  144.1970 C   0  0  0  0  0  3  0  0  0  0  0  0
  190.1460  177.5130  142.8050 C   0  0  0  0  0  0  0  0  0  0  0  0
  187.7180  177.4060  142.7040 C   0  0  0  0  0  3  0  0  0  0  0  0
  188.9530  177.4050  142.0540 C   0  0  0  0  0  0  0  0  0  0  0  0
  187.6610  177.5150  144.0970 C   0  0  0  0  0  3  0  0  0  0  0  0
  190.2590  177.2920  140.0140 C   0  0  0  0  0  0  0  0  0  0  0  0
  191.4370  177.4030  140.7630 C   0  0  0  0  0  3  0  0  0  0  0  0
  188.7450  177.7320  146.3360 C   0  0  1  0  0  3  0  0  0  0  0  0
  187.3040  177.6230  146.7970 C   0  0  0  0  0  1  0  0  0  0  0  0
  189.5470  176.7010  146.9720 N   0  0  0  0  0  1  0  0  0  0  0  0
  1 12  1  0  0  0  0
  1 20  1  0  0  0  0
  1  6  1  1  0  0  0
  2 14  1  0  0  0  0
  3  9  2  0  0  0  0
  3 15  1  0  0  0  0
  4 11  1  0  0  0  0
  4 18  1  0  0  0  0
  5 21  1  0  0  0  0
  6  5  1  0  0  0  0
  7  8  2  0  0  0  0
  7 10  1  0  0  0  0
 10  5  1  0  0  0  0
 11 13  2  0  0  0  0
 12 11  1  0  0  0  0
 12  7  1  0  0  0  0
 13  8  1  0  0  0  0
 14 16  1  0  0  0  0
 16  3  1  0  0  0  0
 17 16  1  0  0  0  0
 18 20  1  0  0  0  0
 18  2  2  0  0  0  0
 19 17  1  0  0  0  0
 20 19  1  0  0  0  0
 21 30  1  0  0  0  0
 22 26  1  0  0  0  0
 23 28  1  0  0  0  0
 24 32  1  0  0  0  0
 25 24  1  0  0  0  0
 26 25  2  0  0  0  0
 27 29  1  0  0  0  0
 28 27  2  0  0  0  0
 28 26  1  0  0  0  0
 29 24  2  0  0  0  0
 30 23  2  0  0  0  0
 30 31  1  0  0  0  0
 31 22  2  0  0  0  0
 32 33  1  6  0  0  0
 32 34  1  0  0  0  0
M  END
>  <MODEL>
7

>  <REMARK>
 VINA RESULT:      -8.5      3.348      6.635
  Name = 
  3 active torsions:
  status: ('A' for Active; 'I' for Inactive)
    1  A    between atoms: C_7  and  C_11
    2  A    between atoms: N_8  and  C_18
    3  A    between atoms: C_18  and  C_30
                            x       y       z     vdW  Elec       q    Type
                         _______ _______ _______ _____ _____    ______ ____

>  <TORSDO>
F 3

$$$$
=
 OpenBabel10272415273D

 34 39  0  0  1  0  0  0  0  0999 V2000
  188.9230  176.7920  136.3340 C   0  0  1  0  0  3  0  0  0  0  0  0
  187.4740  173.5890  134.9310 C   0  0  0  0  0  3  0  0  0  0  0  0
  184.7820  173.1930  136.9790 C   0  0  0  0  0  0  0  0  0  0  0  0
  189.7890  174.1630  135.3450 C   0  0  0  0  0  2  0  0  0  0  0  0
  188.5870  177.3430  138.7590 N   0  0  0  0  0  0  0  0  0  0  0  0
  188.3910  177.8090  137.3750 C   0  0  0  0  0  2  0  0  0  0  0  0
  190.5720  176.1760  138.1000 C   0  0  0  0  0  0  0  0  0  0  0  0
  191.2920  175.0900  138.4370 N   0  0  0  0  0  0  0  0  0  0  0  0
  184.6550  171.8710  136.5690 O   0  0  0  0  0  0  0  0  0  0  0  0
  190.0150  177.1700  139.0580 C   0  0  0  0  0  2  0  0  0  0  0  0
  190.4760  174.8650  136.4620 C   0  0  0  0  0  0  0  0  0  0  0  0
  190.0770  176.0730  136.8640 N   0  0  0  0  0  0  0  0  0  0  0  0
  191.2310  174.2590  137.4010 N   0  0  0  0  0  0  0  0  0  0  0  0
  185.9860  173.7270  134.8530 C   0  0  0  0  0  2  0  0  0  0  0  0
  184.3140  173.5400  138.0970 O   0  0  0  0  0  1  0  0  0  0  0  0
  185.4400  174.1510  136.1390 N   0  0  0  0  0  0  0  0  0  0  0  0
  185.5770  175.5390  136.5840 C   0  0  0  0  0  2  0  0  0  0  0  0
  188.3250  174.5290  135.3680 C   0  0  0  0  0  0  0  0  0  0  0  0
  186.5330  176.3230  135.6940 C   0  0  0  0  0  2  0  0  0  0  0  0
  187.9010  175.8350  135.8690 N   0  0  0  0  0  0  0  0  0  0  0  0
  187.9830  178.2910  139.7050 C   0  0  0  0  0  2  0  0  0  0  0  0
  190.0150  177.5880  142.8440 C   0  0  0  0  0  3  0  0  0  0  0  0
  187.3380  178.0090  142.1220 C   0  0  0  0  0  3  0  0  0  0  0  0
  188.3460  177.2900  146.1380 C   0  0  0  0  0  0  0  0  0  0  0  0
  189.3490  177.3180  145.1570 C   0  0  0  0  0  3  0  0  0  0  0  0
  189.0190  177.5570  143.8210 C   0  0  0  0  0  0  0  0  0  0  0  0
  186.6720  177.7400  144.4360 C   0  0  0  0  0  3  0  0  0  0  0  0
  187.6690  177.7700  143.4590 C   0  0  0  0  0  0  0  0  0  0  0  0
  187.0100  177.5010  145.7720 C   0  0  0  0  0  3  0  0  0  0  0  0
  188.3400  178.0340  141.1440 C   0  0  0  0  0  0  0  0  0  0  0  0
  189.6760  177.8270  141.5080 C   0  0  0  0  0  3  0  0  0  0  0  0
  188.6750  177.0300  147.5730 C   0  0  1  0  0  3  0  0  0  0  0  0
  190.1440  177.2880  147.8460 C   0  0  0  0  0  1  0  0  0  0  0  0
  187.8570  177.8610  148.4410 N   0  0  0  0  0  1  0  0  0  0  0  0
  1 12  1  0  0  0  0
  1  6  1  1  0  0  0
  2 18  2  0  0  0  0
  3 15  1  0  0  0  0
  4 18  1  0  0  0  0
  4 11  1  0  0  0  0
  5 10  1  0  0  0  0
  5 21  1  0  0  0  0
  6  5  1  0  0  0  0
  7  8  2  0  0  0  0
  7 10  1  0  0  0  0
  9  3  2  0  0  0  0
 11 12  1  0  0  0  0
 11 13  2  0  0  0  0
 12  7  1  0  0  0  0
 13  8  1  0  0  0  0
 14  2  1  0  0  0  0
 14 16  1  0  0  0  0
 16 17  1  0  0  0  0
 16  3  1  0  0  0  0
 18 20  1  0  0  0  0
 19 20  1  0  0  0  0
 19 17  1  0  0  0  0
 20  1  1  0  0  0  0
 21 30  1  0  0  0  0
 22 26  1  0  0  0  0
 23 28  1  0  0  0  0
 24 32  1  0  0  0  0
 25 24  2  0  0  0  0
 26 25  1  0  0  0  0
 27 29  2  0  0  0  0
 28 26  2  0  0  0  0
 28 27  1  0  0  0  0
 29 24  1  0  0  0  0
 30 31  1  0  0  0  0
 30 23  2  0  0  0  0
 31 22  2  0  0  0  0
 32 33  1  6  0  0  0
 32 34  1  0  0  0  0
M  END
>  <MODEL>
8

>  <REMARK>
 VINA RESULT:      -8.4      5.198      7.225
  Name = 
  3 active torsions:
  status: ('A' for Active; 'I' for Inactive)
    1  A    between atoms: C_7  and  C_11
    2  A    between atoms: N_8  and  C_18
    3  A    between atoms: C_18  and  C_30
                            x       y       z     vdW  Elec       q    Type
                         _______ _______ _______ _____ _____    ______ ____

>  <TORSDO>
F 3

$$$$
=
 OpenBabel10272415273D

 34 39  0  0  1  0  0  0  0  0999 V2000
  189.4140  178.2290  137.5860 C   0  0  1  0  0  3  0  0  0  0  0  0
  187.4930  176.3970  134.8880 C   0  0  0  0  0  3  0  0  0  0  0  0
  184.5030  175.9650  136.4600 C   0  0  0  0  0  0  0  0  0  0  0  0
  189.7880  176.0950  135.5990 C   0  0  0  0  0  2  0  0  0  0  0  0
  188.8500  177.8240  139.9970 N   0  0  0  0  0  0  0  0  0  0  0  0
  188.9810  178.8430  138.9400 C   0  0  0  0  0  2  0  0  0  0  0  0
  190.5870  176.5260  138.9800 C   0  0  0  0  0  0  0  0  0  0  0  0
  190.9750  175.2440  138.8460 N   0  0  0  0  0  0  0  0  0  0  0  0
  184.1370  175.0110  135.5170 O   0  0  0  0  0  0  0  0  0  0  0  0
  190.1370  177.1600  140.2490 C   0  0  0  0  0  2  0  0  0  0  0  0
  190.4400  176.0680  136.9350 C   0  0  0  0  0  0  0  0  0  0  0  0
  190.2760  177.0700  137.8010 N   0  0  0  0  0  0  0  0  0  0  0  0
  190.8810  174.9530  137.5520 N   0  0  0  0  0  0  0  0  0  0  0  0
  186.1080  176.9570  134.8180 C   0  0  0  0  0  2  0  0  0  0  0  0
  183.9640  175.9460  137.5980 O   0  0  0  0  0  1  0  0  0  0  0  0
  185.4860  176.9590  136.1390 N   0  0  0  0  0  0  0  0  0  0  0  0
  185.8710  177.9540  137.1410 C   0  0  0  0  0  2  0  0  0  0  0  0
  188.4620  176.8070  135.7190 C   0  0  0  0  0  0  0  0  0  0  0  0
  187.1080  178.7350  136.7120 C   0  0  0  0  0  2  0  0  0  0  0  0
  188.2820  177.8610  136.7150 N   0  0  0  0  0  0  0  0  0  0  0  0
  188.3460  178.4360  141.2340 C   0  0  0  0  0  2  0  0  0  0  0  0
  184.6940  178.6540  140.1880 C   0  0  0  0  0  3  0  0  0  0  0  0
  186.2040  178.5690  142.5510 C   0  0  0  0  0  3  0  0  0  0  0  0
  182.0140  178.8300  142.7410 C   0  0  0  0  0  0  0  0  0  0  0  0
  182.6590  178.7870  141.4950 C   0  0  0  0  0  3  0  0  0  0  0  0
  184.0510  178.7000  141.4270 C   0  0  0  0  0  0  0  0  0  0  0  0
  184.1680  178.7020  143.8570 C   0  0  0  0  0  3  0  0  0  0  0  0
  184.8110  178.6570  142.6180 C   0  0  0  0  0  0  0  0  0  0  0  0
  182.7740  178.7880  143.9180 C   0  0  0  0  0  3  0  0  0  0  0  0
  186.8460  178.5290  141.3070 C   0  0  0  0  0  0  0  0  0  0  0  0
  186.0880  178.5680  140.1290 C   0  0  0  0  0  3  0  0  0  0  0  0
  180.5250  178.9290  142.8390 C   0  0  1  0  0  3  0  0  0  0  0  0
  180.0200  178.2490  144.0970 C   0  0  0  0  0  1  0  0  0  0  0  0
  180.1070  180.3200  142.8270 N   0  0  0  0  0  1  0  0  0  0  0  0
  1 12  1  0  0  0  0
  1  6  1  1  0  0  0
  2 18  2  0  0  0  0
  3 15  1  0  0  0  0
  4 18  1  0  0  0  0
  4 11  1  0  0  0  0
  5 10  1  0  0  0  0
  5 21  1  0  0  0  0
  6  5  1  0  0  0  0
  7 10  1  0  0  0  0
  8  7  2  0  0  0  0
  9  3  2  0  0  0  0
 11 13  2  0  0  0  0
 11 12  1  0  0  0  0
 12  7  1  0  0  0  0
 13  8  1  0  0  0  0
 14  2  1  0  0  0  0
 14 16  1  0  0  0  0
 16  3  1  0  0  0  0
 16 17  1  0  0  0  0
 18 20  1  0  0  0  0
 19 20  1  0  0  0  0
 19 17  1  0  0  0  0
 20  1  1  0  0  0  0
 21 30  1  0  0  0  0
 22 26  1  0  0  0  0
 23 28  1  0  0  0  0
 24 32  1  0  0  0  0
 24 29  1  0  0  0  0
 25 24  2  0  0  0  0
 26 25  1  0  0  0  0
 26 28  2  0  0  0  0
 27 29  2  0  0  0  0
 28 27  1  0  0  0  0
 30 23  2  0  0  0  0
 31 22  2  0  0  0  0
 31 30  1  0  0  0  0
 32 33  1  1  0  0  0
 34 32  1  0  0  0  0
M  END
>  <MODEL>
9

>  <REMARK>
 VINA RESULT:      -8.3      3.509      7.343
  Name = 
  3 active torsions:
  status: ('A' for Active; 'I' for Inactive)
    1  A    between atoms: C_7  and  C_11
    2  A    between atoms: N_8  and  C_18
    3  A    between atoms: C_18  and  C_30
                            x       y       z     vdW  Elec       q    Type
                         _______ _______ _______ _____ _____    ______ ____

>  <TORSDO>
F 3

$$$$
