=
 OpenBabel10272413453D

 30 31  0  0  1  0  0  0  0  0999 V2000
  187.3550  177.3750  142.2190 C   0  0  2  0  0  3  0  0  0  0  0  0
  184.1300  179.3390  142.7120 C   0  0  0  0  0  3  0  0  0  0  0  0
  185.2190  178.7090  142.0880 C   0  0  0  0  0  0  0  0  0  0  0  0
  186.0510  178.0570  144.2760 C   0  0  0  0  0  3  0  0  0  0  0  0
  186.1900  178.0660  142.8790 C   0  0  0  0  0  0  0  0  0  0  0  0
  184.0040  179.3290  144.1020 C   0  0  0  0  0  3  0  0  0  0  0  0
  184.9640  178.6870  144.8840 C   0  0  0  0  0  3  0  0  0  0  0  0
  185.3590  178.7190  140.6580 N   0  0  0  0  0  2  0  0  0  0  0  0
  183.5680  179.7430  139.3390 C   0  0  0  0  0  1  0  0  0  0  0  0
  184.9370  177.9200  138.4140 C   0  0  0  0  0  1  0  0  0  0  0  0
  183.3280  177.4280  140.2100 C   0  0  0  0  0  1  0  0  0  0  0  0
  184.3050  178.4610  139.6790 C   0  0  0  0  0  0  0  0  0  0  0  0
  187.9380  176.3710  143.0560 O   0  0  0  0  0  0  0  0  0  0  0  0
  190.2490  176.1770  143.7310 C   0  0  0  0  0  0  0  0  0  0  0  0
  191.2690  176.3690  144.6680 C   0  0  0  0  0  3  0  0  0  0  0  0
  190.5370  175.5930  142.5420 F   0  0  0  0  0  0  0  0  0  0  0  0
  188.6660  177.1890  145.2550 C   0  0  0  0  0  3  0  0  0  0  0  0
  189.3830  178.0200  147.4980 C   0  0  0  0  0  1  0  0  0  0  0  0
  188.9380  176.5810  144.0190 C   0  0  0  0  0  0  0  0  0  0  0  0
  190.9870  176.9700  145.8980 C   0  0  0  0  0  3  0  0  0  0  0  0
  189.6850  177.3800  146.1900 C   0  0  0  0  0  0  0  0  0  0  0  0
  188.3980  178.3150  141.6110 C   0  0  0  0  0  2  0  0  0  0  0  0
  189.1750  177.6290  140.4900 C   0  0  2  0  0  3  0  0  0  0  0  0
  191.2970  175.9930  139.1740 O   0  0  0  0  0  0  0  0  0  0  0  0
  191.6280  177.0880  139.9640 C   0  0  0  0  0  0  0  0  0  0  0  0
  192.8380  177.3890  140.1300 O   0  0  0  0  0  1  0  0  0  0  0  0
  190.6120  177.8860  140.5790 N   0  0  0  0  0  2  0  0  0  0  0  0
  188.6910  179.3080  138.6890 O   0  0  0  0  0  1  0  0  0  0  0  0
  188.1210  177.0560  138.3690 C   0  0  0  0  0  2  0  0  0  0  0  0
  188.6390  177.9970  139.1440 C   0  0  0  0  0  0  0  0  0  0  0  0
  1 22  1  1  0  0  0
  1  5  1  0  0  0  0
  1 13  1  0  0  0  0
  2  6  1  0  0  0  0
  3  2  2  0  0  0  0
  3  5  1  0  0  0  0
  4  7  1  0  0  0  0
  5  4  2  0  0  0  0
  6  7  2  0  0  0  0
  8  3  1  0  0  0  0
  9 12  1  0  0  0  0
 10 12  1  0  0  0  0
 12 11  1  0  0  0  0
 12  8  1  0  0  0  0
 13 19  1  0  0  0  0
 14 19  2  0  0  0  0
 14 15  1  0  0  0  0
 15 20  2  0  0  0  0
 16 14  1  0  0  0  0
 17 21  2  0  0  0  0
 19 17  1  0  0  0  0
 20 21  1  0  0  0  0
 21 18  1  0  0  0  0
 23 27  1  0  0  0  0
 23 22  1  1  0  0  0
 24 25  2  0  0  0  0
 25 26  1  0  0  0  0
 25 27  1  0  0  0  0
 28 30  1  0  0  0  0
 29 30  2  0  0  0  0
 30 23  1  0  0  0  0
M  END
>  <MODEL>
1

>  <REMARK>
 VINA RESULT:      -7.9      0.000      0.000
  Name = 
  9 active torsions:
  status: ('A' for Active; 'I' for Inactive)
    1  A    between atoms: O_1  and  C_5
    2  A    between atoms: O_1  and  C_22
    3  A    between atoms: C_4  and  C_5
    4  A    between atoms: C_4  and  C_23
    5  A    between atoms: C_5  and  C_12
    6  A    between atoms: C_8  and  N_13
    7  A    between atoms: N_13  and  C_30
    8  A    between atoms: C_23  and  N_25
    9  A    between atoms: C_23  and  C_26
                            x       y       z     vdW  Elec       q    Type
                         _______ _______ _______ _____ _____    ______ ____

>  <TORSDO>
F 9

$$$$
=
 OpenBabel10272413453D

 30 31  0  0  1  0  0  0  0  0999 V2000
  185.1800  178.3930  139.0690 C   0  0  2  0  0  3  0  0  0  0  0  0
  181.4380  177.9900  138.4860 C   0  0  0  0  0  3  0  0  0  0  0  0
  182.7960  177.6780  138.6620 C   0  0  0  0  0  0  0  0  0  0  0  0
  183.2750  180.0480  138.8970 C   0  0  0  0  0  3  0  0  0  0  0  0
  183.7220  178.7180  138.8660 C   0  0  0  0  0  0  0  0  0  0  0  0
  181.0040  179.3160  138.5140 C   0  0  0  0  0  3  0  0  0  0  0  0
  181.9220  180.3450  138.7200 C   0  0  0  0  0  3  0  0  0  0  0  0
  183.2520  176.3150  138.6300 N   0  0  0  0  0  2  0  0  0  0  0  0
  183.4490  176.2170  136.1910 C   0  0  0  0  0  1  0  0  0  0  0  0
  184.3930  174.4420  137.6100 C   0  0  0  0  0  1  0  0  0  0  0  0
  181.9500  174.6460  137.3990 C   0  0  0  0  0  1  0  0  0  0  0  0
  183.2500  175.4250  137.4700 C   0  0  0  0  0  0  0  0  0  0  0  0
  185.7510  179.1160  140.1640 O   0  0  0  0  0  0  0  0  0  0  0  0
  186.7500  178.2300  142.1770 C   0  0  0  0  0  0  0  0  0  0  0  0
  186.6710  177.8780  143.5280 C   0  0  0  0  0  3  0  0  0  0  0  0
  187.9090  178.0330  141.5020 F   0  0  0  0  0  0  0  0  0  0  0  0
  184.4500  178.9760  142.2430 C   0  0  0  0  0  3  0  0  0  0  0  0
  183.1070  178.8350  144.3430 C   0  0  0  0  0  1  0  0  0  0  0  0
  185.6380  178.7770  141.5220 C   0  0  0  0  0  0  0  0  0  0  0  0
  185.4830  178.0750  144.2360 C   0  0  0  0  0  3  0  0  0  0  0  0
  184.3720  178.6250  143.5920 C   0  0  0  0  0  0  0  0  0  0  0  0
  186.0360  178.4630  137.8040 C   0  0  0  0  0  2  0  0  0  0  0  0
  186.8520  177.1870  137.6150 C   0  0  2  0  0  3  0  0  0  0  0  0
  188.9070  179.3510  137.6760 O   0  0  0  0  0  0  0  0  0  0  0  0
  189.0530  178.2070  138.4520 C   0  0  0  0  0  0  0  0  0  0  0  0
  190.0670  178.0810  139.1850 O   0  0  0  0  0  1  0  0  0  0  0  0
  188.0600  177.1770  138.4400 N   0  0  0  0  0  2  0  0  0  0  0  0
  187.8960  175.8300  135.7810 O   0  0  0  0  0  1  0  0  0  0  0  0
  186.7490  177.8080  135.2610 C   0  0  0  0  0  2  0  0  0  0  0  0
  187.1730  176.9480  136.1750 C   0  0  0  0  0  0  0  0  0  0  0  0
  1 22  1  6  0  0  0
  1 13  1  0  0  0  0
  2  6  2  0  0  0  0
  2  3  1  0  0  0  0
  3  5  2  0  0  0  0
  5  4  1  0  0  0  0
  5  1  1  0  0  0  0
  6  7  1  0  0  0  0
  7  4  2  0  0  0  0
  8  3  1  0  0  0  0
  9 12  1  0  0  0  0
 11 12  1  0  0  0  0
 12 10  1  0  0  0  0
 12  8  1  0  0  0  0
 13 19  1  0  0  0  0
 14 15  1  0  0  0  0
 15 20  2  0  0  0  0
 16 14  1  0  0  0  0
 17 21  2  0  0  0  0
 19 14  2  0  0  0  0
 19 17  1  0  0  0  0
 21 20  1  0  0  0  0
 21 18  1  0  0  0  0
 23 22  1  6  0  0  0
 23 27  1  0  0  0  0
 24 25  2  0  0  0  0
 25 26  1  0  0  0  0
 27 25  1  0  0  0  0
 28 30  1  0  0  0  0
 29 30  2  0  0  0  0
 30 23  1  0  0  0  0
M  END
>  <MODEL>
2

>  <REMARK>
 VINA RESULT:      -7.4      2.749      4.752
  Name = 
  9 active torsions:
  status: ('A' for Active; 'I' for Inactive)
    1  A    between atoms: O_1  and  C_5
    2  A    between atoms: O_1  and  C_22
    3  A    between atoms: C_4  and  C_5
    4  A    between atoms: C_4  and  C_23
    5  A    between atoms: C_5  and  C_12
    6  A    between atoms: C_8  and  N_13
    7  A    between atoms: N_13  and  C_30
    8  A    between atoms: C_23  and  N_25
    9  A    between atoms: C_23  and  C_26
                            x       y       z     vdW  Elec       q    Type
                         _______ _______ _______ _____ _____    ______ ____

>  <TORSDO>
F 9

$$$$
=
 OpenBabel10272413453D

 30 31  0  0  1  0  0  0  0  0999 V2000
  187.2000  177.5800  142.3440 C   0  0  2  0  0  3  0  0  0  0  0  0
  183.7390  178.7980  143.3640 C   0  0  0  0  0  3  0  0  0  0  0  0
  184.7990  178.3160  142.5800 C   0  0  0  0  0  0  0  0  0  0  0  0
  186.2330  178.3820  144.5390 C   0  0  0  0  0  3  0  0  0  0  0  0
  186.0590  178.1100  143.1740 C   0  0  0  0  0  0  0  0  0  0  0  0
  183.9250  179.0700  144.7200 C   0  0  0  0  0  3  0  0  0  0  0  0
  185.1720  178.8610  145.3080 C   0  0  0  0  0  3  0  0  0  0  0  0
  184.6180  178.0380  141.1810 N   0  0  0  0  0  2  0  0  0  0  0  0
  183.6450  179.4370  139.4230 C   0  0  0  0  0  1  0  0  0  0  0  0
  183.0800  177.0480  139.5990 C   0  0  0  0  0  1  0  0  0  0  0  0
  182.2410  178.6140  141.3010 C   0  0  0  0  0  1  0  0  0  0  0  0
  183.4140  178.2930  140.3930 C   0  0  0  0  0  0  0  0  0  0  0  0
  187.8720  176.4870  142.9780 O   0  0  0  0  0  0  0  0  0  0  0  0
  190.1870  176.1300  143.5680 C   0  0  0  0  0  0  0  0  0  0  0  0
  191.2440  176.2180  144.4790 C   0  0  0  0  0  3  0  0  0  0  0  0
  190.4050  175.5880  142.3440 F   0  0  0  0  0  0  0  0  0  0  0  0
  188.7120  177.1550  145.1880 C   0  0  0  0  0  3  0  0  0  0  0  0
  189.5420  177.8330  147.4430 C   0  0  0  0  0  1  0  0  0  0  0  0
  188.9110  176.5930  143.9170 C   0  0  0  0  0  0  0  0  0  0  0  0
  191.0340  176.7730  145.7440 C   0  0  0  0  0  3  0  0  0  0  0  0
  189.7670  177.2420  146.0980 C   0  0  0  0  0  0  0  0  0  0  0  0
  188.1660  178.6460  141.8250 C   0  0  0  0  0  2  0  0  0  0  0  0
  188.4870  178.4320  140.3480 C   0  0  2  0  0  3  0  0  0  0  0  0
  187.6470  179.0490  137.5510 O   0  0  0  0  0  0  0  0  0  0  0  0
  186.9770  178.0900  138.3010 C   0  0  0  0  0  0  0  0  0  0  0  0
  186.0010  177.4790  137.7950 O   0  0  0  0  0  1  0  0  0  0  0  0
  187.3900  177.7780  139.6350 N   0  0  0  0  0  2  0  0  0  0  0  0
  190.8980  178.0260  140.9100 O   0  0  0  0  0  1  0  0  0  0  0  0
  189.8350  176.6970  139.2950 C   0  0  0  0  0  2  0  0  0  0  0  0
  189.7730  177.6930  140.1660 C   0  0  0  0  0  0  0  0  0  0  0  0
  1 22  1  1  0  0  0
  1 13  1  0  0  0  0
  1  5  1  0  0  0  0
  2  6  1  0  0  0  0
  3  5  1  0  0  0  0
  3  2  2  0  0  0  0
  4  7  1  0  0  0  0
  5  4  2  0  0  0  0
  6  7  2  0  0  0  0
  8  3  1  0  0  0  0
  9 12  1  0  0  0  0
 10 12  1  0  0  0  0
 12  8  1  0  0  0  0
 12 11  1  0  0  0  0
 13 19  1  0  0  0  0
 14 19  2  0  0  0  0
 14 15  1  0  0  0  0
 15 20  2  0  0  0  0
 16 14  1  0  0  0  0
 17 21  2  0  0  0  0
 19 17  1  0  0  0  0
 20 21  1  0  0  0  0
 21 18  1  0  0  0  0
 23 22  1  1  0  0  0
 24 25  2  0  0  0  0
 25 27  1  0  0  0  0
 26 25  1  0  0  0  0
 27 23  1  0  0  0  0
 29 30  2  0  0  0  0
 30 23  1  0  0  0  0
 30 28  1  0  0  0  0
M  END
>  <MODEL>
3

>  <REMARK>
 VINA RESULT:      -7.3      1.222      2.224
  Name = 
  9 active torsions:
  status: ('A' for Active; 'I' for Inactive)
    1  A    between atoms: O_1  and  C_5
    2  A    between atoms: O_1  and  C_22
    3  A    between atoms: C_4  and  C_5
    4  A    between atoms: C_4  and  C_23
    5  A    between atoms: C_5  and  C_12
    6  A    between atoms: C_8  and  N_13
    7  A    between atoms: N_13  and  C_30
    8  A    between atoms: C_23  and  N_25
    9  A    between atoms: C_23  and  C_26
                            x       y       z     vdW  Elec       q    Type
                         _______ _______ _______ _____ _____    ______ ____

>  <TORSDO>
F 9

$$$$
=
 OpenBabel10272413453D

 30 31  0  0  1  0  0  0  0  0999 V2000
  186.3840  177.6690  142.5490 C   0  0  2  0  0  3  0  0  0  0  0  0
  182.7900  178.9040  142.8040 C   0  0  0  0  0  3  0  0  0  0  0  0
  183.9540  178.2970  142.3030 C   0  0  0  0  0  0  0  0  0  0  0  0
  185.1260  178.9570  144.3250 C   0  0  0  0  0  3  0  0  0  0  0  0
  185.1330  178.3290  143.0710 C   0  0  0  0  0  0  0  0  0  0  0  0
  182.7960  179.5300  144.0510 C   0  0  0  0  0  3  0  0  0  0  0  0
  183.9640  179.5570  144.8120 C   0  0  0  0  0  3  0  0  0  0  0  0
  183.9580  177.6540  141.0180 N   0  0  0  0  0  2  0  0  0  0  0  0
  181.6470  177.8620  140.2380 C   0  0  0  0  0  1  0  0  0  0  0  0
  183.3860  179.4260  139.4740 C   0  0  0  0  0  1  0  0  0  0  0  0
  183.4340  177.0930  138.6930 C   0  0  0  0  0  1  0  0  0  0  0  0
  183.1130  177.9920  139.8730 C   0  0  0  0  0  0  0  0  0  0  0  0
  186.9390  176.7380  143.4830 O   0  0  0  0  0  0  0  0  0  0  0  0
  187.4330  177.2560  145.7900 C   0  0  0  0  0  0  0  0  0  0  0  0
  188.3440  177.5570  146.8070 C   0  0  0  0  0  3  0  0  0  0  0  0
  186.1100  177.1810  146.0790 F   0  0  0  0  0  0  0  0  0  0  0  0
  189.2560  177.1150  144.2070 C   0  0  0  0  0  3  0  0  0  0  0  0
  191.6180  177.5020  144.9190 C   0  0  0  0  0  1  0  0  0  0  0  0
  187.8810  177.0370  144.4800 C   0  0  0  0  0  0  0  0  0  0  0  0
  189.7090  177.6390  146.5240 C   0  0  0  0  0  3  0  0  0  0  0  0
  190.1650  177.4160  145.2230 C   0  0  0  0  0  0  0  0  0  0  0  0
  187.4290  178.6320  141.9820 C   0  0  0  0  0  2  0  0  0  0  0  0
  188.3180  177.9420  140.9510 C   0  0  2  0  0  3  0  0  0  0  0  0
  190.4830  176.1010  140.0400 O   0  0  0  0  0  0  0  0  0  0  0  0
  190.7730  177.2040  140.8340 C   0  0  0  0  0  0  0  0  0  0  0  0
  191.9630  177.4260  141.1760 O   0  0  0  0  0  1  0  0  0  0  0  0
  189.7390  178.0990  141.2550 N   0  0  0  0  0  2  0  0  0  0  0  0
  186.6950  178.4190  139.0980 O   0  0  0  0  0  1  0  0  0  0  0  0
  188.9860  178.7980  138.7690 C   0  0  0  0  0  2  0  0  0  0  0  0
  188.0030  178.3960  139.5620 C   0  0  0  0  0  0  0  0  0  0  0  0
  1 22  1  1  0  0  0
  1  5  1  0  0  0  0
  1 13  1  0  0  0  0
  2  6  1  0  0  0  0
  3  2  2  0  0  0  0
  3  5  1  0  0  0  0
  4  7  1  0  0  0  0
  5  4  2  0  0  0  0
  6  7  2  0  0  0  0
  8  3  1  0  0  0  0
 10 12  1  0  0  0  0
 11 12  1  0  0  0  0
 12  9  1  0  0  0  0
 12  8  1  0  0  0  0
 13 19  1  0  0  0  0
 14 16  1  0  0  0  0
 14 15  1  0  0  0  0
 17 19  1  0  0  0  0
 17 21  2  0  0  0  0
 18 21  1  0  0  0  0
 19 14  2  0  0  0  0
 20 15  2  0  0  0  0
 21 20  1  0  0  0  0
 23 27  1  0  0  0  0
 23 22  1  1  0  0  0
 24 25  2  0  0  0  0
 25 26  1  0  0  0  0
 25 27  1  0  0  0  0
 28 30  1  0  0  0  0
 29 30  2  0  0  0  0
 30 23  1  0  0  0  0
M  END
>  <MODEL>
4

>  <REMARK>
 VINA RESULT:      -7.2      1.586      2.102
  Name = 
  9 active torsions:
  status: ('A' for Active; 'I' for Inactive)
    1  A    between atoms: O_1  and  C_5
    2  A    between atoms: O_1  and  C_22
    3  A    between atoms: C_4  and  C_5
    4  A    between atoms: C_4  and  C_23
    5  A    between atoms: C_5  and  C_12
    6  A    between atoms: C_8  and  N_13
    7  A    between atoms: N_13  and  C_30
    8  A    between atoms: C_23  and  N_25
    9  A    between atoms: C_23  and  C_26
                            x       y       z     vdW  Elec       q    Type
                         _______ _______ _______ _____ _____    ______ ____

>  <TORSDO>
F 9

$$$$
=
 OpenBabel10272413453D

 30 31  0  0  1  0  0  0  0  0999 V2000
  185.2190  178.4110  139.0920 C   0  0  2  0  0  3  0  0  0  0  0  0
  181.5130  177.9170  138.3690 C   0  0  0  0  0  3  0  0  0  0  0  0
  182.8710  177.6380  138.5890 C   0  0  0  0  0  0  0  0  0  0  0  0
  183.2760  180.0160  138.8800 C   0  0  0  0  0  3  0  0  0  0  0  0
  183.7610  178.7000  138.8420 C   0  0  0  0  0  0  0  0  0  0  0  0
  181.0420  179.2300  138.4050 C   0  0  0  0  0  3  0  0  0  0  0  0
  181.9230  180.2800  138.6610 C   0  0  0  0  0  3  0  0  0  0  0  0
  183.3660  176.2890  138.5490 N   0  0  0  0  0  2  0  0  0  0  0  0
  184.5460  174.4100  137.5150 C   0  0  0  0  0  1  0  0  0  0  0  0
  182.1100  174.6620  137.2740 C   0  0  0  0  0  1  0  0  0  0  0  0
  183.6060  176.2340  136.1130 C   0  0  0  0  0  1  0  0  0  0  0  0
  183.4190  175.4160  137.3780 C   0  0  0  0  0  0  0  0  0  0  0  0
  185.7450  179.1690  140.1860 O   0  0  0  0  0  0  0  0  0  0  0  0
  184.8830  178.6990  142.3930 C   0  0  0  0  0  0  0  0  0  0  0  0
  185.0580  178.2350  143.7000 C   0  0  0  0  0  3  0  0  0  0  0  0
  183.6680  179.1580  142.0040 F   0  0  0  0  0  0  0  0  0  0  0  0
  187.2030  178.2090  141.9140 C   0  0  0  0  0  3  0  0  0  0  0  0
  188.7040  177.2410  143.6580 C   0  0  0  0  0  1  0  0  0  0  0  0
  185.9550  178.6940  141.4900 C   0  0  0  0  0  0  0  0  0  0  0  0
  186.3050  177.7600  144.1140 C   0  0  0  0  0  3  0  0  0  0  0  0
  187.3770  177.7460  143.2200 C   0  0  0  0  0  0  0  0  0  0  0  0
  186.1080  178.4720  137.8490 C   0  0  0  0  0  2  0  0  0  0  0  0
  186.9180  177.1890  137.6830 C   0  0  2  0  0  3  0  0  0  0  0  0
  188.9560  179.3570  137.9170 O   0  0  0  0  0  0  0  0  0  0  0  0
  189.0710  178.1880  138.6590 C   0  0  0  0  0  0  0  0  0  0  0  0
  190.0490  178.0400  139.4360 O   0  0  0  0  0  1  0  0  0  0  0  0
  188.0850  177.1560  138.5640 N   0  0  0  0  0  2  0  0  0  0  0  0
  188.0060  175.8270  135.8780 O   0  0  0  0  0  1  0  0  0  0  0  0
  186.9620  177.8570  135.3390 C   0  0  0  0  0  2  0  0  0  0  0  0
  187.3060  176.9650  136.2560 C   0  0  0  0  0  0  0  0  0  0  0  0
  1 22  1  6  0  0  0
  1 13  1  0  0  0  0
  2  6  2  0  0  0  0
  2  3  1  0  0  0  0
  3  5  2  0  0  0  0
  5  4  1  0  0  0  0
  5  1  1  0  0  0  0
  6  7  1  0  0  0  0
  7  4  2  0  0  0  0
  8  3  1  0  0  0  0
 10 12  1  0  0  0  0
 11 12  1  0  0  0  0
 12  9  1  0  0  0  0
 12  8  1  0  0  0  0
 13 19  1  0  0  0  0
 14 15  1  0  0  0  0
 15 20  2  0  0  0  0
 16 14  1  0  0  0  0
 17 21  2  0  0  0  0
 19 17  1  0  0  0  0
 19 14  2  0  0  0  0
 21 18  1  0  0  0  0
 21 20  1  0  0  0  0
 23 22  1  6  0  0  0
 23 27  1  0  0  0  0
 24 25  2  0  0  0  0
 25 26  1  0  0  0  0
 27 25  1  0  0  0  0
 28 30  1  0  0  0  0
 29 30  2  0  0  0  0
 30 23  1  0  0  0  0
M  END
>  <MODEL>
5

>  <REMARK>
 VINA RESULT:      -7.2      2.715      4.801
  Name = 
  9 active torsions:
  status: ('A' for Active; 'I' for Inactive)
    1  A    between atoms: O_1  and  C_5
    2  A    between atoms: O_1  and  C_22
    3  A    between atoms: C_4  and  C_5
    4  A    between atoms: C_4  and  C_23
    5  A    between atoms: C_5  and  C_12
    6  A    between atoms: C_8  and  N_13
    7  A    between atoms: N_13  and  C_30
    8  A    between atoms: C_23  and  N_25
    9  A    between atoms: C_23  and  C_26
                            x       y       z     vdW  Elec       q    Type
                         _______ _______ _______ _____ _____    ______ ____

>  <TORSDO>
F 9

$$$$
=
 OpenBabel10272413453D

 30 31  0  0  1  0  0  0  0  0999 V2000
  188.7270  177.2620  143.6240 C   0  0  2  0  0  3  0  0  0  0  0  0
  190.9810  176.8730  146.6690 C   0  0  0  0  0  3  0  0  0  0  0  0
  189.9080  177.2660  145.8530 C   0  0  0  0  0  0  0  0  0  0  0  0
  190.9200  176.0600  144.0030 C   0  0  0  0  0  3  0  0  0  0  0  0
  189.8810  176.8580  144.5060 C   0  0  0  0  0  0  0  0  0  0  0  0
  192.0120  176.0840  146.1580 C   0  0  0  0  0  3  0  0  0  0  0  0
  191.9820  175.6770  144.8240 C   0  0  0  0  0  3  0  0  0  0  0  0
  188.8450  178.0820  146.3700 N   0  0  0  0  0  2  0  0  0  0  0  0
  187.1050  178.9730  147.8460 C   0  0  0  0  0  1  0  0  0  0  0  0
  187.8300  176.6280  148.0150 C   0  0  0  0  0  1  0  0  0  0  0  0
  189.3550  178.4170  148.7420 C   0  0  0  0  0  1  0  0  0  0  0  0
  188.2940  178.0390  147.7250 C   0  0  0  0  0  0  0  0  0  0  0  0
  187.4770  177.2390  144.3200 O   0  0  0  0  0  0  0  0  0  0  0  0
  185.2500  178.0410  144.8030 C   0  0  0  0  0  0  0  0  0  0  0  0
  184.0430  178.6170  144.3960 C   0  0  0  0  0  3  0  0  0  0  0  0
  185.4170  177.6900  146.1020 F   0  0  0  0  0  0  0  0  0  0  0  0
  186.0840  178.1990  142.5380 C   0  0  0  0  0  3  0  0  0  0  0  0
  184.6830  179.1630  140.7110 C   0  0  0  0  0  1  0  0  0  0  0  0
  186.2790  177.8220  143.8770 C   0  0  0  0  0  0  0  0  0  0  0  0
  183.8570  178.9840  143.0600 C   0  0  0  0  0  3  0  0  0  0  0  0
  184.8790  178.7740  142.1320 C   0  0  0  0  0  0  0  0  0  0  0  0
  188.6670  176.5430  142.2760 C   0  0  0  0  0  2  0  0  0  0  0  0
  189.0910  177.4650  141.1350 C   0  0  2  0  0  3  0  0  0  0  0  0
  189.2660  179.1970  138.7110 O   0  0  0  0  0  1  0  0  0  0  0  0
  188.1420  178.4140  138.9480 C   0  0  0  0  0  0  0  0  0  0  0  0
  187.1850  178.4410  138.1330 O   0  0  0  0  0  0  0  0  0  0  0  0
  188.0640  177.5680  140.0990 N   0  0  0  0  0  2  0  0  0  0  0  0
  190.4860  176.0610  139.5940 O   0  0  0  0  0  1  0  0  0  0  0  0
  191.5140  177.6630  140.9640 C   0  0  0  0  0  2  0  0  0  0  0  0
  190.4080  177.0560  140.5590 C   0  0  0  0  0  0  0  0  0  0  0  0
  1 22  1  6  0  0  0
  1 13  1  0  0  0  0
  1  5  1  0  0  0  0
  3  8  1  0  0  0  0
  3  2  2  0  0  0  0
  4  5  2  0  0  0  0
  4  7  1  0  0  0  0
  5  3  1  0  0  0  0
  6  2  1  0  0  0  0
  7  6  2  0  0  0  0
  8 12  1  0  0  0  0
 12  9  1  0  0  0  0
 12 10  1  0  0  0  0
 12 11  1  0  0  0  0
 14 16  1  0  0  0  0
 15 14  1  0  0  0  0
 17 19  1  0  0  0  0
 18 21  1  0  0  0  0
 19 13  1  0  0  0  0
 19 14  2  0  0  0  0
 20 15  2  0  0  0  0
 21 17  2  0  0  0  0
 21 20  1  0  0  0  0
 23 22  1  1  0  0  0
 24 25  1  0  0  0  0
 25 27  1  0  0  0  0
 26 25  2  0  0  0  0
 27 23  1  0  0  0  0
 28 30  1  0  0  0  0
 30 29  2  0  0  0  0
 30 23  1  0  0  0  0
M  END
>  <MODEL>
6

>  <REMARK>
 VINA RESULT:      -7.2      2.032      6.230
  Name = 
  9 active torsions:
  status: ('A' for Active; 'I' for Inactive)
    1  A    between atoms: O_1  and  C_5
    2  A    between atoms: O_1  and  C_22
    3  A    between atoms: C_4  and  C_5
    4  A    between atoms: C_4  and  C_23
    5  A    between atoms: C_5  and  C_12
    6  A    between atoms: C_8  and  N_13
    7  A    between atoms: N_13  and  C_30
    8  A    between atoms: C_23  and  N_25
    9  A    between atoms: C_23  and  C_26
                            x       y       z     vdW  Elec       q    Type
                         _______ _______ _______ _____ _____    ______ ____

>  <TORSDO>
F 9

$$$$
=
 OpenBabel10272413453D

 30 31  0  0  1  0  0  0  0  0999 V2000
  186.8170  178.0950  142.2700 C   0  0  2  0  0  3  0  0  0  0  0  0
  187.0750  177.6750  146.0460 C   0  0  0  0  0  3  0  0  0  0  0  0
  187.4020  177.6420  144.6810 C   0  0  0  0  0  0  0  0  0  0  0  0
  185.2350  178.6150  144.1740 C   0  0  0  0  0  3  0  0  0  0  0  0
  186.4700  178.1140  143.7370 C   0  0  0  0  0  0  0  0  0  0  0  0
  185.8410  178.1710  146.4700 C   0  0  0  0  0  3  0  0  0  0  0  0
  184.9210  178.6420  145.5340 C   0  0  0  0  0  3  0  0  0  0  0  0
  188.6680  177.1280  144.2360 N   0  0  0  0  0  2  0  0  0  0  0  0
  191.0020  176.3940  144.3360 C   0  0  0  0  0  1  0  0  0  0  0  0
  190.4210  178.7820  144.4500 C   0  0  0  0  0  1  0  0  0  0  0  0
  189.8840  177.3180  146.3530 C   0  0  0  0  0  1  0  0  0  0  0  0
  189.9740  177.3890  144.8400 C   0  0  0  0  0  0  0  0  0  0  0  0
  188.2300  178.1210  142.0440 O   0  0  0  0  0  0  0  0  0  0  0  0
  189.7990  176.8200  140.7480 C   0  0  0  0  0  0  0  0  0  0  0  0
  190.4570  176.5420  139.5460 C   0  0  0  0  0  3  0  0  0  0  0  0
  190.0670  176.0690  141.8450 F   0  0  0  0  0  0  0  0  0  0  0  0
  188.6070  178.6280  139.6700 C   0  0  0  0  0  3  0  0  0  0  0  0
  188.9810  179.1660  137.2610 C   0  0  0  0  0  1  0  0  0  0  0  0
  188.8710  177.8680  140.8210 C   0  0  0  0  0  0  0  0  0  0  0  0
  190.1920  177.3070  138.4080 C   0  0  0  0  0  3  0  0  0  0  0  0
  189.2650  178.3510  138.4710 C   0  0  0  0  0  0  0  0  0  0  0  0
  186.0640  179.1200  141.4200 C   0  0  0  0  0  2  0  0  0  0  0  0
  185.1530  178.4350  140.4040 C   0  0  2  0  0  3  0  0  0  0  0  0
  184.3710  176.6780  138.1220 O   0  0  0  0  0  1  0  0  0  0  0  0
  185.3030  177.6940  137.9520 C   0  0  0  0  0  0  0  0  0  0  0  0
  185.8270  177.8710  136.8220 O   0  0  0  0  0  0  0  0  0  0  0  0
  185.6650  178.5510  139.0390 N   0  0  0  0  0  2  0  0  0  0  0  0
  183.2560  179.8670  139.5990 O   0  0  0  0  0  1  0  0  0  0  0  0
  182.9550  178.4660  141.4560 C   0  0  0  0  0  2  0  0  0  0  0  0
  183.7470  178.9330  140.5030 C   0  0  0  0  0  0  0  0  0  0  0  0
  1 22  1  6  0  0  0
  1  5  1  0  0  0  0
  2  6  1  0  0  0  0
  3  2  2  0  0  0  0
  4  7  1  0  0  0  0
  5  4  2  0  0  0  0
  5  3  1  0  0  0  0
  7  6  2  0  0  0  0
  8  3  1  0  0  0  0
  8 12  1  0  0  0  0
  9 12  1  0  0  0  0
 10 12  1  0  0  0  0
 12 11  1  0  0  0  0
 13  1  1  0  0  0  0
 14 19  1  0  0  0  0
 14 16  1  0  0  0  0
 15 14  2  0  0  0  0
 17 19  2  0  0  0  0
 18 21  1  0  0  0  0
 19 13  1  0  0  0  0
 20 21  2  0  0  0  0
 20 15  1  0  0  0  0
 21 17  1  0  0  0  0
 23 30  1  0  0  0  0
 23 22  1  1  0  0  0
 25 24  1  0  0  0  0
 25 27  1  0  0  0  0
 26 25  2  0  0  0  0
 27 23  1  0  0  0  0
 28 30  1  0  0  0  0
 30 29  2  0  0  0  0
M  END
>  <MODEL>
7

>  <REMARK>
 VINA RESULT:      -7.2      2.123      5.729
  Name = 
  9 active torsions:
  status: ('A' for Active; 'I' for Inactive)
    1  A    between atoms: O_1  and  C_5
    2  A    between atoms: O_1  and  C_22
    3  A    between atoms: C_4  and  C_5
    4  A    between atoms: C_4  and  C_23
    5  A    between atoms: C_5  and  C_12
    6  A    between atoms: C_8  and  N_13
    7  A    between atoms: N_13  and  C_30
    8  A    between atoms: C_23  and  N_25
    9  A    between atoms: C_23  and  C_26
                            x       y       z     vdW  Elec       q    Type
                         _______ _______ _______ _____ _____    ______ ____

>  <TORSDO>
F 9

$$$$
=
 OpenBabel10272413453D

 30 31  0  0  1  0  0  0  0  0999 V2000
  187.1660  178.2410  140.4650 C   0  0  2  0  0  3  0  0  0  0  0  0
  187.1150  178.0210  136.6640 C   0  0  0  0  0  3  0  0  0  0  0  0
  186.7010  177.9500  138.0030 C   0  0  0  0  0  0  0  0  0  0  0  0
  188.9000  178.7210  138.6880 C   0  0  0  0  0  3  0  0  0  0  0  0
  187.6050  178.3000  139.0240 C   0  0  0  0  0  0  0  0  0  0  0  0
  188.4070  178.4360  136.3400 C   0  0  0  0  0  3  0  0  0  0  0  0
  189.3000  178.7870  137.3520 C   0  0  0  0  0  3  0  0  0  0  0  0
  185.3730  177.5190  138.3460 N   0  0  0  0  0  2  0  0  0  0  0  0
  185.3440  175.3930  137.1310 C   0  0  0  0  0  1  0  0  0  0  0  0
  183.4100  176.1110  138.4730 C   0  0  0  0  0  1  0  0  0  0  0  0
  183.9310  177.2940  136.3800 C   0  0  0  0  0  1  0  0  0  0  0  0
  184.5350  176.5950  137.5830 C   0  0  0  0  0  0  0  0  0  0  0  0
  186.1230  179.1770  140.7560 O   0  0  0  0  0  0  0  0  0  0  0  0
  183.7980  178.9300  141.3620 C   0  0  0  0  0  0  0  0  0  0  0  0
  182.7950  178.7870  142.3250 C   0  0  0  0  0  3  0  0  0  0  0  0
  183.4620  178.9730  140.0490 F   0  0  0  0  0  0  0  0  0  0  0  0
  185.4650  178.9800  143.1140 C   0  0  0  0  0  3  0  0  0  0  0  0
  184.8180  178.7890  145.5180 C   0  0  0  0  0  1  0  0  0  0  0  0
  185.1420  179.0320  141.7490 C   0  0  0  0  0  0  0  0  0  0  0  0
  183.1260  178.7410  143.6810 C   0  0  0  0  0  3  0  0  0  0  0  0
  184.4630  178.8370  144.0750 C   0  0  0  0  0  0  0  0  0  0  0  0
  188.3050  178.2900  141.4850 C   0  0  0  0  0  2  0  0  0  0  0  0
  188.5600  176.9150  142.0980 C   0  0  2  0  0  3  0  0  0  0  0  0
  189.6340  178.4130  144.4450 O   0  0  0  0  0  0  0  0  0  0  0  0
  188.5780  177.5210  144.5910 C   0  0  0  0  0  0  0  0  0  0  0  0
  188.0740  177.3400  145.7290 O   0  0  0  0  0  1  0  0  0  0  0  0
  188.0480  176.8170  143.4640 N   0  0  0  0  0  2  0  0  0  0  0  0
  190.4830  175.4130  142.6830 O   0  0  0  0  0  1  0  0  0  0  0  0
  190.8380  177.2890  141.3200 C   0  0  0  0  0  2  0  0  0  0  0  0
  190.0050  176.5420  142.0280 C   0  0  0  0  0  0  0  0  0  0  0  0
  1 13  1  0  0  0  0
  1 22  1  1  0  0  0
  2  3  1  0  0  0  0
  3  8  1  0  0  0  0
  3  5  2  0  0  0  0
  4  5  1  0  0  0  0
  5  1  1  0  0  0  0
  6  2  2  0  0  0  0
  6  7  1  0  0  0  0
  7  4  2  0  0  0  0
  9 12  1  0  0  0  0
 11 12  1  0  0  0  0
 12  8  1  0  0  0  0
 12 10  1  0  0  0  0
 13 19  1  0  0  0  0
 14 19  2  0  0  0  0
 14 15  1  0  0  0  0
 15 20  2  0  0  0  0
 16 14  1  0  0  0  0
 17 21  2  0  0  0  0
 19 17  1  0  0  0  0
 20 21  1  0  0  0  0
 21 18  1  0  0  0  0
 23 22  1  1  0  0  0
 23 27  1  0  0  0  0
 24 25  2  0  0  0  0
 25 26  1  0  0  0  0
 27 25  1  0  0  0  0
 29 30  2  0  0  0  0
 30 23  1  0  0  0  0
 30 28  1  0  0  0  0
M  END
>  <MODEL>
8

>  <REMARK>
 VINA RESULT:      -7.2      2.606      5.610
  Name = 
  9 active torsions:
  status: ('A' for Active; 'I' for Inactive)
    1  A    between atoms: O_1  and  C_5
    2  A    between atoms: O_1  and  C_22
    3  A    between atoms: C_4  and  C_5
    4  A    between atoms: C_4  and  C_23
    5  A    between atoms: C_5  and  C_12
    6  A    between atoms: C_8  and  N_13
    7  A    between atoms: N_13  and  C_30
    8  A    between atoms: C_23  and  N_25
    9  A    between atoms: C_23  and  C_26
                            x       y       z     vdW  Elec       q    Type
                         _______ _______ _______ _____ _____    ______ ____

>  <TORSDO>
F 9

$$$$
=
 OpenBabel10272413453D

 30 31  0  0  1  0  0  0  0  0999 V2000
  187.5050  177.2590  142.2110 C   0  0  2  0  0  3  0  0  0  0  0  0
  189.7270  178.0300  139.2160 C   0  0  0  0  0  3  0  0  0  0  0  0
  188.5850  177.8910  140.0220 C   0  0  0  0  0  0  0  0  0  0  0  0
  189.9960  177.0640  141.8180 C   0  0  0  0  0  3  0  0  0  0  0  0
  188.7220  177.3990  141.3340 C   0  0  0  0  0  0  0  0  0  0  0  0
  190.9890  177.6880  139.7060 C   0  0  0  0  0  3  0  0  0  0  0  0
  191.1230  177.2050  141.0070 C   0  0  0  0  0  3  0  0  0  0  0  0
  187.2820  178.2360  139.5230 N   0  0  0  0  0  2  0  0  0  0  0  0
  185.2410  178.0980  138.1780 C   0  0  0  0  0  1  0  0  0  0  0  0
  187.3550  178.8820  137.1930 C   0  0  0  0  0  1  0  0  0  0  0  0
  187.1120  176.5090  137.7960 C   0  0  0  0  0  1  0  0  0  0  0  0
  186.7480  177.9260  138.1980 C   0  0  0  0  0  0  0  0  0  0  0  0
  186.8380  178.5080  142.4200 O   0  0  0  0  0  0  0  0  0  0  0  0
  184.9590  179.3420  143.6880 C   0  0  0  0  0  0  0  0  0  0  0  0
  183.5840  179.5360  143.8520 C   0  0  0  0  0  3  0  0  0  0  0  0
  185.8140  179.7890  144.6420 F   0  0  0  0  0  0  0  0  0  0  0  0
  184.5470  178.2390  141.5760 C   0  0  0  0  0  3  0  0  0  0  0  0
  182.2260  177.9480  140.7030 C   0  0  0  0  0  1  0  0  0  0  0  0
  185.4520  178.6880  142.5510 C   0  0  0  0  0  0  0  0  0  0  0  0
  182.6920  179.0810  142.8780 C   0  0  0  0  0  3  0  0  0  0  0  0
  183.1740  178.4330  141.7390 C   0  0  0  0  0  0  0  0  0  0  0  0
  187.7360  176.4880  143.5110 C   0  0  0  0  0  2  0  0  0  0  0  0
  188.2340  177.4090  144.6220 C   0  0  2  0  0  3  0  0  0  0  0  0
  190.6150  179.1980  144.4270 O   0  0  0  0  0  0  0  0  0  0  0  0
  190.7280  177.9150  144.9490 C   0  0  0  0  0  0  0  0  0  0  0  0
  191.8510  177.5020  145.3380 O   0  0  0  0  0  1  0  0  0  0  0  0
  189.5850  177.0630  145.0620 N   0  0  0  0  0  2  0  0  0  0  0  0
  185.9880  176.9550  145.6440 O   0  0  0  0  0  1  0  0  0  0  0  0
  187.6780  177.9460  146.9340 C   0  0  0  0  0  2  0  0  0  0  0  0
  187.2800  177.4480  145.7720 C   0  0  0  0  0  0  0  0  0  0  0  0
  1 13  1  0  0  0  0
  1 22  1  1  0  0  0
  2  6  2  0  0  0  0
  2  3  1  0  0  0  0
  3  5  2  0  0  0  0
  5  4  1  0  0  0  0
  5  1  1  0  0  0  0
  6  7  1  0  0  0  0
  7  4  2  0  0  0  0
  8  3  1  0  0  0  0
  9 12  1  0  0  0  0
 10 12  1  0  0  0  0
 11 12  1  0  0  0  0
 12  8  1  0  0  0  0
 13 19  1  0  0  0  0
 14 15  1  0  0  0  0
 14 16  1  0  0  0  0
 17 21  2  0  0  0  0
 17 19  1  0  0  0  0
 18 21  1  0  0  0  0
 19 14  2  0  0  0  0
 20 15  2  0  0  0  0
 21 20  1  0  0  0  0
 23 22  1  6  0  0  0
 23 27  1  0  0  0  0
 23 30  1  0  0  0  0
 24 25  2  0  0  0  0
 25 27  1  0  0  0  0
 25 26  1  0  0  0  0
 28 30  1  0  0  0  0
 30 29  2  0  0  0  0
M  END
>  <MODEL>
9

>  <REMARK>
 VINA RESULT:      -7.0      2.531      5.895
  Name = 
  9 active torsions:
  status: ('A' for Active; 'I' for Inactive)
    1  A    between atoms: O_1  and  C_5
    2  A    between atoms: O_1  and  C_22
    3  A    between atoms: C_4  and  C_5
    4  A    between atoms: C_4  and  C_23
    5  A    between atoms: C_5  and  C_12
    6  A    between atoms: C_8  and  N_13
    7  A    between atoms: N_13  and  C_30
    8  A    between atoms: C_23  and  N_25
    9  A    between atoms: C_23  and  C_26
                            x       y       z     vdW  Elec       q    Type
                         _______ _______ _______ _____ _____    ______ ____

>  <TORSDO>
F 9

$$$$
