=
 OpenBabel10272400413D

 25 29  0  0  1  0  0  0  0  0999 V2000
  189.3260  177.0080  144.2720 C   0  0  0  0  0  0  0  0  0  0  0  0
  188.5770  177.4180  145.3790 C   0  0  0  0  0  0  0  0  0  0  0  0
  191.3200  176.7430  145.6240 C   0  0  0  0  0  3  0  0  0  0  0  0
  188.9100  176.7730  142.8540 C   0  0  2  0  0  3  0  0  0  0  0  0
  189.7240  177.5040  140.1960 C   0  0  0  0  0  3  0  0  0  0  0  0
  190.5950  177.1710  146.7480 C   0  0  0  0  0  3  0  0  0  0  0  0
  190.1720  176.3510  142.2300 N   0  0  0  0  0  0  0  0  0  0  0  0
  190.4340  176.5770  140.8420 C   0  0  0  0  0  3  0  0  0  0  0  0
  188.5030  177.9270  147.7630 C   0  0  0  0  0  0  0  0  0  0  0  0
  189.1000  178.0270  148.9770 F   0  0  0  0  0  0  0  0  0  0  0  0
  187.2200  177.7370  145.2700 C   0  0  0  0  0  3  0  0  0  0  0  0
  188.7230  178.3110  140.9270 C   0  0  0  0  0  3  0  0  0  0  0  0
  190.6540  176.6660  144.4030 C   0  0  0  0  0  0  0  0  0  0  0  0
  191.2110  176.2600  143.1670 N   0  0  0  0  0  2  0  0  0  0  0  0
  187.1480  178.2470  147.6390 C   0  0  0  0  0  3  0  0  0  0  0  0
  188.3750  178.0110  142.1850 C   0  0  0  0  0  3  0  0  0  0  0  0
  186.5050  178.1460  146.3990 C   0  0  0  0  0  0  0  0  0  0  0  0
  189.2290  177.5080  146.6390 C   0  0  0  0  0  0  0  0  0  0  0  0
  185.0660  178.5110  146.2750 C   0  0  0  0  0  2  0  0  0  0  0  0
  184.5700  178.2180  144.8710 C   0  0  2  0  0  3  0  0  0  0  0  0
  184.7440  179.4620  144.0200 C   0  0  2  0  0  3  0  0  0  0  0  0
  183.3760  179.0950  144.5650 C   0  0  0  0  0  2  0  0  0  0  0  0
  184.8420  179.0770  142.5800 C   0  0  0  0  0  0  0  0  0  0  0  0
  184.2820  177.8860  142.1340 O   0  0  0  0  0  1  0  0  0  0  0  0
  185.4700  179.8110  141.7710 O   0  0  0  0  0  0  0  0  0  0  0  0
  1 13  2  0  0  0  0
  1  2  1  0  0  0  0
  2 18  1  0  0  0  0
  3  6  2  0  0  0  0
  4 16  1  6  0  0  0
  4  1  1  0  0  0  0
  5  8  2  0  0  0  0
  5 12  1  0  0  0  0
  7  4  1  0  0  0  0
  7 14  1  0  0  0  0
  8  7  1  0  0  0  0
  9 10  1  0  0  0  0
 11  2  2  0  0  0  0
 11 17  1  0  0  0  0
 12 16  2  0  0  0  0
 13  3  1  0  0  0  0
 14 13  1  0  0  0  0
 15  9  1  0  0  0  0
 17 15  2  0  0  0  0
 18  6  1  0  0  0  0
 18  9  2  0  0  0  0
 19 17  1  0  0  0  0
 20 19  1  1  0  0  0
 21 23  1  6  0  0  0
 21 22  1  0  0  0  0
 21 20  1  0  0  0  0
 22 20  1  0  0  0  0
 24 23  1  0  0  0  0
 25 23  2  0  0  0  0
M  END
>  <MODEL>
1

>  <REMARK>
 VINA RESULT:     -11.1      0.000      0.000
  Name = 
  3 active torsions:
  status: ('A' for Active; 'I' for Inactive)
    1  A    between atoms: C_2  and  C_21
    2  A    between atoms: C_6  and  C_15
    3  A    between atoms: C_6  and  C_23
                            x       y       z     vdW  Elec       q    Type
                         _______ _______ _______ _____ _____    ______ ____

>  <TORSDO>
F 3

$$$$
=
 OpenBabel10272400413D

 25 29  0  0  1  0  0  0  0  0999 V2000
  186.7860  178.4040  142.4150 C   0  0  0  0  0  0  0  0  0  0  0  0
  186.0570  178.4180  143.6080 C   0  0  0  0  0  0  0  0  0  0  0  0
  184.7840  178.7640  141.0970 C   0  0  0  0  0  3  0  0  0  0  0  0
  188.2600  178.2920  142.1810 C   0  0  2  0  0  3  0  0  0  0  0  0
  190.1050  176.7550  140.6020 C   0  0  0  0  0  3  0  0  0  0  0  0
  184.0260  178.7620  142.2800 C   0  0  0  0  0  3  0  0  0  0  0  0
  188.3450  178.3540  140.7160 N   0  0  0  0  0  0  0  0  0  0  0  0
  189.4080  177.7210  139.9990 C   0  0  0  0  0  3  0  0  0  0  0  0
  183.8930  178.6010  144.7160 C   0  0  0  0  0  0  0  0  0  0  0  0
  182.5450  178.7610  144.6760 F   0  0  0  0  0  0  0  0  0  0  0  0
  186.6790  178.2640  144.8500 C   0  0  0  0  0  3  0  0  0  0  0  0
  189.7380  176.3210  141.9670 C   0  0  0  0  0  3  0  0  0  0  0  0
  186.1620  178.5900  141.2010 C   0  0  0  0  0  0  0  0  0  0  0  0
  187.0880  178.5600  140.1310 N   0  0  0  0  0  2  0  0  0  0  0  0
  184.5270  178.4420  145.9520 C   0  0  0  0  0  3  0  0  0  0  0  0
  188.8400  176.9990  142.6920 C   0  0  0  0  0  3  0  0  0  0  0  0
  185.9150  178.2810  146.0210 C   0  0  0  0  0  0  0  0  0  0  0  0
  184.6490  178.5930  143.5350 C   0  0  0  0  0  0  0  0  0  0  0  0
  186.5770  178.0920  147.3420 C   0  0  0  0  0  2  0  0  0  0  0  0
  188.0780  178.2710  147.2070 C   0  0  2  0  0  3  0  0  0  0  0  0
  188.7620  176.9610  147.5510 C   0  0  2  0  0  3  0  0  0  0  0  0
  188.7310  178.0930  148.5600 C   0  0  0  0  0  2  0  0  0  0  0  0
  190.0990  176.9020  146.8880 C   0  0  0  0  0  0  0  0  0  0  0  0
  191.1450  176.2060  147.4830 O   0  0  0  0  0  1  0  0  0  0  0  0
  190.2960  177.5170  145.8070 O   0  0  0  0  0  0  0  0  0  0  0  0
  1  2  1  0  0  0  0
  2 11  1  0  0  0  0
  3 13  1  0  0  0  0
  3  6  2  0  0  0  0
  4  1  1  0  0  0  0
  4 16  1  6  0  0  0
  5 12  1  0  0  0  0
  6 18  1  0  0  0  0
  7  4  1  0  0  0  0
  8  5  2  0  0  0  0
  8  7  1  0  0  0  0
  9 15  2  0  0  0  0
 10  9  1  0  0  0  0
 11 17  2  0  0  0  0
 12 16  2  0  0  0  0
 13  1  2  0  0  0  0
 14  7  1  0  0  0  0
 14 13  1  0  0  0  0
 15 17  1  0  0  0  0
 17 19  1  0  0  0  0
 18  2  2  0  0  0  0
 18  9  1  0  0  0  0
 20 19  1  1  0  0  0
 20 21  1  0  0  0  0
 20 22  1  0  0  0  0
 21 23  1  6  0  0  0
 21 22  1  0  0  0  0
 23 24  1  0  0  0  0
 25 23  2  0  0  0  0
M  END
>  <MODEL>
2

>  <REMARK>
 VINA RESULT:     -10.3      3.062      5.127
  Name = 
  3 active torsions:
  status: ('A' for Active; 'I' for Inactive)
    1  A    between atoms: C_2  and  C_21
    2  A    between atoms: C_6  and  C_15
    3  A    between atoms: C_6  and  C_23
                            x       y       z     vdW  Elec       q    Type
                         _______ _______ _______ _____ _____    ______ ____

>  <TORSDO>
F 3

$$$$
=
 OpenBabel10272400413D

 25 29  0  0  1  0  0  0  0  0999 V2000
  187.9120  177.2680  143.7890 C   0  0  0  0  0  0  0  0  0  0  0  0
  186.6770  177.7610  144.2200 C   0  0  0  0  0  0  0  0  0  0  0  0
  188.8020  177.3090  146.0430 C   0  0  0  0  0  3  0  0  0  0  0  0
  188.3600  176.8300  142.4300 C   0  0  2  0  0  3  0  0  0  0  0  0
  190.5340  177.2780  140.6040 C   0  0  0  0  0  3  0  0  0  0  0  0
  187.5770  177.8240  146.4990 C   0  0  0  0  0  3  0  0  0  0  0  0
  189.7490  176.4210  142.6810 N   0  0  0  0  0  0  0  0  0  0  0  0
  190.7470  176.4900  141.6590 C   0  0  0  0  0  3  0  0  0  0  0  0
  185.2860  178.5560  146.0580 C   0  0  0  0  0  0  0  0  0  0  0  0
  185.1010  178.8470  147.3710 F   0  0  0  0  0  0  0  0  0  0  0  0
  185.6190  177.9710  143.3300 C   0  0  0  0  0  3  0  0  0  0  0  0
  189.3060  178.1010  140.5300 C   0  0  0  0  0  3  0  0  0  0  0  0
  188.9340  177.0350  144.6840 C   0  0  0  0  0  0  0  0  0  0  0  0
  190.0820  176.5180  144.0390 N   0  0  0  0  0  2  0  0  0  0  0  0
  184.2380  178.7660  145.1570 C   0  0  0  0  0  3  0  0  0  0  0  0
  188.3090  177.9370  141.4090 C   0  0  0  0  0  3  0  0  0  0  0  0
  184.3990  178.4680  143.7990 C   0  0  0  0  0  0  0  0  0  0  0  0
  186.5120  178.0510  145.6010 C   0  0  0  0  0  0  0  0  0  0  0  0
  183.2820  178.7160  142.8440 C   0  0  0  0  0  2  0  0  0  0  0  0
  183.8030  178.7250  141.4190 C   0  0  2  0  0  3  0  0  0  0  0  0
  182.6410  178.9620  140.4730 C   0  0  2  0  0  3  0  0  0  0  0  0
  183.2040  177.5650  140.6560 C   0  0  0  0  0  2  0  0  0  0  0  0
  183.1430  179.5540  139.1970 C   0  0  0  0  0  0  0  0  0  0  0  0
  184.3820  180.1820  139.1570 O   0  0  0  0  0  1  0  0  0  0  0  0
  182.4270  179.5220  138.1610 O   0  0  0  0  0  0  0  0  0  0  0  0
  1  2  2  0  0  0  0
  1 13  1  0  0  0  0
  2 18  1  0  0  0  0
  3  6  1  0  0  0  0
  4 16  1  6  0  0  0
  4  7  1  0  0  0  0
  4  1  1  0  0  0  0
  5  8  2  0  0  0  0
  7 14  1  0  0  0  0
  8  7  1  0  0  0  0
  9 10  1  0  0  0  0
 11 17  2  0  0  0  0
 11  2  1  0  0  0  0
 12  5  1  0  0  0  0
 12 16  2  0  0  0  0
 13  3  2  0  0  0  0
 14 13  1  0  0  0  0
 15  9  2  0  0  0  0
 17 15  1  0  0  0  0
 18  9  1  0  0  0  0
 18  6  2  0  0  0  0
 19 17  1  0  0  0  0
 20 19  1  1  0  0  0
 21 23  1  6  0  0  0
 21 22  1  0  0  0  0
 21 20  1  0  0  0  0
 22 20  1  0  0  0  0
 24 23  1  0  0  0  0
 25 23  2  0  0  0  0
M  END
>  <MODEL>
3

>  <REMARK>
 VINA RESULT:     -10.2      2.028      2.971
  Name = 
  3 active torsions:
  status: ('A' for Active; 'I' for Inactive)
    1  A    between atoms: C_2  and  C_21
    2  A    between atoms: C_6  and  C_15
    3  A    between atoms: C_6  and  C_23
                            x       y       z     vdW  Elec       q    Type
                         _______ _______ _______ _____ _____    ______ ____

>  <TORSDO>
F 3

$$$$
=
 OpenBabel10272400413D

 25 29  0  0  1  0  0  0  0  0999 V2000
  187.6980  178.0580  145.8300 C   0  0  0  0  0  0  0  0  0  0  0  0
  188.9940  177.5480  145.7070 C   0  0  0  0  0  0  0  0  0  0  0  0
  187.6870  177.6610  148.2210 C   0  0  0  0  0  3  0  0  0  0  0  0
  186.7990  178.6740  144.8060 C   0  0  2  0  0  3  0  0  0  0  0  0
  184.1010  178.4260  143.8460 C   0  0  0  0  0  3  0  0  0  0  0  0
  188.9820  177.1250  148.1210 C   0  0  0  0  0  3  0  0  0  0  0  0
  185.6050  178.9980  145.6000 N   0  0  0  0  0  0  0  0  0  0  0  0
  184.3030  179.0460  145.0100 C   0  0  0  0  0  3  0  0  0  0  0  0
  190.9390  176.5390  146.7780 C   0  0  0  0  0  0  0  0  0  0  0  0
  191.5810  176.0670  147.8760 F   0  0  0  0  0  0  0  0  0  0  0  0
  189.6520  177.5040  144.4740 C   0  0  0  0  0  3  0  0  0  0  0  0
  185.1980  177.6630  143.2130 C   0  0  0  0  0  3  0  0  0  0  0  0
  187.0770  178.1250  147.0580 C   0  0  0  0  0  0  0  0  0  0  0  0
  185.7850  178.6930  146.9560 N   0  0  0  0  0  2  0  0  0  0  0  0
  191.5830  176.4970  145.5380 C   0  0  0  0  0  3  0  0  0  0  0  0
  186.4500  177.7300  143.6850 C   0  0  0  0  0  3  0  0  0  0  0  0
  190.9470  176.9830  144.3900 C   0  0  0  0  0  0  0  0  0  0  0  0
  189.6430  177.0660  146.8760 C   0  0  0  0  0  0  0  0  0  0  0  0
  191.6360  176.9140  143.0710 C   0  0  0  0  0  2  0  0  0  0  0  0
  190.9230  177.7940  142.0610 C   0  0  2  0  0  3  0  0  0  0  0  0
  190.2670  176.9100  141.0170 C   0  0  2  0  0  3  0  0  0  0  0  0
  191.5680  177.6260  140.7030 C   0  0  0  0  0  2  0  0  0  0  0  0
  189.1210  177.6360  140.3920 C   0  0  0  0  0  0  0  0  0  0  0  0
  188.4880  178.6660  141.0770 O   0  0  0  0  0  1  0  0  0  0  0  0
  188.6950  177.2880  139.2580 O   0  0  0  0  0  0  0  0  0  0  0  0
  1 13  1  0  0  0  0
  2  1  2  0  0  0  0
  2 18  1  0  0  0  0
  4 16  1  6  0  0  0
  4  7  1  0  0  0  0
  4  1  1  0  0  0  0
  5  8  2  0  0  0  0
  6  3  1  0  0  0  0
  7 14  1  0  0  0  0
  8  7  1  0  0  0  0
  9 18  1  0  0  0  0
  9 10  1  0  0  0  0
 11  2  1  0  0  0  0
 12 16  2  0  0  0  0
 12  5  1  0  0  0  0
 13  3  2  0  0  0  0
 14 13  1  0  0  0  0
 15  9  2  0  0  0  0
 17 11  2  0  0  0  0
 17 15  1  0  0  0  0
 18  6  2  0  0  0  0
 19 17  1  0  0  0  0
 20 19  1  1  0  0  0
 21 23  1  6  0  0  0
 21 20  1  0  0  0  0
 22 21  1  0  0  0  0
 22 20  1  0  0  0  0
 23 24  1  0  0  0  0
 25 23  2  0  0  0  0
M  END
>  <MODEL>
4

>  <REMARK>
 VINA RESULT:      -9.9      2.485      5.166
  Name = 
  3 active torsions:
  status: ('A' for Active; 'I' for Inactive)
    1  A    between atoms: C_2  and  C_21
    2  A    between atoms: C_6  and  C_15
    3  A    between atoms: C_6  and  C_23
                            x       y       z     vdW  Elec       q    Type
                         _______ _______ _______ _____ _____    ______ ____

>  <TORSDO>
F 3

$$$$
=
 OpenBabel10272400413D

 25 29  0  0  1  0  0  0  0  0999 V2000
  187.5850  177.7150  145.0930 C   0  0  0  0  0  0  0  0  0  0  0  0
  186.3760  178.0640  144.4840 C   0  0  0  0  0  0  0  0  0  0  0  0
  186.6760  178.1150  147.3040 C   0  0  0  0  0  3  0  0  0  0  0  0
  188.8610  177.2110  144.4950 C   0  0  2  0  0  3  0  0  0  0  0  0
  191.6770  177.7820  144.5700 C   0  0  0  0  0  3  0  0  0  0  0  0
  185.4560  178.4900  146.7160 C   0  0  0  0  0  3  0  0  0  0  0  0
  189.7090  177.0360  145.6820 N   0  0  0  0  0  0  0  0  0  0  0  0
  191.1330  177.1450  145.6090 C   0  0  0  0  0  3  0  0  0  0  0  0
  184.0740  178.8310  144.7280 C   0  0  0  0  0  0  0  0  0  0  0  0
  183.0260  179.2240  145.4960 F   0  0  0  0  0  0  0  0  0  0  0  0
  186.2150  178.0250  143.0960 C   0  0  0  0  0  3  0  0  0  0  0  0
  190.8080  178.4050  143.5470 C   0  0  0  0  0  3  0  0  0  0  0  0
  187.7170  177.7260  146.4640 C   0  0  0  0  0  0  0  0  0  0  0  0
  189.0120  177.3190  146.8650 N   0  0  0  0  0  2  0  0  0  0  0  0
  183.9280  178.7920  143.3390 C   0  0  0  0  0  3  0  0  0  0  0  0
  189.4870  178.1880  143.5350 C   0  0  0  0  0  3  0  0  0  0  0  0
  184.9900  178.3840  142.5240 C   0  0  0  0  0  0  0  0  0  0  0  0
  185.2950  178.4660  145.3140 C   0  0  0  0  0  0  0  0  0  0  0  0
  184.8290  178.3670  141.0430 C   0  0  0  0  0  2  0  0  0  0  0  0
  183.3740  178.5830  140.6720 C   0  0  2  0  0  3  0  0  0  0  0  0
  182.8400  177.3190  140.0250 C   0  0  2  0  0  3  0  0  0  0  0  0
  183.2220  178.5110  139.1680 C   0  0  0  0  0  2  0  0  0  0  0  0
  181.3560  177.2590  140.1870 C   0  0  0  0  0  0  0  0  0  0  0  0
  180.7370  177.9460  141.2250 O   0  0  0  0  0  1  0  0  0  0  0  0
  180.6630  176.5520  139.4080 O   0  0  0  0  0  0  0  0  0  0  0  0
  1 13  1  0  0  0  0
  2  1  2  0  0  0  0
  2 18  1  0  0  0  0
  4 16  1  6  0  0  0
  4  1  1  0  0  0  0
  4  7  1  0  0  0  0
  5  8  2  0  0  0  0
  6  3  1  0  0  0  0
  7 14  1  0  0  0  0
  8  7  1  0  0  0  0
  9 18  1  0  0  0  0
  9 10  1  0  0  0  0
 11  2  1  0  0  0  0
 12  5  1  0  0  0  0
 13 14  1  0  0  0  0
 13  3  2  0  0  0  0
 15  9  2  0  0  0  0
 16 12  2  0  0  0  0
 17 11  2  0  0  0  0
 17 15  1  0  0  0  0
 18  6  2  0  0  0  0
 19 17  1  0  0  0  0
 20 19  1  6  0  0  0
 21 23  1  1  0  0  0
 21 20  1  0  0  0  0
 22 21  1  0  0  0  0
 22 20  1  0  0  0  0
 23 24  1  0  0  0  0
 25 23  2  0  0  0  0
M  END
>  <MODEL>
5

>  <REMARK>
 VINA RESULT:      -9.7      2.774      4.470
  Name = 
  3 active torsions:
  status: ('A' for Active; 'I' for Inactive)
    1  A    between atoms: C_2  and  C_21
    2  A    between atoms: C_6  and  C_15
    3  A    between atoms: C_6  and  C_23
                            x       y       z     vdW  Elec       q    Type
                         _______ _______ _______ _____ _____    ______ ____

>  <TORSDO>
F 3

$$$$
=
 OpenBabel10272400413D

 25 29  0  0  1  0  0  0  0  0999 V2000
  185.3820  178.5350  143.9780 C   0  0  0  0  0  0  0  0  0  0  0  0
  186.6850  178.0650  143.7890 C   0  0  0  0  0  0  0  0  0  0  0  0
  185.5000  178.1300  146.3640 C   0  0  0  0  0  3  0  0  0  0  0  0
  184.4140  179.1270  143.0020 C   0  0  2  0  0  3  0  0  0  0  0  0
  181.6810  178.8000  142.1740 C   0  0  0  0  0  3  0  0  0  0  0  0
  186.8040  177.6340  146.1990 C   0  0  0  0  0  3  0  0  0  0  0  0
  183.2520  179.4110  143.8550 N   0  0  0  0  0  0  0  0  0  0  0  0
  181.9210  179.4210  143.3310 C   0  0  0  0  0  3  0  0  0  0  0  0
  188.7100  177.1130  144.7580 C   0  0  0  0  0  0  0  0  0  0  0  0
  189.4190  176.6570  145.8210 F   0  0  0  0  0  0  0  0  0  0  0  0
  187.2820  178.0450  142.5250 C   0  0  0  0  0  3  0  0  0  0  0  0
  182.7690  178.0730  141.4850 C   0  0  0  0  0  3  0  0  0  0  0  0
  184.8200  178.5790  145.2350 C   0  0  0  0  0  0  0  0  0  0  0  0
  183.5080  179.1070  145.1990 N   0  0  0  0  0  2  0  0  0  0  0  0
  189.2940  177.0950  143.4880 C   0  0  0  0  0  3  0  0  0  0  0  0
  184.0400  178.1760  141.8950 C   0  0  0  0  0  3  0  0  0  0  0  0
  188.5870  177.5650  142.3750 C   0  0  0  0  0  0  0  0  0  0  0  0
  187.4050  177.5990  144.9220 C   0  0  0  0  0  0  0  0  0  0  0  0
  189.2120  177.5210  141.0230 C   0  0  0  0  0  2  0  0  0  0  0  0
  188.4030  178.3530  140.0450 C   0  0  2  0  0  3  0  0  0  0  0  0
  188.1080  177.5150  138.8150 C   0  0  2  0  0  3  0  0  0  0  0  0
  189.2040  178.5630  138.7790 C   0  0  0  0  0  2  0  0  0  0  0  0
  186.8830  178.0330  138.1360 C   0  0  0  0  0  0  0  0  0  0  0  0
  185.9050  178.6980  138.8660 O   0  0  0  0  0  1  0  0  0  0  0  0
  186.7100  177.8310  136.9040 O   0  0  0  0  0  0  0  0  0  0  0  0
  1 13  1  0  0  0  0
  2  1  2  0  0  0  0
  2 18  1  0  0  0  0
  4 16  1  6  0  0  0
  4  7  1  0  0  0  0
  4  1  1  0  0  0  0
  5  8  2  0  0  0  0
  6  3  1  0  0  0  0
  7 14  1  0  0  0  0
  8  7  1  0  0  0  0
  9 18  1  0  0  0  0
  9 10  1  0  0  0  0
 11  2  1  0  0  0  0
 12 16  2  0  0  0  0
 12  5  1  0  0  0  0
 13  3  2  0  0  0  0
 14 13  1  0  0  0  0
 15  9  2  0  0  0  0
 17 11  2  0  0  0  0
 17 15  1  0  0  0  0
 18  6  2  0  0  0  0
 19 17  1  0  0  0  0
 20 19  1  1  0  0  0
 21 23  1  6  0  0  0
 21 20  1  0  0  0  0
 22 21  1  0  0  0  0
 22 20  1  0  0  0  0
 23 24  1  0  0  0  0
 25 23  2  0  0  0  0
M  END
>  <MODEL>
6

>  <REMARK>
 VINA RESULT:      -9.7      2.977      5.743
  Name = 
  3 active torsions:
  status: ('A' for Active; 'I' for Inactive)
    1  A    between atoms: C_2  and  C_21
    2  A    between atoms: C_6  and  C_15
    3  A    between atoms: C_6  and  C_23
                            x       y       z     vdW  Elec       q    Type
                         _______ _______ _______ _____ _____    ______ ____

>  <TORSDO>
F 3

$$$$
=
 OpenBabel10272400413D

 25 29  0  0  1  0  0  0  0  0999 V2000
  189.5760  176.7650  143.3470 C   0  0  0  0  0  0  0  0  0  0  0  0
  189.4220  176.9500  144.7250 C   0  0  0  0  0  0  0  0  0  0  0  0
  191.8790  176.0640  143.6210 C   0  0  0  0  0  3  0  0  0  0  0  0
  188.5830  176.8970  142.2350 C   0  0  2  0  0  3  0  0  0  0  0  0
  188.3390  178.1810  139.6750 C   0  0  0  0  0  3  0  0  0  0  0  0
  191.7570  176.2600  145.0070 C   0  0  0  0  0  3  0  0  0  0  0  0
  189.3940  176.5560  141.0580 N   0  0  0  0  0  0  0  0  0  0  0  0
  189.0960  177.0850  139.7630 C   0  0  0  0  0  3  0  0  0  0  0  0
  190.4130  176.8860  146.9510 C   0  0  0  0  0  0  0  0  0  0  0  0
  191.4640  176.6590  147.7800 F   0  0  0  0  0  0  0  0  0  0  0  0
  188.2090  177.3700  145.2780 C   0  0  0  0  0  3  0  0  0  0  0  0
  187.8680  178.8550  140.9040 C   0  0  0  0  0  3  0  0  0  0  0  0
  190.7680  176.3180  142.8210 C   0  0  0  0  0  0  0  0  0  0  0  0
  190.6970  176.1820  141.4150 N   0  0  0  0  0  2  0  0  0  0  0  0
  189.1960  177.3110  147.4910 C   0  0  0  0  0  3  0  0  0  0  0  0
  188.0240  178.2900  142.1080 C   0  0  0  0  0  3  0  0  0  0  0  0
  188.0940  177.5460  146.6600 C   0  0  0  0  0  0  0  0  0  0  0  0
  190.5380  176.6990  145.5670 C   0  0  0  0  0  0  0  0  0  0  0  0
  186.8080  178.0190  147.2450 C   0  0  0  0  0  2  0  0  0  0  0  0
  185.6860  177.8640  146.2360 C   0  0  2  0  0  3  0  0  0  0  0  0
  185.3560  179.2260  145.6540 C   0  0  2  0  0  3  0  0  0  0  0  0
  184.4650  178.6160  146.7200 C   0  0  0  0  0  2  0  0  0  0  0  0
  184.7310  179.0600  144.3080 C   0  0  0  0  0  0  0  0  0  0  0  0
  184.9000  177.8780  143.5980 O   0  0  0  0  0  0  0  0  0  0  0  0
  184.0810  180.0080  143.7920 O   0  0  0  0  0  1  0  0  0  0  0  0
  1  2  1  0  0  0  0
  2 11  2  0  0  0  0
  2 18  1  0  0  0  0
  3  6  2  0  0  0  0
  4 16  1  6  0  0  0
  4  1  1  0  0  0  0
  5  8  2  0  0  0  0
  5 12  1  0  0  0  0
  6 18  1  0  0  0  0
  7 14  1  0  0  0  0
  7  4  1  0  0  0  0
  8  7  1  0  0  0  0
  9 15  1  0  0  0  0
  9 10  1  0  0  0  0
 11 17  1  0  0  0  0
 12 16  2  0  0  0  0
 13  1  2  0  0  0  0
 13  3  1  0  0  0  0
 14 13  1  0  0  0  0
 17 19  1  0  0  0  0
 17 15  2  0  0  0  0
 18  9  2  0  0  0  0
 20 22  1  0  0  0  0
 20 19  1  1  0  0  0
 21 23  1  6  0  0  0
 21 20  1  0  0  0  0
 21 22  1  0  0  0  0
 24 23  2  0  0  0  0
 25 23  1  0  0  0  0
M  END
>  <MODEL>
7

>  <REMARK>
 VINA RESULT:      -9.7      1.276      1.823
  Name = 
  3 active torsions:
  status: ('A' for Active; 'I' for Inactive)
    1  A    between atoms: C_2  and  C_21
    2  A    between atoms: C_6  and  C_15
    3  A    between atoms: C_6  and  C_23
                            x       y       z     vdW  Elec       q    Type
                         _______ _______ _______ _____ _____    ______ ____

>  <TORSDO>
F 3

$$$$
=
 OpenBabel10272400413D

 25 29  0  0  1  0  0  0  0  0999 V2000
  187.6720  177.6450  145.3910 C   0  0  0  0  0  0  0  0  0  0  0  0
  186.8940  178.1620  144.3510 C   0  0  0  0  0  0  0  0  0  0  0  0
  186.0850  178.4030  147.0580 C   0  0  0  0  0  3  0  0  0  0  0  0
  188.9440  176.8580  145.3500 C   0  0  2  0  0  3  0  0  0  0  0  0
  191.5640  176.8900  146.5300 C   0  0  0  0  0  3  0  0  0  0  0  0
  185.2950  178.9490  146.0330 C   0  0  0  0  0  3  0  0  0  0  0  0
  189.2110  176.6300  146.7770 N   0  0  0  0  0  0  0  0  0  0  0  0
  190.5410  176.4610  147.2730 C   0  0  0  0  0  3  0  0  0  0  0  0
  184.8920  179.3700  143.6590 C   0  0  0  0  0  0  0  0  0  0  0  0
  183.7360  180.0200  143.9460 F   0  0  0  0  0  0  0  0  0  0  0  0
  187.2770  178.0330  143.0120 C   0  0  0  0  0  3  0  0  0  0  0  0
  191.3090  177.5730  145.2440 C   0  0  0  0  0  3  0  0  0  0  0  0
  187.2640  177.7520  146.7020 C   0  0  0  0  0  0  0  0  0  0  0  0
  188.1870  177.1440  147.5850 N   0  0  0  0  0  2  0  0  0  0  0  0
  185.2890  179.2380  142.3250 C   0  0  0  0  0  3  0  0  0  0  0  0
  190.0810  177.6110  144.7100 C   0  0  0  0  0  3  0  0  0  0  0  0
  186.4730  178.5660  142.0000 C   0  0  0  0  0  0  0  0  0  0  0  0
  185.6860  178.8330  144.6820 C   0  0  0  0  0  0  0  0  0  0  0  0
  186.8970  178.4490  140.5760 C   0  0  0  0  0  2  0  0  0  0  0  0
  188.0050  177.4220  140.4420 C   0  0  2  0  0  3  0  0  0  0  0  0
  189.2910  178.1340  140.0680 C   0  0  2  0  0  3  0  0  0  0  0  0
  188.4950  177.3930  139.0110 C   0  0  0  0  0  2  0  0  0  0  0  0
  190.4640  177.3120  140.4950 C   0  0  0  0  0  0  0  0  0  0  0  0
  190.2960  176.2710  141.3990 O   0  0  0  0  0  1  0  0  0  0  0  0
  191.6170  177.5870  140.0690 O   0  0  0  0  0  0  0  0  0  0  0  0
  1 13  1  0  0  0  0
  2 18  1  0  0  0  0
  2  1  2  0  0  0  0
  4 16  1  1  0  0  0
  4  1  1  0  0  0  0
  4  7  1  0  0  0  0
  5  8  2  0  0  0  0
  6  3  1  0  0  0  0
  7  8  1  0  0  0  0
  7 14  1  0  0  0  0
  9 10  1  0  0  0  0
  9 18  1  0  0  0  0
 11  2  1  0  0  0  0
 12  5  1  0  0  0  0
 13  3  2  0  0  0  0
 13 14  1  0  0  0  0
 15  9  2  0  0  0  0
 16 12  2  0  0  0  0
 17 15  1  0  0  0  0
 17 11  2  0  0  0  0
 18  6  2  0  0  0  0
 19 17  1  0  0  0  0
 20 19  1  6  0  0  0
 21 20  1  0  0  0  0
 21 23  1  1  0  0  0
 22 21  1  0  0  0  0
 22 20  1  0  0  0  0
 23 24  1  0  0  0  0
 25 23  2  0  0  0  0
M  END
>  <MODEL>
8

>  <REMARK>
 VINA RESULT:      -9.4      2.898      5.382
  Name = 
  3 active torsions:
  status: ('A' for Active; 'I' for Inactive)
    1  A    between atoms: C_2  and  C_21
    2  A    between atoms: C_6  and  C_15
    3  A    between atoms: C_6  and  C_23
                            x       y       z     vdW  Elec       q    Type
                         _______ _______ _______ _____ _____    ______ ____

>  <TORSDO>
F 3

$$$$
=
 OpenBabel10272400413D

 25 29  0  0  1  0  0  0  0  0999 V2000
  187.5490  177.6720  145.5000 C   0  0  0  0  0  0  0  0  0  0  0  0
  186.6230  178.1480  144.5670 C   0  0  0  0  0  0  0  0  0  0  0  0
  186.1740  178.4110  147.3540 C   0  0  0  0  0  3  0  0  0  0  0  0
  188.8290  176.9230  145.3010 C   0  0  2  0  0  3  0  0  0  0  0  0
  191.5800  177.0540  146.1210 C   0  0  0  0  0  3  0  0  0  0  0  0
  185.2370  178.9150  146.4370 C   0  0  0  0  0  3  0  0  0  0  0  0
  189.2900  176.7280  146.6820 N   0  0  0  0  0  0  0  0  0  0  0  0
  190.6790  176.6070  146.9990 C   0  0  0  0  0  3  0  0  0  0  0  0
  184.5090  179.2820  144.1320 C   0  0  0  0  0  0  0  0  0  0  0  0
  183.3810  179.9030  144.5620 F   0  0  0  0  0  0  0  0  0  0  0  0
  186.8300  178.0070  143.1910 C   0  0  0  0  0  3  0  0  0  0  0  0
  191.1350  177.7080  144.8710 C   0  0  0  0  0  3  0  0  0  0  0  0
  187.3150  177.7890  146.8530 C   0  0  0  0  0  0  0  0  0  0  0  0
  188.3670  177.2240  147.6130 N   0  0  0  0  0  2  0  0  0  0  0  0
  184.7300  179.1400  142.7590 C   0  0  0  0  0  3  0  0  0  0  0  0
  189.8470  177.6990  144.5060 C   0  0  0  0  0  3  0  0  0  0  0  0
  185.8810  178.4980  142.2880 C   0  0  0  0  0  0  0  0  0  0  0  0
  185.4490  178.7880  145.0470 C   0  0  0  0  0  0  0  0  0  0  0  0
  186.1160  178.3700  140.8220 C   0  0  0  0  0  2  0  0  0  0  0  0
  187.5640  178.6850  140.4940 C   0  0  2  0  0  3  0  0  0  0  0  0
  188.0230  177.7710  139.3740 C   0  0  2  0  0  3  0  0  0  0  0  0
  188.4240  177.4800  140.8080 C   0  0  0  0  0  2  0  0  0  0  0  0
  189.1600  178.4040  138.6420 C   0  0  0  0  0  0  0  0  0  0  0  0
  190.3930  177.7660  138.5780 O   0  0  0  0  0  1  0  0  0  0  0  0
  189.0180  179.5390  138.1140 O   0  0  0  0  0  0  0  0  0  0  0  0
  1 13  1  0  0  0  0
  2 18  1  0  0  0  0
  2  1  2  0  0  0  0
  4 16  1  6  0  0  0
  4  1  1  0  0  0  0
  4  7  1  0  0  0  0
  5  8  2  0  0  0  0
  6  3  1  0  0  0  0
  7  8  1  0  0  0  0
  7 14  1  0  0  0  0
  9 10  1  0  0  0  0
  9 18  1  0  0  0  0
 11  2  1  0  0  0  0
 12  5  1  0  0  0  0
 13  3  2  0  0  0  0
 13 14  1  0  0  0  0
 15  9  2  0  0  0  0
 16 12  2  0  0  0  0
 17 15  1  0  0  0  0
 17 11  2  0  0  0  0
 18  6  2  0  0  0  0
 19 17  1  0  0  0  0
 20 22  1  0  0  0  0
 20 19  1  1  0  0  0
 21 23  1  6  0  0  0
 21 20  1  0  0  0  0
 21 22  1  0  0  0  0
 24 23  1  0  0  0  0
 25 23  2  0  0  0  0
M  END
>  <MODEL>
9

>  <REMARK>
 VINA RESULT:      -9.2      2.777      5.135
  Name = 
  3 active torsions:
  status: ('A' for Active; 'I' for Inactive)
    1  A    between atoms: C_2  and  C_21
    2  A    between atoms: C_6  and  C_15
    3  A    between atoms: C_6  and  C_23
                            x       y       z     vdW  Elec       q    Type
                         _______ _______ _______ _____ _____    ______ ____

>  <TORSDO>
F 3

$$$$
