=
 OpenBabel10272400253D

 31 35  0  0  1  0  0  0  0  0999 V2000
  185.2410  179.0790  143.2450 C   0  0  0  0  0  0  0  0  0  0  0  0
  188.5680  177.1870  143.6260 C   0  0  1  0  0  3  0  0  0  0  0  0
  188.8740  177.3360  145.1130 C   0  0  0  0  0  0  0  0  0  0  0  0
  189.2780  176.5420  138.4620 O   0  0  0  0  0  0  0  0  0  0  0  0
  190.3960  176.4050  139.0270 C   0  0  0  0  0  0  0  0  0  0  0  0
  188.1090  177.3560  147.4260 C   0  0  0  0  0  0  0  0  0  0  0  0
  187.3870  177.9530  143.0530 C   0  0  0  0  0  0  0  0  0  0  0  0
  185.1490  179.1560  141.8540 C   0  0  0  0  0  3  0  0  0  0  0  0
  187.8350  177.3280  146.0580 C   0  0  0  0  0  3  0  0  0  0  0  0
  189.4970  177.1710  141.2990 C   0  0  0  0  0  0  0  0  0  0  0  0
  183.9600  179.7290  144.2450 Cl  0  0  0  0  0  0  0  0  0  0  0  0
  191.3800  177.2150  144.6360 C   0  0  0  0  0  2  0  0  0  0  0  0
  187.0910  177.3740  148.3200 F   0  0  0  0  0  0  0  0  0  0  0  0
  188.3360  177.5160  140.8190 N   0  0  0  0  0  0  0  0  0  0  0  0
  189.8060  177.4400  142.7510 C   0  0  2  0  0  3  0  0  0  0  0  0
  190.5330  176.6910  140.4270 N   0  0  0  0  0  2  0  0  0  0  0  0
  186.3470  178.4710  143.8410 C   0  0  0  0  0  3  0  0  0  0  0  0
  189.4300  177.3540  147.8730 C   0  0  0  0  0  3  0  0  0  0  0  0
  187.2850  178.0360  141.6480 C   0  0  0  0  0  0  0  0  0  0  0  0
  186.1690  178.6320  141.0560 C   0  0  0  0  0  3  0  0  0  0  0  0
  190.9890  176.6440  143.2780 C   0  0  0  0  0  2  0  0  0  0  0  0
  190.2110  177.2730  145.5790 C   0  0  0  0  0  0  0  0  0  0  0  0
  190.4760  177.3090  146.9520 C   0  0  0  0  0  3  0  0  0  0  0  0
  193.9010  175.2020  136.8960 C   0  0  0  0  0  0  0  0  0  0  0  0
  192.7830  176.6520  138.4030 C   0  0  0  0  0  3  0  0  0  0  0  0
  190.3550  173.9870  137.1610 C   0  0  0  0  0  1  0  0  0  0  0  0
  195.1430  174.8210  136.1760 C   0  0  0  0  0  1  0  0  0  0  0  0
  193.9010  176.2750  137.7280 N   0  0  0  0  0  0  0  0  0  0  0  0
  191.5710  174.8210  137.3960 C   0  0  0  0  0  0  0  0  0  0  0  0
  191.5820  175.9410  138.2610 C   0  0  0  0  0  0  0  0  0  0  0  0
  192.7360  174.4590  136.7160 C   0  0  0  0  0  3  0  0  0  0  0  0
  1 17  1  0  0  0  0
  1 11  1  0  0  0  0
  2  7  1  6  0  0  0
  2  3  1  0  0  0  0
  3 22  2  0  0  0  0
  3  9  1  0  0  0  0
  4  5  2  0  0  0  0
  5 16  1  0  0  0  0
  6 18  1  0  0  0  0
  6 13  1  0  0  0  0
  7 17  2  0  0  0  0
  8  1  2  0  0  0  0
  9  6  2  0  0  0  0
 10 15  1  0  0  0  0
 12 22  1  0  0  0  0
 14 10  2  0  0  0  0
 14 19  1  0  0  0  0
 15 21  1  1  0  0  0
 15  2  1  0  0  0  0
 16 10  1  0  0  0  0
 19  7  1  0  0  0  0
 20 19  2  0  0  0  0
 20  8  1  0  0  0  0
 21 12  1  0  0  0  0
 22 23  1  0  0  0  0
 23 18  2  0  0  0  0
 24 28  1  0  0  0  0
 26 29  1  0  0  0  0
 27 24  1  0  0  0  0
 28 25  2  0  0  0  0
 29 30  2  0  0  0  0
 30 25  1  0  0  0  0
 30  5  1  0  0  0  0
 31 24  2  0  0  0  0
 31 29  1  0  0  0  0
M  END
>  <MODEL>
1

>  <REMARK>
 VINA RESULT:     -11.3      0.000      0.000
  Name = 
  1 active torsions:
  status: ('A' for Active; 'I' for Inactive)
    1  A    between atoms: C_9  and  C_22
                            x       y       z     vdW  Elec       q    Type
                         _______ _______ _______ _____ _____    ______ ____

>  <TORSDO>
F 1

$$$$
=
 OpenBabel10272400253D

 31 35  0  0  1  0  0  0  0  0999 V2000
  186.9590  178.1270  147.0550 C   0  0  0  0  0  0  0  0  0  0  0  0
  187.4900  177.5060  143.2960 C   0  0  1  0  0  3  0  0  0  0  0  0
  189.0050  177.3700  143.1860 C   0  0  0  0  0  0  0  0  0  0  0  0
  182.4970  178.4930  141.9980 O   0  0  0  0  0  0  0  0  0  0  0  0
  183.2000  178.6220  140.9600 C   0  0  0  0  0  0  0  0  0  0  0  0
  191.1110  176.5270  144.0750 C   0  0  0  0  0  0  0  0  0  0  0  0
  186.8990  177.9230  144.6330 C   0  0  0  0  0  0  0  0  0  0  0  0
  185.6180  178.5180  147.0620 C   0  0  0  0  0  3  0  0  0  0  0  0
  189.7410  176.7540  144.2120 C   0  0  0  0  0  3  0  0  0  0  0  0
  185.3980  178.4140  142.2560 C   0  0  0  0  0  0  0  0  0  0  0  0
  187.8430  178.0030  148.5600 Cl  0  0  0  0  0  0  0  0  0  0  0  0
  188.9380  178.2700  140.7970 C   0  0  0  0  0  2  0  0  0  0  0  0
  191.8070  175.9550  145.0880 F   0  0  0  0  0  0  0  0  0  0  0  0
  184.8130  178.4350  143.4200 N   0  0  0  0  0  0  0  0  0  0  0  0
  186.9050  178.3960  142.1870 C   0  0  2  0  0  3  0  0  0  0  0  0
  184.6310  178.5710  141.0520 N   0  0  0  0  0  2  0  0  0  0  0  0
  187.5920  177.8200  145.8490 C   0  0  0  0  0  3  0  0  0  0  0  0
  191.7620  176.8790  142.8940 C   0  0  0  0  0  3  0  0  0  0  0  0
  185.5450  178.3190  144.6500 C   0  0  0  0  0  0  0  0  0  0  0  0
  184.9110  178.6120  145.8610 C   0  0  0  0  0  3  0  0  0  0  0  0
  187.4460  177.9650  140.8330 C   0  0  0  0  0  2  0  0  0  0  0  0
  189.6640  177.6680  141.9670 C   0  0  0  0  0  0  0  0  0  0  0  0
  191.0400  177.4450  141.8430 C   0  0  0  0  0  3  0  0  0  0  0  0
  181.3790  179.3660  137.1650 C   0  0  0  0  0  0  0  0  0  0  0  0
  182.3240  180.1330  139.2000 C   0  0  0  0  0  3  0  0  0  0  0  0
  182.3860  176.3210  139.1230 C   0  0  0  0  0  1  0  0  0  0  0  0
  180.7480  179.6720  135.8550 C   0  0  0  0  0  1  0  0  0  0  0  0
  181.7450  180.3770  137.9950 N   0  0  0  0  0  0  0  0  0  0  0  0
  182.1850  177.7580  138.7750 C   0  0  0  0  0  0  0  0  0  0  0  0
  182.5640  178.8200  139.6320 C   0  0  0  0  0  0  0  0  0  0  0  0
  181.5920  178.0410  137.5430 C   0  0  0  0  0  3  0  0  0  0  0  0
  1  8  1  0  0  0  0
  1 11  1  0  0  0  0
  2  3  1  1  0  0  0
  2  7  1  0  0  0  0
  3  9  1  0  0  0  0
  5 16  1  0  0  0  0
  5  4  2  0  0  0  0
  6  9  2  0  0  0  0
  6 13  1  0  0  0  0
  7 19  2  0  0  0  0
  7 17  1  0  0  0  0
 10 14  2  0  0  0  0
 12 21  1  0  0  0  0
 12 22  1  0  0  0  0
 14 19  1  0  0  0  0
 15 21  1  6  0  0  0
 15 10  1  0  0  0  0
 15  2  1  0  0  0  0
 16 10  1  0  0  0  0
 17  1  2  0  0  0  0
 18  6  1  0  0  0  0
 19 20  1  0  0  0  0
 20  8  2  0  0  0  0
 22  3  2  0  0  0  0
 23 22  1  0  0  0  0
 23 18  2  0  0  0  0
 24 31  2  0  0  0  0
 24 28  1  0  0  0  0
 25 30  1  0  0  0  0
 27 24  1  0  0  0  0
 28 25  2  0  0  0  0
 29 26  1  0  0  0  0
 29 30  2  0  0  0  0
 30  5  1  0  0  0  0
 31 29  1  0  0  0  0
M  END
>  <MODEL>
2

>  <REMARK>
 VINA RESULT:     -11.3      4.224      7.211
  Name = 
  1 active torsions:
  status: ('A' for Active; 'I' for Inactive)
    1  A    between atoms: C_9  and  C_22
                            x       y       z     vdW  Elec       q    Type
                         _______ _______ _______ _____ _____    ______ ____

>  <TORSDO>
F 1

$$$$
=
 OpenBabel10272400253D

 31 35  0  0  1  0  0  0  0  0999 V2000
  191.6000  175.8510  146.1940 C   0  0  0  0  0  0  0  0  0  0  0  0
  188.7300  177.6760  144.3990 C   0  0  1  0  0  3  0  0  0  0  0  0
  187.7180  177.9000  145.5180 C   0  0  0  0  0  0  0  0  0  0  0  0
  190.7230  176.9670  139.5910 O   0  0  0  0  0  0  0  0  0  0  0  0
  189.4920  177.2090  139.4680 C   0  0  0  0  0  0  0  0  0  0  0  0
  187.2390  178.4910  147.8330 C   0  0  0  0  0  0  0  0  0  0  0  0
  189.9540  176.8260  144.6940 C   0  0  0  0  0  0  0  0  0  0  0  0
  192.3570  175.4270  145.1000 C   0  0  0  0  0  3  0  0  0  0  0  0
  188.1520  178.1790  146.8250 C   0  0  0  0  0  3  0  0  0  0  0  0
  189.0730  177.0730  141.9900 C   0  0  0  0  0  0  0  0  0  0  0  0
  192.1500  175.5160  147.8220 Cl  0  0  0  0  0  0  0  0  0  0  0  0
  185.7990  177.8200  143.8350 C   0  0  0  0  0  2  0  0  0  0  0  0
  187.6770  178.7310  149.0920 F   0  0  0  0  0  0  0  0  0  0  0  0
  190.2780  176.6530  142.2540 N   0  0  0  0  0  0  0  0  0  0  0  0
  188.0640  177.1710  143.1080 C   0  0  2  0  0  3  0  0  0  0  0  0
  188.6560  177.2840  140.6330 N   0  0  0  0  0  2  0  0  0  0  0  0
  190.4130  176.5570  145.9930 C   0  0  0  0  0  3  0  0  0  0  0  0
  185.8770  178.5670  147.5420 C   0  0  0  0  0  3  0  0  0  0  0  0
  190.7250  176.3920  143.5940 C   0  0  0  0  0  0  0  0  0  0  0  0
  191.9210  175.6990  143.8010 C   0  0  0  0  0  3  0  0  0  0  0  0
  186.8630  178.0380  142.7670 C   0  0  0  0  0  2  0  0  0  0  0  0
  186.3390  178.0390  145.2200 C   0  0  0  0  0  0  0  0  0  0  0  0
  185.4300  178.3440  146.2390 C   0  0  0  0  0  3  0  0  0  0  0  0
  187.7290  178.0030  135.6560 C   0  0  0  0  0  0  0  0  0  0  0  0
  188.3600  178.6920  137.8360 C   0  0  0  0  0  3  0  0  0  0  0  0
  189.3540  175.0470  137.3150 C   0  0  0  0  0  1  0  0  0  0  0  0
  187.1070  178.3230  134.3460 C   0  0  0  0  0  1  0  0  0  0  0  0
  187.7980  178.9510  136.6250 N   0  0  0  0  0  0  0  0  0  0  0  0
  188.8250  176.4300  137.1240 C   0  0  0  0  0  0  0  0  0  0  0  0
  188.8920  177.4270  138.1280 C   0  0  0  0  0  0  0  0  0  0  0  0
  188.2410  176.7270  135.8900 C   0  0  0  0  0  3  0  0  0  0  0  0
  1 11  1  0  0  0  0
  2  7  1  1  0  0  0
  2  3  1  0  0  0  0
  3  9  1  0  0  0  0
  5  4  2  0  0  0  0
  5 16  1  0  0  0  0
  6 13  1  0  0  0  0
  7 17  2  0  0  0  0
  8  1  2  0  0  0  0
  9  6  2  0  0  0  0
 10 14  2  0  0  0  0
 10 15  1  0  0  0  0
 12 22  1  0  0  0  0
 14 19  1  0  0  0  0
 15 21  1  6  0  0  0
 15  2  1  0  0  0  0
 16 10  1  0  0  0  0
 17  1  1  0  0  0  0
 18  6  1  0  0  0  0
 19 20  2  0  0  0  0
 19  7  1  0  0  0  0
 20  8  1  0  0  0  0
 21 12  1  0  0  0  0
 22  3  2  0  0  0  0
 22 23  1  0  0  0  0
 23 18  2  0  0  0  0
 24 31  2  0  0  0  0
 24 28  1  0  0  0  0
 25 30  1  0  0  0  0
 27 24  1  0  0  0  0
 28 25  2  0  0  0  0
 29 26  1  0  0  0  0
 29 30  2  0  0  0  0
 30  5  1  0  0  0  0
 31 29  1  0  0  0  0
M  END
>  <MODEL>
3

>  <REMARK>
 VINA RESULT:     -10.8      2.914      4.815
  Name = 
  1 active torsions:
  status: ('A' for Active; 'I' for Inactive)
    1  A    between atoms: C_9  and  C_22
                            x       y       z     vdW  Elec       q    Type
                         _______ _______ _______ _____ _____    ______ ____

>  <TORSDO>
F 1

$$$$
=
 OpenBabel10272400253D

 31 35  0  0  1  0  0  0  0  0999 V2000
  183.8110  178.8850  139.8590 C   0  0  0  0  0  0  0  0  0  0  0  0
  187.6050  178.2980  140.1040 C   0  0  1  0  0  3  0  0  0  0  0  0
  188.0030  178.0440  138.6540 C   0  0  0  0  0  0  0  0  0  0  0  0
  187.6720  178.1730  145.3540 O   0  0  0  0  0  0  0  0  0  0  0  0
  188.7170  177.6020  144.9400 C   0  0  0  0  0  0  0  0  0  0  0  0
  187.7910  178.5890  136.2880 C   0  0  0  0  0  0  0  0  0  0  0  0
  186.1270  178.4170  140.4350 C   0  0  0  0  0  0  0  0  0  0  0  0
  183.4570  178.8330  141.2090 C   0  0  0  0  0  3  0  0  0  0  0  0
  187.3640  178.7320  137.6090 C   0  0  0  0  0  3  0  0  0  0  0  0
  187.9390  177.6470  142.5010 C   0  0  0  0  0  0  0  0  0  0  0  0
  182.5930  179.2140  138.6460 Cl  0  0  0  0  0  0  0  0  0  0  0  0
  189.9340  176.5560  139.4160 C   0  0  0  0  0  2  0  0  0  0  0  0
  187.1440  179.2420  135.2930 F   0  0  0  0  0  0  0  0  0  0  0  0
  186.7490  178.0860  142.8000 N   0  0  0  0  0  0  0  0  0  0  0  0
  188.2590  177.2960  141.0690 C   0  0  2  0  0  3  0  0  0  0  0  0
  188.8850  177.3440  143.5380 N   0  0  0  0  0  2  0  0  0  0  0  0
  185.1400  178.6900  139.4750 C   0  0  0  0  0  3  0  0  0  0  0  0
  188.8900  177.7820  135.9940 C   0  0  0  0  0  3  0  0  0  0  0  0
  185.7590  178.3660  141.7970 C   0  0  0  0  0  0  0  0  0  0  0  0
  184.4310  178.5760  142.1770 C   0  0  0  0  0  3  0  0  0  0  0  0
  189.7500  177.1970  140.7870 C   0  0  0  0  0  2  0  0  0  0  0  0
  189.1540  177.2750  138.3510 C   0  0  0  0  0  0  0  0  0  0  0  0
  189.5700  177.1300  137.0230 C   0  0  0  0  0  3  0  0  0  0  0  0
  191.8910  176.3770  147.5270 C   0  0  0  0  0  0  0  0  0  0  0  0
  190.9410  176.5940  145.3650 C   0  0  0  0  0  3  0  0  0  0  0  0
  188.5350  178.0100  147.9620 C   0  0  0  0  0  1  0  0  0  0  0  0
  193.0180  175.9350  148.3880 C   0  0  0  0  0  1  0  0  0  0  0  0
  191.9550  176.2020  146.1820 N   0  0  0  0  0  0  0  0  0  0  0  0
  189.7100  177.3830  147.2880 C   0  0  0  0  0  0  0  0  0  0  0  0
  189.7870  177.1970  145.8870 C   0  0  0  0  0  0  0  0  0  0  0  0
  190.7670  176.9700  148.1010 C   0  0  0  0  0  3  0  0  0  0  0  0
  1  8  1  0  0  0  0
  2  3  1  6  0  0  0
  2  7  1  0  0  0  0
  2 15  1  0  0  0  0
  5  4  2  0  0  0  0
  5 30  1  0  0  0  0
  6  9  1  0  0  0  0
  7 19  2  0  0  0  0
  8 20  2  0  0  0  0
  9  3  2  0  0  0  0
 10 14  2  0  0  0  0
 10 16  1  0  0  0  0
 11  1  1  0  0  0  0
 12 21  1  0  0  0  0
 13  6  1  0  0  0  0
 15 21  1  1  0  0  0
 15 10  1  0  0  0  0
 16  5  1  0  0  0  0
 17  1  2  0  0  0  0
 17  7  1  0  0  0  0
 18  6  2  0  0  0  0
 18 23  1  0  0  0  0
 19 20  1  0  0  0  0
 19 14  1  0  0  0  0
 22  3  1  0  0  0  0
 22 12  1  0  0  0  0
 23 22  2  0  0  0  0
 24 31  1  0  0  0  0
 24 27  1  0  0  0  0
 25 30  2  0  0  0  0
 25 28  1  0  0  0  0
 28 24  2  0  0  0  0
 29 26  1  0  0  0  0
 29 31  2  0  0  0  0
 30 29  1  0  0  0  0
M  END
>  <MODEL>
4

>  <REMARK>
 VINA RESULT:      -9.1      3.917      7.655
  Name = 
  1 active torsions:
  status: ('A' for Active; 'I' for Inactive)
    1  A    between atoms: C_9  and  C_22
                            x       y       z     vdW  Elec       q    Type
                         _______ _______ _______ _____ _____    ______ ____

>  <TORSDO>
F 1

$$$$
=
 OpenBabel10272400253D

 31 35  0  0  1  0  0  0  0  0999 V2000
  183.8420  178.8910  139.6980 C   0  0  0  0  0  0  0  0  0  0  0  0
  187.6340  178.2730  139.8950 C   0  0  1  0  0  3  0  0  0  0  0  0
  188.0110  178.0180  138.4400 C   0  0  0  0  0  0  0  0  0  0  0  0
  187.7650  178.1370  145.1440 O   0  0  0  0  0  0  0  0  0  0  0  0
  188.8000  177.5590  144.7160 C   0  0  0  0  0  0  0  0  0  0  0  0
  187.7750  178.5690  136.0780 C   0  0  0  0  0  0  0  0  0  0  0  0
  186.1610  178.4030  140.2450 C   0  0  0  0  0  0  0  0  0  0  0  0
  183.5050  178.8390  141.0530 C   0  0  0  0  0  3  0  0  0  0  0  0
  187.3660  178.7140  137.4040 C   0  0  0  0  0  3  0  0  0  0  0  0
  187.9920  177.6150  142.2870 C   0  0  0  0  0  0  0  0  0  0  0  0
  182.6120  179.2310  138.5020 Cl  0  0  0  0  0  0  0  0  0  0  0  0
  189.9400  176.5140  139.1760 C   0  0  0  0  0  2  0  0  0  0  0  0
  187.1210  179.2290  135.0920 F   0  0  0  0  0  0  0  0  0  0  0  0
  186.8090  178.0620  142.6010 N   0  0  0  0  0  0  0  0  0  0  0  0
  188.2920  177.2640  140.8500 C   0  0  2  0  0  3  0  0  0  0  0  0
  188.9480  177.3020  143.3110 N   0  0  0  0  0  2  0  0  0  0  0  0
  185.1650  178.6860  139.2980 C   0  0  0  0  0  3  0  0  0  0  0  0
  188.8630  177.7530  135.7690 C   0  0  0  0  0  3  0  0  0  0  0  0
  185.8100  178.3520  141.6110 C   0  0  0  0  0  0  0  0  0  0  0  0
  184.4880  178.5720  142.0080 C   0  0  0  0  0  3  0  0  0  0  0  0
  189.7780  177.1530  140.5490 C   0  0  0  0  0  2  0  0  0  0  0  0
  189.1530  177.2400  138.1210 C   0  0  0  0  0  0  0  0  0  0  0  0
  189.5510  177.0940  136.7880 C   0  0  0  0  0  3  0  0  0  0  0  0
  191.8050  176.4210  147.5350 C   0  0  0  0  0  0  0  0  0  0  0  0
  189.6950  177.3740  147.0200 C   0  0  0  0  0  3  0  0  0  0  0  0
  191.3940  176.2280  143.8040 C   0  0  0  0  0  1  0  0  0  0  0  0
  192.8210  176.0430  148.5500 C   0  0  0  0  0  1  0  0  0  0  0  0
  190.6470  177.0140  147.9220 N   0  0  0  0  0  0  0  0  0  0  0  0
  191.0830  176.5250  145.2340 C   0  0  0  0  0  0  0  0  0  0  0  0
  189.8780  177.1430  145.6490 C   0  0  0  0  0  0  0  0  0  0  0  0
  192.0410  176.1670  146.1850 C   0  0  0  0  0  3  0  0  0  0  0  0
  1  8  1  0  0  0  0
  2  3  1  6  0  0  0
  2  7  1  0  0  0  0
  2 15  1  0  0  0  0
  5  4  2  0  0  0  0
  5 30  1  0  0  0  0
  6  9  1  0  0  0  0
  7 19  2  0  0  0  0
  8 20  2  0  0  0  0
  9  3  2  0  0  0  0
 10 14  2  0  0  0  0
 10 16  1  0  0  0  0
 11  1  1  0  0  0  0
 12 21  1  0  0  0  0
 13  6  1  0  0  0  0
 15 21  1  1  0  0  0
 15 10  1  0  0  0  0
 16  5  1  0  0  0  0
 17  1  2  0  0  0  0
 17  7  1  0  0  0  0
 18  6  2  0  0  0  0
 18 23  1  0  0  0  0
 19 20  1  0  0  0  0
 19 14  1  0  0  0  0
 22  3  1  0  0  0  0
 22 12  1  0  0  0  0
 23 22  2  0  0  0  0
 24 28  1  0  0  0  0
 24 27  1  0  0  0  0
 25 28  2  0  0  0  0
 26 29  1  0  0  0  0
 29 30  2  0  0  0  0
 29 31  1  0  0  0  0
 30 25  1  0  0  0  0
 31 24  2  0  0  0  0
M  END
>  <MODEL>
5

>  <REMARK>
 VINA RESULT:      -8.9      3.896      7.503
  Name = 
  1 active torsions:
  status: ('A' for Active; 'I' for Inactive)
    1  A    between atoms: C_9  and  C_22
                            x       y       z     vdW  Elec       q    Type
                         _______ _______ _______ _____ _____    ______ ____

>  <TORSDO>
F 1

$$$$
=
 OpenBabel10272400253D

 31 35  0  0  1  0  0  0  0  0999 V2000
  192.3520  177.2850  140.5370 C   0  0  0  0  0  0  0  0  0  0  0  0
  188.8380  177.2470  138.9750 C   0  0  1  0  0  3  0  0  0  0  0  0
  189.1320  177.2800  137.4790 C   0  0  0  0  0  0  0  0  0  0  0  0
  186.3380  177.8960  143.5480 O   0  0  0  0  0  0  0  0  0  0  0  0
  185.5510  178.2370  142.6250 C   0  0  0  0  0  0  0  0  0  0  0  0
  190.4670  176.5390  135.5800 C   0  0  0  0  0  0  0  0  0  0  0  0
  189.9980  177.4130  139.9410 C   0  0  0  0  0  0  0  0  0  0  0  0
  192.0350  177.5340  141.8740 C   0  0  0  0  0  3  0  0  0  0  0  0
  190.2480  176.6050  136.9570 C   0  0  0  0  0  3  0  0  0  0  0  0
  187.3680  178.0740  140.8290 C   0  0  0  0  0  0  0  0  0  0  0  0
  194.0190  177.0430  140.0630 Cl  0  0  0  0  0  0  0  0  0  0  0  0
  186.9250  178.4910  137.0460 C   0  0  0  0  0  2  0  0  0  0  0  0
  191.5650  175.9050  135.1000 F   0  0  0  0  0  0  0  0  0  0  0  0
  188.3240  177.8750  141.6920 N   0  0  0  0  0  0  0  0  0  0  0  0
  187.7120  178.2180  139.3670 C   0  0  2  0  0  3  0  0  0  0  0  0
  186.0250  178.3190  141.2720 N   0  0  0  0  0  2  0  0  0  0  0  0
  191.3390  177.2120  139.5780 C   0  0  0  0  0  3  0  0  0  0  0  0
  189.5530  177.1150  134.6990 C   0  0  0  0  0  3  0  0  0  0  0  0
  189.6870  177.6650  141.2940 C   0  0  0  0  0  0  0  0  0  0  0  0
  190.7030  177.7210  142.2530 C   0  0  0  0  0  3  0  0  0  0  0  0
  186.5190  178.0350  138.4410 C   0  0  0  0  0  2  0  0  0  0  0  0
  188.1780  177.8090  136.5730 C   0  0  0  0  0  0  0  0  0  0  0  0
  188.4110  177.7450  135.1950 C   0  0  0  0  0  3  0  0  0  0  0  0
  181.4240  179.1270  143.2930 C   0  0  0  0  0  0  0  0  0  0  0  0
  183.2260  178.5980  141.8450 C   0  0  0  0  0  3  0  0  0  0  0  0
  184.4920  178.7900  145.4370 C   0  0  0  0  0  1  0  0  0  0  0  0
  179.9820  179.4320  143.4780 C   0  0  0  0  0  1  0  0  0  0  0  0
  181.9120  178.8810  142.0500 N   0  0  0  0  0  0  0  0  0  0  0  0
  183.6310  178.8080  144.2180 C   0  0  0  0  0  0  0  0  0  0  0  0
  184.1290  178.5520  142.9170 C   0  0  0  0  0  0  0  0  0  0  0  0
  182.2760  179.0960  144.3960 C   0  0  0  0  0  3  0  0  0  0  0  0
  1  8  1  0  0  0  0
  2  3  1  6  0  0  0
  2 15  1  0  0  0  0
  2  7  1  0  0  0  0
  5 30  1  0  0  0  0
  5  4  2  0  0  0  0
  6  9  2  0  0  0  0
  7 19  2  0  0  0  0
  8 20  2  0  0  0  0
  9  3  1  0  0  0  0
 10 16  1  0  0  0  0
 10 14  2  0  0  0  0
 11  1  1  0  0  0  0
 12 21  1  0  0  0  0
 13  6  1  0  0  0  0
 15 21  1  6  0  0  0
 15 10  1  0  0  0  0
 16  5  1  0  0  0  0
 17  7  1  0  0  0  0
 17  1  2  0  0  0  0
 18 23  2  0  0  0  0
 18  6  1  0  0  0  0
 19 14  1  0  0  0  0
 19 20  1  0  0  0  0
 22 12  1  0  0  0  0
 22  3  2  0  0  0  0
 23 22  1  0  0  0  0
 24 27  1  0  0  0  0
 24 31  1  0  0  0  0
 25 28  1  0  0  0  0
 25 30  2  0  0  0  0
 28 24  2  0  0  0  0
 29 31  2  0  0  0  0
 29 26  1  0  0  0  0
 30 29  1  0  0  0  0
M  END
>  <MODEL>
6

>  <REMARK>
 VINA RESULT:      -8.7      4.502      9.516
  Name = 
  1 active torsions:
  status: ('A' for Active; 'I' for Inactive)
    1  A    between atoms: C_9  and  C_22
                            x       y       z     vdW  Elec       q    Type
                         _______ _______ _______ _____ _____    ______ ____

>  <TORSDO>
F 1

$$$$
=
 OpenBabel10272400253D

 31 35  0  0  1  0  0  0  0  0999 V2000
  187.5200  178.2220  136.0860 C   0  0  0  0  0  0  0  0  0  0  0  0
  185.2880  177.9160  139.2040 C   0  0  1  0  0  3  0  0  0  0  0  0
  183.9030  178.2530  138.6620 C   0  0  0  0  0  0  0  0  0  0  0  0
  189.3050  177.3710  142.5440 O   0  0  0  0  0  0  0  0  0  0  0  0
  188.2990  177.7420  143.2060 C   0  0  0  0  0  0  0  0  0  0  0  0
  182.2300  178.0670  136.9010 C   0  0  0  0  0  0  0  0  0  0  0  0
  186.4840  178.0890  138.2810 C   0  0  0  0  0  0  0  0  0  0  0  0
  188.7870  178.1840  136.6740 C   0  0  0  0  0  3  0  0  0  0  0  0
  183.5290  177.8590  137.3670 C   0  0  0  0  0  3  0  0  0  0  0  0
  186.9040  178.1740  141.1030 C   0  0  0  0  0  0  0  0  0  0  0  0
  187.3660  178.3260  134.3460 Cl  0  0  0  0  0  0  0  0  0  0  0  0
  183.2060  179.1680  140.9430 C   0  0  0  0  0  2  0  0  0  0  0  0
  181.8980  177.7030  135.6390 F   0  0  0  0  0  0  0  0  0  0  0  0
  187.9060  177.9770  140.2940 N   0  0  0  0  0  0  0  0  0  0  0  0
  185.5770  178.6200  140.5400 C   0  0  2  0  0  3  0  0  0  0  0  0
  187.0950  178.1280  142.5250 N   0  0  0  0  0  2  0  0  0  0  0  0
  186.3760  178.1630  136.8840 C   0  0  0  0  0  3  0  0  0  0  0  0
  181.2720  178.6400  137.7370 C   0  0  0  0  0  3  0  0  0  0  0  0
  187.7670  178.0510  138.8660 C   0  0  0  0  0  0  0  0  0  0  0  0
  188.9100  178.0960  138.0630 C   0  0  0  0  0  3  0  0  0  0  0  0
  184.4120  178.4190  141.4970 C   0  0  0  0  0  2  0  0  0  0  0  0
  182.9060  178.7790  139.5230 C   0  0  0  0  0  0  0  0  0  0  0  0
  181.6090  178.9910  139.0440 C   0  0  0  0  0  3  0  0  0  0  0  0
  188.2350  177.8700  147.4770 C   0  0  0  0  0  0  0  0  0  0  0  0
  187.1300  177.9570  145.3810 C   0  0  0  0  0  3  0  0  0  0  0  0
  190.8690  177.4510  144.8300 C   0  0  0  0  0  1  0  0  0  0  0  0
  188.1650  177.9210  148.9610 C   0  0  0  0  0  1  0  0  0  0  0  0
  187.1030  177.9990  146.7400 N   0  0  0  0  0  0  0  0  0  0  0  0
  189.5250  177.6440  145.4500 C   0  0  0  0  0  0  0  0  0  0  0  0
  188.3380  177.7790  144.6900 C   0  0  0  0  0  0  0  0  0  0  0  0
  189.4640  177.6910  146.8440 C   0  0  0  0  0  3  0  0  0  0  0  0
  1  8  2  0  0  0  0
  1 17  1  0  0  0  0
  2  7  1  6  0  0  0
  2 15  1  0  0  0  0
  3  2  1  0  0  0  0
  3 22  1  0  0  0  0
  4  5  2  0  0  0  0
  5 30  1  0  0  0  0
  6  9  1  0  0  0  0
  6 18  2  0  0  0  0
  7 19  1  0  0  0  0
  8 20  1  0  0  0  0
  9  3  2  0  0  0  0
 10 16  1  0  0  0  0
 11  1  1  0  0  0  0
 12 21  1  0  0  0  0
 13  6  1  0  0  0  0
 14 10  2  0  0  0  0
 15 10  1  0  0  0  0
 15 21  1  1  0  0  0
 16  5  1  0  0  0  0
 17  7  2  0  0  0  0
 18 23  1  0  0  0  0
 19 14  1  0  0  0  0
 20 19  2  0  0  0  0
 22 12  1  0  0  0  0
 23 22  2  0  0  0  0
 24 27  1  0  0  0  0
 25 28  1  0  0  0  0
 26 29  1  0  0  0  0
 28 24  2  0  0  0  0
 29 31  2  0  0  0  0
 30 25  2  0  0  0  0
 30 29  1  0  0  0  0
 31 24  1  0  0  0  0
M  END
>  <MODEL>
7

>  <REMARK>
 VINA RESULT:      -8.6      4.357      8.759
  Name = 
  1 active torsions:
  status: ('A' for Active; 'I' for Inactive)
    1  A    between atoms: C_9  and  C_22
                            x       y       z     vdW  Elec       q    Type
                         _______ _______ _______ _____ _____    ______ ____

>  <TORSDO>
F 1

$$$$
=
 OpenBabel10272400253D

 31 35  0  0  1  0  0  0  0  0999 V2000
  187.5150  178.2010  135.9960 C   0  0  0  0  0  0  0  0  0  0  0  0
  186.0310  177.8680  139.5290 C   0  0  1  0  0  3  0  0  0  0  0  0
  184.5960  178.3490  139.3400 C   0  0  0  0  0  0  0  0  0  0  0  0
  190.6320  176.7860  141.8180 O   0  0  0  0  0  0  0  0  0  0  0  0
  189.8410  177.1910  142.7110 C   0  0  0  0  0  0  0  0  0  0  0  0
  182.5560  178.4140  138.0080 C   0  0  0  0  0  0  0  0  0  0  0  0
  186.9960  178.0060  138.3630 C   0  0  0  0  0  0  0  0  0  0  0  0
  188.8720  178.0230  136.2720 C   0  0  0  0  0  3  0  0  0  0  0  0
  183.9020  178.0730  138.1500 C   0  0  0  0  0  3  0  0  0  0  0  0
  188.0510  177.8710  141.0110 C   0  0  0  0  0  0  0  0  0  0  0  0
  186.9800  178.4310  134.3460 Cl  0  0  0  0  0  0  0  0  0  0  0  0
  184.5230  179.1640  141.7600 C   0  0  0  0  0  2  0  0  0  0  0  0
  181.9140  178.1610  136.8410 F   0  0  0  0  0  0  0  0  0  0  0  0
  188.8210  177.6490  139.9840 N   0  0  0  0  0  0  0  0  0  0  0  0
  186.6780  178.4570  140.7930 C   0  0  2  0  0  3  0  0  0  0  0  0
  188.5560  177.7160  142.3470 N   0  0  0  0  0  2  0  0  0  0  0  0
  186.5810  178.1800  137.0340 C   0  0  0  0  0  3  0  0  0  0  0  0
  181.8710  179.0040  139.0680 C   0  0  0  0  0  3  0  0  0  0  0  0
  188.3700  177.8270  138.6320 C   0  0  0  0  0  0  0  0  0  0  0  0
  189.2990  177.8340  137.5880 C   0  0  0  0  0  3  0  0  0  0  0  0
  185.7480  178.2870  141.9830 C   0  0  0  0  0  2  0  0  0  0  0  0
  183.8730  178.8950  140.4310 C   0  0  0  0  0  0  0  0  0  0  0  0
  182.5270  179.2410  140.2760 C   0  0  0  0  0  3  0  0  0  0  0  0
  191.0990  176.9890  146.7910 C   0  0  0  0  0  0  0  0  0  0  0  0
  191.5750  176.9650  144.4690 C   0  0  0  0  0  3  0  0  0  0  0  0
  187.8230  177.3930  144.9950 C   0  0  0  0  0  1  0  0  0  0  0  0
  191.5810  176.9140  148.1940 C   0  0  0  0  0  1  0  0  0  0  0  0
  191.9820  176.9000  145.7640 N   0  0  0  0  0  0  0  0  0  0  0  0
  189.2900  177.2210  145.2100 C   0  0  0  0  0  0  0  0  0  0  0  0
  190.2190  177.1270  144.1460 C   0  0  0  0  0  0  0  0  0  0  0  0
  189.7390  177.1500  146.5310 C   0  0  0  0  0  3  0  0  0  0  0  0
  1  8  2  0  0  0  0
  1 17  1  0  0  0  0
  2  7  1  6  0  0  0
  2 15  1  0  0  0  0
  3  2  1  0  0  0  0
  3 22  1  0  0  0  0
  4  5  2  0  0  0  0
  5 30  1  0  0  0  0
  6  9  1  0  0  0  0
  6 18  2  0  0  0  0
  7 19  1  0  0  0  0
  8 20  1  0  0  0  0
  9  3  2  0  0  0  0
 10 16  1  0  0  0  0
 11  1  1  0  0  0  0
 12 21  1  0  0  0  0
 13  6  1  0  0  0  0
 14 10  2  0  0  0  0
 15 10  1  0  0  0  0
 15 21  1  1  0  0  0
 16  5  1  0  0  0  0
 17  7  2  0  0  0  0
 18 23  1  0  0  0  0
 19 14  1  0  0  0  0
 20 19  2  0  0  0  0
 22 12  1  0  0  0  0
 23 22  2  0  0  0  0
 24 27  1  0  0  0  0
 25 28  1  0  0  0  0
 26 29  1  0  0  0  0
 28 24  2  0  0  0  0
 29 31  2  0  0  0  0
 30 25  2  0  0  0  0
 30 29  1  0  0  0  0
 31 24  1  0  0  0  0
M  END
>  <MODEL>
8

>  <REMARK>
 VINA RESULT:      -8.5      4.026      7.814
  Name = 
  1 active torsions:
  status: ('A' for Active; 'I' for Inactive)
    1  A    between atoms: C_9  and  C_22
                            x       y       z     vdW  Elec       q    Type
                         _______ _______ _______ _____ _____    ______ ____

>  <TORSDO>
F 1

$$$$
=
 OpenBabel10272400253D

 31 35  0  0  1  0  0  0  0  0999 V2000
  186.6860  178.4190  138.9580 C   0  0  0  0  0  0  0  0  0  0  0  0
  186.1330  177.8350  142.7190 C   0  0  1  0  0  3  0  0  0  0  0  0
  184.7280  178.3850  142.9450 C   0  0  0  0  0  0  0  0  0  0  0  0
  191.0940  176.3820  143.6520 O   0  0  0  0  0  0  0  0  0  0  0  0
  190.5820  176.7380  144.7470 C   0  0  0  0  0  0  0  0  0  0  0  0
  182.4250  178.6420  142.1940 C   0  0  0  0  0  0  0  0  0  0  0  0
  186.7760  178.0370  141.3570 C   0  0  0  0  0  0  0  0  0  0  0  0
  188.0560  178.1670  138.8590 C   0  0  0  0  0  3  0  0  0  0  0  0
  183.7400  178.2400  141.9570 C   0  0  0  0  0  3  0  0  0  0  0  0
  188.4610  177.6310  143.6240 C   0  0  0  0  0  0  0  0  0  0  0  0
  185.7620  178.8130  137.5250 Cl  0  0  0  0  0  0  0  0  0  0  0  0
  185.3220  178.9860  145.3550 C   0  0  0  0  0  2  0  0  0  0  0  0
  181.4930  178.5170  141.2180 F   0  0  0  0  0  0  0  0  0  0  0  0
  188.9300  177.4710  142.4190 N   0  0  0  0  0  0  0  0  0  0  0  0
  187.1150  178.2860  143.8130 C   0  0  2  0  0  3  0  0  0  0  0  0
  189.2790  177.3410  144.7680 N   0  0  0  0  0  2  0  0  0  0  0  0
  186.0470  178.3430  140.1980 C   0  0  0  0  0  3  0  0  0  0  0  0
  182.0680  179.1630  143.4370 C   0  0  0  0  0  3  0  0  0  0  0  0
  188.1600  177.7840  141.2480 C   0  0  0  0  0  0  0  0  0  0  0  0
  188.7920  177.8470  140.0030 C   0  0  0  0  0  3  0  0  0  0  0  0
  186.5110  178.0470  145.1870 C   0  0  0  0  0  2  0  0  0  0  0  0
  184.3410  178.8590  144.2230 C   0  0  0  0  0  0  0  0  0  0  0  0
  183.0220  179.2680  144.4480 C   0  0  0  0  0  3  0  0  0  0  0  0
  192.6040  176.3020  148.4880 C   0  0  0  0  0  0  0  0  0  0  0  0
  191.1720  177.5050  147.0300 C   0  0  0  0  0  3  0  0  0  0  0  0
  192.3570  174.3160  145.3080 C   0  0  0  0  0  1  0  0  0  0  0  0
  193.2870  176.1930  149.8020 C   0  0  0  0  0  1  0  0  0  0  0  0
  191.8120  177.3730  148.2220 N   0  0  0  0  0  0  0  0  0  0  0  0
  192.1320  175.4130  146.2940 C   0  0  0  0  0  0  0  0  0  0  0  0
  191.3080  176.5340  146.0270 C   0  0  0  0  0  0  0  0  0  0  0  0
  192.7770  175.3060  147.5280 C   0  0  0  0  0  3  0  0  0  0  0  0
  1 17  1  0  0  0  0
  2  7  1  6  0  0  0
  2  3  1  0  0  0  0
  2 15  1  0  0  0  0
  3 22  1  0  0  0  0
  4  5  2  0  0  0  0
  5 16  1  0  0  0  0
  5 30  1  0  0  0  0
  6 18  2  0  0  0  0
  8  1  2  0  0  0  0
  8 20  1  0  0  0  0
  9  6  1  0  0  0  0
  9  3  2  0  0  0  0
 10 15  1  0  0  0  0
 10 16  1  0  0  0  0
 11  1  1  0  0  0  0
 13  6  1  0  0  0  0
 14 10  2  0  0  0  0
 15 21  1  1  0  0  0
 17  7  2  0  0  0  0
 18 23  1  0  0  0  0
 19  7  1  0  0  0  0
 19 14  1  0  0  0  0
 20 19  2  0  0  0  0
 21 12  1  0  0  0  0
 22 23  2  0  0  0  0
 22 12  1  0  0  0  0
 24 27  1  0  0  0  0
 25 28  2  0  0  0  0
 26 29  1  0  0  0  0
 28 24  1  0  0  0  0
 29 31  1  0  0  0  0
 30 29  2  0  0  0  0
 30 25  1  0  0  0  0
 31 24  2  0  0  0  0
M  END
>  <MODEL>
9

>  <REMARK>
 VINA RESULT:      -8.4      3.964      7.013
  Name = 
  1 active torsions:
  status: ('A' for Active; 'I' for Inactive)
    1  A    between atoms: C_9  and  C_22
                            x       y       z     vdW  Elec       q    Type
                         _______ _______ _______ _____ _____    ______ ____

>  <TORSDO>
F 1

$$$$
