=
 OpenBabel10272401563D

 28 32  0  0  1  0  0  0  0  0999 V2000
  190.0950  176.7560  141.6790 C   0  0  1  0  0  3  0  0  0  0  0  0
  184.8970  177.9250  142.5170 C   0  0  0  0  0  3  0  0  0  0  0  0
  190.2690  178.4940  144.8590 C   0  0  0  0  0  1  0  0  0  0  0  0
  185.1060  178.6410  144.8320 C   0  0  0  0  0  0  0  0  0  0  0  0
  187.0030  177.3330  143.7750 C   0  0  1  0  0  3  0  0  0  0  0  0
  183.0830  179.1180  143.5830 C   0  0  0  0  0  0  0  0  0  0  0  0
  185.6660  178.0250  143.6850 C   0  0  0  0  0  0  0  0  0  0  0  0
  187.1170  177.8910  146.1910 C   0  0  0  0  0  2  0  0  0  0  0  0
  183.8260  179.2000  144.7630 C   0  0  0  0  0  3  0  0  0  0  0  0
  189.5180  176.2110  143.9130 C   0  0  1  0  0  3  0  0  0  0  0  0
  187.8150  177.3800  142.4890 C   0  0  0  0  0  2  0  0  0  0  0  0
  185.8900  178.8020  146.1120 C   0  0  0  0  0  2  0  0  0  0  0  0
  190.9710  175.8010  143.6900 C   0  0  2  0  0  3  0  0  0  0  0  0
  189.2680  177.3520  144.9500 C   0  0  2  0  0  3  0  0  0  0  0  0
  191.8000  176.0900  144.7760 O   0  0  0  0  0  1  0  0  0  0  0  0
  181.8420  179.6590  143.5280 F   0  0  0  0  0  0  0  0  0  0  0  0
  183.6150  178.4770  142.4640 C   0  0  0  0  0  3  0  0  0  0  0  0
  187.8620  177.9520  144.8690 C   0  0  1  0  0  3  0  0  0  0  0  0
  191.3910  176.5640  142.4570 C   0  0  0  0  0  2  0  0  0  0  0  0
  188.9570  176.4530  142.5680 N   0  0  1  0  0  0  0  0  0  0  0  0
  190.0310  178.0650  140.8630 C   0  0  0  0  0  2  0  0  0  0  0  0
  189.8440  177.8790  139.3890 C   0  0  0  0  0  0  0  0  0  0  0  0
  189.5480  177.5650  136.6210 C   0  0  0  0  0  0  0  0  0  0  0  0
  189.0310  178.7590  138.6640 C   0  0  0  0  0  3  0  0  0  0  0  0
  190.5240  176.8540  138.7200 C   0  0  0  0  0  3  0  0  0  0  0  0
  190.3730  176.6940  137.3390 C   0  0  0  0  0  3  0  0  0  0  0  0
  189.3960  177.4050  135.2510 O   0  0  0  0  0  1  0  0  0  0  0  0
  188.8800  178.6000  137.2830 C   0  0  0  0  0  3  0  0  0  0  0  0
  1 21  1  1  0  0  0
  1 19  1  0  0  0  0
  1 20  1  0  0  0  0
  2  7  1  0  0  0  0
  3 14  1  0  0  0  0
  4 12  1  0  0  0  0
  5 11  1  6  0  0  0
  5 18  1  0  0  0  0
  6  9  2  0  0  0  0
  7  5  1  0  0  0  0
  7  4  2  0  0  0  0
  9  4  1  0  0  0  0
 10 14  1  0  0  0  0
 11 20  1  0  0  0  0
 12  8  1  0  0  0  0
 13 10  1  0  0  0  0
 13 15  1  0  0  0  0
 16  6  1  0  0  0  0
 17  2  2  0  0  0  0
 17  6  1  0  0  0  0
 18 14  1  0  0  0  0
 18  8  1  0  0  0  0
 19 13  1  0  0  0  0
 20 10  1  0  0  0  0
 22 21  1  0  0  0  0
 23 28  2  0  0  0  0
 23 26  1  0  0  0  0
 24 22  2  0  0  0  0
 25 22  1  0  0  0  0
 26 25  2  0  0  0  0
 27 23  1  0  0  0  0
 28 24  1  0  0  0  0
M  END
>  <MODEL>
1

>  <REMARK>
 VINA RESULT:     -10.6      0.000      0.000
  Name = 
  2 active torsions:
  status: ('A' for Active; 'I' for Inactive)
    1  A    between atoms: C_1  and  C_2
    2  A    between atoms: C_2  and  C_3
                            x       y       z     vdW  Elec       q    Type
                         _______ _______ _______ _____ _____    ______ ____

>  <TORSDO>
F 2

$$$$
=
 OpenBabel10272401563D

 28 32  0  0  1  0  0  0  0  0999 V2000
  190.0310  176.4160  142.1080 C   0  0  1  0  0  3  0  0  0  0  0  0
  184.8310  177.7480  142.6280 C   0  0  0  0  0  3  0  0  0  0  0  0
  190.1650  178.6820  144.9400 C   0  0  0  0  0  1  0  0  0  0  0  0
  185.0050  178.8560  144.7860 C   0  0  0  0  0  0  0  0  0  0  0  0
  186.9080  177.3720  144.0110 C   0  0  1  0  0  3  0  0  0  0  0  0
  183.0090  179.1210  143.4340 C   0  0  0  0  0  0  0  0  0  0  0  0
  185.5800  178.0460  143.7760 C   0  0  0  0  0  0  0  0  0  0  0  0
  186.9830  178.3410  146.2940 C   0  0  0  0  0  2  0  0  0  0  0  0
  183.7320  179.4030  144.5950 C   0  0  0  0  0  3  0  0  0  0  0  0
  189.4080  176.2740  144.3910 C   0  0  1  0  0  3  0  0  0  0  0  0
  187.7430  177.1870  142.7520 C   0  0  0  0  0  2  0  0  0  0  0  0
  185.7670  179.2330  146.0330 C   0  0  0  0  0  2  0  0  0  0  0  0
  190.8610  175.8220  144.2720 C   0  0  2  0  0  3  0  0  0  0  0  0
  189.1500  177.5800  145.2080 C   0  0  2  0  0  3  0  0  0  0  0  0
  191.6730  176.2900  145.3070 O   0  0  0  0  0  1  0  0  0  0  0  0
  181.7750  179.6520  143.2600 F   0  0  0  0  0  0  0  0  0  0  0  0
  183.5550  178.2920  142.4540 C   0  0  0  0  0  3  0  0  0  0  0  0
  187.7520  178.1660  144.9970 C   0  0  1  0  0  3  0  0  0  0  0  0
  191.3100  176.3550  142.9330 C   0  0  0  0  0  2  0  0  0  0  0  0
  188.8750  176.2810  143.0140 N   0  0  1  0  0  0  0  0  0  0  0  0
  189.9950  177.5630  141.0750 C   0  0  0  0  0  2  0  0  0  0  0  0
  190.2570  177.1450  139.6610 C   0  0  0  0  0  0  0  0  0  0  0  0
  190.7260  176.3050  137.0310 C   0  0  0  0  0  0  0  0  0  0  0  0
  191.5180  176.6610  139.2910 C   0  0  0  0  0  3  0  0  0  0  0  0
  189.2270  177.1880  138.7150 C   0  0  0  0  0  3  0  0  0  0  0  0
  189.4610  176.7730  137.4010 C   0  0  0  0  0  3  0  0  0  0  0  0
  190.9590  175.8960  135.7260 O   0  0  0  0  0  1  0  0  0  0  0  0
  191.7530  176.2450  137.9770 C   0  0  0  0  0  3  0  0  0  0  0  0
  1 21  1  1  0  0  0
  1 19  1  0  0  0  0
  1 20  1  0  0  0  0
  2  7  1  0  0  0  0
  3 14  1  0  0  0  0
  4 12  1  0  0  0  0
  5 11  1  6  0  0  0
  5 18  1  0  0  0  0
  6  9  2  0  0  0  0
  7  5  1  0  0  0  0
  7  4  2  0  0  0  0
  9  4  1  0  0  0  0
 10 14  1  0  0  0  0
 11 20  1  0  0  0  0
 12  8  1  0  0  0  0
 13 10  1  0  0  0  0
 13 15  1  0  0  0  0
 16  6  1  0  0  0  0
 17  2  2  0  0  0  0
 17  6  1  0  0  0  0
 18 14  1  0  0  0  0
 18  8  1  0  0  0  0
 19 13  1  0  0  0  0
 20 10  1  0  0  0  0
 22 21  1  0  0  0  0
 23 26  2  0  0  0  0
 23 28  1  0  0  0  0
 24 22  1  0  0  0  0
 25 22  2  0  0  0  0
 26 25  1  0  0  0  0
 27 23  1  0  0  0  0
 28 24  2  0  0  0  0
M  END
>  <MODEL>
2

>  <REMARK>
 VINA RESULT:      -9.3      0.798      1.196
  Name = 
  2 active torsions:
  status: ('A' for Active; 'I' for Inactive)
    1  A    between atoms: C_1  and  C_2
    2  A    between atoms: C_2  and  C_3
                            x       y       z     vdW  Elec       q    Type
                         _______ _______ _______ _____ _____    ______ ____

>  <TORSDO>
F 2

$$$$
=
 OpenBabel10272401563D

 28 32  0  0  1  0  0  0  0  0999 V2000
  188.5640  178.0810  144.3770 C   0  0  1  0  0  3  0  0  0  0  0  0
  188.2780  178.4760  139.0060 C   0  0  0  0  0  3  0  0  0  0  0  0
  191.0990  175.6930  143.3600 C   0  0  0  0  0  1  0  0  0  0  0  0
  190.2930  177.2160  138.4910 C   0  0  0  0  0  0  0  0  0  0  0  0
  189.9410  178.0550  140.8570 C   0  0  1  0  0  3  0  0  0  0  0  0
  188.6840  177.7130  136.7460 C   0  0  0  0  0  0  0  0  0  0  0  0
  189.4650  177.8670  139.4380 C   0  0  0  0  0  0  0  0  0  0  0  0
  192.0830  176.9470  140.2730 C   0  0  0  0  0  2  0  0  0  0  0  0
  189.8840  177.1270  137.1570 C   0  0  0  0  0  3  0  0  0  0  0  0
  190.7530  178.2500  143.4850 C   0  0  1  0  0  3  0  0  0  0  0  0
  188.8250  178.0500  141.8920 C   0  0  0  0  0  2  0  0  0  0  0  0
  191.5700  176.5200  138.8950 C   0  0  0  0  0  2  0  0  0  0  0  0
  190.8680  178.2120  145.0060 C   0  0  2  0  0  3  0  0  0  0  0  0
  191.3710  177.0410  142.7100 C   0  0  2  0  0  3  0  0  0  0  0  0
  191.9320  177.4310  145.4610 O   0  0  0  0  0  1  0  0  0  0  0  0
  188.2980  177.6260  135.4510 F   0  0  0  0  0  0  0  0  0  0  0  0
  187.8850  178.3910  137.6680 C   0  0  0  0  0  3  0  0  0  0  0  0
  190.9200  176.9580  141.2500 C   0  0  1  0  0  3  0  0  0  0  0  0
  189.5400  177.6630  145.4680 C   0  0  0  0  0  2  0  0  0  0  0  0
  189.3310  178.5180  143.1940 N   0  0  1  0  0  0  0  0  0  0  0  0
  187.4040  177.0880  144.1460 C   0  0  0  0  0  2  0  0  0  0  0  0
  186.0480  177.7160  144.0510 C   0  0  0  0  0  0  0  0  0  0  0  0
  183.5380  178.9460  143.8600 C   0  0  0  0  0  0  0  0  0  0  0  0
  185.4120  178.1990  145.2010 C   0  0  0  0  0  3  0  0  0  0  0  0
  185.4320  177.8690  142.8030 C   0  0  0  0  0  3  0  0  0  0  0  0
  184.1780  178.4790  142.7070 C   0  0  0  0  0  3  0  0  0  0  0  0
  182.2920  179.5480  143.7660 O   0  0  0  0  0  1  0  0  0  0  0  0
  184.1570  178.8100  145.1060 C   0  0  0  0  0  3  0  0  0  0  0  0
  1 21  1  6  0  0  0
  1 19  1  0  0  0  0
  2  7  1  0  0  0  0
  4 12  1  0  0  0  0
  4  7  2  0  0  0  0
  5 18  1  0  0  0  0
  5 11  1  1  0  0  0
  6  9  2  0  0  0  0
  6 17  1  0  0  0  0
  7  5  1  0  0  0  0
  8 18  1  0  0  0  0
  9  4  1  0  0  0  0
 10 13  1  0  0  0  0
 11 20  1  0  0  0  0
 12  8  1  0  0  0  0
 13 15  1  0  0  0  0
 13 19  1  0  0  0  0
 14  3  1  0  0  0  0
 14 10  1  0  0  0  0
 16  6  1  0  0  0  0
 17  2  2  0  0  0  0
 18 14  1  0  0  0  0
 20 10  1  0  0  0  0
 20  1  1  0  0  0  0
 22 21  1  0  0  0  0
 22 24  1  0  0  0  0
 23 28  1  0  0  0  0
 25 22  2  0  0  0  0
 26 25  1  0  0  0  0
 26 23  2  0  0  0  0
 27 23  1  0  0  0  0
 28 24  2  0  0  0  0
M  END
>  <MODEL>
3

>  <REMARK>
 VINA RESULT:      -9.1      2.976      6.661
  Name = 
  2 active torsions:
  status: ('A' for Active; 'I' for Inactive)
    1  A    between atoms: C_1  and  C_2
    2  A    between atoms: C_2  and  C_3
                            x       y       z     vdW  Elec       q    Type
                         _______ _______ _______ _____ _____    ______ ____

>  <TORSDO>
F 2

$$$$
=
 OpenBabel10272401563D

 28 32  0  0  1  0  0  0  0  0999 V2000
  189.7940  177.7900  139.3780 C   0  0  1  0  0  3  0  0  0  0  0  0
  185.6070  178.9910  142.5590 C   0  0  0  0  0  3  0  0  0  0  0  0
  187.0260  176.5050  137.4140 C   0  0  0  0  0  1  0  0  0  0  0  0
  183.8460  178.5170  140.9510 C   0  0  0  0  0  0  0  0  0  0  0  0
  186.2250  178.7900  140.1210 C   0  0  1  0  0  3  0  0  0  0  0  0
  183.3140  178.7880  143.3020 C   0  0  0  0  0  0  0  0  0  0  0  0
  185.2190  178.7110  141.2410 C   0  0  0  0  0  0  0  0  0  0  0  0
  184.3920  178.5100  138.4710 C   0  0  0  0  0  2  0  0  0  0  0  0
  182.9080  178.5370  141.9890 C   0  0  0  0  0  3  0  0  0  0  0  0
  188.0740  178.7720  138.0750 C   0  0  1  0  0  3  0  0  0  0  0  0
  187.6060  178.2660  140.4870 C   0  0  0  0  0  2  0  0  0  0  0  0
  183.3640  178.1880  139.5590 C   0  0  0  0  0  2  0  0  0  0  0  0
  189.2660  178.5120  137.1590 C   0  0  2  0  0  3  0  0  0  0  0  0
  186.7720  177.9620  137.7710 C   0  0  2  0  0  3  0  0  0  0  0  0
  188.9020  178.0280  135.9000 O   0  0  0  0  0  1  0  0  0  0  0  0
  182.3980  178.8100  144.3000 F   0  0  0  0  0  0  0  0  0  0  0  0
  184.6610  179.0200  143.5860 C   0  0  0  0  0  3  0  0  0  0  0  0
  185.7520  177.9960  138.9110 C   0  0  1  0  0  3  0  0  0  0  0  0
  190.1070  177.5110  137.9140 C   0  0  0  0  0  2  0  0  0  0  0  0
  188.5870  178.6360  139.4530 N   0  0  1  0  0  0  0  0  0  0  0  0
  189.8460  176.5450  140.2880 C   0  0  0  0  0  2  0  0  0  0  0  0
  190.3250  176.8040  141.6830 C   0  0  0  0  0  0  0  0  0  0  0  0
  191.1790  177.3390  144.2970 C   0  0  0  0  0  0  0  0  0  0  0  0
  191.4420  177.6190  141.9060 C   0  0  0  0  0  3  0  0  0  0  0  0
  189.6260  176.2750  142.7740 C   0  0  0  0  0  3  0  0  0  0  0  0
  190.0540  176.5380  144.0790 C   0  0  0  0  0  3  0  0  0  0  0  0
  191.6070  177.5980  145.5910 O   0  0  0  0  0  1  0  0  0  0  0  0
  191.8710  177.8830  143.2100 C   0  0  0  0  0  3  0  0  0  0  0  0
  1 20  1  0  0  0  0
  1 21  1  1  0  0  0
  2 17  1  0  0  0  0
  3 14  1  0  0  0  0
  4  7  1  0  0  0  0
  4  9  2  0  0  0  0
  5 11  1  1  0  0  0
  5  7  1  0  0  0  0
  6 17  2  0  0  0  0
  6 16  1  0  0  0  0
  7  2  2  0  0  0  0
  8 18  1  0  0  0  0
  8 12  1  0  0  0  0
  9  6  1  0  0  0  0
 10 20  1  0  0  0  0
 12  4  1  0  0  0  0
 13 19  1  0  0  0  0
 13 10  1  0  0  0  0
 14 10  1  0  0  0  0
 14 18  1  0  0  0  0
 15 13  1  0  0  0  0
 18  5  1  0  0  0  0
 19  1  1  0  0  0  0
 20 11  1  0  0  0  0
 21 22  1  0  0  0  0
 22 24  2  0  0  0  0
 22 25  1  0  0  0  0
 23 27  1  0  0  0  0
 24 28  1  0  0  0  0
 25 26  2  0  0  0  0
 26 23  1  0  0  0  0
 28 23  2  0  0  0  0
M  END
>  <MODEL>
4

>  <REMARK>
 VINA RESULT:      -8.3      1.935      5.617
  Name = 
  2 active torsions:
  status: ('A' for Active; 'I' for Inactive)
    1  A    between atoms: C_1  and  C_2
    2  A    between atoms: C_2  and  C_3
                            x       y       z     vdW  Elec       q    Type
                         _______ _______ _______ _____ _____    ______ ____

>  <TORSDO>
F 2

$$$$
=
 OpenBabel10272401563D

 28 32  0  0  1  0  0  0  0  0999 V2000
  190.4360  177.2100  137.9650 C   0  0  1  0  0  3  0  0  0  0  0  0
  190.1960  177.2220  143.3530 C   0  0  0  0  0  3  0  0  0  0  0  0
  186.8480  177.2470  138.5090 C   0  0  0  0  0  1  0  0  0  0  0  0
  187.8230  177.7140  143.5600 C   0  0  0  0  0  0  0  0  0  0  0  0
  188.9670  178.1020  141.3320 C   0  0  1  0  0  3  0  0  0  0  0  0
  189.0800  176.9270  145.4790 C   0  0  0  0  0  0  0  0  0  0  0  0
  188.9880  177.6180  142.7600 C   0  0  0  0  0  0  0  0  0  0  0  0
  186.6000  178.7910  141.6120 C   0  0  0  0  0  2  0  0  0  0  0  0
  187.8760  177.3470  144.9080 C   0  0  0  0  0  3  0  0  0  0  0  0
  188.8720  178.8430  138.6780 C   0  0  1  0  0  3  0  0  0  0  0  0
  189.8970  177.3360  140.4020 C   0  0  0  0  0  2  0  0  0  0  0  0
  186.4880  178.1090  142.9780 C   0  0  0  0  0  2  0  0  0  0  0  0
  188.9670  178.9170  137.1570 C   0  0  2  0  0  3  0  0  0  0  0  0
  187.4960  178.3950  139.2680 C   0  0  2  0  0  3  0  0  0  0  0  0
  187.7320  179.1030  136.5330 O   0  0  0  0  0  1  0  0  0  0  0  0
  189.1230  176.5790  146.7870 F   0  0  0  0  0  0  0  0  0  0  0  0
  190.2390  176.8700  144.7040 C   0  0  0  0  0  3  0  0  0  0  0  0
  187.5660  178.0030  140.7460 C   0  0  1  0  0  3  0  0  0  0  0  0
  189.5970  177.6050  136.7560 C   0  0  0  0  0  2  0  0  0  0  0  0
  190.0320  178.0410  139.1150 N   0  0  1  0  0  0  0  0  0  0  0  0
  190.5470  175.6880  138.1920 C   0  0  0  0  0  2  0  0  0  0  0  0
  191.8100  175.0660  137.6820 C   0  0  0  0  0  0  0  0  0  0  0  0
  194.1730  173.8630  136.7770 C   0  0  0  0  0  0  0  0  0  0  0  0
  193.0530  175.6210  138.0100 C   0  0  0  0  0  3  0  0  0  0  0  0
  191.7550  173.8950  136.9150 C   0  0  0  0  0  3  0  0  0  0  0  0
  192.9340  173.2970  136.4600 C   0  0  0  0  0  3  0  0  0  0  0  0
  195.3420  173.2720  136.3220 O   0  0  0  0  0  1  0  0  0  0  0  0
  194.2330  175.0230  137.5550 C   0  0  0  0  0  3  0  0  0  0  0  0
  1 21  1  1  0  0  0
  1 20  1  0  0  0  0
  2 17  1  0  0  0  0
  3 14  1  0  0  0  0
  4  9  2  0  0  0  0
  5 11  1  6  0  0  0
  5  7  1  0  0  0  0
  6 16  1  0  0  0  0
  7  2  2  0  0  0  0
  7  4  1  0  0  0  0
  8 12  1  0  0  0  0
  9  6  1  0  0  0  0
 10 20  1  0  0  0  0
 10 14  1  0  0  0  0
 12  4  1  0  0  0  0
 13 10  1  0  0  0  0
 14 18  1  0  0  0  0
 15 13  1  0  0  0  0
 17  6  2  0  0  0  0
 18  5  1  0  0  0  0
 18  8  1  0  0  0  0
 19 13  1  0  0  0  0
 19  1  1  0  0  0  0
 20 11  1  0  0  0  0
 22 24  1  0  0  0  0
 22 21  1  0  0  0  0
 23 28  1  0  0  0  0
 25 22  2  0  0  0  0
 26 23  2  0  0  0  0
 26 25  1  0  0  0  0
 27 23  1  0  0  0  0
 28 24  2  0  0  0  0
M  END
>  <MODEL>
5

>  <REMARK>
 VINA RESULT:      -8.0      3.058      5.565
  Name = 
  2 active torsions:
  status: ('A' for Active; 'I' for Inactive)
    1  A    between atoms: C_1  and  C_2
    2  A    between atoms: C_2  and  C_3
                            x       y       z     vdW  Elec       q    Type
                         _______ _______ _______ _____ _____    ______ ____

>  <TORSDO>
F 2

$$$$
=
 OpenBabel10272401563D

 28 32  0  0  1  0  0  0  0  0999 V2000
  190.0020  177.1970  145.0050 C   0  0  1  0  0  3  0  0  0  0  0  0
  185.2430  177.7390  142.5260 C   0  0  0  0  0  3  0  0  0  0  0  0
  188.2100  179.2860  147.3700 C   0  0  0  0  0  1  0  0  0  0  0  0
  184.0310  178.7300  144.3870 C   0  0  0  0  0  0  0  0  0  0  0  0
  186.2450  177.5820  144.8360 C   0  0  1  0  0  3  0  0  0  0  0  0
  183.0950  178.7880  142.1500 C   0  0  0  0  0  0  0  0  0  0  0  0
  185.1810  178.0720  143.8870 C   0  0  0  0  0  0  0  0  0  0  0  0
  184.9040  178.4150  146.7510 C   0  0  0  0  0  2  0  0  0  0  0  0
  183.0070  179.1000  143.5090 C   0  0  0  0  0  3  0  0  0  0  0  0
  188.2560  176.8310  146.5670 C   0  0  1  0  0  3  0  0  0  0  0  0
  187.6510  177.5940  144.2550 C   0  0  0  0  0  2  0  0  0  0  0  0
  183.9130  179.1380  145.8360 C   0  0  0  0  0  2  0  0  0  0  0  0
  189.5830  176.6000  147.2840 C   0  0  2  0  0  3  0  0  0  0  0  0
  187.3960  178.0370  147.0670 C   0  0  2  0  0  3  0  0  0  0  0  0
  189.6100  177.1170  148.5810 O   0  0  0  0  0  1  0  0  0  0  0  0
  182.0960  179.1470  141.3080 F   0  0  0  0  0  0  0  0  0  0  0  0
  184.2090  178.1040  141.6600 C   0  0  0  0  0  3  0  0  0  0  0  0
  186.2760  178.4290  146.1010 C   0  0  1  0  0  3  0  0  0  0  0  0
  190.6080  177.2700  146.4010 C   0  0  0  0  0  2  0  0  0  0  0  0
  188.5740  176.8440  145.1250 N   0  0  1  0  0  0  0  0  0  0  0  0
  190.3660  178.3860  144.0900 C   0  0  0  0  0  2  0  0  0  0  0  0
  190.3980  178.0680  142.6270 C   0  0  0  0  0  0  0  0  0  0  0  0
  190.4830  177.5300  139.8800 C   0  0  0  0  0  0  0  0  0  0  0  0
  189.2730  178.3070  141.8280 C   0  0  0  0  0  3  0  0  0  0  0  0
  191.5710  177.5770  142.0420 C   0  0  0  0  0  3  0  0  0  0  0  0
  191.6130  177.3050  140.6720 C   0  0  0  0  0  3  0  0  0  0  0  0
  190.5230  177.2570  138.5200 O   0  0  0  0  0  1  0  0  0  0  0  0
  189.3140  178.0350  140.4570 C   0  0  0  0  0  3  0  0  0  0  0  0
  1 21  1  1  0  0  0
  1 20  1  0  0  0  0
  1 19  1  0  0  0  0
  2  7  1  0  0  0  0
  4 12  1  0  0  0  0
  5 11  1  6  0  0  0
  5 18  1  0  0  0  0
  6  9  2  0  0  0  0
  7  4  2  0  0  0  0
  7  5  1  0  0  0  0
  9  4  1  0  0  0  0
 10 14  1  0  0  0  0
 10 13  1  0  0  0  0
 11 20  1  0  0  0  0
 12  8  1  0  0  0  0
 13 15  1  0  0  0  0
 14  3  1  0  0  0  0
 16  6  1  0  0  0  0
 17  6  1  0  0  0  0
 17  2  2  0  0  0  0
 18  8  1  0  0  0  0
 18 14  1  0  0  0  0
 19 13  1  0  0  0  0
 20 10  1  0  0  0  0
 22 21  1  0  0  0  0
 23 28  2  0  0  0  0
 23 26  1  0  0  0  0
 24 22  2  0  0  0  0
 25 22  1  0  0  0  0
 26 25  2  0  0  0  0
 27 23  1  0  0  0  0
 28 24  1  0  0  0  0
M  END
>  <MODEL>
6

>  <REMARK>
 VINA RESULT:      -8.0      1.898      2.816
  Name = 
  2 active torsions:
  status: ('A' for Active; 'I' for Inactive)
    1  A    between atoms: C_1  and  C_2
    2  A    between atoms: C_2  and  C_3
                            x       y       z     vdW  Elec       q    Type
                         _______ _______ _______ _____ _____    ______ ____

>  <TORSDO>
F 2

$$$$
=
 OpenBabel10272401563D

 28 32  0  0  1  0  0  0  0  0999 V2000
  188.2180  177.3820  140.9320 C   0  0  1  0  0  3  0  0  0  0  0  0
  187.4450  177.2730  146.2690 C   0  0  0  0  0  3  0  0  0  0  0  0
  191.4760  178.4320  142.1370 C   0  0  0  0  0  1  0  0  0  0  0  0
  189.7720  177.5280  146.9280 C   0  0  0  0  0  0  0  0  0  0  0  0
  189.2380  176.8780  144.5370 C   0  0  1  0  0  3  0  0  0  0  0  0
  188.0000  177.8290  148.5570 C   0  0  0  0  0  0  0  0  0  0  0  0
  188.8030  177.2870  145.9220 C   0  0  0  0  0  0  0  0  0  0  0  0
  191.6070  176.9410  145.2730 C   0  0  0  0  0  2  0  0  0  0  0  0
  189.3590  177.8180  148.2320 C   0  0  0  0  0  3  0  0  0  0  0  0
  190.0470  176.2860  141.9690 C   0  0  1  0  0  3  0  0  0  0  0  0
  188.3070  177.3500  143.4290 C   0  0  0  0  0  2  0  0  0  0  0  0
  191.2480  177.5810  146.6160 C   0  0  0  0  0  2  0  0  0  0  0  0
  190.2640  176.2350  140.4590 C   0  0  2  0  0  3  0  0  0  0  0  0
  191.0840  177.1170  142.7930 C   0  0  2  0  0  3  0  0  0  0  0  0
  191.5900  176.4580  140.0820 O   0  0  0  0  0  1  0  0  0  0  0  0
  187.6100  178.1060  149.8240 F   0  0  0  0  0  0  0  0  0  0  0  0
  187.0440  177.5520  147.5780 C   0  0  0  0  0  3  0  0  0  0  0  0
  190.6240  177.4220  144.2200 C   0  0  1  0  0  3  0  0  0  0  0  0
  189.3470  177.3020  139.9130 C   0  0  0  0  0  2  0  0  0  0  0  0
  188.6370  176.6790  142.1600 N   0  0  1  0  0  0  0  0  0  0  0  0
  187.6040  178.7880  141.0930 C   0  0  0  0  0  2  0  0  0  0  0  0
  186.1130  178.8110  141.2400 C   0  0  0  0  0  0  0  0  0  0  0  0
  183.3270  178.7890  141.5210 C   0  0  0  0  0  0  0  0  0  0  0  0
  185.2920  178.7880  140.1060 C   0  0  0  0  0  3  0  0  0  0  0  0
  185.5350  178.8020  142.5150 C   0  0  0  0  0  3  0  0  0  0  0  0
  184.1440  178.7950  142.6560 C   0  0  0  0  0  3  0  0  0  0  0  0
  181.9460  178.7860  141.6610 O   0  0  0  0  0  1  0  0  0  0  0  0
  183.9000  178.7820  140.2470 C   0  0  0  0  0  3  0  0  0  0  0  0
  1 21  1  1  0  0  0
  1 20  1  0  0  0  0
  2 17  1  0  0  0  0
  3 14  1  0  0  0  0
  4  9  2  0  0  0  0
  5 11  1  6  0  0  0
  5  7  1  0  0  0  0
  6 16  1  0  0  0  0
  7  2  2  0  0  0  0
  7  4  1  0  0  0  0
  8 12  1  0  0  0  0
  9  6  1  0  0  0  0
 10 20  1  0  0  0  0
 10 14  1  0  0  0  0
 12  4  1  0  0  0  0
 13 10  1  0  0  0  0
 14 18  1  0  0  0  0
 15 13  1  0  0  0  0
 17  6  2  0  0  0  0
 18  5  1  0  0  0  0
 18  8  1  0  0  0  0
 19 13  1  0  0  0  0
 19  1  1  0  0  0  0
 20 11  1  0  0  0  0
 21 22  1  0  0  0  0
 22 25  1  0  0  0  0
 23 27  1  0  0  0  0
 23 26  1  0  0  0  0
 24 28  1  0  0  0  0
 24 22  2  0  0  0  0
 25 26  2  0  0  0  0
 28 23  2  0  0  0  0
M  END
>  <MODEL>
7

>  <REMARK>
 VINA RESULT:      -8.0      3.071      5.218
  Name = 
  2 active torsions:
  status: ('A' for Active; 'I' for Inactive)
    1  A    between atoms: C_1  and  C_2
    2  A    between atoms: C_2  and  C_3
                            x       y       z     vdW  Elec       q    Type
                         _______ _______ _______ _____ _____    ______ ____

>  <TORSDO>
F 2

$$$$
=
 OpenBabel10272401563D

 28 32  0  0  1  0  0  0  0  0999 V2000
  185.2190  178.5280  138.3060 C   0  0  1  0  0  3  0  0  0  0  0  0
  188.8790  178.0710  142.2420 C   0  0  0  0  0  3  0  0  0  0  0  0
  183.1680  177.2980  141.0360 C   0  0  0  0  0  1  0  0  0  0  0  0
  187.3230  177.7070  144.0750 C   0  0  0  0  0  0  0  0  0  0  0  0
  186.4420  178.6210  141.8820 C   0  0  1  0  0  3  0  0  0  0  0  0
  189.6890  177.2610  144.3720 C   0  0  0  0  0  0  0  0  0  0  0  0
  187.5630  178.0720  142.7280 C   0  0  0  0  0  0  0  0  0  0  0  0
  184.9040  178.4380  143.8210 C   0  0  0  0  0  2  0  0  0  0  0  0
  188.3870  177.2840  144.8790 C   0  0  0  0  0  3  0  0  0  0  0  0
  184.3510  179.4740  140.3000 C   0  0  1  0  0  3  0  0  0  0  0  0
  186.5590  178.2880  140.4020 C   0  0  0  0  0  2  0  0  0  0  0  0
  185.9290  177.6630  144.6530 C   0  0  0  0  0  2  0  0  0  0  0  0
  183.3210  179.6850  139.1940 C   0  0  2  0  0  3  0  0  0  0  0  0
  183.9240  178.5410  141.4790 C   0  0  2  0  0  3  0  0  0  0  0  0
  182.0060  179.4810  139.6160 O   0  0  0  0  0  1  0  0  0  0  0  0
  190.7140  176.8550  145.1600 F   0  0  0  0  0  0  0  0  0  0  0  0
  189.9350  177.6590  143.0570 C   0  0  0  0  0  3  0  0  0  0  0  0
  185.0960  178.0910  142.3550 C   0  0  1  0  0  3  0  0  0  0  0  0
  183.7160  178.6980  138.1210 C   0  0  0  0  0  2  0  0  0  0  0  0
  185.6020  179.0870  139.6180 N   0  0  1  0  0  0  0  0  0  0  0  0
  185.7490  177.1230  137.9500 C   0  0  0  0  0  2  0  0  0  0  0  0
  186.9020  177.1090  136.9940 C   0  0  0  0  0  0  0  0  0  0  0  0
  189.0740  177.1420  135.2260 C   0  0  0  0  0  0  0  0  0  0  0  0
  186.7210  177.5130  135.6650 C   0  0  0  0  0  3  0  0  0  0  0  0
  188.1770  176.7420  137.4390 C   0  0  0  0  0  3  0  0  0  0  0  0
  189.2610  176.7540  136.5560 C   0  0  0  0  0  3  0  0  0  0  0  0
  190.1480  177.1510  134.3490 O   0  0  0  0  0  1  0  0  0  0  0  0
  187.8050  177.5250  134.7810 C   0  0  0  0  0  3  0  0  0  0  0  0
  1 21  1  1  0  0  0
  1 20  1  0  0  0  0
  2  7  2  0  0  0  0
  2 17  1  0  0  0  0
  3 14  1  0  0  0  0
  4 12  1  0  0  0  0
  4  9  2  0  0  0  0
  5 11  1  6  0  0  0
  5 18  1  0  0  0  0
  5  7  1  0  0  0  0
  6  9  1  0  0  0  0
  6 16  1  0  0  0  0
  7  4  1  0  0  0  0
  8 12  1  0  0  0  0
 10 14  1  0  0  0  0
 13 15  1  0  0  0  0
 13 10  1  0  0  0  0
 14 18  1  0  0  0  0
 17  6  2  0  0  0  0
 18  8  1  0  0  0  0
 19  1  1  0  0  0  0
 19 13  1  0  0  0  0
 20 10  1  0  0  0  0
 20 11  1  0  0  0  0
 22 25  1  0  0  0  0
 22 21  1  0  0  0  0
 23 26  1  0  0  0  0
 24 22  2  0  0  0  0
 26 25  2  0  0  0  0
 27 23  1  0  0  0  0
 28 23  2  0  0  0  0
 28 24  1  0  0  0  0
M  END
>  <MODEL>
8

>  <REMARK>
 VINA RESULT:      -7.8      3.330      5.619
  Name = 
  2 active torsions:
  status: ('A' for Active; 'I' for Inactive)
    1  A    between atoms: C_1  and  C_2
    2  A    between atoms: C_2  and  C_3
                            x       y       z     vdW  Elec       q    Type
                         _______ _______ _______ _____ _____    ______ ____

>  <TORSDO>
F 2

$$$$
=
 OpenBabel10272401563D

 28 32  0  0  1  0  0  0  0  0999 V2000
  189.5950  177.5160  141.4480 C   0  0  1  0  0  3  0  0  0  0  0  0
  184.6320  178.9700  139.9180 C   0  0  0  0  0  3  0  0  0  0  0  0
  189.2120  175.6000  138.3910 C   0  0  0  0  0  1  0  0  0  0  0  0
  184.6990  178.0110  137.6840 C   0  0  0  0  0  0  0  0  0  0  0  0
  186.8710  178.3190  138.9530 C   0  0  1  0  0  3  0  0  0  0  0  0
  182.5890  178.7190  138.6470 C   0  0  0  0  0  0  0  0  0  0  0  0
  185.3670  178.3860  138.8760 C   0  0  0  0  0  0  0  0  0  0  0  0
  186.9460  177.5330  136.6010 C   0  0  0  0  0  2  0  0  0  0  0  0
  183.3120  178.1620  137.5900 C   0  0  0  0  0  3  0  0  0  0  0  0
  189.6090  178.0420  139.1370 C   0  0  1  0  0  3  0  0  0  0  0  0
  187.4100  178.0120  140.3440 C   0  0  0  0  0  2  0  0  0  0  0  0
  185.4270  177.3550  136.5360 C   0  0  0  0  0  2  0  0  0  0  0  0
  191.0390  177.7050  139.5500 C   0  0  2  0  0  3  0  0  0  0  0  0
  188.9320  177.0700  138.1160 C   0  0  2  0  0  3  0  0  0  0  0  0
  191.7220  176.9370  138.6050 O   0  0  0  0  0  1  0  0  0  0  0  0
  181.2460  178.8660  138.5440 F   0  0  0  0  0  0  0  0  0  0  0  0
  183.2480  179.1270  139.8080 C   0  0  0  0  0  3  0  0  0  0  0  0
  187.4160  177.2500  138.0170 C   0  0  1  0  0  3  0  0  0  0  0  0
  190.8870  176.9660  140.8570 C   0  0  0  0  0  2  0  0  0  0  0  0
  188.8630  178.2450  140.3950 N   0  0  1  0  0  0  0  0  0  0  0  0
  188.7990  176.4990  142.2940 C   0  0  0  0  0  2  0  0  0  0  0  0
  188.4070  176.9830  143.6560 C   0  0  0  0  0  0  0  0  0  0  0  0
  187.6730  177.8270  146.2240 C   0  0  0  0  0  0  0  0  0  0  0  0
  187.0600  177.2090  143.9640 C   0  0  0  0  0  3  0  0  0  0  0  0
  189.3830  177.1620  144.6440 C   0  0  0  0  0  3  0  0  0  0  0  0
  189.0180  177.5860  145.9240 C   0  0  0  0  0  3  0  0  0  0  0  0
  187.3110  178.2520  147.4940 O   0  0  0  0  0  1  0  0  0  0  0  0
  186.6940  177.6340  145.2450 C   0  0  0  0  0  3  0  0  0  0  0  0
  1 21  1  6  0  0  0
  4  7  1  0  0  0  0
  5 11  1  1  0  0  0
  6 17  2  0  0  0  0
  7  5  1  0  0  0  0
  7  2  2  0  0  0  0
  8 18  1  0  0  0  0
  9  4  2  0  0  0  0
  9  6  1  0  0  0  0
 10 13  1  0  0  0  0
 10 20  1  0  0  0  0
 11 20  1  0  0  0  0
 12  8  1  0  0  0  0
 12  4  1  0  0  0  0
 13 19  1  0  0  0  0
 14  3  1  0  0  0  0
 14 10  1  0  0  0  0
 15 13  1  0  0  0  0
 16  6  1  0  0  0  0
 17  2  1  0  0  0  0
 18 14  1  0  0  0  0
 18  5  1  0  0  0  0
 19  1  1  0  0  0  0
 20  1  1  0  0  0  0
 21 22  1  0  0  0  0
 22 24  2  0  0  0  0
 22 25  1  0  0  0  0
 23 27  1  0  0  0  0
 24 28  1  0  0  0  0
 25 26  2  0  0  0  0
 26 23  1  0  0  0  0
 28 23  2  0  0  0  0
M  END
>  <MODEL>
9

>  <REMARK>
 VINA RESULT:      -7.7      2.802      6.400
  Name = 
  2 active torsions:
  status: ('A' for Active; 'I' for Inactive)
    1  A    between atoms: C_1  and  C_2
    2  A    between atoms: C_2  and  C_3
                            x       y       z     vdW  Elec       q    Type
                         _______ _______ _______ _____ _____    ______ ____

>  <TORSDO>
F 2

$$$$
