=
 OpenBabel10272400483D

 25 28  0  0  1  0  0  0  0  0999 V2000
  187.1360  178.1850  145.9280 C   0  0  0  0  0  0  0  0  0  0  0  0
  188.3990  177.6220  145.7290 C   0  0  0  0  0  0  0  0  0  0  0  0
  187.4950  178.3850  148.3080 C   0  0  0  0  0  3  0  0  0  0  0  0
  185.9400  178.2830  145.0530 C   0  0  1  0  0  3  0  0  0  0  0  0
  183.4780  178.6100  143.9290 C   0  0  0  0  0  2  0  0  0  0  0  0
  188.7910  177.8680  148.1380 C   0  0  0  0  0  3  0  0  0  0  0  0
  185.0230  179.1700  145.7720 N   0  0  1  0  0  0  0  0  0  0  0  0
  183.6690  178.7230  145.4660 C   0  0  0  0  0  2  0  0  0  0  0  0
  190.5350  176.9370  146.6880 C   0  0  0  0  0  0  0  0  0  0  0  0
  191.3950  176.7910  147.7710 O   0  0  0  0  0  1  0  0  0  0  0  0
  188.8300  177.2020  144.4680 C   0  0  0  0  0  3  0  0  0  0  0  0
  184.6640  179.1980  143.1110 C   0  0  0  0  0  2  0  0  0  0  0  0
  186.6940  178.5230  147.1770 C   0  0  0  0  0  0  0  0  0  0  0  0
  185.3550  178.9810  147.1260 N   0  0  0  0  0  2  0  0  0  0  0  0
  190.9550  176.5280  145.4190 C   0  0  0  0  0  3  0  0  0  0  0  0
  186.0610  178.7570  143.6150 C   0  0  0  0  0  2  0  0  0  0  0  0
  190.1070  176.6590  144.3140 C   0  0  0  0  0  0  0  0  0  0  0  0
  189.2520  177.4830  146.8580 C   0  0  0  0  0  0  0  0  0  0  0  0
  190.6560  176.1190  142.7010 S   0  0  0  0  0  0  0  0  0  0  0  0
  190.0470  177.6350  141.8980 C   0  0  0  0  0  2  0  0  0  0  0  0
  189.1600  177.2870  140.7130 C   0  0  0  0  0  2  0  0  0  0  0  0
  188.0720  178.3310  140.5200 C   0  0  0  0  0  2  0  0  0  0  0  0
  187.8130  178.5260  139.1040 N   0  0  0  0  0  2  0  0  0  0  0  0
  189.1040  178.5430  138.4410 C   0  0  0  0  0  2  0  0  0  0  0  0
  188.9320  179.0240  137.0160 C   0  0  0  0  0  1  0  0  0  0  0  0
  1 13  1  0  0  0  0
  2  1  2  0  0  0  0
  2 18  1  0  0  0  0
  4 16  1  6  0  0  0
  4  7  1  0  0  0  0
  4  1  1  0  0  0  0
  5  8  1  0  0  0  0
  6  3  1  0  0  0  0
  7  8  1  1  0  0  0
  7 14  1  0  0  0  0
  9 18  1  0  0  0  0
  9 10  1  0  0  0  0
 11  2  1  0  0  0  0
 12 16  1  0  0  0  0
 12  5  1  0  0  0  0
 13  3  2  0  0  0  0
 14 13  1  0  0  0  0
 15  9  2  0  0  0  0
 17 11  2  0  0  0  0
 17 15  1  0  0  0  0
 18  6  2  0  0  0  0
 19 17  1  0  0  0  0
 20 19  1  0  0  0  0
 21 20  1  0  0  0  0
 22 21  1  0  0  0  0
 23 22  1  0  0  0  0
 24 23  1  0  0  0  0
 25 24  1  0  0  0  0
M  END
>  <MODEL>
1

>  <REMARK>
 VINA RESULT:      -9.1      0.000      0.000
  Name = 
  6 active torsions:
  status: ('A' for Active; 'I' for Inactive)
    1  A    between atoms: C_2  and  N_12
    2  A    between atoms: S_6  and  C_15
    3  A    between atoms: S_6  and  C_23
    4  A    between atoms: N_12  and  C_25
    5  A    between atoms: C_15  and  C_21
    6  A    between atoms: C_21  and  C_25
                            x       y       z     vdW  Elec       q    Type
                         _______ _______ _______ _____ _____    ______ ____

>  <TORSDO>
F 6

$$$$
=
 OpenBabel10272400483D

 25 28  0  0  1  0  0  0  0  0999 V2000
  185.9130  178.3400  144.7910 C   0  0  0  0  0  0  0  0  0  0  0  0
  185.8350  178.4740  143.4030 C   0  0  0  0  0  0  0  0  0  0  0  0
  183.5800  178.8960  145.0710 C   0  0  0  0  0  3  0  0  0  0  0  0
  187.0680  178.2400  145.7180 C   0  0  1  0  0  3  0  0  0  0  0  0
  188.7970  178.1540  147.8240 C   0  0  0  0  0  2  0  0  0  0  0  0
  183.4520  178.9890  143.6740 C   0  0  0  0  0  3  0  0  0  0  0  0
  186.4770  177.9090  147.0170 N   0  0  1  0  0  0  0  0  0  0  0  0
  187.3070  178.5360  148.0370 C   0  0  0  0  0  2  0  0  0  0  0  0
  184.4550  178.9060  141.4380 C   0  0  0  0  0  0  0  0  0  0  0  0
  183.2310  179.2040  140.8490 O   0  0  0  0  0  1  0  0  0  0  0  0
  186.9540  178.3130  142.5810 C   0  0  0  0  0  3  0  0  0  0  0  0
  189.0060  177.0490  146.7490 C   0  0  0  0  0  2  0  0  0  0  0  0
  184.8300  178.5740  145.5920 C   0  0  0  0  0  0  0  0  0  0  0  0
  185.1880  178.4670  146.9580 N   0  0  0  0  0  2  0  0  0  0  0  0
  185.5810  178.7350  140.6290 C   0  0  0  0  0  3  0  0  0  0  0  0
  188.2140  177.2820  145.4390 C   0  0  0  0  0  2  0  0  0  0  0  0
  186.8260  178.4400  141.1960 C   0  0  0  0  0  0  0  0  0  0  0  0
  184.5690  178.7830  142.8330 C   0  0  0  0  0  0  0  0  0  0  0  0
  188.2580  178.2370  140.1470 S   0  0  0  0  0  0  0  0  0  0  0  0
  189.1320  177.2430  141.3970 C   0  0  0  0  0  2  0  0  0  0  0  0
  190.5280  176.8890  140.9100 C   0  0  0  0  0  2  0  0  0  0  0  0
  191.5850  177.3390  141.9060 C   0  0  0  0  0  2  0  0  0  0  0  0
  191.1550  177.0380  143.2610 N   0  0  0  0  0  2  0  0  0  0  0  0
  191.7280  178.0580  144.1190 C   0  0  0  0  0  2  0  0  0  0  0  0
  190.9040  179.3240  144.0130 C   0  0  0  0  0  1  0  0  0  0  0  0
  1 13  1  0  0  0  0
  1  4  1  0  0  0  0
  2  1  2  0  0  0  0
  3 13  2  0  0  0  0
  4 16  1  6  0  0  0
  4  7  1  0  0  0  0
  5  8  1  0  0  0  0
  6  3  1  0  0  0  0
  7  8  1  1  0  0  0
  9 18  1  0  0  0  0
 10  9  1  0  0  0  0
 11  2  1  0  0  0  0
 12  5  1  0  0  0  0
 13 14  1  0  0  0  0
 14  7  1  0  0  0  0
 15 17  1  0  0  0  0
 15  9  2  0  0  0  0
 16 12  1  0  0  0  0
 17 11  2  0  0  0  0
 18  2  1  0  0  0  0
 18  6  2  0  0  0  0
 19 17  1  0  0  0  0
 19 20  1  0  0  0  0
 21 20  1  0  0  0  0
 21 22  1  0  0  0  0
 22 23  1  0  0  0  0
 23 24  1  0  0  0  0
 25 24  1  0  0  0  0
M  END
>  <MODEL>
2

>  <REMARK>
 VINA RESULT:      -8.9      2.982      5.256
  Name = 
  6 active torsions:
  status: ('A' for Active; 'I' for Inactive)
    1  A    between atoms: C_2  and  N_12
    2  A    between atoms: S_6  and  C_15
    3  A    between atoms: S_6  and  C_23
    4  A    between atoms: N_12  and  C_25
    5  A    between atoms: C_15  and  C_21
    6  A    between atoms: C_21  and  C_25
                            x       y       z     vdW  Elec       q    Type
                         _______ _______ _______ _____ _____    ______ ____

>  <TORSDO>
F 6

$$$$
=
 OpenBabel10272400483D

 25 28  0  0  1  0  0  0  0  0999 V2000
  185.9180  178.3220  144.7310 C   0  0  0  0  0  0  0  0  0  0  0  0
  187.1930  177.7930  144.9410 C   0  0  0  0  0  0  0  0  0  0  0  0
  185.5840  178.7050  147.0910 C   0  0  0  0  0  3  0  0  0  0  0  0
  185.0170  178.3130  143.5500 C   0  0  1  0  0  3  0  0  0  0  0  0
  182.9700  178.4680  141.7560 C   0  0  0  0  0  2  0  0  0  0  0  0
  186.8830  178.2250  147.3350 C   0  0  0  0  0  3  0  0  0  0  0  0
  183.9210  179.2150  143.9090 N   0  0  1  0  0  0  0  0  0  0  0  0
  182.7160  178.6990  143.2710 C   0  0  0  0  0  2  0  0  0  0  0  0
  188.9800  177.2570  146.5130 C   0  0  0  0  0  0  0  0  0  0  0  0
  189.5010  177.2210  147.8020 O   0  0  0  0  0  1  0  0  0  0  0  0
  187.9700  177.2990  143.8890 C   0  0  0  0  0  3  0  0  0  0  0  0
  184.3300  179.0390  141.2610 C   0  0  0  0  0  2  0  0  0  0  0  0
  185.1350  178.7320  145.7740 C   0  0  0  0  0  0  0  0  0  0  0  0
  183.8580  179.1360  145.3120 N   0  0  0  0  0  2  0  0  0  0  0  0
  189.7490  176.7740  145.4490 C   0  0  0  0  0  3  0  0  0  0  0  0
  185.5330  178.6870  142.1710 C   0  0  0  0  0  2  0  0  0  0  0  0
  189.2470  176.7940  144.1440 C   0  0  0  0  0  0  0  0  0  0  0  0
  187.6940  177.7670  146.2710 C   0  0  0  0  0  0  0  0  0  0  0  0
  190.2380  176.1600  142.7980 S   0  0  0  0  0  0  0  0  0  0  0  0
  189.9120  177.6220  141.7640 C   0  0  0  0  0  2  0  0  0  0  0  0
  189.4290  177.1990  140.3860 C   0  0  0  0  0  2  0  0  0  0  0  0
  188.4260  178.1950  139.8280 C   0  0  0  0  0  2  0  0  0  0  0  0
  188.9970  178.8970  138.6910 N   0  0  0  0  0  2  0  0  0  0  0  0
  188.2210  178.5090  137.5280 C   0  0  0  0  0  2  0  0  0  0  0  0
  186.8440  178.0610  137.9680 C   0  0  0  0  0  1  0  0  0  0  0  0
  1  2  2  0  0  0  0
  1 13  1  0  0  0  0
  2 18  1  0  0  0  0
  3  6  1  0  0  0  0
  4 16  1  6  0  0  0
  4  7  1  0  0  0  0
  4  1  1  0  0  0  0
  5  8  1  0  0  0  0
  7  8  1  6  0  0  0
  7 14  1  0  0  0  0
  9 10  1  0  0  0  0
 11 17  2  0  0  0  0
 11  2  1  0  0  0  0
 12  5  1  0  0  0  0
 12 16  1  0  0  0  0
 13  3  2  0  0  0  0
 14 13  1  0  0  0  0
 15  9  2  0  0  0  0
 17 15  1  0  0  0  0
 18  9  1  0  0  0  0
 18  6  2  0  0  0  0
 19 17  1  0  0  0  0
 20 19  1  0  0  0  0
 21 20  1  0  0  0  0
 22 21  1  0  0  0  0
 23 22  1  0  0  0  0
 24 25  1  0  0  0  0
 24 23  1  0  0  0  0
M  END
>  <MODEL>
3

>  <REMARK>
 VINA RESULT:      -8.8      1.262      1.700
  Name = 
  6 active torsions:
  status: ('A' for Active; 'I' for Inactive)
    1  A    between atoms: C_2  and  N_12
    2  A    between atoms: S_6  and  C_15
    3  A    between atoms: S_6  and  C_23
    4  A    between atoms: N_12  and  C_25
    5  A    between atoms: C_15  and  C_21
    6  A    between atoms: C_21  and  C_25
                            x       y       z     vdW  Elec       q    Type
                         _______ _______ _______ _____ _____    ______ ____

>  <TORSDO>
F 6

$$$$
=
 OpenBabel10272400483D

 25 28  0  0  1  0  0  0  0  0999 V2000
  188.4060  177.5560  144.3340 C   0  0  0  0  0  0  0  0  0  0  0  0
  187.0560  177.8860  144.4670 C   0  0  0  0  0  0  0  0  0  0  0  0
  188.7470  177.5890  146.7240 C   0  0  0  0  0  3  0  0  0  0  0  0
  189.3180  177.5420  143.1620 C   0  0  1  0  0  3  0  0  0  0  0  0
  191.4010  177.4730  141.4050 C   0  0  0  0  0  2  0  0  0  0  0  0
  187.3810  177.8720  146.8980 C   0  0  0  0  0  3  0  0  0  0  0  0
  190.5420  176.9030  143.6490 N   0  0  1  0  0  0  0  0  0  0  0  0
  191.6570  177.5150  142.9360 C   0  0  0  0  0  2  0  0  0  0  0  0
  185.1700  178.3390  145.9470 C   0  0  0  0  0  0  0  0  0  0  0  0
  184.6220  178.4760  147.2170 O   0  0  0  0  0  1  0  0  0  0  0  0
  186.2300  178.0800  143.3550 C   0  0  0  0  0  3  0  0  0  0  0  0
  190.1680  176.6120  141.0060 C   0  0  0  0  0  2  0  0  0  0  0  0
  189.2230  177.4430  145.4240 C   0  0  0  0  0  0  0  0  0  0  0  0
  190.5600  177.1980  145.0240 N   0  0  0  0  0  2  0  0  0  0  0  0
  184.3540  178.5210  144.8250 C   0  0  0  0  0  3  0  0  0  0  0  0
  188.9030  176.8860  141.8570 C   0  0  0  0  0  2  0  0  0  0  0  0
  184.8810  178.3930  143.5360 C   0  0  0  0  0  0  0  0  0  0  0  0
  186.5280  178.0240  145.7800 C   0  0  0  0  0  0  0  0  0  0  0  0
  183.8280  178.6430  142.1140 S   0  0  0  0  0  0  0  0  0  0  0  0
  185.2450  178.9740  141.0210 C   0  0  0  0  0  2  0  0  0  0  0  0
  184.7860  179.0730  139.5750 C   0  0  0  0  0  2  0  0  0  0  0  0
  185.7410  178.3390  138.6470 C   0  0  0  0  0  2  0  0  0  0  0  0
  187.0970  178.4170  139.1630 N   0  0  0  0  0  2  0  0  0  0  0  0
  187.9560  177.7840  138.1780 C   0  0  0  0  0  2  0  0  0  0  0  0
  189.1200  178.6990  137.8630 C   0  0  0  0  0  1  0  0  0  0  0  0
  1  2  2  0  0  0  0
  1 13  1  0  0  0  0
  2 18  1  0  0  0  0
  3  6  1  0  0  0  0
  4 16  1  6  0  0  0
  4  7  1  0  0  0  0
  4  1  1  0  0  0  0
  5  8  1  0  0  0  0
  7  8  1  6  0  0  0
  7 14  1  0  0  0  0
  9 10  1  0  0  0  0
 11 17  2  0  0  0  0
 11  2  1  0  0  0  0
 12  5  1  0  0  0  0
 12 16  1  0  0  0  0
 13  3  2  0  0  0  0
 14 13  1  0  0  0  0
 15  9  2  0  0  0  0
 17 15  1  0  0  0  0
 18  9  1  0  0  0  0
 18  6  2  0  0  0  0
 19 17  1  0  0  0  0
 20 19  1  0  0  0  0
 21 20  1  0  0  0  0
 22 23  1  0  0  0  0
 22 21  1  0  0  0  0
 24 23  1  0  0  0  0
 25 24  1  0  0  0  0
M  END
>  <MODEL>
4

>  <REMARK>
 VINA RESULT:      -8.7      2.938      4.928
  Name = 
  6 active torsions:
  status: ('A' for Active; 'I' for Inactive)
    1  A    between atoms: C_2  and  N_12
    2  A    between atoms: S_6  and  C_15
    3  A    between atoms: S_6  and  C_23
    4  A    between atoms: N_12  and  C_25
    5  A    between atoms: C_15  and  C_21
    6  A    between atoms: C_21  and  C_25
                            x       y       z     vdW  Elec       q    Type
                         _______ _______ _______ _____ _____    ______ ____

>  <TORSDO>
F 6

$$$$
=
 OpenBabel10272400483D

 25 28  0  0  1  0  0  0  0  0999 V2000
  189.5990  177.1950  144.4580 C   0  0  0  0  0  0  0  0  0  0  0  0
  188.5600  177.5610  145.3170 C   0  0  0  0  0  0  0  0  0  0  0  0
  191.0700  176.6820  146.3030 C   0  0  0  0  0  3  0  0  0  0  0  0
  189.8030  177.3920  143.0000 C   0  0  1  0  0  3  0  0  0  0  0  0
  190.7130  177.5980  140.4400 C   0  0  0  0  0  2  0  0  0  0  0  0
  190.0300  176.9930  147.1960 C   0  0  0  0  0  3  0  0  0  0  0  0
  190.9890  176.5950  142.6780 N   0  0  1  0  0  0  0  0  0  0  0  0
  191.6910  177.2880  141.6060 C   0  0  0  0  0  2  0  0  0  0  0  0
  187.7430  177.7770  147.6050 C   0  0  0  0  0  0  0  0  0  0  0  0
  187.9200  177.6600  148.9800 O   0  0  0  0  0  1  0  0  0  0  0  0
  187.3380  178.0390  144.8350 C   0  0  0  0  0  3  0  0  0  0  0  0
  189.3250  176.9150  140.5960 C   0  0  0  0  0  2  0  0  0  0  0  0
  190.8160  176.8010  144.9390 C   0  0  0  0  0  0  0  0  0  0  0  0
  191.7260  176.5780  143.8760 N   0  0  0  0  0  2  0  0  0  0  0  0
  186.5230  178.2460  147.1080 C   0  0  0  0  0  3  0  0  0  0  0  0
  188.7020  177.0620  142.0070 C   0  0  0  0  0  2  0  0  0  0  0  0
  186.3210  178.3780  145.7310 C   0  0  0  0  0  0  0  0  0  0  0  0
  188.7750  177.4340  146.7170 C   0  0  0  0  0  0  0  0  0  0  0  0
  184.7600  178.9920  145.1130 S   0  0  0  0  0  0  0  0  0  0  0  0
  185.0230  178.2460  143.4740 C   0  0  0  0  0  2  0  0  0  0  0  0
  184.9150  179.3040  142.3880 C   0  0  0  0  0  2  0  0  0  0  0  0
  185.4260  178.7740  141.0570 C   0  0  0  0  0  2  0  0  0  0  0  0
  184.8530  179.5390  139.9620 N   0  0  0  0  0  2  0  0  0  0  0  0
  183.4570  179.1570  139.8700 C   0  0  0  0  0  2  0  0  0  0  0  0
  183.3560  177.6560  139.6990 C   0  0  0  0  0  1  0  0  0  0  0  0
  1 13  2  0  0  0  0
  1  2  1  0  0  0  0
  2 18  1  0  0  0  0
  3  6  2  0  0  0  0
  4 16  1  6  0  0  0
  4  1  1  0  0  0  0
  5 12  1  0  0  0  0
  5  8  1  0  0  0  0
  7  8  1  6  0  0  0
  7  4  1  0  0  0  0
  7 14  1  0  0  0  0
  9 10  1  0  0  0  0
 11  2  2  0  0  0  0
 11 17  1  0  0  0  0
 12 16  1  0  0  0  0
 13  3  1  0  0  0  0
 14 13  1  0  0  0  0
 15  9  1  0  0  0  0
 17 15  2  0  0  0  0
 18  6  1  0  0  0  0
 18  9  2  0  0  0  0
 19 17  1  0  0  0  0
 20 19  1  0  0  0  0
 21 20  1  0  0  0  0
 22 21  1  0  0  0  0
 23 22  1  0  0  0  0
 24 23  1  0  0  0  0
 25 24  1  0  0  0  0
M  END
>  <MODEL>
5

>  <REMARK>
 VINA RESULT:      -8.5      2.869      5.077
  Name = 
  6 active torsions:
  status: ('A' for Active; 'I' for Inactive)
    1  A    between atoms: C_2  and  N_12
    2  A    between atoms: S_6  and  C_15
    3  A    between atoms: S_6  and  C_23
    4  A    between atoms: N_12  and  C_25
    5  A    between atoms: C_15  and  C_21
    6  A    between atoms: C_21  and  C_25
                            x       y       z     vdW  Elec       q    Type
                         _______ _______ _______ _____ _____    ______ ____

>  <TORSDO>
F 6

$$$$
=
 OpenBabel10272400483D

 25 28  0  0  1  0  0  0  0  0999 V2000
  187.5980  177.6440  144.7730 C   0  0  0  0  0  0  0  0  0  0  0  0
  186.3540  178.0310  144.2690 C   0  0  0  0  0  0  0  0  0  0  0  0
  186.9190  178.0860  147.0480 C   0  0  0  0  0  3  0  0  0  0  0  0
  188.9070  177.3990  144.1160 C   0  0  1  0  0  3  0  0  0  0  0  0
  191.5120  176.9630  143.4430 C   0  0  0  0  0  2  0  0  0  0  0  0
  185.6400  178.4340  146.5810 C   0  0  0  0  0  3  0  0  0  0  0  0
  189.7490  176.8200  145.1650 N   0  0  1  0  0  0  0  0  0  0  0  0
  191.1130  177.2660  144.9130 C   0  0  0  0  0  2  0  0  0  0  0  0
  184.0810  178.7900  144.7230 C   0  0  0  0  0  0  0  0  0  0  0  0
  183.0720  179.1630  145.6050 O   0  0  0  0  0  1  0  0  0  0  0  0
  186.0870  178.0510  142.8980 C   0  0  0  0  0  3  0  0  0  0  0  0
  190.4760  176.0820  142.6890 C   0  0  0  0  0  2  0  0  0  0  0  0
  187.8740  177.7010  146.1110 C   0  0  0  0  0  0  0  0  0  0  0  0
  189.2250  177.3510  146.3570 N   0  0  0  0  0  2  0  0  0  0  0  0
  183.8260  178.7960  143.3480 C   0  0  0  0  0  3  0  0  0  0  0  0
  189.0070  176.5360  142.8700 C   0  0  0  0  0  2  0  0  0  0  0  0
  184.8240  178.4300  142.4390 C   0  0  0  0  0  0  0  0  0  0  0  0
  185.3470  178.4120  145.1980 C   0  0  0  0  0  0  0  0  0  0  0  0
  184.4850  178.4560  140.6840 S   0  0  0  0  0  0  0  0  0  0  0  0
  186.2540  178.4700  140.2610 C   0  0  0  0  0  2  0  0  0  0  0  0
  186.4470  178.1850  138.7800 C   0  0  0  0  0  2  0  0  0  0  0  0
  187.9210  178.1830  138.4110 C   0  0  0  0  0  2  0  0  0  0  0  0
  188.6540  177.2820  139.2850 N   0  0  0  0  0  2  0  0  0  0  0  0
  190.0560  177.6360  139.1690 C   0  0  0  0  0  2  0  0  0  0  0  0
  190.8790  176.3780  138.9850 C   0  0  0  0  0  1  0  0  0  0  0  0
  1 13  1  0  0  0  0
  2  1  2  0  0  0  0
  2 18  1  0  0  0  0
  4 16  1  6  0  0  0
  4  1  1  0  0  0  0
  4  7  1  0  0  0  0
  5  8  1  0  0  0  0
  6  3  1  0  0  0  0
  7  8  1  6  0  0  0
  7 14  1  0  0  0  0
  9 18  1  0  0  0  0
  9 10  1  0  0  0  0
 11  2  1  0  0  0  0
 12 16  1  0  0  0  0
 12  5  1  0  0  0  0
 13 14  1  0  0  0  0
 13  3  2  0  0  0  0
 15  9  2  0  0  0  0
 17 11  2  0  0  0  0
 17 15  1  0  0  0  0
 18  6  2  0  0  0  0
 19 17  1  0  0  0  0
 20 19  1  0  0  0  0
 21 20  1  0  0  0  0
 22 21  1  0  0  0  0
 22 23  1  0  0  0  0
 24 23  1  0  0  0  0
 25 24  1  0  0  0  0
M  END
>  <MODEL>
6

>  <REMARK>
 VINA RESULT:      -8.3      2.922      4.981
  Name = 
  6 active torsions:
  status: ('A' for Active; 'I' for Inactive)
    1  A    between atoms: C_2  and  N_12
    2  A    between atoms: S_6  and  C_15
    3  A    between atoms: S_6  and  C_23
    4  A    between atoms: N_12  and  C_25
    5  A    between atoms: C_15  and  C_21
    6  A    between atoms: C_21  and  C_25
                            x       y       z     vdW  Elec       q    Type
                         _______ _______ _______ _____ _____    ______ ____

>  <TORSDO>
F 6

$$$$
=
 OpenBabel10272400483D

 25 28  0  0  1  0  0  0  0  0999 V2000
  186.8350  178.4110  141.9700 C   0  0  0  0  0  0  0  0  0  0  0  0
  185.9510  178.5050  143.0470 C   0  0  0  0  0  0  0  0  0  0  0  0
  185.0800  178.8380  140.3680 C   0  0  0  0  0  3  0  0  0  0  0  0
  188.2260  177.9020  141.8650 C   0  0  1  0  0  3  0  0  0  0  0  0
  190.6810  176.9880  141.1110 C   0  0  0  0  0  2  0  0  0  0  0  0
  184.1710  178.9890  141.4300 C   0  0  0  0  0  3  0  0  0  0  0  0
  188.6590  178.2740  140.5160 N   0  0  1  0  0  0  0  0  0  0  0  0
  189.5680  177.2310  140.0560 C   0  0  0  0  0  2  0  0  0  0  0  0
  183.6830  178.9430  143.8320 C   0  0  0  0  0  0  0  0  0  0  0  0
  182.3500  179.2590  143.5960 O   0  0  0  0  0  1  0  0  0  0  0  0
  186.3670  178.2950  144.3650 C   0  0  0  0  0  3  0  0  0  0  0  0
  190.6890  178.0380  142.2580 C   0  0  0  0  0  2  0  0  0  0  0  0
  186.4040  178.5420  140.6800 C   0  0  0  0  0  0  0  0  0  0  0  0
  187.4670  178.3110  139.7720 N   0  0  0  0  0  2  0  0  0  0  0  0
  184.1160  178.7380  145.1460 C   0  0  0  0  0  3  0  0  0  0  0  0
  189.2910  178.3270  142.8610 C   0  0  0  0  0  2  0  0  0  0  0  0
  185.4510  178.4150  145.4120 C   0  0  0  0  0  0  0  0  0  0  0  0
  184.5930  178.8240  142.7690 C   0  0  0  0  0  0  0  0  0  0  0  0
  185.9840  178.1430  147.0960 S   0  0  0  0  0  0  0  0  0  0  0  0
  187.6770  177.7240  146.5770 C   0  0  0  0  0  2  0  0  0  0  0  0
  188.4550  177.1290  147.7410 C   0  0  0  0  0  2  0  0  0  0  0  0
  189.9510  177.1600  147.4710 C   0  0  0  0  0  2  0  0  0  0  0  0
  190.2090  176.9150  146.0620 N   0  0  0  0  0  2  0  0  0  0  0  0
  191.6070  176.5400  145.9520 C   0  0  0  0  0  2  0  0  0  0  0  0
  192.0250  175.7870  147.1970 C   0  0  0  0  0  1  0  0  0  0  0  0
  1  2  1  0  0  0  0
  2 11  1  0  0  0  0
  3 13  1  0  0  0  0
  3  6  2  0  0  0  0
  4  1  1  0  0  0  0
  4 16  1  1  0  0  0
  5 12  1  0  0  0  0
  6 18  1  0  0  0  0
  7  8  1  6  0  0  0
  7  4  1  0  0  0  0
  8  5  1  0  0  0  0
  9 15  2  0  0  0  0
 10  9  1  0  0  0  0
 11 17  2  0  0  0  0
 12 16  1  0  0  0  0
 13  1  2  0  0  0  0
 14  7  1  0  0  0  0
 14 13  1  0  0  0  0
 15 17  1  0  0  0  0
 17 19  1  0  0  0  0
 18  2  2  0  0  0  0
 18  9  1  0  0  0  0
 20 19  1  0  0  0  0
 20 21  1  0  0  0  0
 22 21  1  0  0  0  0
 23 22  1  0  0  0  0
 24 23  1  0  0  0  0
 24 25  1  0  0  0  0
M  END
>  <MODEL>
7

>  <REMARK>
 VINA RESULT:      -8.1      3.187      6.974
  Name = 
  6 active torsions:
  status: ('A' for Active; 'I' for Inactive)
    1  A    between atoms: C_2  and  N_12
    2  A    between atoms: S_6  and  C_15
    3  A    between atoms: S_6  and  C_23
    4  A    between atoms: N_12  and  C_25
    5  A    between atoms: C_15  and  C_21
    6  A    between atoms: C_21  and  C_25
                            x       y       z     vdW  Elec       q    Type
                         _______ _______ _______ _____ _____    ______ ____

>  <TORSDO>
F 6

$$$$
=
 OpenBabel10272400483D

 25 28  0  0  1  0  0  0  0  0999 V2000
  187.6360  177.5900  144.9020 C   0  0  0  0  0  0  0  0  0  0  0  0
  186.4030  178.0130  144.4010 C   0  0  0  0  0  0  0  0  0  0  0  0
  186.9760  178.0450  147.1790 C   0  0  0  0  0  3  0  0  0  0  0  0
  188.9370  177.3100  144.2410 C   0  0  1  0  0  3  0  0  0  0  0  0
  191.5270  176.8020  143.5610 C   0  0  0  0  0  2  0  0  0  0  0  0
  185.7060  178.4310  146.7160 C   0  0  0  0  0  3  0  0  0  0  0  0
  189.7640  176.7040  145.2870 N   0  0  1  0  0  0  0  0  0  0  0  0
  191.1400  177.1120  145.0330 C   0  0  0  0  0  2  0  0  0  0  0  0
  184.1530  178.8350  144.8620 C   0  0  0  0  0  0  0  0  0  0  0  0
  183.1580  179.2350  145.7470 O   0  0  0  0  0  1  0  0  0  0  0  0
  186.1340  178.0440  143.0300 C   0  0  0  0  0  3  0  0  0  0  0  0
  190.4650  175.9520  142.8070 C   0  0  0  0  0  2  0  0  0  0  0  0
  187.9170  177.6360  146.2390 C   0  0  0  0  0  0  0  0  0  0  0  0
  189.2580  177.2470  146.4810 N   0  0  0  0  0  2  0  0  0  0  0  0
  183.8950  178.8520  143.4880 C   0  0  0  0  0  3  0  0  0  0  0  0
  189.0090  176.4480  142.9930 C   0  0  0  0  0  2  0  0  0  0  0  0
  184.8800  178.4600  142.5760 C   0  0  0  0  0  0  0  0  0  0  0  0
  185.4090  178.4210  145.3330 C   0  0  0  0  0  0  0  0  0  0  0  0
  184.5390  178.5010  140.8220 S   0  0  0  0  0  0  0  0  0  0  0  0
  182.7550  178.7390  141.0940 C   0  0  0  0  0  2  0  0  0  0  0  0
  181.9580  177.7090  140.3080 C   0  0  0  0  0  2  0  0  0  0  0  0
  182.8660  176.6290  139.7440 C   0  0  0  0  0  2  0  0  0  0  0  0
  182.6560  176.4980  138.3120 N   0  0  0  0  0  2  0  0  0  0  0  0
  182.4870  175.0820  138.0420 C   0  0  0  0  0  2  0  0  0  0  0  0
  183.8180  174.4830  137.6410 C   0  0  0  0  0  1  0  0  0  0  0  0
  1 13  1  0  0  0  0
  2  1  2  0  0  0  0
  2 18  1  0  0  0  0
  4 16  1  6  0  0  0
  4  1  1  0  0  0  0
  4  7  1  0  0  0  0
  5  8  1  0  0  0  0
  6  3  1  0  0  0  0
  7  8  1  6  0  0  0
  7 14  1  0  0  0  0
  9 18  1  0  0  0  0
  9 10  1  0  0  0  0
 11  2  1  0  0  0  0
 12 16  1  0  0  0  0
 12  5  1  0  0  0  0
 13 14  1  0  0  0  0
 13  3  2  0  0  0  0
 15  9  2  0  0  0  0
 17 11  2  0  0  0  0
 17 15  1  0  0  0  0
 18  6  2  0  0  0  0
 19 20  1  0  0  0  0
 19 17  1  0  0  0  0
 21 20  1  0  0  0  0
 22 21  1  0  0  0  0
 23 22  1  0  0  0  0
 24 23  1  0  0  0  0
 25 24  1  0  0  0  0
M  END
>  <MODEL>
8

>  <REMARK>
 VINA RESULT:      -7.9      3.755      5.772
  Name = 
  6 active torsions:
  status: ('A' for Active; 'I' for Inactive)
    1  A    between atoms: C_2  and  N_12
    2  A    between atoms: S_6  and  C_15
    3  A    between atoms: S_6  and  C_23
    4  A    between atoms: N_12  and  C_25
    5  A    between atoms: C_15  and  C_21
    6  A    between atoms: C_21  and  C_25
                            x       y       z     vdW  Elec       q    Type
                         _______ _______ _______ _____ _____    ______ ____

>  <TORSDO>
F 6

$$$$
=
 OpenBabel10272400483D

 25 28  0  0  1  0  0  0  0  0999 V2000
  188.8480  177.8610  141.8290 C   0  0  0  0  0  0  0  0  0  0  0  0
  187.5050  178.2190  141.6910 C   0  0  0  0  0  0  0  0  0  0  0  0
  189.1740  177.7920  139.4380 C   0  0  0  0  0  3  0  0  0  0  0  0
  189.6360  177.3790  142.9920 C   0  0  1  0  0  3  0  0  0  0  0  0
  191.4710  176.3610  144.7310 C   0  0  0  0  0  2  0  0  0  0  0  0
  187.8400  178.2010  139.2610 C   0  0  0  0  0  3  0  0  0  0  0  0
  191.0250  177.3850  142.5290 N   0  0  1  0  0  0  0  0  0  0  0  0
  191.7030  176.2810  143.1980 C   0  0  0  0  0  2  0  0  0  0  0  0
  185.6570  178.7930  140.2060 C   0  0  0  0  0  0  0  0  0  0  0  0
  185.1310  178.9970  138.9340 O   0  0  0  0  0  1  0  0  0  0  0  0
  186.6670  178.3840  142.7980 C   0  0  0  0  0  3  0  0  0  0  0  0
  190.7880  177.6820  145.1870 C   0  0  0  0  0  2  0  0  0  0  0  0
  189.6390  177.6270  140.7390 C   0  0  0  0  0  0  0  0  0  0  0  0
  190.9250  177.1880  141.1410 N   0  0  0  0  0  2  0  0  0  0  0  0
  184.8330  178.9630  141.3230 C   0  0  0  0  0  3  0  0  0  0  0  0
  189.5590  178.0870  144.3340 C   0  0  0  0  0  2  0  0  0  0  0  0
  185.3340  178.7590  142.6130 C   0  0  0  0  0  0  0  0  0  0  0  0
  186.9980  178.4150  140.3770 C   0  0  0  0  0  0  0  0  0  0  0  0
  184.2640  178.9670  144.0290 S   0  0  0  0  0  0  0  0  0  0  0  0
  185.4800  178.2220  145.1590 C   0  0  0  0  0  2  0  0  0  0  0  0
  185.3630  178.8390  146.5440 C   0  0  0  0  0  2  0  0  0  0  0  0
  186.6080  178.5640  147.3720 C   0  0  0  0  0  2  0  0  0  0  0  0
  187.3120  177.4070  146.8460 N   0  0  0  0  0  2  0  0  0  0  0  0
  188.3060  177.0370  147.8360 C   0  0  0  0  0  2  0  0  0  0  0  0
  188.9080  178.2890  148.4370 C   0  0  0  0  0  1  0  0  0  0  0  0
  1  4  1  0  0  0  0
  2  1  1  0  0  0  0
  2 11  1  0  0  0  0
  3 13  1  0  0  0  0
  4 16  1  1  0  0  0
  5 12  1  0  0  0  0
  6  3  2  0  0  0  0
  6 18  1  0  0  0  0
  7  4  1  0  0  0  0
  7  8  1  1  0  0  0
  8  5  1  0  0  0  0
  9 18  1  0  0  0  0
  9 15  2  0  0  0  0
 10  9  1  0  0  0  0
 13 14  1  0  0  0  0
 13  1  2  0  0  0  0
 14  7  1  0  0  0  0
 15 17  1  0  0  0  0
 16 12  1  0  0  0  0
 17 11  2  0  0  0  0
 17 19  1  0  0  0  0
 18  2  2  0  0  0  0
 19 20  1  0  0  0  0
 20 21  1  0  0  0  0
 21 22  1  0  0  0  0
 23 22  1  0  0  0  0
 23 24  1  0  0  0  0
 24 25  1  0  0  0  0
M  END
>  <MODEL>
9

>  <REMARK>
 VINA RESULT:      -7.9      3.165      7.471
  Name = 
  6 active torsions:
  status: ('A' for Active; 'I' for Inactive)
    1  A    between atoms: C_2  and  N_12
    2  A    between atoms: S_6  and  C_15
    3  A    between atoms: S_6  and  C_23
    4  A    between atoms: N_12  and  C_25
    5  A    between atoms: C_15  and  C_21
    6  A    between atoms: C_21  and  C_25
                            x       y       z     vdW  Elec       q    Type
                         _______ _______ _______ _____ _____    ______ ____

>  <TORSDO>
F 6

$$$$
