=
 OpenBabel10272401063D

 27 30  0  0  1  0  0  0  0  0999 V2000
  190.6820  178.2990  142.4100 C   0  0  0  0  0  2  0  0  0  0  0  0
  188.1810  177.9220  142.3200 C   0  0  0  0  0  0  0  0  0  0  0  0
  188.3930  176.8410  144.4590 O   0  0  0  0  0  0  0  0  0  0  0  0
  184.3980  179.6910  143.2400 C   0  0  0  0  0  2  0  0  0  0  0  0
  183.3530  178.8090  143.8750 C   0  0  0  0  0  2  0  0  0  0  0  0
  187.5190  178.7500  141.4720 N   0  0  0  0  0  0  0  0  0  0  0  0
  185.7750  177.6500  145.2110 C   0  0  0  0  0  3  0  0  0  0  0  0
  191.1510  177.3780  146.0090 C   0  0  2  0  0  3  0  0  0  0  0  0
  184.6130  177.9230  145.8140 C   0  0  0  0  0  3  0  0  0  0  0  0
  192.2340  176.8550  146.7140 O   0  0  0  0  0  1  0  0  0  0  0  0
  186.3580  178.1380  143.9320 C   0  0  0  0  0  0  0  0  0  0  0  0
  189.5420  177.3880  141.9480 C   0  0  1  0  0  3  0  0  0  0  0  0
  183.5670  178.8830  145.3640 C   0  0  0  0  0  2  0  0  0  0  0  0
  185.6930  178.9830  143.0000 C   0  0  0  0  0  0  0  0  0  0  0  0
  190.6520  178.4410  143.8630 N   0  0  0  0  0  2  0  0  0  0  0  0
  187.6360  177.6300  143.5830 C   0  0  0  0  0  0  0  0  0  0  0  0
  189.9030  176.5400  146.3120 C   0  0  0  0  0  2  0  0  0  0  0  0
  186.3120  179.2780  141.7870 C   0  0  0  0  0  3  0  0  0  0  0  0
  191.3820  176.1780  143.9340 O   0  0  0  0  0  1  0  0  0  0  0  0
  191.5030  177.4460  144.5200 C   0  0  2  0  0  3  0  0  0  0  0  0
  188.6250  177.2010  145.8150 C   0  0  0  0  0  2  0  0  0  0  0  0
  189.9220  176.2780  137.8100 C   0  0  0  0  0  3  0  0  0  0  0  0
  189.6590  177.0190  140.4990 C   0  0  0  0  0  0  0  0  0  0  0  0
  190.8810  176.5350  140.0180 C   0  0  0  0  0  3  0  0  0  0  0  0
  191.0130  176.1670  138.6760 C   0  0  0  0  0  3  0  0  0  0  0  0
  188.6970  176.7560  138.2850 C   0  0  0  0  0  3  0  0  0  0  0  0
  188.5640  177.1240  139.6270 C   0  0  0  0  0  3  0  0  0  0  0  0
  1 15  1  0  0  0  0
  2 16  1  0  0  0  0
  3 21  1  0  0  0  0
  4  5  1  0  0  0  0
  5 13  1  0  0  0  0
  6 18  1  0  0  0  0
  6  2  2  0  0  0  0
  7  9  2  0  0  0  0
  8 17  1  0  0  0  0
  8 10  1  1  0  0  0
 11  7  1  0  0  0  0
 12 23  1  6  0  0  0
 12  2  1  0  0  0  0
 12  1  1  0  0  0  0
 13  9  1  0  0  0  0
 14  4  1  0  0  0  0
 14 11  1  0  0  0  0
 15 20  1  0  0  0  0
 16 11  2  0  0  0  0
 16  3  1  0  0  0  0
 18 14  2  0  0  0  0
 20 19  1  6  0  0  0
 20  8  1  0  0  0  0
 21 17  1  0  0  0  0
 22 26  2  0  0  0  0
 22 25  1  0  0  0  0
 24 23  1  0  0  0  0
 25 24  2  0  0  0  0
 26 27  1  0  0  0  0
 27 23  2  0  0  0  0
M  END
>  <MODEL>
1

>  <REMARK>
 VINA RESULT:      -9.0      0.000      0.000
  Name = 
  1 active torsions:
  status: ('A' for Active; 'I' for Inactive)
    1  A    between atoms: C_9  and  C_15
                            x       y       z     vdW  Elec       q    Type
                         _______ _______ _______ _____ _____    ______ ____

>  <TORSDO>
F 1

$$$$
=
 OpenBabel10272401063D

 27 30  0  0  1  0  0  0  0  0999 V2000
  186.1320  179.3260  141.0520 C   0  0  0  0  0  2  0  0  0  0  0  0
  185.8700  178.3210  143.3600 C   0  0  0  0  0  0  0  0  0  0  0  0
  187.8180  176.9980  142.8680 O   0  0  0  0  0  0  0  0  0  0  0  0
  186.8850  178.8510  147.4800 C   0  0  0  0  0  2  0  0  0  0  0  0
  187.3230  177.6320  148.2520 C   0  0  0  0  0  2  0  0  0  0  0  0
  185.1340  179.0730  144.2190 N   0  0  0  0  0  0  0  0  0  0  0  0
  188.5680  176.9500  145.6090 C   0  0  0  0  0  3  0  0  0  0  0  0
  189.5570  177.9820  140.3580 C   0  0  2  0  0  3  0  0  0  0  0  0
  189.1530  176.8030  146.8020 C   0  0  0  0  0  3  0  0  0  0  0  0
  190.2190  177.6560  139.1760 O   0  0  0  0  0  1  0  0  0  0  0  0
  187.4110  177.7790  145.1760 C   0  0  0  0  0  0  0  0  0  0  0  0
  185.4800  178.2350  141.9050 C   0  0  1  0  0  3  0  0  0  0  0  0
  188.8140  177.5130  148.0670 C   0  0  0  0  0  2  0  0  0  0  0  0
  186.5950  178.5590  146.0420 C   0  0  0  0  0  0  0  0  0  0  0  0
  187.5860  179.2130  141.1210 N   0  0  0  0  0  2  0  0  0  0  0  0
  187.0440  177.6920  143.8080 C   0  0  0  0  0  0  0  0  0  0  0  0
  189.6660  176.8060  141.3360 C   0  0  0  0  0  2  0  0  0  0  0  0
  185.4730  179.2040  145.5230 C   0  0  0  0  0  3  0  0  0  0  0  0
  187.3320  177.2450  139.8110 O   0  0  0  0  0  1  0  0  0  0  0  0
  188.1160  178.3850  140.0350 C   0  0  2  0  0  3  0  0  0  0  0  0
  189.2230  177.1780  142.7440 C   0  0  0  0  0  2  0  0  0  0  0  0
  181.2220  178.0670  141.3220 C   0  0  0  0  0  3  0  0  0  0  0  0
  183.9980  178.1540  141.6910 C   0  0  0  0  0  0  0  0  0  0  0  0
  183.1430  178.7230  142.6420 C   0  0  0  0  0  3  0  0  0  0  0  0
  181.7570  178.6780  142.4590 C   0  0  0  0  0  3  0  0  0  0  0  0
  182.0710  177.5020  140.3660 C   0  0  0  0  0  3  0  0  0  0  0  0
  183.4560  177.5470  140.5480 C   0  0  0  0  0  3  0  0  0  0  0  0
  1 15  1  0  0  0  0
  1 12  1  0  0  0  0
  2 16  2  0  0  0  0
  2  6  1  0  0  0  0
  3 16  1  0  0  0  0
  4  5  1  0  0  0  0
  6 18  2  0  0  0  0
  7  9  2  0  0  0  0
  8 10  1  6  0  0  0
  8 17  1  0  0  0  0
  9 13  1  0  0  0  0
 11  7  1  0  0  0  0
 11 14  2  0  0  0  0
 12 23  1  1  0  0  0
 12  2  1  0  0  0  0
 13  5  1  0  0  0  0
 14  4  1  0  0  0  0
 16 11  1  0  0  0  0
 17 21  1  0  0  0  0
 18 14  1  0  0  0  0
 20 19  1  1  0  0  0
 20  8  1  0  0  0  0
 20 15  1  0  0  0  0
 21  3  1  0  0  0  0
 22 25  1  0  0  0  0
 23 24  1  0  0  0  0
 25 24  2  0  0  0  0
 26 27  1  0  0  0  0
 26 22  2  0  0  0  0
 27 23  2  0  0  0  0
M  END
>  <MODEL>
2

>  <REMARK>
 VINA RESULT:      -8.3      2.381      5.498
  Name = 
  1 active torsions:
  status: ('A' for Active; 'I' for Inactive)
    1  A    between atoms: C_9  and  C_15
                            x       y       z     vdW  Elec       q    Type
                         _______ _______ _______ _____ _____    ______ ____

>  <TORSDO>
F 1

$$$$
=
 OpenBabel10272401063D

 27 30  0  0  1  0  0  0  0  0999 V2000
  187.9630  176.4910  143.6330 C   0  0  0  0  0  2  0  0  0  0  0  0
  186.0610  178.0750  143.1050 C   0  0  0  0  0  0  0  0  0  0  0  0
  187.3740  178.8300  141.2360 O   0  0  0  0  0  0  0  0  0  0  0  0
  182.3390  178.4130  141.0270 C   0  0  0  0  0  2  0  0  0  0  0  0
  182.0890  179.6780  140.2460 C   0  0  0  0  0  2  0  0  0  0  0  0
  184.8680  177.7200  143.6490 N   0  0  0  0  0  0  0  0  0  0  0  0
  185.0340  179.4190  139.7350 C   0  0  0  0  0  3  0  0  0  0  0  0
  189.8250  176.9300  140.4140 C   0  0  2  0  0  3  0  0  0  0  0  0
  184.1150  179.7450  138.8210 C   0  0  0  0  0  3  0  0  0  0  0  0
  191.1740  176.8140  140.0830 O   0  0  0  0  0  1  0  0  0  0  0  0
  184.9120  178.7480  141.0580 C   0  0  0  0  0  0  0  0  0  0  0  0
  187.3380  177.8660  143.8810 C   0  0  1  0  0  3  0  0  0  0  0  0
  182.6540  179.4560  138.8670 C   0  0  0  0  0  2  0  0  0  0  0  0
  183.6850  178.3830  141.6780 C   0  0  0  0  0  0  0  0  0  0  0  0
  188.2820  176.3340  142.2170 N   0  0  0  0  0  2  0  0  0  0  0  0
  186.1140  178.5570  141.7860 C   0  0  0  0  0  0  0  0  0  0  0  0
  189.2930  178.2700  139.8930 C   0  0  0  0  0  2  0  0  0  0  0  0
  183.7050  177.8580  142.9690 C   0  0  0  0  0  3  0  0  0  0  0  0
  190.0120  177.9210  142.6000 O   0  0  0  0  0  1  0  0  0  0  0  0
  189.6580  176.7450  141.9250 C   0  0  2  0  0  3  0  0  0  0  0  0
  187.7750  178.3560  139.9560 C   0  0  0  0  0  2  0  0  0  0  0  0
  187.0190  178.7600  148.0760 C   0  0  0  0  0  3  0  0  0  0  0  0
  187.2020  178.1750  145.3420 C   0  0  0  0  0  0  0  0  0  0  0  0
  188.2050  177.7520  146.2210 C   0  0  0  0  0  3  0  0  0  0  0  0
  188.1130  178.0420  147.5860 C   0  0  0  0  0  3  0  0  0  0  0  0
  186.0170  179.1900  147.2020 C   0  0  0  0  0  3  0  0  0  0  0  0
  186.1080  178.9020  145.8380 C   0  0  0  0  0  3  0  0  0  0  0  0
  1 12  1  0  0  0  0
  2  6  1  0  0  0  0
  2 12  1  0  0  0  0
  3 16  1  0  0  0  0
  4 14  1  0  0  0  0
  5  4  1  0  0  0  0
  7 11  1  0  0  0  0
  8 10  1  1  0  0  0
  8 20  1  0  0  0  0
  9 13  1  0  0  0  0
  9  7  2  0  0  0  0
 11 14  2  0  0  0  0
 11 16  1  0  0  0  0
 12 23  1  1  0  0  0
 13  5  1  0  0  0  0
 14 18  1  0  0  0  0
 15  1  1  0  0  0  0
 16  2  2  0  0  0  0
 17 21  1  0  0  0  0
 17  8  1  0  0  0  0
 18  6  2  0  0  0  0
 20 15  1  0  0  0  0
 20 19  1  1  0  0  0
 21  3  1  0  0  0  0
 23 27  2  0  0  0  0
 23 24  1  0  0  0  0
 24 25  2  0  0  0  0
 25 22  1  0  0  0  0
 26 22  2  0  0  0  0
 27 26  1  0  0  0  0
M  END
>  <MODEL>
3

>  <REMARK>
 VINA RESULT:      -7.8      2.465      5.652
  Name = 
  1 active torsions:
  status: ('A' for Active; 'I' for Inactive)
    1  A    between atoms: C_9  and  C_15
                            x       y       z     vdW  Elec       q    Type
                         _______ _______ _______ _____ _____    ______ ____

>  <TORSDO>
F 1

$$$$
=
 OpenBabel10272401063D

 27 30  0  0  1  0  0  0  0  0999 V2000
  188.9780  178.5330  138.5250 C   0  0  0  0  0  2  0  0  0  0  0  0
  187.0080  178.0280  140.0320 C   0  0  0  0  0  0  0  0  0  0  0  0
  188.5630  176.8920  141.4740 O   0  0  0  0  0  0  0  0  0  0  0  0
  184.6600  179.5660  143.2580 C   0  0  0  0  0  2  0  0  0  0  0  0
  184.2810  178.6110  144.3610 C   0  0  0  0  0  2  0  0  0  0  0  0
  185.9410  178.8470  139.8530 N   0  0  0  0  0  0  0  0  0  0  0  0
  187.0190  177.5380  143.7710 C   0  0  0  0  0  3  0  0  0  0  0  0
  191.6620  177.5230  140.9330 C   0  0  2  0  0  3  0  0  0  0  0  0
  186.5080  177.7310  144.9910 C   0  0  0  0  0  3  0  0  0  0  0  0
  192.9550  177.0360  140.7520 O   0  0  0  0  0  1  0  0  0  0  0  0
  186.6380  178.0970  142.4450 C   0  0  0  0  0  0  0  0  0  0  0  0
  187.8250  177.5790  138.8460 C   0  0  1  0  0  3  0  0  0  0  0  0
  185.3980  178.6480  145.3710 C   0  0  0  0  0  2  0  0  0  0  0  0
  185.5140  178.9350  142.2050 C   0  0  0  0  0  0  0  0  0  0  0  0
  189.8830  178.6260  139.6670 N   0  0  0  0  0  2  0  0  0  0  0  0
  187.4050  177.6680  141.3320 C   0  0  0  0  0  0  0  0  0  0  0  0
  190.9140  176.6120  141.9140 C   0  0  0  0  0  2  0  0  0  0  0  0
  185.2060  179.3020  140.8960 C   0  0  0  0  0  3  0  0  0  0  0  0
  190.5340  176.4040  139.1240 O   0  0  0  0  0  1  0  0  0  0  0  0
  190.9770  177.6570  139.5700 C   0  0  2  0  0  3  0  0  0  0  0  0
  189.6030  177.2210  142.3870 C   0  0  0  0  0  2  0  0  0  0  0  0
  185.4940  176.6970  135.3410 C   0  0  0  0  0  3  0  0  0  0  0  0
  186.9940  177.2630  137.6380 C   0  0  0  0  0  0  0  0  0  0  0  0
  187.0960  178.0850  136.5100 C   0  0  0  0  0  3  0  0  0  0  0  0
  186.3460  177.8040  135.3640 C   0  0  0  0  0  3  0  0  0  0  0  0
  185.3910  175.8690  136.4630 C   0  0  0  0  0  3  0  0  0  0  0  0
  186.1400  176.1490  137.6080 C   0  0  0  0  0  3  0  0  0  0  0  0
  1 12  1  0  0  0  0
  1 15  1  0  0  0  0
  2 16  1  0  0  0  0
  3 21  1  0  0  0  0
  4  5  1  0  0  0  0
  5 13  1  0  0  0  0
  6  2  2  0  0  0  0
  6 18  1  0  0  0  0
  7  9  2  0  0  0  0
  8 10  1  6  0  0  0
  8 17  1  0  0  0  0
  9 13  1  0  0  0  0
 11  7  1  0  0  0  0
 12 23  1  6  0  0  0
 12  2  1  0  0  0  0
 14 11  1  0  0  0  0
 14  4  1  0  0  0  0
 16  3  1  0  0  0  0
 16 11  2  0  0  0  0
 17 21  1  0  0  0  0
 18 14  2  0  0  0  0
 20 19  1  1  0  0  0
 20 15  1  0  0  0  0
 20  8  1  0  0  0  0
 22 25  2  0  0  0  0
 22 26  1  0  0  0  0
 24 23  2  0  0  0  0
 25 24  1  0  0  0  0
 26 27  2  0  0  0  0
 27 23  1  0  0  0  0
M  END
>  <MODEL>
4

>  <REMARK>
 VINA RESULT:      -7.8      2.386      3.691
  Name = 
  1 active torsions:
  status: ('A' for Active; 'I' for Inactive)
    1  A    between atoms: C_9  and  C_15
                            x       y       z     vdW  Elec       q    Type
                         _______ _______ _______ _____ _____    ______ ____

>  <TORSDO>
F 1

$$$$
=
 OpenBabel10272401063D

 27 30  0  0  1  0  0  0  0  0999 V2000
  187.4320  179.3440  141.6330 C   0  0  0  0  0  2  0  0  0  0  0  0
  187.9500  177.8240  143.5890 C   0  0  0  0  0  0  0  0  0  0  0  0
  189.2100  176.4760  142.0460 O   0  0  0  0  0  0  0  0  0  0  0  0
  190.6590  177.1960  146.8370 C   0  0  0  0  0  2  0  0  0  0  0  0
  191.1220  175.7840  147.0950 C   0  0  0  0  0  2  0  0  0  0  0  0
  187.8020  178.4060  144.8060 N   0  0  0  0  0  0  0  0  0  0  0  0
  190.9990  175.6660  144.1000 C   0  0  0  0  0  3  0  0  0  0  0  0
  189.9170  177.8770  139.2480 C   0  0  2  0  0  3  0  0  0  0  0  0
  191.9820  175.1660  144.8560 C   0  0  0  0  0  3  0  0  0  0  0  0
  189.9510  177.7930  137.8570 O   0  0  0  0  0  1  0  0  0  0  0  0
  189.9590  176.6900  144.3900 C   0  0  0  0  0  0  0  0  0  0  0  0
  186.9850  178.1460  142.4750 C   0  0  1  0  0  3  0  0  0  0  0  0
  192.3460  175.5650  146.2440 C   0  0  0  0  0  2  0  0  0  0  0  0
  189.7490  177.3060  145.6550 C   0  0  0  0  0  0  0  0  0  0  0  0
  188.7290  179.0710  141.0220 N   0  0  0  0  0  2  0  0  0  0  0  0
  189.0510  176.9870  143.3410 C   0  0  0  0  0  0  0  0  0  0  0  0
  190.1810  176.4880  139.8420 C   0  0  0  0  0  2  0  0  0  0  0  0
  188.6680  178.1710  145.8200 C   0  0  0  0  0  3  0  0  0  0  0  0
  187.5660  177.5310  139.6320 O   0  0  0  0  0  1  0  0  0  0  0  0
  188.5840  178.4920  139.6830 C   0  0  2  0  0  3  0  0  0  0  0  0
  190.4440  176.5380  141.3400 C   0  0  0  0  0  2  0  0  0  0  0  0
  182.9310  178.5520  143.8520 C   0  0  0  0  0  3  0  0  0  0  0  0
  185.5640  178.2720  142.9370 C   0  0  0  0  0  0  0  0  0  0  0  0
  185.3050  178.4150  144.3040 C   0  0  0  0  0  3  0  0  0  0  0  0
  183.9910  178.5530  144.7610 C   0  0  0  0  0  3  0  0  0  0  0  0
  183.1830  178.4130  142.4830 C   0  0  0  0  0  3  0  0  0  0  0  0
  184.4960  178.2760  142.0260 C   0  0  0  0  0  3  0  0  0  0  0  0
  1 12  1  0  0  0  0
  2  6  1  0  0  0  0
  3 16  1  0  0  0  0
  4  5  1  0  0  0  0
  6 18  2  0  0  0  0
  7 11  1  0  0  0  0
  7  9  2  0  0  0  0
  8 10  1  6  0  0  0
  8 20  1  0  0  0  0
  8 17  1  0  0  0  0
  9 13  1  0  0  0  0
 11 14  2  0  0  0  0
 12 23  1  1  0  0  0
 12  2  1  0  0  0  0
 13  5  1  0  0  0  0
 14 18  1  0  0  0  0
 14  4  1  0  0  0  0
 15  1  1  0  0  0  0
 16  2  2  0  0  0  0
 16 11  1  0  0  0  0
 17 21  1  0  0  0  0
 20 19  1  1  0  0  0
 20 15  1  0  0  0  0
 21  3  1  0  0  0  0
 22 25  1  0  0  0  0
 23 24  1  0  0  0  0
 24 25  2  0  0  0  0
 26 22  2  0  0  0  0
 27 26  1  0  0  0  0
 27 23  2  0  0  0  0
M  END
>  <MODEL>
5

>  <REMARK>
 VINA RESULT:      -7.6      2.154      6.209
  Name = 
  1 active torsions:
  status: ('A' for Active; 'I' for Inactive)
    1  A    between atoms: C_9  and  C_15
                            x       y       z     vdW  Elec       q    Type
                         _______ _______ _______ _____ _____    ______ ____

>  <TORSDO>
F 1

$$$$
=
 OpenBabel10272401063D

 27 30  0  0  1  0  0  0  0  0999 V2000
  185.0610  179.0580  139.7790 C   0  0  0  0  0  2  0  0  0  0  0  0
  184.6100  178.1810  142.1100 C   0  0  0  0  0  0  0  0  0  0  0  0
  186.8250  177.2440  142.0510 O   0  0  0  0  0  0  0  0  0  0  0  0
  184.8060  179.1830  146.2630 C   0  0  0  0  0  2  0  0  0  0  0  0
  185.3290  178.1320  147.2090 C   0  0  0  0  0  2  0  0  0  0  0  0
  183.6140  178.8270  142.7690 N   0  0  0  0  0  0  0  0  0  0  0  0
  187.1030  177.5350  144.8650 C   0  0  0  0  0  3  0  0  0  0  0  0
  188.7440  178.3830  139.7460 C   0  0  2  0  0  3  0  0  0  0  0  0
  187.4970  177.5910  146.1410 C   0  0  0  0  0  3  0  0  0  0  0  0
  189.6430  178.1160  138.7150 O   0  0  0  0  0  1  0  0  0  0  0  0
  185.8990  178.0840  144.1820 C   0  0  0  0  0  0  0  0  0  0  0  0
  184.4910  177.9190  140.6290 C   0  0  1  0  0  3  0  0  0  0  0  0
  186.8250  178.3030  147.2630 C   0  0  0  0  0  2  0  0  0  0  0  0
  184.8190  178.7420  144.8330 C   0  0  0  0  0  0  0  0  0  0  0  0
  186.4780  179.2440  140.0770 N   0  0  0  0  0  2  0  0  0  0  0  0
  185.7890  177.8320  142.7900 C   0  0  0  0  0  0  0  0  0  0  0  0
  188.9060  177.3230  140.8420 C   0  0  0  0  0  2  0  0  0  0  0  0
  183.7000  179.1120  144.0900 C   0  0  0  0  0  3  0  0  0  0  0  0
  186.8190  177.1790  138.9460 O   0  0  0  0  0  1  0  0  0  0  0  0
  187.3270  178.4660  139.1710 C   0  0  2  0  0  3  0  0  0  0  0  0
  188.1730  177.6940  142.1220 C   0  0  0  0  0  2  0  0  0  0  0  0
  180.5180  176.8570  139.3690 C   0  0  0  0  0  3  0  0  0  0  0  0
  183.1070  177.5290  140.2040 C   0  0  0  0  0  0  0  0  0  0  0  0
  182.1610  178.5320  139.9700 C   0  0  0  0  0  3  0  0  0  0  0  0
  180.8680  178.1970  139.5560 C   0  0  0  0  0  3  0  0  0  0  0  0
  181.4610  175.8500  139.5960 C   0  0  0  0  0  3  0  0  0  0  0  0
  182.7530  176.1840  140.0100 C   0  0  0  0  0  3  0  0  0  0  0  0
  1 15  1  0  0  0  0
  1 12  1  0  0  0  0
  2  6  2  0  0  0  0
  2 16  1  0  0  0  0
  3 21  1  0  0  0  0
  3 16  1  0  0  0  0
  4  5  1  0  0  0  0
  5 13  1  0  0  0  0
  6 18  1  0  0  0  0
  7  9  2  0  0  0  0
  8 10  1  6  0  0  0
  8 17  1  0  0  0  0
  9 13  1  0  0  0  0
 11 14  1  0  0  0  0
 11  7  1  0  0  0  0
 12 23  1  6  0  0  0
 12  2  1  0  0  0  0
 14  4  1  0  0  0  0
 16 11  2  0  0  0  0
 17 21  1  0  0  0  0
 18 14  2  0  0  0  0
 20 19  1  1  0  0  0
 20  8  1  0  0  0  0
 20 15  1  0  0  0  0
 22 25  2  0  0  0  0
 22 26  1  0  0  0  0
 24 23  2  0  0  0  0
 25 24  1  0  0  0  0
 26 27  2  0  0  0  0
 27 23  1  0  0  0  0
M  END
>  <MODEL>
6

>  <REMARK>
 VINA RESULT:      -7.5      3.194      5.701
  Name = 
  1 active torsions:
  status: ('A' for Active; 'I' for Inactive)
    1  A    between atoms: C_9  and  C_15
                            x       y       z     vdW  Elec       q    Type
                         _______ _______ _______ _____ _____    ______ ____

>  <TORSDO>
F 1

$$$$
=
 OpenBabel10272401063D

 27 30  0  0  1  0  0  0  0  0999 V2000
  187.7350  176.5560  143.5160 C   0  0  0  0  0  2  0  0  0  0  0  0
  188.7830  177.2680  141.3250 C   0  0  0  0  0  0  0  0  0  0  0  0
  190.6700  178.0180  142.6160 O   0  0  0  0  0  0  0  0  0  0  0  0
  191.1690  175.9060  138.0480 C   0  0  0  0  0  2  0  0  0  0  0  0
  192.2530  176.8260  137.5460 C   0  0  0  0  0  2  0  0  0  0  0  0
  188.2660  176.6550  140.2300 N   0  0  0  0  0  0  0  0  0  0  0  0
  192.4500  177.4680  140.4700 C   0  0  0  0  0  3  0  0  0  0  0  0
  190.8050  176.9210  145.6280 C   0  0  2  0  0  3  0  0  0  0  0  0
  193.4860  177.2720  139.6480 C   0  0  0  0  0  3  0  0  0  0  0  0
  190.9900  177.1970  146.9810 O   0  0  0  0  0  1  0  0  0  0  0  0
  191.0180  177.0820  140.3570 C   0  0  0  0  0  0  0  0  0  0  0  0
  187.8810  177.6630  142.4680 C   0  0  1  0  0  3  0  0  0  0  0  0
  193.4870  176.5270  138.3580 C   0  0  0  0  0  2  0  0  0  0  0  0
  190.4260  176.4640  139.2200 C   0  0  0  0  0  0  0  0  0  0  0  0
  189.0390  176.2280  144.0830 N   0  0  0  0  0  2  0  0  0  0  0  0
  190.1720  177.4580  141.4320 C   0  0  0  0  0  0  0  0  0  0  0  0
  191.6790  177.8680  144.7980 C   0  0  0  0  0  2  0  0  0  0  0  0
  189.0480  176.2530  139.2000 C   0  0  0  0  0  3  0  0  0  0  0  0
  188.9210  178.3450  145.1610 O   0  0  0  0  0  1  0  0  0  0  0  0
  189.3130  177.0060  145.2940 C   0  0  2  0  0  3  0  0  0  0  0  0
  191.7590  177.4530  143.3360 C   0  0  0  0  0  2  0  0  0  0  0  0
  184.0920  179.1840  141.1180 C   0  0  0  0  0  3  0  0  0  0  0  0
  186.5560  178.2020  142.0200 C   0  0  0  0  0  0  0  0  0  0  0  0
  186.4220  178.6700  140.7080 C   0  0  0  0  0  3  0  0  0  0  0  0
  185.1930  179.1620  140.2590 C   0  0  0  0  0  3  0  0  0  0  0  0
  184.2180  178.7140  142.4290 C   0  0  0  0  0  3  0  0  0  0  0  0
  185.4460  178.2220  142.8790 C   0  0  0  0  0  3  0  0  0  0  0  0
  1 15  1  0  0  0  0
  2 16  1  0  0  0  0
  2 12  1  0  0  0  0
  3 21  1  0  0  0  0
  4 14  1  0  0  0  0
  5  4  1  0  0  0  0
  5 13  1  0  0  0  0
  6  2  2  0  0  0  0
  8 10  1  1  0  0  0
  9  7  2  0  0  0  0
 11  7  1  0  0  0  0
 11 16  2  0  0  0  0
 12 23  1  6  0  0  0
 12  1  1  0  0  0  0
 13  9  1  0  0  0  0
 14 11  1  0  0  0  0
 15 20  1  0  0  0  0
 16  3  1  0  0  0  0
 17  8  1  0  0  0  0
 18 14  2  0  0  0  0
 18  6  1  0  0  0  0
 20 19  1  6  0  0  0
 20  8  1  0  0  0  0
 21 17  1  0  0  0  0
 22 26  1  0  0  0  0
 23 27  1  0  0  0  0
 24 23  2  0  0  0  0
 25 24  1  0  0  0  0
 25 22  2  0  0  0  0
 26 27  2  0  0  0  0
M  END
>  <MODEL>
7

>  <REMARK>
 VINA RESULT:      -6.9      1.615      5.917
  Name = 
  1 active torsions:
  status: ('A' for Active; 'I' for Inactive)
    1  A    between atoms: C_9  and  C_15
                            x       y       z     vdW  Elec       q    Type
                         _______ _______ _______ _____ _____    ______ ____

>  <TORSDO>
F 1

$$$$
=
 OpenBabel10272401063D

 27 30  0  0  1  0  0  0  0  0999 V2000
  185.7370  179.4210  141.4450 C   0  0  0  0  0  2  0  0  0  0  0  0
  187.2360  178.1500  139.8490 C   0  0  0  0  0  0  0  0  0  0  0  0
  185.2270  177.3970  138.7600 O   0  0  0  0  0  0  0  0  0  0  0  0
  189.4570  178.4830  136.2100 C   0  0  0  0  0  2  0  0  0  0  0  0
  189.3760  177.3350  135.2370 C   0  0  0  0  0  2  0  0  0  0  0  0
  188.5130  178.6090  139.7940 N   0  0  0  0  0  0  0  0  0  0  0  0
  186.5540  177.2510  136.2510 C   0  0  0  0  0  3  0  0  0  0  0  0
  182.5640  179.0260  139.4970 C   0  0  2  0  0  3  0  0  0  0  0  0
  186.9220  177.1290  134.9720 C   0  0  0  0  0  3  0  0  0  0  0  0
  181.2230  178.9940  139.8770 O   0  0  0  0  0  1  0  0  0  0  0  0
  187.2670  177.8140  137.4300 C   0  0  0  0  0  0  0  0  0  0  0  0
  186.4980  178.1220  141.1650 C   0  0  1  0  0  3  0  0  0  0  0  0
  188.1900  177.6010  134.3480 C   0  0  0  0  0  2  0  0  0  0  0  0
  188.6110  178.2800  137.4270 C   0  0  0  0  0  0  0  0  0  0  0  0
  184.7500  179.6580  140.3960 N   0  0  0  0  0  2  0  0  0  0  0  0
  186.5710  177.7820  138.6670 C   0  0  0  0  0  0  0  0  0  0  0  0
  182.8610  177.8180  138.6010 C   0  0  0  0  0  2  0  0  0  0  0  0
  189.1950  178.6830  138.6270 C   0  0  0  0  0  3  0  0  0  0  0  0
  183.5520  177.8320  141.3390 O   0  0  0  0  0  1  0  0  0  0  0  0
  183.4420  179.0990  140.7490 C   0  0  2  0  0  3  0  0  0  0  0  0
  184.2140  177.9250  137.9130 C   0  0  0  0  0  2  0  0  0  0  0  0
  188.9110  176.9130  144.5150 C   0  0  0  0  0  3  0  0  0  0  0  0
  187.3600  177.7070  142.3200 C   0  0  0  0  0  0  0  0  0  0  0  0
  186.8950  177.9150  143.6230 C   0  0  0  0  0  3  0  0  0  0  0  0
  187.6690  177.5210  144.7190 C   0  0  0  0  0  3  0  0  0  0  0  0
  189.3790  176.6980  143.2150 C   0  0  0  0  0  3  0  0  0  0  0  0
  188.6050  177.0910  142.1200 C   0  0  0  0  0  3  0  0  0  0  0  0
  2 12  1  0  0  0  0
  4 14  1  0  0  0  0
  5  4  1  0  0  0  0
  6  2  1  0  0  0  0
  7 11  1  0  0  0  0
  8 10  1  1  0  0  0
  8 20  1  0  0  0  0
  9  7  2  0  0  0  0
 11 16  1  0  0  0  0
 12  1  1  0  0  0  0
 12 23  1  1  0  0  0
 13  9  1  0  0  0  0
 13  5  1  0  0  0  0
 14 11  2  0  0  0  0
 14 18  1  0  0  0  0
 15 20  1  0  0  0  0
 15  1  1  0  0  0  0
 16  3  1  0  0  0  0
 16  2  2  0  0  0  0
 17  8  1  0  0  0  0
 18  6  2  0  0  0  0
 20 19  1  6  0  0  0
 21 17  1  0  0  0  0
 21  3  1  0  0  0  0
 22 25  1  0  0  0  0
 23 24  1  0  0  0  0
 24 25  2  0  0  0  0
 26 22  2  0  0  0  0
 27 23  2  0  0  0  0
 27 26  1  0  0  0  0
M  END
>  <MODEL>
8

>  <REMARK>
 VINA RESULT:      -6.9      3.549      7.719
  Name = 
  1 active torsions:
  status: ('A' for Active; 'I' for Inactive)
    1  A    between atoms: C_9  and  C_15
                            x       y       z     vdW  Elec       q    Type
                         _______ _______ _______ _____ _____    ______ ____

>  <TORSDO>
F 1

$$$$
=
 OpenBabel10272401063D

 27 30  0  0  1  0  0  0  0  0999 V2000
  189.8460  175.8990  143.4580 C   0  0  0  0  0  2  0  0  0  0  0  0
  187.9070  177.5040  143.7230 C   0  0  0  0  0  0  0  0  0  0  0  0
  188.5610  178.4470  141.6090 O   0  0  0  0  0  0  0  0  0  0  0  0
  183.7210  177.9940  143.0000 C   0  0  0  0  0  2  0  0  0  0  0  0
  183.2580  179.3240  142.4630 C   0  0  0  0  0  2  0  0  0  0  0  0
  186.9470  177.0860  144.5880 N   0  0  0  0  0  0  0  0  0  0  0  0
  185.8740  179.1480  141.0060 C   0  0  0  0  0  3  0  0  0  0  0  0
  190.5780  176.6610  139.8660 C   0  0  2  0  0  3  0  0  0  0  0  0
  184.7150  179.5490  140.4730 C   0  0  0  0  0  3  0  0  0  0  0  0
  191.7450  176.5920  139.1080 O   0  0  0  0  0  1  0  0  0  0  0  0
  186.1720  178.3540  142.2290 C   0  0  0  0  0  0  0  0  0  0  0  0
  189.3620  177.2380  144.0220 C   0  0  1  0  0  3  0  0  0  0  0  0
  183.3430  179.2390  140.9610 C   0  0  0  0  0  2  0  0  0  0  0  0
  185.2040  177.9180  143.1760 C   0  0  0  0  0  0  0  0  0  0  0  0
  189.6880  175.8800  142.0070 N   0  0  0  0  0  2  0  0  0  0  0  0
  187.5410  178.1090  142.5080 C   0  0  0  0  0  0  0  0  0  0  0  0
  189.9320  178.0380  139.6710 C   0  0  0  0  0  2  0  0  0  0  0  0
  185.6300  177.2740  144.3370 C   0  0  0  0  0  3  0  0  0  0  0  0
  191.4800  177.4440  141.9570 O   0  0  0  0  0  1  0  0  0  0  0  0
  190.9040  176.3320  141.3260 C   0  0  2  0  0  3  0  0  0  0  0  0
  188.5180  178.1000  140.2300 C   0  0  0  0  0  2  0  0  0  0  0  0
  190.2960  177.7130  148.1930 C   0  0  0  0  0  3  0  0  0  0  0  0
  189.7110  177.4060  145.4700 C   0  0  0  0  0  0  0  0  0  0  0  0
  188.8000  178.0450  146.3190 C   0  0  0  0  0  3  0  0  0  0  0  0
  189.0920  178.1990  147.6770 C   0  0  0  0  0  3  0  0  0  0  0  0
  191.2090  177.0700  147.3520 C   0  0  0  0  0  3  0  0  0  0  0  0
  190.9170  176.9140  145.9940 C   0  0  0  0  0  3  0  0  0  0  0  0
  1 12  1  0  0  0  0
  2 12  1  0  0  0  0
  2  6  1  0  0  0  0
  3 16  1  0  0  0  0
  4 14  1  0  0  0  0
  5  4  1  0  0  0  0
  7 11  1  0  0  0  0
  8 10  1  6  0  0  0
  8 20  1  0  0  0  0
  9 13  1  0  0  0  0
  9  7  2  0  0  0  0
 11 16  1  0  0  0  0
 11 14  2  0  0  0  0
 12 23  1  1  0  0  0
 13  5  1  0  0  0  0
 14 18  1  0  0  0  0
 15  1  1  0  0  0  0
 16  2  2  0  0  0  0
 17  8  1  0  0  0  0
 17 21  1  0  0  0  0
 18  6  2  0  0  0  0
 20 19  1  1  0  0  0
 20 15  1  0  0  0  0
 21  3  1  0  0  0  0
 23 27  2  0  0  0  0
 23 24  1  0  0  0  0
 24 25  2  0  0  0  0
 25 22  1  0  0  0  0
 26 22  2  0  0  0  0
 27 26  1  0  0  0  0
M  END
>  <MODEL>
9

>  <REMARK>
 VINA RESULT:      -6.9      2.023      5.231
  Name = 
  1 active torsions:
  status: ('A' for Active; 'I' for Inactive)
    1  A    between atoms: C_9  and  C_15
                            x       y       z     vdW  Elec       q    Type
                         _______ _______ _______ _____ _____    ______ ____

>  <TORSDO>
F 1

$$$$
