=
 OpenBabel10272402013D

 28 30  0  0  1  0  0  0  0  0999 V2000
  190.3700  177.2540  139.7080 O   0  0  0  0  0  0  0  0  0  0  0  0
  191.2430  178.0620  142.1750 C   0  0  0  0  0  1  0  0  0  0  0  0
  189.9750  177.2150  142.1180 C   0  0  1  0  0  0  0  0  0  0  0  0
  190.1000  177.6580  136.8460 C   0  0  0  0  0  2  0  0  0  0  0  0
  188.2390  178.9030  142.0210 C   0  0  0  0  0  2  0  0  0  0  0  0
  187.0740  177.9120  140.0170 C   0  0  2  0  0  3  0  0  0  0  0  0
  188.9150  177.9270  142.9690 C   0  0  1  0  0  3  0  0  0  0  0  0
  187.8280  178.3050  137.6060 C   0  0  0  0  0  2  0  0  0  0  0  0
  188.4200  178.3710  140.6010 C   0  0  2  0  0  3  0  0  0  0  0  0
  190.6630  176.3920  137.4870 C   0  0  0  0  0  2  0  0  0  0  0  0
  187.1910  177.3340  138.5910 C   0  0  0  0  0  2  0  0  0  0  0  0
  188.6120  177.5410  136.5570 C   0  0  0  0  0  2  0  0  0  0  0  0
  190.1130  176.1530  138.8860 C   0  0  0  0  0  2  0  0  0  0  0  0
  189.3860  177.1930  140.7040 C   0  0  1  0  0  3  0  0  0  0  0  0
  184.1160  179.5670  139.2670 C   0  0  0  0  0  2  0  0  0  0  0  0
  185.0190  178.4550  141.1070 C   0  0  1  0  0  3  0  0  0  0  0  0
  183.6970  178.8530  140.5230 C   0  0  2  0  0  3  0  0  0  0  0  0
  186.0280  178.9360  140.1700 N   0  0  2  0  0  0  0  0  0  0  0  0
  185.4240  179.1620  138.9660 O   0  0  0  0  0  0  0  0  0  0  0  0
  182.9240  177.6220  140.1780 C   0  0  0  0  0  3  0  0  0  0  0  0
  183.2870  176.9030  139.2600 O   0  0  0  0  0  0  0  0  0  0  0  0
  185.2230  179.1200  142.4590 C   0  0  0  0  0  2  0  0  0  0  0  0
  184.4000  178.4170  143.5210 C   0  0  0  0  0  2  0  0  0  0  0  0
  184.5560  179.1430  144.8410 C   0  0  0  0  0  1  0  0  0  0  0  0
  187.6750  177.2980  144.9730 N   0  0  0  0  0  1  0  0  0  0  0  0
  187.8430  177.0140  143.5590 C   0  0  0  0  0  2  0  0  0  0  0  0
  190.3520  175.8060  142.5940 C   0  0  0  0  0  2  0  0  0  0  0  0
  191.2820  175.8410  143.6380 O   0  0  0  0  0  1  0  0  0  0  0  0
  3  2  1  6  0  0  0
  3 27  1  0  0  0  0
  3  7  1  0  0  0  0
  4 10  1  0  0  0  0
  5  7  1  0  0  0  0
  6 11  1  6  0  0  0
  6 18  1  0  0  0  0
  6  9  1  0  0  0  0
  7 26  1  6  0  0  0
  8 11  1  0  0  0  0
  9 14  1  0  0  0  0
  9  5  1  1  0  0  0
 10 13  1  0  0  0  0
 12  4  1  0  0  0  0
 12  8  1  0  0  0  0
 13  1  1  0  0  0  0
 14  1  1  6  0  0  0
 14  3  1  0  0  0  0
 15 17  1  0  0  0  0
 16 22  1  1  0  0  0
 17 20  1  6  0  0  0
 17 16  1  0  0  0  0
 18 19  1  6  0  0  0
 18 16  1  0  0  0  0
 19 15  1  0  0  0  0
 21 20  2  0  0  0  0
 22 23  1  0  0  0  0
 23 24  1  0  0  0  0
 26 25  1  0  0  0  0
 27 28  1  0  0  0  0
M  END
>  <MODEL>
1

>  <REMARK>
 VINA RESULT:      -6.3      0.000      0.000
  Name = 
  6 active torsions:
  status: ('A' for Active; 'I' for Inactive)
    1  A    between atoms: C_3  and  C_7
    2  A    between atoms: C_9  and  C_14
    3  A    between atoms: C_10  and  N_13
    4  A    between atoms: C_11  and  C_22
    5  A    between atoms: C_12  and  C_15
    6  A    between atoms: C_14  and  C_18
                            x       y       z     vdW  Elec       q    Type
                         _______ _______ _______ _____ _____    ______ ____

>  <TORSDO>
F 6

$$$$
=
 OpenBabel10272402013D

 28 30  0  0  1  0  0  0  0  0999 V2000
  185.8120  178.0930  144.6250 O   0  0  0  0  0  0  0  0  0  0  0  0
  187.3150  176.4510  146.2210 C   0  0  0  0  0  1  0  0  0  0  0  0
  188.0470  177.5360  145.4370 C   0  0  1  0  0  0  0  0  0  0  0  0
  183.5020  178.5820  142.9370 C   0  0  0  0  0  2  0  0  0  0  0  0
  188.6650  176.3670  143.4060 C   0  0  0  0  0  2  0  0  0  0  0  0
  187.7290  178.1130  141.8480 C   0  0  2  0  0  3  0  0  0  0  0  0
  189.2290  176.8630  144.7270 C   0  0  1  0  0  3  0  0  0  0  0  0
  185.2570  178.2610  141.2130 C   0  0  0  0  0  2  0  0  0  0  0  0
  187.4470  177.2240  143.0710 C   0  0  2  0  0  3  0  0  0  0  0  0
  183.9050  179.4600  144.1180 C   0  0  0  0  0  2  0  0  0  0  0  0
  186.5460  179.0290  141.4720 C   0  0  0  0  0  2  0  0  0  0  0  0
  184.0610  179.0990  141.6210 C   0  0  0  0  0  2  0  0  0  0  0  0
  185.4010  179.4090  144.3990 C   0  0  0  0  0  2  0  0  0  0  0  0
  187.1750  178.0840  144.3030 C   0  0  1  0  0  3  0  0  0  0  0  0
  188.0920  177.1610  138.5290 C   0  0  0  0  0  2  0  0  0  0  0  0
  189.4630  178.0210  140.2070 C   0  0  1  0  0  3  0  0  0  0  0  0
  189.3700  177.9320  138.7140 C   0  0  2  0  0  3  0  0  0  0  0  0
  188.2780  177.3430  140.7200 N   0  0  2  0  0  0  0  0  0  0  0  0
  187.3550  177.2720  139.7170 O   0  0  0  0  0  0  0  0  0  0  0  0
  189.2240  179.3070  138.1500 C   0  0  0  0  0  3  0  0  0  0  0  0
  188.4330  179.5210  137.2450 O   0  0  0  0  0  0  0  0  0  0  0  0
  190.7110  177.3080  140.7050 C   0  0  0  0  0  2  0  0  0  0  0  0
  191.6150  176.9540  139.5400 C   0  0  0  0  0  2  0  0  0  0  0  0
  193.0420  177.3340  139.8770 C   0  0  0  0  0  1  0  0  0  0  0  0
  191.5830  177.3380  145.1560 N   0  0  0  0  0  1  0  0  0  0  0  0
  190.4090  177.7830  144.4260 C   0  0  0  0  0  2  0  0  0  0  0  0
  188.4290  178.6350  146.4370 C   0  0  0  0  0  2  0  0  0  0  0  0
  188.8770  178.1020  147.6500 O   0  0  0  0  0  1  0  0  0  0  0  0
  3  2  1  1  0  0  0
  3 27  1  0  0  0  0
  4 10  1  0  0  0  0
  5  7  1  0  0  0  0
  6 11  1  6  0  0  0
  6  9  1  0  0  0  0
  7 26  1  6  0  0  0
  7  3  1  0  0  0  0
  8 11  1  0  0  0  0
  8 12  1  0  0  0  0
  9  5  1  1  0  0  0
  9 14  1  0  0  0  0
 10 13  1  0  0  0  0
 12  4  1  0  0  0  0
 13  1  1  0  0  0  0
 14  1  1  1  0  0  0
 14  3  1  0  0  0  0
 15 17  1  0  0  0  0
 15 19  1  0  0  0  0
 16 22  1  1  0  0  0
 16 18  1  0  0  0  0
 17 20  1  6  0  0  0
 17 16  1  0  0  0  0
 18 19  1  6  0  0  0
 18  6  1  0  0  0  0
 21 20  2  0  0  0  0
 23 24  1  0  0  0  0
 23 22  1  0  0  0  0
 26 25  1  0  0  0  0
 27 28  1  0  0  0  0
M  END
>  <MODEL>
2

>  <REMARK>
 VINA RESULT:      -5.8      2.457      5.746
  Name = 
  6 active torsions:
  status: ('A' for Active; 'I' for Inactive)
    1  A    between atoms: C_3  and  C_7
    2  A    between atoms: C_9  and  C_14
    3  A    between atoms: C_10  and  N_13
    4  A    between atoms: C_11  and  C_22
    5  A    between atoms: C_12  and  C_15
    6  A    between atoms: C_14  and  C_18
                            x       y       z     vdW  Elec       q    Type
                         _______ _______ _______ _____ _____    ______ ____

>  <TORSDO>
F 6

$$$$
=
 OpenBabel10272402013D

 28 30  0  0  1  0  0  0  0  0999 V2000
  184.8730  178.5090  141.4910 O   0  0  0  0  0  0  0  0  0  0  0  0
  183.2690  177.8890  143.6230 C   0  0  0  0  0  1  0  0  0  0  0  0
  184.4510  178.8200  143.8760 C   0  0  1  0  0  0  0  0  0  0  0  0
  186.0850  177.8410  138.9390 C   0  0  0  0  0  2  0  0  0  0  0  0
  186.1870  177.2680  144.5480 C   0  0  0  0  0  2  0  0  0  0  0  0
  187.9060  178.1390  142.9230 C   0  0  2  0  0  3  0  0  0  0  0  0
  185.1990  178.2810  145.1030 C   0  0  1  0  0  3  0  0  0  0  0  0
  188.0040  177.4500  140.4640 C   0  0  0  0  0  2  0  0  0  0  0  0
  186.4630  177.6390  143.0920 C   0  0  2  0  0  3  0  0  0  0  0  0
  185.2940  179.1180  139.2080 C   0  0  0  0  0  2  0  0  0  0  0  0
  188.2430  178.5600  141.4780 C   0  0  0  0  0  2  0  0  0  0  0  0
  187.5800  178.0420  139.1340 C   0  0  0  0  0  2  0  0  0  0  0  0
  185.3420  179.5380  140.6700 C   0  0  0  0  0  2  0  0  0  0  0  0
  185.4710  178.7450  142.7360 C   0  0  1  0  0  3  0  0  0  0  0  0
  190.4620  175.7890  142.9480 C   0  0  0  0  0  2  0  0  0  0  0  0
  190.1250  177.9390  143.7860 C   0  0  1  0  0  3  0  0  0  0  0  0
  191.2290  177.0040  143.3930 C   0  0  2  0  0  3  0  0  0  0  0  0
  188.8840  177.2190  143.5270 N   0  0  2  0  0  0  0  0  0  0  0  0
  189.1520  176.1970  142.6620 O   0  0  0  0  0  0  0  0  0  0  0  0
  191.9760  177.5870  142.2380 C   0  0  0  0  0  3  0  0  0  0  0  0
  191.5570  177.4500  141.1000 O   0  0  0  0  0  0  0  0  0  0  0  0
  190.2170  178.2760  145.2660 C   0  0  0  0  0  2  0  0  0  0  0  0
  189.5730  177.1830  146.0970 C   0  0  0  0  0  2  0  0  0  0  0  0
  188.9830  177.7880  147.3530 C   0  0  0  0  0  1  0  0  0  0  0  0
  185.6090  179.2670  147.2950 N   0  0  0  0  0  1  0  0  0  0  0  0
  185.9810  179.3270  145.8930 C   0  0  0  0  0  2  0  0  0  0  0  0
  183.8830  180.2370  144.0320 C   0  0  0  0  0  2  0  0  0  0  0  0
  182.5210  180.2890  143.7220 O   0  0  0  0  0  1  0  0  0  0  0  0
  3  2  1  6  0  0  0
  3 27  1  0  0  0  0
  3  7  1  0  0  0  0
  4 12  1  0  0  0  0
  4 10  1  0  0  0  0
  5  7  1  0  0  0  0
  6 11  1  6  0  0  0
  6  9  1  0  0  0  0
  6 18  1  0  0  0  0
  7 26  1  6  0  0  0
  8 11  1  0  0  0  0
  9  5  1  1  0  0  0
 10 13  1  0  0  0  0
 12  8  1  0  0  0  0
 13  1  1  0  0  0  0
 14  1  1  6  0  0  0
 14  9  1  0  0  0  0
 14  3  1  0  0  0  0
 15 17  1  0  0  0  0
 16 22  1  1  0  0  0
 17 20  1  6  0  0  0
 17 16  1  0  0  0  0
 18 19  1  6  0  0  0
 18 16  1  0  0  0  0
 19 15  1  0  0  0  0
 21 20  2  0  0  0  0
 22 23  1  0  0  0  0
 23 24  1  0  0  0  0
 26 25  1  0  0  0  0
 28 27  1  0  0  0  0
M  END
>  <MODEL>
3

>  <REMARK>
 VINA RESULT:      -5.6      2.129      5.995
  Name = 
  6 active torsions:
  status: ('A' for Active; 'I' for Inactive)
    1  A    between atoms: C_3  and  C_7
    2  A    between atoms: C_9  and  C_14
    3  A    between atoms: C_10  and  N_13
    4  A    between atoms: C_11  and  C_22
    5  A    between atoms: C_12  and  C_15
    6  A    between atoms: C_14  and  C_18
                            x       y       z     vdW  Elec       q    Type
                         _______ _______ _______ _____ _____    ______ ____

>  <TORSDO>
F 6

$$$$
=
 OpenBabel10272402013D

 28 30  0  0  1  0  0  0  0  0999 V2000
  187.2610  178.5320  144.1430 O   0  0  0  0  0  0  0  0  0  0  0  0
  185.0510  180.1440  144.0050 C   0  0  0  0  0  1  0  0  0  0  0  0
  185.0060  178.8180  143.2500 C   0  0  1  0  0  0  0  0  0  0  0  0
  190.1280  178.1630  144.4060 C   0  0  0  0  0  2  0  0  0  0  0  0
  185.7880  179.4590  141.0470 C   0  0  0  0  0  2  0  0  0  0  0  0
  187.5390  177.6520  140.8970 C   0  0  2  0  0  3  0  0  0  0  0  0
  184.5270  179.1230  141.8250 C   0  0  1  0  0  3  0  0  0  0  0  0
  189.8560  177.8360  141.9610 C   0  0  0  0  0  2  0  0  0  0  0  0
  186.9620  178.7880  141.7570 C   0  0  2  0  0  3  0  0  0  0  0  0
  189.0870  177.4610  145.2740 C   0  0  0  0  0  2  0  0  0  0  0  0
  188.7120  176.9100  141.5700 C   0  0  0  0  0  2  0  0  0  0  0  0
  190.5410  177.3180  143.2100 C   0  0  0  0  0  2  0  0  0  0  0  0
  187.7520  177.2930  144.5620 C   0  0  0  0  0  2  0  0  0  0  0  0
  186.4110  178.2350  143.0700 C   0  0  1  0  0  3  0  0  0  0  0  0
  189.4510  178.8870  138.2750 C   0  0  0  0  0  2  0  0  0  0  0  0
  188.2500  176.9410  138.7300 C   0  0  1  0  0  3  0  0  0  0  0  0
  189.3770  177.4390  137.8770 C   0  0  2  0  0  3  0  0  0  0  0  0
  187.8120  178.0870  139.5180 N   0  0  2  0  0  0  0  0  0  0  0  0
  188.8120  179.0170  139.5160 O   0  0  0  0  0  0  0  0  0  0  0  0
  190.6350  176.7360  138.2680 C   0  0  0  0  0  3  0  0  0  0  0  0
  190.5890  175.7220  138.9470 O   0  0  0  0  0  0  0  0  0  0  0  0
  187.1010  176.4530  137.8610 C   0  0  0  0  0  2  0  0  0  0  0  0
  186.2450  177.6230  137.4140 C   0  0  0  0  0  2  0  0  0  0  0  0
  184.7850  177.2920  137.6390 C   0  0  0  0  0  1  0  0  0  0  0  0
  182.4500  178.3260  140.8250 N   0  0  0  0  0  1  0  0  0  0  0  0
  183.8250  177.9660  141.1190 C   0  0  0  0  0  2  0  0  0  0  0  0
  184.1010  177.8730  144.0520 C   0  0  0  0  0  2  0  0  0  0  0  0
  183.0670  178.5630  144.6930 O   0  0  0  0  0  1  0  0  0  0  0  0
  1 13  1  0  0  0  0
  3  2  1  1  0  0  0
  3 27  1  0  0  0  0
  4 10  1  0  0  0  0
  5  7  1  0  0  0  0
  6 11  1  1  0  0  0
  6  9  1  0  0  0  0
  7 26  1  6  0  0  0
  7  3  1  0  0  0  0
  8 12  1  0  0  0  0
  9  5  1  6  0  0  0
  9 14  1  0  0  0  0
 11  8  1  0  0  0  0
 12  4  1  0  0  0  0
 13 10  1  0  0  0  0
 14  3  1  0  0  0  0
 14  1  1  1  0  0  0
 15 19  1  0  0  0  0
 16 22  1  6  0  0  0
 16 18  1  0  0  0  0
 17 20  1  1  0  0  0
 17 15  1  0  0  0  0
 17 16  1  0  0  0  0
 18 19  1  1  0  0  0
 18  6  1  0  0  0  0
 20 21  2  0  0  0  0
 23 24  1  0  0  0  0
 23 22  1  0  0  0  0
 25 26  1  0  0  0  0
 27 28  1  0  0  0  0
M  END
>  <MODEL>
4

>  <REMARK>
 VINA RESULT:      -5.6      2.247      5.798
  Name = 
  6 active torsions:
  status: ('A' for Active; 'I' for Inactive)
    1  A    between atoms: C_3  and  C_7
    2  A    between atoms: C_9  and  C_14
    3  A    between atoms: C_10  and  N_13
    4  A    between atoms: C_11  and  C_22
    5  A    between atoms: C_12  and  C_15
    6  A    between atoms: C_14  and  C_18
                            x       y       z     vdW  Elec       q    Type
                         _______ _______ _______ _____ _____    ______ ____

>  <TORSDO>
F 6

$$$$
=
 OpenBabel10272402013D

 28 30  0  0  1  0  0  0  0  0999 V2000
  186.0510  178.4170  138.4340 O   0  0  0  0  0  0  0  0  0  0  0  0
  188.7110  179.0070  138.1630 C   0  0  0  0  0  1  0  0  0  0  0  0
  188.3320  177.8840  139.1240 C   0  0  1  0  0  0  0  0  0  0  0  0
  183.2550  179.2000  138.4160 C   0  0  0  0  0  2  0  0  0  0  0  0
  188.1380  179.0630  141.2330 C   0  0  0  0  0  2  0  0  0  0  0  0
  185.8570  178.1480  141.7920 C   0  0  2  0  0  3  0  0  0  0  0  0
  189.0650  178.1520  140.4460 C   0  0  1  0  0  3  0  0  0  0  0  0
  183.6800  179.1090  140.8600 C   0  0  0  0  0  2  0  0  0  0  0  0
  186.7180  178.8350  140.7200 C   0  0  2  0  0  3  0  0  0  0  0  0
  183.8270  178.0340  137.6150 C   0  0  0  0  0  2  0  0  0  0  0  0
  184.4150  177.8610  141.3280 C   0  0  0  0  0  2  0  0  0  0  0  0
  182.6990  178.7550  139.7600 C   0  0  0  0  0  2  0  0  0  0  0  0
  185.0700  177.4370  138.2600 C   0  0  0  0  0  2  0  0  0  0  0  0
  186.8450  177.9430  139.4870 C   0  0  1  0  0  3  0  0  0  0  0  0
  184.8490  180.2870  144.3350 C   0  0  0  0  0  2  0  0  0  0  0  0
  185.3010  178.0110  144.1120 C   0  0  1  0  0  3  0  0  0  0  0  0
  184.5290  178.9630  144.9730 C   0  0  2  0  0  3  0  0  0  0  0  0
  185.9480  178.8300  143.0940 N   0  0  2  0  0  0  0  0  0  0  0  0
  185.2990  180.0300  143.0320 O   0  0  0  0  0  0  0  0  0  0  0  0
  183.0700  178.6710  144.8410 C   0  0  0  0  0  3  0  0  0  0  0  0
  182.3990  179.2520  144.0030 O   0  0  0  0  0  0  0  0  0  0  0  0
  186.3600  177.2910  144.9330 C   0  0  0  0  0  2  0  0  0  0  0  0
  187.7150  177.9400  144.7300 C   0  0  0  0  0  2  0  0  0  0  0  0
  188.6430  177.5280  145.8530 C   0  0  0  0  0  1  0  0  0  0  0  0
  190.7770  176.7110  141.4160 N   0  0  0  0  0  1  0  0  0  0  0  0
  189.3440  176.9110  141.2900 C   0  0  0  0  0  2  0  0  0  0  0  0
  188.6930  176.5610  138.4360 C   0  0  0  0  0  2  0  0  0  0  0  0
  188.6920  176.6810  137.0430 O   0  0  0  0  0  1  0  0  0  0  0  0
  3  2  1  6  0  0  0
  3 14  1  0  0  0  0
  3  7  1  0  0  0  0
  4 12  1  0  0  0  0
  6 11  1  6  0  0  0
  6 18  1  0  0  0  0
  7  5  1  0  0  0  0
  7 26  1  1  0  0  0
  8 11  1  0  0  0  0
  9  5  1  1  0  0  0
  9  6  1  0  0  0  0
 10 13  1  0  0  0  0
 10  4  1  0  0  0  0
 12  8  1  0  0  0  0
 13  1  1  0  0  0  0
 14  1  1  6  0  0  0
 14  9  1  0  0  0  0
 15 17  1  0  0  0  0
 16 22  1  1  0  0  0
 16 17  1  0  0  0  0
 17 20  1  6  0  0  0
 18 19  1  6  0  0  0
 18 16  1  0  0  0  0
 19 15  1  0  0  0  0
 21 20  2  0  0  0  0
 23 22  1  0  0  0  0
 23 24  1  0  0  0  0
 26 25  1  0  0  0  0
 27  3  1  0  0  0  0
 28 27  1  0  0  0  0
M  END
>  <MODEL>
5

>  <REMARK>
 VINA RESULT:      -5.6      2.210      4.548
  Name = 
  6 active torsions:
  status: ('A' for Active; 'I' for Inactive)
    1  A    between atoms: C_3  and  C_7
    2  A    between atoms: C_9  and  C_14
    3  A    between atoms: C_10  and  N_13
    4  A    between atoms: C_11  and  C_22
    5  A    between atoms: C_12  and  C_15
    6  A    between atoms: C_14  and  C_18
                            x       y       z     vdW  Elec       q    Type
                         _______ _______ _______ _____ _____    ______ ____

>  <TORSDO>
F 6

$$$$
=
 OpenBabel10272402013D

 28 30  0  0  1  0  0  0  0  0999 V2000
  186.9170  178.4590  138.8980 O   0  0  0  0  0  0  0  0  0  0  0  0
  188.8080  178.8360  136.9530 C   0  0  0  0  0  1  0  0  0  0  0  0
  188.8390  177.5180  137.7220 C   0  0  1  0  0  0  0  0  0  0  0  0
  185.1290  179.4860  140.9420 C   0  0  0  0  0  2  0  0  0  0  0  0
  190.3840  178.0150  139.5220 C   0  0  0  0  0  2  0  0  0  0  0  0
  188.8570  177.2060  141.3570 C   0  0  2  0  0  3  0  0  0  0  0  0
  190.2850  177.2980  138.1870 C   0  0  1  0  0  3  0  0  0  0  0  0
  186.9740  178.6160  142.3550 C   0  0  0  0  0  2  0  0  0  0  0  0
  188.9770  178.0960  140.1100 C   0  0  2  0  0  3  0  0  0  0  0  0
  184.6960  178.5660  139.8030 C   0  0  0  0  0  2  0  0  0  0  0  0
  187.4490  177.2180  141.9860 C   0  0  0  0  0  2  0  0  0  0  0  0
  185.4680  178.7120  142.2060 C   0  0  0  0  0  2  0  0  0  0  0  0
  185.8300  177.6810  139.3050 C   0  0  0  0  0  2  0  0  0  0  0  0
  188.0260  177.6120  139.0170 C   0  0  1  0  0  3  0  0  0  0  0  0
  190.4380  178.7160  144.0550 C   0  0  0  0  0  2  0  0  0  0  0  0
  189.7900  176.5570  143.4600 C   0  0  1  0  0  3  0  0  0  0  0  0
  190.1020  177.3850  144.6690 C   0  0  2  0  0  3  0  0  0  0  0  0
  189.9480  177.4490  142.3160 N   0  0  2  0  0  0  0  0  0  0  0  0
  189.8900  178.7370  142.7640 O   0  0  0  0  0  0  0  0  0  0  0  0
  188.8740  177.5060  145.5100 C   0  0  0  0  0  3  0  0  0  0  0  0
  188.8120  176.9490  146.5940 O   0  0  0  0  0  0  0  0  0  0  0  0
  190.7690  175.4000  143.3410 C   0  0  0  0  0  2  0  0  0  0  0  0
  191.8980  175.5600  144.3410 C   0  0  0  0  0  2  0  0  0  0  0  0
  192.2910  174.2000  144.8770 C   0  0  0  0  0  1  0  0  0  0  0  0
  191.8790  175.5340  137.6400 N   0  0  0  0  0  1  0  0  0  0  0  0
  190.6790  175.8380  138.3990 C   0  0  0  0  0  2  0  0  0  0  0  0
  188.2850  176.4360  136.7860 C   0  0  0  0  0  2  0  0  0  0  0  0
  187.3930  176.9670  135.8480 O   0  0  0  0  0  1  0  0  0  0  0  0
  1 13  1  0  0  0  0
  3  2  1  6  0  0  0
  3  7  1  0  0  0  0
  3 14  1  0  0  0  0
  4 12  1  0  0  0  0
  6 11  1  1  0  0  0
  6 18  1  0  0  0  0
  7 26  1  1  0  0  0
  7  5  1  0  0  0  0
  9  5  1  6  0  0  0
  9  6  1  0  0  0  0
 10  4  1  0  0  0  0
 11  8  1  0  0  0  0
 12  8  1  0  0  0  0
 13 10  1  0  0  0  0
 14  1  1  6  0  0  0
 14  9  1  0  0  0  0
 15 17  1  0  0  0  0
 16 22  1  6  0  0  0
 16 17  1  0  0  0  0
 17 20  1  1  0  0  0
 18 19  1  1  0  0  0
 18 16  1  0  0  0  0
 19 15  1  0  0  0  0
 20 21  2  0  0  0  0
 22 23  1  0  0  0  0
 23 24  1  0  0  0  0
 25 26  1  0  0  0  0
 27  3  1  0  0  0  0
 28 27  1  0  0  0  0
M  END
>  <MODEL>
6

>  <REMARK>
 VINA RESULT:      -5.6      2.447      6.232
  Name = 
  6 active torsions:
  status: ('A' for Active; 'I' for Inactive)
    1  A    between atoms: C_3  and  C_7
    2  A    between atoms: C_9  and  C_14
    3  A    between atoms: C_10  and  N_13
    4  A    between atoms: C_11  and  C_22
    5  A    between atoms: C_12  and  C_15
    6  A    between atoms: C_14  and  C_18
                            x       y       z     vdW  Elec       q    Type
                         _______ _______ _______ _____ _____    ______ ____

>  <TORSDO>
F 6

$$$$
=
 OpenBabel10272402013D

 28 30  0  0  1  0  0  0  0  0999 V2000
  189.7230  177.7620  139.5470 O   0  0  0  0  0  0  0  0  0  0  0  0
  190.5020  178.4210  142.0890 C   0  0  0  0  0  1  0  0  0  0  0  0
  189.3370  177.4480  141.9380 C   0  0  1  0  0  0  0  0  0  0  0  0
  189.4080  178.4080  136.7350 C   0  0  0  0  0  2  0  0  0  0  0  0
  187.4230  178.9340  141.9860 C   0  0  0  0  0  2  0  0  0  0  0  0
  186.3750  178.0170  139.8850 C   0  0  2  0  0  3  0  0  0  0  0  0
  188.2040  177.9520  142.8430 C   0  0  1  0  0  3  0  0  0  0  0  0
  187.0780  178.7210  137.5300 C   0  0  0  0  0  2  0  0  0  0  0  0
  187.6620  178.5650  140.5230 C   0  0  2  0  0  3  0  0  0  0  0  0
  190.1090  177.1570  137.2570 C   0  0  0  0  0  2  0  0  0  0  0  0
  186.5540  177.5960  138.4110 C   0  0  0  0  0  2  0  0  0  0  0  0
  187.9420  178.1550  136.4200 C   0  0  0  0  0  2  0  0  0  0  0  0
  189.5910  176.7240  138.6210 C   0  0  0  0  0  2  0  0  0  0  0  0
  188.7530  177.4970  140.5230 C   0  0  1  0  0  3  0  0  0  0  0  0
  183.7090  180.0660  139.0190 C   0  0  0  0  0  2  0  0  0  0  0  0
  184.0110  178.0910  140.2200 C   0  0  1  0  0  3  0  0  0  0  0  0
  182.9560  178.8440  139.4670 C   0  0  2  0  0  3  0  0  0  0  0  0
  185.2210  178.8990  140.1240 N   0  0  2  0  0  0  0  0  0  0  0  0
  185.0770  179.7660  139.0790 O   0  0  0  0  0  0  0  0  0  0  0  0
  182.5330  178.0410  138.2810 C   0  0  0  0  0  3  0  0  0  0  0  0
  183.3680  177.5520  137.5380 O   0  0  0  0  0  0  0  0  0  0  0  0
  183.6150  177.9390  141.6800 C   0  0  0  0  0  2  0  0  0  0  0  0
  184.1400  179.1070  142.4920 C   0  0  0  0  0  2  0  0  0  0  0  0
  183.7330  178.9360  143.9400 C   0  0  0  0  0  1  0  0  0  0  0  0
  186.8640  177.1340  144.7090 N   0  0  0  0  0  1  0  0  0  0  0  0
  187.2410  176.8740  143.3320 C   0  0  0  0  0  2  0  0  0  0  0  0
  189.8690  176.0500  142.2810 C   0  0  0  0  0  2  0  0  0  0  0  0
  190.7200  176.0750  143.3910 O   0  0  0  0  0  1  0  0  0  0  0  0
  3  2  1  1  0  0  0
  3 27  1  0  0  0  0
  3  7  1  0  0  0  0
  4 10  1  0  0  0  0
  5  7  1  0  0  0  0
  6 11  1  6  0  0  0
  6 18  1  0  0  0  0
  6  9  1  0  0  0  0
  7 26  1  6  0  0  0
  8 11  1  0  0  0  0
  9 14  1  0  0  0  0
  9  5  1  1  0  0  0
 10 13  1  0  0  0  0
 12  4  1  0  0  0  0
 12  8  1  0  0  0  0
 13  1  1  0  0  0  0
 14  1  1  6  0  0  0
 14  3  1  0  0  0  0
 15 19  1  0  0  0  0
 15 17  1  0  0  0  0
 16 22  1  1  0  0  0
 17 20  1  6  0  0  0
 17 16  1  0  0  0  0
 18 19  1  6  0  0  0
 18 16  1  0  0  0  0
 21 20  2  0  0  0  0
 22 23  1  0  0  0  0
 23 24  1  0  0  0  0
 26 25  1  0  0  0  0
 27 28  1  0  0  0  0
M  END
>  <MODEL>
7

>  <REMARK>
 VINA RESULT:      -5.5      0.975      1.065
  Name = 
  6 active torsions:
  status: ('A' for Active; 'I' for Inactive)
    1  A    between atoms: C_3  and  C_7
    2  A    between atoms: C_9  and  C_14
    3  A    between atoms: C_10  and  N_13
    4  A    between atoms: C_11  and  C_22
    5  A    between atoms: C_12  and  C_15
    6  A    between atoms: C_14  and  C_18
                            x       y       z     vdW  Elec       q    Type
                         _______ _______ _______ _____ _____    ______ ____

>  <TORSDO>
F 6

$$$$
=
 OpenBabel10272402013D

 28 30  0  0  1  0  0  0  0  0999 V2000
  187.1950  178.0050  145.5730 O   0  0  0  0  0  0  0  0  0  0  0  0
  189.4080  176.4840  145.0330 C   0  0  0  0  0  1  0  0  0  0  0  0
  189.1530  177.6990  144.1460 C   0  0  1  0  0  0  0  0  0  0  0  0
  184.4760  178.2840  146.5530 C   0  0  0  0  0  2  0  0  0  0  0  0
  187.8730  176.7400  142.3250 C   0  0  0  0  0  2  0  0  0  0  0  0
  186.0120  178.4360  142.4420 C   0  0  2  0  0  3  0  0  0  0  0  0
  189.2650  177.2290  142.6900 C   0  0  1  0  0  3  0  0  0  0  0  0
  184.0750  178.2970  144.1030 C   0  0  0  0  0  2  0  0  0  0  0  0
  186.8780  177.4490  143.2410 C   0  0  2  0  0  3  0  0  0  0  0  0
  185.6520  179.1380  147.0210 C   0  0  0  0  0  2  0  0  0  0  0  0
  185.0030  179.2100  143.3150 C   0  0  0  0  0  2  0  0  0  0  0  0
  183.7020  178.9450  145.4230 C   0  0  0  0  0  2  0  0  0  0  0  0
  186.7380  179.2670  145.9620 C   0  0  0  0  0  2  0  0  0  0  0  0
  187.7100  178.1940  144.2840 C   0  0  1  0  0  3  0  0  0  0  0  0
  183.4890  177.6260  140.1990 C   0  0  0  0  0  2  0  0  0  0  0  0
  185.5440  178.7250  140.1170 C   0  0  1  0  0  3  0  0  0  0  0  0
  184.2410  178.6400  139.3810 C   0  0  2  0  0  3  0  0  0  0  0  0
  185.4220  177.8110  141.2470 N   0  0  2  0  0  0  0  0  0  0  0  0
  184.0960  177.5660  141.4610 O   0  0  0  0  0  0  0  0  0  0  0  0
  183.5530  179.9640  139.4500 C   0  0  0  0  0  3  0  0  0  0  0  0
  183.9870  180.9180  138.8260 O   0  0  0  0  0  0  0  0  0  0  0  0
  186.6890  178.2780  139.2230 C   0  0  0  0  0  2  0  0  0  0  0  0
  186.2270  178.1850  137.7810 C   0  0  0  0  0  2  0  0  0  0  0  0
  187.4160  178.3570  136.8600 C   0  0  0  0  0  1  0  0  0  0  0  0
  190.0760  177.7030  140.4390 N   0  0  0  0  0  1  0  0  0  0  0  0
  189.6670  178.3120  141.6920 C   0  0  0  0  0  2  0  0  0  0  0  0
  190.1610  178.7790  144.5600 C   0  0  0  0  0  2  0  0  0  0  0  0
  191.4500  178.2570  144.7110 O   0  0  0  0  0  1  0  0  0  0  0  0
  1 13  1  0  0  0  0
  3 14  1  0  0  0  0
  3 27  1  0  0  0  0
  3  2  1  1  0  0  0
  4 10  1  0  0  0  0
  5  7  1  0  0  0  0
  6  9  1  0  0  0  0
  6 11  1  1  0  0  0
  7 26  1  6  0  0  0
  7  3  1  0  0  0  0
  8 12  1  0  0  0  0
  9  5  1  6  0  0  0
  9 14  1  0  0  0  0
 11  8  1  0  0  0  0
 12  4  1  0  0  0  0
 13 10  1  0  0  0  0
 14  1  1  1  0  0  0
 15 19  1  0  0  0  0
 16 22  1  6  0  0  0
 16 18  1  0  0  0  0
 17 20  1  1  0  0  0
 17 16  1  0  0  0  0
 17 15  1  0  0  0  0
 18 19  1  1  0  0  0
 18  6  1  0  0  0  0
 21 20  2  0  0  0  0
 23 22  1  0  0  0  0
 24 23  1  0  0  0  0
 25 26  1  0  0  0  0
 27 28  1  0  0  0  0
M  END
>  <MODEL>
8

>  <REMARK>
 VINA RESULT:      -5.2      2.158      5.470
  Name = 
  6 active torsions:
  status: ('A' for Active; 'I' for Inactive)
    1  A    between atoms: C_3  and  C_7
    2  A    between atoms: C_9  and  C_14
    3  A    between atoms: C_10  and  N_13
    4  A    between atoms: C_11  and  C_22
    5  A    between atoms: C_12  and  C_15
    6  A    between atoms: C_14  and  C_18
                            x       y       z     vdW  Elec       q    Type
                         _______ _______ _______ _____ _____    ______ ____

>  <TORSDO>
F 6

$$$$
=
 OpenBabel10272402013D

 28 30  0  0  1  0  0  0  0  0999 V2000
  188.6430  174.0530  135.7170 O   0  0  0  0  0  0  0  0  0  0  0  0
  190.3880  175.8680  134.6390 C   0  0  0  0  0  1  0  0  0  0  0  0
  189.8480  176.1530  136.0370 C   0  0  1  0  0  0  0  0  0  0  0  0
  186.5610  172.0490  135.4390 C   0  0  0  0  0  2  0  0  0  0  0  0
  187.9050  177.5230  135.5630 C   0  0  0  0  0  2  0  0  0  0  0  0
  186.3200  176.1570  136.9680 C   0  0  2  0  0  3  0  0  0  0  0  0
  189.3450  177.6030  136.0420 C   0  0  1  0  0  3  0  0  0  0  0  0
  185.2100  174.0030  136.1560 C   0  0  0  0  0  2  0  0  0  0  0  0
  187.3930  176.1170  135.8680 C   0  0  2  0  0  3  0  0  0  0  0  0
  187.8600  171.8390  136.2140 C   0  0  0  0  0  2  0  0  0  0  0  0
  185.7790  174.7630  137.3460 C   0  0  0  0  0  2  0  0  0  0  0  0
  185.4260  172.5130  136.3380 C   0  0  0  0  0  2  0  0  0  0  0  0
  188.4330  173.1410  136.7550 C   0  0  0  0  0  2  0  0  0  0  0  0
  188.6030  175.3110  136.3330 C   0  0  1  0  0  3  0  0  0  0  0  0
  183.1660  177.2760  136.0430 C   0  0  0  0  0  2  0  0  0  0  0  0
  184.5480  177.4520  137.9120 C   0  0  1  0  0  3  0  0  0  0  0  0
  183.1030  177.5320  137.5240 C   0  0  2  0  0  3  0  0  0  0  0  0
  185.2740  177.1540  136.6830 N   0  0  2  0  0  0  0  0  0  0  0  0
  184.3900  176.6480  135.7740 O   0  0  0  0  0  0  0  0  0  0  0  0
  182.3520  176.4320  138.2000 C   0  0  0  0  0  3  0  0  0  0  0  0
  182.9010  175.7360  139.0400 O   0  0  0  0  0  0  0  0  0  0  0  0
  185.0220  178.7840  138.4710 C   0  0  0  0  0  2  0  0  0  0  0  0
  184.2030  179.1650  139.6900 C   0  0  0  0  0  2  0  0  0  0  0  0
  185.0790  179.1040  140.9230 C   0  0  0  0  0  1  0  0  0  0  0  0
  188.6140  179.5310  137.3460 N   0  0  0  0  0  1  0  0  0  0  0  0
  189.3560  178.2840  137.4080 C   0  0  0  0  0  2  0  0  0  0  0  0
  190.9810  175.8540  137.0270 C   0  0  0  0  0  2  0  0  0  0  0  0
  190.5030  175.2610  138.2000 O   0  0  0  0  0  1  0  0  0  0  0  0
  1 13  1  0  0  0  0
  3  2  1  6  0  0  0
  3  7  1  0  0  0  0
  3 14  1  0  0  0  0
  3 27  1  0  0  0  0
  4 10  1  0  0  0  0
  4 12  1  0  0  0  0
  5  7  1  0  0  0  0
  6 11  1  6  0  0  0
  7 26  1  1  0  0  0
  8 12  1  0  0  0  0
  8 11  1  0  0  0  0
  9  5  1  1  0  0  0
  9 14  1  0  0  0  0
  9  6  1  0  0  0  0
 10 13  1  0  0  0  0
 14  1  1  6  0  0  0
 15 17  1  0  0  0  0
 16 22  1  6  0  0  0
 17 16  1  0  0  0  0
 17 20  1  1  0  0  0
 18 19  1  6  0  0  0
 18  6  1  0  0  0  0
 18 16  1  0  0  0  0
 19 15  1  0  0  0  0
 20 21  2  0  0  0  0
 22 23  1  0  0  0  0
 23 24  1  0  0  0  0
 25 26  1  0  0  0  0
 27 28  1  0  0  0  0
M  END
>  <MODEL>
9

>  <REMARK>
 VINA RESULT:      -5.2      3.495      5.163
  Name = 
  6 active torsions:
  status: ('A' for Active; 'I' for Inactive)
    1  A    between atoms: C_3  and  C_7
    2  A    between atoms: C_9  and  C_14
    3  A    between atoms: C_10  and  N_13
    4  A    between atoms: C_11  and  C_22
    5  A    between atoms: C_12  and  C_15
    6  A    between atoms: C_14  and  C_18
                            x       y       z     vdW  Elec       q    Type
                         _______ _______ _______ _____ _____    ______ ____

>  <TORSDO>
F 6

$$$$
