=
 OpenBabel10272413383D

 32 39  0  0  1  0  0  0  0  0999 V2000
  186.6130  178.7380  142.5340 C   0  0  2  0  0  3  0  0  0  0  0  0
  186.6220  178.2800  146.3630 C   0  0  0  0  0  3  0  0  0  0  0  0
  185.2300  178.1810  146.5540 C   0  0  0  0  0  3  0  0  0  0  0  0
  184.8450  179.0060  140.6080 C   0  0  1  0  0  3  0  0  0  0  0  0
  183.4690  178.9900  140.3490 C   0  0  0  0  0  0  0  0  0  0  0  0
  181.2760  178.9450  140.8260 N   0  0  0  0  0  0  0  0  0  0  0  0
  187.1560  178.4530  145.0750 C   0  0  0  0  0  3  0  0  0  0  0  0
  186.2750  178.5120  143.9920 C   0  0  0  0  0  0  0  0  0  0  0  0
  184.2610  178.5650  142.9140 C   0  0  0  0  0  0  0  0  0  0  0  0
  181.3010  179.1800  139.4770 O   0  0  0  0  0  0  0  0  0  0  0  0
  182.6840  179.3230  139.1330 C   0  0  0  0  0  3  0  0  0  0  0  0
  184.3540  178.2540  145.4590 C   0  0  0  0  0  3  0  0  0  0  0  0
  184.9090  178.4170  144.1920 C   0  0  0  0  0  0  0  0  0  0  0  0
  182.9260  178.5930  142.6390 N   0  0  0  0  0  0  0  0  0  0  0  0
  185.7730  179.2650  139.6070 O   0  0  0  0  0  1  0  0  0  0  0  0
  179.9830  179.5520  141.8190 Cl  0  0  0  0  0  0  0  0  0  0  0  0
  185.2320  178.7610  141.9340 C   0  0  0  0  0  0  0  0  0  0  0  0
  182.5730  178.7790  141.3350 C   0  0  0  0  0  0  0  0  0  0  0  0
  189.4470  176.1810  142.8100 C   0  0  2  0  0  3  0  0  0  0  0  0
  188.5820  178.1890  141.0460 C   0  0  0  0  0  2  0  0  0  0  0  0
  189.4670  177.0740  140.5840 C   0  0  0  0  0  3  0  0  0  0  0  0
  187.4740  177.6160  141.9320 C   0  0  1  0  0  3  0  0  0  0  0  0
  189.8440  176.1610  141.4130 N   0  0  0  0  0  0  0  0  0  0  0  0
  187.9730  176.5910  142.9780 C   0  0  0  0  0  2  0  0  0  0  0  0
  190.9110  176.2810  147.8670 C   0  0  0  0  0  2  0  0  0  0  0  0
  191.6410  176.6750  143.5620 O   0  0  0  0  0  0  0  0  0  0  0  0
  191.9920  176.8630  145.7760 C   0  0  2  0  0  3  0  0  0  0  0  0
  189.8910  176.9330  146.9650 C   0  0  0  0  0  2  0  0  0  0  0  0
  190.9400  176.3770  144.7640 C   0  0  2  0  0  0  0  0  0  0  0  0
  192.0520  175.9070  146.9540 C   0  0  0  0  0  2  0  0  0  0  0  0
  190.3410  177.1200  143.6060 C   0  0  2  0  0  3  0  0  0  0  0  0
  190.6610  177.4960  145.7820 C   0  0  2  0  0  3  0  0  0  0  0  0
  1 17  1  6  0  0  0
  1  8  1  0  0  0  0
  2  3  1  0  0  0  0
  4 15  1  1  0  0  0
  4 17  1  0  0  0  0
  5  4  1  0  0  0  0
  5 18  1  0  0  0  0
  6 18  1  0  0  0  0
  6 16  1  0  0  0  0
  7  2  2  0  0  0  0
  8 13  2  0  0  0  0
  8  7  1  0  0  0  0
  9 13  1  0  0  0  0
 10  6  1  0  0  0  0
 11 10  1  0  0  0  0
 11  5  2  0  0  0  0
 12  3  2  0  0  0  0
 13 12  1  0  0  0  0
 14  9  1  0  0  0  0
 17  9  2  0  0  0  0
 18 14  2  0  0  0  0
 19 24  1  6  0  0  0
 19 31  1  0  0  0  0
 21 20  1  0  0  0  0
 21 23  2  0  0  0  0
 22 20  1  1  0  0  0
 22  1  1  0  0  0  0
 22 24  1  0  0  0  0
 23 19  1  0  0  0  0
 27 32  1  0  0  0  0
 27 30  1  1  0  0  0
 28 25  1  0  0  0  0
 29 26  1  6  0  0  0
 29 27  1  0  0  0  0
 29 32  1  0  0  0  0
 30 25  1  0  0  0  0
 31 26  1  6  0  0  0
 31 29  1  0  0  0  0
 32 28  1  1  0  0  0
M  END
>  <MODEL>
1

>  <REMARK>
 VINA RESULT:     -10.1      0.000      0.000
  Name = 
  2 active torsions:
  status: ('A' for Active; 'I' for Inactive)
    1  A    between atoms: C_3  and  C_14
    2  A    between atoms: C_8  and  C_23
                            x       y       z     vdW  Elec       q    Type
                         _______ _______ _______ _____ _____    ______ ____

>  <TORSDO>
F 2

$$$$
=
 OpenBabel10272413383D

 32 39  0  0  1  0  0  0  0  0999 V2000
  189.6920  178.0650  140.9560 C   0  0  2  0  0  3  0  0  0  0  0  0
  185.9290  178.8750  140.7080 C   0  0  0  0  0  3  0  0  0  0  0  0
  185.7150  178.4210  139.3910 C   0  0  0  0  0  3  0  0  0  0  0  0
  191.5950  177.1530  139.3890 C   0  0  0  0  0  0  0  0  0  0  0  0
  191.8330  176.6360  138.1110 C   0  0  0  0  0  0  0  0  0  0  0  0
  191.3670  176.0780  135.9870 N   0  0  0  0  0  0  0  0  0  0  0  0
  187.2020  178.7820  141.2970 C   0  0  0  0  0  3  0  0  0  0  0  0
  188.2410  178.2220  140.5510 C   0  0  0  0  0  0  0  0  0  0  0  0
  189.2740  177.3120  138.7280 C   0  0  0  0  0  0  0  0  0  0  0  0
  192.7170  175.8670  136.0800 O   0  0  0  0  0  0  0  0  0  0  0  0
  193.0900  176.3090  137.3910 C   0  0  0  0  0  3  0  0  0  0  0  0
  186.7710  177.8710  138.6470 C   0  0  0  0  0  3  0  0  0  0  0  0
  188.0200  177.7840  139.2570 C   0  0  0  0  0  0  0  0  0  0  0  0
  189.5420  176.8420  137.4750 N   0  0  0  0  0  0  0  0  0  0  0  0
  192.6260  177.3510  140.3000 O   0  0  0  0  0  1  0  0  0  0  0  0
  190.6320  176.5420  134.4800 Cl  0  0  0  0  0  0  0  0  0  0  0  0
  190.2630  177.4730  139.6940 C   0  0  0  0  0  0  0  0  0  0  0  0
  190.8330  176.4870  137.2180 C   0  0  2  0  0  3  0  0  0  0  0  0
  188.5430  176.6750  144.3310 C   0  0  2  0  0  3  0  0  0  0  0  0
  190.8720  177.7260  143.1650 C   0  0  0  0  0  2  0  0  0  0  0  0
  190.9350  176.8440  144.3730 C   0  0  0  0  0  3  0  0  0  0  0  0
  189.8860  177.1290  142.1590 C   0  0  1  0  0  3  0  0  0  0  0  0
  189.8500  176.3700  144.8840 N   0  0  0  0  0  0  0  0  0  0  0  0
  188.5560  176.6530  142.7920 C   0  0  0  0  0  2  0  0  0  0  0  0
  183.7370  178.6090  145.2740 C   0  0  0  0  0  2  0  0  0  0  0  0
  187.9820  178.0230  146.2000 O   0  0  0  0  0  0  0  0  0  0  0  0
  185.9170  178.9090  146.2930 C   0  0  2  0  0  3  0  0  0  0  0  0
  184.7780  178.6330  144.1810 C   0  0  0  0  0  2  0  0  0  0  0  0
  186.7390  177.8590  145.5270 C   0  0  2  0  0  0  0  0  0  0  0  0
  184.5160  178.3810  146.5460 C   0  0  0  0  0  2  0  0  0  0  0  0
  188.0550  178.0280  144.8270 C   0  0  2  0  0  3  0  0  0  0  0  0
  186.0800  179.0650  144.8370 C   0  0  2  0  0  3  0  0  0  0  0  0
  1 17  1  6  0  0  0
  1 22  1  0  0  0  0
  2  7  1  0  0  0  0
  3  2  2  0  0  0  0
  4 17  2  0  0  0  0
  4 15  1  0  0  0  0
  5  4  1  0  0  0  0
  6 10  1  0  0  0  0
  6 18  1  0  0  0  0
  8  1  1  0  0  0  0
  8  7  2  0  0  0  0
  9 13  1  0  0  0  0
  9 17  1  0  0  0  0
 10 11  1  0  0  0  0
 11  5  2  0  0  0  0
 12 13  2  0  0  0  0
 12  3  1  0  0  0  0
 13  8  1  0  0  0  0
 14  9  2  0  0  0  0
 16  6  1  0  0  0  0
 18 14  1  6  0  0  0
 18  5  1  0  0  0  0
 19 24  1  6  0  0  0
 19 31  1  0  0  0  0
 19 23  1  0  0  0  0
 20 21  1  0  0  0  0
 21 23  2  0  0  0  0
 22 24  1  1  0  0  0
 22 20  1  0  0  0  0
 25 30  1  0  0  0  0
 27 30  1  6  0  0  0
 28 25  1  0  0  0  0
 29 26  1  1  0  0  0
 29 27  1  0  0  0  0
 31 29  1  0  0  0  0
 31 26  1  1  0  0  0
 32 28  1  6  0  0  0
 32 29  1  0  0  0  0
 32 27  1  0  0  0  0
M  END
>  <MODEL>
2

>  <REMARK>
 VINA RESULT:      -9.7      4.194      6.953
  Name = 
  2 active torsions:
  status: ('A' for Active; 'I' for Inactive)
    1  A    between atoms: C_3  and  C_14
    2  A    between atoms: C_8  and  C_23
                            x       y       z     vdW  Elec       q    Type
                         _______ _______ _______ _____ _____    ______ ____

>  <TORSDO>
F 2

$$$$
=
 OpenBabel10272413383D

 32 39  0  0  1  0  0  0  0  0999 V2000
  186.0820  178.8910  141.7560 C   0  0  2  0  0  3  0  0  0  0  0  0
  184.9020  179.1390  145.4190 C   0  0  0  0  0  3  0  0  0  0  0  0
  183.5280  178.9160  145.2010 C   0  0  0  0  0  3  0  0  0  0  0  0
  185.0020  178.6010  139.3770 C   0  0  1  0  0  3  0  0  0  0  0  0
  183.7820  178.3800  138.7270 C   0  0  0  0  0  0  0  0  0  0  0  0
  181.5570  178.1700  138.5230 N   0  0  0  0  0  0  0  0  0  0  0  0
  185.8060  179.1350  144.3440 C   0  0  0  0  0  3  0  0  0  0  0  0
  185.3120  178.8950  143.0600 C   0  0  0  0  0  0  0  0  0  0  0  0
  183.7430  178.5200  141.4410 C   0  0  0  0  0  0  0  0  0  0  0  0
  181.9950  178.1580  137.2260 O   0  0  0  0  0  0  0  0  0  0  0  0
  183.4070  178.3950  137.2910 C   0  0  0  0  0  3  0  0  0  0  0  0
  183.0410  178.6880  143.9030 C   0  0  0  0  0  3  0  0  0  0  0  0
  183.9600  178.6820  142.8560 C   0  0  0  0  0  0  0  0  0  0  0  0
  182.5630  178.3440  140.7790 N   0  0  0  0  0  0  0  0  0  0  0  0
  186.1850  178.7800  138.6700 O   0  0  0  0  0  1  0  0  0  0  0  0
  179.9850  178.7930  138.9340 Cl  0  0  0  0  0  0  0  0  0  0  0  0
  184.9620  178.6460  140.7790 C   0  0  0  0  0  0  0  0  0  0  0  0
  182.6320  178.2500  139.4210 C   0  0  0  0  0  0  0  0  0  0  0  0
  188.6650  176.6250  143.4390 C   0  0  2  0  0  3  0  0  0  0  0  0
  188.4930  178.3490  141.2280 C   0  0  0  0  0  2  0  0  0  0  0  0
  189.5260  177.2670  141.2950 C   0  0  0  0  0  3  0  0  0  0  0  0
  187.1470  177.7860  141.6870 C   0  0  1  0  0  3  0  0  0  0  0  0
  189.5780  176.4850  142.3190 N   0  0  0  0  0  0  0  0  0  0  0  0
  187.2300  176.9260  142.9710 C   0  0  0  0  0  2  0  0  0  0  0  0
  188.0360  177.3910  148.6110 C   0  0  0  0  0  2  0  0  0  0  0  0
  190.3720  177.3810  144.9010 O   0  0  0  0  0  0  0  0  0  0  0  0
  189.8250  177.8350  147.0340 C   0  0  2  0  0  3  0  0  0  0  0  0
  187.4250  177.8540  147.3100 C   0  0  0  0  0  2  0  0  0  0  0  0
  189.2690  177.1550  145.7710 C   0  0  2  0  0  0  0  0  0  0  0  0
  189.4560  177.0190  148.2610 C   0  0  0  0  0  2  0  0  0  0  0  0
  189.1430  177.7160  144.3850 C   0  0  2  0  0  3  0  0  0  0  0  0
  188.5750  178.3490  146.4480 C   0  0  2  0  0  3  0  0  0  0  0  0
  1 17  1  6  0  0  0
  1  8  1  0  0  0  0
  3  2  1  0  0  0  0
  4 15  1  6  0  0  0
  4 17  1  0  0  0  0
  5  4  1  0  0  0  0
  5 18  1  0  0  0  0
  6 16  1  0  0  0  0
  6 18  1  0  0  0  0
  7  2  2  0  0  0  0
  8  7  1  0  0  0  0
  9 13  1  0  0  0  0
 10 11  1  0  0  0  0
 10  6  1  0  0  0  0
 11  5  2  0  0  0  0
 12  3  2  0  0  0  0
 13  8  2  0  0  0  0
 13 12  1  0  0  0  0
 14  9  1  0  0  0  0
 17  9  2  0  0  0  0
 18 14  2  0  0  0  0
 19 24  1  6  0  0  0
 19 31  1  0  0  0  0
 20 21  1  0  0  0  0
 21 23  2  0  0  0  0
 22 20  1  1  0  0  0
 22  1  1  0  0  0  0
 22 24  1  0  0  0  0
 23 19  1  0  0  0  0
 27 30  1  1  0  0  0
 28 25  1  0  0  0  0
 29 26  1  6  0  0  0
 29 32  1  0  0  0  0
 29 27  1  0  0  0  0
 30 25  1  0  0  0  0
 31 26  1  6  0  0  0
 31 29  1  0  0  0  0
 32 27  1  0  0  0  0
 32 28  1  1  0  0  0
M  END
>  <MODEL>
3

>  <REMARK>
 VINA RESULT:      -9.5      1.527      1.939
  Name = 
  2 active torsions:
  status: ('A' for Active; 'I' for Inactive)
    1  A    between atoms: C_3  and  C_14
    2  A    between atoms: C_8  and  C_23
                            x       y       z     vdW  Elec       q    Type
                         _______ _______ _______ _____ _____    ______ ____

>  <TORSDO>
F 2

$$$$
=
 OpenBabel10272413383D

 32 39  0  0  1  0  0  0  0  0999 V2000
  187.4960  177.2120  142.5400 C   0  0  2  0  0  3  0  0  0  0  0  0
  183.8940  178.5630  142.2630 C   0  0  0  0  0  3  0  0  0  0  0  0
  183.7550  179.0290  143.5860 C   0  0  0  0  0  3  0  0  0  0  0  0
  189.3250  176.9100  144.4030 C   0  0  1  0  0  3  0  0  0  0  0  0
  189.6020  177.1860  145.7470 C   0  0  0  0  0  0  0  0  0  0  0  0
  189.1850  177.8570  147.8480 N   0  0  0  0  0  0  0  0  0  0  0  0
  185.0930  177.9650  141.8390 C   0  0  0  0  0  3  0  0  0  0  0  0
  186.1420  177.8550  142.7540 C   0  0  0  0  0  0  0  0  0  0  0  0
  187.2070  178.0180  144.7700 C   0  0  0  0  0  0  0  0  0  0  0  0
  190.4360  177.3050  147.9360 O   0  0  0  0  0  0  0  0  0  0  0  0
  190.7120  176.7630  146.6380 C   0  0  0  0  0  3  0  0  0  0  0  0
  184.8130  178.9020  144.5000 C   0  0  0  0  0  3  0  0  0  0  0  0
  185.9930  178.3130  144.0520 C   0  0  0  0  0  0  0  0  0  0  0  0
  187.4870  178.2380  146.0870 N   0  0  0  0  0  0  0  0  0  0  0  0
  190.2180  176.2070  143.6030 O   0  0  0  0  0  1  0  0  0  0  0  0
  188.0940  177.8290  149.2040 Cl  0  0  0  0  0  0  0  0  0  0  0  0
  188.0930  177.3700  143.9140 C   0  0  0  0  0  0  0  0  0  0  0  0
  188.7110  177.8320  146.5280 C   0  0  0  0  0  0  0  0  0  0  0  0
  188.0810  178.2950  138.9170 C   0  0  2  0  0  3  0  0  0  0  0  0
  189.4860  177.0270  140.9930 C   0  0  0  0  0  2  0  0  0  0  0  0
  190.2030  177.7060  139.8680 C   0  0  0  0  0  3  0  0  0  0  0  0
  188.3400  177.9210  141.4700 C   0  0  1  0  0  3  0  0  0  0  0  0
  189.5330  178.2870  138.9310 N   0  0  0  0  0  0  0  0  0  0  0  0
  187.4990  178.5290  140.3220 C   0  0  0  0  0  2  0  0  0  0  0  0
  184.0900  177.2050  135.6590 C   0  0  0  0  0  2  0  0  0  0  0  0
  188.1800  176.7070  137.1580 O   0  0  0  0  0  0  0  0  0  0  0  0
  186.2920  176.2560  136.0220 C   0  0  2  0  0  3  0  0  0  0  0  0
  184.3780  177.2140  137.1410 C   0  0  0  0  0  2  0  0  0  0  0  0
  186.8760  177.2630  137.0280 C   0  0  2  0  0  0  0  0  0  0  0  0
  185.4320  176.9850  135.0060 C   0  0  0  0  0  2  0  0  0  0  0  0
  187.5450  176.9920  138.3430 C   0  0  2  0  0  3  0  0  0  0  0  0
  185.6440  176.3970  137.3380 C   0  0  2  0  0  3  0  0  0  0  0  0
  1  8  1  1  0  0  0
  1 17  1  0  0  0  0
  2  3  1  0  0  0  0
  3 12  2  0  0  0  0
  4 15  1  1  0  0  0
  4  5  1  0  0  0  0
  5 18  1  0  0  0  0
  5 11  2  0  0  0  0
  6 10  1  0  0  0  0
  6 16  1  0  0  0  0
  7  2  2  0  0  0  0
  7  8  1  0  0  0  0
  8 13  2  0  0  0  0
  9 14  1  0  0  0  0
 11 10  1  0  0  0  0
 13 12  1  0  0  0  0
 13  9  1  0  0  0  0
 14 18  2  0  0  0  0
 17  4  1  0  0  0  0
 17  9  2  0  0  0  0
 18  6  1  0  0  0  0
 19 23  1  0  0  0  0
 19 24  1  1  0  0  0
 20 22  1  0  0  0  0
 21 20  1  0  0  0  0
 22 24  1  6  0  0  0
 22  1  1  0  0  0  0
 23 21  2  0  0  0  0
 25 28  1  0  0  0  0
 27 30  1  6  0  0  0
 27 29  1  0  0  0  0
 27 32  1  0  0  0  0
 29 26  1  1  0  0  0
 29 32  1  0  0  0  0
 29 31  1  0  0  0  0
 30 25  1  0  0  0  0
 31 26  1  6  0  0  0
 31 19  1  0  0  0  0
 32 28  1  6  0  0  0
M  END
>  <MODEL>
4

>  <REMARK>
 VINA RESULT:      -9.4      3.577      7.521
  Name = 
  2 active torsions:
  status: ('A' for Active; 'I' for Inactive)
    1  A    between atoms: C_3  and  C_14
    2  A    between atoms: C_8  and  C_23
                            x       y       z     vdW  Elec       q    Type
                         _______ _______ _______ _____ _____    ______ ____

>  <TORSDO>
F 2

$$$$
=
 OpenBabel10272413383D

 32 39  0  0  1  0  0  0  0  0999 V2000
  188.2550  178.4690  139.8240 C   0  0  2  0  0  3  0  0  0  0  0  0
  191.8200  177.3010  140.7150 C   0  0  0  0  0  3  0  0  0  0  0  0
  191.5850  176.9560  142.0610 C   0  0  0  0  0  3  0  0  0  0  0  0
  185.9580  178.8260  141.0510 C   0  0  1  0  0  3  0  0  0  0  0  0
  185.3130  178.6490  142.2810 C   0  0  0  0  0  0  0  0  0  0  0  0
  185.1250  178.1810  144.4680 N   0  0  0  0  0  0  0  0  0  0  0  0
  190.7780  177.7930  139.9120 C   0  0  0  0  0  3  0  0  0  0  0  0
  189.5070  177.9220  140.4760 C   0  0  0  0  0  0  0  0  0  0  0  0
  187.9120  177.8710  142.1110 C   0  0  0  0  0  0  0  0  0  0  0  0
  183.8870  178.6690  144.1420 O   0  0  0  0  0  0  0  0  0  0  0  0
  183.9820  179.0830  142.7740 C   0  0  0  0  0  3  0  0  0  0  0  0
  190.3060  177.1010  142.6200 C   0  0  0  0  0  3  0  0  0  0  0  0
  189.2890  177.5840  141.8000 C   0  0  0  0  0  0  0  0  0  0  0  0
  187.2700  177.7470  143.3080 N   0  0  0  0  0  0  0  0  0  0  0  0
  185.3140  179.4080  139.9660 O   0  0  0  0  0  1  0  0  0  0  0  0
  185.7770  178.3840  146.0690 Cl  0  0  0  0  0  0  0  0  0  0  0  0
  187.2920  178.3950  140.9790 C   0  0  0  0  0  0  0  0  0  0  0  0
  185.9590  178.1210  143.3410 C   0  0  0  0  0  0  0  0  0  0  0  0
  188.9520  176.0440  136.9480 C   0  0  2  0  0  3  0  0  0  0  0  0
  187.6330  178.4860  137.3740 C   0  0  0  0  0  2  0  0  0  0  0  0
  187.2870  177.6060  136.2140 C   0  0  0  0  0  3  0  0  0  0  0  0
  187.7760  177.6270  138.6310 C   0  0  1  0  0  3  0  0  0  0  0  0
  187.9040  176.4860  136.0460 N   0  0  0  0  0  0  0  0  0  0  0  0
  188.6010  176.3340  138.4170 C   0  0  0  0  0  2  0  0  0  0  0  0
  193.9250  174.3130  136.9990 C   0  0  0  0  0  2  0  0  0  0  0  0
  190.5510  176.5060  135.2580 O   0  0  0  0  0  0  0  0  0  0  0  0
  192.6730  175.8360  135.5870 C   0  0  2  0  0  3  0  0  0  0  0  0
  192.9920  175.1180  137.8710 C   0  0  0  0  0  2  0  0  0  0  0  0
  191.2550  175.6510  136.1530 C   0  0  2  0  0  0  0  0  0  0  0  0
  193.4070  174.5070  135.5950 C   0  0  0  0  0  2  0  0  0  0  0  0
  190.2770  176.7020  136.5910 C   0  0  2  0  0  3  0  0  0  0  0  0
  192.4170  176.2130  136.9890 C   0  0  2  0  0  3  0  0  0  0  0  0
  1  8  1  1  0  0  0
  1 17  1  0  0  0  0
  2  3  1  0  0  0  0
  3 12  2  0  0  0  0
  4 15  1  1  0  0  0
  4  5  1  0  0  0  0
  5 11  2  0  0  0  0
  5 18  1  0  0  0  0
  6 16  1  0  0  0  0
  7  8  1  0  0  0  0
  7  2  2  0  0  0  0
  8 13  2  0  0  0  0
  9 14  1  0  0  0  0
 10  6  1  0  0  0  0
 11 10  1  0  0  0  0
 13  9  1  0  0  0  0
 13 12  1  0  0  0  0
 14 18  2  0  0  0  0
 17  4  1  0  0  0  0
 17  9  2  0  0  0  0
 18  6  1  0  0  0  0
 19 24  1  1  0  0  0
 21 20  1  0  0  0  0
 22 20  1  6  0  0  0
 22  1  1  0  0  0  0
 23 21  2  0  0  0  0
 23 19  1  0  0  0  0
 24 22  1  0  0  0  0
 25 28  1  0  0  0  0
 27 30  1  1  0  0  0
 27 29  1  0  0  0  0
 27 32  1  0  0  0  0
 29 26  1  6  0  0  0
 29 31  1  0  0  0  0
 29 32  1  0  0  0  0
 30 25  1  0  0  0  0
 31 26  1  6  0  0  0
 31 19  1  0  0  0  0
 32 28  1  1  0  0  0
M  END
>  <MODEL>
5

>  <REMARK>
 VINA RESULT:      -8.8      3.873      6.460
  Name = 
  2 active torsions:
  status: ('A' for Active; 'I' for Inactive)
    1  A    between atoms: C_3  and  C_14
    2  A    between atoms: C_8  and  C_23
                            x       y       z     vdW  Elec       q    Type
                         _______ _______ _______ _____ _____    ______ ____

>  <TORSDO>
F 2

$$$$
=
 OpenBabel10272413383D

 32 39  0  0  1  0  0  0  0  0999 V2000
  185.6930  179.0920  143.5260 C   0  0  2  0  0  3  0  0  0  0  0  0
  187.1800  178.4130  140.0330 C   0  0  0  0  0  3  0  0  0  0  0  0
  188.2920  177.6470  140.4360 C   0  0  0  0  0  3  0  0  0  0  0  0
  186.3220  178.6250  146.0350 C   0  0  1  0  0  3  0  0  0  0  0  0
  187.2580  177.9730  146.8460 C   0  0  0  0  0  0  0  0  0  0  0  0
  189.1390  176.8530  147.3410 N   0  0  0  0  0  0  0  0  0  0  0  0
  186.2750  178.9130  140.9840 C   0  0  0  0  0  3  0  0  0  0  0  0
  186.4980  178.6250  142.3320 C   0  0  0  0  0  0  0  0  0  0  0  0
  187.5940  177.7900  144.1550 C   0  0  0  0  0  0  0  0  0  0  0  0
  188.6280  177.1690  148.5710 O   0  0  0  0  0  0  0  0  0  0  0  0
  187.4740  177.9800  148.3150 C   0  0  0  0  0  3  0  0  0  0  0  0
  188.5130  177.3740  141.7950 C   0  0  0  0  0  3  0  0  0  0  0  0
  187.5960  177.8750  142.7170 C   0  0  0  0  0  0  0  0  0  0  0  0
  188.5140  177.1980  144.9700 N   0  0  0  0  0  0  0  0  0  0  0  0
  185.2800  179.3680  146.5760 O   0  0  0  0  0  1  0  0  0  0  0  0
  190.8540  176.6930  147.0960 Cl  0  0  0  0  0  0  0  0  0  0  0  0
  186.5010  178.4960  144.6490 C   0  0  0  0  0  0  0  0  0  0  0  0
  188.2910  177.2880  146.3120 C   0  0  0  0  0  0  0  0  0  0  0  0
  182.5500  177.9490  141.6650 C   0  0  2  0  0  3  0  0  0  0  0  0
  183.2500  179.7010  143.7470 C   0  0  0  0  0  2  0  0  0  0  0  0
  181.8590  179.1630  143.6150 C   0  0  0  0  0  3  0  0  0  0  0  0
  184.2490  178.5640  143.5250 C   0  0  1  0  0  3  0  0  0  0  0  0
  181.5670  178.3550  142.6530 N   0  0  0  0  0  0  0  0  0  0  0  0
  183.9200  177.6670  142.3070 C   0  0  0  0  0  2  0  0  0  0  0  0
  183.2320  177.6630  136.4520 C   0  0  0  0  0  2  0  0  0  0  0  0
  181.4530  179.3410  140.0900 O   0  0  0  0  0  0  0  0  0  0  0  0
  182.0500  179.1810  137.9280 C   0  0  2  0  0  3  0  0  0  0  0  0
  184.0610  177.8630  137.6980 C   0  0  0  0  0  2  0  0  0  0  0  0
  182.2130  178.4570  139.2750 C   0  0  2  0  0  0  0  0  0  0  0  0
  181.8570  178.1650  136.8170 C   0  0  0  0  0  2  0  0  0  0  0  0
  182.6920  179.0100  140.5840 C   0  0  2  0  0  3  0  0  0  0  0  0
  183.4080  178.9960  138.4710 C   0  0  2  0  0  3  0  0  0  0  0  0
  1  8  1  6  0  0  0
  1 17  1  0  0  0  0
  2  3  2  0  0  0  0
  2  7  1  0  0  0  0
  3 12  1  0  0  0  0
  4 15  1  6  0  0  0
  4  5  1  0  0  0  0
  5 11  2  0  0  0  0
  6 10  1  0  0  0  0
  7  8  2  0  0  0  0
  8 13  1  0  0  0  0
  9 17  2  0  0  0  0
  9 14  1  0  0  0  0
 11 10  1  0  0  0  0
 12 13  2  0  0  0  0
 13  9  1  0  0  0  0
 14 18  2  0  0  0  0
 16  6  1  0  0  0  0
 17  4  1  0  0  0  0
 18  5  1  0  0  0  0
 18  6  1  0  0  0  0
 19 24  1  1  0  0  0
 19 23  1  0  0  0  0
 21 20  1  0  0  0  0
 22 24  1  6  0  0  0
 22  1  1  0  0  0  0
 22 20  1  0  0  0  0
 23 21  2  0  0  0  0
 25 30  1  0  0  0  0
 25 28  1  0  0  0  0
 27 30  1  6  0  0  0
 27 32  1  0  0  0  0
 27 29  1  0  0  0  0
 29 26  1  1  0  0  0
 29 31  1  0  0  0  0
 31 26  1  1  0  0  0
 31 19  1  0  0  0  0
 32 28  1  6  0  0  0
 32 29  1  0  0  0  0
M  END
>  <MODEL>
6

>  <REMARK>
 VINA RESULT:      -8.4      3.309      8.465
  Name = 
  2 active torsions:
  status: ('A' for Active; 'I' for Inactive)
    1  A    between atoms: C_3  and  C_14
    2  A    between atoms: C_8  and  C_23
                            x       y       z     vdW  Elec       q    Type
                         _______ _______ _______ _____ _____    ______ ____

>  <TORSDO>
F 2

$$$$
=
 OpenBabel10272413383D

 32 39  0  0  1  0  0  0  0  0999 V2000
  188.8670  178.2520  140.4860 C   0  0  2  0  0  3  0  0  0  0  0  0
  185.6410  179.1470  142.4010 C   0  0  0  0  0  3  0  0  0  0  0  0
  184.7270  178.9690  141.3430 C   0  0  0  0  0  3  0  0  0  0  0  0
  189.5670  177.6450  138.0260 C   0  0  0  0  0  0  0  0  0  0  0  0
  189.0490  177.3920  136.7510 C   0  0  0  0  0  0  0  0  0  0  0  0
  187.4930  177.2770  135.1370 N   0  0  0  0  0  0  0  0  0  0  0  0
  187.0140  178.9210  142.2030 C   0  0  0  0  0  3  0  0  0  0  0  0
  187.4460  178.5070  140.9420 C   0  0  0  0  0  0  0  0  0  0  0  0
  187.2750  177.9660  138.7280 C   0  0  0  0  0  0  0  0  0  0  0  0
  188.6620  177.0330  134.4660 O   0  0  0  0  0  0  0  0  0  0  0  0
  189.7060  177.1980  135.4340 C   0  0  0  0  0  3  0  0  0  0  0  0
  185.1750  178.5650  140.0750 C   0  0  0  0  0  3  0  0  0  0  0  0
  186.5390  178.3400  139.9090 C   0  0  0  0  0  0  0  0  0  0  0  0
  186.8010  177.7530  137.4670 N   0  0  0  0  0  0  0  0  0  0  0  0
  190.9350  177.6420  138.2720 O   0  0  0  0  0  1  0  0  0  0  0  0
  186.1470  178.0440  134.3460 Cl  0  0  0  0  0  0  0  0  0  0  0  0
  188.6320  177.9160  139.0360 C   0  0  0  0  0  0  0  0  0  0  0  0
  187.7220  177.4380  136.5120 C   0  0  2  0  0  3  0  0  0  0  0  0
  189.5000  176.2540  143.6880 C   0  0  2  0  0  3  0  0  0  0  0  0
  190.9780  177.4490  141.6200 C   0  0  0  0  0  2  0  0  0  0  0  0
  191.5530  176.3450  142.4510 C   0  0  0  0  0  3  0  0  0  0  0  0
  189.5420  177.0910  141.2340 C   0  0  1  0  0  3  0  0  0  0  0  0
  190.8490  175.8090  143.3900 N   0  0  0  0  0  0  0  0  0  0  0  0
  188.6970  176.5360  142.4060 C   0  0  0  0  0  2  0  0  0  0  0  0
  186.5990  177.7720  147.8120 C   0  0  0  0  0  2  0  0  0  0  0  0
  190.3730  177.2930  145.6320 O   0  0  0  0  0  0  0  0  0  0  0  0
  188.9250  178.0430  147.1810 C   0  0  2  0  0  3  0  0  0  0  0  0
  186.6680  178.0070  146.3220 C   0  0  0  0  0  2  0  0  0  0  0  0
  188.9870  177.1580  145.9250 C   0  0  2  0  0  0  0  0  0  0  0  0
  188.0080  177.4100  148.2120 C   0  0  0  0  0  2  0  0  0  0  0  0
  189.5280  177.4950  144.5670 C   0  0  2  0  0  3  0  0  0  0  0  0
  188.1000  178.4110  146.0160 C   0  0  2  0  0  3  0  0  0  0  0  0
  1 17  1  6  0  0  0
  1  8  1  0  0  0  0
  1 22  1  0  0  0  0
  3  2  2  0  0  0  0
  4 15  1  0  0  0  0
  4 17  2  0  0  0  0
  5  4  1  0  0  0  0
  6 18  1  0  0  0  0
  7  2  1  0  0  0  0
  8  7  2  0  0  0  0
  9 17  1  0  0  0  0
  9 13  1  0  0  0  0
 10  6  1  0  0  0  0
 10 11  1  0  0  0  0
 11  5  2  0  0  0  0
 12  3  1  0  0  0  0
 13 12  2  0  0  0  0
 13  8  1  0  0  0  0
 14  9  2  0  0  0  0
 16  6  1  0  0  0  0
 18  5  1  6  0  0  0
 18 14  1  0  0  0  0
 19 24  1  6  0  0  0
 19 31  1  0  0  0  0
 20 21  1  0  0  0  0
 21 23  2  0  0  0  0
 22 20  1  1  0  0  0
 22 24  1  0  0  0  0
 23 19  1  0  0  0  0
 25 30  1  0  0  0  0
 27 30  1  1  0  0  0
 28 25  1  0  0  0  0
 29 26  1  6  0  0  0
 29 32  1  0  0  0  0
 29 27  1  0  0  0  0
 31 26  1  1  0  0  0
 31 29  1  0  0  0  0
 32 28  1  1  0  0  0
 32 27  1  0  0  0  0
M  END
>  <MODEL>
7

>  <REMARK>
 VINA RESULT:      -8.3      3.472      5.031
  Name = 
  2 active torsions:
  status: ('A' for Active; 'I' for Inactive)
    1  A    between atoms: C_3  and  C_14
    2  A    between atoms: C_8  and  C_23
                            x       y       z     vdW  Elec       q    Type
                         _______ _______ _______ _____ _____    ______ ____

>  <TORSDO>
F 2

$$$$
=
 OpenBabel10272413383D

 32 39  0  0  1  0  0  0  0  0999 V2000
  187.1800  177.2930  142.7730 C   0  0  2  0  0  3  0  0  0  0  0  0
  183.6970  178.7100  143.6280 C   0  0  0  0  0  3  0  0  0  0  0  0
  183.9710  179.1260  144.9460 C   0  0  0  0  0  3  0  0  0  0  0  0
  189.4730  176.8890  143.9940 C   0  0  1  0  0  3  0  0  0  0  0  0
  190.1450  177.1070  145.2030 C   0  0  0  0  0  0  0  0  0  0  0  0
  190.3900  177.7010  147.3540 N   0  0  0  0  0  0  0  0  0  0  0  0
  184.6990  178.1110  142.8460 C   0  0  0  0  0  3  0  0  0  0  0  0
  185.9700  177.9490  143.4030 C   0  0  0  0  0  0  0  0  0  0  0  0
  187.5900  178.0150  145.0130 C   0  0  0  0  0  0  0  0  0  0  0  0
  191.5940  177.1270  147.0460 O   0  0  0  0  0  0  0  0  0  0  0  0
  191.4570  176.6320  145.7080 C   0  0  0  0  0  3  0  0  0  0  0  0
  185.2490  178.9460  145.4990 C   0  0  0  0  0  3  0  0  0  0  0  0
  186.2260  178.3570  144.7000 C   0  0  0  0  0  0  0  0  0  0  0  0
  188.2550  178.1790  146.1930 N   0  0  0  0  0  0  0  0  0  0  0  0
  190.0680  176.2040  142.9420 O   0  0  0  0  0  1  0  0  0  0  0  0
  189.7510  177.6370  148.9710 Cl  0  0  0  0  0  0  0  0  0  0  0  0
  188.1640  177.3870  143.9110 C   0  0  0  0  0  0  0  0  0  0  0  0
  189.5440  177.7360  146.2350 C   0  0  0  0  0  0  0  0  0  0  0  0
  186.5860  178.7880  139.3010 C   0  0  2  0  0  3  0  0  0  0  0  0
  188.4090  177.0720  140.5750 C   0  0  0  0  0  2  0  0  0  0  0  0
  188.7740  177.8040  139.3220 C   0  0  0  0  0  3  0  0  0  0  0  0
  187.6870  178.0310  141.5240 C   0  0  1  0  0  3  0  0  0  0  0  0
  187.9200  178.5910  138.7610 N   0  0  0  0  0  0  0  0  0  0  0  0
  186.6040  178.8970  140.8360 C   0  0  0  0  0  2  0  0  0  0  0  0
  181.3460  178.3850  138.9880 C   0  0  0  0  0  2  0  0  0  0  0  0
  185.4260  177.7390  137.5190 O   0  0  0  0  0  0  0  0  0  0  0  0
  183.1960  177.5010  137.6940 C   0  0  2  0  0  3  0  0  0  0  0  0
  182.4600  178.0140  139.9360 C   0  0  0  0  0  2  0  0  0  0  0  0
  184.3800  178.2330  138.3480 C   0  0  2  0  0  0  0  0  0  0  0  0
  181.9930  178.4260  137.6260 C   0  0  0  0  0  2  0  0  0  0  0  0
  185.6630  177.6580  138.8710 C   0  0  2  0  0  3  0  0  0  0  0  0
  183.4840  177.2470  139.1160 C   0  0  2  0  0  3  0  0  0  0  0  0
  1  8  1  1  0  0  0
  1 17  1  0  0  0  0
  2  3  1  0  0  0  0
  3 12  2  0  0  0  0
  4 15  1  1  0  0  0
  4  5  1  0  0  0  0
  5 11  2  0  0  0  0
  5 18  1  0  0  0  0
  6 16  1  0  0  0  0
  7  8  1  0  0  0  0
  7  2  2  0  0  0  0
  8 13  2  0  0  0  0
  9 14  1  0  0  0  0
 10  6  1  0  0  0  0
 11 10  1  0  0  0  0
 13  9  1  0  0  0  0
 13 12  1  0  0  0  0
 14 18  2  0  0  0  0
 17  4  1  0  0  0  0
 17  9  2  0  0  0  0
 18  6  1  0  0  0  0
 19 24  1  1  0  0  0
 21 20  1  0  0  0  0
 22 20  1  6  0  0  0
 22  1  1  0  0  0  0
 23 19  1  0  0  0  0
 23 21  2  0  0  0  0
 24 22  1  0  0  0  0
 25 28  1  0  0  0  0
 27 30  1  1  0  0  0
 27 29  1  0  0  0  0
 27 32  1  0  0  0  0
 29 26  1  6  0  0  0
 29 31  1  0  0  0  0
 29 32  1  0  0  0  0
 30 25  1  0  0  0  0
 31 26  1  6  0  0  0
 31 19  1  0  0  0  0
 32 28  1  1  0  0  0
M  END
>  <MODEL>
8

>  <REMARK>
 VINA RESULT:      -8.2      3.203      7.680
  Name = 
  2 active torsions:
  status: ('A' for Active; 'I' for Inactive)
    1  A    between atoms: C_3  and  C_14
    2  A    between atoms: C_8  and  C_23
                            x       y       z     vdW  Elec       q    Type
                         _______ _______ _______ _____ _____    ______ ____

>  <TORSDO>
F 2

$$$$
=
 OpenBabel10272413383D

 32 39  0  0  1  0  0  0  0  0999 V2000
  184.0660  179.0800  141.9670 C   0  0  2  0  0  3  0  0  0  0  0  0
  185.8150  178.7610  138.5450 C   0  0  0  0  0  3  0  0  0  0  0  0
  187.0560  178.2740  139.0010 C   0  0  0  0  0  3  0  0  0  0  0  0
  184.6790  178.7740  144.5050 C   0  0  1  0  0  3  0  0  0  0  0  0
  185.7070  178.3580  145.3600 C   0  0  0  0  0  0  0  0  0  0  0  0
  187.7730  177.7040  145.9430 N   0  0  0  0  0  0  0  0  0  0  0  0
  184.7790  179.0390  139.4530 C   0  0  0  0  0  3  0  0  0  0  0  0
  185.0070  178.8110  140.8120 C   0  0  0  0  0  0  0  0  0  0  0  0
  186.1890  178.2550  142.6870 C   0  0  0  0  0  0  0  0  0  0  0  0
  187.1510  177.8940  147.1480 O   0  0  0  0  0  0  0  0  0  0  0  0
  185.8530  178.4160  146.8360 C   0  0  0  0  0  3  0  0  0  0  0  0
  187.2770  178.0610  140.3710 C   0  0  0  0  0  3  0  0  0  0  0  0
  186.2310  178.3370  141.2490 C   0  0  0  0  0  0  0  0  0  0  0  0
  187.1850  177.8920  143.5450 N   0  0  0  0  0  0  0  0  0  0  0  0
  183.4720  179.2560  144.9950 O   0  0  0  0  0  1  0  0  0  0  0  0
  189.4870  177.9450  145.7700 Cl  0  0  0  0  0  0  0  0  0  0  0  0
  184.9420  178.6890  143.1290 C   0  0  0  0  0  0  0  0  0  0  0  0
  186.8910  177.9300  144.8760 C   0  0  0  0  0  0  0  0  0  0  0  0
  181.4120  177.1510  139.9980 C   0  0  2  0  0  3  0  0  0  0  0  0
  181.5390  179.1160  142.0020 C   0  0  0  0  0  2  0  0  0  0  0  0
  180.3210  178.2650  141.8200 C   0  0  0  0  0  3  0  0  0  0  0  0
  182.7850  178.2330  141.9130 C   0  0  1  0  0  3  0  0  0  0  0  0
  180.2920  177.3650  140.8960 N   0  0  0  0  0  0  0  0  0  0  0  0
  182.7590  177.2260  140.7380 C   0  0  0  0  0  2  0  0  0  0  0  0
  182.6530  176.8140  134.8910 C   0  0  0  0  0  2  0  0  0  0  0  0
  180.1590  178.1400  138.2440 O   0  0  0  0  0  0  0  0  0  0  0  0
  180.9860  178.0420  136.1560 C   0  0  2  0  0  3  0  0  0  0  0  0
  183.2780  177.2780  136.1850 C   0  0  0  0  0  2  0  0  0  0  0  0
  181.1940  177.4450  137.5580 C   0  0  2  0  0  0  0  0  0  0  0  0
  181.1660  176.9600  135.1050 C   0  0  0  0  0  2  0  0  0  0  0  0
  181.3870  178.1630  138.8620 C   0  0  2  0  0  3  0  0  0  0  0  0
  182.2870  178.2380  136.8210 C   0  0  2  0  0  3  0  0  0  0  0  0
  1  8  1  6  0  0  0
  1 17  1  0  0  0  0
  2  3  2  0  0  0  0
  2  7  1  0  0  0  0
  3 12  1  0  0  0  0
  4 15  1  1  0  0  0
  4  5  1  0  0  0  0
  5 11  2  0  0  0  0
  6 10  1  0  0  0  0
  7  8  2  0  0  0  0
  8 13  1  0  0  0  0
  9 17  2  0  0  0  0
  9 14  1  0  0  0  0
 11 10  1  0  0  0  0
 12 13  2  0  0  0  0
 13  9  1  0  0  0  0
 14 18  2  0  0  0  0
 16  6  1  0  0  0  0
 17  4  1  0  0  0  0
 18  5  1  0  0  0  0
 18  6  1  0  0  0  0
 19 24  1  1  0  0  0
 19 23  1  0  0  0  0
 21 20  1  0  0  0  0
 22 24  1  6  0  0  0
 22  1  1  0  0  0  0
 22 20  1  0  0  0  0
 23 21  2  0  0  0  0
 25 30  1  0  0  0  0
 25 28  1  0  0  0  0
 27 30  1  6  0  0  0
 27 32  1  0  0  0  0
 27 29  1  0  0  0  0
 29 26  1  6  0  0  0
 29 31  1  0  0  0  0
 31 26  1  1  0  0  0
 31 19  1  0  0  0  0
 32 28  1  6  0  0  0
 32 29  1  0  0  0  0
M  END
>  <MODEL>
9

>  <REMARK>
 VINA RESULT:      -8.0      3.571      8.839
  Name = 
  2 active torsions:
  status: ('A' for Active; 'I' for Inactive)
    1  A    between atoms: C_3  and  C_14
    2  A    between atoms: C_8  and  C_23
                            x       y       z     vdW  Elec       q    Type
                         _______ _______ _______ _____ _____    ______ ____

>  <TORSDO>
F 2

$$$$
