=
 OpenBabel10272415293D

 34 39  0  0  1  0  0  0  0  0999 V2000
  189.9400  176.1320  143.8280 C   0  0  1  0  0  3  0  0  0  0  0  0
  187.2780  177.0370  146.4700 C   0  0  0  0  0  2  0  0  0  0  0  0
  189.8040  177.0170  146.5180 N   0  0  0  0  0  2  0  0  0  0  0  0
  190.0430  177.4940  141.7130 C   0  0  1  0  0  3  0  0  0  0  0  0
  189.9100  176.0930  142.2990 C   0  0  0  0  0  2  0  0  0  0  0  0
  191.2430  178.3100  143.7340 N   0  0  0  0  0  0  0  0  0  0  0  0
  190.1550  179.2120  144.1120 C   0  0  0  0  0  1  0  0  0  0  0  0
  191.2850  178.1990  142.2720 C   0  0  0  0  0  2  0  0  0  0  0  0
  191.0720  177.0510  145.8570 C   0  0  0  0  0  0  0  0  0  0  0  0
  191.1230  176.9730  144.3580 C   0  0  1  0  0  3  0  0  0  0  0  0
  192.1300  177.1900  146.5230 O   0  0  0  0  0  0  0  0  0  0  0  0
  186.5860  178.2670  145.9580 C   0  0  0  0  0  3  0  0  0  0  0  0
  186.3030  178.5500  144.6700 C   0  0  0  0  0  0  0  0  0  0  0  0
  186.7250  177.7310  143.4610 C   0  0  0  0  0  2  0  0  0  0  0  0
  188.5880  176.8180  145.7840 C   0  0  0  0  0  0  0  0  0  0  0  0
  187.3280  176.3540  143.7270 C   0  0  0  0  0  2  0  0  0  0  0  0
  188.6180  176.4790  144.4830 C   0  0  0  0  0  0  0  0  0  0  0  0
  185.6160  179.8480  144.3950 C   0  0  0  0  0  2  0  0  0  0  0  0
  183.4990  179.2130  145.3070 O   0  0  0  0  0  1  0  0  0  0  0  0
  184.1320  179.6380  144.1380 C   0  0  0  0  0  2  0  0  0  0  0  0
  190.0400  177.4710  140.1840 C   0  0  0  0  0  2  0  0  0  0  0  0
  187.1590  177.4260  137.7270 C   0  0  0  0  0  3  0  0  0  0  0  0
  187.6850  178.2220  140.3280 N   0  0  0  0  0  0  0  0  0  0  0  0
  183.8790  178.8190  138.7410 C   0  0  0  0  0  0  0  0  0  0  0  0
  184.8770  178.2130  137.9640 C   0  0  0  0  0  3  0  0  0  0  0  0
  186.1540  178.0160  138.4930 C   0  0  0  0  0  0  0  0  0  0  0  0
  185.4410  179.0020  140.5960 C   0  0  0  0  0  3  0  0  0  0  0  0
  186.4400  178.4150  139.8160 C   0  0  0  0  0  0  0  0  0  0  0  0
  184.1640  179.1980  140.0620 C   0  0  0  0  0  3  0  0  0  0  0  0
  188.6760  177.6480  139.5920 C   0  0  0  0  0  0  0  0  0  0  0  0
  188.4300  177.2410  138.2760 C   0  0  0  0  0  3  0  0  0  0  0  0
  182.4960  178.9910  138.1940 C   0  0  1  0  0  3  0  0  0  0  0  0
  181.5520  179.3130  139.2640 C   0  0  0  0  0  2  0  0  0  0  0  0
  182.0480  180.3820  138.3890 N   0  0  0  0  0  2  0  0  0  0  0  0
  1  5  1  6  0  0  0
  1 10  1  0  0  0  0
  1 17  1  0  0  0  0
  4 21  1  6  0  0  0
  4  8  1  0  0  0  0
  4  5  1  0  0  0  0
  6  7  1  0  0  0  0
  6 10  1  0  0  0  0
  8  6  1  0  0  0  0
  9  3  1  0  0  0  0
  9 11  2  0  0  0  0
 10  9  1  1  0  0  0
 12  2  1  0  0  0  0
 13 12  2  0  0  0  0
 14 16  1  0  0  0  0
 14 13  1  0  0  0  0
 15  2  1  0  0  0  0
 15  3  1  0  0  0  0
 16 17  1  0  0  0  0
 17 15  2  0  0  0  0
 18 13  1  0  0  0  0
 20 18  1  0  0  0  0
 20 19  1  0  0  0  0
 22 31  2  0  0  0  0
 22 26  1  0  0  0  0
 24 29  1  0  0  0  0
 25 26  1  0  0  0  0
 25 24  2  0  0  0  0
 26 28  2  0  0  0  0
 28 23  1  0  0  0  0
 28 27  1  0  0  0  0
 29 27  2  0  0  0  0
 30 21  1  0  0  0  0
 30 23  2  0  0  0  0
 31 30  1  0  0  0  0
 32 34  1  0  0  0  0
 32 24  1  1  0  0  0
 32 33  1  0  0  0  0
 34 33  1  0  0  0  0
M  END
>  <MODEL>
1

>  <REMARK>
 VINA RESULT:      -8.0      0.000      0.000
  Name = 
  5 active torsions:
  status: ('A' for Active; 'I' for Inactive)
    1  A    between atoms: C_3  and  C_24
    2  A    between atoms: C_3  and  C_25
    3  A    between atoms: C_7  and  C_11
    4  A    between atoms: C_8  and  C_18
    5  A    between atoms: C_18  and  C_30
                            x       y       z     vdW  Elec       q    Type
                         _______ _______ _______ _____ _____    ______ ____

>  <TORSDO>
F 5

$$$$
=
 OpenBabel10272415293D

 34 39  0  0  1  0  0  0  0  0999 V2000
  190.2620  176.1090  144.0760 C   0  0  1  0  0  3  0  0  0  0  0  0
  186.9950  177.1030  145.8710 C   0  0  0  0  0  2  0  0  0  0  0  0
  189.4270  177.2410  146.5380 N   0  0  0  0  0  2  0  0  0  0  0  0
  190.8430  177.2620  141.9150 C   0  0  1  0  0  3  0  0  0  0  0  0
  190.6160  175.9200  142.6000 C   0  0  0  0  0  2  0  0  0  0  0  0
  191.4710  178.3420  144.0670 N   0  0  0  0  0  0  0  0  0  0  0  0
  190.2920  179.2090  144.0660 C   0  0  0  0  0  1  0  0  0  0  0  0
  191.8800  178.0930  142.6810 C   0  0  0  0  0  2  0  0  0  0  0  0
  190.8190  177.2880  146.2070 C   0  0  0  0  0  0  0  0  0  0  0  0
  191.2450  177.0680  144.7850 C   0  0  1  0  0  3  0  0  0  0  0  0
  191.6710  177.5550  147.0930 O   0  0  0  0  0  0  0  0  0  0  0  0
  186.4100  178.2330  145.0740 C   0  0  0  0  0  3  0  0  0  0  0  0
  186.4490  178.3710  143.7330 C   0  0  0  0  0  0  0  0  0  0  0  0
  187.1870  177.4670  142.7610 C   0  0  0  0  0  2  0  0  0  0  0  0
  188.4410  176.8980  145.5540 C   0  0  0  0  0  0  0  0  0  0  0  0
  187.7520  176.1610  143.3150 C   0  0  0  0  0  2  0  0  0  0  0  0
  188.8070  176.4370  144.3450 C   0  0  0  0  0  0  0  0  0  0  0  0
  185.8070  179.5930  143.1580 C   0  0  0  0  0  2  0  0  0  0  0  0
  185.2920  179.6460  140.8230 O   0  0  0  0  0  1  0  0  0  0  0  0
  184.8140  179.2270  142.0650 C   0  0  0  0  0  2  0  0  0  0  0  0
  191.2230  177.0910  140.4440 C   0  0  0  0  0  2  0  0  0  0  0  0
  187.9010  178.0150  138.8790 C   0  0  0  0  0  3  0  0  0  0  0  0
  189.9720  176.2160  138.4930 N   0  0  0  0  0  0  0  0  0  0  0  0
  186.6960  176.1370  135.9210 C   0  0  0  0  0  0  0  0  0  0  0  0
  186.7470  177.0730  136.9640 C   0  0  0  0  0  3  0  0  0  0  0  0
  187.8430  177.0980  137.8300 C   0  0  0  0  0  0  0  0  0  0  0  0
  188.8650  175.2700  136.5990 C   0  0  0  0  0  3  0  0  0  0  0  0
  188.9080  176.1890  137.6480 C   0  0  0  0  0  0  0  0  0  0  0  0
  187.7650  175.2470  135.7350 C   0  0  0  0  0  3  0  0  0  0  0  0
  190.0430  177.1060  139.5220 C   0  0  0  0  0  0  0  0  0  0  0  0
  189.0050  178.0210  139.7330 C   0  0  0  0  0  3  0  0  0  0  0  0
  185.5450  176.1350  134.9640 C   0  0  1  0  0  3  0  0  0  0  0  0
  185.3060  174.7900  134.4430 C   0  0  0  0  0  2  0  0  0  0  0  0
  184.4420  175.3200  135.5040 N   0  0  0  0  0  2  0  0  0  0  0  0
  1  5  1  6  0  0  0
  1 17  1  0  0  0  0
  1 10  1  0  0  0  0
  4 21  1  6  0  0  0
  4  5  1  0  0  0  0
  4  8  1  0  0  0  0
  6 10  1  0  0  0  0
  7  6  1  0  0  0  0
  8  6  1  0  0  0  0
  9  3  1  0  0  0  0
  9 11  2  0  0  0  0
 10  9  1  1  0  0  0
 12  2  1  0  0  0  0
 13 12  2  0  0  0  0
 14 16  1  0  0  0  0
 14 13  1  0  0  0  0
 15  2  1  0  0  0  0
 15  3  1  0  0  0  0
 16 17  1  0  0  0  0
 17 15  2  0  0  0  0
 18 13  1  0  0  0  0
 19 20  1  0  0  0  0
 20 18  1  0  0  0  0
 22 31  1  0  0  0  0
 23 30  1  0  0  0  0
 24 25  2  0  0  0  0
 25 26  1  0  0  0  0
 26 22  2  0  0  0  0
 27 28  1  0  0  0  0
 28 26  1  0  0  0  0
 28 23  2  0  0  0  0
 29 24  1  0  0  0  0
 29 27  2  0  0  0  0
 30 31  2  0  0  0  0
 30 21  1  0  0  0  0
 32 34  1  0  0  0  0
 32 24  1  1  0  0  0
 33 32  1  0  0  0  0
 33 34  1  0  0  0  0
M  END
>  <MODEL>
2

>  <REMARK>
 VINA RESULT:      -7.9      2.166      3.077
  Name = 
  5 active torsions:
  status: ('A' for Active; 'I' for Inactive)
    1  A    between atoms: C_3  and  C_24
    2  A    between atoms: C_3  and  C_25
    3  A    between atoms: C_7  and  C_11
    4  A    between atoms: C_8  and  C_18
    5  A    between atoms: C_18  and  C_30
                            x       y       z     vdW  Elec       q    Type
                         _______ _______ _______ _____ _____    ______ ____

>  <TORSDO>
F 5

$$$$
=
 OpenBabel10272415293D

 34 39  0  0  1  0  0  0  0  0999 V2000
  189.6770  176.7060  135.8460 C   0  0  1  0  0  3  0  0  0  0  0  0
  186.0260  177.1980  134.7040 C   0  0  0  0  0  2  0  0  0  0  0  0
  187.6630  175.2940  134.4360 N   0  0  0  0  0  2  0  0  0  0  0  0
  190.1750  176.7190  138.3130 C   0  0  1  0  0  3  0  0  0  0  0  0
  190.5080  177.3400  136.9620 C   0  0  0  0  0  2  0  0  0  0  0  0
  189.4350  174.5980  137.2410 N   0  0  0  0  0  0  0  0  0  0  0  0
  188.0430  174.7870  137.6500 C   0  0  0  0  0  1  0  0  0  0  0  0
  190.3140  175.1920  138.2550 C   0  0  0  0  0  2  0  0  0  0  0  0
  188.8340  174.5790  134.8420 C   0  0  0  0  0  0  0  0  0  0  0  0
  189.7220  175.1620  135.9030 C   0  0  1  0  0  3  0  0  0  0  0  0
  189.0920  173.4520  134.3460 O   0  0  0  0  0  0  0  0  0  0  0  0
  185.2020  177.2580  135.9580 C   0  0  0  0  0  3  0  0  0  0  0  0
  185.5670  177.8180  137.1290 C   0  0  0  0  0  0  0  0  0  0  0  0
  186.9300  178.4070  137.4530 C   0  0  0  0  0  2  0  0  0  0  0  0
  187.3700  176.5970  134.9570 C   0  0  0  0  0  0  0  0  0  0  0  0
  187.9060  178.5880  136.2930 C   0  0  0  0  0  2  0  0  0  0  0  0
  188.2740  177.2590  135.7010 C   0  0  0  0  0  0  0  0  0  0  0  0
  184.5830  177.7460  138.2520 C   0  0  0  0  0  2  0  0  0  0  0  0
  184.0660  179.9140  139.1200 O   0  0  0  0  0  1  0  0  0  0  0  0
  184.8820  178.7980  139.3090 C   0  0  0  0  0  2  0  0  0  0  0  0
  191.0150  177.3240  139.4380 C   0  0  0  0  0  2  0  0  0  0  0  0
  188.3160  177.4260  142.0920 C   0  0  0  0  0  3  0  0  0  0  0  0
  191.0650  177.1340  141.9070 N   0  0  0  0  0  0  0  0  0  0  0  0
  189.2570  177.0970  145.6610 C   0  0  0  0  0  0  0  0  0  0  0  0
  188.4750  177.2480  144.5060 C   0  0  0  0  0  3  0  0  0  0  0  0
  189.0800  177.2640  143.2480 C   0  0  0  0  0  0  0  0  0  0  0  0
  191.2550  176.9490  144.2830 C   0  0  0  0  0  3  0  0  0  0  0  0
  190.4790  177.1160  143.1340 C   0  0  0  0  0  0  0  0  0  0  0  0
  190.6460  176.9330  145.5410 C   0  0  0  0  0  3  0  0  0  0  0  0
  190.3320  177.2910  140.7700 C   0  0  0  0  0  0  0  0  0  0  0  0
  188.9420  177.4410  140.8440 C   0  0  0  0  0  3  0  0  0  0  0  0
  188.6090  177.0340  147.0090 C   0  0  1  0  0  3  0  0  0  0  0  0
  189.1780  178.0400  147.9050 C   0  0  0  0  0  2  0  0  0  0  0  0
  187.8760  178.2850  147.2740 N   0  0  0  0  0  2  0  0  0  0  0  0
  1 10  1  0  0  0  0
  1  5  1  1  0  0  0
  2 15  1  0  0  0  0
  2 12  1  0  0  0  0
  3  9  1  0  0  0  0
  3 15  1  0  0  0  0
  4 21  1  1  0  0  0
  5  4  1  0  0  0  0
  6  7  1  0  0  0  0
  6  8  1  0  0  0  0
  8  4  1  0  0  0  0
 10  9  1  6  0  0  0
 10  6  1  0  0  0  0
 11  9  2  0  0  0  0
 12 13  2  0  0  0  0
 13 14  1  0  0  0  0
 13 18  1  0  0  0  0
 15 17  2  0  0  0  0
 16 14  1  0  0  0  0
 17  1  1  0  0  0  0
 17 16  1  0  0  0  0
 18 20  1  0  0  0  0
 19 20  1  0  0  0  0
 21 30  1  0  0  0  0
 22 26  1  0  0  0  0
 23 28  1  0  0  0  0
 25 24  2  0  0  0  0
 26 25  1  0  0  0  0
 27 29  2  0  0  0  0
 28 26  2  0  0  0  0
 28 27  1  0  0  0  0
 29 24  1  0  0  0  0
 30 31  1  0  0  0  0
 30 23  2  0  0  0  0
 31 22  2  0  0  0  0
 32 24  1  6  0  0  0
 32 34  1  0  0  0  0
 32 33  1  0  0  0  0
 34 33  1  0  0  0  0
M  END
>  <MODEL>
3

>  <REMARK>
 VINA RESULT:      -7.5      3.472      8.114
  Name = 
  5 active torsions:
  status: ('A' for Active; 'I' for Inactive)
    1  A    between atoms: C_3  and  C_24
    2  A    between atoms: C_3  and  C_25
    3  A    between atoms: C_7  and  C_11
    4  A    between atoms: C_8  and  C_18
    5  A    between atoms: C_18  and  C_30
                            x       y       z     vdW  Elec       q    Type
                         _______ _______ _______ _____ _____    ______ ____

>  <TORSDO>
F 5

$$$$
=
 OpenBabel10272415293D

 34 39  0  0  1  0  0  0  0  0999 V2000
  188.7900  175.0810  137.1940 C   0  0  1  0  0  3  0  0  0  0  0  0
  191.5780  173.1670  135.3370 C   0  0  0  0  0  2  0  0  0  0  0  0
  189.1050  173.4410  134.9020 N   0  0  0  0  0  2  0  0  0  0  0  0
  188.9800  177.5830  137.3930 C   0  0  1  0  0  3  0  0  0  0  0  0
  188.8140  176.2720  138.1520 C   0  0  0  0  0  2  0  0  0  0  0  0
  187.9750  176.6080  135.3350 N   0  0  0  0  0  0  0  0  0  0  0  0
  189.2280  176.6990  134.5860 C   0  0  0  0  0  1  0  0  0  0  0  0
  187.9140  177.7130  136.2980 C   0  0  0  0  0  2  0  0  0  0  0  0
  187.8740  174.1520  135.0630 C   0  0  0  0  0  0  0  0  0  0  0  0
  187.8100  175.3060  136.0210 C   0  0  1  0  0  3  0  0  0  0  0  0
  186.8680  173.8390  134.3760 O   0  0  0  0  0  0  0  0  0  0  0  0
  192.5150  174.2110  134.8030 C   0  0  0  0  0  3  0  0  0  0  0  0
  192.8530  175.3680  135.4080 C   0  0  0  0  0  0  0  0  0  0  0  0
  192.2710  175.9030  136.7060 C   0  0  0  0  0  2  0  0  0  0  0  0
  190.2530  173.7530  135.7040 C   0  0  0  0  0  0  0  0  0  0  0  0
  191.3900  174.9570  137.5180 C   0  0  0  0  0  2  0  0  0  0  0  0
  190.1540  174.5940  136.7480 C   0  0  0  0  0  0  0  0  0  0  0  0
  193.7990  176.2660  134.6770 C   0  0  0  0  0  2  0  0  0  0  0  0
  195.3930  177.8710  135.4510 O   0  0  0  0  0  1  0  0  0  0  0  0
  195.0570  176.5180  135.4950 C   0  0  0  0  0  2  0  0  0  0  0  0
  188.9800  178.7880  138.3340 C   0  0  0  0  0  2  0  0  0  0  0  0
  189.4360  177.4310  141.8400 C   0  0  0  0  0  3  0  0  0  0  0  0
  187.4990  178.6990  140.3170 N   0  0  0  0  0  0  0  0  0  0  0  0
  186.6390  177.6590  144.2590 C   0  0  0  0  0  0  0  0  0  0  0  0
  187.9010  177.3750  143.7170 C   0  0  0  0  0  3  0  0  0  0  0  0
  188.1900  177.7190  142.3950 C   0  0  0  0  0  0  0  0  0  0  0  0
  185.9650  178.6640  142.1490 C   0  0  0  0  0  3  0  0  0  0  0  0
  187.2150  178.3650  141.6040 C   0  0  0  0  0  0  0  0  0  0  0  0
  185.6800  178.3170  143.4730 C   0  0  0  0  0  3  0  0  0  0  0  0
  188.7120  178.4240  139.7610 C   0  0  0  0  0  0  0  0  0  0  0  0
  189.7020  177.7830  140.5150 C   0  0  0  0  0  3  0  0  0  0  0  0
  186.3400  177.3320  145.6890 C   0  0  1  0  0  3  0  0  0  0  0  0
  187.4800  177.6620  146.5440 C   0  0  0  0  0  2  0  0  0  0  0  0
  186.3250  178.5660  146.4950 N   0  0  0  0  0  2  0  0  0  0  0  0
  1  5  1  6  0  0  0
  2 15  1  0  0  0  0
  3  9  1  0  0  0  0
  3 15  1  0  0  0  0
  4  5  1  0  0  0  0
  4 21  1  1  0  0  0
  6 10  1  0  0  0  0
  6  8  1  0  0  0  0
  7  6  1  0  0  0  0
  8  4  1  0  0  0  0
 10  9  1  6  0  0  0
 10  1  1  0  0  0  0
 11  9  2  0  0  0  0
 12  2  1  0  0  0  0
 12 13  2  0  0  0  0
 13 14  1  0  0  0  0
 14 16  1  0  0  0  0
 15 17  2  0  0  0  0
 17  1  1  0  0  0  0
 17 16  1  0  0  0  0
 18 13  1  0  0  0  0
 18 20  1  0  0  0  0
 19 20  1  0  0  0  0
 21 30  1  0  0  0  0
 22 26  1  0  0  0  0
 23 28  1  0  0  0  0
 25 24  1  0  0  0  0
 26 25  2  0  0  0  0
 27 29  1  0  0  0  0
 28 27  2  0  0  0  0
 28 26  1  0  0  0  0
 29 24  2  0  0  0  0
 30 23  2  0  0  0  0
 30 31  1  0  0  0  0
 31 22  2  0  0  0  0
 32 24  1  6  0  0  0
 32 34  1  0  0  0  0
 32 33  1  0  0  0  0
 34 33  1  0  0  0  0
M  END
>  <MODEL>
4

>  <REMARK>
 VINA RESULT:      -7.5      4.614      8.887
  Name = 
  5 active torsions:
  status: ('A' for Active; 'I' for Inactive)
    1  A    between atoms: C_3  and  C_24
    2  A    between atoms: C_3  and  C_25
    3  A    between atoms: C_7  and  C_11
    4  A    between atoms: C_8  and  C_18
    5  A    between atoms: C_18  and  C_30
                            x       y       z     vdW  Elec       q    Type
                         _______ _______ _______ _____ _____    ______ ____

>  <TORSDO>
F 5

$$$$
=
 OpenBabel10272415293D

 34 39  0  0  1  0  0  0  0  0999 V2000
  180.6540  178.1530  138.5460 C   0  0  1  0  0  3  0  0  0  0  0  0
  183.4540  177.0620  136.1270 C   0  0  0  0  0  2  0  0  0  0  0  0
  181.5920  178.7590  135.9400 N   0  0  0  0  0  2  0  0  0  0  0  0
  181.3060  179.1870  140.7470 C   0  0  1  0  0  3  0  0  0  0  0  0
  180.5130  178.0770  140.0670 C   0  0  0  0  0  2  0  0  0  0  0  0
  181.1560  180.6360  138.7290 N   0  0  0  0  0  0  0  0  0  0  0  0
  182.5960  180.5690  138.4790 C   0  0  0  0  0  1  0  0  0  0  0  0
  180.9200  180.5570  140.1750 C   0  0  0  0  0  2  0  0  0  0  0  0
  180.6250  179.6310  136.5320 C   0  0  0  0  0  0  0  0  0  0  0  0
  180.4000  179.5820  138.0160 C   0  0  1  0  0  3  0  0  0  0  0  0
  180.0030  180.4610  135.8220 O   0  0  0  0  0  0  0  0  0  0  0  0
  184.7450  177.4890  136.7640 C   0  0  0  0  0  3  0  0  0  0  0  0
  185.0260  177.4820  138.0830 C   0  0  0  0  0  0  0  0  0  0  0  0
  184.0570  177.1450  139.2040 C   0  0  0  0  0  2  0  0  0  0  0  0
  182.2840  177.7760  136.7230 C   0  0  0  0  0  0  0  0  0  0  0  0
  182.7110  176.5450  138.8050 C   0  0  0  0  0  2  0  0  0  0  0  0
  181.9170  177.5250  137.9920 C   0  0  0  0  0  0  0  0  0  0  0  0
  186.3810  177.9670  138.4910 C   0  0  0  0  0  2  0  0  0  0  0  0
  188.3040  179.1610  137.7190 O   0  0  0  0  0  1  0  0  0  0  0  0
  187.1590  178.4870  137.2920 C   0  0  0  0  0  2  0  0  0  0  0  0
  181.1550  179.1420  142.2680 C   0  0  0  0  0  2  0  0  0  0  0  0
  183.7110  178.7520  145.0350 C   0  0  0  0  0  3  0  0  0  0  0  0
  183.5650  178.5740  142.2740 N   0  0  0  0  0  0  0  0  0  0  0  0
  187.2130  177.9060  144.1720 C   0  0  0  0  0  0  0  0  0  0  0  0
  186.0730  178.2090  144.9300 C   0  0  0  0  0  3  0  0  0  0  0  0
  184.8500  178.4370  144.2950 C   0  0  0  0  0  0  0  0  0  0  0  0
  185.8890  178.0310  142.1360 C   0  0  0  0  0  3  0  0  0  0  0  0
  184.7570  178.3510  142.8890 C   0  0  0  0  0  0  0  0  0  0  0  0
  187.1110  177.8040  142.7760 C   0  0  0  0  0  3  0  0  0  0  0  0
  182.4450  178.8830  142.9830 C   0  0  0  0  0  0  0  0  0  0  0  0
  182.4990  178.9780  144.3790 C   0  0  0  0  0  3  0  0  0  0  0  0
  188.5160  177.6160  144.8520 C   0  0  1  0  0  3  0  0  0  0  0  0
  189.4300  176.9230  143.9450 C   0  0  0  0  0  2  0  0  0  0  0  0
  189.6040  178.3590  144.1900 N   0  0  0  0  0  2  0  0  0  0  0  0
  1  5  1  1  0  0  0
  2 15  1  0  0  0  0
  2 12  1  0  0  0  0
  3  9  1  0  0  0  0
  3 15  1  0  0  0  0
  4 21  1  1  0  0  0
  5  4  1  0  0  0  0
  6  8  1  0  0  0  0
  7  6  1  0  0  0  0
  8  4  1  0  0  0  0
 10  9  1  6  0  0  0
 10  1  1  0  0  0  0
 10  6  1  0  0  0  0
 11  9  2  0  0  0  0
 12 13  2  0  0  0  0
 13 18  1  0  0  0  0
 13 14  1  0  0  0  0
 15 17  2  0  0  0  0
 16 14  1  0  0  0  0
 17  1  1  0  0  0  0
 17 16  1  0  0  0  0
 20 19  1  0  0  0  0
 20 18  1  0  0  0  0
 21 30  1  0  0  0  0
 23 28  2  0  0  0  0
 23 30  1  0  0  0  0
 24 25  2  0  0  0  0
 26 25  1  0  0  0  0
 26 22  2  0  0  0  0
 27 29  2  0  0  0  0
 27 28  1  0  0  0  0
 28 26  1  0  0  0  0
 29 24  1  0  0  0  0
 30 31  2  0  0  0  0
 31 22  1  0  0  0  0
 32 24  1  6  0  0  0
 33 34  1  0  0  0  0
 33 32  1  0  0  0  0
 34 32  1  0  0  0  0
M  END
>  <MODEL>
5

>  <REMARK>
 VINA RESULT:      -7.4      2.979      9.235
  Name = 
  5 active torsions:
  status: ('A' for Active; 'I' for Inactive)
    1  A    between atoms: C_3  and  C_24
    2  A    between atoms: C_3  and  C_25
    3  A    between atoms: C_7  and  C_11
    4  A    between atoms: C_8  and  C_18
    5  A    between atoms: C_18  and  C_30
                            x       y       z     vdW  Elec       q    Type
                         _______ _______ _______ _____ _____    ______ ____

>  <TORSDO>
F 5

$$$$
=
 OpenBabel10272415293D

 34 39  0  0  1  0  0  0  0  0999 V2000
  190.5930  174.6730  137.7490 C   0  0  1  0  0  3  0  0  0  0  0  0
  193.6590  173.4220  135.7690 C   0  0  0  0  0  2  0  0  0  0  0  0
  191.2030  172.8390  135.6730 N   0  0  0  0  0  2  0  0  0  0  0  0
  189.9690  177.1060  137.5840 C   0  0  1  0  0  3  0  0  0  0  0  0
  190.3180  175.9600  138.5260 C   0  0  0  0  0  2  0  0  0  0  0  0
  189.1440  175.5270  135.8460 N   0  0  0  0  0  0  0  0  0  0  0  0
  190.2180  175.8690  134.9140 C   0  0  0  0  0  1  0  0  0  0  0  0
  188.8170  176.7090  136.6520 C   0  0  0  0  0  2  0  0  0  0  0  0
  189.8280  173.1510  135.9200 C   0  0  0  0  0  0  0  0  0  0  0  0
  189.4830  174.3770  136.7150 C   0  0  1  0  0  3  0  0  0  0  0  0
  188.9190  172.4290  135.4380 O   0  0  0  0  0  0  0  0  0  0  0  0
  194.1440  174.5950  134.9680 C   0  0  0  0  0  3  0  0  0  0  0  0
  194.1410  175.8860  135.3570 C   0  0  0  0  0  0  0  0  0  0  0  0
  193.5450  176.4320  136.6440 C   0  0  0  0  0  2  0  0  0  0  0  0
  192.2570  173.6240  136.2470 C   0  0  0  0  0  0  0  0  0  0  0  0
  193.1080  175.4150  137.6970 C   0  0  0  0  0  2  0  0  0  0  0  0
  191.9910  174.5610  137.1740 C   0  0  0  0  0  0  0  0  0  0  0  0
  194.6630  176.8910  134.3810 C   0  0  0  0  0  2  0  0  0  0  0  0
  195.7240  178.7660  135.4190 O   0  0  0  0  0  1  0  0  0  0  0  0
  195.9650  177.5050  134.8730 C   0  0  0  0  0  2  0  0  0  0  0  0
  189.6660  178.3960  138.3470 C   0  0  0  0  0  2  0  0  0  0  0  0
  187.5700  178.1080  141.4870 C   0  0  0  0  0  3  0  0  0  0  0  0
  190.2080  177.8200  140.6940 N   0  0  0  0  0  0  0  0  0  0  0  0
  189.2020  177.2150  144.6910 C   0  0  0  0  0  0  0  0  0  0  0  0
  188.2090  177.5530  143.7600 C   0  0  0  0  0  3  0  0  0  0  0  0
  188.5450  177.7600  142.4210 C   0  0  0  0  0  0  0  0  0  0  0  0
  190.8700  177.2640  142.9220 C   0  0  0  0  0  3  0  0  0  0  0  0
  189.8840  177.6170  141.9980 C   0  0  0  0  0  0  0  0  0  0  0  0
  190.5290  177.0580  144.2620 C   0  0  0  0  0  3  0  0  0  0  0  0
  189.2670  178.1610  139.7710 C   0  0  0  0  0  0  0  0  0  0  0  0
  187.9290  178.3120  140.1530 C   0  0  0  0  0  3  0  0  0  0  0  0
  188.8390  176.9480  146.1190 C   0  0  1  0  0  3  0  0  0  0  0  0
  190.0340  176.9290  146.9620 C   0  0  0  0  0  2  0  0  0  0  0  0
  189.1750  178.1180  146.9500 N   0  0  0  0  0  2  0  0  0  0  0  0
  1  5  1  6  0  0  0
  2 15  1  0  0  0  0
  3  9  1  0  0  0  0
  3 15  1  0  0  0  0
  4 21  1  1  0  0  0
  4  5  1  0  0  0  0
  6  8  1  0  0  0  0
  6 10  1  0  0  0  0
  7  6  1  0  0  0  0
  8  4  1  0  0  0  0
 10  9  1  6  0  0  0
 10  1  1  0  0  0  0
 11  9  2  0  0  0  0
 12 13  2  0  0  0  0
 12  2  1  0  0  0  0
 13 14  1  0  0  0  0
 14 16  1  0  0  0  0
 15 17  2  0  0  0  0
 17 16  1  0  0  0  0
 17  1  1  0  0  0  0
 18 20  1  0  0  0  0
 18 13  1  0  0  0  0
 20 19  1  0  0  0  0
 21 30  1  0  0  0  0
 22 26  1  0  0  0  0
 23 28  1  0  0  0  0
 25 24  2  0  0  0  0
 26 25  1  0  0  0  0
 27 29  2  0  0  0  0
 28 26  2  0  0  0  0
 28 27  1  0  0  0  0
 29 24  1  0  0  0  0
 30 31  1  0  0  0  0
 30 23  2  0  0  0  0
 31 22  2  0  0  0  0
 32 24  1  6  0  0  0
 32 34  1  0  0  0  0
 32 33  1  0  0  0  0
 34 33  1  0  0  0  0
M  END
>  <MODEL>
6

>  <REMARK>
 VINA RESULT:      -7.4      4.991      9.306
  Name = 
  5 active torsions:
  status: ('A' for Active; 'I' for Inactive)
    1  A    between atoms: C_3  and  C_24
    2  A    between atoms: C_3  and  C_25
    3  A    between atoms: C_7  and  C_11
    4  A    between atoms: C_8  and  C_18
    5  A    between atoms: C_18  and  C_30
                            x       y       z     vdW  Elec       q    Type
                         _______ _______ _______ _____ _____    ______ ____

>  <TORSDO>
F 5

$$$$
=
 OpenBabel10272415293D

 34 39  0  0  1  0  0  0  0  0999 V2000
  189.4280  178.2850  137.1160 C   0  0  1  0  0  3  0  0  0  0  0  0
  187.0930  176.9590  134.3460 C   0  0  0  0  0  2  0  0  0  0  0  0
  189.5060  176.4880  134.9250 N   0  0  0  0  0  2  0  0  0  0  0  0
  188.8190  177.8350  139.5170 C   0  0  1  0  0  3  0  0  0  0  0  0
  189.1590  178.9060  138.4870 C   0  0  0  0  0  2  0  0  0  0  0  0
  190.0760  176.1050  138.2450 N   0  0  0  0  0  0  0  0  0  0  0  0
  188.8650  175.3470  137.9280 C   0  0  0  0  0  1  0  0  0  0  0  0
  189.9050  176.7520  139.5500 C   0  0  0  0  0  2  0  0  0  0  0  0
  190.5940  176.4720  135.8540 C   0  0  0  0  0  0  0  0  0  0  0  0
  190.4180  177.1020  137.2060 C   0  0  1  0  0  3  0  0  0  0  0  0
  191.6720  175.8960  135.5570 O   0  0  0  0  0  0  0  0  0  0  0  0
  186.0260  176.1680  135.0460 C   0  0  0  0  0  3  0  0  0  0  0  0
  185.4710  176.4530  136.2410 C   0  0  0  0  0  0  0  0  0  0  0  0
  185.8900  177.5750  137.1770 C   0  0  0  0  0  2  0  0  0  0  0  0
  188.2830  177.1740  135.2250 C   0  0  0  0  0  0  0  0  0  0  0  0
  186.8710  178.6100  136.6310 C   0  0  0  0  0  2  0  0  0  0  0  0
  188.1880  177.9690  136.3050 C   0  0  0  0  0  0  0  0  0  0  0  0
  184.4290  175.5090  136.7490 C   0  0  0  0  0  2  0  0  0  0  0  0
  182.0850  175.2770  137.1620 O   0  0  0  0  0  1  0  0  0  0  0  0
  183.0930  176.2140  136.9280 C   0  0  0  0  0  2  0  0  0  0  0  0
  188.5710  178.4370  140.9010 C   0  0  0  0  0  2  0  0  0  0  0  0
  185.3820  178.1560  142.9230 C   0  0  0  0  0  3  0  0  0  0  0  0
  186.1850  178.8080  140.3530 N   0  0  0  0  0  0  0  0  0  0  0  0
  182.1280  178.8640  141.2990 C   0  0  0  0  0  0  0  0  0  0  0  0
  183.0730  178.5260  142.2790 C   0  0  0  0  0  3  0  0  0  0  0  0
  184.4330  178.5030  141.9630 C   0  0  0  0  0  0  0  0  0  0  0  0
  183.9210  179.1870  139.6880 C   0  0  0  0  0  3  0  0  0  0  0  0
  184.8600  178.8330  140.6580 C   0  0  0  0  0  0  0  0  0  0  0  0
  182.5600  179.2080  140.0090 C   0  0  0  0  0  3  0  0  0  0  0  0
  187.1230  178.4710  141.2810 C   0  0  0  0  0  0  0  0  0  0  0  0
  186.7370  178.1380  142.5840 C   0  0  0  0  0  3  0  0  0  0  0  0
  180.6730  178.9340  141.6460 C   0  0  1  0  0  3  0  0  0  0  0  0
  180.4870  178.9600  143.0970 C   0  0  0  0  0  2  0  0  0  0  0  0
  180.3790  180.2070  142.3300 N   0  0  0  0  0  2  0  0  0  0  0  0
  1 10  1  0  0  0  0
  1  5  1  1  0  0  0
  2 12  1  0  0  0  0
  2 15  1  0  0  0  0
  3 15  1  0  0  0  0
  3  9  1  0  0  0  0
  4  8  1  0  0  0  0
  4 21  1  1  0  0  0
  5  4  1  0  0  0  0
  6  8  1  0  0  0  0
  7  6  1  0  0  0  0
 10  9  1  6  0  0  0
 10  6  1  0  0  0  0
 11  9  2  0  0  0  0
 12 13  2  0  0  0  0
 13 18  1  0  0  0  0
 13 14  1  0  0  0  0
 15 17  2  0  0  0  0
 16 14  1  0  0  0  0
 17 16  1  0  0  0  0
 17  1  1  0  0  0  0
 18 20  1  0  0  0  0
 20 19  1  0  0  0  0
 21 30  1  0  0  0  0
 23 28  2  0  0  0  0
 23 30  1  0  0  0  0
 24 25  2  0  0  0  0
 26 25  1  0  0  0  0
 26 22  2  0  0  0  0
 27 29  2  0  0  0  0
 27 28  1  0  0  0  0
 28 26  1  0  0  0  0
 29 24  1  0  0  0  0
 30 31  2  0  0  0  0
 31 22  1  0  0  0  0
 32 24  1  1  0  0  0
 32 34  1  0  0  0  0
 32 33  1  0  0  0  0
 34 33  1  0  0  0  0
M  END
>  <MODEL>
7

>  <REMARK>
 VINA RESULT:      -7.3      3.873      6.887
  Name = 
  5 active torsions:
  status: ('A' for Active; 'I' for Inactive)
    1  A    between atoms: C_3  and  C_24
    2  A    between atoms: C_3  and  C_25
    3  A    between atoms: C_7  and  C_11
    4  A    between atoms: C_8  and  C_18
    5  A    between atoms: C_18  and  C_30
                            x       y       z     vdW  Elec       q    Type
                         _______ _______ _______ _____ _____    ______ ____

>  <TORSDO>
F 5

$$$$
=
 OpenBabel10272415293D

 34 39  0  0  1  0  0  0  0  0999 V2000
  182.7810  177.9430  137.0220 C   0  0  1  0  0  3  0  0  0  0  0  0
  181.2830  179.0740  140.3930 C   0  0  0  0  0  2  0  0  0  0  0  0
  180.5600  177.3590  138.6850 N   0  0  0  0  0  2  0  0  0  0  0  0
  185.0750  176.9060  137.0160 C   0  0  1  0  0  3  0  0  0  0  0  0
  184.1950  178.0110  136.4430 C   0  0  0  0  0  2  0  0  0  0  0  0
  183.0990  175.4650  137.4770 N   0  0  0  0  0  0  0  0  0  0  0  0
  183.2790  175.5480  138.9260 C   0  0  0  0  0  1  0  0  0  0  0  0
  184.4130  175.5350  136.8290 C   0  0  0  0  0  2  0  0  0  0  0  0
  180.8440  176.4740  137.5970 C   0  0  0  0  0  0  0  0  0  0  0  0
  182.1980  176.5140  136.9490 C   0  0  1  0  0  3  0  0  0  0  0  0
  179.9820  175.6410  137.2180 O   0  0  0  0  0  0  0  0  0  0  0  0
  182.2680  178.6580  141.4460 C   0  0  0  0  0  3  0  0  0  0  0  0
  183.6120  178.6610  141.3320 C   0  0  0  0  0  0  0  0  0  0  0  0
  184.4020  178.9840  140.0740 C   0  0  0  0  0  2  0  0  0  0  0  0
  181.5120  178.3450  139.1080 C   0  0  0  0  0  0  0  0  0  0  0  0
  183.6300  179.5710  138.8960 C   0  0  0  0  0  2  0  0  0  0  0  0
  182.6190  178.5870  138.3840 C   0  0  0  0  0  0  0  0  0  0  0  0
  184.3960  178.1890  142.5140 C   0  0  0  0  0  2  0  0  0  0  0  0
  184.0990  179.1820  144.6690 O   0  0  0  0  0  1  0  0  0  0  0  0
  184.7390  179.3450  143.4400 C   0  0  0  0  0  2  0  0  0  0  0  0
  186.4860  176.9430  136.4280 C   0  0  0  0  0  2  0  0  0  0  0  0
  189.7680  176.3260  138.2140 C   0  0  0  0  0  3  0  0  0  0  0  0
  187.3440  177.5920  138.6590 N   0  0  0  0  0  0  0  0  0  0  0  0
  190.2490  177.6380  141.6450 C   0  0  0  0  0  0  0  0  0  0  0  0
  190.5060  176.9940  140.4260 C   0  0  0  0  0  3  0  0  0  0  0  0
  189.5320  176.9740  139.4260 C   0  0  0  0  0  0  0  0  0  0  0  0
  188.0430  178.2700  140.8420 C   0  0  0  0  0  3  0  0  0  0  0  0
  188.2910  177.6130  139.6350 C   0  0  0  0  0  0  0  0  0  0  0  0
  189.0210  178.2880  141.8410 C   0  0  0  0  0  3  0  0  0  0  0  0
  187.5610  176.9630  137.4710 C   0  0  0  0  0  0  0  0  0  0  0  0
  188.7790  176.3170  137.2280 C   0  0  0  0  0  3  0  0  0  0  0  0
  191.3070  177.7010  142.7030 C   0  0  1  0  0  3  0  0  0  0  0  0
  190.7070  177.6970  144.0360 C   0  0  0  0  0  2  0  0  0  0  0  0
  191.2930  176.4620  143.5020 N   0  0  0  0  0  2  0  0  0  0  0  0
  1  5  1  1  0  0  0
  1 17  1  0  0  0  0
  2 12  1  0  0  0  0
  3 15  1  0  0  0  0
  4 21  1  6  0  0  0
  5  4  1  0  0  0  0
  6  7  1  0  0  0  0
  8  4  1  0  0  0  0
  8  6  1  0  0  0  0
  9  3  1  0  0  0  0
 10  1  1  0  0  0  0
 10  6  1  0  0  0  0
 10  9  1  1  0  0  0
 11  9  2  0  0  0  0
 13 12  2  0  0  0  0
 13 18  1  0  0  0  0
 14 13  1  0  0  0  0
 15  2  1  0  0  0  0
 16 14  1  0  0  0  0
 17 16  1  0  0  0  0
 17 15  2  0  0  0  0
 18 20  1  0  0  0  0
 20 19  1  0  0  0  0
 21 30  1  0  0  0  0
 22 26  1  0  0  0  0
 23 28  1  0  0  0  0
 24 29  1  0  0  0  0
 25 24  2  0  0  0  0
 26 28  2  0  0  0  0
 26 25  1  0  0  0  0
 27 29  2  0  0  0  0
 28 27  1  0  0  0  0
 30 23  2  0  0  0  0
 31 30  1  0  0  0  0
 31 22  2  0  0  0  0
 32 24  1  6  0  0  0
 32 34  1  0  0  0  0
 32 33  1  0  0  0  0
 34 33  1  0  0  0  0
M  END
>  <MODEL>
8

>  <REMARK>
 VINA RESULT:      -6.8      2.495      7.867
  Name = 
  5 active torsions:
  status: ('A' for Active; 'I' for Inactive)
    1  A    between atoms: C_3  and  C_24
    2  A    between atoms: C_3  and  C_25
    3  A    between atoms: C_7  and  C_11
    4  A    between atoms: C_8  and  C_18
    5  A    between atoms: C_18  and  C_30
                            x       y       z     vdW  Elec       q    Type
                         _______ _______ _______ _____ _____    ______ ____

>  <TORSDO>
F 5

$$$$
=
 OpenBabel10272415293D

 34 39  0  0  1  0  0  0  0  0999 V2000
  189.7970  177.4400  136.3780 C   0  0  1  0  0  3  0  0  0  0  0  0
  188.3340  174.4290  134.4600 C   0  0  0  0  0  2  0  0  0  0  0  0
  190.6930  175.0850  135.0770 N   0  0  0  0  0  2  0  0  0  0  0  0
  189.1320  177.7690  138.7830 C   0  0  1  0  0  3  0  0  0  0  0  0
  189.1980  178.4060  137.4000 C   0  0  0  0  0  2  0  0  0  0  0  0
  191.0170  176.2340  138.2510 N   0  0  0  0  0  0  0  0  0  0  0  0
  190.1670  175.0440  138.3100 C   0  0  0  0  0  1  0  0  0  0  0  0
  190.5070  177.2320  139.1980 C   0  0  0  0  0  2  0  0  0  0  0  0
  191.6230  175.8060  135.8920 C   0  0  0  0  0  0  0  0  0  0  0  0
  191.1100  176.8050  136.8880 C   0  0  1  0  0  3  0  0  0  0  0  0
  192.8560  175.5720  135.8030 O   0  0  0  0  0  0  0  0  0  0  0  0
  187.5260  173.6520  135.4600 C   0  0  0  0  0  3  0  0  0  0  0  0
  186.7890  174.1660  136.4660 C   0  0  0  0  0  0  0  0  0  0  0  0
  186.7120  175.6300  136.8620 C   0  0  0  0  0  2  0  0  0  0  0  0
  189.2880  175.3640  135.1320 C   0  0  0  0  0  0  0  0  0  0  0  0
  187.3420  176.6450  135.9100 C   0  0  0  0  0  2  0  0  0  0  0  0
  188.8230  176.4270  135.8110 C   0  0  0  0  0  0  0  0  0  0  0  0
  186.0760  173.1930  137.3490 C   0  0  0  0  0  2  0  0  0  0  0  0
  184.0390  171.9400  137.3440 O   0  0  0  0  0  1  0  0  0  0  0  0
  184.5800  173.1970  137.0710 C   0  0  0  0  0  2  0  0  0  0  0  0
  188.5580  178.7310  139.8240 C   0  0  0  0  0  2  0  0  0  0  0  0
  187.7400  177.5590  143.3300 C   0  0  0  0  0  3  0  0  0  0  0  0
  189.9600  178.0580  141.7510 N   0  0  0  0  0  0  0  0  0  0  0  0
  190.4960  176.7690  145.6770 C   0  0  0  0  0  0  0  0  0  0  0  0
  189.2020  176.9390  145.1640 C   0  0  0  0  0  3  0  0  0  0  0  0
  189.0210  177.3740  143.8500 C   0  0  0  0  0  0  0  0  0  0  0  0
  191.4290  177.4480  143.5360 C   0  0  0  0  0  3  0  0  0  0  0  0
  190.1400  177.6340  143.0300 C   0  0  0  0  0  0  0  0  0  0  0  0
  191.6060  177.0120  144.8520 C   0  0  0  0  0  3  0  0  0  0  0  0
  188.7160  178.2430  141.2310 C   0  0  0  0  0  0  0  0  0  0  0  0
  187.5820  177.9970  142.0140 C   0  0  0  0  0  3  0  0  0  0  0  0
  190.6960  176.2600  147.0710 C   0  0  1  0  0  3  0  0  0  0  0  0
  192.0680  175.7900  147.2590 C   0  0  0  0  0  2  0  0  0  0  0  0
  191.6740  177.1040  147.7800 N   0  0  0  0  0  2  0  0  0  0  0  0
  1 10  1  0  0  0  0
  1  5  1  1  0  0  0
  2 15  1  0  0  0  0
  2 12  1  0  0  0  0
  3 15  1  0  0  0  0
  3  9  1  0  0  0  0
  4  8  1  0  0  0  0
  4 21  1  1  0  0  0
  5  4  1  0  0  0  0
  6  7  1  0  0  0  0
  6  8  1  0  0  0  0
 10  9  1  6  0  0  0
 10  6  1  0  0  0  0
 11  9  2  0  0  0  0
 12 13  2  0  0  0  0
 13 14  1  0  0  0  0
 13 18  1  0  0  0  0
 15 17  2  0  0  0  0
 16 14  1  0  0  0  0
 17 16  1  0  0  0  0
 17  1  1  0  0  0  0
 20 19  1  0  0  0  0
 20 18  1  0  0  0  0
 21 30  1  0  0  0  0
 22 26  1  0  0  0  0
 23 28  1  0  0  0  0
 25 24  1  0  0  0  0
 26 25  2  0  0  0  0
 27 29  1  0  0  0  0
 28 27  2  0  0  0  0
 28 26  1  0  0  0  0
 29 24  2  0  0  0  0
 30 23  2  0  0  0  0
 30 31  1  0  0  0  0
 31 22  2  0  0  0  0
 32 24  1  6  0  0  0
 32 33  1  0  0  0  0
 32 34  1  0  0  0  0
 33 34  1  0  0  0  0
M  END
>  <MODEL>
9

>  <REMARK>
 VINA RESULT:      -6.7      4.030      8.628
  Name = 
  5 active torsions:
  status: ('A' for Active; 'I' for Inactive)
    1  A    between atoms: C_3  and  C_24
    2  A    between atoms: C_3  and  C_25
    3  A    between atoms: C_7  and  C_11
    4  A    between atoms: C_8  and  C_18
    5  A    between atoms: C_18  and  C_30
                            x       y       z     vdW  Elec       q    Type
                         _______ _______ _______ _____ _____    ______ ____

>  <TORSDO>
F 5

$$$$
