=
 OpenBabel10272414483D

 37 41  0  0  1  0  0  0  0  0999 V2000
  187.0170  176.5740  137.8220 C   0  0  0  0  0  2  0  0  0  0  0  0
  183.0390  173.7730  136.8220 C   0  0  2  0  0  3  0  0  0  0  0  0
  188.3270  175.9470  137.3780 C   0  0  0  0  0  2  0  0  0  0  0  0
  183.8760  177.2530  135.3750 O   0  0  0  0  0  0  0  0  0  0  0  0
  185.1260  172.7200  137.8110 C   0  0  0  0  0  2  0  0  0  0  0  0
  183.9450  174.8570  136.2160 C   0  0  1  0  0  3  0  0  0  0  0  0
  188.5270  177.5020  135.2790 C   0  0  0  0  0  0  0  0  0  0  0  0
  191.1030  176.3030  137.7470 N   0  0  0  0  0  1  0  0  0  0  0  0
  183.8050  172.4580  137.0760 C   0  0  2  0  0  3  0  0  0  0  0  0
  183.1380  176.1340  135.8330 C   0  0  1  0  0  3  0  0  0  0  0  0
  184.0580  171.6500  135.8070 C   0  0  0  0  0  1  0  0  0  0  0  0
  189.1270  176.8390  136.4650 C   0  0  0  0  0  0  0  0  0  0  0  0
  185.9330  173.8760  137.1890 C   0  0  2  0  0  3  0  0  0  0  0  0
  180.6310  174.6420  136.3660 C   0  0  0  0  0  3  0  0  0  0  0  0
  190.4430  176.9580  136.6660 C   0  0  0  0  0  3  0  0  0  0  0  0
  181.4360  172.6500  135.4080 O   0  0  0  0  0  0  0  0  0  0  0  0
  187.0650  177.8130  135.1760 C   0  0  0  0  0  2  0  0  0  0  0  0
  184.9010  176.7860  134.5330 C   0  0  0  0  0  2  0  0  0  0  0  0
  181.6890  173.6360  136.1490 C   0  0  0  0  0  0  0  0  0  0  0  0
  185.0950  175.0900  137.1170 N   0  0  1  0  0  0  0  0  0  0  0  0
  182.1500  176.4980  136.8600 N   0  0  0  0  0  0  0  0  0  0  0  0
  186.1980  176.5750  135.3300 C   0  0  2  0  0  3  0  0  0  0  0  0
  189.2750  177.9020  134.3470 O   0  0  0  0  0  0  0  0  0  0  0  0
  185.8860  176.3110  136.8210 C   0  0  2  0  0  3  0  0  0  0  0  0
  180.8420  175.9080  136.7430 C   0  0  0  0  0  3  0  0  0  0  0  0
  182.9170  176.7470  139.1270 C   0  0  0  0  0  3  0  0  0  0  0  0
  182.4600  177.3310  138.0070 C   0  0  0  0  0  0  0  0  0  0  0  0
  182.2170  178.7950  137.9430 C   0  0  0  0  0  3  0  0  0  0  0  0
  182.9210  179.7590  138.5550 C   0  0  0  0  0  3  0  0  0  0  0  0
  184.2350  178.5060  140.2530 C   0  0  0  0  0  3  0  0  0  0  0  0
  184.0820  179.5500  139.4400 C   0  0  0  0  0  3  0  0  0  0  0  0
  183.1850  177.4600  140.4130 C   0  0  0  0  0  2  0  0  0  0  0  0
  186.5290  173.4880  135.8280 C   0  0  0  0  0  2  0  0  0  0  0  0
  187.6120  172.4680  135.9680 C   0  0  0  0  0  0  0  0  0  0  0  0
  188.5920  172.6860  136.7750 N   0  0  0  0  0  2  0  0  0  0  0  0
  187.7160  171.3730  134.9530 C   0  0  0  0  0  2  0  0  0  0  0  0
  187.3340  170.1550  135.5230 O   0  0  0  0  0  1  0  0  0  0  0  0
  2 19  1  6  0  0  0
  2  9  1  0  0  0  0
  3  1  1  0  0  0  0
  4 10  1  0  0  0  0
  6  2  1  0  0  0  0
  6 20  1  0  0  0  0
  7 12  1  0  0  0  0
  9  5  1  0  0  0  0
 10  6  1  0  0  0  0
 10 21  1  0  0  0  0
 11  9  1  0  0  0  0
 12 15  2  0  0  0  0
 12  3  1  0  0  0  0
 13  5  1  0  0  0  0
 14 25  2  0  0  0  0
 15  8  1  0  0  0  0
 16 19  2  0  0  0  0
 17  7  1  0  0  0  0
 17 22  1  0  0  0  0
 18 22  1  0  0  0  0
 18  4  1  0  0  0  0
 19 14  1  0  0  0  0
 20 13  1  0  0  0  0
 21 27  1  0  0  0  0
 22 24  1  0  0  0  0
 23  7  2  0  0  0  0
 24 20  1  0  0  0  0
 24  1  1  0  0  0  0
 25 21  1  0  0  0  0
 26 32  1  0  0  0  0
 27 26  2  0  0  0  0
 28 27  1  0  0  0  0
 28 29  2  0  0  0  0
 29 31  1  0  0  0  0
 30 32  1  0  0  0  0
 31 30  2  0  0  0  0
 33 34  1  0  0  0  0
 33 13  1  0  0  0  0
 34 35  2  0  0  0  0
 36 37  1  0  0  0  0
 36 34  1  0  0  0  0
M  END
>  <MODEL>
1

>  <REMARK>
 VINA RESULT:      -5.6      0.000      0.000
  Name = 
  4 active torsions:
  status: ('A' for Active; 'I' for Inactive)
    1  A    between atoms: C_3  and  CA_21
    2  A    between atoms: C_6  and  N_31
    3  A    between atoms: C_20  and  C_25
    4  A    between atoms: CA_21  and  C_25
                            x       y       z     vdW  Elec       q    Type
                         _______ _______ _______ _____ _____    ______ ____

>  <TORSDO>
F 4

$$$$
=
 OpenBabel10272414483D

 37 41  0  0  1  0  0  0  0  0999 V2000
  191.3690  174.7200  137.7830 C   0  0  0  0  0  2  0  0  0  0  0  0
  186.5010  175.2660  136.9600 C   0  0  2  0  0  3  0  0  0  0  0  0
  192.0040  173.6210  136.9510 C   0  0  0  0  0  2  0  0  0  0  0  0
  189.2980  177.8290  136.2460 O   0  0  0  0  0  0  0  0  0  0  0  0
  187.4980  172.9480  137.2340 C   0  0  0  0  0  2  0  0  0  0  0  0
  187.8770  175.7340  136.4610 C   0  0  1  0  0  3  0  0  0  0  0  0
  193.1030  175.3190  135.2860 C   0  0  0  0  0  0  0  0  0  0  0  0
  194.4090  172.1460  136.8330 N   0  0  0  0  0  1  0  0  0  0  0  0
  186.2900  173.7540  136.7360 C   0  0  2  0  0  3  0  0  0  0  0  0
  188.0300  177.2820  136.5620 C   0  0  1  0  0  3  0  0  0  0  0  0
  185.9770  173.3950  135.2870 C   0  0  0  0  0  1  0  0  0  0  0  0
  193.1760  174.1030  136.1360 C   0  0  0  0  0  0  0  0  0  0  0  0
  188.8400  173.5330  136.7560 C   0  0  2  0  0  3  0  0  0  0  0  0
  185.1440  177.4690  137.2130 C   0  0  0  0  0  3  0  0  0  0  0  0
  194.2850  173.3580  136.0930 C   0  0  0  0  0  3  0  0  0  0  0  0
  184.5330  175.8040  135.6680 O   0  0  0  0  0  0  0  0  0  0  0  0
  192.1470  176.4410  135.5540 C   0  0  0  0  0  2  0  0  0  0  0  0
  189.8060  177.1400  135.1300 C   0  0  0  0  0  2  0  0  0  0  0  0
  185.3490  176.1640  136.5570 C   0  0  0  0  0  0  0  0  0  0  0  0
  188.9330  174.9550  137.1430 N   0  0  1  0  0  0  0  0  0  0  0  0
  187.4890  177.8150  137.8220 N   0  0  0  0  0  0  0  0  0  0  0  0
  190.7010  175.9750  135.5780 C   0  0  2  0  0  3  0  0  0  0  0  0
  193.9300  175.4690  134.3460 O   0  0  0  0  0  0  0  0  0  0  0  0
  190.3080  175.4960  136.9950 C   0  0  2  0  0  3  0  0  0  0  0  0
  186.0960  178.1770  137.8310 C   0  0  0  0  0  3  0  0  0  0  0  0
  187.6080  177.9310  140.2220 C   0  0  0  0  0  3  0  0  0  0  0  0
  188.2600  177.9010  139.0480 C   0  0  0  0  0  0  0  0  0  0  0  0
  189.7400  178.0080  138.9840 C   0  0  0  0  0  3  0  0  0  0  0  0
  190.6250  177.5240  139.8670 C   0  0  0  0  0  3  0  0  0  0  0  0
  189.2200  177.0170  141.8550 C   0  0  0  0  0  3  0  0  0  0  0  0
  190.2980  176.7900  141.1040 C   0  0  0  0  0  3  0  0  0  0  0  0
  188.2580  178.1150  141.5560 C   0  0  0  0  0  2  0  0  0  0  0  0
  189.0550  173.3160  135.2520 C   0  0  0  0  0  2  0  0  0  0  0  0
  189.4530  171.9080  134.9460 C   0  0  0  0  0  0  0  0  0  0  0  0
  190.6940  171.6240  134.7520 N   0  0  0  0  0  2  0  0  0  0  0  0
  188.3960  170.9210  134.5560 C   0  0  0  0  0  2  0  0  0  0  0  0
  188.3000  169.9160  135.5230 O   0  0  0  0  0  1  0  0  0  0  0  0
  2 19  1  6  0  0  0
  3  1  1  0  0  0  0
  4 10  1  0  0  0  0
  6 10  1  0  0  0  0
  6  2  1  0  0  0  0
  6 20  1  0  0  0  0
  7 17  1  0  0  0  0
  7 12  1  0  0  0  0
  9  2  1  0  0  0  0
  9  5  1  0  0  0  0
 10 21  1  0  0  0  0
 11  9  1  0  0  0  0
 12  3  1  0  0  0  0
 13 20  1  0  0  0  0
 13  5  1  0  0  0  0
 14 25  2  0  0  0  0
 15 12  2  0  0  0  0
 15  8  1  0  0  0  0
 16 19  2  0  0  0  0
 17 22  1  0  0  0  0
 18 22  1  0  0  0  0
 18  4  1  0  0  0  0
 19 14  1  0  0  0  0
 21 25  1  0  0  0  0
 21 27  1  0  0  0  0
 22 24  1  0  0  0  0
 23  7  2  0  0  0  0
 24 20  1  0  0  0  0
 24  1  1  0  0  0  0
 26 32  1  0  0  0  0
 27 26  2  0  0  0  0
 28 27  1  0  0  0  0
 28 29  2  0  0  0  0
 29 31  1  0  0  0  0
 31 30  2  0  0  0  0
 32 30  1  0  0  0  0
 33 13  1  0  0  0  0
 34 33  1  0  0  0  0
 35 34  2  0  0  0  0
 36 34  1  0  0  0  0
 36 37  1  0  0  0  0
M  END
>  <MODEL>
2

>  <REMARK>
 VINA RESULT:      -5.3      2.804      4.785
  Name = 
  4 active torsions:
  status: ('A' for Active; 'I' for Inactive)
    1  A    between atoms: C_3  and  CA_21
    2  A    between atoms: C_6  and  N_31
    3  A    between atoms: C_20  and  C_25
    4  A    between atoms: CA_21  and  C_25
                            x       y       z     vdW  Elec       q    Type
                         _______ _______ _______ _____ _____    ______ ____

>  <TORSDO>
F 4

$$$$
=
 OpenBabel10272414483D

 37 41  0  0  1  0  0  0  0  0999 V2000
  189.1450  175.3670  137.9320 C   0  0  0  0  0  2  0  0  0  0  0  0
  184.3060  176.4820  137.9680 C   0  0  2  0  0  3  0  0  0  0  0  0
  189.5390  174.4120  136.8200 C   0  0  0  0  0  2  0  0  0  0  0  0
  187.2580  178.8900  137.3450 O   0  0  0  0  0  0  0  0  0  0  0  0
  185.0600  174.0810  137.6400 C   0  0  0  0  0  2  0  0  0  0  0  0
  185.6500  176.9240  137.3670 C   0  0  1  0  0  3  0  0  0  0  0  0
  190.5980  176.3160  135.3640 C   0  0  0  0  0  0  0  0  0  0  0  0
  191.7250  172.7940  136.0630 N   0  0  0  0  0  1  0  0  0  0  0  0
  183.8980  175.0720  137.4920 C   0  0  2  0  0  3  0  0  0  0  0  0
  185.9890  178.4000  137.7380 C   0  0  1  0  0  3  0  0  0  0  0  0
  183.3600  175.0460  136.0650 C   0  0  0  0  0  1  0  0  0  0  0  0
  190.6420  174.9500  135.9460 C   0  0  0  0  0  0  0  0  0  0  0  0
  186.3870  174.6350  137.0880 C   0  0  2  0  0  3  0  0  0  0  0  0
  183.2510  178.6940  138.8370 C   0  0  0  0  0  3  0  0  0  0  0  0
  191.6440  174.1380  135.5950 C   0  0  0  0  0  3  0  0  0  0  0  0
  182.2600  177.4400  137.1120 O   0  0  0  0  0  0  0  0  0  0  0  0
  189.8180  177.4360  135.9820 C   0  0  0  0  0  2  0  0  0  0  0  0
  187.5360  178.4040  136.0550 C   0  0  0  0  0  2  0  0  0  0  0  0
  183.2200  177.5380  137.9200 C   0  0  0  0  0  0  0  0  0  0  0  0
  186.6900  175.9340  137.7210 N   0  0  1  0  0  0  0  0  0  0  0  0
  185.6800  178.7060  139.1420 N   0  0  0  0  0  0  0  0  0  0  0  0
  188.3440  177.1000  136.1330 C   0  0  2  0  0  3  0  0  0  0  0  0
  191.3070  176.5850  134.3570 O   0  0  0  0  0  0  0  0  0  0  0  0
  188.0860  176.3760  137.4750 C   0  0  2  0  0  3  0  0  0  0  0  0
  184.3500  179.1760  139.4300 C   0  0  0  0  0  3  0  0  0  0  0  0
  186.1180  178.2560  141.4650 C   0  0  0  0  0  3  0  0  0  0  0  0
  186.6080  178.4730  140.2330 C   0  0  0  0  0  0  0  0  0  0  0  0
  188.0710  178.5320  139.9830 C   0  0  0  0  0  3  0  0  0  0  0  0
  189.0260  177.8190  140.5980 C   0  0  0  0  0  3  0  0  0  0  0  0
  187.8590  176.9220  142.6010 C   0  0  0  0  0  3  0  0  0  0  0  0
  188.8100  176.8320  141.6720 C   0  0  0  0  0  3  0  0  0  0  0  0
  186.9480  178.0980  142.6980 C   0  0  0  0  0  2  0  0  0  0  0  0
  186.3790  174.7140  135.5550 C   0  0  0  0  0  2  0  0  0  0  0  0
  186.4320  173.3570  134.9300 C   0  0  0  0  0  0  0  0  0  0  0  0
  185.3860  172.8830  134.3480 N   0  0  0  0  0  2  0  0  0  0  0  0
  187.5750  172.4490  135.2600 C   0  0  0  0  0  2  0  0  0  0  0  0
  187.1290  171.3890  136.0550 O   0  0  0  0  0  1  0  0  0  0  0  0
  2 19  1  6  0  0  0
  3  1  1  0  0  0  0
  4 10  1  0  0  0  0
  6 20  1  0  0  0  0
  6 10  1  0  0  0  0
  6  2  1  0  0  0  0
  7 12  1  0  0  0  0
  7 17  1  0  0  0  0
  9  5  1  0  0  0  0
  9  2  1  0  0  0  0
 10 21  1  0  0  0  0
 11  9  1  0  0  0  0
 12  3  1  0  0  0  0
 13  5  1  0  0  0  0
 13 20  1  0  0  0  0
 14 25  2  0  0  0  0
 15 12  2  0  0  0  0
 15  8  1  0  0  0  0
 16 19  2  0  0  0  0
 17 22  1  0  0  0  0
 18 22  1  0  0  0  0
 18  4  1  0  0  0  0
 19 14  1  0  0  0  0
 21 25  1  0  0  0  0
 21 27  1  0  0  0  0
 22 24  1  0  0  0  0
 23  7  2  0  0  0  0
 24 20  1  0  0  0  0
 24  1  1  0  0  0  0
 26 32  1  0  0  0  0
 27 26  2  0  0  0  0
 28 27  1  0  0  0  0
 28 29  2  0  0  0  0
 29 31  1  0  0  0  0
 30 32  1  0  0  0  0
 31 30  2  0  0  0  0
 33 13  1  0  0  0  0
 34 36  1  0  0  0  0
 34 33  1  0  0  0  0
 35 34  2  0  0  0  0
 36 37  1  0  0  0  0
M  END
>  <MODEL>
3

>  <REMARK>
 VINA RESULT:      -4.8      2.334      3.743
  Name = 
  4 active torsions:
  status: ('A' for Active; 'I' for Inactive)
    1  A    between atoms: C_3  and  CA_21
    2  A    between atoms: C_6  and  N_31
    3  A    between atoms: C_20  and  C_25
    4  A    between atoms: CA_21  and  C_25
                            x       y       z     vdW  Elec       q    Type
                         _______ _______ _______ _____ _____    ______ ____

>  <TORSDO>
F 4

$$$$
=
 OpenBabel10272414483D

 37 41  0  0  1  0  0  0  0  0999 V2000
  185.5400  178.8400  137.9500 C   0  0  0  0  0  2  0  0  0  0  0  0
  182.8080  179.2330  142.0790 C   0  0  2  0  0  3  0  0  0  0  0  0
  186.9120  178.2340  138.1860 C   0  0  0  0  0  2  0  0  0  0  0  0
  182.0600  177.0640  138.9750 O   0  0  0  0  0  0  0  0  0  0  0  0
  185.2560  179.9050  142.0990 C   0  0  0  0  0  2  0  0  0  0  0  0
  183.1440  178.2670  140.9320 C   0  0  1  0  0  3  0  0  0  0  0  0
  186.2110  175.9080  137.2050 C   0  0  0  0  0  0  0  0  0  0  0  0
  189.3720  177.9180  136.8380 N   0  0  0  0  0  1  0  0  0  0  0  0
  184.0400  179.5340  142.9590 C   0  0  2  0  0  3  0  0  0  0  0  0
  181.8700  177.8580  140.1320 C   0  0  1  0  0  3  0  0  0  0  0  0
  184.3950  178.3970  143.9130 C   0  0  0  0  0  1  0  0  0  0  0  0
  187.1790  177.0290  137.3230 C   0  0  0  0  0  0  0  0  0  0  0  0
  185.4710  178.9330  140.9240 C   0  0  2  0  0  3  0  0  0  0  0  0
  180.2120  179.1740  142.2080 C   0  0  0  0  0  3  0  0  0  0  0  0
  188.3680  176.9130  136.7230 C   0  0  0  0  0  3  0  0  0  0  0  0
  181.5610  178.4190  143.9800 O   0  0  0  0  0  0  0  0  0  0  0  0
  184.7410  176.0770  137.4380 C   0  0  0  0  0  2  0  0  0  0  0  0
  183.0540  176.1100  139.2550 C   0  0  0  0  0  2  0  0  0  0  0  0
  181.5270  178.9060  142.8200 C   0  0  0  0  0  0  0  0  0  0  0  0
  184.2380  178.8390  140.1170 N   0  0  1  0  0  0  0  0  0  0  0  0
  180.9750  178.9980  139.8890 N   0  0  0  0  0  0  0  0  0  0  0  0
  184.4340  176.6270  138.8210 C   0  0  2  0  0  3  0  0  0  0  0  0
  186.6140  174.7800  136.8110 O   0  0  0  0  0  0  0  0  0  0  0  0
  184.4610  178.1730  138.8100 C   0  0  2  0  0  3  0  0  0  0  0  0
  179.9820  179.2740  140.8940 C   0  0  0  0  0  3  0  0  0  0  0  0
  180.5240  179.5490  137.5900 C   0  0  0  0  0  3  0  0  0  0  0  0
  181.1090  179.8890  138.7510 C   0  0  0  0  0  0  0  0  0  0  0  0
  181.9280  181.1220  138.8710 C   0  0  0  0  0  3  0  0  0  0  0  0
  181.7240  182.2920  138.2480 C   0  0  0  0  0  3  0  0  0  0  0  0
  180.1220  181.6990  136.4420 C   0  0  0  0  0  3  0  0  0  0  0  0
  180.6390  182.5850  137.2930 C   0  0  0  0  0  3  0  0  0  0  0  0
  180.6560  180.3130  136.3120 C   0  0  0  0  0  2  0  0  0  0  0  0
  185.9690  177.5610  141.4010 C   0  0  0  0  0  2  0  0  0  0  0  0
  187.3010  177.6580  142.0730 C   0  0  0  0  0  0  0  0  0  0  0  0
  188.3110  178.1200  141.4210 N   0  0  0  0  0  2  0  0  0  0  0  0
  187.5190  176.9320  143.3640 C   0  0  0  0  0  2  0  0  0  0  0  0
  188.3920  177.6590  144.1790 O   0  0  0  0  0  1  0  0  0  0  0  0
  1  3  1  0  0  0  0
  1 24  1  0  0  0  0
  2 19  1  1  0  0  0
  2  9  1  0  0  0  0
  4 18  1  0  0  0  0
  4 10  1  0  0  0  0
  5  9  1  0  0  0  0
  6  2  1  0  0  0  0
  7 12  1  0  0  0  0
  7 17  1  0  0  0  0
  9 11  1  0  0  0  0
 10  6  1  0  0  0  0
 12  3  1  0  0  0  0
 13 33  1  0  0  0  0
 13  5  1  0  0  0  0
 14 19  1  0  0  0  0
 15  8  1  0  0  0  0
 15 12  2  0  0  0  0
 17 22  1  0  0  0  0
 19 16  2  0  0  0  0
 20 13  1  0  0  0  0
 20  6  1  0  0  0  0
 21 10  1  0  0  0  0
 21 25  1  0  0  0  0
 22 18  1  0  0  0  0
 23  7  2  0  0  0  0
 24 22  1  0  0  0  0
 24 20  1  0  0  0  0
 25 14  2  0  0  0  0
 26 27  2  0  0  0  0
 27 28  1  0  0  0  0
 27 21  1  0  0  0  0
 29 28  2  0  0  0  0
 30 31  2  0  0  0  0
 31 29  1  0  0  0  0
 32 30  1  0  0  0  0
 32 26  1  0  0  0  0
 33 34  1  0  0  0  0
 34 36  1  0  0  0  0
 35 34  2  0  0  0  0
 36 37  1  0  0  0  0
M  END
>  <MODEL>
4

>  <REMARK>
 VINA RESULT:      -4.0      3.563      6.164
  Name = 
  4 active torsions:
  status: ('A' for Active; 'I' for Inactive)
    1  A    between atoms: C_3  and  CA_21
    2  A    between atoms: C_6  and  N_31
    3  A    between atoms: C_20  and  C_25
    4  A    between atoms: CA_21  and  C_25
                            x       y       z     vdW  Elec       q    Type
                         _______ _______ _______ _____ _____    ______ ____

>  <TORSDO>
F 4

$$$$
=
 OpenBabel10272414483D

 37 41  0  0  1  0  0  0  0  0999 V2000
  183.7880  175.3980  138.0270 C   0  0  0  0  0  2  0  0  0  0  0  0
  188.3830  176.7120  136.6750 C   0  0  2  0  0  3  0  0  0  0  0  0
  183.0320  176.4980  138.7520 C   0  0  0  0  0  2  0  0  0  0  0  0
  185.4310  175.8020  134.3600 O   0  0  0  0  0  0  0  0  0  0  0  0
  187.5230  177.2800  138.9940 C   0  0  0  0  0  2  0  0  0  0  0  0
  186.9230  176.7300  136.1940 C   0  0  1  0  0  3  0  0  0  0  0  0
  181.5820  177.0830  136.6490 C   0  0  0  0  0  0  0  0  0  0  0  0
  180.6920  176.8260  140.2970 N   0  0  0  0  0  1  0  0  0  0  0  0
  188.5870  177.5850  137.9310 C   0  0  2  0  0  3  0  0  0  0  0  0
  186.7510  175.9610  134.8490 C   0  0  1  0  0  3  0  0  0  0  0  0
  188.6200  179.0800  137.6300 C   0  0  0  0  0  1  0  0  0  0  0  0
  181.7110  176.8260  138.1070 C   0  0  0  0  0  0  0  0  0  0  0  0
  186.0970  177.2350  138.4130 C   0  0  2  0  0  3  0  0  0  0  0  0
  189.7030  175.7830  134.6360 C   0  0  0  0  0  3  0  0  0  0  0  0
  180.6350  176.9940  138.8830 C   0  0  0  0  0  3  0  0  0  0  0  0
  190.0440  177.9630  135.4480 O   0  0  0  0  0  0  0  0  0  0  0  0
  182.5410  176.5300  135.6400 C   0  0  0  0  0  2  0  0  0  0  0  0
  184.7330  177.0020  134.5820 C   0  0  0  0  0  2  0  0  0  0  0  0
  189.4090  176.8840  135.5730 C   0  0  0  0  0  0  0  0  0  0  0  0
  186.0430  176.2750  137.2920 N   0  0  1  0  0  0  0  0  0  0  0  0
  187.5130  174.7040  134.8230 N   0  0  0  0  0  0  0  0  0  0  0  0
  183.9760  176.9450  135.9170 C   0  0  2  0  0  3  0  0  0  0  0  0
  180.5830  177.7200  136.2170 O   0  0  0  0  0  0  0  0  0  0  0  0
  184.6520  175.9500  136.8880 C   0  0  2  0  0  3  0  0  0  0  0  0
  188.8710  174.7750  134.3500 C   0  0  0  0  0  3  0  0  0  0  0  0
  185.6950  173.1630  135.1500 C   0  0  0  0  0  3  0  0  0  0  0  0
  186.9960  173.4470  135.3300 C   0  0  0  0  0  0  0  0  0  0  0  0
  187.8910  172.5280  136.0790 C   0  0  0  0  0  3  0  0  0  0  0  0
  187.8380  171.1880  136.1020 C   0  0  0  0  0  3  0  0  0  0  0  0
  185.5880  170.6950  135.1670 C   0  0  0  0  0  3  0  0  0  0  0  0
  186.8560  170.3500  135.3890 C   0  0  0  0  0  3  0  0  0  0  0  0
  185.0000  171.9580  135.6980 C   0  0  0  0  0  2  0  0  0  0  0  0
  185.5980  178.6320  138.0170 C   0  0  0  0  0  2  0  0  0  0  0  0
  184.7570  179.2450  139.0900 C   0  0  0  0  0  0  0  0  0  0  0  0
  184.1010  180.3260  138.8460 N   0  0  0  0  0  2  0  0  0  0  0  0
  184.9360  178.7880  140.5040 C   0  0  0  0  0  2  0  0  0  0  0  0
  185.9380  179.5380  141.1270 O   0  0  0  0  0  1  0  0  0  0  0  0
  1  3  1  0  0  0  0
  2 19  1  6  0  0  0
  2  9  1  0  0  0  0
  4 18  1  0  0  0  0
  4 10  1  0  0  0  0
  6  2  1  0  0  0  0
  6 20  1  0  0  0  0
  7 12  1  0  0  0  0
  9  5  1  0  0  0  0
 10  6  1  0  0  0  0
 11  9  1  0  0  0  0
 12  3  1  0  0  0  0
 12 15  2  0  0  0  0
 13  5  1  0  0  0  0
 14 19  1  0  0  0  0
 15  8  1  0  0  0  0
 16 19  2  0  0  0  0
 17 22  1  0  0  0  0
 17  7  1  0  0  0  0
 18 22  1  0  0  0  0
 20 13  1  0  0  0  0
 21 10  1  0  0  0  0
 21 27  1  0  0  0  0
 22 24  1  0  0  0  0
 23  7  2  0  0  0  0
 24 20  1  0  0  0  0
 24  1  1  0  0  0  0
 25 14  2  0  0  0  0
 25 21  1  0  0  0  0
 26 27  2  0  0  0  0
 26 32  1  0  0  0  0
 27 28  1  0  0  0  0
 28 29  2  0  0  0  0
 30 31  2  0  0  0  0
 30 32  1  0  0  0  0
 31 29  1  0  0  0  0
 33 13  1  0  0  0  0
 33 34  1  0  0  0  0
 34 36  1  0  0  0  0
 35 34  2  0  0  0  0
 36 37  1  0  0  0  0
M  END
>  <MODEL>
5

>  <REMARK>
 VINA RESULT:      -3.8      2.256      7.330
  Name = 
  4 active torsions:
  status: ('A' for Active; 'I' for Inactive)
    1  A    between atoms: C_3  and  CA_21
    2  A    between atoms: C_6  and  N_31
    3  A    between atoms: C_20  and  C_25
    4  A    between atoms: CA_21  and  C_25
                            x       y       z     vdW  Elec       q    Type
                         _______ _______ _______ _____ _____    ______ ____

>  <TORSDO>
F 4

$$$$
