=
 OpenBabel10272413233D

 32 37  0  0  1  0  0  0  0  0999 V2000
  187.3440  177.4730  137.3640 C   0  0  0  0  0  2  0  0  0  0  0  0
  187.6000  177.9570  142.4440 C   0  0  0  0  0  0  0  0  0  0  0  0
  182.9440  179.0630  143.6720 C   0  0  0  0  0  3  0  0  0  0  0  0
  183.2030  178.9610  144.9750 C   0  0  0  0  0  3  0  0  0  0  0  0
  189.2300  177.5050  144.2540 C   0  0  0  0  0  0  0  0  0  0  0  0
  189.4280  177.4160  145.6280 C   0  0  0  0  0  0  0  0  0  0  0  0
  188.2520  177.8580  140.0790 C   0  0  0  0  0  0  0  0  0  0  0  0
  185.9470  178.4330  140.6250 C   0  0  0  0  0  3  0  0  0  0  0  0
  188.9420  177.4700  147.8320 C   0  0  0  0  0  0  0  0  0  0  0  0
  186.5390  178.4280  138.2460 C   0  0  0  0  0  2  0  0  0  0  0  0
  183.9910  178.8360  142.6660 C   0  0  0  0  0  3  0  0  0  0  0  0
  186.2570  178.2990  142.0250 N   0  0  0  0  0  0  0  0  0  0  0  0
  185.2450  178.5190  143.0130 C   0  0  2  0  0  3  0  0  0  0  0  0
  186.8780  178.0660  144.7690 C   0  0  0  0  0  0  0  0  0  0  0  0
  190.3930  177.1180  147.7190 C   0  0  0  0  0  2  0  0  0  0  0  0
  189.2350  177.6320  139.0060 C   0  0  0  0  0  0  0  0  0  0  0  0
  186.8720  178.2130  139.6910 C   0  0  0  0  0  0  0  0  0  0  0  0
  190.6070  177.1080  146.3010 O   0  0  0  0  0  0  0  0  0  0  0  0
  190.4630  177.5120  139.2740 O   0  0  0  0  0  0  0  0  0  0  0  0
  188.7770  177.5850  137.6440 N   0  0  0  0  0  0  0  0  0  0  0  0
  184.5660  178.6110  145.5080 C   0  0  0  0  0  3  0  0  0  0  0  0
  185.6110  178.3870  144.4330 C   0  0  0  0  0  0  0  0  0  0  0  0
  187.1740  177.9550  146.1010 N   0  0  0  0  0  0  0  0  0  0  0  0
  188.5890  177.7430  141.3660 C   0  0  0  0  0  3  0  0  0  0  0  0
  190.6600  177.1870  143.2670 Cl  0  0  0  0  0  0  0  0  0  0  0  0
  188.2920  177.5970  148.9020 O   0  0  0  0  0  0  0  0  0  0  0  0
  187.9110  177.8430  143.7750 C   0  0  0  0  0  0  0  0  0  0  0  0
  188.4210  177.6370  146.4990 C   0  0  0  0  0  0  0  0  0  0  0  0
  189.7170  177.7110  136.5320 C   0  0  0  0  0  2  0  0  0  0  0  0
  190.0130  176.3690  135.8590 C   0  0  0  0  0  3  0  0  0  0  0  0
  190.0230  176.4770  134.3460 C   0  0  0  0  0  1  0  0  0  0  0  0
  191.3130  175.7640  136.3550 C   0  0  0  0  0  1  0  0  0  0  0  0
  1 20  1  0  0  0  0
  1 10  1  0  0  0  0
  2 27  2  0  0  0  0
  3  4  1  0  0  0  0
  4 21  2  0  0  0  0
  5  6  2  0  0  0  0
  6 18  1  0  0  0  0
  6 28  1  0  0  0  0
  7 24  2  0  0  0  0
  8 12  1  0  0  0  0
  9 26  2  0  0  0  0
 10 17  1  0  0  0  0
 11  3  2  0  0  0  0
 12  2  1  0  0  0  0
 12 13  1  0  0  0  0
 13 11  1  6  0  0  0
 13 22  1  0  0  0  0
 14 23  1  0  0  0  0
 15  9  1  0  0  0  0
 16 19  2  0  0  0  0
 16  7  1  0  0  0  0
 17  7  1  0  0  0  0
 17  8  2  0  0  0  0
 18 15  1  0  0  0  0
 20 16  1  0  0  0  0
 22 14  2  0  0  0  0
 22 21  1  0  0  0  0
 23 28  2  0  0  0  0
 24  2  1  0  0  0  0
 25  5  1  0  0  0  0
 27  5  1  0  0  0  0
 27 14  1  0  0  0  0
 28  9  1  0  0  0  0
 29 20  1  0  0  0  0
 30 32  1  0  0  0  0
 30 29  1  0  0  0  0
 31 30  1  0  0  0  0
M  END
>  <MODEL>
1

>  <REMARK>
 VINA RESULT:     -10.3      0.000      0.000
  Name = 
  2 active torsions:
  status: ('A' for Active; 'I' for Inactive)
    1  A    between atoms: C_1  and  C_10
    2  A    between atoms: C_10  and  N_24
                            x       y       z     vdW  Elec       q    Type
                         _______ _______ _______ _____ _____    ______ ____

>  <TORSDO>
F 2

$$$$
=
 OpenBabel10272413233D

 32 37  0  0  1  0  0  0  0  0999 V2000
  191.2670  177.2770  137.7550 C   0  0  0  0  0  2  0  0  0  0  0  0
  188.4430  177.4710  142.0090 C   0  0  0  0  0  0  0  0  0  0  0  0
  191.7330  176.4580  145.5530 C   0  0  0  0  0  3  0  0  0  0  0  0
  190.8610  176.7350  146.5210 C   0  0  0  0  0  3  0  0  0  0  0  0
  186.1650  178.1840  142.6730 C   0  0  0  0  0  0  0  0  0  0  0  0
  185.3080  178.4570  143.7340 C   0  0  0  0  0  0  0  0  0  0  0  0
  189.0840  177.2690  139.6480 C   0  0  0  0  0  0  0  0  0  0  0  0
  190.7430  176.7320  141.3520 C   0  0  0  0  0  3  0  0  0  0  0  0
  184.6090  178.6860  145.8680 C   0  0  0  0  0  0  0  0  0  0  0  0
  191.4360  176.4330  139.0200 C   0  0  0  0  0  2  0  0  0  0  0  0
  191.3600  176.5680  144.1360 C   0  0  0  0  0  3  0  0  0  0  0  0
  189.7800  177.0540  142.3740 N   0  0  0  0  0  0  0  0  0  0  0  0
  190.1330  176.9490  143.7580 C   0  0  2  0  0  3  0  0  0  0  0  0
  187.8800  177.6570  144.3730 C   0  0  0  0  0  0  0  0  0  0  0  0
  183.4480  179.0440  144.9940 C   0  0  0  0  0  2  0  0  0  0  0  0
  188.8000  177.3680  138.2060 C   0  0  0  0  0  0  0  0  0  0  0  0
  190.4380  176.8430  140.0600 C   0  0  0  0  0  0  0  0  0  0  0  0
  183.9810  178.8710  143.6730 O   0  0  0  0  0  0  0  0  0  0  0  0
  187.6200  177.5430  137.7950 O   0  0  0  0  0  0  0  0  0  0  0  0
  189.8850  177.2280  137.2730 N   0  0  0  0  0  0  0  0  0  0  0  0
  189.4490  177.1750  146.2420 C   0  0  0  0  0  3  0  0  0  0  0  0
  189.1120  177.2740  144.7670 C   0  0  0  0  0  0  0  0  0  0  0  0
  186.9630  177.9470  145.3460 N   0  0  0  0  0  0  0  0  0  0  0  0
  188.1550  177.5580  140.5620 C   0  0  0  0  0  3  0  0  0  0  0  0
  185.4610  178.3940  141.0660 Cl  0  0  0  0  0  0  0  0  0  0  0  0
  184.6170  178.6890  147.1270 O   0  0  0  0  0  0  0  0  0  0  0  0
  187.5130  177.7650  142.9740 C   0  0  0  0  0  0  0  0  0  0  0  0
  185.7160  178.3360  145.0160 C   0  0  0  0  0  0  0  0  0  0  0  0
  189.6290  176.9720  135.8580 C   0  0  0  0  0  2  0  0  0  0  0  0
  189.5540  175.4770  135.5370 C   0  0  0  0  0  3  0  0  0  0  0  0
  188.1300  175.0150  135.2890 C   0  0  0  0  0  1  0  0  0  0  0  0
  190.4420  175.1060  134.3640 C   0  0  0  0  0  1  0  0  0  0  0  0
  1 10  1  0  0  0  0
  2 12  1  0  0  0  0
  2 27  2  0  0  0  0
  3  4  1  0  0  0  0
  5 27  1  0  0  0  0
  5  6  2  0  0  0  0
  6 28  1  0  0  0  0
  7 17  1  0  0  0  0
  7 24  2  0  0  0  0
  8 12  1  0  0  0  0
  9 26  2  0  0  0  0
 10 17  1  0  0  0  0
 11  3  2  0  0  0  0
 12 13  1  0  0  0  0
 13 11  1  6  0  0  0
 13 22  1  0  0  0  0
 14 22  2  0  0  0  0
 14 23  1  0  0  0  0
 15  9  1  0  0  0  0
 16  7  1  0  0  0  0
 17  8  2  0  0  0  0
 18  6  1  0  0  0  0
 18 15  1  0  0  0  0
 19 16  2  0  0  0  0
 20  1  1  0  0  0  0
 20 16  1  0  0  0  0
 21  4  2  0  0  0  0
 22 21  1  0  0  0  0
 24  2  1  0  0  0  0
 25  5  1  0  0  0  0
 27 14  1  0  0  0  0
 28 23  2  0  0  0  0
 28  9  1  0  0  0  0
 29 20  1  0  0  0  0
 30 29  1  0  0  0  0
 31 30  1  0  0  0  0
 32 30  1  0  0  0  0
M  END
>  <MODEL>
2

>  <REMARK>
 VINA RESULT:     -10.2      2.336      4.495
  Name = 
  2 active torsions:
  status: ('A' for Active; 'I' for Inactive)
    1  A    between atoms: C_1  and  C_10
    2  A    between atoms: C_10  and  N_24
                            x       y       z     vdW  Elec       q    Type
                         _______ _______ _______ _____ _____    ______ ____

>  <TORSDO>
F 2

$$$$
=
 OpenBabel10272413233D

 32 37  0  0  1  0  0  0  0  0999 V2000
  191.9840  177.6360  140.5240 C   0  0  0  0  0  2  0  0  0  0  0  0
  187.2430  177.9210  142.4100 C   0  0  0  0  0  0  0  0  0  0  0  0
  188.0000  177.8200  147.2910 C   0  0  0  0  0  3  0  0  0  0  0  0
  186.7200  178.0800  147.5520 C   0  0  0  0  0  3  0  0  0  0  0  0
  184.9560  178.3720  141.5730 C   0  0  0  0  0  0  0  0  0  0  0  0
  183.6360  178.6410  141.9190 C   0  0  0  0  0  0  0  0  0  0  0  0
  189.1170  177.5360  140.8710 C   0  0  0  0  0  0  0  0  0  0  0  0
  189.5470  177.4490  143.2690 C   0  0  0  0  0  3  0  0  0  0  0  0
  181.8420  179.0170  143.2360 C   0  0  0  0  0  0  0  0  0  0  0  0
  191.4520  176.9800  141.8000 C   0  0  0  0  0  2  0  0  0  0  0  0
  188.4890  177.7060  145.9100 C   0  0  0  0  0  3  0  0  0  0  0  0
  188.1600  177.7470  143.5170 N   0  0  0  0  0  0  0  0  0  0  0  0
  187.6730  177.8590  144.8590 C   0  0  2  0  0  3  0  0  0  0  0  0
  185.4340  178.3020  143.9970 C   0  0  0  0  0  0  0  0  0  0  0  0
  181.3610  179.0980  141.8200 C   0  0  0  0  0  2  0  0  0  0  0  0
  189.6940  177.4220  139.5210 C   0  0  0  0  0  0  0  0  0  0  0  0
  190.0210  177.3620  142.0270 C   0  0  0  0  0  0  0  0  0  0  0  0
  182.5560  178.8490  141.0660 O   0  0  0  0  0  0  0  0  0  0  0  0
  188.9460  177.3750  138.5050 O   0  0  0  0  0  0  0  0  0  0  0  0
  191.1220  177.3310  139.3810 N   0  0  0  0  0  0  0  0  0  0  0  0
  185.6930  178.2760  146.4700 C   0  0  0  0  0  3  0  0  0  0  0  0
  186.2450  178.1500  145.0640 C   0  0  0  0  0  0  0  0  0  0  0  0
  184.1130  178.5700  144.2350 N   0  0  0  0  0  0  0  0  0  0  0  0
  187.8200  177.7940  141.0550 C   0  0  0  0  0  3  0  0  0  0  0  0
  185.2740  178.2860  139.8370 Cl  0  0  0  0  0  0  0  0  0  0  0  0
  181.1360  179.1700  144.2670 O   0  0  0  0  0  0  0  0  0  0  0  0
  185.9170  178.1890  142.6340 C   0  0  0  0  0  0  0  0  0  0  0  0
  183.2530  178.7320  143.2110 C   0  0  0  0  0  0  0  0  0  0  0  0
  191.7250  176.8750  138.1300 C   0  0  0  0  0  2  0  0  0  0  0  0
  192.0050  175.3700  138.1290 C   0  0  0  0  0  3  0  0  0  0  0  0
  190.9790  174.5970  137.3230 C   0  0  0  0  0  1  0  0  0  0  0  0
  193.4070  175.0580  137.6400 C   0  0  0  0  0  1  0  0  0  0  0  0
  1 10  1  0  0  0  0
  2 27  2  0  0  0  0
  2 12  1  0  0  0  0
  3  4  1  0  0  0  0
  5  6  2  0  0  0  0
  5 27  1  0  0  0  0
  6 28  1  0  0  0  0
  7 24  2  0  0  0  0
  7 17  1  0  0  0  0
  8 12  1  0  0  0  0
  9 26  2  0  0  0  0
 10 17  1  0  0  0  0
 11  3  2  0  0  0  0
 12 13  1  0  0  0  0
 13 22  1  0  0  0  0
 13 11  1  6  0  0  0
 14 23  1  0  0  0  0
 14 22  2  0  0  0  0
 15  9  1  0  0  0  0
 16  7  1  0  0  0  0
 17  8  2  0  0  0  0
 18 15  1  0  0  0  0
 18  6  1  0  0  0  0
 19 16  2  0  0  0  0
 20 16  1  0  0  0  0
 20  1  1  0  0  0  0
 21  4  2  0  0  0  0
 22 21  1  0  0  0  0
 24  2  1  0  0  0  0
 25  5  1  0  0  0  0
 27 14  1  0  0  0  0
 28  9  1  0  0  0  0
 28 23  2  0  0  0  0
 29 20  1  0  0  0  0
 30 29  1  0  0  0  0
 31 30  1  0  0  0  0
 32 30  1  0  0  0  0
M  END
>  <MODEL>
3

>  <REMARK>
 VINA RESULT:     -10.1      2.969      5.037
  Name = 
  2 active torsions:
  status: ('A' for Active; 'I' for Inactive)
    1  A    between atoms: C_1  and  C_10
    2  A    between atoms: C_10  and  N_24
                            x       y       z     vdW  Elec       q    Type
                         _______ _______ _______ _____ _____    ______ ____

>  <TORSDO>
F 2

$$$$
=
 OpenBabel10272413233D

 32 37  0  0  1  0  0  0  0  0999 V2000
  183.6220  179.6600  138.9470 C   0  0  0  0  0  2  0  0  0  0  0  0
  186.8470  178.1300  142.6040 C   0  0  0  0  0  0  0  0  0  0  0  0
  191.0800  177.5000  140.1340 C   0  0  0  0  0  3  0  0  0  0  0  0
  191.7700  177.2980  141.2550 C   0  0  0  0  0  3  0  0  0  0  0  0
  186.8790  177.9630  145.0750 C   0  0  0  0  0  0  0  0  0  0  0  0
  187.6620  177.7430  146.2040 C   0  0  0  0  0  0  0  0  0  0  0  0
  184.7740  178.6060  141.3790 C   0  0  0  0  0  0  0  0  0  0  0  0
  186.8260  178.2800  140.1040 C   0  0  0  0  0  3  0  0  0  0  0  0
  189.5060  177.3190  147.4350 C   0  0  0  0  0  0  0  0  0  0  0  0
  184.7850  178.6760  138.8060 C   0  0  0  0  0  2  0  0  0  0  0  0
  189.6350  177.7670  140.1660 C   0  0  0  0  0  3  0  0  0  0  0  0
  187.5460  178.0820  141.3370 N   0  0  0  0  0  0  0  0  0  0  0  0
  188.9530  177.8190  141.3170 C   0  0  2  0  0  3  0  0  0  0  0  0
  188.9450  177.6630  143.7520 C   0  0  0  0  0  0  0  0  0  0  0  0
  188.3690  177.4690  148.3980 C   0  0  0  0  0  2  0  0  0  0  0  0
  183.3310  178.8960  141.3200 C   0  0  0  0  0  0  0  0  0  0  0  0
  185.5200  178.5450  140.1060 C   0  0  0  0  0  0  0  0  0  0  0  0
  187.2540  177.7320  147.5350 O   0  0  0  0  0  0  0  0  0  0  0  0
  182.6090  178.7770  142.3490 O   0  0  0  0  0  0  0  0  0  0  0  0
  182.7510  179.2840  140.0630 N   0  0  0  0  0  0  0  0  0  0  0  0
  191.1340  177.3280  142.6190 C   0  0  0  0  0  3  0  0  0  0  0  0
  189.6440  177.6080  142.5990 C   0  0  0  0  0  0  0  0  0  0  0  0
  189.6290  177.4590  144.9200 N   0  0  0  0  0  0  0  0  0  0  0  0
  185.3970  178.4090  142.5430 C   0  0  0  0  0  3  0  0  0  0  0  0
  185.1670  178.2590  145.3950 Cl  0  0  0  0  0  0  0  0  0  0  0  0
  190.7030  177.0770  147.7350 O   0  0  0  0  0  0  0  0  0  0  0  0
  187.5190  177.9270  143.7820 C   0  0  0  0  0  0  0  0  0  0  0  0
  188.9870  177.5020  146.1040 C   0  0  0  0  0  0  0  0  0  0  0  0
  181.3040  179.2470  139.8610 C   0  0  0  0  0  2  0  0  0  0  0  0
  180.8140  177.8750  139.3890 C   0  0  0  0  0  3  0  0  0  0  0  0
  180.0070  177.1580  140.4560 C   0  0  0  0  0  1  0  0  0  0  0  0
  180.0190  177.9730  138.1010 C   0  0  0  0  0  1  0  0  0  0  0  0
  1 20  1  0  0  0  0
  2 27  2  0  0  0  0
  3 11  2  0  0  0  0
  3  4  1  0  0  0  0
  4 21  2  0  0  0  0
  5 25  1  0  0  0  0
  5  6  2  0  0  0  0
  6 18  1  0  0  0  0
  7 24  2  0  0  0  0
  8 17  2  0  0  0  0
  8 12  1  0  0  0  0
  9 26  2  0  0  0  0
  9 15  1  0  0  0  0
 10  1  1  0  0  0  0
 10 17  1  0  0  0  0
 12  2  1  0  0  0  0
 13 11  1  1  0  0  0
 13 12  1  0  0  0  0
 13 22  1  0  0  0  0
 14 27  1  0  0  0  0
 14 23  1  0  0  0  0
 16  7  1  0  0  0  0
 16 19  2  0  0  0  0
 17  7  1  0  0  0  0
 18 15  1  0  0  0  0
 20 16  1  0  0  0  0
 22 21  1  0  0  0  0
 22 14  2  0  0  0  0
 23 28  2  0  0  0  0
 24  2  1  0  0  0  0
 27  5  1  0  0  0  0
 28  6  1  0  0  0  0
 28  9  1  0  0  0  0
 29 20  1  0  0  0  0
 30 29  1  0  0  0  0
 30 31  1  0  0  0  0
 32 30  1  0  0  0  0
M  END
>  <MODEL>
4

>  <REMARK>
 VINA RESULT:     -10.0      2.984      5.755
  Name = 
  2 active torsions:
  status: ('A' for Active; 'I' for Inactive)
    1  A    between atoms: C_1  and  C_10
    2  A    between atoms: C_10  and  N_24
                            x       y       z     vdW  Elec       q    Type
                         _______ _______ _______ _____ _____    ______ ____

>  <TORSDO>
F 2

$$$$
=
 OpenBabel10272413233D

 32 37  0  0  1  0  0  0  0  0999 V2000
  180.7580  178.5300  140.9480 C   0  0  0  0  0  2  0  0  0  0  0  0
  185.7150  178.3520  142.1730 C   0  0  0  0  0  0  0  0  0  0  0  0
  185.6190  178.2810  147.1120 C   0  0  0  0  0  3  0  0  0  0  0  0
  186.9300  178.0570  147.1910 C   0  0  0  0  0  3  0  0  0  0  0  0
  187.8820  178.0060  141.0240 C   0  0  0  0  0  0  0  0  0  0  0  0
  189.2440  177.7720  141.1810 C   0  0  0  0  0  0  0  0  0  0  0  0
  183.6400  178.7180  140.9130 C   0  0  0  0  0  0  0  0  0  0  0  0
  183.5350  178.7180  143.3480 C   0  0  0  0  0  3  0  0  0  0  0  0
  191.2090  177.4190  142.2330 C   0  0  0  0  0  0  0  0  0  0  0  0
  181.4360  179.1650  142.1630 C   0  0  0  0  0  2  0  0  0  0  0  0
  184.9460  178.4190  145.8130 C   0  0  0  0  0  3  0  0  0  0  0  0
  184.9510  178.4610  143.3980 N   0  0  0  0  0  0  0  0  0  0  0  0
  185.6170  178.3260  144.6590 C   0  0  2  0  0  3  0  0  0  0  0  0
  187.7330  177.9860  143.4900 C   0  0  0  0  0  0  0  0  0  0  0  0
  191.4970  177.3960  140.7630 C   0  0  0  0  0  2  0  0  0  0  0  0
  182.8850  178.8530  139.6560 C   0  0  0  0  0  0  0  0  0  0  0  0
  182.8960  178.8260  142.1840 C   0  0  0  0  0  0  0  0  0  0  0  0
  190.2050  177.6270  140.1840 O   0  0  0  0  0  0  0  0  0  0  0  0
  183.4870  178.9560  138.5520 O   0  0  0  0  0  0  0  0  0  0  0  0
  181.4480  178.8990  139.7110 N   0  0  0  0  0  0  0  0  0  0  0  0
  187.8080  177.9290  145.9760 C   0  0  0  0  0  3  0  0  0  0  0  0
  187.0680  178.0780  144.6610 C   0  0  0  0  0  0  0  0  0  0  0  0
  189.0810  177.7570  143.5410 N   0  0  0  0  0  0  0  0  0  0  0  0
  184.9580  178.5000  140.9130 C   0  0  0  0  0  3  0  0  0  0  0  0
  187.3310  178.1330  139.3490 Cl  0  0  0  0  0  0  0  0  0  0  0  0
  192.0520  177.2590  143.1540 O   0  0  0  0  0  0  0  0  0  0  0  0
  187.0670  178.1230  142.2090 C   0  0  0  0  0  0  0  0  0  0  0  0
  189.8000  177.6550  142.4060 C   0  0  0  0  0  0  0  0  0  0  0  0
  180.6690  179.3710  138.5690 C   0  0  0  0  0  2  0  0  0  0  0  0
  180.8720  180.8640  138.2980 C   0  0  0  0  0  3  0  0  0  0  0  0
  180.5950  181.2260  136.8510 C   0  0  0  0  0  1  0  0  0  0  0  0
  180.0370  181.7240  139.2270 C   0  0  0  0  0  1  0  0  0  0  0  0
  1 10  1  0  0  0  0
  2 27  2  0  0  0  0
  2 12  1  0  0  0  0
  3  4  1  0  0  0  0
  5  6  2  0  0  0  0
  5 27  1  0  0  0  0
  6 28  1  0  0  0  0
  7 24  2  0  0  0  0
  7 17  1  0  0  0  0
  8 12  1  0  0  0  0
  9 28  1  0  0  0  0
  9 26  2  0  0  0  0
 10 17  1  0  0  0  0
 11  3  2  0  0  0  0
 12 13  1  0  0  0  0
 13 22  1  0  0  0  0
 13 11  1  6  0  0  0
 14 23  1  0  0  0  0
 14 22  2  0  0  0  0
 15  9  1  0  0  0  0
 16 20  1  0  0  0  0
 16  7  1  0  0  0  0
 17  8  2  0  0  0  0
 18 15  1  0  0  0  0
 18  6  1  0  0  0  0
 19 16  2  0  0  0  0
 20  1  1  0  0  0  0
 21  4  2  0  0  0  0
 22 21  1  0  0  0  0
 24  2  1  0  0  0  0
 25  5  1  0  0  0  0
 27 14  1  0  0  0  0
 28 23  2  0  0  0  0
 29 20  1  0  0  0  0
 30 29  1  0  0  0  0
 30 32  1  0  0  0  0
 31 30  1  0  0  0  0
M  END
>  <MODEL>
5

>  <REMARK>
 VINA RESULT:      -9.9      3.251      5.999
  Name = 
  2 active torsions:
  status: ('A' for Active; 'I' for Inactive)
    1  A    between atoms: C_1  and  C_10
    2  A    between atoms: C_10  and  N_24
                            x       y       z     vdW  Elec       q    Type
                         _______ _______ _______ _____ _____    ______ ____

>  <TORSDO>
F 2

$$$$
=
 OpenBabel10272413233D

 32 37  0  0  0  0  0  0  0  0999 V2000
  182.8740  178.4170  144.6490 C   0  0  0  0  0  2  0  0  0  0  0  0
  187.4640  177.8990  142.4650 C   0  0  0  0  0  0  0  0  0  0  0  0
  190.4130  176.9860  146.3230 C   0  0  0  0  0  3  0  0  0  0  0  0
  191.4530  176.7160  145.5370 C   0  0  0  0  0  3  0  0  0  0  0  0
  188.4010  177.6950  140.1810 C   0  0  0  0  0  0  0  0  0  0  0  0
  189.5280  177.4010  139.4220 C   0  0  0  0  0  0  0  0  0  0  0  0
  185.1210  178.5310  142.8370 C   0  0  0  0  0  0  0  0  0  0  0  0
  186.5340  178.1170  144.7800 C   0  0  0  0  0  3  0  0  0  0  0  0
  191.6600  176.8200  138.9600 C   0  0  0  0  0  0  0  0  0  0  0  0
  184.2290  178.8170  145.2340 C   0  0  0  0  0  2  0  0  0  0  0  0
  189.1080  177.3620  145.7600 C   0  0  0  0  0  3  0  0  0  0  0  0
  187.6350  177.8160  143.9010 N   0  0  0  0  0  0  0  0  0  0  0  0
  188.9100  177.4500  144.4390 C   0  0  0  0  0  0  0  0  0  0  0  0
  189.7970  177.2580  142.1740 C   0  0  0  0  0  0  0  0  0  0  0  0
  190.9790  177.0410  137.6440 C   0  0  0  0  0  2  0  0  0  0  0  0
  183.7780  178.8990  142.3580 C   0  0  0  0  0  0  0  0  0  0  0  0
  185.3350  178.4400  144.2960 C   0  0  0  0  0  0  0  0  0  0  0  0
  189.6470  177.4030  138.0350 O   0  0  0  0  0  0  0  0  0  0  0  0
  183.5820  179.1730  141.1420 O   0  0  0  0  0  0  0  0  0  0  0  0
  182.6990  178.9730  143.3060 N   0  0  0  0  0  0  0  0  0  0  0  0
  191.3740  176.7750  144.0350 C   0  0  0  0  0  2  0  0  0  0  0  0
  190.0100  177.1670  143.5030 C   0  0  0  0  0  0  0  0  0  0  0  0
  190.8490  176.9870  141.3410 N   0  0  0  0  0  0  0  0  0  0  0  0
  186.1190  178.2800  141.9860 C   0  0  0  0  0  3  0  0  0  0  0  0
  186.9600  178.1210  139.2520 Cl  0  0  0  0  0  0  0  0  0  0  0  0
  192.8610  176.4820  139.1230 O   0  0  0  0  0  0  0  0  0  0  0  0
  188.5090  177.6300  141.6190 C   0  0  0  0  0  0  0  0  0  0  0  0
  190.6990  177.0610  140.0040 C   0  0  0  0  0  0  0  0  0  0  0  0
  181.4510  179.6550  142.9690 C   0  0  0  0  0  2  0  0  0  0  0  0
  180.2750  178.6850  142.8230 C   0  0  0  0  0  3  0  0  0  0  0  0
  180.4870  177.6940  141.6950 C   0  0  0  0  0  1  0  0  0  0  0  0
  179.9820  177.9560  144.1210 C   0  0  0  0  0  1  0  0  0  0  0  0
  1 10  1  0  0  0  0
  2 12  1  0  0  0  0
  4  3  2  0  0  0  0
  5 27  1  0  0  0  0
  6 28  1  0  0  0  0
  6  5  2  0  0  0  0
  7 17  1  0  0  0  0
  9 26  2  0  0  0  0
  9 28  1  0  0  0  0
 11  3  1  0  0  0  0
 12 13  1  0  0  0  0
 12  8  1  0  0  0  0
 13 11  2  0  0  0  0
 14 22  2  0  0  0  0
 15 18  1  0  0  0  0
 15  9  1  0  0  0  0
 16  7  1  0  0  0  0
 16 20  1  0  0  0  0
 17  8  2  0  0  0  0
 17 10  1  0  0  0  0
 18  6  1  0  0  0  0
 19 16  2  0  0  0  0
 20  1  1  0  0  0  0
 21  4  1  0  0  0  0
 22 21  1  0  0  0  0
 22 13  1  0  0  0  0
 23 14  1  0  0  0  0
 24  2  1  0  0  0  0
 24  7  2  0  0  0  0
 25  5  1  0  0  0  0
 27 14  1  0  0  0  0
 27  2  2  0  0  0  0
 28 23  2  0  0  0  0
 29 20  1  0  0  0  0
 30 29  1  0  0  0  0
 30 32  1  0  0  0  0
 31 30  1  0  0  0  0
M  END
>  <MODEL>
6

>  <REMARK>
 VINA RESULT:      -9.6      2.856      7.512
  Name = 
  2 active torsions:
  status: ('A' for Active; 'I' for Inactive)
    1  A    between atoms: C_1  and  C_10
    2  A    between atoms: C_10  and  N_24
                            x       y       z     vdW  Elec       q    Type
                         _______ _______ _______ _____ _____    ______ ____

>  <TORSDO>
F 2

$$$$
=
 OpenBabel10272413233D

 32 37  0  0  1  0  0  0  0  0999 V2000
  192.7600  177.3390  140.1830 C   0  0  0  0  0  2  0  0  0  0  0  0
  188.3190  177.6920  142.6840 C   0  0  0  0  0  0  0  0  0  0  0  0
  189.7010  177.3660  147.4160 C   0  0  0  0  0  3  0  0  0  0  0  0
  188.4760  177.6550  147.8530 C   0  0  0  0  0  3  0  0  0  0  0  0
  185.9590  178.2480  142.1730 C   0  0  0  0  0  0  0  0  0  0  0  0
  184.7060  178.5430  142.6990 C   0  0  0  0  0  0  0  0  0  0  0  0
  189.9610  177.3140  140.9000 C   0  0  0  0  0  0  0  0  0  0  0  0
  190.6960  177.1140  143.2150 C   0  0  0  0  0  3  0  0  0  0  0  0
  183.1140  178.9200  144.2540 C   0  0  0  0  0  0  0  0  0  0  0  0
  192.3760  176.6480  141.4920 C   0  0  0  0  0  2  0  0  0  0  0  0
  190.0010  177.2950  145.9800 C   0  0  0  0  0  3  0  0  0  0  0  0
  189.3640  177.4450  143.6550 N   0  0  0  0  0  0  0  0  0  0  0  0
  189.0610  177.5160  145.0520 C   0  0  2  0  0  3  0  0  0  0  0  0
  186.7460  178.0630  144.5090 C   0  0  0  0  0  0  0  0  0  0  0  0
  182.4560  179.0740  142.9170 C   0  0  0  0  0  2  0  0  0  0  0  0
  190.3520  177.2380  139.4820 C   0  0  0  0  0  0  0  0  0  0  0  0
  191.0010  177.0640  141.9190 C   0  0  0  0  0  0  0  0  0  0  0  0
  183.5330  178.8190  142.0040 O   0  0  0  0  0  0  0  0  0  0  0  0
  189.4780  177.2560  138.5720 O   0  0  0  0  0  0  0  0  0  0  0  0
  191.7460  177.1090  139.1520 N   0  0  0  0  0  0  0  0  0  0  0  0
  187.3240  177.9260  146.9240 C   0  0  0  0  0  3  0  0  0  0  0  0
  187.6830  177.8420  145.4540 C   0  0  0  0  0  0  0  0  0  0  0  0
  185.4780  178.3610  144.9280 N   0  0  0  0  0  0  0  0  0  0  0  0
  188.7090  177.6040  141.2610 C   0  0  0  0  0  3  0  0  0  0  0  0
  186.0450  178.2240  140.4080 Cl  0  0  0  0  0  0  0  0  0  0  0  0
  182.5540  179.0520  145.3730 O   0  0  0  0  0  0  0  0  0  0  0  0
  187.0430  177.9920  143.0910 C   0  0  0  0  0  0  0  0  0  0  0  0
  184.4980  178.5930  144.0330 C   0  0  0  0  0  0  0  0  0  0  0  0
  192.1640  176.6870  137.8170 C   0  0  0  0  0  2  0  0  0  0  0  0
  192.5650  175.2100  137.7680 C   0  0  0  0  0  3  0  0  0  0  0  0
  191.5120  174.3540  137.0890 C   0  0  0  0  0  1  0  0  0  0  0  0
  193.9150  175.0130  137.1050 C   0  0  0  0  0  1  0  0  0  0  0  0
  1 10  1  0  0  0  0
  2 27  2  0  0  0  0
  2 12  1  0  0  0  0
  3  4  1  0  0  0  0
  5  6  2  0  0  0  0
  5 27  1  0  0  0  0
  6 28  1  0  0  0  0
  7 24  2  0  0  0  0
  7 17  1  0  0  0  0
  8 12  1  0  0  0  0
  9 26  2  0  0  0  0
 10 17  1  0  0  0  0
 11  3  2  0  0  0  0
 12 13  1  0  0  0  0
 13 22  1  0  0  0  0
 13 11  1  1  0  0  0
 14 23  1  0  0  0  0
 14 22  2  0  0  0  0
 15  9  1  0  0  0  0
 16  7  1  0  0  0  0
 17  8  2  0  0  0  0
 18  6  1  0  0  0  0
 18 15  1  0  0  0  0
 19 16  2  0  0  0  0
 20 16  1  0  0  0  0
 20  1  1  0  0  0  0
 21  4  2  0  0  0  0
 22 21  1  0  0  0  0
 24  2  1  0  0  0  0
 25  5  1  0  0  0  0
 27 14  1  0  0  0  0
 28  9  1  0  0  0  0
 28 23  2  0  0  0  0
 29 20  1  0  0  0  0
 30 29  1  0  0  0  0
 31 30  1  0  0  0  0
 32 30  1  0  0  0  0
M  END
>  <MODEL>
7

>  <REMARK>
 VINA RESULT:      -9.4      2.793      4.883
  Name = 
  2 active torsions:
  status: ('A' for Active; 'I' for Inactive)
    1  A    between atoms: C_1  and  C_10
    2  A    between atoms: C_10  and  N_24
                            x       y       z     vdW  Elec       q    Type
                         _______ _______ _______ _____ _____    ______ ____

>  <TORSDO>
F 2

$$$$
=
 OpenBabel10272413233D

 32 37  0  0  1  0  0  0  0  0999 V2000
  190.4530  176.6640  137.5090 C   0  0  0  0  0  2  0  0  0  0  0  0
  189.0130  177.6180  142.3180 C   0  0  0  0  0  0  0  0  0  0  0  0
  184.2390  178.7890  141.8180 C   0  0  0  0  0  3  0  0  0  0  0  0
  184.0470  178.8110  143.1360 C   0  0  0  0  0  3  0  0  0  0  0  0
  189.9360  177.3500  144.6010 C   0  0  0  0  0  0  0  0  0  0  0  0
  189.6640  177.3900  145.9650 C   0  0  0  0  0  0  0  0  0  0  0  0
  190.4130  177.3060  140.3260 C   0  0  0  0  0  0  0  0  0  0  0  0
  188.0710  177.9080  140.0160 C   0  0  0  0  0  3  0  0  0  0  0  0
  188.4720  177.6430  147.8650 C   0  0  0  0  0  0  0  0  0  0  0  0
  189.4210  177.6890  137.9820 C   0  0  0  0  0  2  0  0  0  0  0  0
  185.5560  178.4800  141.2430 C   0  0  0  0  0  3  0  0  0  0  0  0
  187.8940  177.9070  141.4460 N   0  0  0  0  0  0  0  0  0  0  0  0
  186.6150  178.2080  142.0160 C   0  0  2  0  0  3  0  0  0  0  0  0
  187.5600  177.9340  144.2490 C   0  0  0  0  0  0  0  0  0  0  0  0
  189.8700  177.2950  148.2760 C   0  0  0  0  0  2  0  0  0  0  0  0
  191.6920  176.9910  139.6670 C   0  0  0  0  0  0  0  0  0  0  0  0
  189.2490  177.6110  139.4690 C   0  0  0  0  0  0  0  0  0  0  0  0
  190.5440  177.1560  147.0170 O   0  0  0  0  0  0  0  0  0  0  0  0
  192.7570  176.9080  140.3390 O   0  0  0  0  0  0  0  0  0  0  0  0
  191.7130  176.8140  138.2400 N   0  0  0  0  0  0  0  0  0  0  0  0
  185.1470  178.5240  144.1220 C   0  0  0  0  0  3  0  0  0  0  0  0
  186.4850  178.2110  143.4820 C   0  0  0  0  0  0  0  0  0  0  0  0
  187.3930  177.9490  145.6070 N   0  0  0  0  0  0  0  0  0  0  0  0
  190.2990  177.3140  141.6560 C   0  0  0  0  0  3  0  0  0  0  0  0
  191.6060  176.9550  144.1800 Cl  0  0  0  0  0  0  0  0  0  0  0  0
  187.5060  177.8620  148.6410 O   0  0  0  0  0  0  0  0  0  0  0  0
  188.8600  177.6300  143.6810 C   0  0  0  0  0  0  0  0  0  0  0  0
  188.4290  177.6810  146.4260 C   0  0  0  0  0  0  0  0  0  0  0  0
  192.9720  176.8460  137.4990 C   0  0  0  0  0  2  0  0  0  0  0  0
  193.3490  175.4780  136.9250 C   0  0  0  0  0  3  0  0  0  0  0  0
  193.4410  175.4980  135.4110 C   0  0  0  0  0  1  0  0  0  0  0  0
  194.6380  174.9500  137.5270 C   0  0  0  0  0  1  0  0  0  0  0  0
  1 10  1  0  0  0  0
  1 20  1  0  0  0  0
  2 27  2  0  0  0  0
  3  4  1  0  0  0  0
  4 21  2  0  0  0  0
  5  6  2  0  0  0  0
  6 28  1  0  0  0  0
  6 18  1  0  0  0  0
  7 24  2  0  0  0  0
  8 12  1  0  0  0  0
  9 15  1  0  0  0  0
  9 26  2  0  0  0  0
 10 17  1  0  0  0  0
 11  3  2  0  0  0  0
 12 13  1  0  0  0  0
 12  2  1  0  0  0  0
 13 11  1  6  0  0  0
 13 22  1  0  0  0  0
 14 23  1  0  0  0  0
 16  7  1  0  0  0  0
 16 19  2  0  0  0  0
 17  8  2  0  0  0  0
 17  7  1  0  0  0  0
 18 15  1  0  0  0  0
 20 16  1  0  0  0  0
 22 21  1  0  0  0  0
 22 14  2  0  0  0  0
 23 28  2  0  0  0  0
 24  2  1  0  0  0  0
 25  5  1  0  0  0  0
 27 14  1  0  0  0  0
 27  5  1  0  0  0  0
 28  9  1  0  0  0  0
 29 20  1  0  0  0  0
 30 29  1  0  0  0  0
 30 32  1  0  0  0  0
 31 30  1  0  0  0  0
M  END
>  <MODEL>
8

>  <REMARK>
 VINA RESULT:      -9.4      1.550      2.143
  Name = 
  2 active torsions:
  status: ('A' for Active; 'I' for Inactive)
    1  A    between atoms: C_1  and  C_10
    2  A    between atoms: C_10  and  N_24
                            x       y       z     vdW  Elec       q    Type
                         _______ _______ _______ _____ _____    ______ ____

>  <TORSDO>
F 2

$$$$
=
 OpenBabel10272413233D

 32 37  0  0  0  0  0  0  0  0999 V2000
  191.5210  176.3960  144.5150 C   0  0  0  0  0  2  0  0  0  0  0  0
  186.9880  178.0410  142.8260 C   0  0  0  0  0  0  0  0  0  0  0  0
  187.6430  178.2190  137.9320 C   0  0  0  0  0  3  0  0  0  0  0  0
  186.3550  178.4740  137.7110 C   0  0  0  0  0  3  0  0  0  0  0  0
  184.7120  178.4130  143.7320 C   0  0  0  0  0  0  0  0  0  0  0  0
  183.3820  178.6820  143.4280 C   0  0  0  0  0  0  0  0  0  0  0  0
  188.8950  177.5830  144.3010 C   0  0  0  0  0  0  0  0  0  0  0  0
  189.2850  177.6830  141.8970 C   0  0  0  0  0  3  0  0  0  0  0  0
  181.5550  179.1020  142.1700 C   0  0  0  0  0  0  0  0  0  0  0  0
  191.2520  177.2960  143.3080 C   0  0  0  0  0  2  0  0  0  0  0  0
  188.1630  178.0380  139.2950 C   0  0  0  0  0  3  0  0  0  0  0  0
  187.8830  177.9430  141.6920 N   0  0  0  0  0  0  0  0  0  0  0  0
  187.3670  178.1220  140.3680 C   0  0  0  0  0  0  0  0  0  0  0  0
  185.1400  178.4820  141.2990 C   0  0  0  0  0  0  0  0  0  0  0  0
  181.1040  179.0990  143.5980 C   0  0  0  0  0  2  0  0  0  0  0  0
  189.4950  177.3720  145.6300 C   0  0  0  0  0  0  0  0  0  0  0  0
  189.7780  177.4940  143.1200 C   0  0  0  0  0  0  0  0  0  0  0  0
  182.3180  178.8280  144.3130 O   0  0  0  0  0  0  0  0  0  0  0  0
  188.8370  177.6180  146.6780 O   0  0  0  0  0  0  0  0  0  0  0  0
  190.8560  176.9130  145.7120 N   0  0  0  0  0  0  0  0  0  0  0  0
  185.3480  178.5950  138.8230 C   0  0  0  0  0  2  0  0  0  0  0  0
  185.9310  178.4010  140.2080 C   0  0  0  0  0  0  0  0  0  0  0  0
  183.8110  178.7440  141.1020 N   0  0  0  0  0  0  0  0  0  0  0  0
  187.5930  177.8410  144.1590 C   0  0  0  0  0  3  0  0  0  0  0  0
  185.0690  178.2440  145.4540 Cl  0  0  0  0  0  0  0  0  0  0  0  0
  180.8260  179.3000  141.1640 O   0  0  0  0  0  0  0  0  0  0  0  0
  185.6540  178.3030  142.6430 C   0  0  0  0  0  0  0  0  0  0  0  0
  182.9710  178.8370  142.1510 C   0  0  0  0  0  0  0  0  0  0  0  0
  191.6070  177.0160  146.9610 C   0  0  0  0  0  2  0  0  0  0  0  0
  192.1170  175.6590  147.4520 C   0  0  0  0  0  3  0  0  0  0  0  0
  193.1040  175.7980  148.5950 C   0  0  0  0  0  1  0  0  0  0  0  0
  190.9780  174.7370  147.8460 C   0  0  0  0  0  1  0  0  0  0  0  0
  1 20  1  0  0  0  0
  2 24  1  0  0  0  0
  3 11  1  0  0  0  0
  4  3  2  0  0  0  0
  4 21  1  0  0  0  0
  5 25  1  0  0  0  0
  6  5  2  0  0  0  0
  6 18  1  0  0  0  0
  7 16  1  0  0  0  0
  8 17  2  0  0  0  0
  9 15  1  0  0  0  0
 10  1  1  0  0  0  0
 11 13  2  0  0  0  0
 12  8  1  0  0  0  0
 12  2  1  0  0  0  0
 13 12  1  0  0  0  0
 14 27  1  0  0  0  0
 15 18  1  0  0  0  0
 16 20  1  0  0  0  0
 16 19  2  0  0  0  0
 17 10  1  0  0  0  0
 17  7  1  0  0  0  0
 20 29  1  0  0  0  0
 21 22  1  0  0  0  0
 22 13  1  0  0  0  0
 22 14  2  0  0  0  0
 23 14  1  0  0  0  0
 23 28  2  0  0  0  0
 24  7  2  0  0  0  0
 26  9  2  0  0  0  0
 27  2  2  0  0  0  0
 27  5  1  0  0  0  0
 28  9  1  0  0  0  0
 28  6  1  0  0  0  0
 29 30  1  0  0  0  0
 30 32  1  0  0  0  0
 30 31  1  0  0  0  0
M  END
>  <MODEL>
9

>  <REMARK>
 VINA RESULT:      -9.1      2.944      7.452
  Name = 
  2 active torsions:
  status: ('A' for Active; 'I' for Inactive)
    1  A    between atoms: C_1  and  C_10
    2  A    between atoms: C_10  and  N_24
                            x       y       z     vdW  Elec       q    Type
                         _______ _______ _______ _____ _____    ______ ____

>  <TORSDO>
F 2

$$$$
