=
 OpenBabel10272400103D

 34 37  0  0  1  0  0  0  0  0999 V2000
  191.1650  177.3730  143.8620 C   0  0  1  0  0  0  0  0  0  0  0  0
  188.9440  177.9140  144.9850 C   0  0  0  0  0  1  0  0  0  0  0  0
  189.0800  177.9470  142.4460 C   0  0  1  0  0  3  0  0  0  0  0  0
  189.6170  177.3120  143.7530 C   0  0  1  0  0  3  0  0  0  0  0  0
  189.7900  177.3690  141.2160 C   0  0  2  0  0  3  0  0  0  0  0  0
  191.8020  176.8200  142.5830 C   0  0  0  0  0  2  0  0  0  0  0  0
  191.6280  178.8170  144.0640 C   0  0  0  0  0  1  0  0  0  0  0  0
  191.2980  177.5470  141.3440 C   0  0  0  0  0  2  0  0  0  0  0  0
  186.9520  179.0760  141.6480 C   0  0  0  0  0  2  0  0  0  0  0  0
  186.8410  177.2190  143.4940 C   0  0  0  0  0  2  0  0  0  0  0  0
  185.9980  178.2170  144.2770 C   0  0  0  0  0  2  0  0  0  0  0  0
  184.6290  179.3570  142.5050 C   0  0  0  0  0  2  0  0  0  0  0  0
  185.4770  178.9010  141.3270 C   0  0  0  0  0  2  0  0  0  0  0  0
  184.6180  178.3370  143.6380 C   0  0  2  0  0  3  0  0  0  0  0  0
  187.5590  177.8150  142.2680 C   0  0  2  0  0  3  0  0  0  0  0  0
  183.5870  178.7780  144.6660 C   0  0  0  0  0  2  0  0  0  0  0  0
  182.4030  179.4610  144.0030 C   0  0  0  0  0  2  0  0  0  0  0  0
  181.2230  178.5020  143.9240 C   0  0  2  0  0  3  0  0  0  0  0  0
  179.9820  177.1460  142.2890 O   0  0  0  0  0  1  0  0  0  0  0  0
  180.6970  178.3210  142.5090 C   0  0  1  0  0  0  0  0  0  0  0  0
  179.9890  179.2660  143.4500 C   0  0  0  0  0  2  0  0  0  0  0  0
  181.9260  178.0050  140.4820 O   0  0  0  0  0  1  0  0  0  0  0  0
  181.3700  178.9810  141.3110 C   0  0  0  0  0  2  0  0  0  0  0  0
  191.6630  176.5270  145.0070 C   0  0  0  0  0  0  0  0  0  0  0  0
  191.9920  175.3250  144.8240 O   0  0  0  0  0  0  0  0  0  0  0  0
  191.8510  177.0920  146.2640 O   0  0  0  0  0  1  0  0  0  0  0  0
  189.3290  178.0300  140.0400 O   0  0  0  0  0  0  0  0  0  0  0  0
  187.1210  177.0150  137.2690 C   0  0  0  0  0  0  0  0  0  0  0  0
  187.8880  176.0750  136.6520 N   0  0  0  0  0  0  0  0  0  0  0  0
  188.8640  177.3560  138.9030 C   0  0  0  0  0  0  0  0  0  0  0  0
  189.1230  175.7500  137.1150 C   0  0  0  0  0  3  0  0  0  0  0  0
  187.5980  177.6700  138.4080 C   0  0  0  0  0  3  0  0  0  0  0  0
  189.6360  176.3830  138.2500 C   0  0  0  0  0  3  0  0  0  0  0  0
  185.8910  177.3150  136.7830 F   0  0  0  0  0  0  0  0  0  0  0  0
  1  7  1  1  0  0  0
  1 24  1  0  0  0  0
  3 15  1  6  0  0  0
  3  4  1  0  0  0  0
  4  1  1  0  0  0  0
  4  2  1  1  0  0  0
  5 27  1  6  0  0  0
  5  8  1  0  0  0  0
  5  3  1  0  0  0  0
  6  1  1  0  0  0  0
  8  6  1  0  0  0  0
 10 11  1  0  0  0  0
 12 14  1  0  0  0  0
 13  9  1  0  0  0  0
 13 12  1  0  0  0  0
 14 11  1  0  0  0  0
 14 16  1  1  0  0  0
 15  9  1  1  0  0  0
 15 10  1  0  0  0  0
 17 16  1  0  0  0  0
 18 17  1  6  0  0  0
 20 19  1  6  0  0  0
 20 21  1  0  0  0  0
 20 18  1  0  0  0  0
 21 18  1  0  0  0  0
 22 23  1  0  0  0  0
 23 20  1  0  0  0  0
 24 26  1  0  0  0  0
 25 24  2  0  0  0  0
 28 32  1  0  0  0  0
 29 31  1  0  0  0  0
 29 28  2  0  0  0  0
 30 27  1  0  0  0  0
 31 33  2  0  0  0  0
 32 30  2  0  0  0  0
 33 30  1  0  0  0  0
 34 28  1  0  0  0  0
M  END
>  <MODEL>
1

>  <REMARK>
 VINA RESULT:      -8.7      0.000      0.000
  Name = 
  8 active torsions:
  status: ('A' for Active; 'I' for Inactive)
    1  A    between atoms: C_1  and  C_6
    2  A    between atoms: C_3  and  C_29
    3  A    between atoms: C_3  and  C_33
    4  A    between atoms: C_4  and  C_31
    5  A    between atoms: C_12  and  O_28
    6  A    between atoms: C_13  and  C_33
    7  A    between atoms: C_20  and  C_22
    8  A    between atoms: C_21  and  O_28
                            x       y       z     vdW  Elec       q    Type
                         _______ _______ _______ _____ _____    ______ ____

>  <TORSDO>
F 8

$$$$
=
 OpenBabel10272400103D

 34 37  0  0  1  0  0  0  0  0999 V2000
  191.1720  177.2740  144.2610 C   0  0  1  0  0  0  0  0  0  0  0  0
  188.9320  177.8830  145.3110 C   0  0  0  0  0  1  0  0  0  0  0  0
  189.1210  177.7880  142.7760 C   0  0  1  0  0  3  0  0  0  0  0  0
  189.6260  177.2160  144.1240 C   0  0  1  0  0  3  0  0  0  0  0  0
  189.8510  177.1450  141.5910 C   0  0  2  0  0  3  0  0  0  0  0  0
  191.8320  176.6540  143.0260 C   0  0  0  0  0  2  0  0  0  0  0  0
  191.6410  178.7240  144.4000 C   0  0  0  0  0  1  0  0  0  0  0  0
  191.3570  177.3210  141.7410 C   0  0  0  0  0  2  0  0  0  0  0  0
  187.0340  178.8360  141.7820 C   0  0  0  0  0  2  0  0  0  0  0  0
  186.8420  177.2300  143.8440 C   0  0  0  0  0  2  0  0  0  0  0  0
  185.9960  178.3310  144.4710 C   0  0  0  0  0  2  0  0  0  0  0  0
  184.6940  179.2560  142.5300 C   0  0  0  0  0  2  0  0  0  0  0  0
  185.5640  178.6420  141.4440 C   0  0  0  0  0  2  0  0  0  0  0  0
  184.6360  178.3880  143.7830 C   0  0  2  0  0  3  0  0  0  0  0  0
  187.6030  177.6550  142.5740 C   0  0  2  0  0  3  0  0  0  0  0  0
  183.5870  178.9710  144.7180 C   0  0  0  0  0  2  0  0  0  0  0  0
  182.3550  179.4230  143.9510 C   0  0  0  0  0  2  0  0  0  0  0  0
  181.4250  178.2420  143.7110 C   0  0  2  0  0  3  0  0  0  0  0  0
  179.9820  177.2830  141.9640 O   0  0  0  0  0  1  0  0  0  0  0  0
  180.4910  178.4510  142.5290 C   0  0  1  0  0  0  0  0  0  0  0  0
  179.9820  178.6890  143.9310 C   0  0  0  0  0  2  0  0  0  0  0  0
  181.5520  179.5130  140.6680 O   0  0  0  0  0  1  0  0  0  0  0  0
  180.5750  179.6920  141.6480 C   0  0  0  0  0  2  0  0  0  0  0  0
  191.6410  176.4840  145.4580 C   0  0  0  0  0  0  0  0  0  0  0  0
  191.9640  175.2720  145.3430 O   0  0  0  0  0  0  0  0  0  0  0  0
  191.8090  177.1120  146.6880 O   0  0  0  0  0  1  0  0  0  0  0  0
  189.4180  177.7480  140.3740 O   0  0  0  0  0  0  0  0  0  0  0  0
  190.2790  175.6580  137.4640 C   0  0  0  0  0  0  0  0  0  0  0  0
  189.0950  175.6400  136.7930 N   0  0  0  0  0  0  0  0  0  0  0  0
  189.2870  177.0510  139.1660 C   0  0  0  0  0  0  0  0  0  0  0  0
  188.0030  176.3000  137.2600 C   0  0  0  0  0  3  0  0  0  0  0  0
  190.3930  176.3670  138.6630 C   0  0  0  0  0  3  0  0  0  0  0  0
  188.0770  177.0190  138.4560 C   0  0  0  0  0  3  0  0  0  0  0  0
  191.3500  174.9910  136.9690 F   0  0  0  0  0  0  0  0  0  0  0  0
  1  7  1  1  0  0  0
  1 24  1  0  0  0  0
  3 15  1  6  0  0  0
  3  4  1  0  0  0  0
  4  1  1  0  0  0  0
  4  2  1  1  0  0  0
  5 27  1  6  0  0  0
  5  8  1  0  0  0  0
  5  3  1  0  0  0  0
  6  1  1  0  0  0  0
  8  6  1  0  0  0  0
 10 11  1  0  0  0  0
 12 14  1  0  0  0  0
 13  9  1  0  0  0  0
 13 12  1  0  0  0  0
 14 11  1  0  0  0  0
 14 16  1  1  0  0  0
 15  9  1  1  0  0  0
 15 10  1  0  0  0  0
 17 16  1  0  0  0  0
 18 21  1  0  0  0  0
 18 17  1  6  0  0  0
 20 19  1  6  0  0  0
 20 18  1  0  0  0  0
 20 21  1  0  0  0  0
 22 23  1  0  0  0  0
 23 20  1  0  0  0  0
 24 26  1  0  0  0  0
 25 24  2  0  0  0  0
 28 32  1  0  0  0  0
 29 31  1  0  0  0  0
 29 28  2  0  0  0  0
 30 27  1  0  0  0  0
 31 33  2  0  0  0  0
 32 30  2  0  0  0  0
 33 30  1  0  0  0  0
 34 28  1  0  0  0  0
M  END
>  <MODEL>
2

>  <REMARK>
 VINA RESULT:      -8.5      1.197      1.439
  Name = 
  8 active torsions:
  status: ('A' for Active; 'I' for Inactive)
    1  A    between atoms: C_1  and  C_6
    2  A    between atoms: C_3  and  C_29
    3  A    between atoms: C_3  and  C_33
    4  A    between atoms: C_4  and  C_31
    5  A    between atoms: C_12  and  O_28
    6  A    between atoms: C_13  and  C_33
    7  A    between atoms: C_20  and  C_22
    8  A    between atoms: C_21  and  O_28
                            x       y       z     vdW  Elec       q    Type
                         _______ _______ _______ _____ _____    ______ ____

>  <TORSDO>
F 8

$$$$
=
 OpenBabel10272400103D

 34 37  0  0  1  0  0  0  0  0999 V2000
  188.5020  177.7100  138.2300 C   0  0  1  0  0  0  0  0  0  0  0  0
  186.4090  178.3560  139.5330 C   0  0  0  0  0  1  0  0  0  0  0  0
  188.3930  177.3800  140.7920 C   0  0  1  0  0  3  0  0  0  0  0  0
  187.9310  178.2280  139.5800 C   0  0  1  0  0  3  0  0  0  0  0  0
  189.9170  177.2190  140.8080 C   0  0  2  0  0  3  0  0  0  0  0  0
  190.0190  177.5340  138.3360 C   0  0  0  0  0  2  0  0  0  0  0  0
  187.8690  176.3660  137.8650 C   0  0  0  0  0  1  0  0  0  0  0  0
  190.3990  176.6200  139.4930 C   0  0  0  0  0  2  0  0  0  0  0  0
  187.7730  176.8090  143.1850 C   0  0  0  0  0  2  0  0  0  0  0  0
  186.7680  178.9420  142.0420 C   0  0  0  0  0  2  0  0  0  0  0  0
  185.4220  178.4210  142.5280 C   0  0  0  0  0  2  0  0  0  0  0  0
  185.9490  177.4170  144.7710 C   0  0  0  0  0  2  0  0  0  0  0  0
  187.4550  177.3520  144.5690 C   0  0  0  0  0  2  0  0  0  0  0  0
  185.3190  178.5970  144.0400 C   0  0  2  0  0  3  0  0  0  0  0  0
  187.9210  177.9260  142.1490 C   0  0  2  0  0  3  0  0  0  0  0  0
  183.8630  178.7020  144.4700 C   0  0  0  0  0  2  0  0  0  0  0  0
  183.0140  179.3510  143.3890 C   0  0  0  0  0  2  0  0  0  0  0  0
  181.6020  178.7810  143.4210 C   0  0  2  0  0  3  0  0  0  0  0  0
  179.9820  177.6340  141.9680 O   0  0  0  0  0  1  0  0  0  0  0  0
  181.0170  178.5650  142.0350 C   0  0  1  0  0  0  0  0  0  0  0  0
  180.6390  179.8000  142.8180 C   0  0  0  0  0  2  0  0  0  0  0  0
  182.1010  177.6110  140.1290 O   0  0  0  0  0  1  0  0  0  0  0  0
  181.8280  178.8200  140.7710 C   0  0  0  0  0  2  0  0  0  0  0  0
  188.2460  178.6980  137.1190 C   0  0  0  0  0  0  0  0  0  0  0  0
  188.7450  179.8540  137.1580 O   0  0  0  0  0  1  0  0  0  0  0  0
  187.5290  178.3120  135.9910 O   0  0  0  0  0  0  0  0  0  0  0  0
  190.2990  176.3710  141.8890 O   0  0  0  0  0  0  0  0  0  0  0  0
  191.8280  178.6670  144.3330 C   0  0  0  0  0  0  0  0  0  0  0  0
  192.0030  177.8380  145.3990 N   0  0  0  0  0  0  0  0  0  0  0  0
  190.8750  176.8400  143.0770 C   0  0  0  0  0  0  0  0  0  0  0  0
  191.6380  176.5300  145.3500 C   0  0  0  0  0  3  0  0  0  0  0  0
  191.2610  178.1790  143.1530 C   0  0  0  0  0  3  0  0  0  0  0  0
  191.0660  176.0050  144.1880 C   0  0  0  0  0  3  0  0  0  0  0  0
  192.2060  179.9660  144.4140 F   0  0  0  0  0  0  0  0  0  0  0  0
  1  7  1  6  0  0  0
  1  6  1  0  0  0  0
  1  4  1  0  0  0  0
  3  5  1  0  0  0  0
  3 15  1  1  0  0  0
  4  2  1  6  0  0  0
  4  3  1  0  0  0  0
  5 27  1  1  0  0  0
  6  8  1  0  0  0  0
  8  5  1  0  0  0  0
  9 13  1  0  0  0  0
 10 11  1  0  0  0  0
 11 14  1  0  0  0  0
 13 12  1  0  0  0  0
 14 16  1  6  0  0  0
 14 12  1  0  0  0  0
 15 10  1  6  0  0  0
 15  9  1  0  0  0  0
 17 16  1  0  0  0  0
 18 17  1  6  0  0  0
 20 19  1  6  0  0  0
 20 21  1  0  0  0  0
 20 18  1  0  0  0  0
 21 18  1  0  0  0  0
 22 23  1  0  0  0  0
 23 20  1  0  0  0  0
 24 25  1  0  0  0  0
 24  1  1  0  0  0  0
 26 24  2  0  0  0  0
 27 30  1  0  0  0  0
 28 34  1  0  0  0  0
 28 29  1  0  0  0  0
 30 32  1  0  0  0  0
 30 33  2  0  0  0  0
 31 29  2  0  0  0  0
 32 28  2  0  0  0  0
 33 31  1  0  0  0  0
M  END
>  <MODEL>
3

>  <REMARK>
 VINA RESULT:      -7.9      2.827      5.375
  Name = 
  8 active torsions:
  status: ('A' for Active; 'I' for Inactive)
    1  A    between atoms: C_1  and  C_6
    2  A    between atoms: C_3  and  C_29
    3  A    between atoms: C_3  and  C_33
    4  A    between atoms: C_4  and  C_31
    5  A    between atoms: C_12  and  O_28
    6  A    between atoms: C_13  and  C_33
    7  A    between atoms: C_20  and  C_22
    8  A    between atoms: C_21  and  O_28
                            x       y       z     vdW  Elec       q    Type
                         _______ _______ _______ _____ _____    ______ ____

>  <TORSDO>
F 8

$$$$
=
 OpenBabel10272400103D

 34 37  0  0  1  0  0  0  0  0999 V2000
  188.3930  177.5160  147.4880 C   0  0  1  0  0  0  0  0  0  0  0  0
  190.6340  176.3910  147.0370 C   0  0  0  0  0  1  0  0  0  0  0  0
  189.0860  176.8830  145.0790 C   0  0  1  0  0  3  0  0  0  0  0  0
  189.5640  177.3310  146.4830 C   0  0  1  0  0  3  0  0  0  0  0  0
  187.9820  177.8050  144.5480 C   0  0  2  0  0  3  0  0  0  0  0  0
  187.3120  178.4100  146.8740 C   0  0  0  0  0  2  0  0  0  0  0  0
  187.7760  176.1610  147.8410 C   0  0  0  0  0  1  0  0  0  0  0  0
  186.8250  177.8660  145.5370 C   0  0  0  0  0  2  0  0  0  0  0  0
  190.7080  178.1700  143.6110 C   0  0  0  0  0  2  0  0  0  0  0  0
  189.9420  175.7600  142.9230 C   0  0  0  0  0  2  0  0  0  0  0  0
  189.6380  176.3750  141.5630 C   0  0  0  0  0  2  0  0  0  0  0  0
  191.4830  178.0520  141.2450 C   0  0  0  0  0  2  0  0  0  0  0  0
  191.9230  178.0870  142.7010 C   0  0  0  0  0  2  0  0  0  0  0  0
  190.9440  176.6860  140.8370 C   0  0  2  0  0  3  0  0  0  0  0  0
  190.2140  176.7850  144.0400 C   0  0  2  0  0  3  0  0  0  0  0  0
  190.7320  176.6880  139.3310 C   0  0  0  0  0  2  0  0  0  0  0  0
  189.2800  176.9680  138.9780 C   0  0  0  0  0  2  0  0  0  0  0  0
  189.1820  178.2290  138.1290 C   0  0  2  0  0  3  0  0  0  0  0  0
  187.5170  179.5910  136.9360 O   0  0  0  0  0  1  0  0  0  0  0  0
  187.8910  178.3080  137.3290 C   0  0  1  0  0  0  0  0  0  0  0  0
  189.1580  177.8380  136.6540 C   0  0  0  0  0  2  0  0  0  0  0  0
  185.5460  177.8470  137.2810 O   0  0  0  0  0  1  0  0  0  0  0  0
  186.7970  177.2560  137.4630 C   0  0  0  0  0  2  0  0  0  0  0  0
  188.8640  178.1910  148.7510 C   0  0  0  0  0  0  0  0  0  0  0  0
  189.9910  178.7540  148.7990 O   0  0  0  0  0  0  0  0  0  0  0  0
  188.0190  178.2820  149.8530 O   0  0  0  0  0  1  0  0  0  0  0  0
  187.5130  177.3200  143.2930 O   0  0  0  0  0  0  0  0  0  0  0  0
  184.2160  178.6700  142.3520 C   0  0  0  0  0  0  0  0  0  0  0  0
  184.4850  179.1920  141.1240 N   0  0  0  0  0  0  0  0  0  0  0  0
  186.5110  177.9490  142.5430 C   0  0  0  0  0  0  0  0  0  0  0  0
  185.7260  179.1160  140.5760 C   0  0  0  0  0  3  0  0  0  0  0  0
  185.2270  178.0380  143.0810 C   0  0  0  0  0  3  0  0  0  0  0  0
  186.7640  178.4930  141.2750 C   0  0  0  0  0  3  0  0  0  0  0  0
  182.9660  178.7600  142.8690 F   0  0  0  0  0  0  0  0  0  0  0  0
  1  7  1  1  0  0  0
  1 24  1  0  0  0  0
  3 15  1  6  0  0  0
  3  4  1  0  0  0  0
  4  2  1  1  0  0  0
  4  1  1  0  0  0  0
  5 27  1  6  0  0  0
  5  3  1  0  0  0  0
  5  8  1  0  0  0  0
  6  1  1  0  0  0  0
  8  6  1  0  0  0  0
  9 15  1  0  0  0  0
 11 10  1  0  0  0  0
 12 13  1  0  0  0  0
 13  9  1  0  0  0  0
 14 16  1  6  0  0  0
 14 12  1  0  0  0  0
 14 11  1  0  0  0  0
 15 10  1  6  0  0  0
 17 16  1  0  0  0  0
 18 17  1  1  0  0  0
 20 19  1  6  0  0  0
 20 23  1  0  0  0  0
 20 18  1  0  0  0  0
 21 20  1  0  0  0  0
 21 18  1  0  0  0  0
 22 23  1  0  0  0  0
 24 25  2  0  0  0  0
 24 26  1  0  0  0  0
 28 34  1  0  0  0  0
 28 32  1  0  0  0  0
 29 28  2  0  0  0  0
 30 32  2  0  0  0  0
 30 27  1  0  0  0  0
 31 29  1  0  0  0  0
 31 33  2  0  0  0  0
 33 30  1  0  0  0  0
M  END
>  <MODEL>
4

>  <REMARK>
 VINA RESULT:      -7.5      3.051      6.296
  Name = 
  8 active torsions:
  status: ('A' for Active; 'I' for Inactive)
    1  A    between atoms: C_1  and  C_6
    2  A    between atoms: C_3  and  C_29
    3  A    between atoms: C_3  and  C_33
    4  A    between atoms: C_4  and  C_31
    5  A    between atoms: C_12  and  O_28
    6  A    between atoms: C_13  and  C_33
    7  A    between atoms: C_20  and  C_22
    8  A    between atoms: C_21  and  O_28
                            x       y       z     vdW  Elec       q    Type
                         _______ _______ _______ _____ _____    ______ ____

>  <TORSDO>
F 8

$$$$
=
 OpenBabel10272400103D

 34 37  0  0  1  0  0  0  0  0999 V2000
  182.2480  179.2080  139.2220 C   0  0  1  0  0  0  0  0  0  0  0  0
  181.2860  177.8270  141.1350 C   0  0  0  0  0  1  0  0  0  0  0  0
  183.7750  178.3500  141.1230 C   0  0  1  0  0  3  0  0  0  0  0  0
  182.3580  178.8350  140.7260 C   0  0  1  0  0  3  0  0  0  0  0  0
  184.8500  179.3470  140.6730 C   0  0  2  0  0  3  0  0  0  0  0  0
  183.3760  180.1690  138.8360 C   0  0  0  0  0  2  0  0  0  0  0  0
  182.3470  177.9510  138.3540 C   0  0  0  0  0  1  0  0  0  0  0  0
  184.7450  179.5940  139.1730 C   0  0  0  0  0  2  0  0  0  0  0  0
  183.6210  179.3040  143.4700 C   0  0  0  0  0  2  0  0  0  0  0  0
  185.2210  177.2880  142.9740 C   0  0  0  0  0  2  0  0  0  0  0  0
  186.2840  178.1130  143.6870 C   0  0  0  0  0  2  0  0  0  0  0  0
  185.0150  179.2480  145.5350 C   0  0  0  0  0  2  0  0  0  0  0  0
  183.6290  178.9960  144.9590 C   0  0  0  0  0  2  0  0  0  0  0  0
  185.9970  178.1360  145.1850 C   0  0  2  0  0  3  0  0  0  0  0  0
  183.9380  178.0670  142.6250 C   0  0  2  0  0  3  0  0  0  0  0  0
  187.2780  178.3670  145.9730 C   0  0  0  0  0  2  0  0  0  0  0  0
  188.3320  177.3280  145.6280 C   0  0  0  0  0  2  0  0  0  0  0  0
  189.6120  178.0140  145.1690 C   0  0  2  0  0  3  0  0  0  0  0  0
  191.0630  178.2040  143.1910 O   0  0  0  0  0  1  0  0  0  0  0  0
  190.2150  177.3780  143.9270 C   0  0  1  0  0  0  0  0  0  0  0  0
  190.7750  177.0330  145.2860 C   0  0  0  0  0  2  0  0  0  0  0  0
  190.4820  175.4130  142.5920 O   0  0  0  0  0  1  0  0  0  0  0  0
  189.5270  176.2310  143.1970 C   0  0  0  0  0  2  0  0  0  0  0  0
  180.9460  179.9110  138.9310 C   0  0  0  0  0  0  0  0  0  0  0  0
  180.6450  180.9800  139.5260 O   0  0  0  0  0  1  0  0  0  0  0  0
  180.1010  179.4350  137.9330 O   0  0  0  0  0  0  0  0  0  0  0  0
  186.1430  178.8330  140.9840 O   0  0  0  0  0  0  0  0  0  0  0  0
  189.3550  177.9850  139.3890 C   0  0  0  0  0  0  0  0  0  0  0  0
  188.9400  177.5830  138.1570 N   0  0  0  0  0  0  0  0  0  0  0  0
  187.0640  178.4140  140.0160 C   0  0  0  0  0  0  0  0  0  0  0  0
  187.6240  177.5800  137.8160 C   0  0  0  0  0  3  0  0  0  0  0  0
  188.4220  178.4090  140.3390 C   0  0  0  0  0  3  0  0  0  0  0  0
  186.6600  177.9960  138.7390 C   0  0  0  0  0  3  0  0  0  0  0  0
  190.6750  177.9780  139.6970 F   0  0  0  0  0  0  0  0  0  0  0  0
  1  7  1  6  0  0  0
  1  4  1  0  0  0  0
  3 15  1  1  0  0  0
  4  3  1  0  0  0  0
  4  2  1  6  0  0  0
  5 27  1  6  0  0  0
  5  3  1  0  0  0  0
  6  8  1  0  0  0  0
  6  1  1  0  0  0  0
  8  5  1  0  0  0  0
  9 13  1  0  0  0  0
 10 11  1  0  0  0  0
 11 14  1  0  0  0  0
 13 12  1  0  0  0  0
 14 12  1  0  0  0  0
 14 16  1  1  0  0  0
 15 10  1  6  0  0  0
 15  9  1  0  0  0  0
 17 16  1  0  0  0  0
 18 21  1  0  0  0  0
 18 17  1  1  0  0  0
 20 19  1  6  0  0  0
 20 18  1  0  0  0  0
 20 21  1  0  0  0  0
 22 23  1  0  0  0  0
 23 20  1  0  0  0  0
 24  1  1  0  0  0  0
 24 25  1  0  0  0  0
 26 24  2  0  0  0  0
 28 34  1  0  0  0  0
 28 32  1  0  0  0  0
 29 28  2  0  0  0  0
 30 32  2  0  0  0  0
 30 27  1  0  0  0  0
 31 29  1  0  0  0  0
 31 33  2  0  0  0  0
 33 30  1  0  0  0  0
M  END
>  <MODEL>
5

>  <REMARK>
 VINA RESULT:      -7.4      2.271      7.510
  Name = 
  8 active torsions:
  status: ('A' for Active; 'I' for Inactive)
    1  A    between atoms: C_1  and  C_6
    2  A    between atoms: C_3  and  C_29
    3  A    between atoms: C_3  and  C_33
    4  A    between atoms: C_4  and  C_31
    5  A    between atoms: C_12  and  O_28
    6  A    between atoms: C_13  and  C_33
    7  A    between atoms: C_20  and  C_22
    8  A    between atoms: C_21  and  O_28
                            x       y       z     vdW  Elec       q    Type
                         _______ _______ _______ _____ _____    ______ ____

>  <TORSDO>
F 8

$$$$
=
 OpenBabel10272400103D

 34 37  0  0  1  0  0  0  0  0999 V2000
  189.2140  177.0410  137.4770 C   0  0  1  0  0  0  0  0  0  0  0  0
  191.5410  176.4670  138.3410 C   0  0  0  0  0  1  0  0  0  0  0  0
  189.8340  177.4460  139.9530 C   0  0  1  0  0  3  0  0  0  0  0  0
  190.0580  176.5720  138.6940 C   0  0  1  0  0  3  0  0  0  0  0  0
  188.3410  177.5810  140.2760 C   0  0  2  0  0  3  0  0  0  0  0  0
  187.7460  177.1950  137.8850 C   0  0  0  0  0  2  0  0  0  0  0  0
  189.7290  178.3840  136.9570 C   0  0  0  0  0  1  0  0  0  0  0  0
  187.5890  178.1350  139.0730 C   0  0  0  0  0  2  0  0  0  0  0  0
  189.7570  175.9230  141.9810 C   0  0  0  0  0  2  0  0  0  0  0  0
  191.2590  178.0700  142.0080 C   0  0  0  0  0  2  0  0  0  0  0  0
  190.5910  178.3740  143.3430 C   0  0  0  0  0  2  0  0  0  0  0  0
  190.3230  176.1100  144.4010 C   0  0  0  0  0  2  0  0  0  0  0  0
  190.5450  175.3090  143.1280 C   0  0  0  0  0  2  0  0  0  0  0  0
  191.1130  177.4140  144.4080 C   0  0  2  0  0  3  0  0  0  0  0  0
  190.5830  176.9470  141.1990 C   0  0  2  0  0  3  0  0  0  0  0  0
  190.9960  178.0350  145.7920 C   0  0  0  0  0  2  0  0  0  0  0  0
  189.5490  178.3480  146.1370 C   0  0  0  0  0  2  0  0  0  0  0  0
  189.1100  177.5300  147.3440 C   0  0  2  0  0  3  0  0  0  0  0  0
  187.1130  177.0730  148.7060 O   0  0  0  0  0  1  0  0  0  0  0  0
  187.8040  178.0180  147.9500 C   0  0  1  0  0  0  0  0  0  0  0  0
  189.1150  178.4230  148.5810 C   0  0  0  0  0  2  0  0  0  0  0  0
  185.6390  178.8810  147.4160 O   0  0  0  0  0  1  0  0  0  0  0  0
  187.0040  179.1560  147.3270 C   0  0  0  0  0  2  0  0  0  0  0  0
  189.2610  176.0270  136.3610 C   0  0  0  0  0  0  0  0  0  0  0  0
  190.2220  176.0100  135.5460 O   0  0  0  0  0  0  0  0  0  0  0  0
  188.2870  175.0370  136.2730 O   0  0  0  0  0  1  0  0  0  0  0  0
  188.1680  178.4530  141.3910 O   0  0  0  0  0  0  0  0  0  0  0  0
  185.9810  177.5980  144.2310 C   0  0  0  0  0  0  0  0  0  0  0  0
  184.8740  178.3350  143.9430 N   0  0  0  0  0  0  0  0  0  0  0  0
  187.0470  178.4250  142.2310 C   0  0  0  0  0  0  0  0  0  0  0  0
  184.8090  179.1150  142.8320 C   0  0  0  0  0  3  0  0  0  0  0  0
  187.0860  177.6310  143.3770 C   0  0  0  0  0  3  0  0  0  0  0  0
  185.8940  179.1750  141.9530 C   0  0  0  0  0  3  0  0  0  0  0  0
  186.0130  176.8280  145.3470 F   0  0  0  0  0  0  0  0  0  0  0  0
  1  7  1  6  0  0  0
  1  6  1  0  0  0  0
  1  4  1  0  0  0  0
  3  5  1  0  0  0  0
  3 15  1  1  0  0  0
  4  2  1  6  0  0  0
  4  3  1  0  0  0  0
  5 27  1  1  0  0  0
  6  8  1  0  0  0  0
  8  5  1  0  0  0  0
  9 13  1  0  0  0  0
 10 11  1  0  0  0  0
 11 14  1  0  0  0  0
 12 14  1  0  0  0  0
 13 12  1  0  0  0  0
 14 16  1  1  0  0  0
 15  9  1  1  0  0  0
 15 10  1  0  0  0  0
 16 17  1  0  0  0  0
 18 17  1  6  0  0  0
 18 20  1  0  0  0  0
 18 21  1  0  0  0  0
 20 21  1  0  0  0  0
 20 19  1  1  0  0  0
 23 22  1  0  0  0  0
 23 20  1  0  0  0  0
 24  1  1  0  0  0  0
 25 24  2  0  0  0  0
 26 24  1  0  0  0  0
 27 30  1  0  0  0  0
 28 34  1  0  0  0  0
 29 28  1  0  0  0  0
 30 32  1  0  0  0  0
 31 29  2  0  0  0  0
 32 28  2  0  0  0  0
 33 30  2  0  0  0  0
 33 31  1  0  0  0  0
M  END
>  <MODEL>
6

>  <REMARK>
 VINA RESULT:      -7.3      3.496      7.016
  Name = 
  8 active torsions:
  status: ('A' for Active; 'I' for Inactive)
    1  A    between atoms: C_1  and  C_6
    2  A    between atoms: C_3  and  C_29
    3  A    between atoms: C_3  and  C_33
    4  A    between atoms: C_4  and  C_31
    5  A    between atoms: C_12  and  O_28
    6  A    between atoms: C_13  and  C_33
    7  A    between atoms: C_20  and  C_22
    8  A    between atoms: C_21  and  O_28
                            x       y       z     vdW  Elec       q    Type
                         _______ _______ _______ _____ _____    ______ ____

>  <TORSDO>
F 8

$$$$
=
 OpenBabel10272400103D

 34 37  0  0  1  0  0  0  0  0999 V2000
  189.4610  177.3720  142.5340 C   0  0  1  0  0  0  0  0  0  0  0  0
  187.7720  178.4810  140.9820 C   0  0  0  0  0  1  0  0  0  0  0  0
  190.0110  177.7340  140.0340 C   0  0  1  0  0  3  0  0  0  0  0  0
  188.9060  177.4620  141.0860 C   0  0  1  0  0  3  0  0  0  0  0  0
  191.1650  176.7340  140.1710 C   0  0  2  0  0  3  0  0  0  0  0  0
  190.6360  176.3900  142.5840 C   0  0  0  0  0  2  0  0  0  0  0  0
  189.9410  178.7450  143.0070 C   0  0  0  0  0  1  0  0  0  0  0  0
  191.7250  176.7650  141.5880 C   0  0  0  0  0  2  0  0  0  0  0  0
  188.9790  179.1100  138.1690 C   0  0  0  0  0  2  0  0  0  0  0  0
  188.6280  176.5140  138.2330 C   0  0  0  0  0  2  0  0  0  0  0  0
  187.1490  176.8310  138.0540 C   0  0  0  0  0  2  0  0  0  0  0  0
  187.1490  178.8090  136.5040 C   0  0  0  0  0  2  0  0  0  0  0  0
  188.6160  179.1630  136.6930 C   0  0  0  0  0  2  0  0  0  0  0  0
  186.8960  177.3110  136.6280 C   0  0  2  0  0  3  0  0  0  0  0  0
  189.5030  177.7330  138.5840 C   0  0  2  0  0  3  0  0  0  0  0  0
  185.4570  177.0350  136.2170 C   0  0  0  0  0  2  0  0  0  0  0  0
  184.5630  176.8430  137.4320 C   0  0  0  0  0  2  0  0  0  0  0  0
  183.2700  177.6280  137.2580 C   0  0  2  0  0  3  0  0  0  0  0  0
  182.1470  179.6510  138.0950 O   0  0  0  0  0  1  0  0  0  0  0  0
  183.0030  178.5950  138.4010 C   0  0  1  0  0  0  0  0  0  0  0  0
  182.3050  177.2560  138.3810 C   0  0  0  0  0  2  0  0  0  0  0  0
  184.8150  179.8920  139.2690 O   0  0  0  0  0  1  0  0  0  0  0  0
  184.0000  178.7910  139.5370 C   0  0  0  0  0  2  0  0  0  0  0  0
  188.4110  176.8570  143.4860 C   0  0  0  0  0  0  0  0  0  0  0  0
  187.8630  175.7390  143.2970 O   0  0  0  0  0  0  0  0  0  0  0  0
  188.1010  177.5720  144.6390 O   0  0  0  0  0  1  0  0  0  0  0  0
  192.1970  177.0610  139.2430 O   0  0  0  0  0  0  0  0  0  0  0  0
  192.2110  174.2170  136.8980 C   0  0  0  0  0  0  0  0  0  0  0  0
  193.1880  174.5970  136.0290 N   0  0  0  0  0  0  0  0  0  0  0  0
  192.5510  176.2470  138.1590 C   0  0  0  0  0  0  0  0  0  0  0  0
  193.8590  175.7690  136.1820 C   0  0  0  0  0  3  0  0  0  0  0  0
  191.8780  175.0380  137.9790 C   0  0  0  0  0  3  0  0  0  0  0  0
  193.5540  176.6170  137.2500 C   0  0  0  0  0  3  0  0  0  0  0  0
  191.5620  173.0410  136.7180 F   0  0  0  0  0  0  0  0  0  0  0  0
  1  6  1  0  0  0  0
  1  7  1  1  0  0  0
  1 24  1  0  0  0  0
  3 15  1  6  0  0  0
  3  5  1  0  0  0  0
  3  4  1  0  0  0  0
  4  2  1  1  0  0  0
  4  1  1  0  0  0  0
  5 27  1  6  0  0  0
  5  8  1  0  0  0  0
  8  6  1  0  0  0  0
 10 15  1  0  0  0  0
 11 10  1  0  0  0  0
 12 14  1  0  0  0  0
 12 13  1  0  0  0  0
 13  9  1  0  0  0  0
 14 16  1  1  0  0  0
 14 11  1  0  0  0  0
 15  9  1  1  0  0  0
 16 17  1  0  0  0  0
 18 17  1  1  0  0  0
 18 21  1  0  0  0  0
 18 20  1  0  0  0  0
 20 19  1  6  0  0  0
 20 23  1  0  0  0  0
 21 20  1  0  0  0  0
 22 23  1  0  0  0  0
 24 26  1  0  0  0  0
 25 24  2  0  0  0  0
 28 32  1  0  0  0  0
 29 31  1  0  0  0  0
 29 28  2  0  0  0  0
 30 27  1  0  0  0  0
 31 33  2  0  0  0  0
 32 30  2  0  0  0  0
 33 30  1  0  0  0  0
 34 28  1  0  0  0  0
M  END
>  <MODEL>
7

>  <REMARK>
 VINA RESULT:      -7.3      3.326      4.938
  Name = 
  8 active torsions:
  status: ('A' for Active; 'I' for Inactive)
    1  A    between atoms: C_1  and  C_6
    2  A    between atoms: C_3  and  C_29
    3  A    between atoms: C_3  and  C_33
    4  A    between atoms: C_4  and  C_31
    5  A    between atoms: C_12  and  O_28
    6  A    between atoms: C_13  and  C_33
    7  A    between atoms: C_20  and  C_22
    8  A    between atoms: C_21  and  O_28
                            x       y       z     vdW  Elec       q    Type
                         _______ _______ _______ _____ _____    ______ ____

>  <TORSDO>
F 8

$$$$
=
 OpenBabel10272400103D

 34 37  0  0  1  0  0  0  0  0999 V2000
  189.7410  177.2400  147.0980 C   0  0  1  0  0  0  0  0  0  0  0  0
  191.5260  177.0510  145.2900 C   0  0  0  0  0  1  0  0  0  0  0  0
  189.0920  177.3000  144.5970 C   0  0  1  0  0  3  0  0  0  0  0  0
  190.1660  177.6420  145.6590 C   0  0  1  0  0  3  0  0  0  0  0  0
  187.7210  177.8590  144.9940 C   0  0  2  0  0  3  0  0  0  0  0  0
  188.3480  177.7960  147.4070 C   0  0  0  0  0  2  0  0  0  0  0  0
  189.7110  175.7170  147.2390 C   0  0  0  0  0  1  0  0  0  0  0  0
  187.3230  177.3510  146.3740 C   0  0  0  0  0  2  0  0  0  0  0  0
  188.9630  176.7810  142.1160 C   0  0  0  0  0  2  0  0  0  0  0  0
  190.8860  178.3020  143.0420 C   0  0  0  0  0  2  0  0  0  0  0  0
  191.8210  177.3900  142.2590 C   0  0  0  0  0  2  0  0  0  0  0  0
  190.5230  176.8580  140.1740 C   0  0  0  0  0  2  0  0  0  0  0  0
  189.1710  177.3090  140.7050 C   0  0  0  0  0  2  0  0  0  0  0  0
  191.6740  177.6640  140.7650 C   0  0  2  0  0  3  0  0  0  0  0  0
  189.4460  177.7730  143.1780 C   0  0  2  0  0  3  0  0  0  0  0  0
  192.9490  177.2890  140.0230 C   0  0  0  0  0  2  0  0  0  0  0  0
  192.6410  176.7310  138.6440 C   0  0  0  0  0  2  0  0  0  0  0  0
  193.4200  175.4430  138.4150 C   0  0  2  0  0  3  0  0  0  0  0  0
  195.1070  174.4840  136.9030 O   0  0  0  0  0  1  0  0  0  0  0  0
  194.0220  175.3510  137.0220 C   0  0  1  0  0  0  0  0  0  0  0  0
  192.7300  174.6290  137.3240 C   0  0  0  0  0  2  0  0  0  0  0  0
  195.1610  177.0770  135.8230 O   0  0  0  0  0  1  0  0  0  0  0  0
  193.9090  176.4940  136.0210 C   0  0  0  0  0  2  0  0  0  0  0  0
  190.6870  177.8140  148.1230 C   0  0  0  0  0  0  0  0  0  0  0  0
  190.3100  178.7260  148.9070 O   0  0  0  0  0  1  0  0  0  0  0  0
  191.9610  177.2790  148.2770 O   0  0  0  0  0  0  0  0  0  0  0  0
  186.7430  177.4600  144.0370 O   0  0  0  0  0  0  0  0  0  0  0  0
  183.6500  178.7530  142.5070 C   0  0  0  0  0  0  0  0  0  0  0  0
  182.9960  179.2340  143.5990 N   0  0  0  0  0  0  0  0  0  0  0  0
  185.4850  178.0650  143.9140 C   0  0  0  0  0  0  0  0  0  0  0  0
  183.5370  179.1550  144.8440 C   0  0  0  0  0  3  0  0  0  0  0  0
  184.9070  178.1610  142.6480 C   0  0  0  0  0  3  0  0  0  0  0  0
  184.7930  178.5690  145.0250 C   0  0  0  0  0  3  0  0  0  0  0  0
  183.0820  178.8500  141.2790 F   0  0  0  0  0  0  0  0  0  0  0  0
  1  7  1  1  0  0  0
  1  6  1  0  0  0  0
  1 24  1  0  0  0  0
  3 15  1  6  0  0  0
  3  5  1  0  0  0  0
  3  4  1  0  0  0  0
  4  2  1  6  0  0  0
  4  1  1  0  0  0  0
  5 27  1  6  0  0  0
  5  8  1  0  0  0  0
  8  6  1  0  0  0  0
 10 15  1  0  0  0  0
 11 10  1  0  0  0  0
 12 13  1  0  0  0  0
 12 14  1  0  0  0  0
 13  9  1  0  0  0  0
 14 16  1  6  0  0  0
 14 11  1  0  0  0  0
 15  9  1  6  0  0  0
 17 16  1  0  0  0  0
 18 17  1  6  0  0  0
 20 19  1  6  0  0  0
 20 21  1  0  0  0  0
 20 18  1  0  0  0  0
 21 18  1  0  0  0  0
 22 23  1  0  0  0  0
 23 20  1  0  0  0  0
 24 26  2  0  0  0  0
 24 25  1  0  0  0  0
 28 32  2  0  0  0  0
 28 29  1  0  0  0  0
 29 31  2  0  0  0  0
 30 27  1  0  0  0  0
 30 33  2  0  0  0  0
 31 33  1  0  0  0  0
 32 30  1  0  0  0  0
 34 28  1  0  0  0  0
M  END
>  <MODEL>
8

>  <REMARK>
 VINA RESULT:      -7.2      3.441      8.292
  Name = 
  8 active torsions:
  status: ('A' for Active; 'I' for Inactive)
    1  A    between atoms: C_1  and  C_6
    2  A    between atoms: C_3  and  C_29
    3  A    between atoms: C_3  and  C_33
    4  A    between atoms: C_4  and  C_31
    5  A    between atoms: C_12  and  O_28
    6  A    between atoms: C_13  and  C_33
    7  A    between atoms: C_20  and  C_22
    8  A    between atoms: C_21  and  O_28
                            x       y       z     vdW  Elec       q    Type
                         _______ _______ _______ _____ _____    ______ ____

>  <TORSDO>
F 8

$$$$
=
 OpenBabel10272400103D

 34 37  0  0  1  0  0  0  0  0999 V2000
  188.2660  176.2560  136.5610 C   0  0  1  0  0  0  0  0  0  0  0  0
  190.5310  176.8170  137.5860 C   0  0  0  0  0  1  0  0  0  0  0  0
  188.4270  177.7790  138.6440 C   0  0  1  0  0  3  0  0  0  0  0  0
  189.0450  176.5920  137.8630 C   0  0  1  0  0  3  0  0  0  0  0  0
  186.9270  177.5660  138.8810 C   0  0  2  0  0  3  0  0  0  0  0  0
  186.7740  176.1010  136.8680 C   0  0  0  0  0  2  0  0  0  0  0  0
  188.4480  177.3710  135.5290 C   0  0  0  0  0  1  0  0  0  0  0  0
  186.2100  177.3370  137.5560 C   0  0  0  0  0  2  0  0  0  0  0  0
  190.0630  176.9350  140.3900 C   0  0  0  0  0  2  0  0  0  0  0  0
  188.1710  178.6180  141.0680 C   0  0  0  0  0  2  0  0  0  0  0  0
  187.8680  177.6370  142.1920 C   0  0  0  0  0  2  0  0  0  0  0  0
  190.1350  176.7990  142.8780 C   0  0  0  0  0  2  0  0  0  0  0  0
  190.8680  177.2780  141.6340 C   0  0  0  0  0  2  0  0  0  0  0  0
  188.9680  177.7080  143.2460 C   0  0  2  0  0  3  0  0  0  0  0  0
  189.1200  178.0710  139.9840 C   0  0  2  0  0  3  0  0  0  0  0  0
  188.4380  177.2750  144.6050 C   0  0  0  0  0  2  0  0  0  0  0  0
  186.9180  177.2930  144.6360 C   0  0  0  0  0  2  0  0  0  0  0  0
  186.4250  177.4000  146.0720 C   0  0  2  0  0  3  0  0  0  0  0  0
  184.5010  178.2250  147.3650 O   0  0  0  0  0  1  0  0  0  0  0  0
  185.3050  178.4140  146.2430 C   0  0  1  0  0  0  0  0  0  0  0  0
  186.7200  178.8020  146.5980 C   0  0  0  0  0  2  0  0  0  0  0  0
  183.3250  179.2790  145.2180 O   0  0  0  0  0  1  0  0  0  0  0  0
  184.7060  179.1570  145.0550 C   0  0  0  0  0  2  0  0  0  0  0  0
  188.7360  174.9510  135.9700 C   0  0  0  0  0  0  0  0  0  0  0  0
  188.3360  173.8510  136.4370 O   0  0  0  0  0  1  0  0  0  0  0  0
  189.5480  174.9460  134.8400 O   0  0  0  0  0  0  0  0  0  0  0  0
  186.3760  178.7090  139.5310 O   0  0  0  0  0  0  0  0  0  0  0  0
  183.1410  178.6030  141.2930 C   0  0  0  0  0  0  0  0  0  0  0  0
  182.3200  179.1750  140.3710 N   0  0  0  0  0  0  0  0  0  0  0  0
  185.0090  178.8720  139.7890 C   0  0  0  0  0  0  0  0  0  0  0  0
  182.7890  179.6020  139.1690 C   0  0  0  0  0  3  0  0  0  0  0  0
  184.5010  178.4400  141.0140 C   0  0  0  0  0  3  0  0  0  0  0  0
  184.1430  179.4580  138.8540 C   0  0  0  0  0  3  0  0  0  0  0  0
  182.6410  178.1850  142.4820 F   0  0  0  0  0  0  0  0  0  0  0  0
  1  7  1  6  0  0  0
  1  6  1  0  0  0  0
  1  4  1  0  0  0  0
  3  5  1  0  0  0  0
  3 15  1  1  0  0  0
  4  2  1  6  0  0  0
  4  3  1  0  0  0  0
  5 27  1  6  0  0  0
  6  8  1  0  0  0  0
  8  5  1  0  0  0  0
  9 13  1  0  0  0  0
 10 11  1  0  0  0  0
 11 14  1  0  0  0  0
 12 14  1  0  0  0  0
 13 12  1  0  0  0  0
 14 16  1  1  0  0  0
 15  9  1  1  0  0  0
 15 10  1  0  0  0  0
 16 17  1  0  0  0  0
 18 17  1  6  0  0  0
 18 20  1  0  0  0  0
 18 21  1  0  0  0  0
 20 21  1  0  0  0  0
 20 19  1  1  0  0  0
 23 22  1  0  0  0  0
 23 20  1  0  0  0  0
 24 25  1  0  0  0  0
 24  1  1  0  0  0  0
 26 24  2  0  0  0  0
 27 30  1  0  0  0  0
 28 34  1  0  0  0  0
 29 28  2  0  0  0  0
 30 32  2  0  0  0  0
 31 29  1  0  0  0  0
 32 28  1  0  0  0  0
 33 31  2  0  0  0  0
 33 30  1  0  0  0  0
M  END
>  <MODEL>
9

>  <REMARK>
 VINA RESULT:      -7.2      3.272      6.342
  Name = 
  8 active torsions:
  status: ('A' for Active; 'I' for Inactive)
    1  A    between atoms: C_1  and  C_6
    2  A    between atoms: C_3  and  C_29
    3  A    between atoms: C_3  and  C_33
    4  A    between atoms: C_4  and  C_31
    5  A    between atoms: C_12  and  O_28
    6  A    between atoms: C_13  and  C_33
    7  A    between atoms: C_20  and  C_22
    8  A    between atoms: C_21  and  O_28
                            x       y       z     vdW  Elec       q    Type
                         _______ _______ _______ _____ _____    ______ ____

>  <TORSDO>
F 8

$$$$
