=
 OpenBabel10272402033D

 32 37  0  0  1  0  0  0  0  0999 V2000
  184.5260  178.5420  142.7090 C   0  0  0  0  0  0  0  0  0  0  0  0
  186.8710  178.0040  143.0990 C   0  0  0  0  0  0  0  0  0  0  0  0
  183.2480  178.8120  143.2190 C   0  0  0  0  0  3  0  0  0  0  0  0
  185.5950  178.3100  143.6040 C   0  0  0  0  0  0  0  0  0  0  0  0
  187.9370  177.6800  143.9570 C   0  0  0  0  0  0  0  0  0  0  0  0
  189.8620  177.0550  139.2810 C   0  0  0  0  0  2  0  0  0  0  0  0
  187.0760  177.9990  141.7050 C   0  0  0  0  0  0  0  0  0  0  0  0
  190.7630  177.0190  141.5990 C   0  0  0  0  0  2  0  0  0  0  0  0
  189.3990  177.4220  142.0890 C   0  0  0  0  0  0  0  0  0  0  0  0
  185.3780  178.3980  144.9940 C   0  0  0  0  0  0  0  0  0  0  0  0
  189.1530  177.3770  143.4260 N   0  0  0  0  0  0  0  0  0  0  0  0
  186.5340  178.3510  145.9500 C   0  0  0  0  0  2  0  0  0  0  0  0
  184.1020  178.6880  145.4810 C   0  0  0  0  0  3  0  0  0  0  0  0
  186.0320  178.2520  140.8690 N   0  0  0  0  0  0  0  0  0  0  0  0
  184.7740  178.5100  141.3250 C   0  0  0  0  0  0  0  0  0  0  0  0
  188.3490  177.7100  141.1900 C   0  0  0  0  0  0  0  0  0  0  0  0
  187.6840  177.4790  145.4350 C   0  0  2  0  0  3  0  0  0  0  0  0
  183.0370  178.8780  144.5980 C   0  0  0  0  0  3  0  0  0  0  0  0
  191.0230  177.4770  140.1670 C   0  0  0  0  0  2  0  0  0  0  0  0
  188.6010  177.8010  139.7040 C   0  0  0  0  0  2  0  0  0  0  0  0
  182.7410  177.6700  138.1840 C   0  0  1  0  0  3  0  0  0  0  0  0
  180.5130  180.6480  138.5050 C   0  0  0  0  0  1  0  0  0  0  0  0
  182.4850  176.4390  137.5780 O   0  0  0  0  0  1  0  0  0  0  0  0
  182.8440  180.4830  138.6070 C   0  0  0  0  0  2  0  0  0  0  0  0
  183.6760  178.7620  140.3360 C   0  0  1  0  0  3  0  0  0  0  0  0
  181.4890  178.5580  138.1150 C   0  0  0  0  0  2  0  0  0  0  0  0
  184.0350  179.9390  139.4160 C   0  0  0  0  0  2  0  0  0  0  0  0
  183.2980  177.4630  139.6010 C   0  0  1  0  0  3  0  0  0  0  0  0
  182.4000  176.7270  140.3780 O   0  0  0  0  0  1  0  0  0  0  0  0
  181.5990  179.7790  138.9190 N   0  0  0  0  0  0  0  0  0  0  0  0
  188.9360  177.7500  146.2590 C   0  0  0  0  0  2  0  0  0  0  0  0
  189.0910  176.7620  147.2320 O   0  0  0  0  0  1  0  0  0  0  0  0
  1  3  2  0  0  0  0
  1  4  1  0  0  0  0
  2  4  1  0  0  0  0
  2  5  1  0  0  0  0
  3 18  1  0  0  0  0
  4 10  2  0  0  0  0
  5 17  1  0  0  0  0
  6 20  1  0  0  0  0
  6 19  1  0  0  0  0
  7  2  2  0  0  0  0
  8  9  1  0  0  0  0
  9 11  1  0  0  0  0
 10 13  1  0  0  0  0
 10 12  1  0  0  0  0
 11  5  2  0  0  0  0
 14 15  2  0  0  0  0
 14  7  1  0  0  0  0
 15  1  1  0  0  0  0
 16  7  1  0  0  0  0
 16  9  2  0  0  0  0
 17 12  1  0  0  0  0
 17 31  1  1  0  0  0
 18 13  2  0  0  0  0
 19  8  1  0  0  0  0
 20 16  1  0  0  0  0
 21 23  1  1  0  0  0
 21 28  1  0  0  0  0
 22 30  1  0  0  0  0
 24 30  1  0  0  0  0
 24 27  1  0  0  0  0
 25 15  1  1  0  0  0
 26 21  1  0  0  0  0
 26 30  1  0  0  0  0
 27 25  1  0  0  0  0
 28 25  1  0  0  0  0
 28 29  1  1  0  0  0
 31 32  1  0  0  0  0
M  END
>  <MODEL>
1

>  <REMARK>
 VINA RESULT:     -10.1      0.000      0.000
  Name = 
  2 active torsions:
  status: ('A' for Active; 'I' for Inactive)
    1  A    between atoms: C_13  and  C_29
    2  A    between atoms: C_16  and  C_27
                            x       y       z     vdW  Elec       q    Type
                         _______ _______ _______ _____ _____    ______ ____

>  <TORSDO>
F 2

$$$$
=
 OpenBabel10272402033D

 32 37  0  0  1  0  0  0  0  0999 V2000
  185.9590  178.0320  144.5160 C   0  0  0  0  0  0  0  0  0  0  0  0
  188.2140  177.6390  143.6790 C   0  0  0  0  0  0  0  0  0  0  0  0
  185.0810  178.1720  145.6000 C   0  0  0  0  0  3  0  0  0  0  0  0
  187.3340  177.8140  144.7610 C   0  0  0  0  0  0  0  0  0  0  0  0
  189.5710  177.3320  143.8840 C   0  0  0  0  0  0  0  0  0  0  0  0
  189.0080  177.1870  138.8220 C   0  0  0  0  0  2  0  0  0  0  0  0
  187.7180  177.7490  142.3650 C   0  0  0  0  0  0  0  0  0  0  0  0
  190.9190  177.0490  140.4080 C   0  0  0  0  0  2  0  0  0  0  0  0
  189.9530  177.3150  141.5290 C   0  0  0  0  0  0  0  0  0  0  0  0
  187.8140  177.7860  146.0850 C   0  0  0  0  0  0  0  0  0  0  0  0
  190.3860  177.1570  142.8080 N   0  0  0  0  0  0  0  0  0  0  0  0
  189.2890  177.7540  146.3610 C   0  0  0  0  0  2  0  0  0  0  0  0
  186.9250  177.9470  147.1510 C   0  0  0  0  0  3  0  0  0  0  0  0
  186.3930  177.9850  142.1610 N   0  0  0  0  0  0  0  0  0  0  0  0
  185.5070  178.1180  143.1860 C   0  0  0  0  0  0  0  0  0  0  0  0
  188.5900  177.5910  141.2760 C   0  0  0  0  0  0  0  0  0  0  0  0
  190.0710  177.0070  145.2740 C   0  0  2  0  0  3  0  0  0  0  0  0
  185.5610  178.1220  146.9100 C   0  0  0  0  0  3  0  0  0  0  0  0
  190.4410  177.6260  139.0790 C   0  0  0  0  0  2  0  0  0  0  0  0
  188.0890  177.8060  139.8690 C   0  0  0  0  0  2  0  0  0  0  0  0
  182.6530  179.3810  140.9580 C   0  0  1  0  0  3  0  0  0  0  0  0
  179.9820  178.4570  143.3970 C   0  0  0  0  0  1  0  0  0  0  0  0
  182.5760  179.4970  139.5700 O   0  0  0  0  0  1  0  0  0  0  0  0
  181.9800  179.6310  143.7130 C   0  0  0  0  0  2  0  0  0  0  0  0
  184.0600  178.3600  142.8760 C   0  0  1  0  0  3  0  0  0  0  0  0
  181.3010  178.9150  141.5200 C   0  0  0  0  0  2  0  0  0  0  0  0
  183.5160  179.5300  143.7110 C   0  0  0  0  0  2  0  0  0  0  0  0
  183.8470  178.5010  141.3570 C   0  0  1  0  0  3  0  0  0  0  0  0
  183.7360  177.2340  140.7790 O   0  0  0  0  0  1  0  0  0  0  0  0
  181.3560  178.5560  142.9410 N   0  0  0  0  0  0  0  0  0  0  0  0
  191.5560  177.3080  145.4190 C   0  0  0  0  0  2  0  0  0  0  0  0
  191.9930  176.9540  146.6970 O   0  0  0  0  0  1  0  0  0  0  0  0
  1  4  1  0  0  0  0
  1  3  2  0  0  0  0
  2  5  1  0  0  0  0
  2  4  1  0  0  0  0
  3 18  1  0  0  0  0
  4 10  2  0  0  0  0
  5 17  1  0  0  0  0
  6 19  1  0  0  0  0
  6 20  1  0  0  0  0
  7  2  2  0  0  0  0
  8  9  1  0  0  0  0
  9 11  1  0  0  0  0
 10 12  1  0  0  0  0
 10 13  1  0  0  0  0
 11  5  2  0  0  0  0
 14  7  1  0  0  0  0
 14 15  2  0  0  0  0
 15  1  1  0  0  0  0
 16  9  2  0  0  0  0
 16  7  1  0  0  0  0
 17 31  1  6  0  0  0
 17 12  1  0  0  0  0
 18 13  2  0  0  0  0
 19  8  1  0  0  0  0
 20 16  1  0  0  0  0
 21 23  1  6  0  0  0
 21 28  1  0  0  0  0
 21 26  1  0  0  0  0
 25 15  1  6  0  0  0
 25 27  1  0  0  0  0
 26 30  1  0  0  0  0
 27 24  1  0  0  0  0
 28 29  1  1  0  0  0
 28 25  1  0  0  0  0
 30 22  1  0  0  0  0
 30 24  1  0  0  0  0
 31 32  1  0  0  0  0
M  END
>  <MODEL>
2

>  <REMARK>
 VINA RESULT:     -10.0      1.835      2.753
  Name = 
  2 active torsions:
  status: ('A' for Active; 'I' for Inactive)
    1  A    between atoms: C_13  and  C_29
    2  A    between atoms: C_16  and  C_27
                            x       y       z     vdW  Elec       q    Type
                         _______ _______ _______ _____ _____    ______ ____

>  <TORSDO>
F 2

$$$$
=
 OpenBabel10272402033D

 32 37  0  0  1  0  0  0  0  0999 V2000
  187.1580  178.0710  141.7450 C   0  0  0  0  0  0  0  0  0  0  0  0
  187.5330  177.8040  144.1390 C   0  0  0  0  0  0  0  0  0  0  0  0
  186.2970  178.3930  140.6870 C   0  0  0  0  0  3  0  0  0  0  0  0
  186.6850  178.1590  143.0750 C   0  0  0  0  0  0  0  0  0  0  0  0
  187.0710  177.7940  145.4670 C   0  0  0  0  0  0  0  0  0  0  0  0
  191.8390  176.0290  145.7880 C   0  0  0  0  0  2  0  0  0  0  0  0
  188.8620  177.4290  143.8640 C   0  0  0  0  0  0  0  0  0  0  0  0
  190.0690  176.6850  147.4070 C   0  0  0  0  0  2  0  0  0  0  0  0
  189.2250  177.1220  146.2410 C   0  0  0  0  0  0  0  0  0  0  0  0
  185.3740  178.6110  143.3240 C   0  0  0  0  0  0  0  0  0  0  0  0
  187.9200  177.4310  146.4670 N   0  0  0  0  0  0  0  0  0  0  0  0
  184.9210  178.8990  144.7260 C   0  0  0  0  0  2  0  0  0  0  0  0
  184.5390  178.9450  142.2560 C   0  0  0  0  0  3  0  0  0  0  0  0
  189.2960  177.3800  142.5740 N   0  0  0  0  0  0  0  0  0  0  0  0
  188.4890  177.6760  141.5180 C   0  0  0  0  0  0  0  0  0  0  0  0
  189.7220  177.0890  144.9190 C   0  0  0  0  0  0  0  0  0  0  0  0
  185.5990  177.9900  145.7580 C   0  0  2  0  0  3  0  0  0  0  0  0
  184.9920  178.8200  140.9410 C   0  0  0  0  0  3  0  0  0  0  0  0
  191.5620  176.7470  147.0990 C   0  0  0  0  0  2  0  0  0  0  0  0
  191.1750  176.7830  144.6420 C   0  0  0  0  0  2  0  0  0  0  0  0
  191.3590  177.4930  138.9820 C   0  0  1  0  0  3  0  0  0  0  0  0
  189.0910  177.3860  136.0190 C   0  0  0  0  0  1  0  0  0  0  0  0
  192.6530  176.9890  139.1190 O   0  0  0  0  0  1  0  0  0  0  0  0
  189.1000  178.8190  137.8680 C   0  0  0  0  0  2  0  0  0  0  0  0
  189.0400  177.5800  140.1270 C   0  0  1  0  0  3  0  0  0  0  0  0
  190.8090  177.1500  137.5890 C   0  0  0  0  0  2  0  0  0  0  0  0
  188.8800  178.9170  139.3880 C   0  0  0  0  0  2  0  0  0  0  0  0
  190.4760  177.0250  140.1490 C   0  0  1  0  0  3  0  0  0  0  0  0
  190.4400  175.6300  140.2070 O   0  0  0  0  0  1  0  0  0  0  0  0
  189.3810  177.4480  137.4400 N   0  0  0  0  0  0  0  0  0  0  0  0
  185.3750  178.5520  147.1550 C   0  0  0  0  0  2  0  0  0  0  0  0
  185.8120  179.8760  147.2130 O   0  0  0  0  0  1  0  0  0  0  0  0
  1  4  1  0  0  0  0
  2  5  1  0  0  0  0
  3 18  2  0  0  0  0
  3  1  1  0  0  0  0
  4 10  1  0  0  0  0
  4  2  2  0  0  0  0
  5 17  1  0  0  0  0
  5 11  2  0  0  0  0
  6 19  1  0  0  0  0
  7  2  1  0  0  0  0
  7 16  1  0  0  0  0
  9 11  1  0  0  0  0
  9  8  1  0  0  0  0
 10 12  1  0  0  0  0
 12 17  1  0  0  0  0
 13 10  2  0  0  0  0
 14  7  2  0  0  0  0
 15  1  2  0  0  0  0
 15 14  1  0  0  0  0
 16  9  2  0  0  0  0
 17 31  1  1  0  0  0
 18 13  1  0  0  0  0
 19  8  1  0  0  0  0
 20 16  1  0  0  0  0
 20  6  1  0  0  0  0
 21 23  1  1  0  0  0
 21 28  1  0  0  0  0
 22 30  1  0  0  0  0
 24 27  1  0  0  0  0
 25 28  1  0  0  0  0
 25 15  1  1  0  0  0
 26 21  1  0  0  0  0
 27 25  1  0  0  0  0
 28 29  1  6  0  0  0
 30 26  1  0  0  0  0
 30 24  1  0  0  0  0
 31 32  1  0  0  0  0
M  END
>  <MODEL>
3

>  <REMARK>
 VINA RESULT:     -10.0      3.291      5.568
  Name = 
  2 active torsions:
  status: ('A' for Active; 'I' for Inactive)
    1  A    between atoms: C_13  and  C_29
    2  A    between atoms: C_16  and  C_27
                            x       y       z     vdW  Elec       q    Type
                         _______ _______ _______ _____ _____    ______ ____

>  <TORSDO>
F 2

$$$$
=
 OpenBabel10272402033D

 32 37  0  0  1  0  0  0  0  0999 V2000
  189.6830  177.3160  142.2890 C   0  0  0  0  0  0  0  0  0  0  0  0
  187.9240  177.7360  143.9230 C   0  0  0  0  0  0  0  0  0  0  0  0
  191.0230  177.0130  142.0090 C   0  0  0  0  0  3  0  0  0  0  0  0
  189.2570  177.3990  143.6340 C   0  0  0  0  0  0  0  0  0  0  0  0
  187.4860  177.9160  145.2470 C   0  0  0  0  0  0  0  0  0  0  0  0
  183.4210  179.1050  142.4160 C   0  0  0  0  0  2  0  0  0  0  0  0
  187.0160  177.9210  142.8610 C   0  0  0  0  0  0  0  0  0  0  0  0
  183.8780  178.8110  144.8420 C   0  0  0  0  0  2  0  0  0  0  0  0
  185.2750  178.3820  144.4830 C   0  0  0  0  0  0  0  0  0  0  0  0
  190.1690  177.1330  144.6760 C   0  0  0  0  0  0  0  0  0  0  0  0
  186.1890  178.2550  145.4820 N   0  0  0  0  0  0  0  0  0  0  0  0
  189.6940  177.0230  146.0950 C   0  0  0  0  0  2  0  0  0  0  0  0
  191.4950  176.8140  144.3740 C   0  0  0  0  0  3  0  0  0  0  0  0
  187.4500  177.8080  141.5760 N   0  0  0  0  0  0  0  0  0  0  0  0
  188.7440  177.5240  141.2610 C   0  0  0  0  0  0  0  0  0  0  0  0
  185.6780  178.2420  143.1370 C   0  0  0  0  0  0  0  0  0  0  0  0
  188.4890  177.9260  146.3800 C   0  0  2  0  0  3  0  0  0  0  0  0
  191.9250  176.7710  143.0460 C   0  0  0  0  0  3  0  0  0  0  0  0
  182.8810  178.5410  143.7200 C   0  0  0  0  0  2  0  0  0  0  0  0
  184.6780  178.3430  142.0110 C   0  0  0  0  0  2  0  0  0  0  0  0
  188.1790  178.1040  137.5130 C   0  0  1  0  0  3  0  0  0  0  0  0
  191.3780  176.4640  136.5050 C   0  0  0  0  0  1  0  0  0  0  0  0
  187.4510  179.0950  136.8540 O   0  0  0  0  0  1  0  0  0  0  0  0
  189.6960  175.7370  137.9590 C   0  0  0  0  0  2  0  0  0  0  0  0
  189.1440  177.4340  139.8190 C   0  0  1  0  0  3  0  0  0  0  0  0
  189.4660  177.7930  136.7330 C   0  0  0  0  0  2  0  0  0  0  0  0
  188.9970  175.9930  139.3060 C   0  0  0  0  0  2  0  0  0  0  0  0
  188.4030  178.4920  138.9830 C   0  0  1  0  0  3  0  0  0  0  0  0
  189.0750  179.7150  139.0700 O   0  0  0  0  0  1  0  0  0  0  0  0
  190.3930  176.9260  137.4660 N   0  0  0  0  0  0  0  0  0  0  0  0
  187.8470  177.5170  147.6980 C   0  0  0  0  0  2  0  0  0  0  0  0
  188.5960  178.0090  148.7680 O   0  0  0  0  0  1  0  0  0  0  0  0
  1  4  1  0  0  0  0
  2  5  1  0  0  0  0
  3  1  2  0  0  0  0
  3 18  1  0  0  0  0
  4  2  1  0  0  0  0
  4 10  2  0  0  0  0
  5 11  2  0  0  0  0
  5 17  1  0  0  0  0
  6 19  1  0  0  0  0
  7 16  1  0  0  0  0
  7  2  2  0  0  0  0
  9  8  1  0  0  0  0
  9 11  1  0  0  0  0
 10 12  1  0  0  0  0
 12 17  1  0  0  0  0
 13 10  1  0  0  0  0
 14  7  1  0  0  0  0
 15 14  2  0  0  0  0
 15  1  1  0  0  0  0
 16  9  2  0  0  0  0
 17 31  1  1  0  0  0
 18 13  2  0  0  0  0
 19  8  1  0  0  0  0
 20  6  1  0  0  0  0
 20 16  1  0  0  0  0
 21 23  1  6  0  0  0
 21 28  1  0  0  0  0
 22 30  1  0  0  0  0
 24 27  1  0  0  0  0
 25 15  1  1  0  0  0
 26 30  1  0  0  0  0
 26 21  1  0  0  0  0
 27 25  1  0  0  0  0
 28 29  1  6  0  0  0
 28 25  1  0  0  0  0
 30 24  1  0  0  0  0
 31 32  1  0  0  0  0
M  END
>  <MODEL>
4

>  <REMARK>
 VINA RESULT:      -9.7      2.812      6.047
  Name = 
  2 active torsions:
  status: ('A' for Active; 'I' for Inactive)
    1  A    between atoms: C_13  and  C_29
    2  A    between atoms: C_16  and  C_27
                            x       y       z     vdW  Elec       q    Type
                         _______ _______ _______ _____ _____    ______ ____

>  <TORSDO>
F 2

$$$$
=
 OpenBabel10272402033D

 32 37  0  0  1  0  0  0  0  0999 V2000
  185.3100  178.1760  144.0720 C   0  0  0  0  0  0  0  0  0  0  0  0
  187.6820  177.7550  144.4410 C   0  0  0  0  0  0  0  0  0  0  0  0
  184.0300  178.4110  144.5950 C   0  0  0  0  0  3  0  0  0  0  0  0
  186.4030  178.0260  144.9560 C   0  0  0  0  0  0  0  0  0  0  0  0
  188.7750  177.5120  145.2920 C   0  0  0  0  0  0  0  0  0  0  0  0
  190.6490  176.7850  140.6100 C   0  0  0  0  0  2  0  0  0  0  0  0
  187.8640  177.7030  143.0450 C   0  0  0  0  0  0  0  0  0  0  0  0
  191.5880  176.8800  142.9110 C   0  0  0  0  0  2  0  0  0  0  0  0
  190.2160  177.2430  143.4100 C   0  0  0  0  0  0  0  0  0  0  0  0
  186.2040  178.1590  146.3450 C   0  0  0  0  0  0  0  0  0  0  0  0
  189.9940  177.2410  144.7510 N   0  0  0  0  0  0  0  0  0  0  0  0
  187.3760  178.2010  147.2820 C   0  0  0  0  0  2  0  0  0  0  0  0
  184.9250  178.4130  146.8440 C   0  0  0  0  0  3  0  0  0  0  0  0
  186.7970  177.8780  142.2190 N   0  0  0  0  0  0  0  0  0  0  0  0
  185.5370  178.1000  142.6860 C   0  0  0  0  0  0  0  0  0  0  0  0
  189.1400  177.4500  142.5180 C   0  0  0  0  0  0  0  0  0  0  0  0
  188.5550  177.3590  146.7800 C   0  0  2  0  0  3  0  0  0  0  0  0
  183.8380  178.5220  145.9730 C   0  0  0  0  0  3  0  0  0  0  0  0
  191.8050  177.2910  141.4580 C   0  0  0  0  0  2  0  0  0  0  0  0
  189.3640  177.4920  141.0260 C   0  0  0  0  0  2  0  0  0  0  0  0
  183.7400  179.8940  139.8130 C   0  0  1  0  0  3  0  0  0  0  0  0
  180.8430  177.5400  139.7990 C   0  0  0  0  0  1  0  0  0  0  0  0
  184.2530  180.6650  138.7700 O   0  0  0  0  0  1  0  0  0  0  0  0
  181.8700  178.6660  141.5730 C   0  0  0  0  0  2  0  0  0  0  0  0
  184.4120  178.2650  141.7080 C   0  0  1  0  0  3  0  0  0  0  0  0
  182.5730  179.0340  139.3030 C   0  0  0  0  0  2  0  0  0  0  0  0
  183.1520  178.7880  142.4150 C   0  0  0  0  0  2  0  0  0  0  0  0
  184.8640  179.1020  140.4980 C   0  0  1  0  0  3  0  0  0  0  0  0
  185.5170  178.2810  139.5750 O   0  0  0  0  0  1  0  0  0  0  0  0
  182.1200  178.0350  140.2770 N   0  0  0  0  0  0  0  0  0  0  0  0
  189.8070  177.7160  147.5710 C   0  0  0  0  0  2  0  0  0  0  0  0
  189.4590  178.4130  148.7280 O   0  0  0  0  0  1  0  0  0  0  0  0
  1  3  2  0  0  0  0
  1  4  1  0  0  0  0
  2  4  1  0  0  0  0
  2  5  1  0  0  0  0
  3 18  1  0  0  0  0
  4 10  2  0  0  0  0
  5 17  1  0  0  0  0
  6 20  1  0  0  0  0
  6 19  1  0  0  0  0
  7  2  2  0  0  0  0
  8  9  1  0  0  0  0
  9 11  1  0  0  0  0
 10 13  1  0  0  0  0
 10 12  1  0  0  0  0
 11  5  2  0  0  0  0
 14 15  2  0  0  0  0
 14  7  1  0  0  0  0
 15  1  1  0  0  0  0
 16  7  1  0  0  0  0
 16  9  2  0  0  0  0
 17 12  1  0  0  0  0
 17 31  1  1  0  0  0
 18 13  2  0  0  0  0
 19  8  1  0  0  0  0
 20 16  1  0  0  0  0
 21 23  1  6  0  0  0
 21 28  1  0  0  0  0
 22 30  1  0  0  0  0
 24 27  1  0  0  0  0
 25 27  1  0  0  0  0
 25 15  1  1  0  0  0
 26 21  1  0  0  0  0
 26 30  1  0  0  0  0
 28 29  1  6  0  0  0
 28 25  1  0  0  0  0
 30 24  1  0  0  0  0
 31 32  1  0  0  0  0
M  END
>  <MODEL>
5

>  <REMARK>
 VINA RESULT:      -9.7      1.635      2.194
  Name = 
  2 active torsions:
  status: ('A' for Active; 'I' for Inactive)
    1  A    between atoms: C_13  and  C_29
    2  A    between atoms: C_16  and  C_27
                            x       y       z     vdW  Elec       q    Type
                         _______ _______ _______ _____ _____    ______ ____

>  <TORSDO>
F 2

$$$$
=
 OpenBabel10272402033D

 32 37  0  0  1  0  0  0  0  0999 V2000
  185.8720  178.4270  143.7380 C   0  0  0  0  0  0  0  0  0  0  0  0
  185.8770  178.4540  141.3010 C   0  0  0  0  0  0  0  0  0  0  0  0
  185.1720  178.5640  144.9450 C   0  0  0  0  0  3  0  0  0  0  0  0
  185.1760  178.5550  142.5140 C   0  0  0  0  0  0  0  0  0  0  0  0
  185.2360  178.6640  140.0670 C   0  0  0  0  0  0  0  0  0  0  0  0
  190.1280  177.9600  138.8290 C   0  0  0  0  0  2  0  0  0  0  0  0
  187.2550  178.1580  141.3250 C   0  0  0  0  0  0  0  0  0  0  0  0
  187.9900  178.1980  137.5810 C   0  0  0  0  0  2  0  0  0  0  0  0
  187.2720  178.2270  138.9020 C   0  0  0  0  0  0  0  0  0  0  0  0
  183.7830  178.7740  142.5200 C   0  0  0  0  0  0  0  0  0  0  0  0
  185.9550  178.5690  138.9150 N   0  0  0  0  0  0  0  0  0  0  0  0
  182.9980  178.7170  141.2420 C   0  0  0  0  0  2  0  0  0  0  0  0
  183.1020  178.8880  143.7330 C   0  0  0  0  0  3  0  0  0  0  0  0
  187.8920  178.0140  142.5190 N   0  0  0  0  0  0  0  0  0  0  0  0
  187.2510  178.1480  143.7130 C   0  0  0  0  0  0  0  0  0  0  0  0
  187.9630  178.0380  140.1200 C   0  0  0  0  0  0  0  0  0  0  0  0
  183.8160  179.1830  140.0320 C   0  0  2  0  0  3  0  0  0  0  0  0
  183.7960  178.8000  144.9420 C   0  0  0  0  0  3  0  0  0  0  0  0
  189.3130  177.4420  137.6550 C   0  0  0  0  0  2  0  0  0  0  0  0
  189.4140  177.6240  140.1330 C   0  0  0  0  0  2  0  0  0  0  0  0
  190.2110  176.8380  145.7680 C   0  0  1  0  0  3  0  0  0  0  0  0
  188.9870  178.3160  148.9710 C   0  0  0  0  0  1  0  0  0  0  0  0
  191.5170  176.5390  145.3790 O   0  0  0  0  0  1  0  0  0  0  0  0
  187.8660  177.0300  147.3710 C   0  0  0  0  0  2  0  0  0  0  0  0
  188.0300  177.9900  144.9840 C   0  0  1  0  0  3  0  0  0  0  0  0
  190.2170  177.4920  147.1590 C   0  0  0  0  0  2  0  0  0  0  0  0
  187.3320  176.9980  145.9280 C   0  0  0  0  0  2  0  0  0  0  0  0
  189.5030  177.6600  144.6800 C   0  0  1  0  0  3  0  0  0  0  0  0
  190.2060  178.8390  144.4220 O   0  0  0  0  0  1  0  0  0  0  0  0
  188.9120  178.0380  147.5480 N   0  0  0  0  0  0  0  0  0  0  0  0
  183.1030  178.7760  138.7500 C   0  0  0  0  0  2  0  0  0  0  0  0
  182.2460  179.7960  138.3350 O   0  0  0  0  0  1  0  0  0  0  0  0
  1  3  2  0  0  0  0
  2  7  1  0  0  0  0
  2  4  1  0  0  0  0
  4 10  2  0  0  0  0
  4  1  1  0  0  0  0
  5  2  2  0  0  0  0
  6 20  1  0  0  0  0
  7 14  1  0  0  0  0
  8 19  1  0  0  0  0
  8  9  1  0  0  0  0
  9 11  2  0  0  0  0
  9 16  1  0  0  0  0
 10 13  1  0  0  0  0
 11  5  1  0  0  0  0
 12 10  1  0  0  0  0
 13 18  2  0  0  0  0
 14 15  2  0  0  0  0
 15  1  1  0  0  0  0
 16 20  1  0  0  0  0
 16  7  2  0  0  0  0
 17 31  1  6  0  0  0
 17  5  1  0  0  0  0
 17 12  1  0  0  0  0
 18  3  1  0  0  0  0
 19  6  1  0  0  0  0
 21 23  1  6  0  0  0
 21 26  1  0  0  0  0
 24 30  1  0  0  0  0
 25 15  1  6  0  0  0
 25 27  1  0  0  0  0
 26 30  1  0  0  0  0
 27 24  1  0  0  0  0
 28 29  1  1  0  0  0
 28 25  1  0  0  0  0
 28 21  1  0  0  0  0
 30 22  1  0  0  0  0
 32 31  1  0  0  0  0
M  END
>  <MODEL>
6

>  <REMARK>
 VINA RESULT:      -9.5      1.838      6.984
  Name = 
  2 active torsions:
  status: ('A' for Active; 'I' for Inactive)
    1  A    between atoms: C_13  and  C_29
    2  A    between atoms: C_16  and  C_27
                            x       y       z     vdW  Elec       q    Type
                         _______ _______ _______ _____ _____    ______ ____

>  <TORSDO>
F 2

$$$$
=
 OpenBabel10272402033D

 32 37  0  0  1  0  0  0  0  0999 V2000
  184.1920  178.3420  142.6930 C   0  0  0  0  0  0  0  0  0  0  0  0
  186.3600  178.1130  143.7820 C   0  0  0  0  0  0  0  0  0  0  0  0
  182.8080  178.5490  142.7890 C   0  0  0  0  0  3  0  0  0  0  0  0
  184.9780  178.3540  143.8680 C   0  0  0  0  0  0  0  0  0  0  0  0
  187.1600  178.0290  144.9360 C   0  0  0  0  0  0  0  0  0  0  0  0
  190.3570  176.9450  141.1200 C   0  0  0  0  0  2  0  0  0  0  0  0
  186.9490  177.9300  142.5150 C   0  0  0  0  0  0  0  0  0  0  0  0
  190.5690  177.3350  143.5670 C   0  0  0  0  0  2  0  0  0  0  0  0
  189.1010  177.6590  143.5990 C   0  0  0  0  0  0  0  0  0  0  0  0
  184.3740  178.6170  145.1130 C   0  0  0  0  0  0  0  0  0  0  0  0
  188.4920  177.7810  144.8090 N   0  0  0  0  0  0  0  0  0  0  0  0
  185.2140  178.8280  146.3380 C   0  0  0  0  0  2  0  0  0  0  0  0
  182.9970  178.8390  145.1850 C   0  0  0  0  0  3  0  0  0  0  0  0
  186.1700  177.9510  141.3990 N   0  0  0  0  0  0  0  0  0  0  0  0
  184.8220  178.1390  141.4510 C   0  0  0  0  0  0  0  0  0  0  0  0
  188.3310  177.7050  142.4160 C   0  0  0  0  0  0  0  0  0  0  0  0
  186.5140  178.0160  146.3040 C   0  0  2  0  0  3  0  0  0  0  0  0
  182.2140  178.7880  144.0290 C   0  0  0  0  0  3  0  0  0  0  0  0
  191.1940  177.6080  142.2020 C   0  0  0  0  0  2  0  0  0  0  0  0
  188.9850  177.6080  141.0590 C   0  0  0  0  0  2  0  0  0  0  0  0
  182.1900  179.5570  139.0500 C   0  0  1  0  0  3  0  0  0  0  0  0
  182.6540  176.8530  136.5180 C   0  0  0  0  0  1  0  0  0  0  0  0
  181.7490  180.8690  138.8680 O   0  0  0  0  0  1  0  0  0  0  0  0
  182.3420  176.7230  138.8330 C   0  0  0  0  0  2  0  0  0  0  0  0
  184.0320  178.1310  140.1760 C   0  0  1  0  0  3  0  0  0  0  0  0
  182.2740  178.8400  137.6940 C   0  0  0  0  0  2  0  0  0  0  0  0
  182.9640  177.0270  140.2080 C   0  0  0  0  0  2  0  0  0  0  0  0
  183.4930  179.5380  139.8630 C   0  0  1  0  0  3  0  0  0  0  0  0
  184.4820  180.2880  139.2210 O   0  0  0  0  0  1  0  0  0  0  0  0
  182.9360  177.5340  137.7690 N   0  0  0  0  0  0  0  0  0  0  0  0
  187.4640  178.5310  147.3760 C   0  0  0  0  0  2  0  0  0  0  0  0
  187.8570  177.4830  148.2100 O   0  0  0  0  0  1  0  0  0  0  0  0
  1  3  2  0  0  0  0
  1  4  1  0  0  0  0
  2  4  1  0  0  0  0
  2  5  1  0  0  0  0
  3 18  1  0  0  0  0
  4 10  2  0  0  0  0
  5 17  1  0  0  0  0
  6 19  1  0  0  0  0
  7  2  2  0  0  0  0
  8  9  1  0  0  0  0
  9 11  1  0  0  0  0
 10 13  1  0  0  0  0
 10 12  1  0  0  0  0
 11  5  2  0  0  0  0
 14 15  2  0  0  0  0
 14  7  1  0  0  0  0
 15  1  1  0  0  0  0
 16  7  1  0  0  0  0
 16  9  2  0  0  0  0
 17 12  1  0  0  0  0
 17 31  1  1  0  0  0
 18 13  2  0  0  0  0
 19  8  1  0  0  0  0
 20  6  1  0  0  0  0
 20 16  1  0  0  0  0
 21 23  1  6  0  0  0
 21 28  1  0  0  0  0
 22 30  1  0  0  0  0
 24 27  1  0  0  0  0
 25 27  1  0  0  0  0
 25 15  1  1  0  0  0
 26 30  1  0  0  0  0
 26 21  1  0  0  0  0
 28 29  1  6  0  0  0
 28 25  1  0  0  0  0
 30 24  1  0  0  0  0
 31 32  1  0  0  0  0
M  END
>  <MODEL>
7

>  <REMARK>
 VINA RESULT:      -9.3      1.618      2.139
  Name = 
  2 active torsions:
  status: ('A' for Active; 'I' for Inactive)
    1  A    between atoms: C_13  and  C_29
    2  A    between atoms: C_16  and  C_27
                            x       y       z     vdW  Elec       q    Type
                         _______ _______ _______ _____ _____    ______ ____

>  <TORSDO>
F 2

$$$$
=
 OpenBabel10272402033D

 32 37  0  0  1  0  0  0  0  0999 V2000
  186.4950  178.2990  141.4190 C   0  0  0  0  0  0  0  0  0  0  0  0
  188.1440  177.9240  143.1730 C   0  0  0  0  0  0  0  0  0  0  0  0
  186.1890  178.4270  140.0560 C   0  0  0  0  0  3  0  0  0  0  0  0
  187.8250  178.0190  141.8080 C   0  0  0  0  0  0  0  0  0  0  0  0
  189.4710  177.7360  143.6010 C   0  0  0  0  0  0  0  0  0  0  0  0
  186.8280  178.2700  147.9240 C   0  0  0  0  0  2  0  0  0  0  0  0
  187.1170  178.0450  144.1300 C   0  0  0  0  0  0  0  0  0  0  0  0
  189.1680  177.6760  147.3280 C   0  0  0  0  0  2  0  0  0  0  0  0
  188.7630  177.7150  145.8790 C   0  0  0  0  0  0  0  0  0  0  0  0
  188.8170  177.8270  140.8260 C   0  0  0  0  0  0  0  0  0  0  0  0
  189.7390  177.6620  144.9330 N   0  0  0  0  0  0  0  0  0  0  0  0
  190.1830  177.3370  141.2080 C   0  0  0  0  0  2  0  0  0  0  0  0
  188.4870  177.9400  139.4730 C   0  0  0  0  0  3  0  0  0  0  0  0
  185.8410  178.2870  143.7230 N   0  0  0  0  0  0  0  0  0  0  0  0
  185.5050  178.4270  142.4110 C   0  0  0  0  0  0  0  0  0  0  0  0
  187.4220  177.9360  145.4960 C   0  0  0  0  0  0  0  0  0  0  0  0
  190.6050  177.8130  142.6030 C   0  0  2  0  0  3  0  0  0  0  0  0
  187.1820  178.2550  139.0900 C   0  0  0  0  0  3  0  0  0  0  0  0
  187.9960  177.3530  148.2500 C   0  0  0  0  0  2  0  0  0  0  0  0
  186.3150  177.9630  146.5220 C   0  0  0  0  0  2  0  0  0  0  0  0
  181.7440  178.5280  143.1480 C   0  0  1  0  0  3  0  0  0  0  0  0
  180.8430  179.8220  139.7640 C   0  0  0  0  0  1  0  0  0  0  0  0
  181.0660  178.6800  144.3580 O   0  0  0  0  0  1  0  0  0  0  0  0
  182.2260  178.0400  140.3860 C   0  0  0  0  0  2  0  0  0  0  0  0
  184.0780  178.7110  142.0470 C   0  0  1  0  0  3  0  0  0  0  0  0
  181.0100  179.2950  142.0380 C   0  0  0  0  0  2  0  0  0  0  0  0
  183.5470  177.6500  141.0710 C   0  0  0  0  0  2  0  0  0  0  0  0
  183.2240  178.9050  143.3130 C   0  0  1  0  0  3  0  0  0  0  0  0
  183.3470  180.2200  143.7660 O   0  0  0  0  0  1  0  0  0  0  0  0
  181.7700  179.3720  140.7860 N   0  0  0  0  0  0  0  0  0  0  0  0
  191.8140  177.0130  143.0680 C   0  0  0  0  0  2  0  0  0  0  0  0
  191.4540  175.6820  143.2810 O   0  0  0  0  0  1  0  0  0  0  0  0
  1  4  2  0  0  0  0
  1 15  1  0  0  0  0
  2  5  2  0  0  0  0
  2  7  1  0  0  0  0
  3  1  1  0  0  0  0
  4  2  1  0  0  0  0
  5 11  1  0  0  0  0
  6 19  1  0  0  0  0
  7 16  2  0  0  0  0
  8 19  1  0  0  0  0
  9  8  1  0  0  0  0
 10 12  1  0  0  0  0
 10  4  1  0  0  0  0
 11  9  2  0  0  0  0
 12 17  1  0  0  0  0
 13 10  2  0  0  0  0
 14  7  1  0  0  0  0
 15 14  2  0  0  0  0
 16  9  1  0  0  0  0
 16 20  1  0  0  0  0
 17 31  1  1  0  0  0
 17  5  1  0  0  0  0
 18 13  1  0  0  0  0
 18  3  2  0  0  0  0
 20  6  1  0  0  0  0
 21 28  1  0  0  0  0
 21 23  1  1  0  0  0
 22 30  1  0  0  0  0
 24 30  1  0  0  0  0
 24 27  1  0  0  0  0
 25 15  1  1  0  0  0
 25 28  1  0  0  0  0
 26 21  1  0  0  0  0
 27 25  1  0  0  0  0
 28 29  1  6  0  0  0
 30 26  1  0  0  0  0
 31 32  1  0  0  0  0
M  END
>  <MODEL>
8

>  <REMARK>
 VINA RESULT:      -9.0      2.269      4.770
  Name = 
  2 active torsions:
  status: ('A' for Active; 'I' for Inactive)
    1  A    between atoms: C_13  and  C_29
    2  A    between atoms: C_16  and  C_27
                            x       y       z     vdW  Elec       q    Type
                         _______ _______ _______ _____ _____    ______ ____

>  <TORSDO>
F 2

$$$$
=
 OpenBabel10272402033D

 32 37  0  0  1  0  0  0  0  0999 V2000
  185.8650  178.3300  143.5030 C   0  0  0  0  0  0  0  0  0  0  0  0
  183.7320  178.5050  142.3370 C   0  0  0  0  0  0  0  0  0  0  0  0
  186.5960  178.3920  144.6980 C   0  0  0  0  0  3  0  0  0  0  0  0
  184.4660  178.5320  143.5350 C   0  0  0  0  0  0  0  0  0  0  0  0
  182.3540  178.7900  142.3190 C   0  0  0  0  0  0  0  0  0  0  0  0
  183.5690  178.1680  137.4100 C   0  0  0  0  0  2  0  0  0  0  0  0
  184.3960  178.2110  141.1300 C   0  0  0  0  0  0  0  0  0  0  0  0
  181.4660  178.4800  138.7000 C   0  0  0  0  0  2  0  0  0  0  0  0
  182.2830  178.4270  139.9620 C   0  0  0  0  0  0  0  0  0  0  0  0
  183.8170  178.7490  144.7680 C   0  0  0  0  0  0  0  0  0  0  0  0
  181.6840  178.7660  141.1350 N   0  0  0  0  0  0  0  0  0  0  0  0
  182.3190  178.7690  144.8460 C   0  0  0  0  0  2  0  0  0  0  0  0
  184.5620  178.7880  145.9480 C   0  0  0  0  0  3  0  0  0  0  0  0
  185.7400  177.9940  141.1350 N   0  0  0  0  0  0  0  0  0  0  0  0
  186.4870  178.0550  142.2720 C   0  0  0  0  0  0  0  0  0  0  0  0
  183.6700  178.1650  139.9300 C   0  0  0  0  0  0  0  0  0  0  0  0
  181.6730  179.3090  143.5650 C   0  0  2  0  0  3  0  0  0  0  0  0
  185.9490  178.6270  145.9120 C   0  0  0  0  0  3  0  0  0  0  0  0
  182.1230  177.7210  137.5510 C   0  0  0  0  0  2  0  0  0  0  0  0
  184.3540  177.7520  138.6490 C   0  0  0  0  0  2  0  0  0  0  0  0
  189.6820  176.9870  140.4400 C   0  0  1  0  0  3  0  0  0  0  0  0
  191.8930  177.5900  143.3870 C   0  0  0  0  0  1  0  0  0  0  0  0
  189.9970  177.0220  139.0810 O   0  0  0  0  0  1  0  0  0  0  0  0
  189.8710  176.4260  143.2240 C   0  0  0  0  0  2  0  0  0  0  0  0
  187.9660  177.8200  142.1890 C   0  0  1  0  0  3  0  0  0  0  0  0
  190.9170  177.3640  141.2730 C   0  0  0  0  0  2  0  0  0  0  0  0
  188.3580  176.5560  142.9700 C   0  0  0  0  0  2  0  0  0  0  0  0
  188.4370  177.8410  140.7240 C   0  0  1  0  0  3  0  0  0  0  0  0
  188.6460  179.1610  140.3160 O   0  0  0  0  0  1  0  0  0  0  0  0
  190.6180  177.5670  142.6940 N   0  0  0  0  0  0  0  0  0  0  0  0
  180.1860  178.9800  143.5680 C   0  0  0  0  0  2  0  0  0  0  0  0
  179.9820  177.6940  144.0690 O   0  0  0  0  0  1  0  0  0  0  0  0
  1  4  1  0  0  0  0
  1  3  2  0  0  0  0
  2  4  1  0  0  0  0
  3 18  1  0  0  0  0
  4 10  2  0  0  0  0
  5  2  1  0  0  0  0
  5 17  1  0  0  0  0
  6 19  1  0  0  0  0
  6 20  1  0  0  0  0
  7 14  1  0  0  0  0
  7  2  2  0  0  0  0
  8  9  1  0  0  0  0
  9 11  1  0  0  0  0
 10 12  1  0  0  0  0
 10 13  1  0  0  0  0
 11  5  2  0  0  0  0
 14 15  2  0  0  0  0
 15  1  1  0  0  0  0
 16  9  2  0  0  0  0
 16  7  1  0  0  0  0
 17 31  1  6  0  0  0
 17 12  1  0  0  0  0
 18 13  2  0  0  0  0
 19  8  1  0  0  0  0
 20 16  1  0  0  0  0
 21 23  1  6  0  0  0
 21 28  1  0  0  0  0
 21 26  1  0  0  0  0
 25 15  1  6  0  0  0
 25 27  1  0  0  0  0
 26 30  1  0  0  0  0
 27 24  1  0  0  0  0
 28 29  1  1  0  0  0
 28 25  1  0  0  0  0
 30 24  1  0  0  0  0
 30 22  1  0  0  0  0
 31 32  1  0  0  0  0
M  END
>  <MODEL>
9

>  <REMARK>
 VINA RESULT:      -8.9      2.349      6.663
  Name = 
  2 active torsions:
  status: ('A' for Active; 'I' for Inactive)
    1  A    between atoms: C_13  and  C_29
    2  A    between atoms: C_16  and  C_27
                            x       y       z     vdW  Elec       q    Type
                         _______ _______ _______ _____ _____    ______ ____

>  <TORSDO>
F 2

$$$$
