=
 OpenBabel10272413253D

 32 37  0  0  1  0  0  0  0  0999 V2000
  195.2480  176.5910  135.3520 N   0  0  0  0  0  0  0  0  0  0  0  0
  194.5330  172.9730  135.2020 C   0  0  0  0  0  2  0  0  0  0  0  0
  192.6430  176.6730  138.6880 C   0  0  0  0  0  3  0  0  0  0  0  0
  187.7470  175.2250  135.7210 C   0  0  0  0  0  2  0  0  0  0  0  0
  187.4030  176.6280  136.2330 C   0  0  0  0  0  2  0  0  0  0  0  0
  194.1920  174.7860  137.7720 C   0  0  0  0  0  0  0  0  0  0  0  0
  191.8870  174.1430  137.0930 N   0  0  0  0  0  0  0  0  0  0  0  0
  194.6810  175.4480  134.6390 C   0  0  0  0  0  2  0  0  0  0  0  0
  193.8350  172.7070  136.5410 C   0  0  0  0  0  2  0  0  0  0  0  0
  189.2290  174.9090  135.8790 C   0  0  0  0  0  2  0  0  0  0  0  0
  191.1170  175.0980  137.5100 C   0  0  0  0  0  0  0  0  0  0  0  0
  189.6340  175.0830  137.3490 C   0  0  1  0  0  3  0  0  0  0  0  0
  190.2480  176.9500  138.5530 N   0  0  0  0  0  0  0  0  0  0  0  0
  196.3740  176.1500  136.0810 N   0  0  0  0  0  2  0  0  0  0  0  0
  196.2360  174.7140  136.2830 C   0  0  1  0  0  3  0  0  0  0  0  0
  195.7330  177.5200  134.3460 C   0  0  0  0  0  1  0  0  0  0  0  0
  193.3050  173.9500  137.1880 C   0  0  0  0  0  0  0  0  0  0  0  0
  195.6520  174.4440  137.6790 C   0  0  0  0  0  2  0  0  0  0  0  0
  195.4280  174.2250  135.0930 C   0  0  1  0  0  3  0  0  0  0  0  0
  188.5570  177.2690  137.0070 C   0  0  0  0  0  2  0  0  0  0  0  0
  189.1150  176.3300  137.9880 N   0  0  1  0  0  0  0  0  0  0  0  0
  193.8800  176.0130  138.4380 N   0  0  0  0  0  2  0  0  0  0  0  0
  191.4540  176.2560  138.2780 C   0  0  0  0  0  0  0  0  0  0  0  0
  190.1270  178.0040  139.5560 C   0  0  0  0  0  2  0  0  0  0  0  0
  190.4780  176.6050  141.5300 C   0  0  0  0  0  3  0  0  0  0  0  0
  190.0370  175.9980  142.7990 C   0  0  0  0  0  0  0  0  0  0  0  0
  188.3120  177.7200  141.3790 C   0  0  0  0  0  0  0  0  0  0  0  0
  187.8730  177.1080  142.6460 C   0  0  0  0  0  3  0  0  0  0  0  0
  188.6900  176.2930  143.3200 C   0  0  0  0  0  3  0  0  0  0  0  0
  190.8060  175.2310  143.4330 O   0  0  0  0  0  0  0  0  0  0  0  0
  187.5320  178.4860  140.7530 O   0  0  0  0  0  0  0  0  0  0  0  0
  189.6680  177.4280  140.8550 C   0  0  0  0  0  0  0  0  0  0  0  0
  1 14  1  0  0  0  0
  2  9  1  0  0  0  0
  4 10  1  0  0  0  0
  4  5  1  0  0  0  0
  5 20  1  0  0  0  0
  6 22  1  0  0  0  0
  7 17  1  0  0  0  0
  7 11  2  0  0  0  0
  8  1  1  0  0  0  0
  9 17  1  0  0  0  0
 11 23  1  0  0  0  0
 12 10  1  6  0  0  0
 12 11  1  0  0  0  0
 12 21  1  0  0  0  0
 13 24  1  0  0  0  0
 14 15  1  0  0  0  0
 15 18  1  1  0  0  0
 16  1  1  0  0  0  0
 17  6  2  0  0  0  0
 18  6  1  0  0  0  0
 19  8  1  1  0  0  0
 19  2  1  0  0  0  0
 19 15  1  0  0  0  0
 21 20  1  6  0  0  0
 21 13  1  0  0  0  0
 22  3  1  0  0  0  0
 23 13  1  0  0  0  0
 23  3  2  0  0  0  0
 24 32  1  0  0  0  0
 25 26  1  0  0  0  0
 26 29  1  0  0  0  0
 26 30  2  0  0  0  0
 27 28  1  0  0  0  0
 28 29  2  0  0  0  0
 31 27  2  0  0  0  0
 32 27  1  0  0  0  0
 32 25  2  0  0  0  0
M  END
>  <MODEL>
1

>  <REMARK>
 VINA RESULT:      -8.0      0.000      0.000
  Name = 
  2 active torsions:
  status: ('A' for Active; 'I' for Inactive)
    1  A    between atoms: N_16  and  C_27
    2  A    between atoms: C_27  and  C_32
                            x       y       z     vdW  Elec       q    Type
                         _______ _______ _______ _____ _____    ______ ____

>  <TORSDO>
F 2

$$$$
=
 OpenBabel10272413253D

 32 37  0  0  1  0  0  0  0  0999 V2000
  187.1470  174.4640  136.6550 N   0  0  0  0  0  0  0  0  0  0  0  0
  189.5210  177.2830  136.8520 C   0  0  0  0  0  2  0  0  0  0  0  0
  184.1040  177.3740  137.0990 C   0  0  0  0  0  3  0  0  0  0  0  0
  185.5710  179.0120  142.5790 C   0  0  0  0  0  2  0  0  0  0  0  0
  184.1630  178.4430  142.7860 C   0  0  0  0  0  2  0  0  0  0  0  0
  186.4760  177.5270  136.0290 C   0  0  0  0  0  0  0  0  0  0  0  0
  186.6680  178.6580  138.2360 N   0  0  0  0  0  0  0  0  0  0  0  0
  188.2320  175.1500  137.3530 C   0  0  0  0  0  2  0  0  0  0  0  0
  188.6110  178.5070  136.6980 C   0  0  0  0  0  2  0  0  0  0  0  0
  186.1340  178.6550  141.2100 C   0  0  0  0  0  2  0  0  0  0  0  0
  185.5020  178.5490  138.7900 C   0  0  0  0  0  0  0  0  0  0  0  0
  185.1690  179.1410  140.1190 C   0  0  1  0  0  3  0  0  0  0  0  0
  183.2760  178.1820  139.2190 N   0  0  0  0  0  0  0  0  0  0  0  0
  187.3110  174.6640  135.2670 N   0  0  0  0  0  2  0  0  0  0  0  0
  188.1260  175.8570  135.0850 C   0  0  1  0  0  3  0  0  0  0  0  0
  187.3150  173.0430  136.9000 C   0  0  0  0  0  1  0  0  0  0  0  0
  187.1680  178.2080  136.9700 C   0  0  0  0  0  0  0  0  0  0  0  0
  187.2160  177.0640  134.8050 C   0  0  0  0  0  2  0  0  0  0  0  0
  189.0010  175.9300  136.3250 C   0  0  1  0  0  3  0  0  0  0  0  0
  183.5620  177.8830  141.4950 C   0  0  0  0  0  2  0  0  0  0  0  0
  183.7320  178.8290  140.3850 N   0  0  1  0  0  0  0  0  0  0  0  0
  185.0980  177.1520  136.1040 N   0  0  0  0  0  0  0  0  0  0  0  0
  184.3010  177.9850  138.2580 C   0  0  2  0  0  3  0  0  0  0  0  0
  181.8530  178.0250  138.9330 C   0  0  0  0  0  2  0  0  0  0  0  0
  181.2890  179.9300  137.5080 C   0  0  0  0  0  3  0  0  0  0  0  0
  180.7020  181.2610  137.2750 C   0  0  0  0  0  0  0  0  0  0  0  0
  180.5640  180.0810  139.8330 C   0  0  0  0  0  0  0  0  0  0  0  0
  179.9820  181.4140  139.5980 C   0  0  0  0  0  3  0  0  0  0  0  0
  180.0460  181.9740  138.3860 C   0  0  0  0  0  3  0  0  0  0  0  0
  180.7620  181.7880  136.1340 O   0  0  0  0  0  0  0  0  0  0  0  0
  180.4990  179.5650  140.9810 O   0  0  0  0  0  0  0  0  0  0  0  0
  181.2210  179.3610  138.7170 C   0  0  0  0  0  0  0  0  0  0  0  0
  1 16  1  0  0  0  0
  1  8  1  0  0  0  0
  4  5  1  0  0  0  0
  6 22  1  0  0  0  0
  6 17  2  0  0  0  0
  7 11  2  0  0  0  0
  9  2  1  0  0  0  0
  9 17  1  0  0  0  0
 10  4  1  0  0  0  0
 11 12  1  0  0  0  0
 12 21  1  0  0  0  0
 12 10  1  1  0  0  0
 13 21  1  0  0  0  0
 14  1  1  0  0  0  0
 15 18  1  1  0  0  0
 15 14  1  0  0  0  0
 15 19  1  0  0  0  0
 17  7  1  0  0  0  0
 18  6  1  0  0  0  0
 19  2  1  1  0  0  0
 19  8  1  0  0  0  0
 20  5  1  0  0  0  0
 21 20  1  1  0  0  0
 22  3  2  0  0  0  0
 23  3  1  1  0  0  0
 23 11  1  0  0  0  0
 23 13  1  0  0  0  0
 24 13  1  0  0  0  0
 25 32  2  0  0  0  0
 26 25  1  0  0  0  0
 26 29  1  0  0  0  0
 27 31  2  0  0  0  0
 28 27  1  0  0  0  0
 29 28  2  0  0  0  0
 30 26  2  0  0  0  0
 32 24  1  0  0  0  0
 32 27  1  0  0  0  0
M  END
>  <MODEL>
2

>  <REMARK>
 VINA RESULT:      -7.0      5.351      8.558
  Name = 
  2 active torsions:
  status: ('A' for Active; 'I' for Inactive)
    1  A    between atoms: N_16  and  C_27
    2  A    between atoms: C_27  and  C_32
                            x       y       z     vdW  Elec       q    Type
                         _______ _______ _______ _____ _____    ______ ____

>  <TORSDO>
F 2

$$$$
=
 OpenBabel10272413253D

 32 37  0  0  1  0  0  0  0  0999 V2000
  187.4920  174.8660  136.7190 N   0  0  0  0  0  0  0  0  0  0  0  0
  191.0750  175.4520  137.3810 C   0  0  0  0  0  2  0  0  0  0  0  0
  186.8130  178.5010  138.7790 C   0  0  0  0  0  3  0  0  0  0  0  0
  188.7090  176.6220  144.0460 C   0  0  0  0  0  2  0  0  0  0  0  0
  187.2360  176.9330  144.3330 C   0  0  0  0  0  2  0  0  0  0  0  0
  188.8430  177.6940  137.3560 C   0  0  0  0  0  0  0  0  0  0  0  0
  189.5740  177.5010  139.7250 N   0  0  0  0  0  0  0  0  0  0  0  0
  188.7360  174.4570  137.3670 C   0  0  0  0  0  2  0  0  0  0  0  0
  191.1000  176.9090  137.8590 C   0  0  0  0  0  2  0  0  0  0  0  0
  189.0060  176.6010  142.5520 C   0  0  0  0  0  2  0  0  0  0  0  0
  188.5540  177.8630  140.4390 C   0  0  0  0  0  0  0  0  0  0  0  0
  188.5850  177.9380  141.9290 C   0  0  1  0  0  3  0  0  0  0  0  0
  186.5430  178.6940  141.1710 N   0  0  0  0  0  0  0  0  0  0  0  0
  187.8090  175.4770  135.4860 N   0  0  0  0  0  2  0  0  0  0  0  0
  189.1880  175.9410  135.5640 C   0  0  1  0  0  3  0  0  0  0  0  0
  186.7540  173.6530  136.4120 C   0  0  0  0  0  1  0  0  0  0  0  0
  189.7590  177.4070  138.3070 C   0  0  0  0  0  0  0  0  0  0  0  0
  189.2080  177.4360  135.9210 C   0  0  0  0  0  2  0  0  0  0  0  0
  189.8680  174.9930  136.5370 C   0  0  1  0  0  3  0  0  0  0  0  0
  186.4810  177.3970  143.0860 C   0  0  0  0  0  2  0  0  0  0  0  0
  187.2420  178.4250  142.3660 N   0  0  1  0  0  0  0  0  0  0  0  0
  187.5160  178.1790  137.5830 N   0  0  0  0  0  0  0  0  0  0  0  0
  187.2840  178.3590  140.0090 C   0  0  2  0  0  3  0  0  0  0  0  0
  185.3310  179.5070  141.1560 C   0  0  0  0  0  2  0  0  0  0  0  0
  183.8950  177.6190  140.5670 C   0  0  0  0  0  3  0  0  0  0  0  0
  182.8940  176.9520  139.7150 C   0  0  0  0  0  0  0  0  0  0  0  0
  183.7310  179.5790  139.1230 C   0  0  0  0  0  0  0  0  0  0  0  0
  182.7340  178.9070  138.2710 C   0  0  0  0  0  3  0  0  0  0  0  0
  182.3360  177.6630  138.5510 C   0  0  0  0  0  3  0  0  0  0  0  0
  182.5190  175.7800  139.9790 O   0  0  0  0  0  0  0  0  0  0  0  0
  184.0990  180.7520  138.8470 O   0  0  0  0  0  0  0  0  0  0  0  0
  184.2910  178.8670  140.2950 C   0  0  0  0  0  0  0  0  0  0  0  0
  1  8  1  0  0  0  0
  2  9  1  0  0  0  0
  4  5  1  0  0  0  0
  6 22  1  0  0  0  0
  6 17  2  0  0  0  0
  7 11  2  0  0  0  0
  9 17  1  0  0  0  0
 10  4  1  0  0  0  0
 11 12  1  0  0  0  0
 12 21  1  0  0  0  0
 12 10  1  1  0  0  0
 13 21  1  0  0  0  0
 14 15  1  0  0  0  0
 14  1  1  0  0  0  0
 15 18  1  1  0  0  0
 15 19  1  0  0  0  0
 16  1  1  0  0  0  0
 17  7  1  0  0  0  0
 18  6  1  0  0  0  0
 19  8  1  1  0  0  0
 19  2  1  0  0  0  0
 20  5  1  0  0  0  0
 21 20  1  6  0  0  0
 22  3  2  0  0  0  0
 23  3  1  1  0  0  0
 23 11  1  0  0  0  0
 23 13  1  0  0  0  0
 24 13  1  0  0  0  0
 26 30  2  0  0  0  0
 26 25  1  0  0  0  0
 27 32  1  0  0  0  0
 28 29  2  0  0  0  0
 28 27  1  0  0  0  0
 29 26  1  0  0  0  0
 31 27  2  0  0  0  0
 32 25  2  0  0  0  0
 32 24  1  0  0  0  0
M  END
>  <MODEL>
3

>  <REMARK>
 VINA RESULT:      -6.9      3.852      6.631
  Name = 
  2 active torsions:
  status: ('A' for Active; 'I' for Inactive)
    1  A    between atoms: N_16  and  C_27
    2  A    between atoms: C_27  and  C_32
                            x       y       z     vdW  Elec       q    Type
                         _______ _______ _______ _____ _____    ______ ____

>  <TORSDO>
F 2

$$$$
=
 OpenBabel10272413253D

 32 37  0  0  1  0  0  0  0  0999 V2000
  188.0340  174.5440  136.6480 N   0  0  0  0  0  0  0  0  0  0  0  0
  191.6730  174.8880  137.1600 C   0  0  0  0  0  2  0  0  0  0  0  0
  187.6910  178.2460  138.6710 C   0  0  0  0  0  3  0  0  0  0  0  0
  189.6620  176.3150  143.8920 C   0  0  0  0  0  2  0  0  0  0  0  0
  188.2270  176.7320  144.2310 C   0  0  0  0  0  2  0  0  0  0  0  0
  189.6010  177.2790  137.1840 C   0  0  0  0  0  0  0  0  0  0  0  0
  190.4120  177.0700  139.5260 N   0  0  0  0  0  0  0  0  0  0  0  0
  189.2720  174.0580  137.2540 C   0  0  0  0  0  2  0  0  0  0  0  0
  191.8180  176.3460  137.6120 C   0  0  0  0  0  2  0  0  0  0  0  0
  189.8970  176.2520  142.3880 C   0  0  0  0  0  2  0  0  0  0  0  0
  189.4490  177.5120  140.2730 C   0  0  0  0  0  0  0  0  0  0  0  0
  189.5440  177.6060  141.7590 C   0  0  1  0  0  3  0  0  0  0  0  0
  187.5310  178.4910  141.0680 N   0  0  0  0  0  0  0  0  0  0  0  0
  188.3430  175.1130  135.3940 N   0  0  0  0  0  2  0  0  0  0  0  0
  189.7520  175.4810  135.4110 C   0  0  1  0  0  3  0  0  0  0  0  0
  187.2020  173.3810  136.3910 C   0  0  0  0  0  1  0  0  0  0  0  0
  190.5330  176.9430  138.1030 C   0  0  0  0  0  0  0  0  0  0  0  0
  189.8900  176.9760  135.7400 C   0  0  0  0  0  2  0  0  0  0  0  0
  190.4040  174.5020  136.3720 C   0  0  1  0  0  3  0  0  0  0  0  0
  187.4560  177.2290  143.0060 C   0  0  0  0  0  2  0  0  0  0  0  0
  188.2570  178.1920  142.2400 N   0  0  1  0  0  0  0  0  0  0  0  0
  188.3220  177.8590  137.4550 N   0  0  0  0  0  0  0  0  0  0  0  0
  188.2000  178.0890  139.8840 C   0  0  2  0  0  3  0  0  0  0  0  0
  186.3780  179.3870  141.0860 C   0  0  0  0  0  2  0  0  0  0  0  0
  184.9420  178.5870  139.2770 C   0  0  0  0  0  3  0  0  0  0  0  0
  183.7350  177.9150  138.7650 C   0  0  0  0  0  0  0  0  0  0  0  0
  184.1790  178.1020  141.5440 C   0  0  0  0  0  0  0  0  0  0  0  0
  182.9710  177.4340  141.0280 C   0  0  0  0  0  3  0  0  0  0  0  0
  182.7600  177.3440  139.7120 C   0  0  0  0  0  3  0  0  0  0  0  0
  183.5360  177.8310  137.5250 O   0  0  0  0  0  0  0  0  0  0  0  0
  184.3660  178.1800  142.7870 O   0  0  0  0  0  0  0  0  0  0  0  0
  185.1630  178.6730  140.5930 C   0  0  0  0  0  0  0  0  0  0  0  0
  1  8  1  0  0  0  0
  2  9  1  0  0  0  0
  4  5  1  0  0  0  0
  6 22  1  0  0  0  0
  6 17  2  0  0  0  0
  7 11  2  0  0  0  0
  9 17  1  0  0  0  0
 10  4  1  0  0  0  0
 11 12  1  0  0  0  0
 12 21  1  0  0  0  0
 12 10  1  1  0  0  0
 13 24  1  0  0  0  0
 13 21  1  0  0  0  0
 14 15  1  0  0  0  0
 14  1  1  0  0  0  0
 15 18  1  1  0  0  0
 15 19  1  0  0  0  0
 16  1  1  0  0  0  0
 17  7  1  0  0  0  0
 18  6  1  0  0  0  0
 19  2  1  1  0  0  0
 19  8  1  0  0  0  0
 20  5  1  0  0  0  0
 21 20  1  1  0  0  0
 22  3  2  0  0  0  0
 23  3  1  1  0  0  0
 23 11  1  0  0  0  0
 23 13  1  0  0  0  0
 25 32  2  0  0  0  0
 26 25  1  0  0  0  0
 26 29  1  0  0  0  0
 27 31  2  0  0  0  0
 28 27  1  0  0  0  0
 29 28  2  0  0  0  0
 30 26  2  0  0  0  0
 32 24  1  0  0  0  0
 32 27  1  0  0  0  0
M  END
>  <MODEL>
4

>  <REMARK>
 VINA RESULT:      -6.6      3.289      6.084
  Name = 
  2 active torsions:
  status: ('A' for Active; 'I' for Inactive)
    1  A    between atoms: N_16  and  C_27
    2  A    between atoms: C_27  and  C_32
                            x       y       z     vdW  Elec       q    Type
                         _______ _______ _______ _____ _____    ______ ____

>  <TORSDO>
F 2

$$$$
=
 OpenBabel10272413253D

 32 37  0  0  1  0  0  0  0  0999 V2000
  188.1010  174.5670  136.7050 N   0  0  0  0  0  0  0  0  0  0  0  0
  191.7420  174.2390  137.2100 C   0  0  0  0  0  2  0  0  0  0  0  0
  188.4510  178.2810  138.7070 C   0  0  0  0  0  3  0  0  0  0  0  0
  190.0460  176.0490  143.9360 C   0  0  0  0  0  2  0  0  0  0  0  0
  188.7120  176.7240  144.2740 C   0  0  0  0  0  2  0  0  0  0  0  0
  190.1460  176.9700  137.2220 C   0  0  0  0  0  0  0  0  0  0  0  0
  190.9110  176.6280  139.5640 N   0  0  0  0  0  0  0  0  0  0  0  0
  189.2300  173.8650  137.3120 C   0  0  0  0  0  2  0  0  0  0  0  0
  192.1540  175.6480  137.6530 C   0  0  0  0  0  2  0  0  0  0  0  0
  190.2610  175.9350  142.4320 C   0  0  0  0  0  2  0  0  0  0  0  0
  190.0480  177.2440  140.3100 C   0  0  0  0  0  0  0  0  0  0  0  0
  190.1620  177.3280  141.7950 C   0  0  1  0  0  3  0  0  0  0  0  0
  188.3450  178.5640  141.1020 N   0  0  0  0  0  0  0  0  0  0  0  0
  188.5070  175.0630  135.4470 N   0  0  0  0  0  2  0  0  0  0  0  0
  189.9600  175.1650  135.4590 C   0  0  1  0  0  3  0  0  0  0  0  0
  187.0690  173.5760  136.4560 C   0  0  0  0  0  1  0  0  0  0  0  0
  191.0030  176.4730  138.1420 C   0  0  0  0  0  0  0  0  0  0  0  0
  190.3710  176.6110  135.7800 C   0  0  0  0  0  2  0  0  0  0  0  0
  190.4230  174.0880  136.4260 C   0  0  1  0  0  3  0  0  0  0  0  0
  188.0440  177.3480  143.0470 C   0  0  0  0  0  2  0  0  0  0  0  0
  189.0060  178.1430  142.2740 N   0  0  1  0  0  0  0  0  0  0  0  0
  188.9960  177.7770  137.4910 N   0  0  0  0  0  0  0  0  0  0  0  0
  188.9250  178.0390  139.9200 C   0  0  2  0  0  3  0  0  0  0  0  0
  187.3760  179.6570  141.1170 C   0  0  0  0  0  2  0  0  0  0  0  0
  185.5540  178.9770  142.5970 C   0  0  0  0  0  3  0  0  0  0  0  0
  184.2120  178.4220  142.8500 C   0  0  0  0  0  0  0  0  0  0  0  0
  185.1460  178.7130  140.2050 C   0  0  0  0  0  0  0  0  0  0  0  0
  183.8070  178.1550  140.4630 C   0  0  0  0  0  3  0  0  0  0  0  0
  183.3630  178.0180  141.7160 C   0  0  0  0  0  3  0  0  0  0  0  0
  183.7940  178.2940  144.0300 O   0  0  0  0  0  0  0  0  0  0  0  0
  185.5530  178.8360  139.0190 O   0  0  0  0  0  0  0  0  0  0  0  0
  186.0000  179.1230  141.3450 C   0  0  0  0  0  0  0  0  0  0  0  0
  1  8  1  0  0  0  0
  2  9  1  0  0  0  0
  4  5  1  0  0  0  0
  6 22  1  0  0  0  0
  6 17  2  0  0  0  0
  7 11  2  0  0  0  0
  9 17  1  0  0  0  0
 10  4  1  0  0  0  0
 11 12  1  0  0  0  0
 12 21  1  0  0  0  0
 12 10  1  1  0  0  0
 13 24  1  0  0  0  0
 13 21  1  0  0  0  0
 14 15  1  0  0  0  0
 14  1  1  0  0  0  0
 15 18  1  1  0  0  0
 15 19  1  0  0  0  0
 16  1  1  0  0  0  0
 17  7  1  0  0  0  0
 18  6  1  0  0  0  0
 19  2  1  1  0  0  0
 19  8  1  0  0  0  0
 20  5  1  0  0  0  0
 21 20  1  1  0  0  0
 22  3  2  0  0  0  0
 23  3  1  1  0  0  0
 23 11  1  0  0  0  0
 23 13  1  0  0  0  0
 24 32  1  0  0  0  0
 25 26  1  0  0  0  0
 26 30  2  0  0  0  0
 27 28  1  0  0  0  0
 27 32  1  0  0  0  0
 28 29  2  0  0  0  0
 29 26  1  0  0  0  0
 31 27  2  0  0  0  0
 32 25  2  0  0  0  0
M  END
>  <MODEL>
5

>  <REMARK>
 VINA RESULT:      -6.5      3.172      5.650
  Name = 
  2 active torsions:
  status: ('A' for Active; 'I' for Inactive)
    1  A    between atoms: N_16  and  C_27
    2  A    between atoms: C_27  and  C_32
                            x       y       z     vdW  Elec       q    Type
                         _______ _______ _______ _____ _____    ______ ____

>  <TORSDO>
F 2

$$$$
=
 OpenBabel10272413253D

 32 37  0  0  1  0  0  0  0  0999 V2000
  185.5920  175.0550  137.0830 N   0  0  0  0  0  0  0  0  0  0  0  0
  189.2230  174.8000  136.4700 C   0  0  0  0  0  2  0  0  0  0  0  0
  186.4870  178.6380  139.1520 C   0  0  0  0  0  3  0  0  0  0  0  0
  189.5740  176.1150  143.5080 C   0  0  0  0  0  2  0  0  0  0  0  0
  188.3940  176.7280  144.2710 C   0  0  0  0  0  2  0  0  0  0  0  0
  187.6790  177.4770  137.1460 C   0  0  0  0  0  0  0  0  0  0  0  0
  189.1040  177.0050  139.1290 N   0  0  0  0  0  0  0  0  0  0  0  0
  186.8560  174.3480  137.2800 C   0  0  0  0  0  2  0  0  0  0  0  0
  189.7360  176.1880  136.8710 C   0  0  0  0  0  2  0  0  0  0  0  0
  189.3360  176.1060  142.0040 C   0  0  0  0  0  2  0  0  0  0  0  0
  188.4940  177.5450  140.1370 C   0  0  0  0  0  0  0  0  0  0  0  0
  189.0420  177.5340  141.5250 C   0  0  1  0  0  3  0  0  0  0  0  0
  187.0900  178.7600  141.4870 N   0  0  0  0  0  0  0  0  0  0  0  0
  185.6040  175.6440  135.7990 N   0  0  0  0  0  2  0  0  0  0  0  0
  186.9950  175.7870  135.3920 C   0  0  1  0  0  3  0  0  0  0  0  0
  184.5410  174.0530  137.0780 C   0  0  0  0  0  1  0  0  0  0  0  0
  188.7730  176.9460  137.7350 C   0  0  0  0  0  0  0  0  0  0  0  0
  187.4710  177.2200  135.6790 C   0  0  0  0  0  2  0  0  0  0  0  0
  187.7320  174.6630  136.1000 C   0  0  1  0  0  3  0  0  0  0  0  0
  187.3880  177.4110  143.3430 C   0  0  0  0  0  2  0  0  0  0  0  0
  188.0720  178.2830  142.3800 N   0  0  1  0  0  0  0  0  0  0  0  0
  186.6530  178.2310  137.7980 N   0  0  0  0  0  0  0  0  0  0  0  0
  187.3000  178.3310  140.1520 C   0  0  2  0  0  3  0  0  0  0  0  0
  186.1600  179.8220  141.8630 C   0  0  0  0  0  2  0  0  0  0  0  0
  184.0470  178.7730  141.2210 C   0  0  0  0  0  3  0  0  0  0  0  0
  182.7140  178.2240  141.5250 C   0  0  0  0  0  0  0  0  0  0  0  0
  184.3400  179.2220  143.6020 C   0  0  0  0  0  0  0  0  0  0  0  0
  183.0040  178.6760  143.9020 C   0  0  0  0  0  3  0  0  0  0  0  0
  182.2330  178.2030  142.9180 C   0  0  0  0  0  3  0  0  0  0  0  0
  181.9880  177.7780  140.5990 O   0  0  0  0  0  0  0  0  0  0  0  0
  185.0570  179.6670  144.5380 O   0  0  0  0  0  0  0  0  0  0  0  0
  184.8270  179.2410  142.2030 C   0  0  0  0  0  0  0  0  0  0  0  0
  1  8  1  0  0  0  0
  2  9  1  0  0  0  0
  4  5  1  0  0  0  0
  6 17  2  0  0  0  0
  6 22  1  0  0  0  0
  7 11  2  0  0  0  0
  9 17  1  0  0  0  0
 10  4  1  0  0  0  0
 11 23  1  0  0  0  0
 11 12  1  0  0  0  0
 12 10  1  1  0  0  0
 12 21  1  0  0  0  0
 13 24  1  0  0  0  0
 13 21  1  0  0  0  0
 14  1  1  0  0  0  0
 15 18  1  1  0  0  0
 15 14  1  0  0  0  0
 15 19  1  0  0  0  0
 16  1  1  0  0  0  0
 17  7  1  0  0  0  0
 18  6  1  0  0  0  0
 19  2  1  1  0  0  0
 19  8  1  0  0  0  0
 20  5  1  0  0  0  0
 21 20  1  1  0  0  0
 22  3  2  0  0  0  0
 23  3  1  1  0  0  0
 23 13  1  0  0  0  0
 24 32  1  0  0  0  0
 25 26  1  0  0  0  0
 25 32  2  0  0  0  0
 26 29  1  0  0  0  0
 27 28  1  0  0  0  0
 27 31  2  0  0  0  0
 29 28  2  0  0  0  0
 30 26  2  0  0  0  0
 32 27  1  0  0  0  0
M  END
>  <MODEL>
6

>  <REMARK>
 VINA RESULT:      -5.9      4.211      7.098
  Name = 
  2 active torsions:
  status: ('A' for Active; 'I' for Inactive)
    1  A    between atoms: N_16  and  C_27
    2  A    between atoms: C_27  and  C_32
                            x       y       z     vdW  Elec       q    Type
                         _______ _______ _______ _____ _____    ______ ____

>  <TORSDO>
F 2

$$$$
=
 OpenBabel10272413253D

 32 37  0  0  1  0  0  0  0  0999 V2000
  191.4420  175.5610  143.5580 N   0  0  0  0  0  0  0  0  0  0  0  0
  188.0650  176.9510  143.0180 C   0  0  0  0  0  2  0  0  0  0  0  0
  192.4490  177.3330  139.8480 C   0  0  0  0  0  3  0  0  0  0  0  0
  188.8800  173.9850  136.5430 C   0  0  0  0  0  2  0  0  0  0  0  0
  190.2620  173.6020  136.0030 C   0  0  0  0  0  2  0  0  0  0  0  0
  190.7120  178.0310  141.6620 C   0  0  0  0  0  0  0  0  0  0  0  0
  189.3800  177.0160  139.8220 N   0  0  0  0  0  0  0  0  0  0  0  0
  190.0130  175.3490  143.3370 C   0  0  0  0  0  2  0  0  0  0  0  0
  188.2790  177.9250  141.8530 C   0  0  0  0  0  2  0  0  0  0  0  0
  188.9750  174.7660  137.8470 C   0  0  0  0  0  2  0  0  0  0  0  0
  190.2430  176.6300  138.9350 C   0  0  0  0  0  0  0  0  0  0  0  0
  189.8560  176.0060  137.6360 C   0  0  1  0  0  3  0  0  0  0  0  0
  192.1430  176.2800  137.6960 N   0  0  0  0  0  0  0  0  0  0  0  0
  191.6070  176.7440  144.3120 N   0  0  0  0  0  2  0  0  0  0  0  0
  190.4110  177.5560  144.1280 C   0  0  1  0  0  3  0  0  0  0  0  0
  191.9120  174.4640  144.3850 C   0  0  0  0  0  1  0  0  0  0  0  0
  189.5430  177.6650  141.0900 C   0  0  0  0  0  0  0  0  0  0  0  0
  190.6690  178.6160  143.0460 C   0  0  0  0  0  2  0  0  0  0  0  0
  189.2950  176.5600  143.8630 C   0  0  1  0  0  3  0  0  0  0  0  0
  191.3980  174.3060  136.7470 C   0  0  0  0  0  2  0  0  0  0  0  0
  191.1220  175.7410  136.8880 N   0  0  1  0  0  0  0  0  0  0  0  0
  192.0140  177.8690  141.0930 N   0  0  0  0  0  2  0  0  0  0  0  0
  191.6620  176.8030  138.9230 C   0  0  0  0  0  0  0  0  0  0  0  0
  193.4820  176.5380  137.1720 C   0  0  0  0  0  2  0  0  0  0  0  0
  194.4230  174.4480  138.0210 C   0  0  0  0  0  3  0  0  0  0  0  0
  195.1700  173.1880  137.8580 C   0  0  0  0  0  0  0  0  0  0  0  0
  194.7490  174.8810  135.6420 C   0  0  0  0  0  0  0  0  0  0  0  0
  195.4990  173.6220  135.4830 C   0  0  0  0  0  3  0  0  0  0  0  0
  195.6980  172.8190  136.5320 C   0  0  0  0  0  3  0  0  0  0  0  0
  195.3570  172.4320  138.8460 O   0  0  0  0  0  0  0  0  0  0  0  0
  194.5690  175.6300  134.6450 O   0  0  0  0  0  0  0  0  0  0  0  0
  194.2140  175.2520  136.9730 C   0  0  0  0  0  0  0  0  0  0  0  0
  1 14  1  0  0  0  0
  1 16  1  0  0  0  0
  3 22  1  0  0  0  0
  4 10  1  0  0  0  0
  5  4  1  0  0  0  0
  5 20  1  0  0  0  0
  6 18  1  0  0  0  0
  7 17  1  0  0  0  0
  8  1  1  0  0  0  0
  8 19  1  0  0  0  0
  9  2  1  0  0  0  0
 11  7  2  0  0  0  0
 12 10  1  1  0  0  0
 12 11  1  0  0  0  0
 13 23  1  0  0  0  0
 15 18  1  6  0  0  0
 15 14  1  0  0  0  0
 17  6  2  0  0  0  0
 17  9  1  0  0  0  0
 19  2  1  6  0  0  0
 19 15  1  0  0  0  0
 21 20  1  1  0  0  0
 21 12  1  0  0  0  0
 21 13  1  0  0  0  0
 22  6  1  0  0  0  0
 23 11  1  0  0  0  0
 23  3  2  0  0  0  0
 24 13  1  0  0  0  0
 26 25  1  0  0  0  0
 26 30  2  0  0  0  0
 27 32  1  0  0  0  0
 28 27  1  0  0  0  0
 28 29  2  0  0  0  0
 29 26  1  0  0  0  0
 31 27  2  0  0  0  0
 32 24  1  0  0  0  0
 32 25  2  0  0  0  0
M  END
>  <MODEL>
7

>  <REMARK>
 VINA RESULT:      -5.7      2.905      7.245
  Name = 
  2 active torsions:
  status: ('A' for Active; 'I' for Inactive)
    1  A    between atoms: N_16  and  C_27
    2  A    between atoms: C_27  and  C_32
                            x       y       z     vdW  Elec       q    Type
                         _______ _______ _______ _____ _____    ______ ____

>  <TORSDO>
F 2

$$$$
=
 OpenBabel10272413253D

 32 37  0  0  1  0  0  0  0  0999 V2000
  189.7750  173.2730  135.6250 N   0  0  0  0  0  0  0  0  0  0  0  0
  193.1630  174.2220  136.7380 C   0  0  0  0  0  2  0  0  0  0  0  0
  188.7750  177.3540  136.1480 C   0  0  0  0  0  3  0  0  0  0  0  0
  189.5320  177.4590  142.0030 C   0  0  0  0  0  2  0  0  0  0  0  0
  188.0380  177.7770  141.8720 C   0  0  0  0  0  2  0  0  0  0  0  0
  191.0310  176.2120  135.5130 C   0  0  0  0  0  0  0  0  0  0  0  0
  191.2670  176.8670  137.9010 N   0  0  0  0  0  0  0  0  0  0  0  0
  190.8540  173.1690  136.6050 C   0  0  0  0  0  2  0  0  0  0  0  0
  193.1240  175.7540  136.6860 C   0  0  0  0  0  2  0  0  0  0  0  0
  190.1220  176.9490  140.6950 C   0  0  0  0  0  2  0  0  0  0  0  0
  190.1330  177.3990  138.2340 C   0  0  0  0  0  0  0  0  0  0  0  0
  189.8640  177.9750  139.5840 C   0  0  1  0  0  3  0  0  0  0  0  0
  188.0340  178.3300  138.2290 N   0  0  0  0  0  0  0  0  0  0  0  0
  190.3470  173.4460  134.3460 N   0  0  0  0  0  2  0  0  0  0  0  0
  191.6910  173.9760  134.5310 C   0  0  1  0  0  3  0  0  0  0  0  0
  189.0880  171.9940  135.6110 C   0  0  0  0  0  1  0  0  0  0  0  0
  191.7310  176.3080  136.6650 C   0  0  0  0  0  0  0  0  0  0  0  0
  191.6720  175.5030  134.3530 C   0  0  0  0  0  2  0  0  0  0  0  0
  192.1410  173.4470  135.8820 C   0  0  1  0  0  3  0  0  0  0  0  0
  187.5600  177.7550  140.4190 C   0  0  0  0  0  2  0  0  0  0  0  0
  188.4720  178.5150  139.5560 N   0  0  1  0  0  0  0  0  0  0  0  0
  189.6970  176.6810  135.2960 N   0  0  0  0  0  0  0  0  0  0  0  0
  188.9860  177.6580  137.4200 C   0  0  2  0  0  3  0  0  0  0  0  0
  186.8670  179.0310  137.6990 C   0  0  0  0  0  2  0  0  0  0  0  0
  185.3740  177.1260  137.3490 C   0  0  0  0  0  3  0  0  0  0  0  0
  184.1380  176.3680  137.6110 C   0  0  0  0  0  0  0  0  0  0  0  0
  184.6420  178.7730  138.9940 C   0  0  0  0  0  0  0  0  0  0  0  0
  183.4050  178.0140  139.2500 C   0  0  0  0  0  3  0  0  0  0  0  0
  183.1660  176.8740  138.5960 C   0  0  0  0  0  3  0  0  0  0  0  0
  183.9140  175.2940  136.9950 O   0  0  0  0  0  0  0  0  0  0  0  0
  184.8550  179.8480  139.6170 O   0  0  0  0  0  0  0  0  0  0  0  0
  185.6230  178.2640  138.0070 C   0  0  0  0  0  0  0  0  0  0  0  0
  1  8  1  0  0  0  0
  5  4  1  0  0  0  0
  6 17  2  0  0  0  0
  7 11  2  0  0  0  0
  9  2  1  0  0  0  0
 10  4  1  0  0  0  0
 11 12  1  0  0  0  0
 12 10  1  1  0  0  0
 13 21  1  0  0  0  0
 14 15  1  0  0  0  0
 14  1  1  0  0  0  0
 15 18  1  1  0  0  0
 15 19  1  0  0  0  0
 16  1  1  0  0  0  0
 17  9  1  0  0  0  0
 17  7  1  0  0  0  0
 18  6  1  0  0  0  0
 19  8  1  1  0  0  0
 19  2  1  0  0  0  0
 20  5  1  0  0  0  0
 21 12  1  0  0  0  0
 21 20  1  1  0  0  0
 22  6  1  0  0  0  0
 22  3  2  0  0  0  0
 23  3  1  1  0  0  0
 23 13  1  0  0  0  0
 23 11  1  0  0  0  0
 24 32  1  0  0  0  0
 24 13  1  0  0  0  0
 25 26  1  0  0  0  0
 25 32  2  0  0  0  0
 26 29  1  0  0  0  0
 27 28  1  0  0  0  0
 27 31  2  0  0  0  0
 29 28  2  0  0  0  0
 30 26  2  0  0  0  0
 32 27  1  0  0  0  0
M  END
>  <MODEL>
8

>  <REMARK>
 VINA RESULT:      -5.6      2.813      5.208
  Name = 
  2 active torsions:
  status: ('A' for Active; 'I' for Inactive)
    1  A    between atoms: N_16  and  C_27
    2  A    between atoms: C_27  and  C_32
                            x       y       z     vdW  Elec       q    Type
                         _______ _______ _______ _____ _____    ______ ____

>  <TORSDO>
F 2

$$$$
=
 OpenBabel10272413253D

 32 37  0  0  1  0  0  0  0  0999 V2000
  195.1470  171.4900  137.2810 N   0  0  0  0  0  0  0  0  0  0  0  0
  197.3130  174.3940  136.5760 C   0  0  0  0  0  2  0  0  0  0  0  0
  191.9180  173.9980  136.1840 C   0  0  0  0  0  3  0  0  0  0  0  0
  192.5070  177.8050  140.6580 C   0  0  0  0  0  2  0  0  0  0  0  0
  191.1170  177.2170  140.9250 C   0  0  0  0  0  2  0  0  0  0  0  0
  194.4050  173.9700  135.4030 C   0  0  0  0  0  0  0  0  0  0  0  0
  194.2220  175.8910  136.9720 N   0  0  0  0  0  0  0  0  0  0  0  0
  196.0840  172.5060  137.7550 C   0  0  0  0  0  2  0  0  0  0  0  0
  196.3680  175.3550  135.8440 C   0  0  0  0  0  2  0  0  0  0  0  0
  193.2760  177.0010  139.6180 C   0  0  0  0  0  2  0  0  0  0  0  0
  192.9970  175.8850  137.3950 C   0  0  0  0  0  0  0  0  0  0  0  0
  192.4490  176.9120  138.3280 C   0  0  1  0  0  3  0  0  0  0  0  0
  190.7570  175.4810  137.6940 N   0  0  0  0  0  0  0  0  0  0  0  0
  195.4940  171.1430  135.9570 N   0  0  0  0  0  2  0  0  0  0  0  0
  196.2600  172.2490  135.3970 C   0  0  1  0  0  3  0  0  0  0  0  0
  195.3570  170.3060  138.0960 C   0  0  0  0  0  1  0  0  0  0  0  0
  194.9190  175.0350  136.0570 C   0  0  0  0  0  0  0  0  0  0  0  0
  195.3340  173.1440  134.5580 C   0  0  0  0  0  2  0  0  0  0  0  0
  196.9470  172.8960  136.5880 C   0  0  1  0  0  3  0  0  0  0  0  0
  190.7350  176.1340  139.9140 C   0  0  0  0  0  2  0  0  0  0  0  0
  191.0080  176.5800  138.5420 N   0  0  1  0  0  0  0  0  0  0  0  0
  193.0530  173.5090  135.4750 N   0  0  0  0  0  0  0  0  0  0  0  0
  191.9160  175.0330  137.0100 C   0  0  2  0  0  3  0  0  0  0  0  0
  189.3990  175.0740  137.3460 C   0  0  0  0  0  2  0  0  0  0  0  0
  187.8540  176.9420  137.6700 C   0  0  0  0  0  3  0  0  0  0  0  0
  187.0580  178.0810  137.1800 C   0  0  0  0  0  0  0  0  0  0  0  0
  188.6720  176.6110  135.3950 C   0  0  0  0  0  0  0  0  0  0  0  0
  187.8710  177.7480  134.9080 C   0  0  0  0  0  3  0  0  0  0  0  0
  187.1070  178.4460  135.7530 C   0  0  0  0  0  3  0  0  0  0  0  0
  186.3390  178.7380  137.9770 O   0  0  0  0  0  0  0  0  0  0  0  0
  189.3870  175.9600  134.5870 O   0  0  0  0  0  0  0  0  0  0  0  0
  188.6270  176.2440  136.8300 C   0  0  0  0  0  0  0  0  0  0  0  0
  1  8  1  0  0  0  0
  1 16  1  0  0  0  0
  4  5  1  0  0  0  0
  6 22  1  0  0  0  0
  6 17  2  0  0  0  0
  7 11  2  0  0  0  0
  9 17  1  0  0  0  0
  9  2  1  0  0  0  0
 10  4  1  0  0  0  0
 11 12  1  0  0  0  0
 12 21  1  0  0  0  0
 12 10  1  1  0  0  0
 13 21  1  0  0  0  0
 14  1  1  0  0  0  0
 15 18  1  1  0  0  0
 15 14  1  0  0  0  0
 15 19  1  0  0  0  0
 17  7  1  0  0  0  0
 18  6  1  0  0  0  0
 19  2  1  6  0  0  0
 19  8  1  0  0  0  0
 20  5  1  0  0  0  0
 21 20  1  1  0  0  0
 22  3  2  0  0  0  0
 23  3  1  1  0  0  0
 23 11  1  0  0  0  0
 23 13  1  0  0  0  0
 24 13  1  0  0  0  0
 26 25  1  0  0  0  0
 26 30  2  0  0  0  0
 27 32  1  0  0  0  0
 28 27  1  0  0  0  0
 28 29  2  0  0  0  0
 29 26  1  0  0  0  0
 31 27  2  0  0  0  0
 32 24  1  0  0  0  0
 32 25  2  0  0  0  0
M  END
>  <MODEL>
9

>  <REMARK>
 VINA RESULT:      -5.6      2.330      4.934
  Name = 
  2 active torsions:
  status: ('A' for Active; 'I' for Inactive)
    1  A    between atoms: N_16  and  C_27
    2  A    between atoms: C_27  and  C_32
                            x       y       z     vdW  Elec       q    Type
                         _______ _______ _______ _____ _____    ______ ____

>  <TORSDO>
F 2

$$$$
