=
 OpenBabel10272402043D

 32 36  0  0  1  0  0  0  0  0999 V2000
  187.3060  178.1500  145.7440 C   0  0  1  0  0  3  0  0  0  0  0  0
  189.4750  176.9560  145.2500 C   0  0  0  0  0  0  0  0  0  0  0  0
  186.3110  178.2500  146.9010 C   0  0  0  0  0  2  0  0  0  0  0  0
  188.6130  177.5340  146.1930 C   0  0  0  0  0  0  0  0  0  0  0  0
  190.7220  176.4410  145.6530 C   0  0  0  0  0  0  0  0  0  0  0  0
  190.8340  177.1940  140.8170 C   0  0  0  0  0  2  0  0  0  0  0  0
  189.0520  176.9620  143.8070 C   0  0  2  0  0  3  0  0  0  0  0  0
  191.8860  177.5610  143.0830 C   0  0  0  0  0  2  0  0  0  0  0  0
  191.3730  176.1930  143.2670 N   0  0  1  0  0  0  0  0  0  0  0  0
  188.9990  177.6110  147.5420 C   0  0  0  0  0  0  0  0  0  0  0  0
  191.6180  175.7580  144.6460 C   0  0  0  0  0  2  0  0  0  0  0  0
  190.2250  177.0830  147.9470 C   0  0  0  0  0  3  0  0  0  0  0  0
  188.1470  178.1990  148.4850 O   0  0  0  0  0  0  0  0  0  0  0  0
  187.5910  176.5230  143.7240 C   0  0  0  0  0  2  0  0  0  0  0  0
  186.6540  177.4190  144.5550 C   0  0  2  0  0  3  0  0  0  0  0  0
  189.9400  176.0660  142.9300 C   0  0  2  0  0  3  0  0  0  0  0  0
  191.0850  176.4900  147.0150 C   0  0  0  0  0  0  0  0  0  0  0  0
  186.9820  178.9270  148.0930 C   0  0  0  0  0  2  0  0  0  0  0  0
  191.3550  178.2290  141.8070 C   0  0  0  0  0  2  0  0  0  0  0  0
  189.7030  176.3710  141.4420 C   0  0  0  0  0  2  0  0  0  0  0  0
  192.3950  175.9590  147.4950 C   0  0  0  0  0  2  0  0  0  0  0  0
  192.8080  176.6690  148.6220 O   0  0  0  0  0  1  0  0  0  0  0  0
  185.9430  178.4200  143.6550 C   0  0  0  0  0  2  0  0  0  0  0  0
  185.8490  177.8810  142.2370 C   0  0  0  0  0  2  0  0  0  0  0  0
  186.6830  178.7440  141.3040 C   0  0  0  0  0  2  0  0  0  0  0  0
  184.8890  179.5310  139.9610 O   0  0  0  0  0  0  0  0  0  0  0  0
  186.5480  178.4170  138.7720 N   0  0  0  0  0  2  0  0  0  0  0  0
  185.9910  178.9240  139.9940 C   0  0  0  0  0  0  0  0  0  0  0  0
  187.8510  177.7670  138.6230 C   0  0  1  0  0  3  0  0  0  0  0  0
  187.7570  176.5820  137.6820 C   0  0  0  0  0  1  0  0  0  0  0  0
  188.9220  178.7410  138.1540 C   0  0  0  0  0  2  0  0  0  0  0  0
  188.3990  179.5890  137.1760 O   0  0  0  0  0  1  0  0  0  0  0  0
  1  4  1  0  0  0  0
  1  3  1  1  0  0  0
  2  5  2  0  0  0  0
  2  4  1  0  0  0  0
  3 18  1  0  0  0  0
  4 10  2  0  0  0  0
  5 17  1  0  0  0  0
  6 20  1  0  0  0  0
  6 19  1  0  0  0  0
  7 14  1  1  0  0  0
  7  2  1  0  0  0  0
  9  8  1  1  0  0  0
  9 11  1  0  0  0  0
 10 12  1  0  0  0  0
 10 13  1  0  0  0  0
 11  5  1  0  0  0  0
 14 15  1  0  0  0  0
 15 23  1  6  0  0  0
 15  1  1  0  0  0  0
 16 20  1  6  0  0  0
 16  9  1  0  0  0  0
 16  7  1  0  0  0  0
 17 21  1  0  0  0  0
 17 12  2  0  0  0  0
 18 13  1  0  0  0  0
 19  8  1  0  0  0  0
 21 22  1  0  0  0  0
 24 23  1  0  0  0  0
 25 24  1  0  0  0  0
 26 28  2  0  0  0  0
 27 28  1  0  0  0  0
 28 25  1  0  0  0  0
 29 30  1  6  0  0  0
 29 27  1  0  0  0  0
 31 29  1  0  0  0  0
 32 31  1  0  0  0  0
M  END
>  <MODEL>
1

>  <REMARK>
 VINA RESULT:      -9.2      0.000      0.000
  Name = 
  7 active torsions:
  status: ('A' for Active; 'I' for Inactive)
    1  A    between atoms: CA_3  and  N_19
    2  A    between atoms: CA_3  and  C_22
    3  A    between atoms: C_13  and  C_29
    4  A    between atoms: C_15  and  C_20
    5  A    between atoms: C_15  and  C_26
    6  A    between atoms: C_16  and  C_20
    7  A    between atoms: C_16  and  C_27
                            x       y       z     vdW  Elec       q    Type
                         _______ _______ _______ _____ _____    ______ ____

>  <TORSDO>
F 7

$$$$
=
 OpenBabel10272402043D

 32 36  0  0  1  0  0  0  0  0999 V2000
  185.7930  178.7290  143.3580 C   0  0  1  0  0  3  0  0  0  0  0  0
  187.6110  177.8180  144.8560 C   0  0  0  0  0  0  0  0  0  0  0  0
  184.2660  178.7830  143.3440 C   0  0  0  0  0  2  0  0  0  0  0  0
  186.3180  178.3450  144.7250 C   0  0  0  0  0  0  0  0  0  0  0  0
  188.1290  177.5220  146.1320 C   0  0  0  0  0  0  0  0  0  0  0  0
  191.8560  177.8760  142.9780 C   0  0  0  0  0  2  0  0  0  0  0  0
  188.4340  177.6440  143.6090 C   0  0  2  0  0  3  0  0  0  0  0  0
  190.8050  178.5780  145.1650 C   0  0  0  0  0  2  0  0  0  0  0  0
  190.3730  177.1700  145.1220 N   0  0  1  0  0  0  0  0  0  0  0  0
  185.5410  178.5890  145.8700 C   0  0  0  0  0  0  0  0  0  0  0  0
  189.4960  176.8920  146.2640 C   0  0  0  0  0  2  0  0  0  0  0  0
  186.0430  178.2760  147.1330 C   0  0  0  0  0  3  0  0  0  0  0  0
  184.2540  179.1260  145.7440 O   0  0  0  0  0  0  0  0  0  0  0  0
  187.5620  176.9960  142.5350 C   0  0  0  0  0  2  0  0  0  0  0  0
  186.2960  177.8150  142.2240 C   0  0  2  0  0  3  0  0  0  0  0  0
  189.7030  176.8130  143.8540 C   0  0  2  0  0  3  0  0  0  0  0  0
  187.3270  177.7360  147.2720 C   0  0  0  0  0  0  0  0  0  0  0  0
  183.7740  179.6450  144.5030 C   0  0  0  0  0  2  0  0  0  0  0  0
  191.4110  179.0540  143.8370 C   0  0  0  0  0  2  0  0  0  0  0  0
  190.6720  176.9560  142.6690 C   0  0  0  0  0  2  0  0  0  0  0  0
  187.8270  177.4390  148.6470 C   0  0  0  0  0  2  0  0  0  0  0  0
  188.7840  178.3850  149.0160 O   0  0  0  0  0  1  0  0  0  0  0  0
  186.4900  178.6250  140.9500 C   0  0  0  0  0  2  0  0  0  0  0  0
  187.8360  178.3070  140.3210 C   0  0  0  0  0  2  0  0  0  0  0  0
  187.6530  178.0070  138.8430 C   0  0  0  0  0  2  0  0  0  0  0  0
  188.8850  179.6900  137.7060 O   0  0  0  0  0  0  0  0  0  0  0  0
  189.8990  177.5970  137.6900 N   0  0  0  0  0  2  0  0  0  0  0  0
  188.8310  178.4830  138.0590 C   0  0  0  0  0  0  0  0  0  0  0  0
  190.0310  176.1950  138.0880 C   0  0  1  0  0  3  0  0  0  0  0  0
  189.4300  175.2790  137.0400 C   0  0  0  0  0  1  0  0  0  0  0  0
  191.4790  175.8170  138.3640 C   0  0  0  0  0  2  0  0  0  0  0  0
  192.1050  176.8290  139.0930 O   0  0  0  0  0  1  0  0  0  0  0  0
  1  3  1  1  0  0  0
  1  4  1  0  0  0  0
  2  5  1  0  0  0  0
  3 18  1  0  0  0  0
  4  2  2  0  0  0  0
  4 10  1  0  0  0  0
  5 11  1  0  0  0  0
  5 17  2  0  0  0  0
  6 19  1  0  0  0  0
  7 14  1  6  0  0  0
  7 16  1  0  0  0  0
  7  2  1  0  0  0  0
  9  8  1  6  0  0  0
  9 11  1  0  0  0  0
 10 12  2  0  0  0  0
 12 17  1  0  0  0  0
 13 10  1  0  0  0  0
 15 23  1  6  0  0  0
 15 14  1  0  0  0  0
 15  1  1  0  0  0  0
 16 20  1  6  0  0  0
 16  9  1  0  0  0  0
 17 21  1  0  0  0  0
 18 13  1  0  0  0  0
 19  8  1  0  0  0  0
 20  6  1  0  0  0  0
 21 22  1  0  0  0  0
 24 23  1  0  0  0  0
 25 24  1  0  0  0  0
 26 28  2  0  0  0  0
 27 28  1  0  0  0  0
 27 29  1  0  0  0  0
 28 25  1  0  0  0  0
 29 30  1  6  0  0  0
 29 31  1  0  0  0  0
 31 32  1  0  0  0  0
M  END
>  <MODEL>
2

>  <REMARK>
 VINA RESULT:      -8.9      1.948      3.324
  Name = 
  7 active torsions:
  status: ('A' for Active; 'I' for Inactive)
    1  A    between atoms: CA_3  and  N_19
    2  A    between atoms: CA_3  and  C_22
    3  A    between atoms: C_13  and  C_29
    4  A    between atoms: C_15  and  C_20
    5  A    between atoms: C_15  and  C_26
    6  A    between atoms: C_16  and  C_20
    7  A    between atoms: C_16  and  C_27
                            x       y       z     vdW  Elec       q    Type
                         _______ _______ _______ _____ _____    ______ ____

>  <TORSDO>
F 7

$$$$
=
 OpenBabel10272402043D

 32 36  0  0  1  0  0  0  0  0999 V2000
  187.0060  178.1800  145.2370 C   0  0  1  0  0  3  0  0  0  0  0  0
  189.2660  177.0670  145.0680 C   0  0  0  0  0  0  0  0  0  0  0  0
  185.8640  178.2680  146.2510 C   0  0  0  0  0  2  0  0  0  0  0  0
  188.2660  177.6330  145.8720 C   0  0  0  0  0  0  0  0  0  0  0  0
  190.4680  176.6170  145.6460 C   0  0  0  0  0  0  0  0  0  0  0  0
  191.1850  177.2490  140.8450 C   0  0  0  0  0  2  0  0  0  0  0  0
  189.0370  177.0190  143.5820 C   0  0  2  0  0  3  0  0  0  0  0  0
  191.9160  177.7200  143.2160 C   0  0  0  0  0  2  0  0  0  0  0  0
  191.4370  176.3350  143.3740 N   0  0  1  0  0  0  0  0  0  0  0  0
  188.4670  177.7610  147.2560 C   0  0  0  0  0  0  0  0  0  0  0  0
  191.5150  175.9470  144.7860 C   0  0  0  0  0  2  0  0  0  0  0  0
  189.6490  177.2960  147.8340 C   0  0  0  0  0  3  0  0  0  0  0  0
  187.4760  178.3360  148.0610 O   0  0  0  0  0  0  0  0  0  0  0  0
  187.6170  176.5150  143.3230 C   0  0  0  0  0  2  0  0  0  0  0  0
  186.5450  177.3910  143.9960 C   0  0  2  0  0  3  0  0  0  0  0  0
  190.0670  176.1390  142.8570 C   0  0  2  0  0  3  0  0  0  0  0  0
  190.6460  176.7170  147.0420 C   0  0  0  0  0  0  0  0  0  0  0  0
  186.3460  179.0030  147.4990 C   0  0  0  0  0  2  0  0  0  0  0  0
  191.5310  178.3300  141.8610 C   0  0  0  0  0  2  0  0  0  0  0  0
  190.0160  176.3950  141.3420 C   0  0  0  0  0  2  0  0  0  0  0  0
  191.9020  176.2550  147.7050 C   0  0  0  0  0  2  0  0  0  0  0  0
  192.3680  177.2410  148.5740 O   0  0  0  0  0  1  0  0  0  0  0  0
  185.9200  178.3370  142.9810 C   0  0  0  0  0  2  0  0  0  0  0  0
  184.4080  178.3520  143.1340 C   0  0  0  0  0  2  0  0  0  0  0  0
  183.7530  178.1050  141.7850 C   0  0  0  0  0  2  0  0  0  0  0  0
  181.7700  178.8920  142.8300 O   0  0  0  0  0  0  0  0  0  0  0  0
  181.7440  179.0390  140.5090 N   0  0  0  0  0  2  0  0  0  0  0  0
  182.3830  178.6960  141.7480 C   0  0  0  0  0  0  0  0  0  0  0  0
  182.3450  178.9550  139.1770 C   0  0  1  0  0  3  0  0  0  0  0  0
  181.3270  178.4820  138.1570 C   0  0  0  0  0  1  0  0  0  0  0  0
  182.9610  180.2770  138.7470 C   0  0  0  0  0  2  0  0  0  0  0  0
  184.3180  180.2990  139.0760 O   0  0  0  0  0  1  0  0  0  0  0  0
  1  4  1  0  0  0  0
  1  3  1  1  0  0  0
  2  5  2  0  0  0  0
  2  4  1  0  0  0  0
  3 18  1  0  0  0  0
  4 10  2  0  0  0  0
  5 17  1  0  0  0  0
  6 20  1  0  0  0  0
  6 19  1  0  0  0  0
  7 14  1  1  0  0  0
  7  2  1  0  0  0  0
  9  8  1  1  0  0  0
  9 11  1  0  0  0  0
 10 12  1  0  0  0  0
 10 13  1  0  0  0  0
 11  5  1  0  0  0  0
 14 15  1  0  0  0  0
 15 23  1  6  0  0  0
 15  1  1  0  0  0  0
 16 20  1  6  0  0  0
 16  9  1  0  0  0  0
 16  7  1  0  0  0  0
 17 21  1  0  0  0  0
 17 12  2  0  0  0  0
 18 13  1  0  0  0  0
 19  8  1  0  0  0  0
 21 22  1  0  0  0  0
 23 24  1  0  0  0  0
 25 24  1  0  0  0  0
 27 28  1  0  0  0  0
 28 25  1  0  0  0  0
 28 26  2  0  0  0  0
 29 30  1  6  0  0  0
 29 27  1  0  0  0  0
 31 32  1  0  0  0  0
 31 29  1  0  0  0  0
M  END
>  <MODEL>
3

>  <REMARK>
 VINA RESULT:      -8.9      1.975      2.596
  Name = 
  7 active torsions:
  status: ('A' for Active; 'I' for Inactive)
    1  A    between atoms: CA_3  and  N_19
    2  A    between atoms: CA_3  and  C_22
    3  A    between atoms: C_13  and  C_29
    4  A    between atoms: C_15  and  C_20
    5  A    between atoms: C_15  and  C_26
    6  A    between atoms: C_16  and  C_20
    7  A    between atoms: C_16  and  C_27
                            x       y       z     vdW  Elec       q    Type
                         _______ _______ _______ _____ _____    ______ ____

>  <TORSDO>
F 7

$$$$
=
 OpenBabel10272402043D

 32 36  0  0  1  0  0  0  0  0999 V2000
  185.5430  178.7540  143.4630 C   0  0  1  0  0  3  0  0  0  0  0  0
  187.4510  177.8290  144.8360 C   0  0  0  0  0  0  0  0  0  0  0  0
  184.0160  178.7720  143.5230 C   0  0  0  0  0  2  0  0  0  0  0  0
  186.1420  178.3300  144.7870 C   0  0  0  0  0  0  0  0  0  0  0  0
  188.0350  177.4950  146.0720 C   0  0  0  0  0  0  0  0  0  0  0  0
  191.5980  178.0630  142.7630 C   0  0  0  0  0  2  0  0  0  0  0  0
  188.2170  177.7240  143.5450 C   0  0  2  0  0  3  0  0  0  0  0  0
  190.6390  178.6530  145.0230 C   0  0  0  0  0  2  0  0  0  0  0  0
  190.2360  177.2380  144.9440 N   0  0  1  0  0  0  0  0  0  0  0  0
  185.4150  178.5090  145.9760 C   0  0  0  0  0  0  0  0  0  0  0  0
  189.4210  176.8930  146.1140 C   0  0  0  0  0  2  0  0  0  0  0  0
  185.9850  178.1590  147.2000 C   0  0  0  0  0  3  0  0  0  0  0  0
  184.1120  179.0200  145.9330 O   0  0  0  0  0  0  0  0  0  0  0  0
  187.3080  177.0980  142.4880 C   0  0  0  0  0  2  0  0  0  0  0  0
  186.0110  177.8980  142.2700 C   0  0  2  0  0  3  0  0  0  0  0  0
  189.5140  176.9150  143.6960 C   0  0  2  0  0  3  0  0  0  0  0  0
  187.2850  177.6450  147.2570 C   0  0  0  0  0  0  0  0  0  0  0  0
  183.5620  179.5760  144.7380 C   0  0  0  0  0  2  0  0  0  0  0  0
  191.1690  179.1950  143.6890 C   0  0  0  0  0  2  0  0  0  0  0  0
  190.4210  177.1280  142.4730 C   0  0  0  0  0  2  0  0  0  0  0  0
  187.8580  177.3060  148.5930 C   0  0  0  0  0  2  0  0  0  0  0  0
  188.6090  178.3790  149.0710 O   0  0  0  0  0  1  0  0  0  0  0  0
  186.1250  178.7630  141.0230 C   0  0  0  0  0  2  0  0  0  0  0  0
  184.9580  178.4960  140.0870 C   0  0  0  0  0  2  0  0  0  0  0  0
  185.3520  178.8460  138.6620 C   0  0  0  0  0  2  0  0  0  0  0  0
  184.7630  176.9640  137.3370 O   0  0  0  0  0  0  0  0  0  0  0  0
  187.0410  177.1470  137.7670 N   0  0  0  0  0  2  0  0  0  0  0  0
  185.6890  177.6140  137.8890 C   0  0  0  0  0  0  0  0  0  0  0  0
  188.2360  177.8260  138.2720 C   0  0  1  0  0  3  0  0  0  0  0  0
  189.1680  176.8390  138.9490 C   0  0  0  0  0  1  0  0  0  0  0  0
  188.9640  178.5860  137.1740 C   0  0  0  0  0  2  0  0  0  0  0  0
  188.9430  179.9550  137.4480 O   0  0  0  0  0  1  0  0  0  0  0  0
  1  3  1  1  0  0  0
  1  4  1  0  0  0  0
  2  5  1  0  0  0  0
  3 18  1  0  0  0  0
  4  2  2  0  0  0  0
  4 10  1  0  0  0  0
  5 11  1  0  0  0  0
  5 17  2  0  0  0  0
  6 19  1  0  0  0  0
  7 14  1  6  0  0  0
  7 16  1  0  0  0  0
  7  2  1  0  0  0  0
  9  8  1  6  0  0  0
  9 11  1  0  0  0  0
 10 12  2  0  0  0  0
 12 17  1  0  0  0  0
 13 10  1  0  0  0  0
 15 23  1  6  0  0  0
 15 14  1  0  0  0  0
 15  1  1  0  0  0  0
 16 20  1  6  0  0  0
 16  9  1  0  0  0  0
 17 21  1  0  0  0  0
 18 13  1  0  0  0  0
 19  8  1  0  0  0  0
 20  6  1  0  0  0  0
 21 22  1  0  0  0  0
 24 23  1  0  0  0  0
 25 24  1  0  0  0  0
 26 28  2  0  0  0  0
 27 28  1  0  0  0  0
 27 29  1  0  0  0  0
 28 25  1  0  0  0  0
 29 30  1  6  0  0  0
 31 32  1  0  0  0  0
 31 29  1  0  0  0  0
M  END
>  <MODEL>
4

>  <REMARK>
 VINA RESULT:      -8.7      1.722      2.973
  Name = 
  7 active torsions:
  status: ('A' for Active; 'I' for Inactive)
    1  A    between atoms: CA_3  and  N_19
    2  A    between atoms: CA_3  and  C_22
    3  A    between atoms: C_13  and  C_29
    4  A    between atoms: C_15  and  C_20
    5  A    between atoms: C_15  and  C_26
    6  A    between atoms: C_16  and  C_20
    7  A    between atoms: C_16  and  C_27
                            x       y       z     vdW  Elec       q    Type
                         _______ _______ _______ _____ _____    ______ ____

>  <TORSDO>
F 7

$$$$
=
 OpenBabel10272402043D

 32 36  0  0  1  0  0  0  0  0999 V2000
  185.9150  178.6400  143.3690 C   0  0  1  0  0  3  0  0  0  0  0  0
  187.7100  177.7890  144.9280 C   0  0  0  0  0  0  0  0  0  0  0  0
  184.3880  178.7060  143.3360 C   0  0  0  0  0  2  0  0  0  0  0  0
  186.4230  178.3190  144.7580 C   0  0  0  0  0  0  0  0  0  0  0  0
  188.2130  177.5510  146.2220 C   0  0  0  0  0  0  0  0  0  0  0  0
  191.9740  177.7200  143.0930 C   0  0  0  0  0  2  0  0  0  0  0  0
  188.5440  177.5470  143.6990 C   0  0  2  0  0  3  0  0  0  0  0  0
  190.9080  178.5360  145.2320 C   0  0  0  0  0  2  0  0  0  0  0  0
  190.4630  177.1320  145.2530 N   0  0  1  0  0  0  0  0  0  0  0  0
  185.6370  178.6250  145.8810 C   0  0  0  0  0  0  0  0  0  0  0  0
  189.5730  176.9170  146.3980 C   0  0  0  0  0  2  0  0  0  0  0  0
  186.1240  178.3710  147.1630 C   0  0  0  0  0  3  0  0  0  0  0  0
  184.3560  179.1660  145.7170 O   0  0  0  0  0  0  0  0  0  0  0  0
  187.6760  176.8540  142.6490 C   0  0  0  0  0  2  0  0  0  0  0  0
  186.4210  177.6680  142.2850 C   0  0  2  0  0  3  0  0  0  0  0  0
  189.8030  176.7190  143.9980 C   0  0  2  0  0  3  0  0  0  0  0  0
  187.4010  177.8270  147.3420 C   0  0  0  0  0  0  0  0  0  0  0  0
  183.8930  179.6280  144.4470 C   0  0  0  0  0  2  0  0  0  0  0  0
  191.5310  178.9420  143.8880 C   0  0  0  0  0  2  0  0  0  0  0  0
  190.7850  176.7950  142.8160 C   0  0  0  0  0  2  0  0  0  0  0  0
  187.8860  177.5940  148.7350 C   0  0  0  0  0  2  0  0  0  0  0  0
  188.9890  178.4080  148.9940 O   0  0  0  0  0  1  0  0  0  0  0  0
  186.6340  178.4130  140.9760 C   0  0  0  0  0  2  0  0  0  0  0  0
  188.1090  178.4260  140.6100 C   0  0  0  0  0  2  0  0  0  0  0  0
  188.3190  177.6860  139.3000 C   0  0  0  0  0  2  0  0  0  0  0  0
  188.9850  179.5000  137.9160 O   0  0  0  0  0  0  0  0  0  0  0  0
  186.9870  178.4970  137.2730 N   0  0  0  0  0  2  0  0  0  0  0  0
  188.1280  178.6050  138.1380 C   0  0  0  0  0  0  0  0  0  0  0  0
  185.9490  177.4680  137.3400 C   0  0  1  0  0  3  0  0  0  0  0  0
  184.6660  178.0350  137.9170 C   0  0  0  0  0  1  0  0  0  0  0  0
  185.6920  176.8320  135.9820 C   0  0  0  0  0  2  0  0  0  0  0  0
  186.7660  177.0830  135.1270 O   0  0  0  0  0  1  0  0  0  0  0  0
  1  3  1  1  0  0  0
  1  4  1  0  0  0  0
  2  5  1  0  0  0  0
  3 18  1  0  0  0  0
  4  2  2  0  0  0  0
  4 10  1  0  0  0  0
  5 11  1  0  0  0  0
  5 17  2  0  0  0  0
  6 19  1  0  0  0  0
  7 14  1  6  0  0  0
  7 16  1  0  0  0  0
  7  2  1  0  0  0  0
  9  8  1  6  0  0  0
  9 11  1  0  0  0  0
 10 12  2  0  0  0  0
 12 17  1  0  0  0  0
 13 10  1  0  0  0  0
 15 23  1  6  0  0  0
 15 14  1  0  0  0  0
 15  1  1  0  0  0  0
 16 20  1  6  0  0  0
 16  9  1  0  0  0  0
 17 21  1  0  0  0  0
 18 13  1  0  0  0  0
 19  8  1  0  0  0  0
 20  6  1  0  0  0  0
 21 22  1  0  0  0  0
 24 23  1  0  0  0  0
 25 24  1  0  0  0  0
 26 28  2  0  0  0  0
 27 29  1  0  0  0  0
 27 28  1  0  0  0  0
 28 25  1  0  0  0  0
 29 30  1  6  0  0  0
 31 29  1  0  0  0  0
 32 31  1  0  0  0  0
M  END
>  <MODEL>
5

>  <REMARK>
 VINA RESULT:      -8.6      1.763      3.213
  Name = 
  7 active torsions:
  status: ('A' for Active; 'I' for Inactive)
    1  A    between atoms: CA_3  and  N_19
    2  A    between atoms: CA_3  and  C_22
    3  A    between atoms: C_13  and  C_29
    4  A    between atoms: C_15  and  C_20
    5  A    between atoms: C_15  and  C_26
    6  A    between atoms: C_16  and  C_20
    7  A    between atoms: C_16  and  C_27
                            x       y       z     vdW  Elec       q    Type
                         _______ _______ _______ _____ _____    ______ ____

>  <TORSDO>
F 7

$$$$
=
 OpenBabel10272402043D

 32 36  0  0  1  0  0  0  0  0999 V2000
  185.7430  178.0630  143.6610 C   0  0  1  0  0  3  0  0  0  0  0  0
  183.7620  178.5540  142.1730 C   0  0  0  0  0  0  0  0  0  0  0  0
  186.2670  178.5110  145.0260 C   0  0  0  0  0  2  0  0  0  0  0  0
  184.2970  178.4660  143.4670 C   0  0  0  0  0  0  0  0  0  0  0  0
  182.4010  178.8640  141.9900 C   0  0  0  0  0  0  0  0  0  0  0  0
  184.1010  176.8090  137.8850 C   0  0  0  0  0  2  0  0  0  0  0  0
  184.6670  178.2470  141.0110 C   0  0  2  0  0  3  0  0  0  0  0  0
  182.3660  176.8490  139.7200 C   0  0  0  0  0  2  0  0  0  0  0  0
  182.6130  178.2950  139.5800 N   0  0  1  0  0  0  0  0  0  0  0  0
  183.4710  178.6770  144.5840 C   0  0  0  0  0  0  0  0  0  0  0  0
  181.8450  179.0240  140.5940 C   0  0  0  0  0  2  0  0  0  0  0  0
  182.1270  179.0060  144.4030 C   0  0  0  0  0  3  0  0  0  0  0  0
  183.9980  178.5790  145.8770 O   0  0  0  0  0  0  0  0  0  0  0  0
  185.9990  178.9650  141.2270 C   0  0  0  0  0  2  0  0  0  0  0  0
  186.6810  178.5670  142.5480 C   0  0  2  0  0  3  0  0  0  0  0  0
  184.0460  178.6440  139.6630 C   0  0  2  0  0  3  0  0  0  0  0  0
  181.5880  179.1100  143.1160 C   0  0  0  0  0  0  0  0  0  0  0  0
  185.3040  178.0540  146.1180 C   0  0  0  0  0  2  0  0  0  0  0  0
  183.3920  175.9950  138.9610 C   0  0  0  0  0  2  0  0  0  0  0  0
  184.8300  178.0040  138.5050 C   0  0  0  0  0  2  0  0  0  0  0  0
  180.1390  179.4420  142.9770 C   0  0  0  0  0  2  0  0  0  0  0  0
  179.9880  180.8100  142.7490 O   0  0  0  0  0  1  0  0  0  0  0  0
  187.7790  177.5460  142.2900 C   0  0  0  0  0  2  0  0  0  0  0  0
  189.1310  178.1100  142.6950 C   0  0  0  0  0  2  0  0  0  0  0  0
  189.7740  177.2070  143.7330 C   0  0  0  0  0  2  0  0  0  0  0  0
  191.6570  178.6410  143.5320 O   0  0  0  0  0  0  0  0  0  0  0  0
  191.5680  177.4660  145.5370 N   0  0  0  0  0  2  0  0  0  0  0  0
  191.0380  177.8120  144.2480 C   0  0  0  0  0  0  0  0  0  0  0  0
  190.9340  176.5900  146.5230 C   0  0  1  0  0  3  0  0  0  0  0  0
  191.9790  175.8540  147.3400 C   0  0  0  0  0  1  0  0  0  0  0  0
  189.9820  177.3530  147.4320 C   0  0  0  0  0  2  0  0  0  0  0  0
  188.6650  176.9690  147.1720 O   0  0  0  0  0  1  0  0  0  0  0  0
  1  3  1  1  0  0  0
  2  4  1  0  0  0  0
  3 18  1  0  0  0  0
  4  1  1  0  0  0  0
  4 10  2  0  0  0  0
  5  2  2  0  0  0  0
  5 17  1  0  0  0  0
  6 20  1  0  0  0  0
  6 19  1  0  0  0  0
  7 14  1  1  0  0  0
  7  2  1  0  0  0  0
  9 16  1  0  0  0  0
  9  8  1  1  0  0  0
  9 11  1  0  0  0  0
 10 13  1  0  0  0  0
 11  5  1  0  0  0  0
 12 10  1  0  0  0  0
 13 18  1  0  0  0  0
 14 15  1  0  0  0  0
 15 23  1  6  0  0  0
 15  1  1  0  0  0  0
 16 20  1  6  0  0  0
 16  7  1  0  0  0  0
 17 12  2  0  0  0  0
 19  8  1  0  0  0  0
 21 17  1  0  0  0  0
 22 21  1  0  0  0  0
 23 24  1  0  0  0  0
 24 25  1  0  0  0  0
 25 28  1  0  0  0  0
 26 28  2  0  0  0  0
 27 29  1  0  0  0  0
 28 27  1  0  0  0  0
 29 30  1  1  0  0  0
 29 31  1  0  0  0  0
 32 31  1  0  0  0  0
M  END
>  <MODEL>
6

>  <REMARK>
 VINA RESULT:      -8.4      3.077      7.932
  Name = 
  7 active torsions:
  status: ('A' for Active; 'I' for Inactive)
    1  A    between atoms: CA_3  and  N_19
    2  A    between atoms: CA_3  and  C_22
    3  A    between atoms: C_13  and  C_29
    4  A    between atoms: C_15  and  C_20
    5  A    between atoms: C_15  and  C_26
    6  A    between atoms: C_16  and  C_20
    7  A    between atoms: C_16  and  C_27
                            x       y       z     vdW  Elec       q    Type
                         _______ _______ _______ _____ _____    ______ ____

>  <TORSDO>
F 7

$$$$
=
 OpenBabel10272402043D

 32 36  0  0  1  0  0  0  0  0999 V2000
  187.2210  178.2590  145.5500 C   0  0  1  0  0  3  0  0  0  0  0  0
  189.4080  177.0510  145.1870 C   0  0  0  0  0  0  0  0  0  0  0  0
  186.1500  178.3520  146.6370 C   0  0  0  0  0  2  0  0  0  0  0  0
  188.4890  177.6240  146.0770 C   0  0  0  0  0  0  0  0  0  0  0  0
  190.6200  176.5170  145.6670 C   0  0  0  0  0  0  0  0  0  0  0  0
  191.0700  177.3420  140.8620 C   0  0  0  0  0  2  0  0  0  0  0  0
  189.0850  177.0840  143.7180 C   0  0  2  0  0  3  0  0  0  0  0  0
  191.9680  177.6650  143.2000 C   0  0  0  0  0  2  0  0  0  0  0  0
  191.4310  176.2990  143.3270 N   0  0  1  0  0  0  0  0  0  0  0  0
  188.7820  177.6770  147.4510 C   0  0  0  0  0  0  0  0  0  0  0  0
  191.5770  175.8410  144.7120 C   0  0  0  0  0  2  0  0  0  0  0  0
  189.9720  177.1300  147.9300 C   0  0  0  0  0  3  0  0  0  0  0  0
  187.8720  178.2590  148.3420 O   0  0  0  0  0  0  0  0  0  0  0  0
  187.6290  176.6600  143.5290 C   0  0  0  0  0  2  0  0  0  0  0  0
  186.6450  177.5530  144.3070 C   0  0  2  0  0  3  0  0  0  0  0  0
  190.0240  176.1910  142.8910 C   0  0  2  0  0  3  0  0  0  0  0  0
  190.8880  176.5420  147.0510 C   0  0  0  0  0  0  0  0  0  0  0  0
  186.7440  179.0040  147.8830 C   0  0  0  0  0  2  0  0  0  0  0  0
  191.5310  178.3570  141.9010 C   0  0  0  0  0  2  0  0  0  0  0  0
  189.8920  176.5220  141.3940 C   0  0  0  0  0  2  0  0  0  0  0  0
  192.1580  175.9910  147.6110 C   0  0  0  0  0  2  0  0  0  0  0  0
  192.6570  176.8540  148.5870 O   0  0  0  0  0  1  0  0  0  0  0  0
  186.0070  178.5740  143.3770 C   0  0  0  0  0  2  0  0  0  0  0  0
  184.7410  178.0050  142.7570 C   0  0  0  0  0  2  0  0  0  0  0  0
  184.0710  179.0630  141.8970 C   0  0  0  0  0  2  0  0  0  0  0  0
  185.6030  179.0390  140.0820 O   0  0  0  0  0  0  0  0  0  0  0  0
  183.4210  178.4950  139.4900 N   0  0  0  0  0  2  0  0  0  0  0  0
  184.4140  178.8670  140.4570 C   0  0  0  0  0  0  0  0  0  0  0  0
  182.0210  178.1760  139.7710 C   0  0  1  0  0  3  0  0  0  0  0  0
  181.0980  178.9410  138.8420 C   0  0  0  0  0  1  0  0  0  0  0  0
  181.7500  176.6810  139.6850 C   0  0  0  0  0  2  0  0  0  0  0  0
  182.9280  176.0010  139.3750 O   0  0  0  0  0  1  0  0  0  0  0  0
  1  4  1  0  0  0  0
  1  3  1  1  0  0  0
  2  5  2  0  0  0  0
  2  4  1  0  0  0  0
  3 18  1  0  0  0  0
  4 10  2  0  0  0  0
  5 17  1  0  0  0  0
  6 20  1  0  0  0  0
  6 19  1  0  0  0  0
  7 14  1  1  0  0  0
  7  2  1  0  0  0  0
  9  8  1  1  0  0  0
  9 11  1  0  0  0  0
 10 12  1  0  0  0  0
 10 13  1  0  0  0  0
 11  5  1  0  0  0  0
 14 15  1  0  0  0  0
 15 23  1  6  0  0  0
 15  1  1  0  0  0  0
 16 20  1  6  0  0  0
 16  9  1  0  0  0  0
 16  7  1  0  0  0  0
 17 21  1  0  0  0  0
 17 12  2  0  0  0  0
 18 13  1  0  0  0  0
 19  8  1  0  0  0  0
 21 22  1  0  0  0  0
 24 23  1  0  0  0  0
 25 24  1  0  0  0  0
 26 28  2  0  0  0  0
 27 29  1  0  0  0  0
 27 28  1  0  0  0  0
 28 25  1  0  0  0  0
 29 30  1  6  0  0  0
 31 29  1  0  0  0  0
 32 31  1  0  0  0  0
M  END
>  <MODEL>
7

>  <REMARK>
 VINA RESULT:      -8.2      1.791      2.599
  Name = 
  7 active torsions:
  status: ('A' for Active; 'I' for Inactive)
    1  A    between atoms: CA_3  and  N_19
    2  A    between atoms: CA_3  and  C_22
    3  A    between atoms: C_13  and  C_29
    4  A    between atoms: C_15  and  C_20
    5  A    between atoms: C_15  and  C_26
    6  A    between atoms: C_16  and  C_20
    7  A    between atoms: C_16  and  C_27
                            x       y       z     vdW  Elec       q    Type
                         _______ _______ _______ _____ _____    ______ ____

>  <TORSDO>
F 7

$$$$
=
 OpenBabel10272402043D

 32 36  0  0  1  0  0  0  0  0999 V2000
  185.6000  178.7780  143.5100 C   0  0  1  0  0  3  0  0  0  0  0  0
  187.4970  177.8580  144.9010 C   0  0  0  0  0  0  0  0  0  0  0  0
  184.0730  178.8150  143.5680 C   0  0  0  0  0  2  0  0  0  0  0  0
  186.1930  178.3730  144.8420 C   0  0  0  0  0  0  0  0  0  0  0  0
  188.0770  177.5410  146.1440 C   0  0  0  0  0  0  0  0  0  0  0  0
  191.6470  178.0020  142.8260 C   0  0  0  0  0  2  0  0  0  0  0  0
  188.2610  177.7190  143.6130 C   0  0  2  0  0  3  0  0  0  0  0  0
  190.6940  178.6470  145.0740 C   0  0  0  0  0  2  0  0  0  0  0  0
  190.2740  177.2360  145.0220 N   0  0  1  0  0  0  0  0  0  0  0  0
  185.4680  178.5840  146.0270 C   0  0  0  0  0  0  0  0  0  0  0  0
  189.4550  176.9240  146.1980 C   0  0  0  0  0  2  0  0  0  0  0  0
  186.0340  178.2510  147.2580 C   0  0  0  0  0  3  0  0  0  0  0  0
  184.1710  179.1090  145.9740 O   0  0  0  0  0  0  0  0  0  0  0  0
  187.3450  177.0830  142.5670 C   0  0  0  0  0  2  0  0  0  0  0  0
  186.0580  177.8940  142.3340 C   0  0  2  0  0  3  0  0  0  0  0  0
  189.5490  176.8970  143.7800 C   0  0  2  0  0  3  0  0  0  0  0  0
  187.3280  177.7230  147.3250 C   0  0  0  0  0  0  0  0  0  0  0  0
  183.6290  179.6490  144.7680 C   0  0  0  0  0  2  0  0  0  0  0  0
  191.2310  179.1570  143.7290 C   0  0  0  0  0  2  0  0  0  0  0  0
  190.4590  177.0750  142.5530 C   0  0  0  0  0  2  0  0  0  0  0  0
  187.8960  177.4030  148.6680 C   0  0  0  0  0  2  0  0  0  0  0  0
  188.8070  178.3910  149.0430 O   0  0  0  0  0  1  0  0  0  0  0  0
  186.1830  178.7320  141.0700 C   0  0  0  0  0  2  0  0  0  0  0  0
  184.8080  179.1450  140.5720 C   0  0  0  0  0  2  0  0  0  0  0  0
  184.4420  178.3340  139.3410 C   0  0  0  0  0  2  0  0  0  0  0  0
  182.5060  177.7380  140.5820 O   0  0  0  0  0  0  0  0  0  0  0  0
  182.9750  176.3080  138.8090 N   0  0  0  0  0  2  0  0  0  0  0  0
  183.2630  177.4610  139.6150 C   0  0  0  0  0  0  0  0  0  0  0  0
  183.7000  175.8950  137.6060 C   0  0  1  0  0  3  0  0  0  0  0  0
  184.1470  174.4500  137.7180 C   0  0  0  0  0  1  0  0  0  0  0  0
  182.8750  176.1060  136.3450 C   0  0  0  0  0  2  0  0  0  0  0  0
  181.5170  176.1330  136.6640 O   0  0  0  0  0  1  0  0  0  0  0  0
  1  3  1  1  0  0  0
  1  4  1  0  0  0  0
  2  5  1  0  0  0  0
  3 18  1  0  0  0  0
  4  2  2  0  0  0  0
  4 10  1  0  0  0  0
  5 11  1  0  0  0  0
  5 17  2  0  0  0  0
  6 19  1  0  0  0  0
  7 14  1  6  0  0  0
  7 16  1  0  0  0  0
  7  2  1  0  0  0  0
  9  8  1  6  0  0  0
  9 11  1  0  0  0  0
 10 12  2  0  0  0  0
 12 17  1  0  0  0  0
 13 10  1  0  0  0  0
 15 23  1  6  0  0  0
 15 14  1  0  0  0  0
 15  1  1  0  0  0  0
 16 20  1  6  0  0  0
 16  9  1  0  0  0  0
 17 21  1  0  0  0  0
 18 13  1  0  0  0  0
 19  8  1  0  0  0  0
 20  6  1  0  0  0  0
 21 22  1  0  0  0  0
 24 23  1  0  0  0  0
 25 28  1  0  0  0  0
 25 24  1  0  0  0  0
 27 28  1  0  0  0  0
 28 26  2  0  0  0  0
 29 30  1  1  0  0  0
 29 27  1  0  0  0  0
 31 32  1  0  0  0  0
 31 29  1  0  0  0  0
M  END
>  <MODEL>
8

>  <REMARK>
 VINA RESULT:      -7.7      2.491      3.673
  Name = 
  7 active torsions:
  status: ('A' for Active; 'I' for Inactive)
    1  A    between atoms: CA_3  and  N_19
    2  A    between atoms: CA_3  and  C_22
    3  A    between atoms: C_13  and  C_29
    4  A    between atoms: C_15  and  C_20
    5  A    between atoms: C_15  and  C_26
    6  A    between atoms: C_16  and  C_20
    7  A    between atoms: C_16  and  C_27
                            x       y       z     vdW  Elec       q    Type
                         _______ _______ _______ _____ _____    ______ ____

>  <TORSDO>
F 7

$$$$
=
 OpenBabel10272402043D

 32 36  0  0  1  0  0  0  0  0999 V2000
  188.6710  177.0040  142.0340 C   0  0  1  0  0  3  0  0  0  0  0  0
  186.5190  178.1420  142.7070 C   0  0  0  0  0  0  0  0  0  0  0  0
  190.0750  176.8160  142.6090 C   0  0  0  0  0  2  0  0  0  0  0  0
  187.7050  177.4990  143.0890 C   0  0  0  0  0  0  0  0  0  0  0  0
  185.5870  178.5460  143.6810 C   0  0  0  0  0  0  0  0  0  0  0  0
  183.3290  178.3620  139.3420 C   0  0  0  0  0  2  0  0  0  0  0  0
  186.2560  178.3260  141.2370 C   0  0  2  0  0  3  0  0  0  0  0  0
  183.3910  177.6800  141.7730 C   0  0  0  0  0  2  0  0  0  0  0  0
  183.9450  179.0410  141.8820 N   0  0  1  0  0  0  0  0  0  0  0  0
  187.9590  177.2450  144.4480 C   0  0  0  0  0  0  0  0  0  0  0  0
  184.3430  179.2980  143.2700 C   0  0  0  0  0  2  0  0  0  0  0  0
  187.0460  177.6630  145.4160 C   0  0  0  0  0  3  0  0  0  0  0  0
  189.1360  176.5930  144.8330 O   0  0  0  0  0  0  0  0  0  0  0  0
  187.5320  178.8410  140.5730 C   0  0  0  0  0  2  0  0  0  0  0  0
  188.7330  177.9000  140.7820 C   0  0  2  0  0  3  0  0  0  0  0  0
  185.0790  179.2750  140.9650 C   0  0  2  0  0  3  0  0  0  0  0  0
  185.8680  178.3190  145.0450 C   0  0  0  0  0  0  0  0  0  0  0  0
  189.9980  175.9730  143.8790 C   0  0  0  0  0  2  0  0  0  0  0  0
  183.2930  177.1940  140.3200 C   0  0  0  0  0  2  0  0  0  0  0  0
  184.6270  179.1580  139.5000 C   0  0  0  0  0  2  0  0  0  0  0  0
  184.9130  178.7270  146.1180 C   0  0  0  0  0  2  0  0  0  0  0  0
  185.5940  179.4180  147.1190 O   0  0  0  0  0  1  0  0  0  0  0  0
  188.9600  177.0480  139.5420 C   0  0  0  0  0  2  0  0  0  0  0  0
  190.1400  177.5780  138.7460 C   0  0  0  0  0  2  0  0  0  0  0  0
  189.7470  177.7320  137.2860 C   0  0  0  0  0  2  0  0  0  0  0  0
  188.9310  179.9590  137.4180 O   0  0  0  0  0  0  0  0  0  0  0  0
  187.3580  178.4130  136.6800 N   0  0  0  0  0  2  0  0  0  0  0  0
  188.6760  178.7600  137.1340 C   0  0  0  0  0  0  0  0  0  0  0  0
  186.9220  177.0900  136.2310 C   0  0  1  0  0  3  0  0  0  0  0  0
  185.5330  176.7760  136.7530 C   0  0  0  0  0  1  0  0  0  0  0  0
  186.9680  176.9600  134.7160 C   0  0  0  0  0  2  0  0  0  0  0  0
  187.8670  175.9570  134.3510 O   0  0  0  0  0  1  0  0  0  0  0  0
  1  3  1  1  0  0  0
  1  4  1  0  0  0  0
  2  4  2  0  0  0  0
  2  5  1  0  0  0  0
  3 18  1  0  0  0  0
  4 10  1  0  0  0  0
  5 17  2  0  0  0  0
  6 20  1  0  0  0  0
  6 19  1  0  0  0  0
  7 14  1  6  0  0  0
  7  2  1  0  0  0  0
  9  8  1  1  0  0  0
  9 11  1  0  0  0  0
 10 13  1  0  0  0  0
 10 12  2  0  0  0  0
 11  5  1  0  0  0  0
 14 15  1  0  0  0  0
 15 23  1  6  0  0  0
 15  1  1  0  0  0  0
 16 20  1  6  0  0  0
 16  7  1  0  0  0  0
 16  9  1  0  0  0  0
 17 12  1  0  0  0  0
 17 21  1  0  0  0  0
 18 13  1  0  0  0  0
 19  8  1  0  0  0  0
 21 22  1  0  0  0  0
 24 23  1  0  0  0  0
 25 24  1  0  0  0  0
 27 28  1  0  0  0  0
 28 25  1  0  0  0  0
 28 26  2  0  0  0  0
 29 27  1  0  0  0  0
 29 30  1  6  0  0  0
 31 29  1  0  0  0  0
 32 31  1  0  0  0  0
M  END
>  <MODEL>
9

>  <REMARK>
 VINA RESULT:      -7.7      2.733      5.582
  Name = 
  7 active torsions:
  status: ('A' for Active; 'I' for Inactive)
    1  A    between atoms: CA_3  and  N_19
    2  A    between atoms: CA_3  and  C_22
    3  A    between atoms: C_13  and  C_29
    4  A    between atoms: C_15  and  C_20
    5  A    between atoms: C_15  and  C_26
    6  A    between atoms: C_16  and  C_20
    7  A    between atoms: C_16  and  C_27
                            x       y       z     vdW  Elec       q    Type
                         _______ _______ _______ _____ _____    ______ ____

>  <TORSDO>
F 7

$$$$
