=
 OpenBabel10272415073D

 34 39  0  0  1  0  0  0  0  0999 V2000
  188.5650  177.7190  144.6500 C   0  0  0  0  0  0  0  0  0  0  0  0
  191.6030  176.8020  142.4340 C   0  0  0  0  0  2  0  0  0  0  0  0
  191.2440  176.8060  144.8800 C   0  0  0  0  0  3  0  0  0  0  0  0
  186.5890  178.3020  145.9800 C   0  0  0  0  0  0  0  0  0  0  0  0
  187.2320  178.1780  144.7160 C   0  0  0  0  0  3  0  0  0  0  0  0
  188.5920  177.5310  147.0630 C   0  0  0  0  0  0  0  0  0  0  0  0
  189.6260  177.1180  148.0260 C   0  0  0  0  0  3  0  0  0  0  0  0
  187.2770  177.9810  147.1780 C   0  0  0  0  0  3  0  0  0  0  0  0
  190.4330  176.9890  145.9950 C   0  0  0  0  0  0  0  0  0  0  0  0
  189.1700  177.4200  145.8500 C   0  0  0  0  0  0  0  0  0  0  0  0
  190.7210  176.7950  147.3820 N   0  0  0  0  0  0  0  0  0  0  0  0
  191.5030  177.8440  141.3270 C   0  0  0  0  0  2  0  0  0  0  0  0
  190.3780  177.5190  140.3390 C   0  0  2  0  0  3  0  0  0  0  0  0
  189.0920  177.0370  141.0110 C   0  0  0  0  0  2  0  0  0  0  0  0
  190.7040  177.0970  143.6010 C   0  0  0  0  0  0  0  0  0  0  0  0
  188.7110  177.9560  142.1590 C   0  0  0  0  0  2  0  0  0  0  0  0
  189.3340  177.5490  143.4720 C   0  0  0  0  0  0  0  0  0  0  0  0
  190.8320  176.5420  139.3020 C   0  0  0  0  0  0  0  0  0  0  0  0
  192.1450  176.5770  138.8560 O   0  0  0  0  0  1  0  0  0  0  0  0
  190.0360  175.6820  138.8380 O   0  0  0  0  0  0  0  0  0  0  0  0
  185.1900  178.8130  146.0480 C   0  0  0  0  0  2  0  0  0  0  0  0
  182.5750  178.6800  143.3070 C   0  0  0  0  0  3  0  0  0  0  0  0
  185.3630  178.8580  143.5490 C   0  0  0  0  0  3  0  0  0  0  0  0
  183.5820  178.7580  139.7420 C   0  0  0  0  0  0  0  0  0  0  0  0
  182.7840  178.7040  140.8930 C   0  0  0  0  0  3  0  0  0  0  0  0
  183.3710  178.7370  142.1610 C   0  0  0  0  0  0  0  0  0  0  0  0
  185.5710  178.8790  141.1360 C   0  0  0  0  0  3  0  0  0  0  0  0
  184.7760  178.8260  142.2830 C   0  0  0  0  0  0  0  0  0  0  0  0
  184.9760  178.8460  139.8710 C   0  0  0  0  0  3  0  0  0  0  0  0
  184.5610  178.8060  144.6950 C   0  0  0  0  0  0  0  0  0  0  0  0
  183.1690  178.7130  144.5720 C   0  0  0  0  0  3  0  0  0  0  0  0
  182.9570  178.7230  138.4100 C   0  0  0  0  0  0  0  0  0  0  0  0
  183.2580  177.8180  137.5870 O   0  0  0  0  0  0  0  0  0  0  0  0
  182.0270  179.6900  138.0470 O   0  0  0  0  0  1  0  0  0  0  0  0
  1  5  1  0  0  0  0
  1 10  1  0  0  0  0
  2 15  1  0  0  0  0
  3  9  1  0  0  0  0
  4 21  1  0  0  0  0
  4  8  1  0  0  0  0
  5  4  2  0  0  0  0
  6  8  2  0  0  0  0
  6  7  1  0  0  0  0
  9 11  1  0  0  0  0
 10  9  2  0  0  0  0
 10  6  1  0  0  0  0
 11  7  2  0  0  0  0
 12  2  1  0  0  0  0
 13 18  1  6  0  0  0
 13 14  1  0  0  0  0
 13 12  1  0  0  0  0
 14 16  1  0  0  0  0
 15  3  2  0  0  0  0
 16 17  1  0  0  0  0
 17 15  1  0  0  0  0
 17  1  2  0  0  0  0
 19 18  1  0  0  0  0
 20 18  2  0  0  0  0
 22 31  1  0  0  0  0
 23 30  1  0  0  0  0
 24 29  1  0  0  0  0
 24 25  2  0  0  0  0
 25 26  1  0  0  0  0
 26 28  1  0  0  0  0
 26 22  2  0  0  0  0
 27 28  1  0  0  0  0
 28 23  2  0  0  0  0
 29 27  2  0  0  0  0
 30 21  1  0  0  0  0
 31 30  2  0  0  0  0
 32 24  1  0  0  0  0
 33 32  2  0  0  0  0
 34 32  1  0  0  0  0
M  END
>  <MODEL>
1

>  <REMARK>
 VINA RESULT:     -11.6      0.000      0.000
  Name = 
  4 active torsions:
  status: ('A' for Active; 'I' for Inactive)
    1  A    between atoms: C_3  and  C_25
    2  A    between atoms: C_7  and  C_11
    3  A    between atoms: C_8  and  C_18
    4  A    between atoms: C_18  and  C_30
                            x       y       z     vdW  Elec       q    Type
                         _______ _______ _______ _____ _____    ______ ____

>  <TORSDO>
F 4

$$$$
=
 OpenBabel10272415073D

 34 39  0  0  1  0  0  0  0  0999 V2000
  184.5510  178.6070  141.5790 C   0  0  0  0  0  0  0  0  0  0  0  0
  185.7630  178.3070  137.9160 C   0  0  0  0  0  2  0  0  0  0  0  0
  183.5290  178.6230  138.9290 C   0  0  0  0  0  3  0  0  0  0  0  0
  183.8690  178.8050  143.9260 C   0  0  0  0  0  0  0  0  0  0  0  0
  184.8860  178.6100  142.9500 C   0  0  0  0  0  3  0  0  0  0  0  0
  182.2330  178.9760  142.1730 C   0  0  0  0  0  0  0  0  0  0  0  0
  181.0030  179.1120  141.3770 C   0  0  0  0  0  3  0  0  0  0  0  0
  182.5160  178.9860  143.5380 C   0  0  0  0  0  3  0  0  0  0  0  0
  182.7050  178.8050  140.0350 C   0  0  0  0  0  0  0  0  0  0  0  0
  183.2220  178.7940  141.2740 C   0  0  0  0  0  0  0  0  0  0  0  0
  181.2910  179.0100  140.1020 N   0  0  0  0  0  0  0  0  0  0  0  0
  186.8670  177.2660  138.0400 C   0  0  0  0  0  2  0  0  0  0  0  0
  188.1360  177.8520  138.6660 C   0  0  2  0  0  3  0  0  0  0  0  0
  187.8630  178.7780  139.8520 C   0  0  0  0  0  2  0  0  0  0  0  0
  184.9160  178.4160  139.1520 C   0  0  0  0  0  0  0  0  0  0  0  0
  186.8920  178.1290  140.8250 C   0  0  0  0  0  2  0  0  0  0  0  0
  185.4480  178.4210  140.4990 C   0  0  0  0  0  0  0  0  0  0  0  0
  188.9780  178.5410  137.6400 C   0  0  0  0  0  0  0  0  0  0  0  0
  189.7480  177.7860  136.7660 O   0  0  0  0  0  0  0  0  0  0  0  0
  188.9870  179.7980  137.5550 O   0  0  0  0  0  1  0  0  0  0  0  0
  184.2230  178.7800  145.3750 C   0  0  0  0  0  2  0  0  0  0  0  0
  187.5840  177.1560  144.7160 C   0  0  0  0  0  3  0  0  0  0  0  0
  186.2770  178.5270  146.7850 C   0  0  0  0  0  3  0  0  0  0  0  0
  190.2040  177.1290  147.3370 C   0  0  0  0  0  0  0  0  0  0  0  0
  189.5460  176.9130  146.1190 C   0  0  0  0  0  3  0  0  0  0  0  0
  188.2410  177.3750  145.9300 C   0  0  0  0  0  0  0  0  0  0  0  0
  188.2380  178.2810  148.1870 C   0  0  0  0  0  3  0  0  0  0  0  0
  187.5820  178.0650  146.9730 C   0  0  0  0  0  0  0  0  0  0  0  0
  189.5430  177.8150  148.3670 C   0  0  0  0  0  3  0  0  0  0  0  0
  185.6260  178.3110  145.5650 C   0  0  0  0  0  0  0  0  0  0  0  0
  186.2780  177.6210  144.5350 C   0  0  0  0  0  3  0  0  0  0  0  0
  191.5790  176.6390  147.5280 C   0  0  0  0  0  0  0  0  0  0  0  0
  192.0560  175.7620  146.7600 O   0  0  0  0  0  0  0  0  0  0  0  0
  192.3640  177.1390  148.5600 O   0  0  0  0  0  1  0  0  0  0  0  0
  1  5  1  0  0  0  0
  2 12  1  0  0  0  0
  2 15  1  0  0  0  0
  3 15  2  0  0  0  0
  3  9  1  0  0  0  0
  4 21  1  0  0  0  0
  5  4  2  0  0  0  0
  6  8  2  0  0  0  0
  7  6  1  0  0  0  0
  8  4  1  0  0  0  0
  9 11  1  0  0  0  0
  9 10  2  0  0  0  0
 10  1  1  0  0  0  0
 10  6  1  0  0  0  0
 11  7  2  0  0  0  0
 12 13  1  0  0  0  0
 13 18  1  6  0  0  0
 13 14  1  0  0  0  0
 14 16  1  0  0  0  0
 15 17  1  0  0  0  0
 17 16  1  0  0  0  0
 17  1  2  0  0  0  0
 19 18  2  0  0  0  0
 20 18  1  0  0  0  0
 21 30  1  0  0  0  0
 22 26  1  0  0  0  0
 23 28  1  0  0  0  0
 24 32  1  0  0  0  0
 24 29  1  0  0  0  0
 25 24  2  0  0  0  0
 26 25  1  0  0  0  0
 26 28  2  0  0  0  0
 27 29  2  0  0  0  0
 28 27  1  0  0  0  0
 30 23  2  0  0  0  0
 31 22  2  0  0  0  0
 31 30  1  0  0  0  0
 32 34  1  0  0  0  0
 33 32  2  0  0  0  0
M  END
>  <MODEL>
2

>  <REMARK>
 VINA RESULT:     -11.5      3.413      7.501
  Name = 
  4 active torsions:
  status: ('A' for Active; 'I' for Inactive)
    1  A    between atoms: C_3  and  C_25
    2  A    between atoms: C_7  and  C_11
    3  A    between atoms: C_8  and  C_18
    4  A    between atoms: C_18  and  C_30
                            x       y       z     vdW  Elec       q    Type
                         _______ _______ _______ _____ _____    ______ ____

>  <TORSDO>
F 4

$$$$
=
 OpenBabel10272415073D

 34 39  0  0  1  0  0  0  0  0999 V2000
  187.0490  178.0720  144.1880 C   0  0  0  0  0  0  0  0  0  0  0  0
  189.2780  177.0430  147.1800 C   0  0  0  0  0  2  0  0  0  0  0  0
  186.9210  177.7710  147.0090 C   0  0  0  0  0  3  0  0  0  0  0  0
  185.7000  178.6930  142.2360 C   0  0  0  0  0  0  0  0  0  0  0  0
  186.9430  178.2840  142.7960 C   0  0  0  0  0  3  0  0  0  0  0  0
  184.7180  178.6790  144.4310 C   0  0  0  0  0  0  0  0  0  0  0  0
  183.8260  178.7880  145.5960 C   0  0  0  0  0  3  0  0  0  0  0  0
  184.5660  178.9020  143.0630 C   0  0  0  0  0  3  0  0  0  0  0  0
  185.8130  178.1570  146.2610 C   0  0  0  0  0  0  0  0  0  0  0  0
  185.9080  178.2870  144.9280 C   0  0  0  0  0  0  0  0  0  0  0  0
  184.4850  178.4730  146.6840 N   0  0  0  0  0  0  0  0  0  0  0  0
  190.6220  177.6370  146.7820 C   0  0  0  0  0  2  0  0  0  0  0  0
  191.3040  176.8180  145.6810 C   0  0  2  0  0  3  0  0  0  0  0  0
  190.3500  176.3590  144.5780 C   0  0  0  0  0  2  0  0  0  0  0  0
  188.1420  177.5340  146.3270 C   0  0  0  0  0  0  0  0  0  0  0  0
  189.4910  177.5160  144.0980 C   0  0  0  0  0  2  0  0  0  0  0  0
  188.2140  177.6710  144.8870 C   0  0  0  0  0  0  0  0  0  0  0  0
  192.0500  175.6560  146.2540 C   0  0  0  0  0  0  0  0  0  0  0  0
  192.3980  175.6590  147.5970 O   0  0  0  0  0  1  0  0  0  0  0  0
  192.3570  174.6700  145.5310 O   0  0  0  0  0  0  0  0  0  0  0  0
  185.6000  178.9430  140.7700 C   0  0  0  0  0  2  0  0  0  0  0  0
  187.8190  177.4890  138.0630 C   0  0  0  0  0  3  0  0  0  0  0  0
  188.0170  178.2870  140.7440 C   0  0  0  0  0  3  0  0  0  0  0  0
  191.3760  176.7190  138.7610 C   0  0  0  0  0  0  0  0  0  0  0  0
  190.1550  176.8450  138.0830 C   0  0  0  0  0  3  0  0  0  0  0  0
  189.0360  177.3660  138.7380 C   0  0  0  0  0  0  0  0  0  0  0  0
  190.3520  177.6410  140.7640 C   0  0  0  0  0  3  0  0  0  0  0  0
  189.1350  177.7670  140.0890 C   0  0  0  0  0  0  0  0  0  0  0  0
  191.4670  177.1200  140.1020 C   0  0  0  0  0  3  0  0  0  0  0  0
  186.8010  178.4130  140.0620 C   0  0  0  0  0  0  0  0  0  0  0  0
  186.7030  178.0090  138.7240 C   0  0  0  0  0  3  0  0  0  0  0  0
  192.5510  176.1690  138.0640 C   0  0  0  0  0  0  0  0  0  0  0  0
  193.5260  176.9130  137.7730 O   0  0  0  0  0  1  0  0  0  0  0  0
  192.5960  174.8240  137.7210 O   0  0  0  0  0  0  0  0  0  0  0  0
  1 17  1  0  0  0  0
  1 10  1  0  0  0  0
  4  5  1  0  0  0  0
  4  8  2  0  0  0  0
  5  1  2  0  0  0  0
  6 10  2  0  0  0  0
  6  7  1  0  0  0  0
  7 11  2  0  0  0  0
  8  6  1  0  0  0  0
  9 11  1  0  0  0  0
  9  3  2  0  0  0  0
 10  9  1  0  0  0  0
 12  2  1  0  0  0  0
 13 18  1  1  0  0  0
 13 12  1  0  0  0  0
 14 13  1  0  0  0  0
 15  3  1  0  0  0  0
 15  2  1  0  0  0  0
 16 14  1  0  0  0  0
 16 17  1  0  0  0  0
 17 15  2  0  0  0  0
 18 19  1  0  0  0  0
 20 18  2  0  0  0  0
 21  4  1  0  0  0  0
 22 31  2  0  0  0  0
 22 26  1  0  0  0  0
 24 29  1  0  0  0  0
 25 26  1  0  0  0  0
 25 24  2  0  0  0  0
 26 28  2  0  0  0  0
 28 23  1  0  0  0  0
 28 27  1  0  0  0  0
 29 27  2  0  0  0  0
 30 23  2  0  0  0  0
 30 21  1  0  0  0  0
 31 30  1  0  0  0  0
 32 24  1  0  0  0  0
 33 32  1  0  0  0  0
 34 32  2  0  0  0  0
M  END
>  <MODEL>
3

>  <REMARK>
 VINA RESULT:     -11.5      3.173      6.192
  Name = 
  4 active torsions:
  status: ('A' for Active; 'I' for Inactive)
    1  A    between atoms: C_3  and  C_25
    2  A    between atoms: C_7  and  C_11
    3  A    between atoms: C_8  and  C_18
    4  A    between atoms: C_18  and  C_30
                            x       y       z     vdW  Elec       q    Type
                         _______ _______ _______ _____ _____    ______ ____

>  <TORSDO>
F 4

$$$$
=
 OpenBabel10272415073D

 34 39  0  0  1  0  0  0  0  0999 V2000
  184.3640  178.6490  141.5640 C   0  0  0  0  0  0  0  0  0  0  0  0
  185.8820  178.2960  138.0210 C   0  0  0  0  0  2  0  0  0  0  0  0
  183.5700  178.6200  138.8380 C   0  0  0  0  0  3  0  0  0  0  0  0
  183.4860  178.8820  143.8420 C   0  0  0  0  0  0  0  0  0  0  0  0
  184.5820  178.6750  142.9580 C   0  0  0  0  0  3  0  0  0  0  0  0
  182.0040  179.0200  141.9540 C   0  0  0  0  0  0  0  0  0  0  0  0
  180.8450  179.1400  141.0550 C   0  0  0  0  0  3  0  0  0  0  0  0
  182.1710  179.0530  143.3380 C   0  0  0  0  0  3  0  0  0  0  0  0
  182.6550  178.8170  139.8670 C   0  0  0  0  0  0  0  0  0  0  0  0
  183.0650  178.8270  141.1450 C   0  0  0  0  0  0  0  0  0  0  0  0
  181.2410  179.0190  139.8110 N   0  0  0  0  0  0  0  0  0  0  0  0
  186.9730  177.2590  138.2550 C   0  0  0  0  0  2  0  0  0  0  0  0
  188.1840  177.8600  138.9760 C   0  0  2  0  0  3  0  0  0  0  0  0
  187.8110  178.8030  140.1210 C   0  0  0  0  0  2  0  0  0  0  0  0
  184.9330  178.4210  139.1800 C   0  0  0  0  0  0  0  0  0  0  0  0
  186.7620  178.1670  141.0180 C   0  0  0  0  0  2  0  0  0  0  0  0
  185.3500  178.4490  140.5660 C   0  0  0  0  0  0  0  0  0  0  0  0
  189.1080  178.5350  138.0140 C   0  0  0  0  0  0  0  0  0  0  0  0
  190.1080  177.7990  137.3940 O   0  0  0  0  0  0  0  0  0  0  0  0
  188.9820  179.7620  137.7550 O   0  0  0  0  0  1  0  0  0  0  0  0
  183.7170  178.8810  145.3150 C   0  0  0  0  0  2  0  0  0  0  0  0
  186.9620  178.3680  147.2050 C   0  0  0  0  0  3  0  0  0  0  0  0
  185.9370  177.9480  144.6280 C   0  0  0  0  0  3  0  0  0  0  0  0
  189.9220  176.9300  145.5010 C   0  0  0  0  0  0  0  0  0  0  0  0
  189.1030  177.4790  146.4970 C   0  0  0  0  0  3  0  0  0  0  0  0
  187.7780  177.8190  146.2120 C   0  0  0  0  0  0  0  0  0  0  0  0
  188.0780  177.0610  143.9220 C   0  0  0  0  0  3  0  0  0  0  0  0
  187.2620  177.6070  144.9140 C   0  0  0  0  0  0  0  0  0  0  0  0
  189.4030  176.7230  144.2150 C   0  0  0  0  0  3  0  0  0  0  0  0
  185.1230  178.4930  145.6270 C   0  0  0  0  0  0  0  0  0  0  0  0
  185.6380  178.7070  146.9130 C   0  0  0  0  0  3  0  0  0  0  0  0
  191.3170  176.5740  145.8090 C   0  0  0  0  0  0  0  0  0  0  0  0
  192.0080  175.9250  144.9790 O   0  0  0  0  0  0  0  0  0  0  0  0
  191.8860  176.9520  147.0200 O   0  0  0  0  0  1  0  0  0  0  0  0
  1  5  1  0  0  0  0
  2 12  1  0  0  0  0
  2 15  1  0  0  0  0
  3 15  2  0  0  0  0
  3  9  1  0  0  0  0
  4 21  1  0  0  0  0
  5  4  2  0  0  0  0
  6  8  2  0  0  0  0
  7  6  1  0  0  0  0
  8  4  1  0  0  0  0
  9 10  2  0  0  0  0
 10  1  1  0  0  0  0
 10  6  1  0  0  0  0
 11  9  1  0  0  0  0
 11  7  2  0  0  0  0
 12 13  1  0  0  0  0
 13 18  1  6  0  0  0
 13 14  1  0  0  0  0
 14 16  1  0  0  0  0
 15 17  1  0  0  0  0
 17 16  1  0  0  0  0
 17  1  2  0  0  0  0
 19 18  2  0  0  0  0
 20 18  1  0  0  0  0
 21 30  1  0  0  0  0
 23 28  2  0  0  0  0
 23 30  1  0  0  0  0
 24 32  1  0  0  0  0
 24 25  2  0  0  0  0
 26 25  1  0  0  0  0
 26 22  2  0  0  0  0
 27 29  2  0  0  0  0
 27 28  1  0  0  0  0
 28 26  1  0  0  0  0
 29 24  1  0  0  0  0
 30 31  2  0  0  0  0
 31 22  1  0  0  0  0
 32 34  1  0  0  0  0
 33 32  2  0  0  0  0
M  END
>  <MODEL>
4

>  <REMARK>
 VINA RESULT:     -11.5      3.154      7.050
  Name = 
  4 active torsions:
  status: ('A' for Active; 'I' for Inactive)
    1  A    between atoms: C_3  and  C_25
    2  A    between atoms: C_7  and  C_11
    3  A    between atoms: C_8  and  C_18
    4  A    between atoms: C_18  and  C_30
                            x       y       z     vdW  Elec       q    Type
                         _______ _______ _______ _____ _____    ______ ____

>  <TORSDO>
F 4

$$$$
=
 OpenBabel10272415073D

 34 39  0  0  1  0  0  0  0  0999 V2000
  188.9060  177.5990  144.6540 C   0  0  0  0  0  0  0  0  0  0  0  0
  191.7960  176.7590  142.2190 C   0  0  0  0  0  2  0  0  0  0  0  0
  191.6070  176.7190  144.6840 C   0  0  0  0  0  3  0  0  0  0  0  0
  187.0200  178.1330  146.1260 C   0  0  0  0  0  0  0  0  0  0  0  0
  187.5750  178.0370  144.8190 C   0  0  0  0  0  3  0  0  0  0  0  0
  189.1020  177.3720  147.0560 C   0  0  0  0  0  0  0  0  0  0  0  0
  190.2050  176.9590  147.9380 C   0  0  0  0  0  3  0  0  0  0  0  0
  187.7920  177.8020  147.2680 C   0  0  0  0  0  3  0  0  0  0  0  0
  190.8710  176.8730  145.8550 C   0  0  0  0  0  0  0  0  0  0  0  0
  189.5960  177.2890  145.8040 C   0  0  0  0  0  0  0  0  0  0  0  0
  191.2570  176.6610  147.2160 N   0  0  0  0  0  0  0  0  0  0  0  0
  191.6070  177.8170  141.1390 C   0  0  0  0  0  2  0  0  0  0  0  0
  190.4210  177.4920  140.2260 C   0  0  2  0  0  3  0  0  0  0  0  0
  189.1900  176.9820  140.9760 C   0  0  0  0  0  2  0  0  0  0  0  0
  190.9760  177.0230  143.4500 C   0  0  0  0  0  0  0  0  0  0  0  0
  188.8780  177.8770  142.1630 C   0  0  0  0  0  2  0  0  0  0  0  0
  189.5950  177.4580  143.4230 C   0  0  0  0  0  0  0  0  0  0  0  0
  190.8150  176.5380  139.1440 C   0  0  0  0  0  0  0  0  0  0  0  0
  192.1190  176.5420  138.6680 O   0  0  0  0  0  1  0  0  0  0  0  0
  189.9780  175.7250  138.6680 O   0  0  0  0  0  0  0  0  0  0  0  0
  185.6220  178.6230  146.2980 C   0  0  0  0  0  2  0  0  0  0  0  0
  184.9210  178.4120  142.5790 C   0  0  0  0  0  3  0  0  0  0  0  0
  183.5050  178.7880  144.9700 C   0  0  0  0  0  3  0  0  0  0  0  0
  181.4660  178.7880  141.2930 C   0  0  0  0  0  0  0  0  0  0  0  0
  182.8550  178.5990  141.3260 C   0  0  0  0  0  3  0  0  0  0  0  0
  183.5370  178.5980  142.5460 C   0  0  0  0  0  0  0  0  0  0  0  0
  181.4400  178.9770  143.7170 C   0  0  0  0  0  3  0  0  0  0  0  0
  182.8230  178.7880  143.7510 C   0  0  0  0  0  0  0  0  0  0  0  0
  180.7650  178.9760  142.4930 C   0  0  0  0  0  3  0  0  0  0  0  0
  184.8910  178.5960  144.9980 C   0  0  0  0  0  0  0  0  0  0  0  0
  185.5980  178.4130  143.8020 C   0  0  0  0  0  3  0  0  0  0  0  0
  180.7540  178.7870  140.0040 C   0  0  0  0  0  0  0  0  0  0  0  0
  180.4260  179.8740  139.4560 O   0  0  0  0  0  1  0  0  0  0  0  0
  180.4370  177.5870  139.3790 O   0  0  0  0  0  0  0  0  0  0  0  0
  1  5  1  0  0  0  0
  1 10  1  0  0  0  0
  2 15  1  0  0  0  0
  3  9  1  0  0  0  0
  4 21  1  0  0  0  0
  4  8  1  0  0  0  0
  5  4  2  0  0  0  0
  6  8  2  0  0  0  0
  6  7  1  0  0  0  0
  9 11  1  0  0  0  0
 10  9  2  0  0  0  0
 10  6  1  0  0  0  0
 11  7  2  0  0  0  0
 12  2  1  0  0  0  0
 13 18  1  6  0  0  0
 13 14  1  0  0  0  0
 13 12  1  0  0  0  0
 14 16  1  0  0  0  0
 15  3  2  0  0  0  0
 16 17  1  0  0  0  0
 17 15  1  0  0  0  0
 17  1  2  0  0  0  0
 19 18  1  0  0  0  0
 20 18  2  0  0  0  0
 22 31  1  0  0  0  0
 23 30  1  0  0  0  0
 24 25  2  0  0  0  0
 24 29  1  0  0  0  0
 25 26  1  0  0  0  0
 26 22  2  0  0  0  0
 26 28  1  0  0  0  0
 27 28  1  0  0  0  0
 28 23  2  0  0  0  0
 29 27  2  0  0  0  0
 30 21  1  0  0  0  0
 31 30  2  0  0  0  0
 32 24  1  0  0  0  0
 33 32  1  0  0  0  0
 34 32  2  0  0  0  0
M  END
>  <MODEL>
5

>  <REMARK>
 VINA RESULT:     -11.3      1.093      1.840
  Name = 
  4 active torsions:
  status: ('A' for Active; 'I' for Inactive)
    1  A    between atoms: C_3  and  C_25
    2  A    between atoms: C_7  and  C_11
    3  A    between atoms: C_8  and  C_18
    4  A    between atoms: C_18  and  C_30
                            x       y       z     vdW  Elec       q    Type
                         _______ _______ _______ _____ _____    ______ ____

>  <TORSDO>
F 4

$$$$
=
 OpenBabel10272415073D

 34 39  0  0  1  0  0  0  0  0999 V2000
  187.4050  178.0350  141.0860 C   0  0  0  0  0  0  0  0  0  0  0  0
  190.0470  177.3700  138.3370 C   0  0  0  0  0  2  0  0  0  0  0  0
  187.6800  178.0810  138.2600 C   0  0  0  0  0  3  0  0  0  0  0  0
  185.7970  178.4530  142.8890 C   0  0  0  0  0  0  0  0  0  0  0  0
  187.0950  178.0530  142.4630 C   0  0  0  0  0  3  0  0  0  0  0  0
  185.1590  178.7930  140.5970 C   0  0  0  0  0  0  0  0  0  0  0  0
  184.4480  179.0810  139.3410 C   0  0  0  0  0  3  0  0  0  0  0  0
  184.8060  178.8250  141.9450 C   0  0  0  0  0  3  0  0  0  0  0  0
  186.4930  178.4440  138.8880 C   0  0  0  0  0  0  0  0  0  0  0  0
  186.3980  178.4130  140.2270 C   0  0  0  0  0  0  0  0  0  0  0  0
  185.2500  178.8730  138.3250 N   0  0  0  0  0  0  0  0  0  0  0  0
  190.7960  176.1750  138.9120 C   0  0  0  0  0  2  0  0  0  0  0  0
  191.7340  176.5850  140.0510 C   0  0  2  0  0  3  0  0  0  0  0  0
  191.1190  177.5990  141.0170 C   0  0  0  0  0  2  0  0  0  0  0  0
  188.7700  177.6710  139.0700 C   0  0  0  0  0  0  0  0  0  0  0  0
  189.7270  177.1600  141.4390 C   0  0  0  0  0  2  0  0  0  0  0  0
  188.6450  177.6590  140.5120 C   0  0  0  0  0  0  0  0  0  0  0  0
  193.0420  177.0820  139.5250 C   0  0  0  0  0  0  0  0  0  0  0  0
  193.3520  176.9090  138.1830 O   0  0  0  0  0  0  0  0  0  0  0  0
  193.8610  177.6650  140.2860 O   0  0  0  0  0  1  0  0  0  0  0  0
  185.4650  178.4440  144.3430 C   0  0  0  0  0  2  0  0  0  0  0  0
  187.6890  177.6720  147.3130 C   0  0  0  0  0  3  0  0  0  0  0  0
  187.8360  177.6550  144.5130 C   0  0  0  0  0  3  0  0  0  0  0  0
  191.1850  176.5540  146.8030 C   0  0  0  0  0  0  0  0  0  0  0  0
  189.9920  176.9290  147.4370 C   0  0  0  0  0  3  0  0  0  0  0  0
  188.8770  177.2960  146.6810 C   0  0  0  0  0  0  0  0  0  0  0  0
  190.1390  176.9140  144.6380 C   0  0  0  0  0  3  0  0  0  0  0  0
  188.9510  177.2880  145.2690 C   0  0  0  0  0  0  0  0  0  0  0  0
  191.2510  176.5480  145.4020 C   0  0  0  0  0  3  0  0  0  0  0  0
  186.6470  178.0260  145.1510 C   0  0  0  0  0  0  0  0  0  0  0  0
  186.5770  178.0390  146.5500 C   0  0  0  0  0  3  0  0  0  0  0  0
  192.3570  176.1690  147.6070 C   0  0  0  0  0  0  0  0  0  0  0  0
  192.7010  176.8580  148.6040 O   0  0  0  0  0  1  0  0  0  0  0  0
  193.0950  175.0400  147.2730 O   0  0  0  0  0  0  0  0  0  0  0  0
  1  5  1  0  0  0  0
  2 12  1  0  0  0  0
  2 15  1  0  0  0  0
  3  9  2  0  0  0  0
  3 15  1  0  0  0  0
  4 21  1  0  0  0  0
  5  4  2  0  0  0  0
  6  8  2  0  0  0  0
  7  6  1  0  0  0  0
  8  4  1  0  0  0  0
  9 10  1  0  0  0  0
 10  6  1  0  0  0  0
 10  1  2  0  0  0  0
 11  9  1  0  0  0  0
 11  7  2  0  0  0  0
 12 13  1  0  0  0  0
 13 18  1  6  0  0  0
 13 14  1  0  0  0  0
 14 16  1  0  0  0  0
 15 17  2  0  0  0  0
 17  1  1  0  0  0  0
 17 16  1  0  0  0  0
 18 20  1  0  0  0  0
 19 18  2  0  0  0  0
 21 30  1  0  0  0  0
 23 30  2  0  0  0  0
 23 28  1  0  0  0  0
 24 25  1  0  0  0  0
 24 32  1  0  0  0  0
 26 22  1  0  0  0  0
 26 25  2  0  0  0  0
 27 28  2  0  0  0  0
 27 29  1  0  0  0  0
 28 26  1  0  0  0  0
 29 24  2  0  0  0  0
 30 31  1  0  0  0  0
 31 22  2  0  0  0  0
 32 33  1  0  0  0  0
 34 32  2  0  0  0  0
M  END
>  <MODEL>
6

>  <REMARK>
 VINA RESULT:     -10.9      3.496      7.088
  Name = 
  4 active torsions:
  status: ('A' for Active; 'I' for Inactive)
    1  A    between atoms: C_3  and  C_25
    2  A    between atoms: C_7  and  C_11
    3  A    between atoms: C_8  and  C_18
    4  A    between atoms: C_18  and  C_30
                            x       y       z     vdW  Elec       q    Type
                         _______ _______ _______ _____ _____    ______ ____

>  <TORSDO>
F 4

$$$$
=
 OpenBabel10272415073D

 34 39  0  0  1  0  0  0  0  0999 V2000
  186.3220  178.2210  143.3470 C   0  0  0  0  0  0  0  0  0  0  0  0
  188.9520  177.4070  146.0670 C   0  0  0  0  0  2  0  0  0  0  0  0
  186.5720  178.0690  146.1720 C   0  0  0  0  0  3  0  0  0  0  0  0
  184.7110  178.7040  141.5620 C   0  0  0  0  0  0  0  0  0  0  0  0
  186.0280  178.3550  141.9740 C   0  0  0  0  0  3  0  0  0  0  0  0
  184.0250  178.7850  143.8650 C   0  0  0  0  0  0  0  0  0  0  0  0
  183.2890  178.9350  145.1310 C   0  0  0  0  0  3  0  0  0  0  0  0
  183.6890  178.9300  142.5190 C   0  0  0  0  0  3  0  0  0  0  0  0
  185.3650  178.3880  145.5580 C   0  0  0  0  0  0  0  0  0  0  0  0
  185.2810  178.4490  144.2200 C   0  0  0  0  0  0  0  0  0  0  0  0
  184.0940  178.6950  146.1370 N   0  0  0  0  0  0  0  0  0  0  0  0
  190.2150  178.0110  145.4660 C   0  0  0  0  0  2  0  0  0  0  0  0
  190.7720  177.1510  144.3280 C   0  0  2  0  0  3  0  0  0  0  0  0
  189.6960  176.6100  143.3850 C   0  0  0  0  0  2  0  0  0  0  0  0
  187.7010  177.8250  145.3480 C   0  0  0  0  0  0  0  0  0  0  0  0
  188.7470  177.7190  142.9640 C   0  0  0  0  0  2  0  0  0  0  0  0
  187.5800  177.8860  143.9060 C   0  0  0  0  0  0  0  0  0  0  0  0
  191.6220  176.0390  144.8550 C   0  0  0  0  0  0  0  0  0  0  0  0
  192.0020  175.0080  144.0080 O   0  0  0  0  0  0  0  0  0  0  0  0
  192.0020  176.0350  146.0560 O   0  0  0  0  0  1  0  0  0  0  0  0
  184.4130  178.8720  140.1110 C   0  0  0  0  0  2  0  0  0  0  0  0
  181.4100  176.5830  139.7850 C   0  0  0  0  0  3  0  0  0  0  0  0
  183.9380  176.9170  138.6190 C   0  0  0  0  0  3  0  0  0  0  0  0
  181.4160  173.8120  137.3250 C   0  0  0  0  0  0  0  0  0  0  0  0
  180.9950  174.6830  138.3390 C   0  0  0  0  0  3  0  0  0  0  0  0
  181.8290  175.7170  138.7730 C   0  0  0  0  0  0  0  0  0  0  0  0
  183.5230  175.0160  137.1750 C   0  0  0  0  0  3  0  0  0  0  0  0
  183.1040  175.8840  138.1850 C   0  0  0  0  0  0  0  0  0  0  0  0
  182.6820  173.9850  136.7470 C   0  0  0  0  0  3  0  0  0  0  0  0
  183.5110  177.7860  139.6290 C   0  0  0  0  0  0  0  0  0  0  0  0
  182.2500  177.6140  140.2150 C   0  0  0  0  0  3  0  0  0  0  0  0
  180.5320  172.7250  136.8740 C   0  0  0  0  0  0  0  0  0  0  0  0
  179.9860  172.7760  135.7390 O   0  0  0  0  0  0  0  0  0  0  0  0
  180.2900  171.6310  137.6960 O   0  0  0  0  0  1  0  0  0  0  0  0
  1 17  2  0  0  0  0
  1 10  1  0  0  0  0
  4  5  2  0  0  0  0
  4  8  1  0  0  0  0
  5  1  1  0  0  0  0
  6 10  1  0  0  0  0
  6  7  1  0  0  0  0
  7 11  2  0  0  0  0
  8  6  2  0  0  0  0
  9 11  1  0  0  0  0
  9  3  1  0  0  0  0
 10  9  2  0  0  0  0
 12  2  1  0  0  0  0
 13 18  1  1  0  0  0
 13 12  1  0  0  0  0
 14 13  1  0  0  0  0
 15  2  1  0  0  0  0
 15  3  2  0  0  0  0
 16 14  1  0  0  0  0
 16 17  1  0  0  0  0
 17 15  1  0  0  0  0
 18 20  1  0  0  0  0
 19 18  2  0  0  0  0
 21  4  1  0  0  0  0
 22 31  1  0  0  0  0
 23 30  1  0  0  0  0
 24 25  2  0  0  0  0
 25 26  1  0  0  0  0
 26 22  2  0  0  0  0
 27 28  1  0  0  0  0
 28 23  2  0  0  0  0
 28 26  1  0  0  0  0
 29 27  2  0  0  0  0
 29 24  1  0  0  0  0
 30 21  1  0  0  0  0
 30 31  2  0  0  0  0
 32 24  1  0  0  0  0
 32 34  1  0  0  0  0
 33 32  2  0  0  0  0
M  END
>  <MODEL>
7

>  <REMARK>
 VINA RESULT:     -10.8      3.410      5.274
  Name = 
  4 active torsions:
  status: ('A' for Active; 'I' for Inactive)
    1  A    between atoms: C_3  and  C_25
    2  A    between atoms: C_7  and  C_11
    3  A    between atoms: C_8  and  C_18
    4  A    between atoms: C_18  and  C_30
                            x       y       z     vdW  Elec       q    Type
                         _______ _______ _______ _____ _____    ______ ____

>  <TORSDO>
F 4

$$$$
=
 OpenBabel10272415073D

 34 39  0  0  1  0  0  0  0  0999 V2000
  186.0700  178.3260  142.9660 C   0  0  0  0  0  0  0  0  0  0  0  0
  188.7190  177.5650  145.6840 C   0  0  0  0  0  2  0  0  0  0  0  0
  186.3190  178.1550  145.7900 C   0  0  0  0  0  3  0  0  0  0  0  0
  184.4500  178.7780  141.1820 C   0  0  0  0  0  0  0  0  0  0  0  0
  185.7760  178.4650  141.5930 C   0  0  0  0  0  3  0  0  0  0  0  0
  183.7570  178.8160  143.4830 C   0  0  0  0  0  0  0  0  0  0  0  0
  183.0140  178.9330  144.7490 C   0  0  0  0  0  3  0  0  0  0  0  0
  183.4190  178.9640  142.1390 C   0  0  0  0  0  3  0  0  0  0  0  0
  185.1040  178.4440  145.1760 C   0  0  0  0  0  0  0  0  0  0  0  0
  185.0220  178.5150  143.8380 C   0  0  0  0  0  0  0  0  0  0  0  0
  183.8240  178.7080  145.7550 N   0  0  0  0  0  0  0  0  0  0  0  0
  189.9640  178.2120  145.0920 C   0  0  0  0  0  2  0  0  0  0  0  0
  190.5480  177.3790  143.9470 C   0  0  2  0  0  3  0  0  0  0  0  0
  189.4910  176.8160  142.9960 C   0  0  0  0  0  2  0  0  0  0  0  0
  187.4570  177.9520  144.9660 C   0  0  0  0  0  0  0  0  0  0  0  0
  188.5100  177.9000  142.5840 C   0  0  0  0  0  2  0  0  0  0  0  0
  187.3370  178.0230  143.5250 C   0  0  0  0  0  0  0  0  0  0  0  0
  191.4300  176.2880  144.4650 C   0  0  0  0  0  0  0  0  0  0  0  0
  191.6440  175.1560  143.6920 O   0  0  0  0  0  0  0  0  0  0  0  0
  191.9860  176.3920  145.5910 O   0  0  0  0  0  1  0  0  0  0  0  0
  184.1500  178.9510  139.7310 C   0  0  0  0  0  2  0  0  0  0  0  0
  185.8180  176.7050  137.1740 C   0  0  0  0  0  3  0  0  0  0  0  0
  186.5480  178.6210  139.0870 C   0  0  0  0  0  3  0  0  0  0  0  0
  189.5020  176.7190  136.7780 C   0  0  0  0  0  0  0  0  0  0  0  0
  188.1500  176.3980  136.5920 C   0  0  0  0  0  3  0  0  0  0  0  0
  187.1650  177.0270  137.3570 C   0  0  0  0  0  0  0  0  0  0  0  0
  188.8790  178.3120  138.5070 C   0  0  0  0  0  3  0  0  0  0  0  0
  187.5330  177.9930  138.3220 C   0  0  0  0  0  0  0  0  0  0  0  0
  189.8590  177.6780  137.7370 C   0  0  0  0  0  3  0  0  0  0  0  0
  185.1990  178.2990  138.8950 C   0  0  0  0  0  0  0  0  0  0  0  0
  184.8370  177.3380  137.9430 C   0  0  0  0  0  3  0  0  0  0  0  0
  190.5350  176.0520  135.9680 C   0  0  0  0  0  0  0  0  0  0  0  0
  190.4130  175.9730  134.7170 O   0  0  0  0  0  0  0  0  0  0  0  0
  191.6560  175.5020  136.5780 O   0  0  0  0  0  1  0  0  0  0  0  0
  1 17  2  0  0  0  0
  1 10  1  0  0  0  0
  4  5  2  0  0  0  0
  4  8  1  0  0  0  0
  5  1  1  0  0  0  0
  6 10  1  0  0  0  0
  6  7  1  0  0  0  0
  7 11  2  0  0  0  0
  8  6  2  0  0  0  0
  9 11  1  0  0  0  0
  9  3  1  0  0  0  0
 10  9  2  0  0  0  0
 12  2  1  0  0  0  0
 13 18  1  1  0  0  0
 13 12  1  0  0  0  0
 14 13  1  0  0  0  0
 15  2  1  0  0  0  0
 15  3  2  0  0  0  0
 16 14  1  0  0  0  0
 16 17  1  0  0  0  0
 17 15  1  0  0  0  0
 18 20  1  0  0  0  0
 19 18  2  0  0  0  0
 21  4  1  0  0  0  0
 22 26  2  0  0  0  0
 22 31  1  0  0  0  0
 24 29  1  0  0  0  0
 25 24  2  0  0  0  0
 25 26  1  0  0  0  0
 26 28  1  0  0  0  0
 28 27  1  0  0  0  0
 28 23  2  0  0  0  0
 29 27  2  0  0  0  0
 30 23  1  0  0  0  0
 30 21  1  0  0  0  0
 31 30  2  0  0  0  0
 32 34  1  0  0  0  0
 32 24  1  0  0  0  0
 33 32  2  0  0  0  0
M  END
>  <MODEL>
8

>  <REMARK>
 VINA RESULT:     -10.8      2.876      5.816
  Name = 
  4 active torsions:
  status: ('A' for Active; 'I' for Inactive)
    1  A    between atoms: C_3  and  C_25
    2  A    between atoms: C_7  and  C_11
    3  A    between atoms: C_8  and  C_18
    4  A    between atoms: C_18  and  C_30
                            x       y       z     vdW  Elec       q    Type
                         _______ _______ _______ _____ _____    ______ ____

>  <TORSDO>
F 4

$$$$
=
 OpenBabel10272415073D

 34 39  0  0  1  0  0  0  0  0999 V2000
  188.8510  177.6020  143.0170 C   0  0  0  0  0  0  0  0  0  0  0  0
  190.2670  177.1720  139.4410 C   0  0  0  0  0  2  0  0  0  0  0  0
  191.1790  176.6700  141.6840 C   0  0  0  0  0  3  0  0  0  0  0  0
  187.8720  177.8900  145.2470 C   0  0  0  0  0  0  0  0  0  0  0  0
  187.7830  178.0310  143.8340 C   0  0  0  0  0  3  0  0  0  0  0  0
  190.0580  176.9200  145.0020 C   0  0  0  0  0  0  0  0  0  0  0  0
  191.3860  176.3210  145.2120 C   0  0  0  0  0  3  0  0  0  0  0  0
  189.0300  177.3310  145.8480 C   0  0  0  0  0  3  0  0  0  0  0  0
  191.0550  176.6170  143.0690 C   0  0  0  0  0  0  0  0  0  0  0  0
  189.9390  177.0640  143.6660 C   0  0  0  0  0  0  0  0  0  0  0  0
  191.9750  176.1420  144.0550 N   0  0  0  0  0  0  0  0  0  0  0  0
  189.7350  178.4190  138.7470 C   0  0  0  0  0  2  0  0  0  0  0  0
  188.2410  178.3000  138.4290 C   0  0  2  0  0  3  0  0  0  0  0  0
  187.4200  177.6860  139.5630 C   0  0  0  0  0  2  0  0  0  0  0  0
  190.1050  177.2170  140.9340 C   0  0  0  0  0  0  0  0  0  0  0  0
  187.7580  178.3470  140.8890 C   0  0  0  0  0  2  0  0  0  0  0  0
  188.9080  177.6800  141.6040 C   0  0  0  0  0  0  0  0  0  0  0  0
  188.0150  177.5600  137.1500 C   0  0  0  0  0  0  0  0  0  0  0  0
  187.4610  176.2880  137.1840 O   0  0  0  0  0  1  0  0  0  0  0  0
  188.3150  178.0830  136.0430 O   0  0  0  0  0  0  0  0  0  0  0  0
  186.7540  178.3710  146.1080 C   0  0  0  0  0  2  0  0  0  0  0  0
  183.1110  178.9150  145.2140 C   0  0  0  0  0  3  0  0  0  0  0  0
  185.5380  178.3710  143.9180 C   0  0  0  0  0  3  0  0  0  0  0  0
  181.9940  178.7340  141.6850 C   0  0  0  0  0  0  0  0  0  0  0  0
  181.9650  178.8860  143.0780 C   0  0  0  0  0  3  0  0  0  0  0  0
  183.1400  178.7670  143.8250 C   0  0  0  0  0  0  0  0  0  0  0  0
  184.3920  178.3400  141.7840 C   0  0  0  0  0  3  0  0  0  0  0  0
  184.3630  178.4920  143.1720 C   0  0  0  0  0  0  0  0  0  0  0  0
  183.2120  178.4620  141.0440 C   0  0  0  0  0  3  0  0  0  0  0  0
  185.5040  178.5270  145.3090 C   0  0  0  0  0  0  0  0  0  0  0  0
  184.2900  178.7930  145.9550 C   0  0  0  0  0  3  0  0  0  0  0  0
  180.7520  178.8620  140.9050 C   0  0  0  0  0  0  0  0  0  0  0  0
  180.3100  177.8840  140.2450 O   0  0  0  0  0  0  0  0  0  0  0  0
  180.0550  180.0640  140.8890 O   0  0  0  0  0  1  0  0  0  0  0  0
  1 10  1  0  0  0  0
  1  5  1  0  0  0  0
  2 15  1  0  0  0  0
  3  9  1  0  0  0  0
  4  8  1  0  0  0  0
  4 21  1  0  0  0  0
  5  4  2  0  0  0  0
  6  7  1  0  0  0  0
  6  8  2  0  0  0  0
  9 10  2  0  0  0  0
  9 11  1  0  0  0  0
 10  6  1  0  0  0  0
 11  7  2  0  0  0  0
 12  2  1  0  0  0  0
 13 18  1  6  0  0  0
 13 12  1  0  0  0  0
 13 14  1  0  0  0  0
 14 16  1  0  0  0  0
 15 17  1  0  0  0  0
 15  3  2  0  0  0  0
 16 17  1  0  0  0  0
 17  1  2  0  0  0  0
 18 19  1  0  0  0  0
 20 18  2  0  0  0  0
 22 31  1  0  0  0  0
 23 30  1  0  0  0  0
 24 25  2  0  0  0  0
 25 26  1  0  0  0  0
 26 22  2  0  0  0  0
 27 28  1  0  0  0  0
 28 26  1  0  0  0  0
 28 23  2  0  0  0  0
 29 24  1  0  0  0  0
 29 27  2  0  0  0  0
 30 31  2  0  0  0  0
 30 21  1  0  0  0  0
 32 24  1  0  0  0  0
 33 32  2  0  0  0  0
 34 32  1  0  0  0  0
M  END
>  <MODEL>
9

>  <REMARK>
 VINA RESULT:     -10.6      1.839      2.682
  Name = 
  4 active torsions:
  status: ('A' for Active; 'I' for Inactive)
    1  A    between atoms: C_3  and  C_25
    2  A    between atoms: C_7  and  C_11
    3  A    between atoms: C_8  and  C_18
    4  A    between atoms: C_18  and  C_30
                            x       y       z     vdW  Elec       q    Type
                         _______ _______ _______ _____ _____    ______ ____

>  <TORSDO>
F 4

$$$$
