=
 OpenBabel10272415273D

 34 39  0  0  0  0  0  0  0  0999 V2000
  186.9150  178.1320  143.9010 C   0  0  0  0  0  0  0  0  0  0  0  0
  187.9940  177.4580  147.3940 C   0  0  0  0  0  3  0  0  0  0  0  0
  185.9660  178.1300  146.5470 C   0  0  0  0  0  3  0  0  0  0  0  0
  186.2740  178.6070  141.4630 C   0  0  0  0  0  0  0  0  0  0  0  0
  187.3480  178.1460  142.4440 C   0  0  0  0  0  3  0  0  0  0  0  0
  184.7010  178.8370  143.3150 C   0  0  0  0  0  0  0  0  0  0  0  0
  183.0960  179.2300  144.0200 S   0  0  0  0  0  0  0  0  0  0  0  0
  185.0400  178.9120  141.8880 C   0  0  0  0  0  3  0  0  0  0  0  0
  185.1350  178.4790  145.4920 C   0  0  0  0  0  0  0  0  0  0  0  0
  185.5990  178.4780  144.2100 C   0  0  0  0  0  0  0  0  0  0  0  0
  183.7740  178.8630  145.6190 N   0  0  0  0  0  0  0  0  0  0  0  0
  189.3830  177.0370  147.5930 C   0  0  0  0  0  3  0  0  0  0  0  0
  190.3580  176.8480  146.7070 C   0  0  0  0  0  0  0  0  0  0  0  0
  190.2230  177.0360  145.2590 C   0  0  0  0  0  3  0  0  0  0  0  0
  187.3040  177.7700  146.2980 C   0  0  0  0  0  0  0  0  0  0  0  0
  189.1700  177.4130  144.5450 C   0  0  0  0  0  3  0  0  0  0  0  0
  187.7970  177.7670  144.9540 C   0  0  0  0  0  0  0  0  0  0  0  0
  191.6730  176.4160  147.2180 C   0  0  0  0  0  0  0  0  0  0  0  0
  192.2460  177.0480  148.3170 O   0  0  0  0  0  1  0  0  0  0  0  0
  192.2920  175.4690  146.6640 O   0  0  0  0  0  0  0  0  0  0  0  0
  186.5240  178.6890  140.0850 O   0  0  0  0  0  0  0  0  0  0  0  0
  188.6740  177.1620  137.4400 C   0  0  0  0  0  3  0  0  0  0  0  0
  188.8500  178.0730  140.0850 C   0  0  0  0  0  3  0  0  0  0  0  0
  192.2260  176.4820  138.2060 C   0  0  0  0  0  0  0  0  0  0  0  0
  191.0180  176.5530  137.4990 C   0  0  0  0  0  3  0  0  0  0  0  0
  189.8890  177.0840  138.1230 C   0  0  0  0  0  0  0  0  0  0  0  0
  191.1950  177.4520  140.1240 C   0  0  0  0  0  3  0  0  0  0  0  0
  189.9760  177.5400  139.4530 C   0  0  0  0  0  0  0  0  0  0  0  0
  192.2820  176.9290  139.4930 N   0  0  0  0  0  0  0  0  0  0  0  0
  187.6310  178.1630  139.4020 C   0  0  0  0  0  0  0  0  0  0  0  0
  187.5510  177.6970  138.0770 C   0  0  0  0  0  3  0  0  0  0  0  0
  193.3960  175.9400  137.5840 N   0  0  0  0  0  0  0  0  0  0  0  0
  193.7200  174.7510  137.7810 O   0  0  0  0  0  0  0  0  0  0  0  0
  194.1750  176.7240  136.7630 O   0  0  0  0  0  0  0  0  0  0  0  0
  1 10  1  0  0  0  0
  1 17  1  0  0  0  0
  2 12  2  0  0  0  0
  4  8  2  0  0  0  0
  4  5  1  0  0  0  0
  5  1  2  0  0  0  0
  6  7  1  0  0  0  0
  6 10  2  0  0  0  0
  7 11  1  0  0  0  0
  8  6  1  0  0  0  0
  9 11  2  0  0  0  0
  9  3  1  0  0  0  0
 10  9  1  0  0  0  0
 13 18  1  0  0  0  0
 13 12  1  0  0  0  0
 14 13  2  0  0  0  0
 15  3  2  0  0  0  0
 15  2  1  0  0  0  0
 16 17  2  0  0  0  0
 16 14  1  0  0  0  0
 17 15  1  0  0  0  0
 18 19  1  0  0  0  0
 20 18  2  0  0  0  0
 21  4  1  0  0  0  0
 22 31  2  0  0  0  0
 22 26  1  0  0  0  0
 24 29  1  0  0  0  0
 25 26  1  0  0  0  0
 25 24  2  0  0  0  0
 26 28  2  0  0  0  0
 28 23  1  0  0  0  0
 28 27  1  0  0  0  0
 29 27  2  0  0  0  0
 30 23  2  0  0  0  0
 30 21  1  0  0  0  0
 31 30  1  0  0  0  0
 32 33  2  0  0  0  0
 32 24  1  0  0  0  0
 34 32  2  0  0  0  0
M  END
>  <MODEL>
1

>  <REMARK>
 VINA RESULT:     -12.6      0.000      0.000
  Name = 
  4 active torsions:
  status: ('A' for Active; 'I' for Inactive)
    1  A    between atoms: C_3  and  C_25
    2  A    between atoms: C_7  and  N_11
    3  A    between atoms: C_8  and  O_18
    4  A    between atoms: O_18  and  C_30
                            x       y       z     vdW  Elec       q    Type
                         _______ _______ _______ _____ _____    ______ ____

>  <TORSDO>
F 4

$$$$
=
 OpenBabel10272415273D

 34 39  0  0  0  0  0  0  0  0999 V2000
  186.9320  178.1210  143.8870 C   0  0  0  0  0  0  0  0  0  0  0  0
  188.0140  177.4520  147.3810 C   0  0  0  0  0  3  0  0  0  0  0  0
  185.9920  178.1470  146.5360 C   0  0  0  0  0  3  0  0  0  0  0  0
  186.2900  178.5930  141.4490 C   0  0  0  0  0  0  0  0  0  0  0  0
  187.3600  178.1220  142.4290 C   0  0  0  0  0  3  0  0  0  0  0  0
  184.7260  178.8520  143.3040 C   0  0  0  0  0  0  0  0  0  0  0  0
  183.1280  179.2710  144.0130 S   0  0  0  0  0  0  0  0  0  0  0  0
  185.0610  178.9160  141.8760 C   0  0  0  0  0  3  0  0  0  0  0  0
  185.1620  178.5000  145.4830 C   0  0  0  0  0  0  0  0  0  0  0  0
  185.6220  178.4860  144.1990 C   0  0  0  0  0  0  0  0  0  0  0  0
  183.8070  178.9030  145.6120 N   0  0  0  0  0  0  0  0  0  0  0  0
  189.3980  177.0140  147.5770 C   0  0  0  0  0  3  0  0  0  0  0  0
  190.3670  176.8060  146.6890 C   0  0  0  0  0  0  0  0  0  0  0  0
  190.2290  176.9890  145.2410 C   0  0  0  0  0  3  0  0  0  0  0  0
  187.3240  177.7670  146.2850 C   0  0  0  0  0  0  0  0  0  0  0  0
  189.1790  177.3760  144.5280 C   0  0  0  0  0  3  0  0  0  0  0  0
  187.8120  177.7510  144.9390 C   0  0  0  0  0  0  0  0  0  0  0  0
  191.6780  176.3600  147.1980 C   0  0  0  0  0  0  0  0  0  0  0  0
  192.2720  177.0030  148.2790 O   0  0  0  0  0  1  0  0  0  0  0  0
  192.2740  175.3900  146.6580 O   0  0  0  0  0  0  0  0  0  0  0  0
  186.5360  178.6630  140.0700 O   0  0  0  0  0  0  0  0  0  0  0  0
  190.0270  177.6770  139.1840 C   0  0  0  0  0  3  0  0  0  0  0  0
  187.4320  177.5550  138.1310 C   0  0  0  0  0  3  0  0  0  0  0  0
  190.6340  175.9860  135.9530 C   0  0  0  0  0  0  0  0  0  0  0  0
  190.8770  176.5660  137.2050 C   0  0  0  0  0  3  0  0  0  0  0  0
  189.8100  177.0910  137.9360 C   0  0  0  0  0  0  0  0  0  0  0  0
  188.3040  176.4470  136.1570 C   0  0  0  0  0  3  0  0  0  0  0  0
  188.5060  177.0320  137.4070 C   0  0  0  0  0  0  0  0  0  0  0  0
  189.3610  175.9420  135.4640 N   0  0  0  0  0  0  0  0  0  0  0  0
  187.6430  178.1350  139.3880 C   0  0  0  0  0  0  0  0  0  0  0  0
  188.9490  178.1980  139.9050 C   0  0  0  0  0  3  0  0  0  0  0  0
  191.7150  175.4410  135.1880 N   0  0  0  0  0  0  0  0  0  0  0  0
  192.7890  176.0670  135.0840 O   0  0  0  0  0  0  0  0  0  0  0  0
  191.5810  174.2240  134.5600 O   0  0  0  0  0  0  0  0  0  0  0  0
  1 10  1  0  0  0  0
  1 17  1  0  0  0  0
  2 12  2  0  0  0  0
  4  8  2  0  0  0  0
  4  5  1  0  0  0  0
  5  1  2  0  0  0  0
  6  7  1  0  0  0  0
  6 10  2  0  0  0  0
  7 11  1  0  0  0  0
  8  6  1  0  0  0  0
  9 11  2  0  0  0  0
  9  3  1  0  0  0  0
 10  9  1  0  0  0  0
 13 18  1  0  0  0  0
 13 12  1  0  0  0  0
 14 13  2  0  0  0  0
 15  3  2  0  0  0  0
 15  2  1  0  0  0  0
 16 17  2  0  0  0  0
 16 14  1  0  0  0  0
 17 15  1  0  0  0  0
 18 19  1  0  0  0  0
 20 18  2  0  0  0  0
 21  4  1  0  0  0  0
 22 31  1  0  0  0  0
 23 30  1  0  0  0  0
 24 25  2  0  0  0  0
 25 26  1  0  0  0  0
 26 22  2  0  0  0  0
 27 28  1  0  0  0  0
 28 26  1  0  0  0  0
 28 23  2  0  0  0  0
 29 24  1  0  0  0  0
 29 27  2  0  0  0  0
 30 31  2  0  0  0  0
 30 21  1  0  0  0  0
 32 24  1  0  0  0  0
 33 32  2  0  0  0  0
 34 32  2  0  0  0  0
M  END
>  <MODEL>
2

>  <REMARK>
 VINA RESULT:     -11.9      1.278      1.869
  Name = 
  4 active torsions:
  status: ('A' for Active; 'I' for Inactive)
    1  A    between atoms: C_3  and  C_25
    2  A    between atoms: C_7  and  N_11
    3  A    between atoms: C_8  and  O_18
    4  A    between atoms: O_18  and  C_30
                            x       y       z     vdW  Elec       q    Type
                         _______ _______ _______ _____ _____    ______ ____

>  <TORSDO>
F 4

$$$$
=
 OpenBabel10272415273D

 34 39  0  0  0  0  0  0  0  0999 V2000
  184.5940  178.7300  141.9410 C   0  0  0  0  0  0  0  0  0  0  0  0
  185.3060  178.3420  138.3130 C   0  0  0  0  0  3  0  0  0  0  0  0
  183.3160  178.5420  139.4450 C   0  0  0  0  0  3  0  0  0  0  0  0
  184.2020  178.9590  144.4650 C   0  0  0  0  0  0  0  0  0  0  0  0
  185.2100  178.8510  143.3250 C   0  0  0  0  0  3  0  0  0  0  0  0
  182.3820  178.9110  142.8410 C   0  0  0  0  0  0  0  0  0  0  0  0
  180.6470  178.9380  142.3690 S   0  0  0  0  0  0  0  0  0  0  0  0
  182.8850  179.0000  144.2180 C   0  0  0  0  0  3  0  0  0  0  0  0
  182.5810  178.6900  140.6120 C   0  0  0  0  0  0  0  0  0  0  0  0
  183.2050  178.7810  141.8210 C   0  0  0  0  0  0  0  0  0  0  0  0
  181.1650  178.7540  140.6810 N   0  0  0  0  0  0  0  0  0  0  0  0
  186.7130  178.2400  137.9170 C   0  0  0  0  0  3  0  0  0  0  0  0
  187.8180  178.2650  138.6590 C   0  0  0  0  0  0  0  0  0  0  0  0
  187.8440  178.4080  140.1180 C   0  0  0  0  0  3  0  0  0  0  0  0
  184.7210  178.4850  139.5020 C   0  0  0  0  0  0  0  0  0  0  0  0
  186.8420  178.5380  140.9780 C   0  0  0  0  0  3  0  0  0  0  0  0
  185.3820  178.5810  140.7680 C   0  0  0  0  0  0  0  0  0  0  0  0
  189.1130  178.1390  137.9630 C   0  0  0  0  0  0  0  0  0  0  0  0
  190.1040  177.3000  138.4620 O   0  0  0  0  0  1  0  0  0  0  0  0
  189.3360  178.7920  136.9080 O   0  0  0  0  0  0  0  0  0  0  0  0
  184.6130  179.0630  145.8030 O   0  0  0  0  0  0  0  0  0  0  0  0
  187.4200  178.4070  148.1780 C   0  0  0  0  0  3  0  0  0  0  0  0
  186.7840  178.0810  145.4680 C   0  0  0  0  0  3  0  0  0  0  0  0
  190.5140  176.8470  146.8900 C   0  0  0  0  0  0  0  0  0  0  0  0
  189.5960  177.4190  147.7820 C   0  0  0  0  0  3  0  0  0  0  0  0
  188.3500  177.8320  147.3100 C   0  0  0  0  0  0  0  0  0  0  0  0
  188.9700  177.0970  145.0910 C   0  0  0  0  0  3  0  0  0  0  0  0
  188.0290  177.6700  145.9480 C   0  0  0  0  0  0  0  0  0  0  0  0
  190.1790  176.7030  145.5760 N   0  0  0  0  0  0  0  0  0  0  0  0
  185.8430  178.6490  146.3350 C   0  0  0  0  0  0  0  0  0  0  0  0
  186.1740  178.8150  147.6920 C   0  0  0  0  0  3  0  0  0  0  0  0
  191.7980  176.4170  147.3540 N   0  0  0  0  0  0  0  0  0  0  0  0
  192.3450  176.9940  148.3160 O   0  0  0  0  0  0  0  0  0  0  0  0
  192.4430  175.3640  146.7450 O   0  0  0  0  0  0  0  0  0  0  0  0
  1  5  1  0  0  0  0
  2 15  1  0  0  0  0
  3 15  2  0  0  0  0
  3  9  1  0  0  0  0
  4 21  1  0  0  0  0
  5  4  2  0  0  0  0
  6  8  2  0  0  0  0
  7  6  1  0  0  0  0
  8  4  1  0  0  0  0
  9 11  2  0  0  0  0
  9 10  1  0  0  0  0
 10  1  2  0  0  0  0
 10  6  1  0  0  0  0
 11  7  1  0  0  0  0
 12  2  2  0  0  0  0
 12 13  1  0  0  0  0
 13 14  2  0  0  0  0
 14 16  1  0  0  0  0
 15 17  1  0  0  0  0
 17 16  2  0  0  0  0
 17  1  1  0  0  0  0
 18 19  1  0  0  0  0
 18 13  1  0  0  0  0
 20 18  2  0  0  0  0
 21 30  1  0  0  0  0
 23 28  2  0  0  0  0
 23 30  1  0  0  0  0
 24 32  1  0  0  0  0
 24 25  2  0  0  0  0
 26 25  1  0  0  0  0
 26 22  2  0  0  0  0
 27 29  2  0  0  0  0
 27 28  1  0  0  0  0
 28 26  1  0  0  0  0
 29 24  1  0  0  0  0
 30 31  2  0  0  0  0
 31 22  1  0  0  0  0
 32 33  2  0  0  0  0
 34 32  2  0  0  0  0
M  END
>  <MODEL>
3

>  <REMARK>
 VINA RESULT:     -11.6      2.825      7.554
  Name = 
  4 active torsions:
  status: ('A' for Active; 'I' for Inactive)
    1  A    between atoms: C_3  and  C_25
    2  A    between atoms: C_7  and  N_11
    3  A    between atoms: C_8  and  O_18
    4  A    between atoms: O_18  and  C_30
                            x       y       z     vdW  Elec       q    Type
                         _______ _______ _______ _____ _____    ______ ____

>  <TORSDO>
F 4

$$$$
=
 OpenBabel10272415273D

 34 39  0  0  0  0  0  0  0  0999 V2000
  187.1860  177.9420  144.5280 C   0  0  0  0  0  0  0  0  0  0  0  0
  183.7020  178.7480  145.5420 C   0  0  0  0  0  3  0  0  0  0  0  0
  185.5980  178.4160  146.7970 C   0  0  0  0  0  3  0  0  0  0  0  0
  189.5520  177.3510  143.7320 C   0  0  0  0  0  0  0  0  0  0  0  0
  188.1130  177.6850  143.3510 C   0  0  0  0  0  3  0  0  0  0  0  0
  188.9810  177.6430  146.0860 C   0  0  0  0  0  0  0  0  0  0  0  0
  189.3620  177.6620  147.8430 S   0  0  0  0  0  0  0  0  0  0  0  0
  189.9410  177.3500  145.0150 C   0  0  0  0  0  3  0  0  0  0  0  0
  186.9510  178.1340  146.9210 C   0  0  0  0  0  0  0  0  0  0  0  0
  187.7170  177.9050  145.8170 C   0  0  0  0  0  0  0  0  0  0  0  0
  187.6570  178.0510  148.1490 N   0  0  0  0  0  0  0  0  0  0  0  0
  182.7130  178.8960  144.4710 C   0  0  0  0  0  3  0  0  0  0  0  0
  182.8540  178.7890  143.1520 C   0  0  0  0  0  0  0  0  0  0  0  0
  184.1130  178.4790  142.4660 C   0  0  0  0  0  3  0  0  0  0  0  0
  185.0040  178.4680  145.5220 C   0  0  0  0  0  0  0  0  0  0  0  0
  185.3200  178.2510  142.9660 C   0  0  0  0  0  3  0  0  0  0  0  0
  185.8050  178.2290  144.3600 C   0  0  0  0  0  0  0  0  0  0  0  0
  181.6550  178.9960  142.3160 C   0  0  0  0  0  0  0  0  0  0  0  0
  181.4920  178.2910  141.1280 O   0  0  0  0  0  0  0  0  0  0  0  0
  180.7650  179.8150  142.6700 O   0  0  0  0  0  1  0  0  0  0  0  0
  190.5250  177.0750  142.7600 O   0  0  0  0  0  0  0  0  0  0  0  0
  191.1930  176.9130  139.0890 C   0  0  0  0  0  3  0  0  0  0  0  0
  189.1180  177.5440  140.8650 C   0  0  0  0  0  3  0  0  0  0  0  0
  188.4810  177.8170  136.7450 C   0  0  0  0  0  0  0  0  0  0  0  0
  189.7350  177.4080  137.2180 C   0  0  0  0  0  3  0  0  0  0  0  0
  189.9520  177.3150  138.5930 C   0  0  0  0  0  0  0  0  0  0  0  0
  187.6760  178.0380  138.9780 C   0  0  0  0  0  3  0  0  0  0  0  0
  188.9100  177.6340  139.4870 C   0  0  0  0  0  0  0  0  0  0  0  0
  187.4900  178.1210  137.6320 N   0  0  0  0  0  0  0  0  0  0  0  0
  190.3580  177.1320  141.3680 C   0  0  0  0  0  0  0  0  0  0  0  0
  191.3950  176.8240  140.4690 C   0  0  0  0  0  3  0  0  0  0  0  0
  188.2390  177.9180  135.3380 N   0  0  0  0  0  0  0  0  0  0  0  0
  189.1490  177.6630  134.5230 O   0  0  0  0  0  0  0  0  0  0  0  0
  187.0010  178.2970  134.8680 O   0  0  0  0  0  0  0  0  0  0  0  0
  1 10  1  0  0  0  0
  3  9  1  0  0  0  0
  4  8  2  0  0  0  0
  5  4  1  0  0  0  0
  5  1  2  0  0  0  0
  6  7  1  0  0  0  0
  7 11  1  0  0  0  0
  8  6  1  0  0  0  0
  9 11  2  0  0  0  0
 10  6  2  0  0  0  0
 10  9  1  0  0  0  0
 12  2  2  0  0  0  0
 13 12  1  0  0  0  0
 14 16  1  0  0  0  0
 14 13  2  0  0  0  0
 15  2  1  0  0  0  0
 15  3  2  0  0  0  0
 16 17  2  0  0  0  0
 17  1  1  0  0  0  0
 17 15  1  0  0  0  0
 18 20  1  0  0  0  0
 18 13  1  0  0  0  0
 19 18  2  0  0  0  0
 21  4  1  0  0  0  0
 22 31  1  0  0  0  0
 23 30  1  0  0  0  0
 24 25  2  0  0  0  0
 24 29  1  0  0  0  0
 25 26  1  0  0  0  0
 26 22  2  0  0  0  0
 26 28  1  0  0  0  0
 27 28  1  0  0  0  0
 28 23  2  0  0  0  0
 29 27  2  0  0  0  0
 30 21  1  0  0  0  0
 31 30  2  0  0  0  0
 32 24  1  0  0  0  0
 33 32  2  0  0  0  0
 34 32  2  0  0  0  0
M  END
>  <MODEL>
4

>  <REMARK>
 VINA RESULT:     -11.3      3.109      5.788
  Name = 
  4 active torsions:
  status: ('A' for Active; 'I' for Inactive)
    1  A    between atoms: C_3  and  C_25
    2  A    between atoms: C_7  and  N_11
    3  A    between atoms: C_8  and  O_18
    4  A    between atoms: O_18  and  C_30
                            x       y       z     vdW  Elec       q    Type
                         _______ _______ _______ _____ _____    ______ ____

>  <TORSDO>
F 4

$$$$
=
 OpenBabel10272415273D

 34 39  0  0  0  0  0  0  0  0999 V2000
  185.1790  178.5230  142.7920 C   0  0  0  0  0  0  0  0  0  0  0  0
  185.3220  178.2630  146.4990 C   0  0  0  0  0  3  0  0  0  0  0  0
  183.5490  178.6200  145.0800 C   0  0  0  0  0  3  0  0  0  0  0  0
  185.1870  178.7230  140.2360 C   0  0  0  0  0  0  0  0  0  0  0  0
  185.9900  178.4730  141.5080 C   0  0  0  0  0  3  0  0  0  0  0  0
  183.1540  178.9110  141.5720 C   0  0  0  0  0  0  0  0  0  0  0  0
  181.3870  179.1660  141.7840 S   0  0  0  0  0  0  0  0  0  0  0  0
  183.8600  178.9120  140.2850 C   0  0  0  0  0  3  0  0  0  0  0  0
  183.0080  178.7820  143.8130 C   0  0  0  0  0  0  0  0  0  0  0  0
  183.8030  178.7340  142.7060 C   0  0  0  0  0  0  0  0  0  0  0  0
  181.6350  179.0100  143.5360 N   0  0  0  0  0  0  0  0  0  0  0  0
  186.6370  178.0270  147.1000 C   0  0  0  0  0  3  0  0  0  0  0  0
  187.8300  177.8850  146.5270 C   0  0  0  0  0  0  0  0  0  0  0  0
  188.0780  177.9400  145.0830 C   0  0  0  0  0  3  0  0  0  0  0  0
  184.9310  178.4030  145.2320 C   0  0  0  0  0  0  0  0  0  0  0  0
  187.2290  178.1310  144.0810 C   0  0  0  0  0  3  0  0  0  0  0  0
  185.7700  178.3510  144.0730 C   0  0  0  0  0  0  0  0  0  0  0  0
  188.9900  177.6550  147.4100 C   0  0  0  0  0  0  0  0  0  0  0  0
  189.1410  178.3860  148.5820 O   0  0  0  0  0  1  0  0  0  0  0  0
  189.8570  176.7910  147.1090 O   0  0  0  0  0  0  0  0  0  0  0  0
  185.7950  178.7240  138.9710 O   0  0  0  0  0  0  0  0  0  0  0  0
  188.1620  176.4640  137.1730 C   0  0  0  0  0  3  0  0  0  0  0  0
  188.1050  178.1900  139.3800 C   0  0  0  0  0  3  0  0  0  0  0  0
  191.6220  176.1430  138.4330 C   0  0  0  0  0  0  0  0  0  0  0  0
  190.4850  175.9550  137.6360 C   0  0  0  0  0  3  0  0  0  0  0  0
  189.3090  176.6370  137.9490 C   0  0  0  0  0  0  0  0  0  0  0  0
  190.4300  177.6640  139.8290 C   0  0  0  0  0  3  0  0  0  0  0  0
  189.2780  177.5040  139.0590 C   0  0  0  0  0  0  0  0  0  0  0  0
  191.5650  176.9870  139.5030 N   0  0  0  0  0  0  0  0  0  0  0  0
  186.9540  178.0280  138.5990 C   0  0  0  0  0  0  0  0  0  0  0  0
  186.9910  177.1540  137.4970 C   0  0  0  0  0  3  0  0  0  0  0  0
  192.8390  175.4530  138.1290 N   0  0  0  0  0  0  0  0  0  0  0  0
  193.9410  175.9780  138.3860 O   0  0  0  0  0  0  0  0  0  0  0  0
  192.8070  174.2040  137.5500 O   0  0  0  0  0  0  0  0  0  0  0  0
  1 17  1  0  0  0  0
  2 12  2  0  0  0  0
  3 15  2  0  0  0  0
  4  8  2  0  0  0  0
  4  5  1  0  0  0  0
  5  1  2  0  0  0  0
  6  7  1  0  0  0  0
  6 10  2  0  0  0  0
  7 11  1  0  0  0  0
  8  6  1  0  0  0  0
  9  3  1  0  0  0  0
 10  1  1  0  0  0  0
 10  9  1  0  0  0  0
 11  9  2  0  0  0  0
 13 12  1  0  0  0  0
 13 18  1  0  0  0  0
 14 13  2  0  0  0  0
 15  2  1  0  0  0  0
 16 14  1  0  0  0  0
 17 16  2  0  0  0  0
 17 15  1  0  0  0  0
 18 19  1  0  0  0  0
 20 18  2  0  0  0  0
 21  4  1  0  0  0  0
 22 31  2  0  0  0  0
 22 26  1  0  0  0  0
 24 29  1  0  0  0  0
 25 26  1  0  0  0  0
 25 24  2  0  0  0  0
 26 28  2  0  0  0  0
 28 23  1  0  0  0  0
 28 27  1  0  0  0  0
 29 27  2  0  0  0  0
 30 21  1  0  0  0  0
 30 23  2  0  0  0  0
 31 30  1  0  0  0  0
 32 33  2  0  0  0  0
 32 24  1  0  0  0  0
 34 32  2  0  0  0  0
M  END
>  <MODEL>
5

>  <REMARK>
 VINA RESULT:     -11.0      1.449      2.126
  Name = 
  4 active torsions:
  status: ('A' for Active; 'I' for Inactive)
    1  A    between atoms: C_3  and  C_25
    2  A    between atoms: C_7  and  N_11
    3  A    between atoms: C_8  and  O_18
    4  A    between atoms: O_18  and  C_30
                            x       y       z     vdW  Elec       q    Type
                         _______ _______ _______ _____ _____    ______ ____

>  <TORSDO>
F 4

$$$$
=
 OpenBabel10272415273D

 34 39  0  0  0  0  0  0  0  0999 V2000
  187.7380  177.8110  144.9870 C   0  0  0  0  0  0  0  0  0  0  0  0
  191.1530  176.9260  143.8130 C   0  0  0  0  0  3  0  0  0  0  0  0
  190.3250  177.2540  145.9320 C   0  0  0  0  0  3  0  0  0  0  0  0
  185.3600  178.4580  145.6970 C   0  0  0  0  0  0  0  0  0  0  0  0
  186.3120  178.1120  144.5560 C   0  0  0  0  0  3  0  0  0  0  0  0
  187.1670  178.0960  147.2960 C   0  0  0  0  0  0  0  0  0  0  0  0
  187.8580  178.0380  148.9540 S   0  0  0  0  0  0  0  0  0  0  0  0
  185.7750  178.4310  146.9710 C   0  0  0  0  0  3  0  0  0  0  0  0
  189.2950  177.5530  146.8120 C   0  0  0  0  0  0  0  0  0  0  0  0
  188.0410  177.8220  146.3480 C   0  0  0  0  0  0  0  0  0  0  0  0
  189.4210  177.6150  148.2240 N   0  0  0  0  0  0  0  0  0  0  0  0
  191.3460  176.7900  142.3670 C   0  0  0  0  0  3  0  0  0  0  0  0
  190.4790  176.9340  141.3680 C   0  0  0  0  0  0  0  0  0  0  0  0
  189.0630  177.2800  141.5300 C   0  0  0  0  0  3  0  0  0  0  0  0
  190.0810  177.2260  144.5460 C   0  0  0  0  0  0  0  0  0  0  0  0
  188.3660  177.5140  142.6340 C   0  0  0  0  0  3  0  0  0  0  0  0
  188.7660  177.5070  144.0550 C   0  0  0  0  0  0  0  0  0  0  0  0
  190.9780  176.7310  139.9940 C   0  0  0  0  0  0  0  0  0  0  0  0
  192.1850  177.2910  139.5910 O   0  0  0  0  0  1  0  0  0  0  0  0
  190.3150  176.0460  139.1700 O   0  0  0  0  0  0  0  0  0  0  0  0
  184.0130  178.7740  145.4600 O   0  0  0  0  0  0  0  0  0  0  0  0
  181.3550  178.7880  142.8370 C   0  0  0  0  0  3  0  0  0  0  0  0
  184.1490  178.7850  143.0580 C   0  0  0  0  0  3  0  0  0  0  0  0
  182.3630  178.7890  139.2810 C   0  0  0  0  0  0  0  0  0  0  0  0
  181.5510  178.7910  140.4220 C   0  0  0  0  0  3  0  0  0  0  0  0
  182.1430  178.7900  141.6850 C   0  0  0  0  0  0  0  0  0  0  0  0
  184.3230  178.7840  140.6380 C   0  0  0  0  0  3  0  0  0  0  0  0
  183.5480  178.7870  141.7970 C   0  0  0  0  0  0  0  0  0  0  0  0
  183.7210  178.7840  139.4170 N   0  0  0  0  0  0  0  0  0  0  0  0
  183.3640  178.7940  144.2170 C   0  0  0  0  0  0  0  0  0  0  0  0
  181.9620  178.7890  144.0960 C   0  0  0  0  0  3  0  0  0  0  0  0
  181.7750  178.7890  137.9750 N   0  0  0  0  0  0  0  0  0  0  0  0
  181.3550  179.8530  137.4750 O   0  0  0  0  0  0  0  0  0  0  0  0
  181.6650  177.6190  137.2590 O   0  0  0  0  0  0  0  0  0  0  0  0
  1 10  1  0  0  0  0
  2 15  1  0  0  0  0
  3  9  1  0  0  0  0
  4  8  2  0  0  0  0
  5  1  2  0  0  0  0
  5  4  1  0  0  0  0
  6  7  1  0  0  0  0
  8  6  1  0  0  0  0
  9 11  2  0  0  0  0
 10  9  1  0  0  0  0
 10  6  2  0  0  0  0
 11  7  1  0  0  0  0
 12  2  2  0  0  0  0
 13 14  2  0  0  0  0
 13 12  1  0  0  0  0
 14 16  1  0  0  0  0
 15  3  2  0  0  0  0
 16 17  2  0  0  0  0
 17 15  1  0  0  0  0
 17  1  1  0  0  0  0
 18 13  1  0  0  0  0
 19 18  1  0  0  0  0
 20 18  2  0  0  0  0
 21  4  1  0  0  0  0
 22 31  1  0  0  0  0
 23 30  1  0  0  0  0
 24 29  1  0  0  0  0
 24 25  2  0  0  0  0
 25 26  1  0  0  0  0
 26 28  1  0  0  0  0
 26 22  2  0  0  0  0
 27 28  1  0  0  0  0
 28 23  2  0  0  0  0
 29 27  2  0  0  0  0
 30 21  1  0  0  0  0
 31 30  2  0  0  0  0
 32 24  1  0  0  0  0
 33 32  2  0  0  0  0
 34 32  2  0  0  0  0
M  END
>  <MODEL>
6

>  <REMARK>
 VINA RESULT:     -11.0      3.906      7.110
  Name = 
  4 active torsions:
  status: ('A' for Active; 'I' for Inactive)
    1  A    between atoms: C_3  and  C_25
    2  A    between atoms: C_7  and  N_11
    3  A    between atoms: C_8  and  O_18
    4  A    between atoms: O_18  and  C_30
                            x       y       z     vdW  Elec       q    Type
                         _______ _______ _______ _____ _____    ______ ____

>  <TORSDO>
F 4

$$$$
=
 OpenBabel10272415273D

 34 39  0  0  0  0  0  0  0  0999 V2000
  188.2160  177.7270  143.6170 C   0  0  0  0  0  0  0  0  0  0  0  0
  188.6610  177.2240  147.2740 C   0  0  0  0  0  3  0  0  0  0  0  0
  186.8130  177.8340  146.0500 C   0  0  0  0  0  3  0  0  0  0  0  0
  188.0170  178.0850  141.0850 C   0  0  0  0  0  0  0  0  0  0  0  0
  188.9010  177.6810  142.2610 C   0  0  0  0  0  3  0  0  0  0  0  0
  186.1400  178.3780  142.6160 C   0  0  0  0  0  0  0  0  0  0  0  0
  184.4330  178.7840  143.0070 S   0  0  0  0  0  0  0  0  0  0  0  0
  186.7260  178.3930  141.2700 C   0  0  0  0  0  3  0  0  0  0  0  0
  186.1810  178.1240  144.8510 C   0  0  0  0  0  0  0  0  0  0  0  0
  186.8660  178.0710  143.6730 C   0  0  0  0  0  0  0  0  0  0  0  0
  184.8180  178.4980  144.7170 N   0  0  0  0  0  0  0  0  0  0  0  0
  189.9950  176.8290  147.7350 C   0  0  0  0  0  3  0  0  0  0  0  0
  191.1120  176.6110  147.0460 C   0  0  0  0  0  0  0  0  0  0  0  0
  191.2350  176.7330  145.5890 C   0  0  0  0  0  3  0  0  0  0  0  0
  188.1750  177.4790  146.0600 C   0  0  0  0  0  0  0  0  0  0  0  0
  190.3240  177.0640  144.6830 C   0  0  0  0  0  3  0  0  0  0  0  0
  188.8990  177.4210  144.8250 C   0  0  0  0  0  0  0  0  0  0  0  0
  192.3170  176.2190  147.8010 C   0  0  0  0  0  0  0  0  0  0  0  0
  193.0700  175.1170  147.4080 O   0  0  0  0  0  0  0  0  0  0  0  0
  192.6780  176.8780  148.8120 O   0  0  0  0  0  1  0  0  0  0  0  0
  188.5070  178.1070  139.7710 O   0  0  0  0  0  0  0  0  0  0  0  0
  192.1000  177.0960  139.6550 C   0  0  0  0  0  3  0  0  0  0  0  0
  189.8300  177.1350  138.0120 C   0  0  0  0  0  3  0  0  0  0  0  0
  193.4450  175.6580  136.5270 C   0  0  0  0  0  0  0  0  0  0  0  0
  193.3880  176.1270  137.8460 C   0  0  0  0  0  3  0  0  0  0  0  0
  192.1820  176.6210  138.3450 C   0  0  0  0  0  0  0  0  0  0  0  0
  191.1380  176.1680  136.2120 C   0  0  0  0  0  3  0  0  0  0  0  0
  191.0410  176.6420  137.5200 C   0  0  0  0  0  0  0  0  0  0  0  0
  192.3260  175.6910  135.7480 N   0  0  0  0  0  0  0  0  0  0  0  0
  189.7400  177.6040  139.3280 C   0  0  0  0  0  0  0  0  0  0  0  0
  190.8860  177.5870  140.1430 C   0  0  0  0  0  3  0  0  0  0  0  0
  194.6730  175.1470  135.9950 N   0  0  0  0  0  0  0  0  0  0  0  0
  194.7360  173.9730  135.5760 O   0  0  0  0  0  0  0  0  0  0  0  0
  195.7940  175.9440  135.9410 O   0  0  0  0  0  0  0  0  0  0  0  0
  1 10  1  0  0  0  0
  1 17  1  0  0  0  0
  2 12  2  0  0  0  0
  3 15  2  0  0  0  0
  4  8  2  0  0  0  0
  4  5  1  0  0  0  0
  5  1  2  0  0  0  0
  6  7  1  0  0  0  0
  6 10  2  0  0  0  0
  7 11  1  0  0  0  0
  8  6  1  0  0  0  0
  9  3  1  0  0  0  0
 10  9  1  0  0  0  0
 11  9  2  0  0  0  0
 13 12  1  0  0  0  0
 13 18  1  0  0  0  0
 14 13  2  0  0  0  0
 15  2  1  0  0  0  0
 16 17  2  0  0  0  0
 16 14  1  0  0  0  0
 17 15  1  0  0  0  0
 18 20  1  0  0  0  0
 19 18  2  0  0  0  0
 21  4  1  0  0  0  0
 22 31  1  0  0  0  0
 23 30  1  0  0  0  0
 24 25  2  0  0  0  0
 25 26  1  0  0  0  0
 26 22  2  0  0  0  0
 27 28  1  0  0  0  0
 28 23  2  0  0  0  0
 28 26  1  0  0  0  0
 29 27  2  0  0  0  0
 29 24  1  0  0  0  0
 30 21  1  0  0  0  0
 30 31  2  0  0  0  0
 32 24  1  0  0  0  0
 33 32  2  0  0  0  0
 34 32  2  0  0  0  0
M  END
>  <MODEL>
7

>  <REMARK>
 VINA RESULT:     -10.8      1.416      2.174
  Name = 
  4 active torsions:
  status: ('A' for Active; 'I' for Inactive)
    1  A    between atoms: C_3  and  C_25
    2  A    between atoms: C_7  and  N_11
    3  A    between atoms: C_8  and  O_18
    4  A    between atoms: O_18  and  C_30
                            x       y       z     vdW  Elec       q    Type
                         _______ _______ _______ _____ _____    ______ ____

>  <TORSDO>
F 4

$$$$
=
 OpenBabel10272415273D

 34 39  0  0  0  0  0  0  0  0999 V2000
  188.8980  177.6050  143.7770 C   0  0  0  0  0  0  0  0  0  0  0  0
  191.6960  177.1190  141.3780 C   0  0  0  0  0  3  0  0  0  0  0  0
  191.6510  177.0520  143.6750 C   0  0  0  0  0  3  0  0  0  0  0  0
  186.9120  177.9920  145.3530 C   0  0  0  0  0  0  0  0  0  0  0  0
  187.4110  177.8900  143.9150 C   0  0  0  0  0  3  0  0  0  0  0  0
  189.1590  177.4800  146.1540 C   0  0  0  0  0  0  0  0  0  0  0  0
  190.3800  177.1950  147.4420 S   0  0  0  0  0  0  0  0  0  0  0  0
  187.7410  177.7830  146.3850 C   0  0  0  0  0  3  0  0  0  0  0  0
  190.9880  177.1450  144.8890 C   0  0  0  0  0  0  0  0  0  0  0  0
  189.6520  177.4140  144.9340 C   0  0  0  0  0  0  0  0  0  0  0  0
  191.5940  176.9860  146.1630 N   0  0  0  0  0  0  0  0  0  0  0  0
  191.3780  177.2300  139.9510 C   0  0  0  0  0  3  0  0  0  0  0  0
  190.2200  177.4830  139.3470 C   0  0  0  0  0  0  0  0  0  0  0  0
  188.9480  177.7170  140.0380 C   0  0  0  0  0  3  0  0  0  0  0  0
  190.9440  177.2340  142.4710 C   0  0  0  0  0  0  0  0  0  0  0  0
  188.6750  177.7280  141.3370 C   0  0  0  0  0  3  0  0  0  0  0  0
  189.5410  177.5160  142.5130 C   0  0  0  0  0  0  0  0  0  0  0  0
  190.2140  177.5340  137.8730 C   0  0  0  0  0  0  0  0  0  0  0  0
  189.3890  178.4290  137.2000 O   0  0  0  0  0  0  0  0  0  0  0  0
  190.9570  176.7650  137.2060 O   0  0  0  0  0  1  0  0  0  0  0  0
  185.5670  178.2640  145.6470 O   0  0  0  0  0  0  0  0  0  0  0  0
  182.2050  178.9190  144.1590 C   0  0  0  0  0  3  0  0  0  0  0  0
  184.8390  178.3990  143.3570 C   0  0  0  0  0  3  0  0  0  0  0  0
  181.8630  178.9570  140.4790 C   0  0  0  0  0  0  0  0  0  0  0  0
  181.5250  179.0350  141.8370 C   0  0  0  0  0  3  0  0  0  0  0  0
  182.5170  178.8500  142.8010 C   0  0  0  0  0  0  0  0  0  0  0  0
  184.1380  178.5150  141.0380 C   0  0  0  0  0  3  0  0  0  0  0  0
  183.8410  178.5860  142.3990 C   0  0  0  0  0  0  0  0  0  0  0  0
  183.1520  178.6990  140.1170 N   0  0  0  0  0  0  0  0  0  0  0  0
  184.5340  178.4770  144.7220 C   0  0  0  0  0  0  0  0  0  0  0  0
  183.2080  178.7320  145.1140 C   0  0  0  0  0  3  0  0  0  0  0  0
  180.8600  179.1450  139.4740 N   0  0  0  0  0  0  0  0  0  0  0  0
  180.2310  178.1660  139.0230 O   0  0  0  0  0  0  0  0  0  0  0  0
  180.5800  180.4040  138.9950 O   0  0  0  0  0  0  0  0  0  0  0  0
  1  5  2  0  0  0  0
  1 10  1  0  0  0  0
  2 15  1  0  0  0  0
  3  9  1  0  0  0  0
  4 21  1  0  0  0  0
  4  8  2  0  0  0  0
  5  4  1  0  0  0  0
  6  8  1  0  0  0  0
  6  7  1  0  0  0  0
  9 10  1  0  0  0  0
  9 11  2  0  0  0  0
 10  6  2  0  0  0  0
 11  7  1  0  0  0  0
 12  2  2  0  0  0  0
 13 12  1  0  0  0  0
 13 14  2  0  0  0  0
 14 16  1  0  0  0  0
 15 17  1  0  0  0  0
 15  3  2  0  0  0  0
 16 17  2  0  0  0  0
 17  1  1  0  0  0  0
 18 13  1  0  0  0  0
 19 18  2  0  0  0  0
 20 18  1  0  0  0  0
 22 31  1  0  0  0  0
 23 30  1  0  0  0  0
 24 25  2  0  0  0  0
 25 26  1  0  0  0  0
 26 22  2  0  0  0  0
 27 28  1  0  0  0  0
 28 26  1  0  0  0  0
 28 23  2  0  0  0  0
 29 24  1  0  0  0  0
 29 27  2  0  0  0  0
 30 31  2  0  0  0  0
 30 21  1  0  0  0  0
 32 24  1  0  0  0  0
 33 32  2  0  0  0  0
 34 32  2  0  0  0  0
M  END
>  <MODEL>
8

>  <REMARK>
 VINA RESULT:     -10.5      3.492      8.040
  Name = 
  4 active torsions:
  status: ('A' for Active; 'I' for Inactive)
    1  A    between atoms: C_3  and  C_25
    2  A    between atoms: C_7  and  N_11
    3  A    between atoms: C_8  and  O_18
    4  A    between atoms: O_18  and  C_30
                            x       y       z     vdW  Elec       q    Type
                         _______ _______ _______ _____ _____    ______ ____

>  <TORSDO>
F 4

$$$$
=
 OpenBabel10272415273D

 34 39  0  0  0  0  0  0  0  0999 V2000
  187.6560  177.9460  142.7090 C   0  0  0  0  0  0  0  0  0  0  0  0
  185.0460  178.2250  145.3420 C   0  0  0  0  0  3  0  0  0  0  0  0
  187.2870  177.7340  145.4870 C   0  0  0  0  0  3  0  0  0  0  0  0
  189.3780  177.7410  140.8190 C   0  0  0  0  0  0  0  0  0  0  0  0
  187.9390  178.0540  141.2200 C   0  0  0  0  0  3  0  0  0  0  0  0
  189.9440  177.4070  143.1690 C   0  0  0  0  0  0  0  0  0  0  0  0
  191.0770  177.0220  144.5100 S   0  0  0  0  0  0  0  0  0  0  0  0
  190.3030  177.4550  141.7460 C   0  0  0  0  0  3  0  0  0  0  0  0
  188.5350  177.5300  144.9170 C   0  0  0  0  0  0  0  0  0  0  0  0
  188.7090  177.6340  143.5690 C   0  0  0  0  0  0  0  0  0  0  0  0
  189.7140  177.1990  145.6340 N   0  0  0  0  0  0  0  0  0  0  0  0
  183.6890  178.5580  144.9020 C   0  0  0  0  0  3  0  0  0  0  0  0
  183.2140  178.7880  143.6800 C   0  0  0  0  0  0  0  0  0  0  0  0
  184.0120  178.7480  142.4500 C   0  0  0  0  0  3  0  0  0  0  0  0
  186.1850  178.0530  144.6710 C   0  0  0  0  0  0  0  0  0  0  0  0
  185.3030  178.4920  142.2810 C   0  0  0  0  0  3  0  0  0  0  0  0
  186.3630  178.1650  143.2550 C   0  0  0  0  0  0  0  0  0  0  0  0
  181.7790  179.1050  143.5510 C   0  0  0  0  0  0  0  0  0  0  0  0
  181.3240  179.9120  142.5130 O   0  0  0  0  0  0  0  0  0  0  0  0
  180.9480  178.6480  144.3820 O   0  0  0  0  0  1  0  0  0  0  0  0
  189.7940  177.7830  139.4790 O   0  0  0  0  0  0  0  0  0  0  0  0
  190.1050  174.7320  137.3490 C   0  0  0  0  0  3  0  0  0  0  0  0
  191.7240  176.5800  138.6960 C   0  0  0  0  0  3  0  0  0  0  0  0
  193.4800  173.4410  136.5700 C   0  0  0  0  0  0  0  0  0  0  0  0
  192.0830  173.5540  136.5960 C   0  0  0  0  0  3  0  0  0  0  0  0
  191.4940  174.6000  137.3050 C   0  0  0  0  0  0  0  0  0  0  0  0
  193.6930  175.3830  137.9350 C   0  0  0  0  0  3  0  0  0  0  0  0
  192.3070  175.5290  137.9840 C   0  0  0  0  0  0  0  0  0  0  0  0
  194.2440  174.3530  137.2370 N   0  0  0  0  0  0  0  0  0  0  0  0
  190.3320  176.7230  138.7360 C   0  0  0  0  0  0  0  0  0  0  0  0
  189.5280  175.7860  138.0620 C   0  0  0  0  0  3  0  0  0  0  0  0
  194.1040  172.3740  135.8480 N   0  0  0  0  0  0  0  0  0  0  0  0
  195.1760  172.5700  135.2390 O   0  0  0  0  0  0  0  0  0  0  0  0
  193.5310  171.1230  135.8170 O   0  0  0  0  0  0  0  0  0  0  0  0
  1 17  1  0  0  0  0
  1 10  1  0  0  0  0
  4  5  1  0  0  0  0
  4  8  2  0  0  0  0
  5  1  2  0  0  0  0
  6 10  2  0  0  0  0
  6  7  1  0  0  0  0
  7 11  1  0  0  0  0
  8  6  1  0  0  0  0
  9  3  1  0  0  0  0
  9 11  2  0  0  0  0
 10  9  1  0  0  0  0
 12  2  2  0  0  0  0
 13 12  1  0  0  0  0
 14 13  2  0  0  0  0
 15  2  1  0  0  0  0
 15  3  2  0  0  0  0
 16 14  1  0  0  0  0
 16 17  2  0  0  0  0
 17 15  1  0  0  0  0
 18 13  1  0  0  0  0
 18 20  1  0  0  0  0
 19 18  2  0  0  0  0
 21  4  1  0  0  0  0
 22 31  1  0  0  0  0
 23 30  1  0  0  0  0
 24 25  2  0  0  0  0
 24 29  1  0  0  0  0
 25 26  1  0  0  0  0
 26 22  2  0  0  0  0
 26 28  1  0  0  0  0
 27 28  1  0  0  0  0
 28 23  2  0  0  0  0
 29 27  2  0  0  0  0
 30 21  1  0  0  0  0
 31 30  2  0  0  0  0
 32 24  1  0  0  0  0
 33 32  2  0  0  0  0
 34 32  2  0  0  0  0
M  END
>  <MODEL>
9

>  <REMARK>
 VINA RESULT:     -10.2      3.387      5.474
  Name = 
  4 active torsions:
  status: ('A' for Active; 'I' for Inactive)
    1  A    between atoms: C_3  and  C_25
    2  A    between atoms: C_7  and  N_11
    3  A    between atoms: C_8  and  O_18
    4  A    between atoms: O_18  and  C_30
                            x       y       z     vdW  Elec       q    Type
                         _______ _______ _______ _____ _____    ______ ____

>  <TORSDO>
F 4

$$$$
