=
 OpenBabel10272415193D

 34 39  0  0  0  0  0  0  0  0999 V2000
  184.0610  178.6610  141.8200 C   0  0  0  0  0  0  0  0  0  0  0  0
  185.2940  178.3530  138.2810 C   0  0  0  0  0  3  0  0  0  0  0  0
  182.8620  178.5210  139.0720 S   0  0  0  0  0  0  0  0  0  0  0  0
  183.5370  178.8540  144.2290 C   0  0  0  0  0  0  0  0  0  0  0  0
  184.4760  178.7350  143.1740 C   0  0  0  0  0  3  0  0  0  0  0  0
  181.7610  178.8200  142.6250 C   0  0  0  0  0  0  0  0  0  0  0  0
  180.5090  178.8340  142.0340 C   0  0  0  0  0  3  0  0  0  0  0  0
  182.1530  178.8930  143.9570 C   0  0  0  0  0  3  0  0  0  0  0  0
  182.0130  178.6620  140.5060 C   0  0  0  0  0  0  0  0  0  0  0  0
  182.6720  178.7110  141.6230 C   0  0  0  0  0  0  0  0  0  0  0  0
  180.6760  178.7330  140.6860 N   0  0  0  0  0  0  0  0  0  0  0  0
  186.7440  178.2720  138.0890 C   0  0  0  0  0  3  0  0  0  0  0  0
  187.7280  178.2880  138.9840 C   0  0  0  0  0  0  0  0  0  0  0  0
  187.5350  178.3980  140.4320 C   0  0  0  0  0  3  0  0  0  0  0  0
  184.5420  178.4660  139.3760 C   0  0  0  0  0  0  0  0  0  0  0  0
  186.4160  178.5010  141.1390 C   0  0  0  0  0  3  0  0  0  0  0  0
  184.9930  178.5400  140.7340 C   0  0  0  0  0  0  0  0  0  0  0  0
  189.1180  178.1890  138.4900 C   0  0  0  0  0  0  0  0  0  0  0  0
  189.4190  178.5890  137.3330 O   0  0  0  0  0  0  0  0  0  0  0  0
  190.1390  177.6360  139.3180 N   0  0  0  0  0  1  0  0  0  0  0  0
  184.0140  178.9000  145.6410 C   0  0  0  0  0  2  0  0  0  0  0  0
  187.3320  177.3060  144.7360 C   0  0  0  0  0  3  0  0  0  0  0  0
  186.1360  178.5810  146.9300 C   0  0  0  0  0  3  0  0  0  0  0  0
  190.0830  177.1570  147.2160 C   0  0  0  0  0  0  0  0  0  0  0  0
  189.3620  176.9970  146.0230 C   0  0  0  0  0  3  0  0  0  0  0  0
  188.0510  177.4680  145.9230 C   0  0  0  0  0  0  0  0  0  0  0  0
  188.1660  178.2690  148.2170 C   0  0  0  0  0  3  0  0  0  0  0  0
  187.4490  178.1100  147.0290 C   0  0  0  0  0  0  0  0  0  0  0  0
  189.4780  177.7950  148.3080 C   0  0  0  0  0  3  0  0  0  0  0  0
  185.4230  178.4200  145.7370 C   0  0  0  0  0  0  0  0  0  0  0  0
  186.0200  177.7800  144.6440 C   0  0  0  0  0  3  0  0  0  0  0  0
  191.4640  176.6580  147.3130 C   0  0  0  0  0  0  0  0  0  0  0  0
  191.9260  175.8820  146.4340 O   0  0  0  0  0  0  0  0  0  0  0  0
  192.2740  177.0400  148.3760 O   0  0  0  0  0  1  0  0  0  0  0  0
  1  5  1  0  0  0  0
  2 15  2  0  0  0  0
  3 15  1  0  0  0  0
  3  9  1  0  0  0  0
  4 21  1  0  0  0  0
  5  4  2  0  0  0  0
  6  8  2  0  0  0  0
  7  6  1  0  0  0  0
  8  4  1  0  0  0  0
  9 11  1  0  0  0  0
  9 10  2  0  0  0  0
 10  1  1  0  0  0  0
 10  6  1  0  0  0  0
 11  7  2  0  0  0  0
 12  2  1  0  0  0  0
 12 13  2  0  0  0  0
 13 14  1  0  0  0  0
 14 16  2  0  0  0  0
 15 17  1  0  0  0  0
 17 16  1  0  0  0  0
 17  1  2  0  0  0  0
 18 13  1  0  0  0  0
 18 20  1  0  0  0  0
 19 18  2  0  0  0  0
 21 30  1  0  0  0  0
 22 26  1  0  0  0  0
 23 28  1  0  0  0  0
 24 32  1  0  0  0  0
 24 29  1  0  0  0  0
 25 24  2  0  0  0  0
 26 25  1  0  0  0  0
 26 28  2  0  0  0  0
 27 29  2  0  0  0  0
 28 27  1  0  0  0  0
 30 23  2  0  0  0  0
 31 22  2  0  0  0  0
 31 30  1  0  0  0  0
 32 34  1  0  0  0  0
 33 32  2  0  0  0  0
M  END
>  <MODEL>
1

>  <REMARK>
 VINA RESULT:     -12.8      0.000      0.000
  Name = 
  4 active torsions:
  status: ('A' for Active; 'I' for Inactive)
    1  A    between atoms: C_3  and  C_25
    2  A    between atoms: C_7  and  C_11
    3  A    between atoms: C_8  and  C_18
    4  A    between atoms: C_18  and  C_30
                            x       y       z     vdW  Elec       q    Type
                         _______ _______ _______ _____ _____    ______ ____

>  <TORSDO>
F 4

$$$$
=
 OpenBabel10272415193D

 34 39  0  0  0  0  0  0  0  0999 V2000
  189.0210  177.6270  144.1930 C   0  0  0  0  0  0  0  0  0  0  0  0
  190.9720  177.2150  141.0050 C   0  0  0  0  0  3  0  0  0  0  0  0
  191.7390  176.6440  143.3820 S   0  0  0  0  0  0  0  0  0  0  0  0
  187.5180  178.0060  146.1190 C   0  0  0  0  0  0  0  0  0  0  0  0
  187.7810  178.0600  144.7280 C   0  0  0  0  0  3  0  0  0  0  0  0
  189.7050  177.1030  146.4780 C   0  0  0  0  0  0  0  0  0  0  0  0
  190.8450  176.5870  147.0710 C   0  0  0  0  0  3  0  0  0  0  0  0
  188.4950  177.5240  147.0170 C   0  0  0  0  0  3  0  0  0  0  0  0
  191.1430  176.7030  144.9440 C   0  0  0  0  0  0  0  0  0  0  0  0
  189.9430  177.1550  145.1410 C   0  0  0  0  0  0  0  0  0  0  0  0
  191.7560  176.3350  146.0910 N   0  0  0  0  0  0  0  0  0  0  0  0
  190.3070  177.6200  139.7640 C   0  0  0  0  0  3  0  0  0  0  0  0
  189.0910  178.1240  139.5690 C   0  0  0  0  0  0  0  0  0  0  0  0
  188.1200  178.3900  140.6340 C   0  0  0  0  0  3  0  0  0  0  0  0
  190.5750  177.2290  142.2770 C   0  0  0  0  0  0  0  0  0  0  0  0
  188.2160  178.2030  141.9440 C   0  0  0  0  0  3  0  0  0  0  0  0
  189.3110  177.6720  142.7870 C   0  0  0  0  0  0  0  0  0  0  0  0
  188.6840  178.4410  138.1840 C   0  0  0  0  0  0  0  0  0  0  0  0
  188.9490  179.5650  137.6780 O   0  0  0  0  0  0  0  0  0  0  0  0
  187.9840  177.4780  137.4000 N   0  0  0  0  0  1  0  0  0  0  0  0
  186.2130  178.4980  146.6450 C   0  0  0  0  0  2  0  0  0  0  0  0
  182.9160  178.9570  144.8290 C   0  0  0  0  0  3  0  0  0  0  0  0
  185.5850  178.3350  144.2270 C   0  0  0  0  0  3  0  0  0  0  0  0
  182.7180  178.5180  141.1540 C   0  0  0  0  0  0  0  0  0  0  0  0
  182.3430  178.7690  142.4820 C   0  0  0  0  0  3  0  0  0  0  0  0
  183.2910  178.7100  143.5060 C   0  0  0  0  0  0  0  0  0  0  0  0
  185.0090  178.1450  141.8800 C   0  0  0  0  0  3  0  0  0  0  0  0
  184.6360  178.3960  143.2020 C   0  0  0  0  0  0  0  0  0  0  0  0
  184.0540  178.2070  140.8620 C   0  0  0  0  0  3  0  0  0  0  0  0
  185.2040  178.5890  145.5490 C   0  0  0  0  0  0  0  0  0  0  0  0
  183.8710  178.8950  145.8490 C   0  0  0  0  0  3  0  0  0  0  0  0
  181.7130  178.5830  140.0810 C   0  0  0  0  0  0  0  0  0  0  0  0
  181.0530  177.5580  139.7630 O   0  0  0  0  0  1  0  0  0  0  0  0
  181.4820  179.7760  139.4090 O   0  0  0  0  0  0  0  0  0  0  0  0
  1  5  1  0  0  0  0
  1 10  1  0  0  0  0
  2 15  2  0  0  0  0
  3  9  1  0  0  0  0
  4 21  1  0  0  0  0
  4  8  1  0  0  0  0
  5  4  2  0  0  0  0
  6  8  2  0  0  0  0
  6  7  1  0  0  0  0
  9 10  2  0  0  0  0
  9 11  1  0  0  0  0
 10  6  1  0  0  0  0
 11  7  2  0  0  0  0
 12  2  1  0  0  0  0
 13 12  2  0  0  0  0
 13 14  1  0  0  0  0
 14 16  2  0  0  0  0
 15 17  1  0  0  0  0
 15  3  1  0  0  0  0
 16 17  1  0  0  0  0
 17  1  2  0  0  0  0
 18 13  1  0  0  0  0
 19 18  2  0  0  0  0
 20 18  1  0  0  0  0
 22 31  1  0  0  0  0
 23 30  1  0  0  0  0
 24 25  2  0  0  0  0
 25 26  1  0  0  0  0
 26 22  2  0  0  0  0
 27 28  1  0  0  0  0
 28 26  1  0  0  0  0
 28 23  2  0  0  0  0
 29 24  1  0  0  0  0
 29 27  2  0  0  0  0
 30 31  2  0  0  0  0
 30 21  1  0  0  0  0
 32 24  1  0  0  0  0
 33 32  1  0  0  0  0
 34 32  2  0  0  0  0
M  END
>  <MODEL>
2

>  <REMARK>
 VINA RESULT:     -12.4      3.617      7.319
  Name = 
  4 active torsions:
  status: ('A' for Active; 'I' for Inactive)
    1  A    between atoms: C_3  and  C_25
    2  A    between atoms: C_7  and  C_11
    3  A    between atoms: C_8  and  C_18
    4  A    between atoms: C_18  and  C_30
                            x       y       z     vdW  Elec       q    Type
                         _______ _______ _______ _____ _____    ______ ____

>  <TORSDO>
F 4

$$$$
=
 OpenBabel10272415193D

 34 39  0  0  0  0  0  0  0  0999 V2000
  185.2080  178.5330  141.9270 C   0  0  0  0  0  0  0  0  0  0  0  0
  187.3660  178.0570  138.8840 C   0  0  0  0  0  3  0  0  0  0  0  0
  184.8400  178.4860  138.9470 S   0  0  0  0  0  0  0  0  0  0  0  0
  184.0380  178.8080  144.0870 C   0  0  0  0  0  0  0  0  0  0  0  0
  185.2220  178.5790  143.3440 C   0  0  0  0  0  3  0  0  0  0  0  0
  182.8030  178.9400  142.0410 C   0  0  0  0  0  0  0  0  0  0  0  0
  181.7820  179.0770  141.1170 C   0  0  0  0  0  3  0  0  0  0  0  0
  182.8020  178.9870  143.4310 C   0  0  0  0  0  3  0  0  0  0  0  0
  183.6350  178.7310  140.0810 C   0  0  0  0  0  0  0  0  0  0  0  0
  183.9470  178.7250  141.3400 C   0  0  0  0  0  0  0  0  0  0  0  0
  182.3170  178.9430  139.8720 N   0  0  0  0  0  0  0  0  0  0  0  0
  188.7940  177.8230  139.1140 C   0  0  0  0  0  3  0  0  0  0  0  0
  189.4770  177.7470  140.2530 C   0  0  0  0  0  0  0  0  0  0  0  0
  188.8880  177.8930  141.5870 C   0  0  0  0  0  3  0  0  0  0  0  0
  186.3480  178.2600  139.7200 C   0  0  0  0  0  0  0  0  0  0  0  0
  187.6300  178.1200  141.9460 C   0  0  0  0  0  3  0  0  0  0  0  0
  186.3950  178.3030  141.1510 C   0  0  0  0  0  0  0  0  0  0  0  0
  190.9310  177.4990  140.1770 C   0  0  0  0  0  0  0  0  0  0  0  0
  191.4580  177.0890  139.1070 O   0  0  0  0  0  0  0  0  0  0  0  0
  191.7610  177.7180  141.3150 N   0  0  0  0  0  1  0  0  0  0  0  0
  184.0910  178.8190  145.5770 C   0  0  0  0  0  2  0  0  0  0  0  0
  187.1420  178.4990  147.8050 C   0  0  0  0  0  3  0  0  0  0  0  0
  186.3520  177.8100  145.2020 C   0  0  0  0  0  3  0  0  0  0  0  0
  190.2270  176.8770  146.5430 C   0  0  0  0  0  0  0  0  0  0  0  0
  189.3260  177.5320  147.3960 C   0  0  0  0  0  3  0  0  0  0  0  0
  188.0380  177.8440  146.9550 C   0  0  0  0  0  0  0  0  0  0  0  0
  188.5370  176.8460  144.7940 C   0  0  0  0  0  3  0  0  0  0  0  0
  187.6400  177.4970  145.6440 C   0  0  0  0  0  0  0  0  0  0  0  0
  189.8240  176.5370  145.2430 C   0  0  0  0  0  3  0  0  0  0  0  0
  185.4580  178.4620  146.0590 C   0  0  0  0  0  0  0  0  0  0  0  0
  185.8550  178.8090  147.3560 C   0  0  0  0  0  3  0  0  0  0  0  0
  191.5820  176.5510  147.0150 C   0  0  0  0  0  0  0  0  0  0  0  0
  192.3100  175.7550  146.3640 O   0  0  0  0  0  0  0  0  0  0  0  0
  192.0740  177.1210  148.1830 O   0  0  0  0  0  1  0  0  0  0  0  0
  1  5  1  0  0  0  0
  2 12  1  0  0  0  0
  2 15  2  0  0  0  0
  3 15  1  0  0  0  0
  3  9  1  0  0  0  0
  4 21  1  0  0  0  0
  5  4  2  0  0  0  0
  6  8  2  0  0  0  0
  7  6  1  0  0  0  0
  8  4  1  0  0  0  0
  9 10  2  0  0  0  0
 10  1  1  0  0  0  0
 10  6  1  0  0  0  0
 11  9  1  0  0  0  0
 11  7  2  0  0  0  0
 12 13  2  0  0  0  0
 13 14  1  0  0  0  0
 14 16  2  0  0  0  0
 15 17  1  0  0  0  0
 17  1  2  0  0  0  0
 17 16  1  0  0  0  0
 18 13  1  0  0  0  0
 18 20  1  0  0  0  0
 19 18  2  0  0  0  0
 21 30  1  0  0  0  0
 23 28  2  0  0  0  0
 23 30  1  0  0  0  0
 24 32  1  0  0  0  0
 24 25  2  0  0  0  0
 26 25  1  0  0  0  0
 26 22  2  0  0  0  0
 27 29  2  0  0  0  0
 27 28  1  0  0  0  0
 28 26  1  0  0  0  0
 29 24  1  0  0  0  0
 30 31  2  0  0  0  0
 31 22  1  0  0  0  0
 32 34  1  0  0  0  0
 33 32  2  0  0  0  0
M  END
>  <MODEL>
3

>  <REMARK>
 VINA RESULT:     -12.0      1.263      1.900
  Name = 
  4 active torsions:
  status: ('A' for Active; 'I' for Inactive)
    1  A    between atoms: C_3  and  C_25
    2  A    between atoms: C_7  and  C_11
    3  A    between atoms: C_8  and  C_18
    4  A    between atoms: C_18  and  C_30
                            x       y       z     vdW  Elec       q    Type
                         _______ _______ _______ _____ _____    ______ ____

>  <TORSDO>
F 4

$$$$
=
 OpenBabel10272415193D

 34 39  0  0  0  0  0  0  0  0999 V2000
  187.3100  177.8360  144.8330 C   0  0  0  0  0  0  0  0  0  0  0  0
  183.7090  178.8340  145.2530 C   0  0  0  0  0  3  0  0  0  0  0  0
  185.4750  178.5740  147.0920 S   0  0  0  0  0  0  0  0  0  0  0  0
  189.6200  177.1620  144.2660 C   0  0  0  0  0  0  0  0  0  0  0  0
  188.2920  177.4670  143.8790 C   0  0  0  0  0  3  0  0  0  0  0  0
  189.0280  177.5720  146.5480 C   0  0  0  0  0  0  0  0  0  0  0  0
  189.0760  177.7120  147.9240 C   0  0  0  0  0  3  0  0  0  0  0  0
  190.0010  177.2080  145.6230 C   0  0  0  0  0  3  0  0  0  0  0  0
  187.0900  178.1640  147.2350 C   0  0  0  0  0  0  0  0  0  0  0  0
  187.7600  177.8670  146.1630 C   0  0  0  0  0  0  0  0  0  0  0  0
  187.8410  178.0880  148.3560 N   0  0  0  0  0  0  0  0  0  0  0  0
  182.8960  178.9100  144.0370 C   0  0  0  0  0  3  0  0  0  0  0  0
  183.2280  178.6790  142.7690 C   0  0  0  0  0  0  0  0  0  0  0  0
  184.5620  178.2740  142.3190 C   0  0  0  0  0  3  0  0  0  0  0  0
  184.9880  178.5190  145.4550 C   0  0  0  0  0  0  0  0  0  0  0  0
  185.6720  178.0610  143.0170 C   0  0  0  0  0  3  0  0  0  0  0  0
  185.9580  178.1510  144.4660 C   0  0  0  0  0  0  0  0  0  0  0  0
  182.1830  178.8380  141.7370 C   0  0  0  0  0  0  0  0  0  0  0  0
  181.0300  179.2420  142.0470 O   0  0  0  0  0  0  0  0  0  0  0  0
  182.4650  178.5350  140.3730 N   0  0  0  0  0  1  0  0  0  0  0  0
  190.6140  176.7490  143.2340 C   0  0  0  0  0  2  0  0  0  0  0  0
  188.6610  178.3950  140.4320 C   0  0  0  0  0  3  0  0  0  0  0  0
  190.6610  176.4530  140.7480 C   0  0  0  0  0  3  0  0  0  0  0  0
  189.2460  177.4140  136.9060 C   0  0  0  0  0  0  0  0  0  0  0  0
  188.7200  178.0640  138.0320 C   0  0  0  0  0  3  0  0  0  0  0  0
  189.1870  177.7480  139.3100 C   0  0  0  0  0  0  0  0  0  0  0  0
  190.7170  176.1210  138.3480 C   0  0  0  0  0  3  0  0  0  0  0  0
  190.1950  176.7700  139.4690 C   0  0  0  0  0  0  0  0  0  0  0  0
  190.2450  176.4430  137.0730 C   0  0  0  0  0  3  0  0  0  0  0  0
  190.1340  177.1070  141.8670 C   0  0  0  0  0  0  0  0  0  0  0  0
  189.1330  178.0720  141.7090 C   0  0  0  0  0  3  0  0  0  0  0  0
  188.7490  177.7510  135.5630 C   0  0  0  0  0  0  0  0  0  0  0  0
  189.5110  177.6740  134.5620 O   0  0  0  0  0  0  0  0  0  0  0  0
  187.4320  178.1580  135.3840 O   0  0  0  0  0  1  0  0  0  0  0  0
  1 10  1  0  0  0  0
  2 15  2  0  0  0  0
  3  9  1  0  0  0  0
  4  8  1  0  0  0  0
  5  4  2  0  0  0  0
  5  1  1  0  0  0  0
  6  7  1  0  0  0  0
  7 11  2  0  0  0  0
  8  6  2  0  0  0  0
  9 11  1  0  0  0  0
 10  6  1  0  0  0  0
 10  9  2  0  0  0  0
 12  2  1  0  0  0  0
 13 12  2  0  0  0  0
 14 13  1  0  0  0  0
 14 16  2  0  0  0  0
 15  3  1  0  0  0  0
 16 17  1  0  0  0  0
 17  1  2  0  0  0  0
 17 15  1  0  0  0  0
 18 19  2  0  0  0  0
 18 13  1  0  0  0  0
 20 18  1  0  0  0  0
 21  4  1  0  0  0  0
 22 31  1  0  0  0  0
 23 30  1  0  0  0  0
 24 29  1  0  0  0  0
 24 25  2  0  0  0  0
 25 26  1  0  0  0  0
 26 28  1  0  0  0  0
 26 22  2  0  0  0  0
 27 28  1  0  0  0  0
 28 23  2  0  0  0  0
 29 27  2  0  0  0  0
 30 21  1  0  0  0  0
 31 30  2  0  0  0  0
 32 24  1  0  0  0  0
 33 32  2  0  0  0  0
 34 32  1  0  0  0  0
M  END
>  <MODEL>
4

>  <REMARK>
 VINA RESULT:     -11.9      3.901      8.133
  Name = 
  4 active torsions:
  status: ('A' for Active; 'I' for Inactive)
    1  A    between atoms: C_3  and  C_25
    2  A    between atoms: C_7  and  C_11
    3  A    between atoms: C_8  and  C_18
    4  A    between atoms: C_18  and  C_30
                            x       y       z     vdW  Elec       q    Type
                         _______ _______ _______ _____ _____    ______ ____

>  <TORSDO>
F 4

$$$$
=
 OpenBabel10272415193D

 34 39  0  0  0  0  0  0  0  0999 V2000
  186.4890  178.1720  144.0090 C   0  0  0  0  0  0  0  0  0  0  0  0
  187.9470  177.5280  147.4150 C   0  0  0  0  0  3  0  0  0  0  0  0
  185.5690  178.3090  146.8640 S   0  0  0  0  0  0  0  0  0  0  0  0
  185.7960  178.5180  141.6620 C   0  0  0  0  0  0  0  0  0  0  0  0
  186.7750  178.1580  142.6210 C   0  0  0  0  0  3  0  0  0  0  0  0
  184.2370  178.9180  143.4320 C   0  0  0  0  0  0  0  0  0  0  0  0
  183.0940  179.2430  144.1420 C   0  0  0  0  0  3  0  0  0  0  0  0
  184.5040  178.9100  142.0670 C   0  0  0  0  0  3  0  0  0  0  0  0
  184.6460  178.6730  145.5180 C   0  0  0  0  0  0  0  0  0  0  0  0
  185.1820  178.5660  144.3410 C   0  0  0  0  0  0  0  0  0  0  0  0
  183.3600  179.0850  145.4690 N   0  0  0  0  0  0  0  0  0  0  0  0
  189.3430  177.0860  147.4660 C   0  0  0  0  0  3  0  0  0  0  0  0
  190.2080  176.8670  146.4790 C   0  0  0  0  0  0  0  0  0  0  0  0
  189.9080  177.0400  145.0560 C   0  0  0  0  0  3  0  0  0  0  0  0
  187.1440  177.8370  146.3970 C   0  0  0  0  0  0  0  0  0  0  0  0
  188.7860  177.4250  144.4590 C   0  0  0  0  0  3  0  0  0  0  0  0
  187.4640  177.8120  145.0010 C   0  0  0  0  0  0  0  0  0  0  0  0
  191.5700  176.4180  146.8360 C   0  0  0  0  0  0  0  0  0  0  0  0
  192.2300  175.6830  146.0530 O   0  0  0  0  0  0  0  0  0  0  0  0
  192.1570  176.8100  148.0740 N   0  0  0  0  0  1  0  0  0  0  0  0
  186.1470  178.5190  140.2120 C   0  0  0  0  0  2  0  0  0  0  0  0
  189.8410  177.9740  140.8680 C   0  0  0  0  0  3  0  0  0  0  0  0
  187.9980  177.6250  138.7820 C   0  0  0  0  0  3  0  0  0  0  0  0
  192.0400  176.6120  138.2130 C   0  0  0  0  0  0  0  0  0  0  0  0
  191.6100  177.1240  139.4460 C   0  0  0  0  0  3  0  0  0  0  0  0
  190.2680  177.4620  139.6400 C   0  0  0  0  0  0  0  0  0  0  0  0
  189.7680  176.7780  137.3600 C   0  0  0  0  0  3  0  0  0  0  0  0
  189.3400  177.2860  138.5890 C   0  0  0  0  0  0  0  0  0  0  0  0
  191.1120  176.4420  137.1750 C   0  0  0  0  0  3  0  0  0  0  0  0
  187.5750  178.1330  140.0150 C   0  0  0  0  0  0  0  0  0  0  0  0
  188.4960  178.3110  141.0540 C   0  0  0  0  0  3  0  0  0  0  0  0
  193.4550  176.2590  138.0160 C   0  0  0  0  0  0  0  0  0  0  0  0
  194.1440  175.8240  138.9780 O   0  0  0  0  0  1  0  0  0  0  0  0
  194.0450  176.3990  136.7660 O   0  0  0  0  0  0  0  0  0  0  0  0
  1 10  1  0  0  0  0
  1 17  2  0  0  0  0
  2 12  1  0  0  0  0
  4  8  1  0  0  0  0
  4  5  2  0  0  0  0
  5  1  1  0  0  0  0
  6  7  1  0  0  0  0
  6 10  1  0  0  0  0
  7 11  2  0  0  0  0
  8  6  2  0  0  0  0
  9  3  1  0  0  0  0
 10  9  2  0  0  0  0
 11  9  1  0  0  0  0
 13 18  1  0  0  0  0
 13 12  2  0  0  0  0
 14 13  1  0  0  0  0
 15  3  1  0  0  0  0
 15  2  2  0  0  0  0
 16 17  1  0  0  0  0
 16 14  2  0  0  0  0
 17 15  1  0  0  0  0
 18 20  1  0  0  0  0
 19 18  2  0  0  0  0
 21  4  1  0  0  0  0
 22 31  1  0  0  0  0
 23 30  1  0  0  0  0
 24 25  2  0  0  0  0
 25 26  1  0  0  0  0
 26 22  2  0  0  0  0
 27 28  1  0  0  0  0
 28 23  2  0  0  0  0
 28 26  1  0  0  0  0
 29 27  2  0  0  0  0
 29 24  1  0  0  0  0
 30 21  1  0  0  0  0
 30 31  2  0  0  0  0
 32 24  1  0  0  0  0
 32 33  1  0  0  0  0
 34 32  2  0  0  0  0
M  END
>  <MODEL>
5

>  <REMARK>
 VINA RESULT:     -11.9      3.067      7.295
  Name = 
  4 active torsions:
  status: ('A' for Active; 'I' for Inactive)
    1  A    between atoms: C_3  and  C_25
    2  A    between atoms: C_7  and  C_11
    3  A    between atoms: C_8  and  C_18
    4  A    between atoms: C_18  and  C_30
                            x       y       z     vdW  Elec       q    Type
                         _______ _______ _______ _____ _____    ______ ____

>  <TORSDO>
F 4

$$$$
=
 OpenBabel10272415193D

 34 39  0  0  0  0  0  0  0  0999 V2000
  187.7540  177.8610  145.0260 C   0  0  0  0  0  0  0  0  0  0  0  0
  190.8360  176.7230  143.1970 C   0  0  0  0  0  3  0  0  0  0  0  0
  190.5090  176.9000  145.7330 S   0  0  0  0  0  0  0  0  0  0  0  0
  185.6040  178.6480  145.9600 C   0  0  0  0  0  0  0  0  0  0  0  0
  186.4280  178.3310  144.8510 C   0  0  0  0  0  3  0  0  0  0  0  0
  187.3930  178.0510  147.4340 C   0  0  0  0  0  0  0  0  0  0  0  0
  188.1520  177.8100  148.5660 C   0  0  0  0  0  3  0  0  0  0  0  0
  186.0900  178.5130  147.2770 C   0  0  0  0  0  3  0  0  0  0  0  0
  189.3190  177.3490  146.8180 C   0  0  0  0  0  0  0  0  0  0  0  0
  188.1700  177.7450  146.3620 C   0  0  0  0  0  0  0  0  0  0  0  0
  189.3760  177.3640  148.1680 N   0  0  0  0  0  0  0  0  0  0  0  0
  190.7730  176.7120  141.7340 C   0  0  0  0  0  3  0  0  0  0  0  0
  189.7770  177.0480  140.9170 C   0  0  0  0  0  0  0  0  0  0  0  0
  188.4640  177.5260  141.3590 C   0  0  0  0  0  3  0  0  0  0  0  0
  189.9450  177.0620  144.1280 C   0  0  0  0  0  0  0  0  0  0  0  0
  187.9940  177.7210  142.5850 C   0  0  0  0  0  3  0  0  0  0  0  0
  188.6080  177.5330  143.9190 C   0  0  0  0  0  0  0  0  0  0  0  0
  190.0030  176.9330  139.4620 C   0  0  0  0  0  0  0  0  0  0  0  0
  190.3970  175.8470  138.9560 O   0  0  0  0  0  0  0  0  0  0  0  0
  189.7790  178.0520  138.6070 N   0  0  0  0  0  1  0  0  0  0  0  0
  184.2250  179.1670  145.7320 C   0  0  0  0  0  2  0  0  0  0  0  0
  182.1240  178.4030  142.6700 C   0  0  0  0  0  3  0  0  0  0  0  0
  184.7610  179.1370  143.2870 C   0  0  0  0  0  3  0  0  0  0  0  0
  183.6260  178.5250  139.2830 C   0  0  0  0  0  0  0  0  0  0  0  0
  182.6870  178.3640  140.3130 C   0  0  0  0  0  3  0  0  0  0  0  0
  183.0590  178.5670  141.6440 C   0  0  0  0  0  0  0  0  0  0  0  0
  185.3230  179.0950  140.9300 C   0  0  0  0  0  3  0  0  0  0  0  0
  184.3880  178.9360  141.9550 C   0  0  0  0  0  0  0  0  0  0  0  0
  184.9430  178.8910  139.6000 C   0  0  0  0  0  3  0  0  0  0  0  0
  183.8190  178.9770  144.3090 C   0  0  0  0  0  0  0  0  0  0  0  0
  182.5050  178.6070  144.0000 C   0  0  0  0  0  3  0  0  0  0  0  0
  183.2260  178.3100  137.8840 C   0  0  0  0  0  0  0  0  0  0  0  0
  183.9380  177.6070  137.1180 O   0  0  0  0  0  0  0  0  0  0  0  0
  182.0580  178.8810  137.3930 O   0  0  0  0  0  1  0  0  0  0  0  0
  1 10  1  0  0  0  0
  2 15  2  0  0  0  0
  3  9  1  0  0  0  0
  4  8  1  0  0  0  0
  5  1  1  0  0  0  0
  5  4  2  0  0  0  0
  6  7  1  0  0  0  0
  8  6  2  0  0  0  0
  9 11  1  0  0  0  0
 10  9  2  0  0  0  0
 10  6  1  0  0  0  0
 11  7  2  0  0  0  0
 12  2  1  0  0  0  0
 13 14  1  0  0  0  0
 13 12  2  0  0  0  0
 14 16  2  0  0  0  0
 15  3  1  0  0  0  0
 16 17  1  0  0  0  0
 17 15  1  0  0  0  0
 17  1  2  0  0  0  0
 18 13  1  0  0  0  0
 19 18  2  0  0  0  0
 20 18  1  0  0  0  0
 21  4  1  0  0  0  0
 22 31  1  0  0  0  0
 23 30  1  0  0  0  0
 24 29  1  0  0  0  0
 24 25  2  0  0  0  0
 25 26  1  0  0  0  0
 26 28  1  0  0  0  0
 26 22  2  0  0  0  0
 27 28  1  0  0  0  0
 28 23  2  0  0  0  0
 29 27  2  0  0  0  0
 30 21  1  0  0  0  0
 31 30  2  0  0  0  0
 32 24  1  0  0  0  0
 33 32  2  0  0  0  0
 34 32  1  0  0  0  0
M  END
>  <MODEL>
6

>  <REMARK>
 VINA RESULT:     -11.9      3.413      7.363
  Name = 
  4 active torsions:
  status: ('A' for Active; 'I' for Inactive)
    1  A    between atoms: C_3  and  C_25
    2  A    between atoms: C_7  and  C_11
    3  A    between atoms: C_8  and  C_18
    4  A    between atoms: C_18  and  C_30
                            x       y       z     vdW  Elec       q    Type
                         _______ _______ _______ _____ _____    ______ ____

>  <TORSDO>
F 4

$$$$
=
 OpenBabel10272415193D

 34 39  0  0  0  0  0  0  0  0999 V2000
  188.7950  177.6040  144.0570 C   0  0  0  0  0  0  0  0  0  0  0  0
  185.4860  178.1060  145.7700 C   0  0  0  0  0  3  0  0  0  0  0  0
  187.7360  177.5570  146.8660 S   0  0  0  0  0  0  0  0  0  0  0  0
  190.8260  177.3240  142.6750 C   0  0  0  0  0  0  0  0  0  0  0  0
  189.4390  177.5890  142.7940 C   0  0  0  0  0  3  0  0  0  0  0  0
  190.9620  177.0770  145.0510 C   0  0  0  0  0  0  0  0  0  0  0  0
  191.4310  176.8630  146.3370 C   0  0  0  0  0  3  0  0  0  0  0  0
  191.6070  177.0580  143.8190 C   0  0  0  0  0  3  0  0  0  0  0  0
  189.3220  177.2830  146.4110 C   0  0  0  0  0  0  0  0  0  0  0  0
  189.6330  177.3370  145.1520 C   0  0  0  0  0  0  0  0  0  0  0  0
  190.3830  176.9950  147.1970 N   0  0  0  0  0  0  0  0  0  0  0  0
  184.3360  178.4130  144.9150 C   0  0  0  0  0  3  0  0  0  0  0  0
  184.2640  178.5470  143.5940 C   0  0  0  0  0  0  0  0  0  0  0  0
  185.4000  178.4030  142.6800 C   0  0  0  0  0  3  0  0  0  0  0  0
  186.7690  177.8760  145.4940 C   0  0  0  0  0  0  0  0  0  0  0  0
  186.6730  178.1270  142.9350 C   0  0  0  0  0  3  0  0  0  0  0  0
  187.3910  177.8690  144.2030 C   0  0  0  0  0  0  0  0  0  0  0  0
  182.9490  178.8640  142.9980 C   0  0  0  0  0  0  0  0  0  0  0  0
  181.9950  179.2580  143.7210 O   0  0  0  0  0  0  0  0  0  0  0  0
  182.7420  178.7260  141.5940 N   0  0  0  0  0  1  0  0  0  0  0  0
  191.4590  177.2880  141.3250 C   0  0  0  0  0  2  0  0  0  0  0  0
  189.7130  176.0900  138.1810 C   0  0  0  0  0  3  0  0  0  0  0  0
  189.2320  177.8380  140.3220 C   0  0  0  0  0  3  0  0  0  0  0  0
  186.3590  177.3880  137.2830 C   0  0  0  0  0  0  0  0  0  0  0  0
  187.5590  176.6640  137.2290 C   0  0  0  0  0  3  0  0  0  0  0  0
  188.5160  176.8100  138.2360 C   0  0  0  0  0  0  0  0  0  0  0  0
  187.0800  178.4130  139.3680 C   0  0  0  0  0  3  0  0  0  0  0  0
  188.2740  177.6910  139.3150 C   0  0  0  0  0  0  0  0  0  0  0  0
  186.1270  178.2610  138.3560 C   0  0  0  0  0  3  0  0  0  0  0  0
  190.4260  177.1110  140.2630 C   0  0  0  0  0  0  0  0  0  0  0  0
  190.6670  176.2420  139.1920 C   0  0  0  0  0  3  0  0  0  0  0  0
  185.3560  177.2290  136.2190 C   0  0  0  0  0  0  0  0  0  0  0  0
  184.1430  177.0480  136.5070 O   0  0  0  0  0  1  0  0  0  0  0  0
  185.7370  177.2780  134.8830 O   0  0  0  0  0  0  0  0  0  0  0  0
  1 17  2  0  0  0  0
  1 10  1  0  0  0  0
  4  5  2  0  0  0  0
  4  8  1  0  0  0  0
  5  1  1  0  0  0  0
  6 10  1  0  0  0  0
  6  7  1  0  0  0  0
  7 11  2  0  0  0  0
  8  6  2  0  0  0  0
  9  3  1  0  0  0  0
  9 11  1  0  0  0  0
 10  9  2  0  0  0  0
 12  2  1  0  0  0  0
 13 12  2  0  0  0  0
 14 16  2  0  0  0  0
 14 13  1  0  0  0  0
 15  2  2  0  0  0  0
 15  3  1  0  0  0  0
 16 17  1  0  0  0  0
 17 15  1  0  0  0  0
 18 13  1  0  0  0  0
 18 19  2  0  0  0  0
 20 18  1  0  0  0  0
 21  4  1  0  0  0  0
 22 26  2  0  0  0  0
 22 31  1  0  0  0  0
 24 29  1  0  0  0  0
 25 24  2  0  0  0  0
 25 26  1  0  0  0  0
 26 28  1  0  0  0  0
 28 27  1  0  0  0  0
 28 23  2  0  0  0  0
 29 27  2  0  0  0  0
 30 23  1  0  0  0  0
 30 21  1  0  0  0  0
 31 30  2  0  0  0  0
 32 33  1  0  0  0  0
 32 24  1  0  0  0  0
 34 32  2  0  0  0  0
M  END
>  <MODEL>
7

>  <REMARK>
 VINA RESULT:     -11.4      3.768      8.730
  Name = 
  4 active torsions:
  status: ('A' for Active; 'I' for Inactive)
    1  A    between atoms: C_3  and  C_25
    2  A    between atoms: C_7  and  C_11
    3  A    between atoms: C_8  and  C_18
    4  A    between atoms: C_18  and  C_30
                            x       y       z     vdW  Elec       q    Type
                         _______ _______ _______ _____ _____    ______ ____

>  <TORSDO>
F 4

$$$$
=
 OpenBabel10272415193D

 34 39  0  0  0  0  0  0  0  0999 V2000
  188.4680  177.8850  141.1660 C   0  0  0  0  0  0  0  0  0  0  0  0
  188.3570  177.8060  144.9240 C   0  0  0  0  0  3  0  0  0  0  0  0
  190.3930  177.4100  143.4200 S   0  0  0  0  0  0  0  0  0  0  0  0
  188.2490  177.9980  138.7070 C   0  0  0  0  0  0  0  0  0  0  0  0
  187.6830  178.0820  140.0020 C   0  0  0  0  0  3  0  0  0  0  0  0
  190.3760  177.5120  139.6900 C   0  0  0  0  0  0  0  0  0  0  0  0
  191.7170  177.2180  139.8680 C   0  0  0  0  0  3  0  0  0  0  0  0
  189.6190  177.7030  138.5390 C   0  0  0  0  0  3  0  0  0  0  0  0
  190.7640  177.3750  141.7900 C   0  0  0  0  0  0  0  0  0  0  0  0
  189.8220  177.6010  140.9270 C   0  0  0  0  0  0  0  0  0  0  0  0
  191.9580  177.1320  141.2060 N   0  0  0  0  0  0  0  0  0  0  0  0
  187.0600  178.0660  145.5550 C   0  0  0  0  0  3  0  0  0  0  0  0
  185.8790  178.3330  145.0050 C   0  0  0  0  0  0  0  0  0  0  0  0
  185.6340  178.4230  143.5630 C   0  0  0  0  0  3  0  0  0  0  0  0
  188.7360  177.7600  143.6480 C   0  0  0  0  0  0  0  0  0  0  0  0
  186.4700  178.2730  142.5430 C   0  0  0  0  0  3  0  0  0  0  0  0
  187.9170  177.9660  142.4910 C   0  0  0  0  0  0  0  0  0  0  0  0
  184.7270  178.5550  145.9040 C   0  0  0  0  0  0  0  0  0  0  0  0
  184.8440  178.3960  147.1490 O   0  0  0  0  0  0  0  0  0  0  0  0
  183.4650  178.9530  145.3740 N   0  0  0  0  0  1  0  0  0  0  0  0
  187.3830  178.1820  137.5070 C   0  0  0  0  0  2  0  0  0  0  0  0
  184.0930  176.3010  137.3960 C   0  0  0  0  0  3  0  0  0  0  0  0
  186.8400  175.7530  137.2420 C   0  0  0  0  0  3  0  0  0  0  0  0
  184.0490  172.6160  137.0040 C   0  0  0  0  0  0  0  0  0  0  0  0
  183.6090  173.9390  137.1590 C   0  0  0  0  0  3  0  0  0  0  0  0
  184.5320  174.9840  137.2390 C   0  0  0  0  0  0  0  0  0  0  0  0
  186.3540  173.3900  137.0090 C   0  0  0  0  0  3  0  0  0  0  0  0
  185.9160  174.7070  137.1620 C   0  0  0  0  0  0  0  0  0  0  0  0
  185.4240  172.3500  136.9300 C   0  0  0  0  0  3  0  0  0  0  0  0
  186.3940  177.0700  137.3950 C   0  0  0  0  0  0  0  0  0  0  0  0
  185.0240  177.3430  137.4760 C   0  0  0  0  0  3  0  0  0  0  0  0
  183.0700  171.5200  136.9210 C   0  0  0  0  0  0  0  0  0  0  0  0
  183.4220  170.3790  136.5180 O   0  0  0  0  0  0  0  0  0  0  0  0
  181.7470  171.7330  137.2880 O   0  0  0  0  0  1  0  0  0  0  0  0
  1 17  2  0  0  0  0
  2 12  1  0  0  0  0
  3 15  1  0  0  0  0
  4  5  2  0  0  0  0
  5  1  1  0  0  0  0
  6  7  1  0  0  0  0
  6 10  1  0  0  0  0
  7 11  2  0  0  0  0
  8  4  1  0  0  0  0
  8  6  2  0  0  0  0
  9  3  1  0  0  0  0
 10  1  1  0  0  0  0
 10  9  2  0  0  0  0
 11  9  1  0  0  0  0
 13 12  2  0  0  0  0
 13 18  1  0  0  0  0
 14 13  1  0  0  0  0
 15  2  2  0  0  0  0
 16 14  2  0  0  0  0
 17 16  1  0  0  0  0
 17 15  1  0  0  0  0
 18 19  2  0  0  0  0
 20 18  1  0  0  0  0
 21  4  1  0  0  0  0
 22 31  1  0  0  0  0
 23 30  1  0  0  0  0
 24 25  2  0  0  0  0
 25 26  1  0  0  0  0
 26 22  2  0  0  0  0
 27 28  1  0  0  0  0
 28 26  1  0  0  0  0
 28 23  2  0  0  0  0
 29 24  1  0  0  0  0
 29 27  2  0  0  0  0
 30 31  2  0  0  0  0
 30 21  1  0  0  0  0
 32 24  1  0  0  0  0
 32 34  1  0  0  0  0
 33 32  2  0  0  0  0
M  END
>  <MODEL>
8

>  <REMARK>
 VINA RESULT:     -11.1      4.381      9.518
  Name = 
  4 active torsions:
  status: ('A' for Active; 'I' for Inactive)
    1  A    between atoms: C_3  and  C_25
    2  A    between atoms: C_7  and  C_11
    3  A    between atoms: C_8  and  C_18
    4  A    between atoms: C_18  and  C_30
                            x       y       z     vdW  Elec       q    Type
                         _______ _______ _______ _____ _____    ______ ____

>  <TORSDO>
F 4

$$$$
=
 OpenBabel10272415193D

 34 39  0  0  0  0  0  0  0  0999 V2000
  185.5730  178.3450  142.8730 C   0  0  0  0  0  0  0  0  0  0  0  0
  187.3580  177.6610  146.1110 C   0  0  0  0  0  3  0  0  0  0  0  0
  184.8950  178.2930  145.7970 S   0  0  0  0  0  0  0  0  0  0  0  0
  184.6600  178.7420  140.6100 C   0  0  0  0  0  0  0  0  0  0  0  0
  185.7400  178.4120  141.4660 C   0  0  0  0  0  3  0  0  0  0  0  0
  183.2350  178.9520  142.5200 C   0  0  0  0  0  0  0  0  0  0  0  0
  182.1370  179.1630  143.3380 C   0  0  0  0  0  3  0  0  0  0  0  0
  183.3830  179.0230  141.1390 C   0  0  0  0  0  3  0  0  0  0  0  0
  183.8370  178.6470  144.5510 C   0  0  0  0  0  0  0  0  0  0  0  0
  184.2760  178.6300  143.3300 C   0  0  0  0  0  0  0  0  0  0  0  0
  182.5270  178.9680  144.6280 N   0  0  0  0  0  0  0  0  0  0  0  0
  188.7800  177.3180  146.0240 C   0  0  0  0  0  3  0  0  0  0  0  0
  189.5700  177.2050  144.9600 C   0  0  0  0  0  0  0  0  0  0  0  0
  189.1380  177.4170  143.5770 C   0  0  0  0  0  3  0  0  0  0  0  0
  186.4520  177.9550  145.1790 C   0  0  0  0  0  0  0  0  0  0  0  0
  187.9450  177.7460  143.0950 C   0  0  0  0  0  3  0  0  0  0  0  0
  186.6510  178.0130  143.7620 C   0  0  0  0  0  0  0  0  0  0  0  0
  190.9850  176.8390  145.1810 C   0  0  0  0  0  0  0  0  0  0  0  0
  191.6450  176.2530  144.2810 O   0  0  0  0  0  0  0  0  0  0  0  0
  191.6240  177.1450  146.4180 N   0  0  0  0  0  1  0  0  0  0  0  0
  184.8850  178.8310  139.1380 C   0  0  0  0  0  2  0  0  0  0  0  0
  187.3380  176.5650  137.3440 C   0  0  0  0  0  3  0  0  0  0  0  0
  187.3230  178.3810  139.4830 C   0  0  0  0  0  3  0  0  0  0  0  0
  190.8720  176.3760  138.4450 C   0  0  0  0  0  0  0  0  0  0  0  0
  189.6930  176.1390  137.7230 C   0  0  0  0  0  3  0  0  0  0  0  0
  188.5120  176.8030  138.0630 C   0  0  0  0  0  0  0  0  0  0  0  0
  189.6780  177.9520  139.8620 C   0  0  0  0  0  3  0  0  0  0  0  0
  188.5050  177.7170  139.1410 C   0  0  0  0  0  0  0  0  0  0  0  0
  190.8560  177.2840  139.5140 C   0  0  0  0  0  3  0  0  0  0  0  0
  186.1520  178.1420  138.7560 C   0  0  0  0  0  0  0  0  0  0  0  0
  186.1590  177.2320  137.6920 C   0  0  0  0  0  3  0  0  0  0  0  0
  192.1120  175.6730  138.0800 C   0  0  0  0  0  0  0  0  0  0  0  0
  193.2170  176.2800  138.0910 O   0  0  0  0  0  1  0  0  0  0  0  0
  192.0780  174.3310  137.7220 O   0  0  0  0  0  0  0  0  0  0  0  0
  1 10  1  0  0  0  0
  1 17  2  0  0  0  0
  4  8  1  0  0  0  0
  4  5  2  0  0  0  0
  5  1  1  0  0  0  0
  6 10  1  0  0  0  0
  6  7  1  0  0  0  0
  7 11  2  0  0  0  0
  8  6  2  0  0  0  0
  9 11  1  0  0  0  0
  9  3  1  0  0  0  0
 10  9  2  0  0  0  0
 12  2  1  0  0  0  0
 13 18  1  0  0  0  0
 13 12  2  0  0  0  0
 14 13  1  0  0  0  0
 15  3  1  0  0  0  0
 15  2  2  0  0  0  0
 16 14  2  0  0  0  0
 16 17  1  0  0  0  0
 17 15  1  0  0  0  0
 18 20  1  0  0  0  0
 19 18  2  0  0  0  0
 21  4  1  0  0  0  0
 22 31  2  0  0  0  0
 22 26  1  0  0  0  0
 24 29  1  0  0  0  0
 25 26  1  0  0  0  0
 25 24  2  0  0  0  0
 26 28  2  0  0  0  0
 28 23  1  0  0  0  0
 28 27  1  0  0  0  0
 29 27  2  0  0  0  0
 30 21  1  0  0  0  0
 30 23  2  0  0  0  0
 31 30  1  0  0  0  0
 32 33  1  0  0  0  0
 32 24  1  0  0  0  0
 34 32  2  0  0  0  0
M  END
>  <MODEL>
9

>  <REMARK>
 VINA RESULT:     -11.0      2.637      6.633
  Name = 
  4 active torsions:
  status: ('A' for Active; 'I' for Inactive)
    1  A    between atoms: C_3  and  C_25
    2  A    between atoms: C_7  and  C_11
    3  A    between atoms: C_8  and  C_18
    4  A    between atoms: C_18  and  C_30
                            x       y       z     vdW  Elec       q    Type
                         _______ _______ _______ _____ _____    ______ ____

>  <TORSDO>
F 4

$$$$
