=
 OpenBabel10272413373D

 32 36  0  0  1  0  0  0  0  0999 V2000
  184.1770  178.5790  145.3130 C   0  0  0  0  0  2  0  0  0  0  0  0
  182.9360  178.9920  144.5700 C   0  0  0  0  0  3  0  0  0  0  0  0
  185.4360  178.9510  144.5390 C   0  0  0  0  0  2  0  0  0  0  0  0
  185.3520  178.3720  143.1310 C   0  0  1  0  0  3  0  0  0  0  0  0
  182.9160  179.1340  143.2370 C   0  0  0  0  0  3  0  0  0  0  0  0
  184.1530  178.9840  142.3800 C   0  0  2  0  0  3  0  0  0  0  0  0
  183.6560  177.6400  139.0310 N   0  0  0  0  0  0  0  0  0  0  0  0
  182.0030  176.0870  139.0550 C   0  0  0  0  0  0  0  0  0  0  0  0
  183.8240  178.2060  141.1450 C   0  0  0  0  0  0  0  0  0  0  0  0
  182.0980  176.5320  137.6240 C   0  0  0  0  0  3  0  0  0  0  0  0
  183.1850  177.6440  137.6550 C   0  0  0  0  0  3  0  0  0  0  0  0
  183.0210  177.1100  141.1220 N   0  0  0  0  0  0  0  0  0  0  0  0
  181.1660  175.2720  139.5230 O   0  0  0  0  0  0  0  0  0  0  0  0
  184.1740  178.5590  139.8530 C   0  0  0  0  0  0  0  0  0  0  0  0
  182.9870  176.8080  139.8060 C   0  0  0  0  0  0  0  0  0  0  0  0
  184.8120  179.7720  139.4480 N   0  0  0  0  0  2  0  0  0  0  0  0
  184.1620  180.6910  138.9100 O   0  0  0  0  0  1  0  0  0  0  0  0
  186.6550  178.6710  142.4040 C   0  0  0  0  0  2  0  0  0  0  0  0
  190.9680  178.7630  143.4370 O   0  0  0  0  0  0  0  0  0  0  0  0
  188.9650  176.6940  143.7440 C   0  0  1  0  0  3  0  0  0  0  0  0
  188.6970  177.8070  141.6480 C   0  0  0  0  0  2  0  0  0  0  0  0
  191.0380  177.6230  142.6090 C   0  0  0  0  0  2  0  0  0  0  0  0
  187.3560  177.4360  142.0900 N   0  0  0  0  0  0  0  0  0  0  0  0
  190.5960  178.3630  144.7400 C   0  0  1  0  0  3  0  0  0  0  0  0
  189.6690  176.9610  142.4320 C   0  0  1  0  0  3  0  0  0  0  0  0
  189.1660  177.8240  144.7600 C   0  0  0  0  0  2  0  0  0  0  0  0
  187.5050  176.6850  143.3400 C   0  0  0  0  0  2  0  0  0  0  0  0
  191.4990  177.4370  145.2790 O   0  0  0  0  0  0  0  0  0  0  0  0
  191.3910  177.5940  146.6200 N   0  0  0  0  0  2  0  0  0  0  0  0
  191.0480  176.2930  147.1670 C   0  0  0  0  0  2  0  0  0  0  0  0
  192.2940  175.4350  147.2900 C   0  0  0  0  0  2  0  0  0  0  0  0
  193.0610  175.7970  148.5470 C   0  0  0  0  0  1  0  0  0  0  0  0
  2  1  1  0  0  0  0
  3  1  1  0  0  0  0
  4 18  1  6  0  0  0
  4  3  1  0  0  0  0
  5  2  2  0  0  0  0
  6  9  1  6  0  0  0
  6  4  1  0  0  0  0
  6  5  1  0  0  0  0
  7 15  1  0  0  0  0
  7 14  1  0  0  0  0
  8 13  2  0  0  0  0
  8 15  1  0  0  0  0
 10 11  2  0  0  0  0
 10  8  1  0  0  0  0
 11  7  1  0  0  0  0
 12  9  1  0  0  0  0
 14  9  2  0  0  0  0
 15 12  2  0  0  0  0
 16 14  1  0  0  0  0
 17 16  1  0  0  0  0
 19 24  1  0  0  0  0
 20 27  1  6  0  0  0
 20 26  1  0  0  0  0
 21 23  1  0  0  0  0
 22 19  1  0  0  0  0
 23 18  1  0  0  0  0
 23 27  1  0  0  0  0
 24 26  1  0  0  0  0
 24 28  1  6  0  0  0
 25 21  1  6  0  0  0
 25 22  1  0  0  0  0
 25 20  1  0  0  0  0
 28 29  1  0  0  0  0
 29 30  1  0  0  0  0
 30 31  1  0  0  0  0
 31 32  1  0  0  0  0
M  END
>  <MODEL>
1

>  <REMARK>
 VINA RESULT:      -8.1      0.000      0.000
  Name = 
  8 active torsions:
  status: ('A' for Active; 'I' for Inactive)
    1  A    between atoms: C_1  and  C_20
    2  A    between atoms: C_3  and  N_14
    3  A    between atoms: C_3  and  C_15
    4  A    between atoms: N_6  and  C_31
    5  A    between atoms: N_10  and  C_20
    6  A    between atoms: N_10  and  O_24
    7  A    between atoms: C_16  and  C_26
    8  A    between atoms: C_19  and  O_24
                            x       y       z     vdW  Elec       q    Type
                         _______ _______ _______ _____ _____    ______ ____

>  <TORSDO>
F 8

$$$$
=
 OpenBabel10272413373D

 32 36  0  0  1  0  0  0  0  0999 V2000
  187.4890  178.0920  139.0080 C   0  0  0  0  0  2  0  0  0  0  0  0
  187.9950  177.9590  137.5980 C   0  0  0  0  0  3  0  0  0  0  0  0
  188.6180  178.4330  139.9720 C   0  0  0  0  0  2  0  0  0  0  0  0
  189.7360  177.4080  139.8230 C   0  0  1  0  0  3  0  0  0  0  0  0
  189.2660  177.6330  137.3230 C   0  0  0  0  0  3  0  0  0  0  0  0
  190.3170  177.4640  138.3970 C   0  0  2  0  0  3  0  0  0  0  0  0
  192.9100  174.9600  137.8710 N   0  0  0  0  0  0  0  0  0  0  0  0
  192.1600  173.3500  136.4600 C   0  0  0  0  0  0  0  0  0  0  0  0
  191.1590  176.2640  138.0990 C   0  0  0  0  0  0  0  0  0  0  0  0
  193.6560  173.2580  136.3940 C   0  0  0  0  0  3  0  0  0  0  0  0
  194.1380  174.4190  137.3120 C   0  0  0  0  0  3  0  0  0  0  0  0
  190.7070  175.1520  137.4600 N   0  0  0  0  0  0  0  0  0  0  0  0
  191.3450  172.6720  135.7820 O   0  0  0  0  0  0  0  0  0  0  0  0
  192.5230  176.1650  138.3070 C   0  0  0  0  0  0  0  0  0  0  0  0
  191.8230  174.3950  137.3810 C   0  0  0  0  0  0  0  0  0  0  0  0
  193.3950  177.2120  138.7370 N   0  0  0  0  0  2  0  0  0  0  0  0
  194.0130  177.1310  139.8180 O   0  0  0  0  0  1  0  0  0  0  0  0
  190.8120  177.7090  140.8560 C   0  0  0  0  0  2  0  0  0  0  0  0
  190.1720  178.4610  145.1820 O   0  0  0  0  0  0  0  0  0  0  0  0
  189.4740  176.2070  143.5030 C   0  0  1  0  0  3  0  0  0  0  0  0
  191.6450  177.0250  142.9360 C   0  0  0  0  0  2  0  0  0  0  0  0
  190.8770  177.2500  145.3440 C   0  0  0  0  0  2  0  0  0  0  0  0
  191.0520  176.5430  141.6930 N   0  0  0  0  0  0  0  0  0  0  0  0
  188.8070  178.1720  144.9610 C   0  0  1  0  0  3  0  0  0  0  0  0
  190.8640  176.4060  144.0680 C   0  0  1  0  0  3  0  0  0  0  0  0
  188.6060  177.4650  143.6220 C   0  0  0  0  0  2  0  0  0  0  0  0
  189.7470  175.9680  142.0310 C   0  0  0  0  0  2  0  0  0  0  0  0
  188.2520  177.4370  146.0170 O   0  0  0  0  0  0  0  0  0  0  0  0
  186.9360  177.3400  145.7130 N   0  0  0  0  0  2  0  0  0  0  0  0
  186.2510  178.3530  146.4980 C   0  0  0  0  0  2  0  0  0  0  0  0
  184.9540  178.7490  145.8170 C   0  0  0  0  0  2  0  0  0  0  0  0
  185.0520  178.5200  144.3220 C   0  0  0  0  0  1  0  0  0  0  0  0
  1  3  1  0  0  0  0
  2  1  1  0  0  0  0
  4  3  1  0  0  0  0
  4 18  1  1  0  0  0
  5  2  2  0  0  0  0
  5  6  1  0  0  0  0
  6  9  1  6  0  0  0
  6  4  1  0  0  0  0
  7 14  1  0  0  0  0
  8 15  1  0  0  0  0
  9 14  2  0  0  0  0
 10  8  1  0  0  0  0
 10 11  2  0  0  0  0
 11  7  1  0  0  0  0
 12  9  1  0  0  0  0
 13  8  2  0  0  0  0
 14 16  1  0  0  0  0
 15 12  2  0  0  0  0
 15  7  1  0  0  0  0
 16 17  1  0  0  0  0
 18 23  1  0  0  0  0
 19 22  1  0  0  0  0
 20 27  1  6  0  0  0
 20 26  1  0  0  0  0
 20 25  1  0  0  0  0
 23 27  1  0  0  0  0
 23 21  1  0  0  0  0
 24 19  1  0  0  0  0
 24 28  1  1  0  0  0
 25 21  1  6  0  0  0
 25 22  1  0  0  0  0
 26 24  1  0  0  0  0
 29 28  1  0  0  0  0
 29 30  1  0  0  0  0
 31 30  1  0  0  0  0
 32 31  1  0  0  0  0
M  END
>  <MODEL>
2

>  <REMARK>
 VINA RESULT:      -7.7      4.454      7.347
  Name = 
  8 active torsions:
  status: ('A' for Active; 'I' for Inactive)
    1  A    between atoms: C_1  and  C_20
    2  A    between atoms: C_3  and  N_14
    3  A    between atoms: C_3  and  C_15
    4  A    between atoms: N_6  and  C_31
    5  A    between atoms: N_10  and  C_20
    6  A    between atoms: N_10  and  O_24
    7  A    between atoms: C_16  and  C_26
    8  A    between atoms: C_19  and  O_24
                            x       y       z     vdW  Elec       q    Type
                         _______ _______ _______ _____ _____    ______ ____

>  <TORSDO>
F 8

$$$$
=
 OpenBabel10272413373D

 32 36  0  0  1  0  0  0  0  0999 V2000
  191.5580  176.4910  144.3220 C   0  0  0  0  0  2  0  0  0  0  0  0
  191.0510  177.6540  145.1300 C   0  0  0  0  0  3  0  0  0  0  0  0
  191.0710  176.5630  142.8800 C   0  0  0  0  0  2  0  0  0  0  0  0
  189.5520  176.6950  142.8670 C   0  0  1  0  0  3  0  0  0  0  0  0
  189.9280  178.3110  144.8080 C   0  0  0  0  0  3  0  0  0  0  0  0
  189.1300  178.0040  143.5610 C   0  0  2  0  0  3  0  0  0  0  0  0
  185.4950  178.2210  143.6570 N   0  0  0  0  0  0  0  0  0  0  0  0
  184.7850  178.4300  145.8010 C   0  0  0  0  0  0  0  0  0  0  0  0
  187.6680  178.0100  143.8800 C   0  0  0  0  0  0  0  0  0  0  0  0
  183.6540  178.9530  144.9650 C   0  0  0  0  0  3  0  0  0  0  0  0
  184.1990  178.8650  143.5110 C   0  0  0  0  0  3  0  0  0  0  0  0
  187.1570  177.8980  145.1360 N   0  0  0  0  0  0  0  0  0  0  0  0
  184.8330  178.4180  147.0590 O   0  0  0  0  0  0  0  0  0  0  0  0
  186.6470  178.2570  142.9790 C   0  0  0  0  0  0  0  0  0  0  0  0
  185.8300  178.0100  144.9150 C   0  0  0  0  0  0  0  0  0  0  0  0
  186.7970  178.6570  141.6160 N   0  0  0  0  0  2  0  0  0  0  0  0
  185.9800  179.4340  141.0800 O   0  0  0  0  0  1  0  0  0  0  0  0
  189.0750  176.6710  141.4230 C   0  0  0  0  0  2  0  0  0  0  0  0
  188.7260  175.5250  137.1510 O   0  0  0  0  0  0  0  0  0  0  0  0
  189.1860  178.0880  138.4180 C   0  0  1  0  0  3  0  0  0  0  0  0
  190.4250  176.3760  139.5310 C   0  0  0  0  0  2  0  0  0  0  0  0
  190.0020  176.1160  137.0420 C   0  0  0  0  0  2  0  0  0  0  0  0
  190.0390  177.3370  140.5590 N   0  0  0  0  0  0  0  0  0  0  0  0
  187.7420  176.5310  137.0310 C   0  0  1  0  0  3  0  0  0  0  0  0
  190.2890  177.0740  138.2010 C   0  0  1  0  0  3  0  0  0  0  0  0
  187.7890  177.4890  138.2210 C   0  0  0  0  0  2  0  0  0  0  0  0
  189.3410  178.4350  139.8850 C   0  0  0  0  0  2  0  0  0  0  0  0
  187.8450  177.2200  135.8150 O   0  0  0  0  0  0  0  0  0  0  0  0
  186.6180  177.7580  135.6200 N   0  0  0  0  0  2  0  0  0  0  0  0
  185.7160  176.6520  135.3460 C   0  0  0  0  0  2  0  0  0  0  0  0
  184.2870  177.0590  135.6520 C   0  0  0  0  0  2  0  0  0  0  0  0
  184.0210  176.9720  137.1420 C   0  0  0  0  0  1  0  0  0  0  0  0
  1  2  1  0  0  0  0
  3  1  1  0  0  0  0
  4 18  1  6  0  0  0
  4  3  1  0  0  0  0
  4  6  1  0  0  0  0
  5  2  2  0  0  0  0
  6  9  1  1  0  0  0
  6  5  1  0  0  0  0
  7 15  1  0  0  0  0
  8 13  2  0  0  0  0
  9 12  1  0  0  0  0
 10  8  1  0  0  0  0
 11  7  1  0  0  0  0
 11 10  2  0  0  0  0
 14  7  1  0  0  0  0
 14  9  2  0  0  0  0
 15 12  2  0  0  0  0
 15  8  1  0  0  0  0
 16 14  1  0  0  0  0
 17 16  1  0  0  0  0
 20 26  1  1  0  0  0
 20 27  1  0  0  0  0
 21 23  1  0  0  0  0
 22 19  1  0  0  0  0
 23 18  1  0  0  0  0
 24 28  1  6  0  0  0
 24 19  1  0  0  0  0
 24 26  1  0  0  0  0
 25 22  1  6  0  0  0
 25 20  1  0  0  0  0
 25 21  1  0  0  0  0
 27 23  1  0  0  0  0
 29 28  1  0  0  0  0
 30 29  1  0  0  0  0
 30 31  1  0  0  0  0
 31 32  1  0  0  0  0
M  END
>  <MODEL>
3

>  <REMARK>
 VINA RESULT:      -7.1      3.201      7.480
  Name = 
  8 active torsions:
  status: ('A' for Active; 'I' for Inactive)
    1  A    between atoms: C_1  and  C_20
    2  A    between atoms: C_3  and  N_14
    3  A    between atoms: C_3  and  C_15
    4  A    between atoms: N_6  and  C_31
    5  A    between atoms: N_10  and  C_20
    6  A    between atoms: N_10  and  O_24
    7  A    between atoms: C_16  and  C_26
    8  A    between atoms: C_19  and  O_24
                            x       y       z     vdW  Elec       q    Type
                         _______ _______ _______ _____ _____    ______ ____

>  <TORSDO>
F 8

$$$$
=
 OpenBabel10272413373D

 32 36  0  0  1  0  0  0  0  0999 V2000
  185.6030  179.2090  146.4730 C   0  0  0  0  0  2  0  0  0  0  0  0
  186.6010  178.2070  146.9850 C   0  0  0  0  0  3  0  0  0  0  0  0
  184.9150  178.7100  145.2080 C   0  0  0  0  0  2  0  0  0  0  0  0
  185.9710  178.3250  144.1790 C   0  0  1  0  0  3  0  0  0  0  0  0
  187.1910  177.3120  146.1800 C   0  0  0  0  0  3  0  0  0  0  0  0
  186.8370  177.1700  144.7170 C   0  0  2  0  0  3  0  0  0  0  0  0
  190.2040  176.9620  143.3420 N   0  0  0  0  0  0  0  0  0  0  0  0
  190.1220  177.0110  141.0760 C   0  0  0  0  0  0  0  0  0  0  0  0
  188.0840  176.9950  143.9080 C   0  0  0  0  0  0  0  0  0  0  0  0
  191.5210  177.4300  141.4230 C   0  0  0  0  0  3  0  0  0  0  0  0
  191.5220  177.4580  142.9790 C   0  0  0  0  0  3  0  0  0  0  0  0
  188.1020  176.7810  142.5660 N   0  0  0  0  0  0  0  0  0  0  0  0
  189.6300  176.9600  139.9190 O   0  0  0  0  0  0  0  0  0  0  0  0
  189.3770  177.1560  144.3750 C   0  0  0  0  0  0  0  0  0  0  0  0
  189.4250  176.7470  142.2990 C   0  0  0  0  0  0  0  0  0  0  0  0
  189.7590  177.6190  145.6710 N   0  0  0  0  0  2  0  0  0  0  0  0
  190.7100  177.0940  146.2870 O   0  0  0  0  0  1  0  0  0  0  0  0
  185.2680  177.9180  142.8910 C   0  0  0  0  0  2  0  0  0  0  0  0
  184.6750  177.2600  138.5440 O   0  0  0  0  0  0  0  0  0  0  0  0
  183.0860  178.6830  140.5040 C   0  0  1  0  0  3  0  0  0  0  0  0
  185.4120  179.0880  140.8660 C   0  0  0  0  0  2  0  0  0  0  0  0
  184.6310  178.6690  138.4880 C   0  0  0  0  0  2  0  0  0  0  0  0
  184.7850  179.0940  142.1840 N   0  0  0  0  0  0  0  0  0  0  0  0
  183.3870  176.7730  138.8620 C   0  0  1  0  0  3  0  0  0  0  0  0
  184.3130  179.2850  139.8530 C   0  0  1  0  0  3  0  0  0  0  0  0
  182.9860  177.1700  140.2830 C   0  0  0  0  0  2  0  0  0  0  0  0
  183.3440  178.9220  141.9780 C   0  0  0  0  0  2  0  0  0  0  0  0
  182.4280  177.1830  137.9270 O   0  0  0  0  0  0  0  0  0  0  0  0
  181.2460  176.7830  138.4500 N   0  0  0  0  0  2  0  0  0  0  0  0
  180.2640  177.7890  138.0830 C   0  0  0  0  0  2  0  0  0  0  0  0
  180.8920  178.8140  137.1560 C   0  0  0  0  0  2  0  0  0  0  0  0
  180.9060  180.1800  137.8140 C   0  0  0  0  0  1  0  0  0  0  0  0
  1  2  1  0  0  0  0
  3  1  1  0  0  0  0
  4 18  1  6  0  0  0
  4  6  1  0  0  0  0
  4  3  1  0  0  0  0
  5  2  2  0  0  0  0
  6  9  1  6  0  0  0
  6  5  1  0  0  0  0
  7 14  1  0  0  0  0
  8 10  1  0  0  0  0
  8 15  1  0  0  0  0
  9 14  2  0  0  0  0
 10 11  2  0  0  0  0
 11  7  1  0  0  0  0
 12  9  1  0  0  0  0
 13  8  2  0  0  0  0
 14 16  1  0  0  0  0
 15 12  2  0  0  0  0
 15  7  1  0  0  0  0
 16 17  1  0  0  0  0
 19 24  1  0  0  0  0
 20 26  1  1  0  0  0
 20 27  1  0  0  0  0
 21 23  1  0  0  0  0
 22 19  1  0  0  0  0
 23 18  1  0  0  0  0
 24 28  1  6  0  0  0
 24 26  1  0  0  0  0
 25 22  1  6  0  0  0
 25 20  1  0  0  0  0
 25 21  1  0  0  0  0
 27 23  1  0  0  0  0
 28 29  1  0  0  0  0
 30 29  1  0  0  0  0
 31 32  1  0  0  0  0
 31 30  1  0  0  0  0
M  END
>  <MODEL>
4

>  <REMARK>
 VINA RESULT:      -7.0      2.193      8.400
  Name = 
  8 active torsions:
  status: ('A' for Active; 'I' for Inactive)
    1  A    between atoms: C_1  and  C_20
    2  A    between atoms: C_3  and  N_14
    3  A    between atoms: C_3  and  C_15
    4  A    between atoms: N_6  and  C_31
    5  A    between atoms: N_10  and  C_20
    6  A    between atoms: N_10  and  O_24
    7  A    between atoms: C_16  and  C_26
    8  A    between atoms: C_19  and  O_24
                            x       y       z     vdW  Elec       q    Type
                         _______ _______ _______ _____ _____    ______ ____

>  <TORSDO>
F 8

$$$$
=
 OpenBabel10272413373D

 32 36  0  0  1  0  0  0  0  0999 V2000
  187.1030  178.0990  138.8580 C   0  0  0  0  0  2  0  0  0  0  0  0
  187.6200  178.2190  137.4510 C   0  0  0  0  0  3  0  0  0  0  0  0
  188.1880  178.4220  139.8770 C   0  0  0  0  0  2  0  0  0  0  0  0
  189.4100  177.5520  139.6050 C   0  0  1  0  0  3  0  0  0  0  0  0
  188.9190  178.0720  137.1530 C   0  0  0  0  0  3  0  0  0  0  0  0
  189.9820  177.8680  138.2090 C   0  0  2  0  0  3  0  0  0  0  0  0
  191.7460  174.9200  136.9960 N   0  0  0  0  0  0  0  0  0  0  0  0
  193.8970  174.9520  137.7140 C   0  0  0  0  0  0  0  0  0  0  0  0
  190.9480  176.8170  137.7610 C   0  0  0  0  0  0  0  0  0  0  0  0
  193.6190  173.5140  137.3860 C   0  0  0  0  0  3  0  0  0  0  0  0
  192.1200  173.5150  136.9690 C   0  0  0  0  0  3  0  0  0  0  0  0
  192.2930  176.8820  137.9480 N   0  0  0  0  0  0  0  0  0  0  0  0
  194.9630  175.4060  138.2060 O   0  0  0  0  0  0  0  0  0  0  0  0
  190.6090  175.5880  137.2200 C   0  0  0  0  0  0  0  0  0  0  0  0
  192.7110  175.7050  137.4350 C   0  0  0  0  0  0  0  0  0  0  0  0
  189.2910  175.0530  137.0900 N   0  0  0  0  0  2  0  0  0  0  0  0
  188.8080  174.8000  135.9680 O   0  0  0  0  0  1  0  0  0  0  0  0
  190.4470  177.8190  140.6860 C   0  0  0  0  0  2  0  0  0  0  0  0
  190.6930  178.2580  145.0940 O   0  0  0  0  0  0  0  0  0  0  0  0
  189.5770  176.1640  143.4340 C   0  0  1  0  0  3  0  0  0  0  0  0
  191.6340  176.9500  142.5100 C   0  0  0  0  0  2  0  0  0  0  0  0
  191.3580  177.0150  145.0310 C   0  0  0  0  0  2  0  0  0  0  0  0
  190.7890  176.5850  141.3770 N   0  0  0  0  0  0  0  0  0  0  0  0
  189.2990  178.0330  145.1270 C   0  0  1  0  0  3  0  0  0  0  0  0
  191.0580  176.2720  143.7270 C   0  0  1  0  0  3  0  0  0  0  0  0
  188.8090  177.4370  143.8070 C   0  0  0  0  0  2  0  0  0  0  0  0
  189.5480  176.0290  141.9250 C   0  0  0  0  0  2  0  0  0  0  0  0
  188.9250  177.2370  146.2180 O   0  0  0  0  0  0  0  0  0  0  0  0
  187.5720  177.2780  146.2230 N   0  0  0  0  0  2  0  0  0  0  0  0
  187.1840  178.1750  147.2990 C   0  0  0  0  0  2  0  0  0  0  0  0
  185.7820  178.7010  147.0570 C   0  0  0  0  0  2  0  0  0  0  0  0
  185.4690  178.7050  145.5740 C   0  0  0  0  0  1  0  0  0  0  0  0
  1  3  1  0  0  0  0
  2  1  1  0  0  0  0
  4  3  1  0  0  0  0
  4 18  1  1  0  0  0
  5  2  2  0  0  0  0
  5  6  1  0  0  0  0
  6  9  1  6  0  0  0
  6  4  1  0  0  0  0
  7 14  1  0  0  0  0
  7 15  1  0  0  0  0
  8 13  2  0  0  0  0
  9 12  1  0  0  0  0
 10  8  1  0  0  0  0
 11  7  1  0  0  0  0
 11 10  2  0  0  0  0
 14  9  2  0  0  0  0
 15  8  1  0  0  0  0
 15 12  2  0  0  0  0
 16 14  1  0  0  0  0
 17 16  1  0  0  0  0
 18 23  1  0  0  0  0
 19 24  1  0  0  0  0
 20 27  1  6  0  0  0
 20 25  1  0  0  0  0
 20 26  1  0  0  0  0
 22 19  1  0  0  0  0
 23 27  1  0  0  0  0
 23 21  1  0  0  0  0
 24 28  1  1  0  0  0
 25 21  1  6  0  0  0
 25 22  1  0  0  0  0
 26 24  1  0  0  0  0
 28 29  1  0  0  0  0
 29 30  1  0  0  0  0
 31 30  1  0  0  0  0
 32 31  1  0  0  0  0
M  END
>  <MODEL>
5

>  <REMARK>
 VINA RESULT:      -7.0      4.347      7.133
  Name = 
  8 active torsions:
  status: ('A' for Active; 'I' for Inactive)
    1  A    between atoms: C_1  and  C_20
    2  A    between atoms: C_3  and  N_14
    3  A    between atoms: C_3  and  C_15
    4  A    between atoms: N_6  and  C_31
    5  A    between atoms: N_10  and  C_20
    6  A    between atoms: N_10  and  O_24
    7  A    between atoms: C_16  and  C_26
    8  A    between atoms: C_19  and  O_24
                            x       y       z     vdW  Elec       q    Type
                         _______ _______ _______ _____ _____    ______ ____

>  <TORSDO>
F 8

$$$$
=
 OpenBabel10272413373D

 32 36  0  0  1  0  0  0  0  0999 V2000
  184.9950  179.2740  142.6790 C   0  0  0  0  0  2  0  0  0  0  0  0
  184.8810  178.6480  144.0420 C   0  0  0  0  0  3  0  0  0  0  0  0
  185.8450  178.4200  141.7460 C   0  0  0  0  0  2  0  0  0  0  0  0
  187.1930  178.1460  142.4020 C   0  0  1  0  0  3  0  0  0  0  0  0
  185.8090  177.8080  144.5220 C   0  0  0  0  0  3  0  0  0  0  0  0
  186.9940  177.3450  143.7040 C   0  0  2  0  0  3  0  0  0  0  0  0
  190.2350  176.8770  145.3000 N   0  0  0  0  0  0  0  0  0  0  0  0
  190.1520  177.5890  147.4520 C   0  0  0  0  0  0  0  0  0  0  0  0
  188.2290  177.3550  144.5490 C   0  0  0  0  0  0  0  0  0  0  0  0
  191.3210  176.6490  147.3980 C   0  0  0  0  0  3  0  0  0  0  0  0
  191.3070  176.1250  145.9330 C   0  0  0  0  0  3  0  0  0  0  0  0
  188.3250  177.9710  145.7570 N   0  0  0  0  0  0  0  0  0  0  0  0
  189.7110  178.1650  148.4800 O   0  0  0  0  0  0  0  0  0  0  0  0
  189.3870  176.6420  144.2920 C   0  0  0  0  0  0  0  0  0  0  0  0
  189.5820  177.6570  146.1390 C   0  0  0  0  0  0  0  0  0  0  0  0
  189.5830  175.6900  143.2460 N   0  0  0  0  0  2  0  0  0  0  0  0
  190.7290  175.3240  142.9160 O   0  0  0  0  0  1  0  0  0  0  0  0
  188.0620  177.3720  141.4210 C   0  0  0  0  0  2  0  0  0  0  0  0
  190.7120  175.3340  138.5040 O   0  0  0  0  0  0  0  0  0  0  0  0
  189.2010  177.7980  138.3280 C   0  0  1  0  0  3  0  0  0  0  0  0
  190.2000  177.5880  140.4870 C   0  0  0  0  0  2  0  0  0  0  0  0
  191.4100  176.5600  138.5080 C   0  0  0  0  0  2  0  0  0  0  0  0
  188.9310  178.2810  140.6880 N   0  0  0  0  0  0  0  0  0  0  0  0
  189.6450  175.4150  137.5810 C   0  0  1  0  0  3  0  0  0  0  0  0
  190.5420  177.7100  139.0230 C   0  0  1  0  0  3  0  0  0  0  0  0
  188.5920  176.4200  138.0470 C   0  0  0  0  0  2  0  0  0  0  0  0
  188.3360  178.4870  139.3640 C   0  0  0  0  0  2  0  0  0  0  0  0
  190.0970  175.7100  136.2870 O   0  0  0  0  0  0  0  0  0  0  0  0
  189.5610  174.7410  135.5090 N   0  0  0  0  0  2  0  0  0  0  0  0
  190.6690  173.9370  135.0210 C   0  0  0  0  0  2  0  0  0  0  0  0
  190.3220  172.4620  135.1130 C   0  0  0  0  0  2  0  0  0  0  0  0
  188.8330  172.2850  135.3380 C   0  0  0  0  0  1  0  0  0  0  0  0
  1  2  1  0  0  0  0
  2  5  2  0  0  0  0
  3  4  1  0  0  0  0
  3  1  1  0  0  0  0
  4 18  1  6  0  0  0
  4  6  1  0  0  0  0
  6  5  1  0  0  0  0
  6  9  1  1  0  0  0
  7 11  1  0  0  0  0
  7 15  1  0  0  0  0
  8 13  2  0  0  0  0
  9 12  1  0  0  0  0
 10  8  1  0  0  0  0
 11 10  2  0  0  0  0
 12 15  2  0  0  0  0
 14  9  2  0  0  0  0
 14  7  1  0  0  0  0
 15  8  1  0  0  0  0
 16 14  1  0  0  0  0
 17 16  1  0  0  0  0
 19 22  1  0  0  0  0
 20 26  1  1  0  0  0
 20 25  1  0  0  0  0
 20 27  1  0  0  0  0
 21 23  1  0  0  0  0
 23 18  1  0  0  0  0
 24 28  1  6  0  0  0
 24 26  1  0  0  0  0
 24 19  1  0  0  0  0
 25 22  1  6  0  0  0
 25 21  1  0  0  0  0
 27 23  1  0  0  0  0
 29 28  1  0  0  0  0
 30 31  1  0  0  0  0
 30 29  1  0  0  0  0
 31 32  1  0  0  0  0
M  END
>  <MODEL>
6

>  <REMARK>
 VINA RESULT:      -6.7      3.992      8.077
  Name = 
  8 active torsions:
  status: ('A' for Active; 'I' for Inactive)
    1  A    between atoms: C_1  and  C_20
    2  A    between atoms: C_3  and  N_14
    3  A    between atoms: C_3  and  C_15
    4  A    between atoms: N_6  and  C_31
    5  A    between atoms: N_10  and  C_20
    6  A    between atoms: N_10  and  O_24
    7  A    between atoms: C_16  and  C_26
    8  A    between atoms: C_19  and  O_24
                            x       y       z     vdW  Elec       q    Type
                         _______ _______ _______ _____ _____    ______ ____

>  <TORSDO>
F 8

$$$$
=
 OpenBabel10272413373D

 32 36  0  0  1  0  0  0  0  0999 V2000
  193.1650  176.1750  136.6660 C   0  0  0  0  0  2  0  0  0  0  0  0
  192.4750  175.2240  135.7270 C   0  0  0  0  0  3  0  0  0  0  0  0
  192.6010  176.0680  138.0780 C   0  0  0  0  0  2  0  0  0  0  0  0
  191.0890  176.2520  138.0310 C   0  0  1  0  0  3  0  0  0  0  0  0
  191.2270  174.7850  135.9450 C   0  0  0  0  0  3  0  0  0  0  0  0
  190.4450  175.1300  137.1930 C   0  0  2  0  0  3  0  0  0  0  0  0
  187.2570  176.5830  136.1980 N   0  0  0  0  0  0  0  0  0  0  0  0
  185.5470  175.3090  136.9720 C   0  0  0  0  0  0  0  0  0  0  0  0
  189.0310  175.4570  136.8320 C   0  0  0  0  0  0  0  0  0  0  0  0
  184.9410  176.6580  136.7180 C   0  0  0  0  0  3  0  0  0  0  0  0
  186.1500  177.5250  136.2610 C   0  0  0  0  0  3  0  0  0  0  0  0
  187.9740  174.6310  137.0520 N   0  0  0  0  0  0  0  0  0  0  0  0
  184.9570  174.3130  137.4660 O   0  0  0  0  0  0  0  0  0  0  0  0
  188.5820  176.6760  136.3530 C   0  0  0  0  0  0  0  0  0  0  0  0
  186.9340  175.3750  136.6180 C   0  0  0  0  0  0  0  0  0  0  0  0
  189.3540  177.8700  136.2180 N   0  0  0  0  0  2  0  0  0  0  0  0
  189.1290  178.8650  136.9360 O   0  0  0  0  0  1  0  0  0  0  0  0
  190.5540  176.2350  139.4560 C   0  0  0  0  0  2  0  0  0  0  0  0
  187.8120  176.4950  142.9350 O   0  0  0  0  0  0  0  0  0  0  0  0
  190.3000  177.8570  142.3460 C   0  0  1  0  0  3  0  0  0  0  0  0
  188.9600  177.6850  140.3760 C   0  0  0  0  0  2  0  0  0  0  0  0
  187.7740  177.8680  142.6130 C   0  0  0  0  0  2  0  0  0  0  0  0
  190.3480  177.5930  139.9370 N   0  0  0  0  0  0  0  0  0  0  0  0
  188.9370  176.2460  143.7530 C   0  0  1  0  0  3  0  0  0  0  0  0
  188.9730  178.2880  141.7580 C   0  0  1  0  0  3  0  0  0  0  0  0
  190.2370  176.4630  142.9800 C   0  0  0  0  0  2  0  0  0  0  0  0
  191.1910  177.7720  141.1230 C   0  0  0  0  0  2  0  0  0  0  0  0
  188.9060  177.0100  144.9280 O   0  0  0  0  0  0  0  0  0  0  0  0
  190.0770  176.7320  145.5480 N   0  0  0  0  0  2  0  0  0  0  0  0
  189.8900  177.0470  146.9540 C   0  0  0  0  0  2  0  0  0  0  0  0
  188.4430  177.4230  147.2150 C   0  0  0  0  0  2  0  0  0  0  0  0
  188.3240  178.1790  148.5240 C   0  0  0  0  0  1  0  0  0  0  0  0
  1  3  1  0  0  0  0
  2  5  2  0  0  0  0
  2  1  1  0  0  0  0
  4  3  1  0  0  0  0
  4 18  1  1  0  0  0
  5  6  1  0  0  0  0
  6  9  1  6  0  0  0
  6  4  1  0  0  0  0
  7 11  1  0  0  0  0
  7 14  1  0  0  0  0
  7 15  1  0  0  0  0
  8 13  2  0  0  0  0
  9 12  1  0  0  0  0
 10  8  1  0  0  0  0
 11 10  2  0  0  0  0
 14  9  2  0  0  0  0
 15  8  1  0  0  0  0
 15 12  2  0  0  0  0
 16 14  1  0  0  0  0
 16 17  1  0  0  0  0
 18 23  1  0  0  0  0
 19 24  1  0  0  0  0
 20 27  1  6  0  0  0
 20 26  1  0  0  0  0
 22 19  1  0  0  0  0
 23 21  1  0  0  0  0
 23 27  1  0  0  0  0
 24 28  1  1  0  0  0
 25 21  1  6  0  0  0
 25 20  1  0  0  0  0
 25 22  1  0  0  0  0
 26 24  1  0  0  0  0
 28 29  1  0  0  0  0
 29 30  1  0  0  0  0
 30 31  1  0  0  0  0
 31 32  1  0  0  0  0
M  END
>  <MODEL>
7

>  <REMARK>
 VINA RESULT:      -6.6      4.132      6.158
  Name = 
  8 active torsions:
  status: ('A' for Active; 'I' for Inactive)
    1  A    between atoms: C_1  and  C_20
    2  A    between atoms: C_3  and  N_14
    3  A    between atoms: C_3  and  C_15
    4  A    between atoms: N_6  and  C_31
    5  A    between atoms: N_10  and  C_20
    6  A    between atoms: N_10  and  O_24
    7  A    between atoms: C_16  and  C_26
    8  A    between atoms: C_19  and  O_24
                            x       y       z     vdW  Elec       q    Type
                         _______ _______ _______ _____ _____    ______ ____

>  <TORSDO>
F 8

$$$$
=
 OpenBabel10272413373D

 32 36  0  0  1  0  0  0  0  0999 V2000
  187.4820  177.9210  137.5010 C   0  0  0  0  0  2  0  0  0  0  0  0
  188.4910  178.0380  136.3920 C   0  0  0  0  0  3  0  0  0  0  0  0
  188.1610  177.8130  138.8600 C   0  0  0  0  0  2  0  0  0  0  0  0
  189.1670  176.6680  138.8320 C   0  0  1  0  0  3  0  0  0  0  0  0
  189.7390  177.5620  136.5090 C   0  0  0  0  0  3  0  0  0  0  0  0
  190.2660  176.9550  137.7900 C   0  0  2  0  0  3  0  0  0  0  0  0
  192.7650  174.3610  137.2460 N   0  0  0  0  0  0  0  0  0  0  0  0
  191.9650  172.8030  135.8040 C   0  0  0  0  0  0  0  0  0  0  0  0
  191.0630  175.7280  137.4800 C   0  0  0  0  0  0  0  0  0  0  0  0
  193.4580  172.6540  135.7480 C   0  0  0  0  0  3  0  0  0  0  0  0
  193.9760  173.7810  136.6880 C   0  0  0  0  0  3  0  0  0  0  0  0
  190.5750  174.6440  136.8200 N   0  0  0  0  0  0  0  0  0  0  0  0
  191.1310  172.1670  135.1080 O   0  0  0  0  0  0  0  0  0  0  0  0
  192.4210  175.5720  137.6970 C   0  0  0  0  0  0  0  0  0  0  0  0
  191.6620  173.8460  136.7380 C   0  0  0  0  0  0  0  0  0  0  0  0
  193.3280  176.5780  138.1510 N   0  0  0  0  0  2  0  0  0  0  0  0
  194.0690  176.3790  139.1350 O   0  0  0  0  0  1  0  0  0  0  0  0
  189.7670  176.5140  140.2210 C   0  0  0  0  0  2  0  0  0  0  0  0
  189.6650  176.7870  144.6490 O   0  0  0  0  0  0  0  0  0  0  0  0
  191.5950  177.7400  142.7120 C   0  0  1  0  0  3  0  0  0  0  0  0
  189.3720  178.0890  141.9110 C   0  0  0  0  0  2  0  0  0  0  0  0
  189.7640  178.1750  144.4160 C   0  0  0  0  0  2  0  0  0  0  0  0
  190.1920  177.8070  140.7360 N   0  0  0  0  0  0  0  0  0  0  0  0
  190.9620  176.2260  144.6460 C   0  0  1  0  0  3  0  0  0  0  0  0
  190.3130  178.4830  143.0210 C   0  0  1  0  0  3  0  0  0  0  0  0
  191.5910  176.3070  143.2550 C   0  0  0  0  0  2  0  0  0  0  0  0
  191.5760  177.6640  141.1980 C   0  0  0  0  0  2  0  0  0  0  0  0
  191.7860  176.8130  145.6150 O   0  0  0  0  0  0  0  0  0  0  0  0
  191.5350  176.1140  146.7470 N   0  0  0  0  0  2  0  0  0  0  0  0
  191.0370  177.0660  147.7250 C   0  0  0  0  0  2  0  0  0  0  0  0
  189.5290  176.9470  147.8460 C   0  0  0  0  0  2  0  0  0  0  0  0
  188.9240  178.2860  148.2210 C   0  0  0  0  0  1  0  0  0  0  0  0
  1  3  1  0  0  0  0
  2  5  2  0  0  0  0
  2  1  1  0  0  0  0
  4  3  1  0  0  0  0
  4 18  1  1  0  0  0
  5  6  1  0  0  0  0
  6  9  1  6  0  0  0
  6  4  1  0  0  0  0
  7 14  1  0  0  0  0
  8 15  1  0  0  0  0
  9 14  2  0  0  0  0
 10  8  1  0  0  0  0
 10 11  2  0  0  0  0
 11  7  1  0  0  0  0
 12  9  1  0  0  0  0
 13  8  2  0  0  0  0
 14 16  1  0  0  0  0
 15 12  2  0  0  0  0
 15  7  1  0  0  0  0
 16 17  1  0  0  0  0
 18 23  1  0  0  0  0
 20 27  1  6  0  0  0
 20 25  1  0  0  0  0
 20 26  1  0  0  0  0
 22 19  1  0  0  0  0
 23 27  1  0  0  0  0
 23 21  1  0  0  0  0
 24 19  1  0  0  0  0
 24 28  1  1  0  0  0
 25 21  1  6  0  0  0
 25 22  1  0  0  0  0
 26 24  1  0  0  0  0
 28 29  1  0  0  0  0
 29 30  1  0  0  0  0
 30 31  1  0  0  0  0
 31 32  1  0  0  0  0
M  END
>  <MODEL>
8

>  <REMARK>
 VINA RESULT:      -6.6      4.901      7.266
  Name = 
  8 active torsions:
  status: ('A' for Active; 'I' for Inactive)
    1  A    between atoms: C_1  and  C_20
    2  A    between atoms: C_3  and  N_14
    3  A    between atoms: C_3  and  C_15
    4  A    between atoms: N_6  and  C_31
    5  A    between atoms: N_10  and  C_20
    6  A    between atoms: N_10  and  O_24
    7  A    between atoms: C_16  and  C_26
    8  A    between atoms: C_19  and  O_24
                            x       y       z     vdW  Elec       q    Type
                         _______ _______ _______ _____ _____    ______ ____

>  <TORSDO>
F 8

$$$$
=
 OpenBabel10272413373D

 32 36  0  0  1  0  0  0  0  0999 V2000
  184.8640  178.1400  145.4320 C   0  0  0  0  0  2  0  0  0  0  0  0
  183.7730  178.9940  144.8430 C   0  0  0  0  0  3  0  0  0  0  0  0
  186.2220  178.4850  144.8330 C   0  0  0  0  0  2  0  0  0  0  0  0
  186.1380  178.4000  143.3130 C   0  0  1  0  0  3  0  0  0  0  0  0
  183.8760  179.5430  143.6250 C   0  0  0  0  0  3  0  0  0  0  0  0
  185.1260  179.4330  142.7810 C   0  0  2  0  0  3  0  0  0  0  0  0
  183.5990  178.5450  139.5950 N   0  0  0  0  0  0  0  0  0  0  0  0
  185.2070  178.2030  138.0320 C   0  0  0  0  0  0  0  0  0  0  0  0
  184.7550  179.1550  141.3580 C   0  0  0  0  0  0  0  0  0  0  0  0
  183.9990  177.4800  137.5110 C   0  0  0  0  0  3  0  0  0  0  0  0
  182.9410  177.6710  138.6360 C   0  0  0  0  0  3  0  0  0  0  0  0
  185.6340  179.1670  140.3210 N   0  0  0  0  0  0  0  0  0  0  0  0
  186.3470  178.2190  137.4980 O   0  0  0  0  0  0  0  0  0  0  0  0
  183.5160  178.7250  140.9180 C   0  0  0  0  0  0  0  0  0  0  0  0
  184.8520  178.8110  139.2790 C   0  0  0  0  0  0  0  0  0  0  0  0
  182.4030  178.3630  141.7370 N   0  0  0  0  0  2  0  0  0  0  0  0
  181.2630  178.8180  141.5100 O   0  0  0  0  0  1  0  0  0  0  0  0
  187.5230  178.6550  142.7360 C   0  0  0  0  0  2  0  0  0  0  0  0
  191.6930  177.9150  144.0600 O   0  0  0  0  0  0  0  0  0  0  0  0
  189.4250  176.1360  143.7790 C   0  0  1  0  0  3  0  0  0  0  0  0
  189.5040  177.6760  141.9550 C   0  0  0  0  0  2  0  0  0  0  0  0
  191.6990  176.9680  143.0140 C   0  0  0  0  0  2  0  0  0  0  0  0
  188.0910  177.4200  142.2150 N   0  0  0  0  0  0  0  0  0  0  0  0
  191.1480  177.3180  145.2180 C   0  0  1  0  0  3  0  0  0  0  0  0
  190.2820  176.5600  142.6050 C   0  0  1  0  0  3  0  0  0  0  0  0
  189.6660  176.9970  145.0240 C   0  0  0  0  0  2  0  0  0  0  0  0
  188.0210  176.4190  143.2820 C   0  0  0  0  0  2  0  0  0  0  0  0
  191.8700  176.1820  145.6080 O   0  0  0  0  0  0  0  0  0  0  0  0
  191.3500  175.8420  146.8110 N   0  0  0  0  0  2  0  0  0  0  0  0
  192.0190  176.6650  147.8040 C   0  0  0  0  0  2  0  0  0  0  0  0
  193.0330  175.8360  148.5700 C   0  0  0  0  0  2  0  0  0  0  0  0
  193.4760  176.5690  149.8210 C   0  0  0  0  0  1  0  0  0  0  0  0
  2  1  1  0  0  0  0
  3  1  1  0  0  0  0
  4 18  1  6  0  0  0
  4  3  1  0  0  0  0
  5  2  2  0  0  0  0
  6  9  1  6  0  0  0
  6  4  1  0  0  0  0
  6  5  1  0  0  0  0
  7 14  1  0  0  0  0
  8 15  1  0  0  0  0
 10  8  1  0  0  0  0
 10 11  2  0  0  0  0
 11  7  1  0  0  0  0
 12  9  1  0  0  0  0
 13  8  2  0  0  0  0
 14  9  2  0  0  0  0
 14 16  1  0  0  0  0
 15  7  1  0  0  0  0
 15 12  2  0  0  0  0
 17 16  1  0  0  0  0
 19 24  1  0  0  0  0
 20 27  1  6  0  0  0
 20 26  1  0  0  0  0
 21 23  1  0  0  0  0
 22 19  1  0  0  0  0
 23 18  1  0  0  0  0
 23 27  1  0  0  0  0
 24 28  1  6  0  0  0
 25 21  1  1  0  0  0
 25 22  1  0  0  0  0
 25 20  1  0  0  0  0
 26 24  1  0  0  0  0
 28 29  1  0  0  0  0
 29 30  1  0  0  0  0
 30 31  1  0  0  0  0
 31 32  1  0  0  0  0
M  END
>  <MODEL>
9

>  <REMARK>
 VINA RESULT:      -6.6      1.457      2.109
  Name = 
  8 active torsions:
  status: ('A' for Active; 'I' for Inactive)
    1  A    between atoms: C_1  and  C_20
    2  A    between atoms: C_3  and  N_14
    3  A    between atoms: C_3  and  C_15
    4  A    between atoms: N_6  and  C_31
    5  A    between atoms: N_10  and  C_20
    6  A    between atoms: N_10  and  O_24
    7  A    between atoms: C_16  and  C_26
    8  A    between atoms: C_19  and  O_24
                            x       y       z     vdW  Elec       q    Type
                         _______ _______ _______ _____ _____    ______ ____

>  <TORSDO>
F 8

$$$$
