=
 OpenBabel10272413093D

 32 37  0  0  1  0  0  0  0  0999 V2000
  188.8380  177.2070  142.4000 C   0  0  1  0  0  3  0  0  0  0  0  0
  189.1070  177.7550  139.0910 C   0  0  0  0  0  0  0  0  0  0  0  0
  186.3350  177.6770  145.3390 C   0  0  0  0  0  0  0  0  0  0  0  0
  189.8720  178.3240  142.6420 C   0  0  0  0  0  2  0  0  0  0  0  0
  190.0550  178.0580  139.9860 N   0  0  0  0  0  0  0  0  0  0  0  0
  189.3750  176.8130  138.0970 C   0  0  0  0  0  0  0  0  0  0  0  0
  186.7510  177.1270  146.5060 F   0  0  0  0  0  0  0  0  0  0  0  0
  184.3990  177.6210  137.7340 C   0  0  0  0  0  3  0  0  0  0  0  0
  187.7650  178.1600  139.3670 N   0  0  0  0  0  0  0  0  0  0  0  0
  186.0670  176.4000  136.3280 C   0  0  0  0  0  2  0  0  0  0  0  0
  187.1030  176.8360  137.3260 C   0  0  0  0  0  0  0  0  0  0  0  0
  191.2050  177.3720  140.0800 C   0  0  0  0  0  0  0  0  0  0  0  0
  186.6140  178.0200  142.9660 C   0  0  0  0  0  0  0  0  0  0  0  0
  188.3310  176.4240  137.1880 N   0  0  0  0  0  0  0  0  0  0  0  0
  191.5120  176.4500  139.1260 N   0  0  0  0  0  0  0  0  0  0  0  0
  185.1900  178.4840  145.3120 C   0  0  0  0  0  3  0  0  0  0  0  0
  185.4620  178.8130  142.9230 C   0  0  0  0  0  3  0  0  0  0  0  0
  191.8980  177.4030  141.3770 C   0  0  0  0  0  3  0  0  0  0  0  0
  187.0250  177.4370  144.1480 C   0  0  0  0  0  0  0  0  0  0  0  0
  188.4800  176.4130  144.0120 S   0  0  0  0  0  0  0  0  0  0  0  0
  187.4750  178.7470  140.6870 C   0  0  0  0  0  2  0  0  0  0  0  0
  184.7440  179.0510  144.1010 C   0  0  0  0  0  0  0  0  0  0  0  0
  187.4730  177.6740  141.8030 C   0  0  1  0  0  3  0  0  0  0  0  0
  186.7330  177.7200  138.4680 C   0  0  0  0  0  0  0  0  0  0  0  0
  190.6410  176.1950  138.1030 C   0  0  0  0  0  0  0  0  0  0  0  0
  191.3050  177.8260  142.5170 C   0  0  0  0  0  3  0  0  0  0  0  0
  184.6720  176.8500  136.6790 C   0  0  0  0  0  3  0  0  0  0  0  0
  185.4580  178.0790  138.6480 C   0  0  0  0  0  3  0  0  0  0  0  0
  182.3240  179.3420  143.6800 C   0  0  0  0  0  1  0  0  0  0  0  0
  183.6000  179.8500  144.0460 O   0  0  0  0  0  0  0  0  0  0  0  0
  191.0080  175.1940  137.0610 C   0  0  0  0  0  2  0  0  0  0  0  0
  190.7010  173.9120  137.5150 O   0  0  0  0  0  1  0  0  0  0  0  0
  1  4  1  1  0  0  0
  1 20  1  0  0  0  0
  2  9  1  0  0  0  0
  2  5  1  0  0  0  0
  3  7  1  0  0  0  0
  5 12  2  0  0  0  0
  6 25  1  0  0  0  0
  6  2  2  0  0  0  0
  8 28  1  0  0  0  0
  9 21  1  0  0  0  0
 10 27  1  0  0  0  0
 10 11  1  0  0  0  0
 11 24  1  0  0  0  0
 12 18  1  0  0  0  0
 13 19  1  0  0  0  0
 14 11  2  0  0  0  0
 14  6  1  0  0  0  0
 15 12  1  0  0  0  0
 16  3  1  0  0  0  0
 17 13  2  0  0  0  0
 17 22  1  0  0  0  0
 18 26  2  0  0  0  0
 19  3  2  0  0  0  0
 20 19  1  0  0  0  0
 22 16  2  0  0  0  0
 23 21  1  6  0  0  0
 23  1  1  0  0  0  0
 23 13  1  0  0  0  0
 24 28  2  0  0  0  0
 24  9  1  0  0  0  0
 25 15  2  0  0  0  0
 26  4  1  0  0  0  0
 27  8  2  0  0  0  0
 29 30  1  0  0  0  0
 30 22  1  0  0  0  0
 31 32  1  0  0  0  0
 31 25  1  0  0  0  0
M  END
>  <MODEL>
1

>  <REMARK>
 VINA RESULT:      -9.1      0.000      0.000
  Name = 
  2 active torsions:
  status: ('A' for Active; 'I' for Inactive)
    1  A    between atoms: C_13  and  CA_29
    2  A    between atoms: O_15  and  C_26
                            x       y       z     vdW  Elec       q    Type
                         _______ _______ _______ _____ _____    ______ ____

>  <TORSDO>
F 2

$$$$
=
 OpenBabel10272413093D

 32 37  0  0  1  0  0  0  0  0999 V2000
  189.2060  176.1320  137.5480 C   0  0  1  0  0  3  0  0  0  0  0  0
  188.5950  178.4000  139.9570 C   0  0  0  0  0  0  0  0  0  0  0  0
  192.0360  173.8030  136.2490 C   0  0  0  0  0  0  0  0  0  0  0  0
  189.1890  177.2710  136.5090 C   0  0  0  0  0  2  0  0  0  0  0  0
  188.2810  178.5670  138.6670 N   0  0  0  0  0  0  0  0  0  0  0  0
  187.5780  178.3650  140.9140 C   0  0  0  0  0  0  0  0  0  0  0  0
  191.6470  172.9730  135.2510 F   0  0  0  0  0  0  0  0  0  0  0  0
  191.7130  176.9280  143.4400 C   0  0  0  0  0  3  0  0  0  0  0  0
  189.9120  177.9490  140.2780 N   0  0  0  0  0  0  0  0  0  0  0  0
  189.3840  177.5310  144.1210 C   0  0  0  0  0  3  0  0  0  0  0  0
  189.1130  177.7790  142.6630 C   0  0  0  0  0  0  0  0  0  0  0  0
  187.0150  178.5330  138.2210 C   0  0  0  0  0  0  0  0  0  0  0  0
  191.5020  175.4310  137.9490 C   0  0  0  0  0  0  0  0  0  0  0  0
  187.9070  178.1010  142.2880 N   0  0  0  0  0  0  0  0  0  0  0  0
  185.9920  178.5090  139.1190 N   0  0  0  0  0  0  0  0  0  0  0  0
  193.3890  173.8910  136.6020 C   0  0  0  0  0  3  0  0  0  0  0  0
  192.8470  175.5150  138.3230 C   0  0  0  0  0  3  0  0  0  0  0  0
  186.8130  178.1770  136.8080 C   0  0  0  0  0  3  0  0  0  0  0  0
  191.1000  174.5670  136.9510 C   0  0  0  0  0  0  0  0  0  0  0  0
  189.3430  174.5470  136.6410 S   0  0  0  0  0  0  0  0  0  0  0  0
  190.7960  177.5450  139.1710 C   0  0  0  0  0  2  0  0  0  0  0  0
  193.8010  174.7430  137.6460 C   0  0  0  0  0  0  0  0  0  0  0  0
  190.3810  176.1790  138.5750 C   0  0  1  0  0  3  0  0  0  0  0  0
  190.2020  177.6490  141.6540 C   0  0  1  0  0  3  0  0  0  0  0  0
  186.2490  178.4780  140.4620 C   0  0  0  0  0  0  0  0  0  0  0  0
  187.7800  177.6160  136.0470 C   0  0  0  0  0  3  0  0  0  0  0  0
  190.7860  177.0500  144.3940 C   0  0  0  0  0  3  0  0  0  0  0  0
  191.4180  177.2460  142.0340 C   0  0  0  0  0  3  0  0  0  0  0  0
  195.6980  174.0810  139.0880 C   0  0  0  0  0  1  0  0  0  0  0  0
  195.1420  174.8410  138.0240 O   0  0  0  0  0  0  0  0  0  0  0  0
  185.1110  178.4700  141.4260 C   0  0  0  0  0  2  0  0  0  0  0  0
  185.0910  179.6680  142.1380 O   0  0  0  0  0  1  0  0  0  0  0  0
  1  4  1  6  0  0  0
  1 23  1  0  0  0  0
  2  9  1  0  0  0  0
  2  6  2  0  0  0  0
  3 16  2  0  0  0  0
  3 19  1  0  0  0  0
  5  2  1  0  0  0  0
  6 14  1  0  0  0  0
  7  3  1  0  0  0  0
  8 27  1  0  0  0  0
  9 24  1  0  0  0  0
 10 27  2  0  0  0  0
 11 10  1  0  0  0  0
 12  5  2  0  0  0  0
 12 15  1  0  0  0  0
 13 17  1  0  0  0  0
 13 23  1  0  0  0  0
 14 11  2  0  0  0  0
 15 25  2  0  0  0  0
 16 22  1  0  0  0  0
 18 12  1  0  0  0  0
 19 13  2  0  0  0  0
 20 19  1  0  0  0  0
 20  1  1  0  0  0  0
 21  9  1  0  0  0  0
 22 30  1  0  0  0  0
 22 17  2  0  0  0  0
 23 21  1  6  0  0  0
 24 28  1  6  0  0  0
 24 11  1  0  0  0  0
 25  6  1  0  0  0  0
 25 31  1  0  0  0  0
 26  4  1  0  0  0  0
 26 18  2  0  0  0  0
 28  8  2  0  0  0  0
 30 29  1  0  0  0  0
 31 32  1  0  0  0  0
M  END
>  <MODEL>
2

>  <REMARK>
 VINA RESULT:      -8.4      3.346      8.212
  Name = 
  2 active torsions:
  status: ('A' for Active; 'I' for Inactive)
    1  A    between atoms: C_13  and  CA_29
    2  A    between atoms: O_15  and  C_26
                            x       y       z     vdW  Elec       q    Type
                         _______ _______ _______ _____ _____    ______ ____

>  <TORSDO>
F 2

$$$$
=
 OpenBabel10272413093D

 32 37  0  0  1  0  0  0  0  0999 V2000
  188.1020  176.5250  138.2100 C   0  0  1  0  0  3  0  0  0  0  0  0
  187.7470  178.5110  140.9020 C   0  0  0  0  0  0  0  0  0  0  0  0
  190.8290  174.5590  136.2540 C   0  0  0  0  0  0  0  0  0  0  0  0
  187.8410  177.7470  137.3080 C   0  0  0  0  0  2  0  0  0  0  0  0
  187.2150  178.7660  139.7010 N   0  0  0  0  0  0  0  0  0  0  0  0
  186.9050  178.3080  141.9980 C   0  0  0  0  0  0  0  0  0  0  0  0
  190.3370  173.7920  135.2500 F   0  0  0  0  0  0  0  0  0  0  0  0
  191.4840  176.9920  143.6860 C   0  0  0  0  0  3  0  0  0  0  0  0
  189.1250  178.1420  140.9650 N   0  0  0  0  0  0  0  0  0  0  0  0
  189.2640  177.3420  144.7810 C   0  0  0  0  0  3  0  0  0  0  0  0
  188.7410  177.6950  143.4160 C   0  0  0  0  0  0  0  0  0  0  0  0
  185.8980  178.6700  139.4580 C   0  0  0  0  0  0  0  0  0  0  0  0
  190.4740  175.9800  138.1730 C   0  0  0  0  0  0  0  0  0  0  0  0
  187.4710  177.9500  143.2700 N   0  0  0  0  0  0  0  0  0  0  0  0
  185.0400  178.4830  140.4980 N   0  0  0  0  0  0  0  0  0  0  0  0
  192.2120  174.7240  136.3970 C   0  0  0  0  0  3  0  0  0  0  0  0
  191.8540  176.1380  138.3380 C   0  0  0  0  0  3  0  0  0  0  0  0
  185.4910  178.4260  138.0660 C   0  0  0  0  0  3  0  0  0  0  0  0
  189.9710  175.1780  137.1680 C   0  0  0  0  0  0  0  0  0  0  0  0
  188.1930  175.0430  137.1370 S   0  0  0  0  0  0  0  0  0  0  0  0
  189.8410  177.9120  139.6980 C   0  0  0  0  0  2  0  0  0  0  0  0
  192.7320  175.5100  137.4450 C   0  0  0  0  0  0  0  0  0  0  0  0
  189.4240  176.5750  139.0390 C   0  0  1  0  0  3  0  0  0  0  0  0
  189.6560  177.7440  142.2410 C   0  0  1  0  0  3  0  0  0  0  0  0
  185.5150  178.3540  141.7740 C   0  0  0  0  0  0  0  0  0  0  0  0
  186.3550  178.0150  137.1090 C   0  0  0  0  0  3  0  0  0  0  0  0
  190.7200  176.9530  144.7810 C   0  0  0  0  0  3  0  0  0  0  0  0
  190.9420  177.4100  142.3830 C   0  0  0  0  0  3  0  0  0  0  0  0
  195.0000  174.5950  137.8180 C   0  0  0  0  0  1  0  0  0  0  0  0
  194.1080  175.6830  137.6160 O   0  0  0  0  0  0  0  0  0  0  0  0
  184.5540  178.1660  142.8980 C   0  0  0  0  0  2  0  0  0  0  0  0
  184.3020  179.3940  143.5090 O   0  0  0  0  0  1  0  0  0  0  0  0
  1  4  1  6  0  0  0
  1 23  1  0  0  0  0
  2  9  1  0  0  0  0
  2  6  2  0  0  0  0
  3 16  2  0  0  0  0
  3 19  1  0  0  0  0
  5  2  1  0  0  0  0
  6 14  1  0  0  0  0
  7  3  1  0  0  0  0
  8 27  1  0  0  0  0
  9 24  1  0  0  0  0
 10 27  2  0  0  0  0
 11 10  1  0  0  0  0
 12  5  2  0  0  0  0
 12 15  1  0  0  0  0
 13 17  1  0  0  0  0
 13 23  1  0  0  0  0
 14 11  2  0  0  0  0
 15 25  2  0  0  0  0
 16 22  1  0  0  0  0
 18 12  1  0  0  0  0
 19 13  2  0  0  0  0
 20 19  1  0  0  0  0
 20  1  1  0  0  0  0
 21  9  1  0  0  0  0
 22 30  1  0  0  0  0
 22 17  2  0  0  0  0
 23 21  1  6  0  0  0
 24 28  1  6  0  0  0
 24 11  1  0  0  0  0
 25  6  1  0  0  0  0
 25 31  1  0  0  0  0
 26  4  1  0  0  0  0
 26 18  2  0  0  0  0
 28  8  2  0  0  0  0
 30 29  1  0  0  0  0
 31 32  1  0  0  0  0
M  END
>  <MODEL>
3

>  <REMARK>
 VINA RESULT:      -8.4      3.048      8.081
  Name = 
  2 active torsions:
  status: ('A' for Active; 'I' for Inactive)
    1  A    between atoms: C_13  and  CA_29
    2  A    between atoms: O_15  and  C_26
                            x       y       z     vdW  Elec       q    Type
                         _______ _______ _______ _____ _____    ______ ____

>  <TORSDO>
F 2

$$$$
=
 OpenBabel10272413093D

 32 37  0  0  1  0  0  0  0  0999 V2000
  187.4660  177.4640  141.9410 C   0  0  1  0  0  3  0  0  0  0  0  0
  185.1850  178.5970  139.7430 C   0  0  0  0  0  0  0  0  0  0  0  0
  188.1310  177.2770  145.7690 C   0  0  0  0  0  0  0  0  0  0  0  0
  188.4270  178.5750  141.4750 C   0  0  0  0  0  2  0  0  0  0  0  0
  186.5040  178.7880  139.6270 N   0  0  0  0  0  0  0  0  0  0  0  0
  184.5090  177.8590  138.7700 C   0  0  0  0  0  0  0  0  0  0  0  0
  189.2290  176.5540  146.0990 F   0  0  0  0  0  0  0  0  0  0  0  0
  181.1110  178.4510  142.4640 C   0  0  0  0  0  3  0  0  0  0  0  0
  184.5710  178.8750  141.0030 N   0  0  0  0  0  0  0  0  0  0  0  0
  180.9960  177.5860  140.1210 C   0  0  0  0  0  2  0  0  0  0  0  0
  182.4640  177.8960  140.0240 C   0  0  0  0  0  0  0  0  0  0  0  0
  187.2480  178.1590  138.7030 C   0  0  0  0  0  0  0  0  0  0  0  0
  186.5450  178.0450  144.1180 C   0  0  0  0  0  0  0  0  0  0  0  0
  183.1080  177.5800  138.9360 N   0  0  0  0  0  0  0  0  0  0  0  0
  186.6290  177.4370  137.7290 N   0  0  0  0  0  0  0  0  0  0  0  0
  187.4540  178.0140  146.7500 C   0  0  0  0  0  3  0  0  0  0  0  0
  185.8500  178.7700  145.0920 C   0  0  0  0  0  3  0  0  0  0  0  0
  188.6810  177.9990  138.9930 C   0  0  0  0  0  3  0  0  0  0  0  0
  187.6480  177.2860  144.4570 C   0  0  0  0  0  0  0  0  0  0  0  0
  188.3790  176.3820  143.1040 S   0  0  0  0  0  0  0  0  0  0  0  0
  185.4440  179.2050  142.1430 C   0  0  0  0  0  2  0  0  0  0  0  0
  186.3060  178.7590  146.4170 C   0  0  0  0  0  0  0  0  0  0  0  0
  186.1820  177.9550  142.6810 C   0  0  1  0  0  3  0  0  0  0  0  0
  183.1800  178.5450  141.1590 C   0  0  0  0  0  0  0  0  0  0  0  0
  185.2670  177.3180  137.7120 C   0  0  0  0  0  0  0  0  0  0  0  0
  189.2060  178.1840  140.2260 C   0  0  0  0  0  3  0  0  0  0  0  0
  180.4080  177.8920  141.4750 C   0  0  0  0  0  3  0  0  0  0  0  0
  182.5310  178.7980  142.3000 C   0  0  0  0  0  3  0  0  0  0  0  0
  186.2350  180.4510  148.2200 C   0  0  0  0  0  1  0  0  0  0  0  0
  185.6070  179.4940  147.3780 O   0  0  0  0  0  0  0  0  0  0  0  0
  184.6120  176.5360  136.6250 C   0  0  0  0  0  2  0  0  0  0  0  0
  184.6250  175.1810  136.9510 O   0  0  0  0  0  1  0  0  0  0  0  0
  1  4  1  1  0  0  0
  1 23  1  0  0  0  0
  1 20  1  0  0  0  0
  2  9  1  0  0  0  0
  3  7  1  0  0  0  0
  3 16  1  0  0  0  0
  5  2  1  0  0  0  0
  6 14  1  0  0  0  0
  6  2  2  0  0  0  0
  9 24  1  0  0  0  0
  9 21  1  0  0  0  0
 10 27  1  0  0  0  0
 11 10  1  0  0  0  0
 11 24  1  0  0  0  0
 12 18  1  0  0  0  0
 12  5  2  0  0  0  0
 13 19  1  0  0  0  0
 13 17  2  0  0  0  0
 14 11  2  0  0  0  0
 15 12  1  0  0  0  0
 17 22  1  0  0  0  0
 18 26  2  0  0  0  0
 19  3  2  0  0  0  0
 20 19  1  0  0  0  0
 22 16  2  0  0  0  0
 22 30  1  0  0  0  0
 23 21  1  6  0  0  0
 23 13  1  0  0  0  0
 24 28  2  0  0  0  0
 25 15  2  0  0  0  0
 25  6  1  0  0  0  0
 26  4  1  0  0  0  0
 27  8  2  0  0  0  0
 28  8  1  0  0  0  0
 30 29  1  0  0  0  0
 31 32  1  0  0  0  0
 31 25  1  0  0  0  0
M  END
>  <MODEL>
4

>  <REMARK>
 VINA RESULT:      -8.2      2.416      4.235
  Name = 
  2 active torsions:
  status: ('A' for Active; 'I' for Inactive)
    1  A    between atoms: C_13  and  CA_29
    2  A    between atoms: O_15  and  C_26
                            x       y       z     vdW  Elec       q    Type
                         _______ _______ _______ _____ _____    ______ ____

>  <TORSDO>
F 2

$$$$
=
 OpenBabel10272413093D

 32 37  0  0  1  0  0  0  0  0999 V2000
  190.4630  177.6400  144.0270 C   0  0  1  0  0  3  0  0  0  0  0  0
  187.5040  177.2060  145.5690 C   0  0  0  0  0  0  0  0  0  0  0  0
  192.0490  177.5770  140.4760 C   0  0  0  0  0  0  0  0  0  0  0  0
  190.9500  176.3160  144.6490 C   0  0  0  0  0  2  0  0  0  0  0  0
  188.6560  176.6640  145.9810 N   0  0  0  0  0  0  0  0  0  0  0  0
  186.8380  178.1160  146.3930 C   0  0  0  0  0  0  0  0  0  0  0  0
  193.3460  177.9680  140.4490 F   0  0  0  0  0  0  0  0  0  0  0  0
  184.3920  178.4130  141.9790 C   0  0  0  0  0  3  0  0  0  0  0  0
  187.1580  177.0860  144.1880 N   0  0  0  0  0  0  0  0  0  0  0  0
  183.9560  179.3140  144.2710 C   0  0  0  0  0  3  0  0  0  0  0  0
  185.2200  178.6170  144.6930 C   0  0  0  0  0  0  0  0  0  0  0  0
  189.2970  177.0820  147.0840 C   0  0  0  0  0  0  0  0  0  0  0  0
  189.9680  177.2970  141.6680 C   0  0  0  0  0  0  0  0  0  0  0  0
  185.6460  178.7630  145.9170 N   0  0  0  0  0  0  0  0  0  0  0  0
  188.6810  177.9610  147.9210 N   0  0  0  0  0  0  0  0  0  0  0  0
  191.4540  177.0370  139.3280 C   0  0  0  0  0  3  0  0  0  0  0  0
  189.3580  176.7730  140.5240 C   0  0  0  0  0  3  0  0  0  0  0  0
  190.7470  176.8400  147.1460 C   0  0  0  0  0  3  0  0  0  0  0  0
  191.2820  177.7210  141.6360 C   0  0  0  0  0  0  0  0  0  0  0  0
  191.8830  178.4130  143.1660 S   0  0  0  0  0  0  0  0  0  0  0  0
  188.1570  176.5130  143.2690 C   0  0  0  0  0  2  0  0  0  0  0  0
  190.1030  176.6380  139.3450 C   0  0  0  0  0  0  0  0  0  0  0  0
  189.3090  177.5050  142.9830 C   0  0  1  0  0  3  0  0  0  0  0  0
  185.9850  177.7800  143.7270 C   0  0  1  0  0  3  0  0  0  0  0  0
  187.4370  178.4460  147.6240 C   0  0  0  0  0  0  0  0  0  0  0  0
  191.4820  176.5000  146.0630 C   0  0  0  0  0  3  0  0  0  0  0  0
  183.6500  179.1580  142.8030 C   0  0  0  0  0  3  0  0  0  0  0  0
  185.5850  177.6950  142.4550 C   0  0  0  0  0  3  0  0  0  0  0  0
  188.2240  176.5630  137.7380 C   0  0  0  0  0  1  0  0  0  0  0  0
  189.4840  176.1070  138.2110 O   0  0  0  0  0  0  0  0  0  0  0  0
  186.7770  179.3940  148.5650 C   0  0  0  0  0  2  0  0  0  0  0  0
  185.9830  180.2880  147.8490 O   0  0  0  0  0  1  0  0  0  0  0  0
  1  4  1  6  0  0  0
  2  5  1  0  0  0  0
  2  6  2  0  0  0  0
  3 19  1  0  0  0  0
  4 26  1  0  0  0  0
  5 12  2  0  0  0  0
  6 25  1  0  0  0  0
  7  3  1  0  0  0  0
  8 28  2  0  0  0  0
  8 27  1  0  0  0  0
  9  2  1  0  0  0  0
 10 11  1  0  0  0  0
 11 14  2  0  0  0  0
 12 18  1  0  0  0  0
 12 15  1  0  0  0  0
 13 23  1  0  0  0  0
 14  6  1  0  0  0  0
 16 22  1  0  0  0  0
 16  3  2  0  0  0  0
 17 13  1  0  0  0  0
 19 13  2  0  0  0  0
 19 20  1  0  0  0  0
 20  1  1  0  0  0  0
 21  9  1  0  0  0  0
 22 17  2  0  0  0  0
 23 21  1  1  0  0  0
 23  1  1  0  0  0  0
 24 28  1  6  0  0  0
 24  9  1  0  0  0  0
 24 11  1  0  0  0  0
 25 15  2  0  0  0  0
 25 31  1  0  0  0  0
 26 18  2  0  0  0  0
 27 10  2  0  0  0  0
 29 30  1  0  0  0  0
 30 22  1  0  0  0  0
 32 31  1  0  0  0  0
M  END
>  <MODEL>
5

>  <REMARK>
 VINA RESULT:      -8.0      3.560      7.276
  Name = 
  2 active torsions:
  status: ('A' for Active; 'I' for Inactive)
    1  A    between atoms: C_13  and  CA_29
    2  A    between atoms: O_15  and  C_26
                            x       y       z     vdW  Elec       q    Type
                         _______ _______ _______ _____ _____    ______ ____

>  <TORSDO>
F 2

$$$$
=
 OpenBabel10272413093D

 32 37  0  0  1  0  0  0  0  0999 V2000
  188.4550  177.1530  142.0800 C   0  0  1  0  0  3  0  0  0  0  0  0
  187.8990  178.0550  138.8870 C   0  0  0  0  0  0  0  0  0  0  0  0
  186.7680  177.2720  145.5820 C   0  0  0  0  0  0  0  0  0  0  0  0
  189.5310  178.2530  142.1750 C   0  0  0  0  0  2  0  0  0  0  0  0
  189.0440  178.2740  139.5440 N   0  0  0  0  0  0  0  0  0  0  0  0
  187.9000  177.2280  137.7620 C   0  0  0  0  0  0  0  0  0  0  0  0
  187.4540  176.6060  146.5430 F   0  0  0  0  0  0  0  0  0  0  0  0
  183.0010  178.0010  138.7370 C   0  0  0  0  0  3  0  0  0  0  0  0
  186.6740  178.4090  139.5300 N   0  0  0  0  0  0  0  0  0  0  0  0
  184.2500  176.9600  136.8380 C   0  0  0  0  0  2  0  0  0  0  0  0
  185.5080  177.3020  137.5880 C   0  0  0  0  0  0  0  0  0  0  0  0
  190.1730  177.5980  139.2760 C   0  0  0  0  0  0  0  0  0  0  0  0
  186.4530  177.8700  143.2650 C   0  0  0  0  0  0  0  0  0  0  0  0
  186.6580  176.9240  137.1050 N   0  0  0  0  0  0  0  0  0  0  0  0
  190.2210  176.7880  138.1820 N   0  0  0  0  0  0  0  0  0  0  0  0
  185.6630  178.0610  145.9280 C   0  0  0  0  0  3  0  0  0  0  0  0
  185.3370  178.6460  143.5950 C   0  0  0  0  0  3  0  0  0  0  0  0
  191.1670  177.5000  140.3550 C   0  0  0  0  0  3  0  0  0  0  0  0
  187.1370  177.1690  144.2390 C   0  0  0  0  0  0  0  0  0  0  0  0
  188.4990  176.1870  143.6360 S   0  0  0  0  0  0  0  0  0  0  0  0
  186.7290  178.8480  140.9350 C   0  0  0  0  0  2  0  0  0  0  0  0
  184.9380  178.7470  144.9340 C   0  0  0  0  0  0  0  0  0  0  0  0
  186.9900  177.6630  141.8960 C   0  0  1  0  0  3  0  0  0  0  0  0
  185.4450  178.0540  138.8740 C   0  0  0  0  0  0  0  0  0  0  0  0
  189.1200  176.6310  137.3870 C   0  0  0  0  0  0  0  0  0  0  0  0
  190.8820  177.7910  141.6450 C   0  0  0  0  0  3  0  0  0  0  0  0
  182.9920  177.3500  137.5710 C   0  0  0  0  0  3  0  0  0  0  0  0
  184.2600  178.3740  139.4020 C   0  0  0  0  0  3  0  0  0  0  0  0
  182.6310  179.5170  144.4820 C   0  0  0  0  0  1  0  0  0  0  0  0
  183.8260  179.5320  145.2510 O   0  0  0  0  0  0  0  0  0  0  0  0
  189.2020  175.7520  136.1860 C   0  0  0  0  0  2  0  0  0  0  0  0
  189.2880  176.5360  135.0360 O   0  0  0  0  0  1  0  0  0  0  0  0
  1  4  1  1  0  0  0
  1 20  1  0  0  0  0
  2  9  1  0  0  0  0
  2  5  1  0  0  0  0
  3 16  1  0  0  0  0
  3  7  1  0  0  0  0
  6  2  2  0  0  0  0
  8 28  1  0  0  0  0
  9 21  1  0  0  0  0
 10 27  1  0  0  0  0
 10 11  1  0  0  0  0
 11 24  1  0  0  0  0
 12  5  2  0  0  0  0
 12 18  1  0  0  0  0
 13 17  2  0  0  0  0
 13 19  1  0  0  0  0
 14 11  2  0  0  0  0
 14  6  1  0  0  0  0
 15 12  1  0  0  0  0
 17 22  1  0  0  0  0
 18 26  2  0  0  0  0
 19  3  2  0  0  0  0
 20 19  1  0  0  0  0
 22 30  1  0  0  0  0
 22 16  2  0  0  0  0
 23 21  1  6  0  0  0
 23  1  1  0  0  0  0
 23 13  1  0  0  0  0
 24 28  2  0  0  0  0
 24  9  1  0  0  0  0
 25  6  1  0  0  0  0
 25 15  2  0  0  0  0
 26  4  1  0  0  0  0
 27  8  2  0  0  0  0
 29 30  1  0  0  0  0
 31 25  1  0  0  0  0
 32 31  1  0  0  0  0
M  END
>  <MODEL>
6

>  <REMARK>
 VINA RESULT:      -7.9      1.236      1.417
  Name = 
  2 active torsions:
  status: ('A' for Active; 'I' for Inactive)
    1  A    between atoms: C_13  and  CA_29
    2  A    between atoms: O_15  and  C_26
                            x       y       z     vdW  Elec       q    Type
                         _______ _______ _______ _____ _____    ______ ____

>  <TORSDO>
F 2

$$$$
=
 OpenBabel10272413093D

 32 37  0  0  1  0  0  0  0  0999 V2000
  190.0880  176.7540  142.0960 C   0  0  1  0  0  3  0  0  0  0  0  0
  187.8990  178.5280  140.2560 C   0  0  0  0  0  0  0  0  0  0  0  0
  191.0370  176.0510  145.8010 C   0  0  0  0  0  0  0  0  0  0  0  0
  191.2100  177.6990  141.6230 C   0  0  0  0  0  2  0  0  0  0  0  0
  189.2140  178.4700  140.0160 N   0  0  0  0  0  0  0  0  0  0  0  0
  187.0040  178.0380  139.3030 C   0  0  0  0  0  0  0  0  0  0  0  0
  191.9900  175.0990  145.9510 F   0  0  0  0  0  0  0  0  0  0  0  0
  184.1380  178.8980  143.3770 C   0  0  0  0  0  3  0  0  0  0  0  0
  187.4680  178.7890  141.5930 N   0  0  0  0  0  0  0  0  0  0  0  0
  183.6420  178.3160  140.9960 C   0  0  0  0  0  2  0  0  0  0  0  0
  185.1280  178.3430  140.7680 C   0  0  0  0  0  0  0  0  0  0  0  0
  189.7290  177.8070  138.9680 C   0  0  0  0  0  0  0  0  0  0  0  0
  189.5010  177.2770  144.3990 C   0  0  0  0  0  0  0  0  0  0  0  0
  185.5960  178.0210  139.5950 N   0  0  0  0  0  0  0  0  0  0  0  0
  188.8930  177.3220  138.0090 N   0  0  0  0  0  0  0  0  0  0  0  0
  190.6140  176.8010  146.9060 C   0  0  0  0  0  3  0  0  0  0  0  0
  189.0570  178.0200  145.4980 C   0  0  0  0  0  3  0  0  0  0  0  0
  191.1200  177.3430  139.0890 C   0  0  0  0  0  3  0  0  0  0  0  0
  190.4520  176.2880  144.5540 C   0  0  0  0  0  0  0  0  0  0  0  0
  190.8610  175.4020  143.0600 S   0  0  0  0  0  0  0  0  0  0  0  0
  188.4880  178.8240  142.6560 C   0  0  0  0  0  2  0  0  0  0  0  0
  189.6160  177.7850  146.7610 C   0  0  0  0  0  0  0  0  0  0  0  0
  189.0010  177.4070  143.0060 C   0  0  1  0  0  3  0  0  0  0  0  0
  186.0590  178.7210  141.8700 C   0  0  0  0  0  0  0  0  0  0  0  0
  187.5390  177.4720  138.1290 C   0  0  0  0  0  0  0  0  0  0  0  0
  191.7790  177.2950  140.2690 C   0  0  0  0  0  3  0  0  0  0  0  0
  183.2520  178.5900  142.4260 C   0  0  0  0  0  3  0  0  0  0  0  0
  185.5790  178.9770  143.0900 C   0  0  0  0  0  3  0  0  0  0  0  0
  188.2150  178.0510  148.7820 C   0  0  0  0  0  1  0  0  0  0  0  0
  189.1690  178.5390  147.8490 O   0  0  0  0  0  0  0  0  0  0  0  0
  186.6460  176.9480  137.0580 C   0  0  0  0  0  2  0  0  0  0  0  0
  186.6180  177.8440  135.9900 O   0  0  0  0  0  1  0  0  0  0  0  0
  1  4  1  1  0  0  0
  1 23  1  0  0  0  0
  1 20  1  0  0  0  0
  2  9  1  0  0  0  0
  3  7  1  0  0  0  0
  3 16  1  0  0  0  0
  5  2  1  0  0  0  0
  6 14  1  0  0  0  0
  6  2  2  0  0  0  0
  9 24  1  0  0  0  0
  9 21  1  0  0  0  0
 10 27  1  0  0  0  0
 11 10  1  0  0  0  0
 11 24  1  0  0  0  0
 12 18  1  0  0  0  0
 12  5  2  0  0  0  0
 13 19  1  0  0  0  0
 13 17  2  0  0  0  0
 14 11  2  0  0  0  0
 15 25  2  0  0  0  0
 15 12  1  0  0  0  0
 17 22  1  0  0  0  0
 18 26  2  0  0  0  0
 19  3  2  0  0  0  0
 20 19  1  0  0  0  0
 22 16  2  0  0  0  0
 22 30  1  0  0  0  0
 23 21  1  6  0  0  0
 23 13  1  0  0  0  0
 24 28  2  0  0  0  0
 25  6  1  0  0  0  0
 26  4  1  0  0  0  0
 27  8  2  0  0  0  0
 28  8  1  0  0  0  0
 30 29  1  0  0  0  0
 31 25  1  0  0  0  0
 32 31  1  0  0  0  0
M  END
>  <MODEL>
7

>  <REMARK>
 VINA RESULT:      -7.8      2.748      4.257
  Name = 
  2 active torsions:
  status: ('A' for Active; 'I' for Inactive)
    1  A    between atoms: C_13  and  CA_29
    2  A    between atoms: O_15  and  C_26
                            x       y       z     vdW  Elec       q    Type
                         _______ _______ _______ _____ _____    ______ ____

>  <TORSDO>
F 2

$$$$
=
 OpenBabel10272413093D

 32 37  0  0  1  0  0  0  0  0999 V2000
  189.1320  176.9900  141.8840 C   0  0  1  0  0  3  0  0  0  0  0  0
  186.5880  178.7930  140.6200 C   0  0  0  0  0  0  0  0  0  0  0  0
  190.8120  176.1170  145.2810 C   0  0  0  0  0  0  0  0  0  0  0  0
  190.1190  177.9930  141.2550 C   0  0  0  0  0  2  0  0  0  0  0  0
  187.8300  178.7880  140.1220 N   0  0  0  0  0  0  0  0  0  0  0  0
  185.5310  178.3290  139.8350 C   0  0  0  0  0  0  0  0  0  0  0  0
  191.7930  175.1870  145.1840 F   0  0  0  0  0  0  0  0  0  0  0  0
  183.5160  178.8810  144.4380 C   0  0  0  0  0  3  0  0  0  0  0  0
  186.4270  178.9690  142.0280 N   0  0  0  0  0  0  0  0  0  0  0  0
  182.5680  178.4130  142.1720 C   0  0  0  0  0  2  0  0  0  0  0  0
  183.9780  178.4980  141.6570 C   0  0  0  0  0  0  0  0  0  0  0  0
  188.1390  178.1980  138.9560 C   0  0  0  0  0  0  0  0  0  0  0  0
  189.0040  177.3700  144.2840 C   0  0  0  0  0  0  0  0  0  0  0  0
  184.2100  178.2540  140.3980 N   0  0  0  0  0  0  0  0  0  0  0  0
  187.1390  177.7410  138.1540 N   0  0  0  0  0  0  0  0  0  0  0  0
  190.6030  176.7930  146.4900 C   0  0  0  0  0  3  0  0  0  0  0  0
  188.7740  178.0380  145.4910 C   0  0  0  0  0  3  0  0  0  0  0  0
  189.5350  177.7700  138.7720 C   0  0  0  0  0  3  0  0  0  0  0  0
  189.9860  176.4030  144.1900 C   0  0  0  0  0  0  0  0  0  0  0  0
  190.1070  175.6120  142.5960 S   0  0  0  0  0  0  0  0  0  0  0  0
  187.6360  178.9780  142.8700 C   0  0  0  0  0  2  0  0  0  0  0  0
  189.5770  177.7530  146.6030 C   0  0  0  0  0  0  0  0  0  0  0  0
  188.2350  177.5600  143.0280 C   0  0  1  0  0  3  0  0  0  0  0  0
  185.1020  178.8440  142.5730 C   0  0  0  0  0  0  0  0  0  0  0  0
  185.8330  177.8440  138.5480 C   0  0  0  0  0  0  0  0  0  0  0  0
  190.4160  177.6790  139.7950 C   0  0  0  0  0  3  0  0  0  0  0  0
  182.4640  178.5980  143.6640 C   0  0  0  0  0  3  0  0  0  0  0  0
  184.8690  179.0190  143.8770 C   0  0  0  0  0  3  0  0  0  0  0  0
  188.2680  178.1060  148.6720 C   0  0  0  0  0  1  0  0  0  0  0  0
  189.3410  178.4330  147.8000 O   0  0  0  0  0  0  0  0  0  0  0  0
  184.7550  177.3510  137.6450 C   0  0  0  0  0  2  0  0  0  0  0  0
  185.2750  177.1310  136.3700 O   0  0  0  0  0  1  0  0  0  0  0  0
  1  4  1  1  0  0  0
  1 20  1  0  0  0  0
  1 23  1  0  0  0  0
  2  9  1  0  0  0  0
  3 16  1  0  0  0  0
  5  2  1  0  0  0  0
  6 14  1  0  0  0  0
  6  2  2  0  0  0  0
  7  3  1  0  0  0  0
  9 24  1  0  0  0  0
  9 21  1  0  0  0  0
 10 27  1  0  0  0  0
 11 10  1  0  0  0  0
 11 24  1  0  0  0  0
 12  5  2  0  0  0  0
 13 17  2  0  0  0  0
 14 11  2  0  0  0  0
 15 25  2  0  0  0  0
 15 12  1  0  0  0  0
 16 22  2  0  0  0  0
 17 22  1  0  0  0  0
 18 12  1  0  0  0  0
 18 26  2  0  0  0  0
 19 13  1  0  0  0  0
 19  3  2  0  0  0  0
 20 19  1  0  0  0  0
 22 30  1  0  0  0  0
 23 21  1  6  0  0  0
 23 13  1  0  0  0  0
 24 28  2  0  0  0  0
 25  6  1  0  0  0  0
 26  4  1  0  0  0  0
 27  8  2  0  0  0  0
 28  8  1  0  0  0  0
 30 29  1  0  0  0  0
 31 25  1  0  0  0  0
 32 31  1  0  0  0  0
M  END
>  <MODEL>
8

>  <REMARK>
 VINA RESULT:      -7.7      2.749      4.859
  Name = 
  2 active torsions:
  status: ('A' for Active; 'I' for Inactive)
    1  A    between atoms: C_13  and  CA_29
    2  A    between atoms: O_15  and  C_26
                            x       y       z     vdW  Elec       q    Type
                         _______ _______ _______ _____ _____    ______ ____

>  <TORSDO>
F 2

$$$$
=
 OpenBabel10272413093D

 32 37  0  0  1  0  0  0  0  0999 V2000
  182.8520  177.5700  140.5930 C   0  0  1  0  0  3  0  0  0  0  0  0
  184.9990  179.0810  142.6960 C   0  0  0  0  0  0  0  0  0  0  0  0
  182.6360  176.2480  136.9410 C   0  0  0  0  0  0  0  0  0  0  0  0
  182.0280  178.8720  140.5400 C   0  0  0  0  0  2  0  0  0  0  0  0
  183.7220  179.4460  142.5300 N   0  0  0  0  0  0  0  0  0  0  0  0
  185.4260  178.6210  143.9430 C   0  0  0  0  0  0  0  0  0  0  0  0
  181.4870  175.5860  136.6660 F   0  0  0  0  0  0  0  0  0  0  0  0
  189.2990  177.6200  140.8540 C   0  0  0  0  0  3  0  0  0  0  0  0
  185.7970  178.8720  141.5310 N   0  0  0  0  0  0  0  0  0  0  0  0
  188.9900  177.5400  143.3340 C   0  0  0  0  0  3  0  0  0  0  0  0
  187.5880  178.0270  143.0900 C   0  0  0  0  0  0  0  0  0  0  0  0
  182.7820  179.2320  143.4640 C   0  0  0  0  0  0  0  0  0  0  0  0
  184.1110  177.3190  138.5250 C   0  0  0  0  0  0  0  0  0  0  0  0
  186.7750  178.1490  144.1010 N   0  0  0  0  0  0  0  0  0  0  0  0
  183.1550  178.7940  144.6980 N   0  0  0  0  0  0  0  0  0  0  0  0
  183.5350  176.5530  135.9110 C   0  0  0  0  0  3  0  0  0  0  0  0
  185.0250  177.6140  137.5070 C   0  0  0  0  0  3  0  0  0  0  0  0
  181.3870  179.1500  143.0030 C   0  0  0  0  0  3  0  0  0  0  0  0
  182.9510  176.6210  138.2510 C   0  0  0  0  0  0  0  0  0  0  0  0
  181.9280  176.2830  139.6720 S   0  0  0  0  0  0  0  0  0  0  0  0
  185.1330  178.9170  140.2160 C   0  0  0  0  0  2  0  0  0  0  0  0
  184.7380  177.2320  136.1900 C   0  0  0  0  0  0  0  0  0  0  0  0
  184.2780  177.6520  139.9630 C   0  0  1  0  0  3  0  0  0  0  0  0
  187.1270  178.3560  141.7120 C   0  0  1  0  0  3  0  0  0  0  0  0
  184.4690  178.5350  144.9740 C   0  0  0  0  0  0  0  0  0  0  0  0
  181.0520  178.9890  141.7030 C   0  0  0  0  0  3  0  0  0  0  0  0
  189.7790  177.3310  142.0660 C   0  0  0  0  0  3  0  0  0  0  0  0
  187.9420  178.1580  140.6710 C   0  0  0  0  0  3  0  0  0  0  0  0
  186.9790  177.9780  135.4560 C   0  0  0  0  0  1  0  0  0  0  0  0
  185.6550  177.5380  135.1820 O   0  0  0  0  0  0  0  0  0  0  0  0
  184.8550  178.0720  146.3370 C   0  0  0  0  0  2  0  0  0  0  0  0
  185.3100  179.1550  147.0880 O   0  0  0  0  0  1  0  0  0  0  0  0
  1  4  1  6  0  0  0
  2  6  2  0  0  0  0
  3 19  1  0  0  0  0
  4 26  1  0  0  0  0
  5  2  1  0  0  0  0
  5 12  2  0  0  0  0
  6 14  1  0  0  0  0
  6 25  1  0  0  0  0
  7  3  1  0  0  0  0
  8 27  1  0  0  0  0
  9 24  1  0  0  0  0
  9  2  1  0  0  0  0
 11 10  1  0  0  0  0
 11 14  2  0  0  0  0
 12 15  1  0  0  0  0
 13 23  1  0  0  0  0
 15 25  2  0  0  0  0
 16 22  1  0  0  0  0
 16  3  2  0  0  0  0
 17 13  1  0  0  0  0
 18 12  1  0  0  0  0
 19 13  2  0  0  0  0
 19 20  1  0  0  0  0
 20  1  1  0  0  0  0
 21  9  1  0  0  0  0
 22 17  2  0  0  0  0
 23 21  1  6  0  0  0
 23  1  1  0  0  0  0
 24 28  1  6  0  0  0
 24 11  1  0  0  0  0
 25 31  1  0  0  0  0
 26 18  2  0  0  0  0
 27 10  2  0  0  0  0
 28  8  2  0  0  0  0
 30 29  1  0  0  0  0
 30 22  1  0  0  0  0
 31 32  1  0  0  0  0
M  END
>  <MODEL>
9

>  <REMARK>
 VINA RESULT:      -7.7      3.685      7.976
  Name = 
  2 active torsions:
  status: ('A' for Active; 'I' for Inactive)
    1  A    between atoms: C_13  and  CA_29
    2  A    between atoms: O_15  and  C_26
                            x       y       z     vdW  Elec       q    Type
                         _______ _______ _______ _____ _____    ______ ____

>  <TORSDO>
F 2

$$$$
