=
 OpenBabel10272413273D

 32 37  0  0  1  0  0  0  0  0999 V2000
  192.5360  176.7170  138.7130 N   0  0  0  0  0  0  0  0  0  0  0  0
  188.9660  177.4740  142.3670 C   0  0  0  0  0  0  0  0  0  0  0  0
  191.6150  176.6220  146.4150 C   0  0  0  0  0  3  0  0  0  0  0  0
  190.5180  177.2150  147.2530 C   0  0  0  0  0  2  0  0  0  0  0  0
  186.5490  178.1500  142.9880 C   0  0  0  0  0  0  0  0  0  0  0  0
  185.9060  178.5660  141.8230 C   0  0  0  0  0  3  0  0  0  0  0  0
  190.2230  177.6460  140.1110 C   0  0  1  0  0  3  0  0  0  0  0  0
  191.4090  176.9390  142.1870 C   0  0  0  0  0  3  0  0  0  0  0  0
  184.6440  178.6520  144.3250 C   0  0  0  0  0  0  0  0  0  0  0  0
  192.7320  177.0120  140.1380 C   0  0  0  0  0  2  0  0  0  0  0  0
  191.5000  176.5500  145.0860 C   0  0  0  0  0  3  0  0  0  0  0  0
  190.1880  177.1250  143.0020 C   0  0  0  0  0  0  0  0  0  0  0  0
  190.2460  176.9570  144.4120 C   0  0  0  0  0  0  0  0  0  0  0  0
  187.9140  177.5390  144.5680 C   0  0  0  0  0  0  0  0  0  0  0  0
  183.9500  179.0720  143.1830 C   0  0  0  0  0  3  0  0  0  0  0  0
  191.2320  176.5730  138.1250 C   0  0  0  0  0  3  0  0  0  0  0  0
  191.4290  177.1400  140.8690 C   0  0  0  0  0  0  0  0  0  0  0  0
  184.5870  179.0270  141.9320 C   0  0  0  0  0  3  0  0  0  0  0  0
  190.1360  176.9670  138.7740 C   0  0  0  0  0  3  0  0  0  0  0  0
  189.1330  176.8910  146.6840 C   0  0  0  0  0  2  0  0  0  0  0  0
  189.0920  177.1610  145.2050 C   0  0  0  0  0  0  0  0  0  0  0  0
  186.7370  177.8390  145.1590 N   0  0  0  0  0  0  0  0  0  0  0  0
  188.9320  177.5240  140.8840 C   0  0  0  0  0  0  0  0  0  0  0  0
  187.8380  177.4590  140.2590 O   0  0  0  0  0  0  0  0  0  0  0  0
  183.9900  178.7120  145.6630 C   0  0  0  0  0  1  0  0  0  0  0  0
  187.8480  177.7080  143.1970 C   0  0  0  0  0  0  0  0  0  0  0  0
  185.9220  178.2110  144.1820 N   0  0  0  0  0  0  0  0  0  0  0  0
  193.7160  176.4300  137.9080 C   0  0  0  0  0  2  0  0  0  0  0  0
  195.1450  174.5510  138.8400 C   0  0  0  0  0  0  0  0  0  0  0  0
  194.0750  175.0230  138.0160 N   0  0  0  0  0  2  0  0  0  0  0  0
  195.4780  173.1680  138.8350 N   0  0  0  0  0  1  0  0  0  0  0  0
  195.7820  175.3440  139.5850 O   0  0  0  0  0  0  0  0  0  0  0  0
  1 10  1  0  0  0  0
  2 12  2  0  0  0  0
  2 26  1  0  0  0  0
  3  4  1  0  0  0  0
  5 26  2  0  0  0  0
  5 27  1  0  0  0  0
  6 18  2  0  0  0  0
  6  5  1  0  0  0  0
  7 19  1  6  0  0  0
  7 17  1  0  0  0  0
  7 23  1  0  0  0  0
  8 12  1  0  0  0  0
  9 25  1  0  0  0  0
 10 17  1  0  0  0  0
 11  3  2  0  0  0  0
 12 13  1  0  0  0  0
 13 11  1  0  0  0  0
 13 21  2  0  0  0  0
 14 22  2  0  0  0  0
 14 21  1  0  0  0  0
 15  9  2  0  0  0  0
 16  1  1  0  0  0  0
 16 19  2  0  0  0  0
 17  8  2  0  0  0  0
 18 15  1  0  0  0  0
 20  4  1  0  0  0  0
 21 20  1  0  0  0  0
 23  2  1  0  0  0  0
 24 23  2  0  0  0  0
 26 14  1  0  0  0  0
 27  9  1  0  0  0  0
 27 22  1  0  0  0  0
 28 30  1  0  0  0  0
 28  1  1  0  0  0  0
 29 32  2  0  0  0  0
 30 29  1  0  0  0  0
 31 29  1  0  0  0  0
M  END
>  <MODEL>
1

>  <REMARK>
 VINA RESULT:     -11.3      0.000      0.000
  Name = 
  2 active torsions:
  status: ('A' for Active; 'I' for Inactive)
    1  A    between atoms: N_2  and  C_24
    2  A    between atoms: N_10  and  C_24
                            x       y       z     vdW  Elec       q    Type
                         _______ _______ _______ _____ _____    ______ ____

>  <TORSDO>
F 2

$$$$
=
 OpenBabel10272413273D

 32 37  0  0  1  0  0  0  0  0999 V2000
  182.9520  179.1900  140.2150 N   0  0  0  0  0  0  0  0  0  0  0  0
  187.0930  177.9930  143.0590 C   0  0  0  0  0  0  0  0  0  0  0  0
  190.4970  177.5150  139.5500 C   0  0  0  0  0  3  0  0  0  0  0  0
  191.5740  177.5250  140.5980 C   0  0  0  0  0  2  0  0  0  0  0  0
  188.1390  177.6340  145.3960 C   0  0  0  0  0  0  0  0  0  0  0  0
  187.1830  177.9720  146.3520 C   0  0  0  0  0  3  0  0  0  0  0  0
  184.7940  178.9750  142.3900 C   0  0  1  0  0  3  0  0  0  0  0  0
  186.5010  178.4190  140.6600 C   0  0  0  0  0  3  0  0  0  0  0  0
  189.7780  177.1850  147.0640 C   0  0  0  0  0  0  0  0  0  0  0  0
  184.3710  179.3000  139.8570 C   0  0  0  0  0  2  0  0  0  0  0  0
  189.2090  177.6230  139.8880 C   0  0  0  0  0  3  0  0  0  0  0  0
  187.4810  178.0130  141.6920 C   0  0  0  0  0  0  0  0  0  0  0  0
  188.8010  177.6510  141.3110 C   0  0  0  0  0  0  0  0  0  0  0  0
  189.3660  177.3130  143.6280 C   0  0  0  0  0  0  0  0  0  0  0  0
  188.8500  177.5040  148.0640 C   0  0  0  0  0  3  0  0  0  0  0  0
  182.5120  178.6800  141.4850 C   0  0  0  0  0  3  0  0  0  0  0  0
  185.2670  178.8250  140.9630 C   0  0  0  0  0  0  0  0  0  0  0  0
  187.5520  177.8980  147.7020 C   0  0  0  0  0  3  0  0  0  0  0  0
  183.3600  178.5380  142.5030 C   0  0  0  0  0  3  0  0  0  0  0  0
  191.1210  176.8170  141.8800 C   0  0  0  0  0  2  0  0  0  0  0  0
  189.7540  177.2900  142.2920 C   0  0  0  0  0  0  0  0  0  0  0  0
  190.1490  177.0640  144.7000 N   0  0  0  0  0  0  0  0  0  0  0  0
  185.6730  178.2680  143.3920 C   0  0  0  0  0  0  0  0  0  0  0  0
  185.1880  177.9130  144.5020 O   0  0  0  0  0  0  0  0  0  0  0  0
  191.1660  176.7850  147.4300 C   0  0  0  0  0  1  0  0  0  0  0  0
  188.0840  177.6670  144.0090 C   0  0  0  0  0  0  0  0  0  0  0  0
  189.3850  177.2680  145.7640 N   0  0  0  0  0  0  0  0  0  0  0  0
  181.9650  179.4870  139.1850 C   0  0  0  0  0  2  0  0  0  0  0  0
  181.2280  181.8140  138.4890 C   0  0  0  0  0  0  0  0  0  0  0  0
  182.2240  180.7920  138.5930 N   0  0  0  0  0  2  0  0  0  0  0  0
  181.5420  183.0360  137.8320 N   0  0  0  0  0  1  0  0  0  0  0  0
  180.0830  181.6510  138.9890 O   0  0  0  0  0  0  0  0  0  0  0  0
  1 16  1  0  0  0  0
  2 23  1  0  0  0  0
  2 26  1  0  0  0  0
  3 11  2  0  0  0  0
  3  4  1  0  0  0  0
  4 20  1  0  0  0  0
  5 27  1  0  0  0  0
  5  6  1  0  0  0  0
  6 18  2  0  0  0  0
  7 19  1  6  0  0  0
  7 23  1  0  0  0  0
  8 17  2  0  0  0  0
  8 12  1  0  0  0  0
  9 25  1  0  0  0  0
  9 15  2  0  0  0  0
 10  1  1  0  0  0  0
 10 17  1  0  0  0  0
 11 13  1  0  0  0  0
 12  2  2  0  0  0  0
 13 12  1  0  0  0  0
 13 21  2  0  0  0  0
 14 26  1  0  0  0  0
 14 22  2  0  0  0  0
 16 19  2  0  0  0  0
 17  7  1  0  0  0  0
 18 15  1  0  0  0  0
 20 21  1  0  0  0  0
 21 14  1  0  0  0  0
 22 27  1  0  0  0  0
 23 24  2  0  0  0  0
 26  5  2  0  0  0  0
 27  9  1  0  0  0  0
 28  1  1  0  0  0  0
 29 30  1  0  0  0  0
 29 32  2  0  0  0  0
 30 28  1  0  0  0  0
 31 29  1  0  0  0  0
M  END
>  <MODEL>
2

>  <REMARK>
 VINA RESULT:     -11.1      3.736      8.039
  Name = 
  2 active torsions:
  status: ('A' for Active; 'I' for Inactive)
    1  A    between atoms: N_2  and  C_24
    2  A    between atoms: N_10  and  C_24
                            x       y       z     vdW  Elec       q    Type
                         _______ _______ _______ _____ _____    ______ ____

>  <TORSDO>
F 2

$$$$
=
 OpenBabel10272413273D

 32 37  0  0  1  0  0  0  0  0999 V2000
  188.6900  177.6730  147.1180 N   0  0  0  0  0  0  0  0  0  0  0  0
  185.1970  178.4260  143.3900 C   0  0  0  0  0  0  0  0  0  0  0  0
  188.0460  178.1180  139.4000 C   0  0  0  0  0  3  0  0  0  0  0  0
  186.8200  178.0200  138.5360 C   0  0  0  0  0  2  0  0  0  0  0  0
  182.7270  178.7900  142.7170 C   0  0  0  0  0  0  0  0  0  0  0  0
  181.9470  178.6740  143.8660 C   0  0  0  0  0  3  0  0  0  0  0  0
  186.2290  177.7620  145.6690 C   0  0  1  0  0  3  0  0  0  0  0  0
  187.6420  177.9210  143.6210 C   0  0  0  0  0  3  0  0  0  0  0  0
  180.8110  179.1030  141.3390 C   0  0  0  0  0  0  0  0  0  0  0  0
  188.7790  177.3210  145.6950 C   0  0  0  0  0  2  0  0  0  0  0  0
  187.9440  178.2330  140.7270 C   0  0  0  0  0  3  0  0  0  0  0  0
  186.4690  178.2460  142.7810 C   0  0  0  0  0  0  0  0  0  0  0  0
  186.6190  178.3730  141.3730 C   0  0  0  0  0  0  0  0  0  0  0  0
  184.2550  178.7890  141.1680 C   0  0  0  0  0  0  0  0  0  0  0  0
  179.9830  179.0040  142.4650 C   0  0  0  0  0  3  0  0  0  0  0  0
  187.5460  178.3370  147.6810 C   0  0  0  0  0  3  0  0  0  0  0  0
  187.5510  177.7320  144.9380 C   0  0  0  0  0  0  0  0  0  0  0  0
  180.5580  178.7890  143.7280 C   0  0  0  0  0  3  0  0  0  0  0  0
  186.3980  178.4210  147.0080 C   0  0  0  0  0  3  0  0  0  0  0  0
  185.6760  178.8810  139.0810 C   0  0  0  0  0  2  0  0  0  0  0  0
  185.4980  178.6540  140.5570 C   0  0  0  0  0  0  0  0  0  0  0  0
  183.0710  178.9920  140.5520 N   0  0  0  0  0  0  0  0  0  0  0  0
  185.1160  178.3970  144.8710 C   0  0  0  0  0  0  0  0  0  0  0  0
  184.1300  178.9030  145.4750 O   0  0  0  0  0  0  0  0  0  0  0  0
  180.2160  179.3110  139.9890 C   0  0  0  0  0  1  0  0  0  0  0  0
  184.0980  178.6650  142.5370 C   0  0  0  0  0  0  0  0  0  0  0  0
  182.1550  178.9860  141.5110 N   0  0  0  0  0  0  0  0  0  0  0  0
  189.8690  177.4570  147.9480 C   0  0  0  0  0  2  0  0  0  0  0  0
  192.0450  176.1670  147.7520 C   0  0  0  0  0  0  0  0  0  0  0  0
  190.6670  176.3590  147.4210 N   0  0  0  0  0  2  0  0  0  0  0  0
  192.7750  175.1110  147.1380 N   0  0  0  0  0  1  0  0  0  0  0  0
  192.6150  176.9090  148.5960 O   0  0  0  0  0  0  0  0  0  0  0  0
  1 16  1  0  0  0  0
  1 28  1  0  0  0  0
  2 23  1  0  0  0  0
  3 11  2  0  0  0  0
  4 20  1  0  0  0  0
  4  3  1  0  0  0  0
  5  6  1  0  0  0  0
  7 19  1  1  0  0  0
  8 17  2  0  0  0  0
  9 27  1  0  0  0  0
  9 15  2  0  0  0  0
 10  1  1  0  0  0  0
 11 13  1  0  0  0  0
 12  2  2  0  0  0  0
 12  8  1  0  0  0  0
 13 12  1  0  0  0  0
 14 26  1  0  0  0  0
 15 18  1  0  0  0  0
 17  7  1  0  0  0  0
 17 10  1  0  0  0  0
 18  6  2  0  0  0  0
 19 16  2  0  0  0  0
 20 21  1  0  0  0  0
 21 14  1  0  0  0  0
 21 13  2  0  0  0  0
 22 14  2  0  0  0  0
 22 27  1  0  0  0  0
 23 24  2  0  0  0  0
 23  7  1  0  0  0  0
 25  9  1  0  0  0  0
 26  5  2  0  0  0  0
 26  2  1  0  0  0  0
 27  5  1  0  0  0  0
 29 32  2  0  0  0  0
 30 29  1  0  0  0  0
 30 28  1  0  0  0  0
 31 29  1  0  0  0  0
M  END
>  <MODEL>
3

>  <REMARK>
 VINA RESULT:     -11.0      4.376      7.016
  Name = 
  2 active torsions:
  status: ('A' for Active; 'I' for Inactive)
    1  A    between atoms: N_2  and  C_24
    2  A    between atoms: N_10  and  C_24
                            x       y       z     vdW  Elec       q    Type
                         _______ _______ _______ _____ _____    ______ ____

>  <TORSDO>
F 2

$$$$
=
 OpenBabel10272413273D

 32 37  0  0  1  0  0  0  0  0999 V2000
  188.0010  178.2290  137.5390 N   0  0  0  0  0  0  0  0  0  0  0  0
  187.4380  178.0890  142.6700 C   0  0  0  0  0  0  0  0  0  0  0  0
  182.6330  179.0220  143.0820 C   0  0  0  0  0  3  0  0  0  0  0  0
  182.6780  178.5980  144.5230 C   0  0  0  0  0  2  0  0  0  0  0  0
  188.4880  177.6840  144.9980 C   0  0  0  0  0  0  0  0  0  0  0  0
  189.7940  177.2350  144.8080 C   0  0  0  0  0  3  0  0  0  0  0  0
  188.3830  177.6250  140.3060 C   0  0  1  0  0  3  0  0  0  0  0  0
  186.0300  178.3870  140.6170 C   0  0  0  0  0  3  0  0  0  0  0  0
  188.6610  177.4630  147.3620 C   0  0  0  0  0  0  0  0  0  0  0  0
  186.7740  178.0330  138.3200 C   0  0  0  0  0  2  0  0  0  0  0  0
  183.7330  178.9980  142.3250 C   0  0  0  0  0  3  0  0  0  0  0  0
  186.1730  178.3770  142.0900 C   0  0  0  0  0  0  0  0  0  0  0  0
  185.0480  178.6520  142.9130 C   0  0  0  0  0  0  0  0  0  0  0  0
  186.4040  178.2940  144.8710 C   0  0  0  0  0  0  0  0  0  0  0  0
  189.9810  177.0160  147.2260 C   0  0  0  0  0  3  0  0  0  0  0  0
  189.2840  178.4420  138.1530 C   0  0  0  0  0  3  0  0  0  0  0  0
  187.0360  178.0810  139.7960 C   0  0  0  0  0  0  0  0  0  0  0  0
  190.5440  176.9040  145.9440 C   0  0  0  0  0  3  0  0  0  0  0  0
  189.4760  178.2010  139.4490 C   0  0  0  0  0  3  0  0  0  0  0  0
  183.9980  178.9980  145.1890 C   0  0  0  0  0  2  0  0  0  0  0  0
  185.1660  178.6160  144.3210 C   0  0  0  0  0  0  0  0  0  0  0  0
  186.6920  178.1490  146.1820 N   0  0  0  0  0  0  0  0  0  0  0  0
  188.6060  177.9240  141.7680 C   0  0  0  0  0  0  0  0  0  0  0  0
  189.7830  178.0360  142.2070 O   0  0  0  0  0  0  0  0  0  0  0  0
  188.0410  177.5680  148.7140 C   0  0  0  0  0  1  0  0  0  0  0  0
  187.5050  178.0230  144.0780 C   0  0  0  0  0  0  0  0  0  0  0  0
  187.9630  177.7750  146.2370 N   0  0  0  0  0  0  0  0  0  0  0  0
  187.8760  178.3440  136.0910 C   0  0  0  0  0  2  0  0  0  0  0  0
  188.8750  176.1980  135.1750 C   0  0  0  0  0  0  0  0  0  0  0  0
  188.9420  177.6040  135.4290 N   0  0  0  0  0  2  0  0  0  0  0  0
  189.9890  175.5370  134.5870 N   0  0  0  0  0  1  0  0  0  0  0  0
  187.8340  175.5430  135.4480 O   0  0  0  0  0  0  0  0  0  0  0  0
  1 16  1  0  0  0  0
  1 10  1  0  0  0  0
  2 26  1  0  0  0  0
  3  4  1  0  0  0  0
  4 20  1  0  0  0  0
  5 27  1  0  0  0  0
  6  5  1  0  0  0  0
  6 18  2  0  0  0  0
  7 19  1  6  0  0  0
  7 23  1  0  0  0  0
  8 12  1  0  0  0  0
  9 25  1  0  0  0  0
 10 17  1  0  0  0  0
 11 13  1  0  0  0  0
 11  3  2  0  0  0  0
 12  2  2  0  0  0  0
 12 13  1  0  0  0  0
 13 21  2  0  0  0  0
 14 22  2  0  0  0  0
 15  9  2  0  0  0  0
 16 19  2  0  0  0  0
 17  7  1  0  0  0  0
 17  8  2  0  0  0  0
 18 15  1  0  0  0  0
 21 14  1  0  0  0  0
 21 20  1  0  0  0  0
 22 27  1  0  0  0  0
 23 24  2  0  0  0  0
 23  2  1  0  0  0  0
 26 14  1  0  0  0  0
 26  5  2  0  0  0  0
 27  9  1  0  0  0  0
 28  1  1  0  0  0  0
 29 30  1  0  0  0  0
 29 32  2  0  0  0  0
 30 28  1  0  0  0  0
 31 29  1  0  0  0  0
M  END
>  <MODEL>
4

>  <REMARK>
 VINA RESULT:     -10.8      3.032      5.514
  Name = 
  2 active torsions:
  status: ('A' for Active; 'I' for Inactive)
    1  A    between atoms: N_2  and  C_24
    2  A    between atoms: N_10  and  C_24
                            x       y       z     vdW  Elec       q    Type
                         _______ _______ _______ _____ _____    ______ ____

>  <TORSDO>
F 2

$$$$
=
 OpenBabel10272413273D

 32 37  0  0  1  0  0  0  0  0999 V2000
  183.0020  179.2240  140.2730 N   0  0  0  0  0  0  0  0  0  0  0  0
  187.1230  177.9950  143.1310 C   0  0  0  0  0  0  0  0  0  0  0  0
  190.5360  177.4930  139.6340 C   0  0  0  0  0  3  0  0  0  0  0  0
  191.6100  177.4940  140.6860 C   0  0  0  0  0  2  0  0  0  0  0  0
  188.1590  177.6270  145.4720 C   0  0  0  0  0  0  0  0  0  0  0  0
  187.2020  177.9720  146.4250 C   0  0  0  0  0  3  0  0  0  0  0  0
  184.8340  178.9940  142.4540 C   0  0  1  0  0  3  0  0  0  0  0  0
  186.5440  178.4260  140.7310 C   0  0  0  0  0  3  0  0  0  0  0  0
  189.7880  177.1650  147.1450 C   0  0  0  0  0  0  0  0  0  0  0  0
  184.4230  179.3230  139.9200 C   0  0  0  0  0  2  0  0  0  0  0  0
  189.2480  177.6110  139.9680 C   0  0  0  0  0  3  0  0  0  0  0  0
  187.5160  178.0130  141.7650 C   0  0  0  0  0  0  0  0  0  0  0  0
  188.8350  177.6410  141.3890 C   0  0  0  0  0  0  0  0  0  0  0  0
  189.3900  177.2970  143.7080 C   0  0  0  0  0  0  0  0  0  0  0  0
  188.8600  177.4910  148.1420 C   0  0  0  0  0  3  0  0  0  0  0  0
  182.5530  178.7160  141.5410 C   0  0  0  0  0  3  0  0  0  0  0  0
  185.3110  178.8410  141.0290 C   0  0  0  0  0  0  0  0  0  0  0  0
  187.5660  177.8940  147.7750 C   0  0  0  0  0  3  0  0  0  0  0  0
  183.3970  178.5670  142.5620 C   0  0  0  0  0  3  0  0  0  0  0  0
  191.1470  176.7890  141.9660 C   0  0  0  0  0  2  0  0  0  0  0  0
  189.7820  177.2720  142.3730 C   0  0  0  0  0  0  0  0  0  0  0  0
  190.1670  177.0420  144.7830 N   0  0  0  0  0  0  0  0  0  0  0  0
  185.7040  178.2800  143.4600 C   0  0  0  0  0  0  0  0  0  0  0  0
  185.2140  177.9280  144.5670 O   0  0  0  0  0  0  0  0  0  0  0  0
  191.1720  176.7550  147.5160 C   0  0  0  0  0  1  0  0  0  0  0  0
  188.1090  177.6610  144.0840 C   0  0  0  0  0  0  0  0  0  0  0  0
  189.4010  177.2520  145.8440 N   0  0  0  0  0  0  0  0  0  0  0  0
  182.0210  179.5280  139.2390 C   0  0  0  0  0  2  0  0  0  0  0  0
  181.9020  177.4460  137.7930 C   0  0  0  0  0  0  0  0  0  0  0  0
  182.3240  178.7940  138.0180 N   0  0  0  0  0  2  0  0  0  0  0  0
  182.3010  176.7750  136.6030 N   0  0  0  0  0  1  0  0  0  0  0  0
  181.1660  176.8530  138.6260 O   0  0  0  0  0  0  0  0  0  0  0  0
  1 16  1  0  0  0  0
  2 23  1  0  0  0  0
  2 26  1  0  0  0  0
  3 11  2  0  0  0  0
  3  4  1  0  0  0  0
  4 20  1  0  0  0  0
  5 27  1  0  0  0  0
  5  6  1  0  0  0  0
  6 18  2  0  0  0  0
  7 19  1  6  0  0  0
  7 23  1  0  0  0  0
  8 17  2  0  0  0  0
  8 12  1  0  0  0  0
  9 25  1  0  0  0  0
  9 15  2  0  0  0  0
 10  1  1  0  0  0  0
 10 17  1  0  0  0  0
 11 13  1  0  0  0  0
 12  2  2  0  0  0  0
 13 12  1  0  0  0  0
 13 21  2  0  0  0  0
 14 26  1  0  0  0  0
 14 22  2  0  0  0  0
 16 19  2  0  0  0  0
 17  7  1  0  0  0  0
 18 15  1  0  0  0  0
 20 21  1  0  0  0  0
 21 14  1  0  0  0  0
 22 27  1  0  0  0  0
 23 24  2  0  0  0  0
 26  5  2  0  0  0  0
 27  9  1  0  0  0  0
 28  1  1  0  0  0  0
 29 30  1  0  0  0  0
 29 32  2  0  0  0  0
 30 28  1  0  0  0  0
 31 29  1  0  0  0  0
M  END
>  <MODEL>
5

>  <REMARK>
 VINA RESULT:     -10.8      3.752      7.521
  Name = 
  2 active torsions:
  status: ('A' for Active; 'I' for Inactive)
    1  A    between atoms: N_2  and  C_24
    2  A    between atoms: N_10  and  C_24
                            x       y       z     vdW  Elec       q    Type
                         _______ _______ _______ _____ _____    ______ ____

>  <TORSDO>
F 2

$$$$
=
 OpenBabel10272413273D

 32 37  0  0  1  0  0  0  0  0999 V2000
  189.4000  177.4620  137.7680 N   0  0  0  0  0  0  0  0  0  0  0  0
  188.2940  177.7420  142.8040 C   0  0  0  0  0  0  0  0  0  0  0  0
  183.5270  178.9140  142.6230 C   0  0  0  0  0  3  0  0  0  0  0  0
  183.3980  178.6010  144.0870 C   0  0  0  0  0  2  0  0  0  0  0  0
  189.0710  177.4710  145.2550 C   0  0  0  0  0  0  0  0  0  0  0  0
  190.3650  176.9520  145.2420 C   0  0  0  0  0  3  0  0  0  0  0  0
  189.4570  177.0560  140.5960 C   0  0  1  0  0  3  0  0  0  0  0  0
  187.1270  177.9430  140.5950 C   0  0  0  0  0  3  0  0  0  0  0  0
  188.9820  177.4260  147.6340 C   0  0  0  0  0  0  0  0  0  0  0  0
  188.0890  177.3800  138.4230 C   0  0  0  0  0  2  0  0  0  0  0  0
  184.6980  178.7830  141.9940 C   0  0  0  0  0  3  0  0  0  0  0  0
  187.1140  178.0400  142.0710 C   0  0  0  0  0  0  0  0  0  0  0  0
  185.9240  178.4260  142.7440 C   0  0  0  0  0  0  0  0  0  0  0  0
  187.0460  178.1610  144.8590 C   0  0  0  0  0  0  0  0  0  0  0  0
  190.2850  176.9130  147.6750 C   0  0  0  0  0  3  0  0  0  0  0  0
  190.6200  177.6650  138.5010 C   0  0  0  0  0  3  0  0  0  0  0  0
  188.1960  177.5300  139.9120 C   0  0  0  0  0  0  0  0  0  0  0  0
  190.9730  176.6780  146.4730 C   0  0  0  0  0  3  0  0  0  0  0  0
  190.6620  177.5160  139.8240 C   0  0  0  0  0  3  0  0  0  0  0  0
  184.6600  178.9930  144.8620 C   0  0  0  0  0  2  0  0  0  0  0  0
  185.8910  178.4930  144.1570 C   0  0  0  0  0  0  0  0  0  0  0  0
  187.1870  178.1050  146.2010 N   0  0  0  0  0  0  0  0  0  0  0  0
  189.5400  177.4570  142.0490 C   0  0  0  0  0  0  0  0  0  0  0  0
  190.6680  177.5510  142.6040 O   0  0  0  0  0  0  0  0  0  0  0  0
  188.2310  177.6620  148.8990 C   0  0  0  0  0  1  0  0  0  0  0  0
  188.2090  177.7820  144.2120 C   0  0  0  0  0  0  0  0  0  0  0  0
  188.4230  177.6810  146.4200 N   0  0  0  0  0  0  0  0  0  0  0  0
  189.4340  177.4700  136.3110 C   0  0  0  0  0  2  0  0  0  0  0  0
  189.7380  175.0390  135.6490 C   0  0  0  0  0  0  0  0  0  0  0  0
  190.2440  176.3660  135.8150 N   0  0  0  0  0  2  0  0  0  0  0  0
  190.6140  174.0000  135.2280 N   0  0  0  0  0  1  0  0  0  0  0  0
  188.5210  174.7830  135.8540 O   0  0  0  0  0  0  0  0  0  0  0  0
  1 10  1  0  0  0  0
  1 16  1  0  0  0  0
  2 26  1  0  0  0  0
  3  4  1  0  0  0  0
  4 20  1  0  0  0  0
  5 27  1  0  0  0  0
  6  5  1  0  0  0  0
  6 18  2  0  0  0  0
  7 19  1  6  0  0  0
  7 23  1  0  0  0  0
  8 12  1  0  0  0  0
  9 15  2  0  0  0  0
  9 25  1  0  0  0  0
 10 17  1  0  0  0  0
 11  3  2  0  0  0  0
 11 13  1  0  0  0  0
 12 13  1  0  0  0  0
 12  2  2  0  0  0  0
 13 21  2  0  0  0  0
 14 22  2  0  0  0  0
 16 19  2  0  0  0  0
 17  8  2  0  0  0  0
 17  7  1  0  0  0  0
 18 15  1  0  0  0  0
 21 14  1  0  0  0  0
 21 20  1  0  0  0  0
 22 27  1  0  0  0  0
 23 24  2  0  0  0  0
 23  2  1  0  0  0  0
 26 14  1  0  0  0  0
 26  5  2  0  0  0  0
 27  9  1  0  0  0  0
 28  1  1  0  0  0  0
 29 30  1  0  0  0  0
 29 32  2  0  0  0  0
 30 28  1  0  0  0  0
 31 29  1  0  0  0  0
M  END
>  <MODEL>
6

>  <REMARK>
 VINA RESULT:     -10.2      2.471      5.048
  Name = 
  2 active torsions:
  status: ('A' for Active; 'I' for Inactive)
    1  A    between atoms: N_2  and  C_24
    2  A    between atoms: N_10  and  C_24
                            x       y       z     vdW  Elec       q    Type
                         _______ _______ _______ _____ _____    ______ ____

>  <TORSDO>
F 2

$$$$
=
 OpenBabel10272413273D

 32 37  0  0  1  0  0  0  0  0999 V2000
  192.0440  177.2260  140.0190 N   0  0  0  0  0  0  0  0  0  0  0  0
  187.5380  177.8980  142.4510 C   0  0  0  0  0  0  0  0  0  0  0  0
  188.9690  177.5230  147.1350 C   0  0  0  0  0  3  0  0  0  0  0  0
  187.6430  178.0720  147.5810 C   0  0  0  0  0  2  0  0  0  0  0  0
  185.0060  178.4030  142.3120 C   0  0  0  0  0  0  0  0  0  0  0  0
  184.6970  178.6910  140.9840 C   0  0  0  0  0  3  0  0  0  0  0  0
  189.3730  178.0390  140.6320 C   0  0  1  0  0  3  0  0  0  0  0  0
  189.9590  177.5630  143.0080 C   0  0  0  0  0  3  0  0  0  0  0  0
  182.7710  178.8220  143.0160 C   0  0  0  0  0  0  0  0  0  0  0  0
  191.8050  177.6220  141.4120 C   0  0  0  0  0  2  0  0  0  0  0  0
  189.2440  177.3610  145.8380 C   0  0  0  0  0  3  0  0  0  0  0  0
  188.5480  177.6940  143.4300 C   0  0  0  0  0  0  0  0  0  0  0  0
  188.2110  177.6180  144.8090 C   0  0  0  0  0  0  0  0  0  0  0  0
  185.8990  178.0080  144.2560 C   0  0  0  0  0  0  0  0  0  0  0  0
  182.4060  179.1110  141.6940 C   0  0  0  0  0  3  0  0  0  0  0  0
  190.9740  176.9350  139.1040 C   0  0  0  0  0  3  0  0  0  0  0  0
  190.3420  177.6840  141.7360 C   0  0  0  0  0  0  0  0  0  0  0  0
  183.3760  179.0440  140.6810 C   0  0  0  0  0  3  0  0  0  0  0  0
  189.7160  177.2740  139.3840 C   0  0  0  0  0  3  0  0  0  0  0  0
  186.5020  177.5960  146.6750 C   0  0  0  0  0  2  0  0  0  0  0  0
  186.8690  177.7710  145.2260 C   0  0  0  0  0  0  0  0  0  0  0  0
  184.5860  178.2420  144.4670 N   0  0  0  0  0  0  0  0  0  0  0  0
  187.9260  177.8540  141.0190 C   0  0  0  0  0  0  0  0  0  0  0  0
  187.0630  177.6580  140.1210 O   0  0  0  0  0  0  0  0  0  0  0  0
  181.7590  178.9080  144.1070 C   0  0  0  0  0  1  0  0  0  0  0  0
  186.2170  178.0860  142.9120 C   0  0  0  0  0  0  0  0  0  0  0  0
  184.0620  178.4830  143.2730 N   0  0  0  0  0  0  0  0  0  0  0  0
  193.4210  176.9910  139.6040 C   0  0  0  0  0  2  0  0  0  0  0  0
  194.1720  175.6940  137.5560 C   0  0  0  0  0  0  0  0  0  0  0  0
  193.4900  176.7960  138.1620 N   0  0  0  0  0  2  0  0  0  0  0  0
  194.2550  175.6140  136.1380 N   0  0  0  0  0  1  0  0  0  0  0  0
  194.6820  174.7840  138.2630 O   0  0  0  0  0  0  0  0  0  0  0  0
  1 10  1  0  0  0  0
  2 26  1  0  0  0  0
  2 12  2  0  0  0  0
  3  4  1  0  0  0  0
  5 26  2  0  0  0  0
  5 27  1  0  0  0  0
  6  5  1  0  0  0  0
  7 19  1  6  0  0  0
  7 23  1  0  0  0  0
  7 17  1  0  0  0  0
  8 12  1  0  0  0  0
  9 27  1  0  0  0  0
  9 25  1  0  0  0  0
 10 17  1  0  0  0  0
 11  3  2  0  0  0  0
 12 13  1  0  0  0  0
 13 21  2  0  0  0  0
 13 11  1  0  0  0  0
 14 22  2  0  0  0  0
 14 21  1  0  0  0  0
 15  9  2  0  0  0  0
 16 19  2  0  0  0  0
 16  1  1  0  0  0  0
 17  8  2  0  0  0  0
 18  6  2  0  0  0  0
 18 15  1  0  0  0  0
 20  4  1  0  0  0  0
 21 20  1  0  0  0  0
 23  2  1  0  0  0  0
 24 23  2  0  0  0  0
 26 14  1  0  0  0  0
 27 22  1  0  0  0  0
 28  1  1  0  0  0  0
 29 30  1  0  0  0  0
 29 32  2  0  0  0  0
 30 28  1  0  0  0  0
 31 29  1  0  0  0  0
M  END
>  <MODEL>
7

>  <REMARK>
 VINA RESULT:     -10.2      1.519      2.037
  Name = 
  2 active torsions:
  status: ('A' for Active; 'I' for Inactive)
    1  A    between atoms: N_2  and  C_24
    2  A    between atoms: N_10  and  C_24
                            x       y       z     vdW  Elec       q    Type
                         _______ _______ _______ _____ _____    ______ ____

>  <TORSDO>
F 2

$$$$
=
 OpenBabel10272413273D

 32 37  0  0  1  0  0  0  0  0999 V2000
  181.5070  179.5830  139.7950 N   0  0  0  0  0  0  0  0  0  0  0  0
  186.0450  178.3380  141.9220 C   0  0  0  0  0  0  0  0  0  0  0  0
  184.8290  178.2700  146.6800 C   0  0  0  0  0  3  0  0  0  0  0  0
  186.1300  177.5870  146.9990 C   0  0  0  0  0  2  0  0  0  0  0  0
  188.5270  177.6840  141.6080 C   0  0  0  0  0  0  0  0  0  0  0  0
  188.7620  177.5300  140.2430 C   0  0  0  0  0  3  0  0  0  0  0  0
  184.1340  178.5290  140.1870 C   0  0  1  0  0  3  0  0  0  0  0  0
  183.6780  178.7680  142.6260 C   0  0  0  0  0  3  0  0  0  0  0  0
  190.7530  177.0400  142.1550 C   0  0  0  0  0  0  0  0  0  0  0  0
  181.7710  179.0140  141.1220 C   0  0  0  0  0  2  0  0  0  0  0  0
  184.5160  178.5970  145.4240 C   0  0  0  0  0  3  0  0  0  0  0  0
  185.0920  178.4960  142.9640 C   0  0  0  0  0  0  0  0  0  0  0  0
  185.4870  178.3910  144.3250 C   0  0  0  0  0  0  0  0  0  0  0  0
  187.7410  177.9130  143.6240 C   0  0  0  0  0  0  0  0  0  0  0  0
  191.0430  176.8800  140.7940 C   0  0  0  0  0  3  0  0  0  0  0  0
  182.5580  179.9040  138.8680 C   0  0  0  0  0  3  0  0  0  0  0  0
  183.2380  178.8190  141.3670 C   0  0  0  0  0  0  0  0  0  0  0  0
  190.0420  177.1270  139.8410 C   0  0  0  0  0  3  0  0  0  0  0  0
  183.7990  179.4520  139.0490 C   0  0  0  0  0  3  0  0  0  0  0  0
  187.2650  178.0850  146.0990 C   0  0  0  0  0  2  0  0  0  0  0  0
  186.8300  178.1020  144.6590 C   0  0  0  0  0  0  0  0  0  0  0  0
  189.0420  177.5690  143.7460 N   0  0  0  0  0  0  0  0  0  0  0  0
  185.6050  178.5710  140.5240 C   0  0  0  0  0  0  0  0  0  0  0  0
  186.4440  178.8100  139.6130 O   0  0  0  0  0  0  0  0  0  0  0  0
  191.7980  176.7620  143.1810 C   0  0  0  0  0  1  0  0  0  0  0  0
  187.3660  178.0100  142.2960 C   0  0  0  0  0  0  0  0  0  0  0  0
  189.5000  177.4320  142.5090 N   0  0  0  0  0  0  0  0  0  0  0  0
  180.1350  179.9540  139.4730 C   0  0  0  0  0  2  0  0  0  0  0  0
  180.0200  182.0320  138.0200 C   0  0  0  0  0  0  0  0  0  0  0  0
  180.0260  181.3960  139.3020 N   0  0  0  0  0  2  0  0  0  0  0  0
  179.9820  183.4520  137.9400 N   0  0  0  0  0  1  0  0  0  0  0  0
  180.0270  181.3480  136.9620 O   0  0  0  0  0  0  0  0  0  0  0  0
  1 10  1  0  0  0  0
  2 26  1  0  0  0  0
  2 12  2  0  0  0  0
  3  4  1  0  0  0  0
  5 26  2  0  0  0  0
  5 27  1  0  0  0  0
  6  5  1  0  0  0  0
  7 19  1  6  0  0  0
  7 23  1  0  0  0  0
  7 17  1  0  0  0  0
  8 12  1  0  0  0  0
  9 27  1  0  0  0  0
  9 25  1  0  0  0  0
 10 17  1  0  0  0  0
 11  3  2  0  0  0  0
 12 13  1  0  0  0  0
 13 21  2  0  0  0  0
 13 11  1  0  0  0  0
 14 22  2  0  0  0  0
 14 21  1  0  0  0  0
 15  9  2  0  0  0  0
 16 19  2  0  0  0  0
 16  1  1  0  0  0  0
 17  8  2  0  0  0  0
 18  6  2  0  0  0  0
 18 15  1  0  0  0  0
 20  4  1  0  0  0  0
 21 20  1  0  0  0  0
 23  2  1  0  0  0  0
 24 23  2  0  0  0  0
 26 14  1  0  0  0  0
 27 22  1  0  0  0  0
 28  1  1  0  0  0  0
 29 30  1  0  0  0  0
 30 28  1  0  0  0  0
 31 29  1  0  0  0  0
 32 29  2  0  0  0  0
M  END
>  <MODEL>
8

>  <REMARK>
 VINA RESULT:     -10.1      3.783      8.646
  Name = 
  2 active torsions:
  status: ('A' for Active; 'I' for Inactive)
    1  A    between atoms: N_2  and  C_24
    2  A    between atoms: N_10  and  C_24
                            x       y       z     vdW  Elec       q    Type
                         _______ _______ _______ _____ _____    ______ ____

>  <TORSDO>
F 2

$$$$
=
 OpenBabel10272413273D

 32 37  0  0  1  0  0  0  0  0999 V2000
  192.4630  176.8980  138.6950 N   0  0  0  0  0  0  0  0  0  0  0  0
  188.5630  177.7330  141.9760 C   0  0  0  0  0  0  0  0  0  0  0  0
  184.8840  178.5470  138.8240 C   0  0  0  0  0  3  0  0  0  0  0  0
  183.8960  178.4120  139.9480 C   0  0  0  0  0  2  0  0  0  0  0  0
  187.7080  177.8250  144.4140 C   0  0  0  0  0  0  0  0  0  0  0  0
  188.7400  177.3970  145.2480 C   0  0  0  0  0  3  0  0  0  0  0  0
  190.8030  176.8560  141.0210 C   0  0  1  0  0  3  0  0  0  0  0  0
  188.9600  177.5750  139.5050 C   0  0  0  0  0  3  0  0  0  0  0  0
  186.2090  178.0720  146.2470 C   0  0  0  0  0  0  0  0  0  0  0  0
  191.0200  176.8110  138.4430 C   0  0  0  0  0  2  0  0  0  0  0  0
  186.1960  178.4180  139.0440 C   0  0  0  0  0  3  0  0  0  0  0  0
  188.0660  177.8560  140.6500 C   0  0  0  0  0  0  0  0  0  0  0  0
  186.7180  178.2420  140.4180 C   0  0  0  0  0  0  0  0  0  0  0  0
  186.3410  178.3210  142.7960 C   0  0  0  0  0  0  0  0  0  0  0  0
  187.2160  177.6570  147.1290 C   0  0  0  0  0  3  0  0  0  0  0  0
  193.0030  177.2740  139.9730 C   0  0  0  0  0  3  0  0  0  0  0  0
  190.2150  177.1530  139.6610 C   0  0  0  0  0  0  0  0  0  0  0  0
  188.4820  177.3210  146.6230 C   0  0  0  0  0  3  0  0  0  0  0  0
  192.2400  177.2950  141.0660 C   0  0  0  0  0  3  0  0  0  0  0  0
  184.4490  178.9820  141.2580 C   0  0  0  0  0  2  0  0  0  0  0  0
  185.8460  178.4830  141.5050 C   0  0  0  0  0  0  0  0  0  0  0  0
  185.6480  178.4430  143.9480 N   0  0  0  0  0  0  0  0  0  0  0  0
  190.0060  177.4400  142.1620 C   0  0  0  0  0  0  0  0  0  0  0  0
  190.5780  177.6790  143.2610 O   0  0  0  0  0  0  0  0  0  0  0  0
  184.8540  178.4140  146.7650 C   0  0  0  0  0  1  0  0  0  0  0  0
  187.6510  177.9430  143.0320 C   0  0  0  0  0  0  0  0  0  0  0  0
  186.4960  178.1340  144.9190 N   0  0  0  0  0  0  0  0  0  0  0  0
  193.3640  176.7260  137.5630 C   0  0  0  0  0  2  0  0  0  0  0  0
  194.6160  174.5310  137.7980 C   0  0  0  0  0  0  0  0  0  0  0  0
  193.5420  175.3120  137.2650 N   0  0  0  0  0  2  0  0  0  0  0  0
  194.7600  173.1720  137.4010 N   0  0  0  0  0  1  0  0  0  0  0  0
  195.4220  175.0270  138.6300 O   0  0  0  0  0  0  0  0  0  0  0  0
  1 16  1  0  0  0  0
  2 23  1  0  0  0  0
  2 26  1  0  0  0  0
  3 11  2  0  0  0  0
  3  4  1  0  0  0  0
  4 20  1  0  0  0  0
  5 27  1  0  0  0  0
  5  6  1  0  0  0  0
  6 18  2  0  0  0  0
  7 19  1  6  0  0  0
  7 23  1  0  0  0  0
  8 17  2  0  0  0  0
  8 12  1  0  0  0  0
  9 25  1  0  0  0  0
  9 15  2  0  0  0  0
 10  1  1  0  0  0  0
 10 17  1  0  0  0  0
 11 13  1  0  0  0  0
 12  2  2  0  0  0  0
 13 12  1  0  0  0  0
 13 21  2  0  0  0  0
 14 26  1  0  0  0  0
 14 22  2  0  0  0  0
 16 19  2  0  0  0  0
 17  7  1  0  0  0  0
 18 15  1  0  0  0  0
 20 21  1  0  0  0  0
 21 14  1  0  0  0  0
 22 27  1  0  0  0  0
 23 24  2  0  0  0  0
 26  5  2  0  0  0  0
 27  9  1  0  0  0  0
 28  1  1  0  0  0  0
 29 32  2  0  0  0  0
 30 28  1  0  0  0  0
 30 29  1  0  0  0  0
 31 29  1  0  0  0  0
M  END
>  <MODEL>
9

>  <REMARK>
 VINA RESULT:      -9.9      1.466      4.237
  Name = 
  2 active torsions:
  status: ('A' for Active; 'I' for Inactive)
    1  A    between atoms: N_2  and  C_24
    2  A    between atoms: N_10  and  C_24
                            x       y       z     vdW  Elec       q    Type
                         _______ _______ _______ _____ _____    ______ ____

>  <TORSDO>
F 2

$$$$
