=
 OpenBabel10272413213D

 32 38  0  0  1  0  0  0  0  0999 V2000
  190.0900  177.2800  145.5700 C   0  0  0  0  0  0  0  0  0  0  0  0
  185.9560  178.2000  143.0220 C   0  0  0  0  0  0  0  0  0  0  0  0
  187.5550  178.2410  138.3980 C   0  0  0  0  0  3  0  0  0  0  0  0
  186.2630  178.5010  137.9490 C   0  0  0  0  0  3  0  0  0  0  0  0
  183.4940  178.6240  143.5430 C   0  0  0  0  0  0  0  0  0  0  0  0
  182.2810  178.8600  143.0500 C   0  0  0  0  0  0  0  0  0  0  0  0
  187.4720  177.7930  144.9020 C   0  0  0  0  0  0  0  0  0  0  0  0
  188.2670  177.8210  142.5180 C   0  0  0  0  0  3  0  0  0  0  0  0
  180.6730  179.2820  141.4300 C   0  0  2  0  0  3  0  0  0  0  0  0
  189.9610  177.4050  144.2790 C   0  0  0  0  0  3  0  0  0  0  0  0
  187.8020  178.1010  139.7630 C   0  0  0  0  0  3  0  0  0  0  0  0
  187.0160  178.0760  142.0870 C   0  0  0  0  0  0  0  0  0  0  0  0
  186.7620  178.2190  140.7060 C   0  0  0  0  0  0  0  0  0  0  0  0
  184.3870  178.6040  141.1740 C   0  0  0  0  0  0  0  0  0  0  0  0
  180.0400  179.3540  142.8410 C   0  0  0  0  0  3  0  0  0  0  0  0
  188.9700  177.4010  146.6010 C   0  0  0  0  0  0  0  0  0  0  0  0
  188.5710  177.6680  143.9070 N   0  0  0  0  0  0  0  0  0  0  0  0
  181.1100  179.0820  143.8040 N   0  0  0  0  0  0  0  0  0  0  0  0
  187.7020  177.6380  146.3910 C   0  0  0  0  0  3  0  0  0  0  0  0
  190.0710  176.5320  146.7750 C   0  0  2  0  0  3  0  0  0  0  0  0
  185.2190  178.6200  138.8660 C   0  0  0  0  0  3  0  0  0  0  0  0
  185.4470  178.4830  140.2500 C   0  0  0  0  0  0  0  0  0  0  0  0
  183.1350  178.8480  140.7340 C   0  0  0  0  0  3  0  0  0  0  0  0
  186.2410  178.0430  144.4680 C   0  0  0  0  0  3  0  0  0  0  0  0
  183.6580  178.5610  144.8880 F   0  0  0  0  0  0  0  0  0  0  0  0
  180.0080  178.1740  140.6360 C   0  0  0  0  0  1  0  0  0  0  0  0
  184.6380  178.4680  142.5750 C   0  0  0  0  0  0  0  0  0  0  0  0
  182.0650  178.9530  141.6720 N   0  0  0  0  0  0  0  0  0  0  0  0
  191.0480  177.1470  147.7590 C   0  0  0  0  0  2  0  0  0  0  0  0
  192.2580  176.2890  147.8820 C   0  0  0  0  0  0  0  0  0  0  0  0
  193.1480  176.4880  148.9290 O   0  0  0  0  0  1  0  0  0  0  0  0
  192.4590  175.3610  147.0550 O   0  0  0  0  0  0  0  0  0  0  0  0
  1 16  1  0  0  0  0
  1 20  1  0  0  0  0
  2 24  1  0  0  0  0
  3 11  1  0  0  0  0
  4  3  2  0  0  0  0
  4 21  1  0  0  0  0
  5 25  1  0  0  0  0
  6  5  2  0  0  0  0
  6 18  1  0  0  0  0
  7 19  1  0  0  0  0
  8 17  1  0  0  0  0
  9 26  1  6  0  0  0
  9 28  1  0  0  0  0
  9 15  1  0  0  0  0
 10  1  2  3  0  0  0
 11 13  2  0  0  0  0
 12  8  2  0  0  0  0
 12  2  1  0  0  0  0
 13 12  1  0  0  0  0
 14 27  1  0  0  0  0
 15 18  2  0  0  0  0
 16 20  1  0  0  0  0
 17 10  1  0  0  0  0
 17  7  1  0  0  0  0
 19 16  2  0  0  0  0
 20 29  1  1  0  0  0
 21 22  2  0  0  0  0
 22 13  1  0  0  0  0
 22 14  1  0  0  0  0
 23 14  2  0  0  0  0
 23 28  1  0  0  0  0
 24  7  2  0  0  0  0
 27  2  2  0  0  0  0
 27  5  1  0  0  0  0
 28  6  1  0  0  0  0
 29 30  1  0  0  0  0
 30 31  1  0  0  0  0
 32 30  2  0  0  0  0
M  END
>  <MODEL>
1

>  <REMARK>
 VINA RESULT:     -10.8      0.000      0.000
  Name = 
  2 active torsions:
  status: ('A' for Active; 'I' for Inactive)
    1  A    between atoms: C_1  and  C_10
    2  A    between atoms: C_10  and  C_24
                            x       y       z     vdW  Elec       q    Type
                         _______ _______ _______ _____ _____    ______ ____

>  <TORSDO>
F 2

$$$$
=
 OpenBabel10272413213D

 32 38  0  0  1  0  0  0  0  0999 V2000
  181.3460  179.2240  140.3460 C   0  0  0  0  0  0  0  0  0  0  0  0
  185.8350  178.3340  142.2120 C   0  0  0  0  0  0  0  0  0  0  0  0
  184.9950  178.3480  147.0320 C   0  0  0  0  0  3  0  0  0  0  0  0
  186.3410  178.0870  147.2720 C   0  0  0  0  0  3  0  0  0  0  0  0
  188.1900  177.9430  141.3110 C   0  0  0  0  0  0  0  0  0  0  0  0
  189.4610  177.6810  141.6050 C   0  0  0  0  0  0  0  0  0  0  0  0
  184.0360  178.7140  140.5940 C   0  0  0  0  0  0  0  0  0  0  0  0
  183.6330  178.7170  143.0740 C   0  0  0  0  0  3  0  0  0  0  0  0
  191.3150  177.3170  142.9540 C   0  0  2  0  0  3  0  0  0  0  0  0
  181.6840  179.1350  141.6010 C   0  0  0  0  0  3  0  0  0  0  0  0
  184.5330  178.4740  145.7220 C   0  0  0  0  0  3  0  0  0  0  0  0
  184.9370  178.4680  143.3020 C   0  0  0  0  0  0  0  0  0  0  0  0
  185.4090  178.3420  144.6260 C   0  0  0  0  0  0  0  0  0  0  0  0
  187.6760  177.9370  143.7900 C   0  0  0  0  0  0  0  0  0  0  0  0
  191.7350  177.3400  141.4650 C   0  0  0  0  0  3  0  0  0  0  0  0
  182.2850  179.0780  139.1500 C   0  0  0  0  0  0  0  0  0  0  0  0
  183.1110  178.8530  141.7490 N   0  0  0  0  0  0  0  0  0  0  0  0
  190.5210  177.5770  140.6810 N   0  0  0  0  0  0  0  0  0  0  0  0
  183.5690  178.8350  139.1580 C   0  0  0  0  0  3  0  0  0  0  0  0
  180.9320  178.6730  139.1070 C   0  0  2  0  0  3  0  0  0  0  0  0
  187.2250  177.9510  146.2010 C   0  0  0  0  0  3  0  0  0  0  0  0
  186.7790  178.0750  144.8700 C   0  0  0  0  0  0  0  0  0  0  0  0
  188.9790  177.6770  144.0260 C   0  0  0  0  0  3  0  0  0  0  0  0
  185.3210  178.4670  140.8280 C   0  0  0  0  0  3  0  0  0  0  0  0
  187.8360  178.1080  140.0120 F   0  0  0  0  0  0  0  0  0  0  0  0
  191.6360  175.9570  143.5460 C   0  0  0  0  0  1  0  0  0  0  0  0
  187.2080  178.0720  142.4460 C   0  0  0  0  0  0  0  0  0  0  0  0
  189.8790  177.5210  142.9300 N   0  0  0  0  0  0  0  0  0  0  0  0
  180.1200  179.7050  138.3480 C   0  0  0  0  0  2  0  0  0  0  0  0
  180.6520  179.8590  136.9660 C   0  0  0  0  0  0  0  0  0  0  0  0
  180.7430  178.7540  136.1290 O   0  0  0  0  0  0  0  0  0  0  0  0
  180.9890  180.9950  136.5440 O   0  0  0  0  0  1  0  0  0  0  0  0
  1 10  2  3  0  0  0
  2 27  2  0  0  0  0
  2 12  1  0  0  0  0
  3  4  1  0  0  0  0
  5  6  2  0  0  0  0
  5 27  1  0  0  0  0
  6 28  1  0  0  0  0
  7 24  2  0  0  0  0
  7 17  1  0  0  0  0
  8 12  2  0  0  0  0
  9 26  1  6  0  0  0
 10 17  1  0  0  0  0
 11  3  2  0  0  0  0
 12 13  1  0  0  0  0
 13 22  2  0  0  0  0
 13 11  1  0  0  0  0
 14 23  2  0  0  0  0
 14 22  1  0  0  0  0
 15  9  1  0  0  0  0
 16 19  2  0  0  0  0
 16  1  1  0  0  0  0
 17  8  1  0  0  0  0
 18 15  2  0  0  0  0
 18  6  1  0  0  0  0
 19  7  1  0  0  0  0
 20 29  1  6  0  0  0
 20 16  1  0  0  0  0
 20  1  1  0  0  0  0
 21  4  2  0  0  0  0
 22 21  1  0  0  0  0
 24  2  1  0  0  0  0
 25  5  1  0  0  0  0
 27 14  1  0  0  0  0
 28  9  1  0  0  0  0
 28 23  1  0  0  0  0
 30 29  1  0  0  0  0
 31 30  2  0  0  0  0
 32 30  1  0  0  0  0
M  END
>  <MODEL>
2

>  <REMARK>
 VINA RESULT:     -10.2      4.810      9.321
  Name = 
  2 active torsions:
  status: ('A' for Active; 'I' for Inactive)
    1  A    between atoms: C_1  and  C_10
    2  A    between atoms: C_10  and  C_24
                            x       y       z     vdW  Elec       q    Type
                         _______ _______ _______ _____ _____    ______ ____

>  <TORSDO>
F 2

$$$$
=
 OpenBabel10272413213D

 32 38  0  0  1  0  0  0  0  0999 V2000
  181.6150  179.1630  142.8930 C   0  0  0  0  0  0  0  0  0  0  0  0
  186.3580  178.0490  143.7270 C   0  0  0  0  0  0  0  0  0  0  0  0
  186.6850  178.4090  148.5960 C   0  0  0  0  0  3  0  0  0  0  0  0
  188.0320  178.0620  148.5360 C   0  0  0  0  0  3  0  0  0  0  0  0
  188.4060  177.4300  142.3360 C   0  0  0  0  0  0  0  0  0  0  0  0
  189.6920  177.0910  142.3460 C   0  0  0  0  0  0  0  0  0  0  0  0
  184.2530  178.4670  142.5470 C   0  0  0  0  0  0  0  0  0  0  0  0
  184.4490  178.6460  145.0460 C   0  0  0  0  0  3  0  0  0  0  0  0
  191.7880  176.6680  143.2510 C   0  0  2  0  0  3  0  0  0  0  0  0
  182.2350  179.1220  144.0390 C   0  0  0  0  0  3  0  0  0  0  0  0
  185.9340  178.4920  147.4240 C   0  0  0  0  0  3  0  0  0  0  0  0
  185.7530  178.3130  144.9830 C   0  0  0  0  0  0  0  0  0  0  0  0
  186.5160  178.2300  146.1670 C   0  0  0  0  0  0  0  0  0  0  0  0
  188.4940  177.6080  144.8590 C   0  0  0  0  0  0  0  0  0  0  0  0
  191.8440  176.5730  141.7070 C   0  0  0  0  0  3  0  0  0  0  0  0
  182.2350  178.8770  141.5270 C   0  0  0  0  0  0  0  0  0  0  0  0
  183.6370  178.7430  143.8720 N   0  0  0  0  0  0  0  0  0  0  0  0
  190.4950  176.8540  141.2110 N   0  0  0  0  0  0  0  0  0  0  0  0
  183.4670  178.5380  141.2540 C   0  0  0  0  0  3  0  0  0  0  0  0
  180.8880  178.5720  141.8290 C   0  0  2  0  0  3  0  0  0  0  0  0
  188.6270  177.7970  147.3020 C   0  0  0  0  0  3  0  0  0  0  0  0
  187.8870  177.8760  146.1050 C   0  0  0  0  0  0  0  0  0  0  0  0
  189.7980  177.2650  144.8060 C   0  0  0  0  0  3  0  0  0  0  0  0
  185.5400  178.1390  142.4940 C   0  0  0  0  0  3  0  0  0  0  0  0
  187.7640  177.5450  141.1460 F   0  0  0  0  0  0  0  0  0  0  0  0
  192.1580  175.3260  143.8520 C   0  0  0  0  0  1  0  0  0  0  0  0
  187.7290  177.6980  143.6550 C   0  0  0  0  0  0  0  0  0  0  0  0
  190.4010  176.9780  143.5450 N   0  0  0  0  0  0  0  0  0  0  0  0
  179.9820  179.6160  141.2040 C   0  0  0  0  0  2  0  0  0  0  0  0
  180.0800  179.5560  139.7200 C   0  0  0  0  0  0  0  0  0  0  0  0
  180.3150  180.7150  138.9920 O   0  0  0  0  0  0  0  0  0  0  0  0
  179.9820  178.4510  139.1260 O   0  0  0  0  0  1  0  0  0  0  0  0
  1 10  2  3  0  0  0
  2 12  1  0  0  0  0
  4  3  1  0  0  0  0
  5  6  2  0  0  0  0
  5 27  1  0  0  0  0
  6 28  1  0  0  0  0
  7 17  1  0  0  0  0
  9 28  1  0  0  0  0
  9 26  1  1  0  0  0
 11  3  2  0  0  0  0
 12  8  2  0  0  0  0
 12 13  1  0  0  0  0
 13 11  1  0  0  0  0
 14 22  1  0  0  0  0
 15  9  1  0  0  0  0
 16 20  1  0  0  0  0
 16  1  1  0  0  0  0
 17 10  1  0  0  0  0
 17  8  1  0  0  0  0
 18 15  2  0  0  0  0
 18  6  1  0  0  0  0
 19 16  2  0  0  0  0
 19  7  1  0  0  0  0
 20 29  1  6  0  0  0
 20  1  1  0  0  0  0
 21  4  2  0  0  0  0
 22 13  2  0  0  0  0
 22 21  1  0  0  0  0
 23 14  2  0  0  0  0
 24  7  2  0  0  0  0
 24  2  1  0  0  0  0
 25  5  1  0  0  0  0
 27  2  2  0  0  0  0
 27 14  1  0  0  0  0
 28 23  1  0  0  0  0
 30 29  1  0  0  0  0
 31 30  2  0  0  0  0
 32 30  1  0  0  0  0
M  END
>  <MODEL>
3

>  <REMARK>
 VINA RESULT:      -9.8      4.522      9.094
  Name = 
  2 active torsions:
  status: ('A' for Active; 'I' for Inactive)
    1  A    between atoms: C_1  and  C_10
    2  A    between atoms: C_10  and  C_24
                            x       y       z     vdW  Elec       q    Type
                         _______ _______ _______ _____ _____    ______ ____

>  <TORSDO>
F 2

$$$$
=
 OpenBabel10272413213D

 32 38  0  0  1  0  0  0  0  0999 V2000
  183.3030  178.7920  144.3650 C   0  0  0  0  0  0  0  0  0  0  0  0
  187.6110  177.7610  142.1710 C   0  0  0  0  0  0  0  0  0  0  0  0
  190.5710  176.9630  145.9840 C   0  0  0  0  0  3  0  0  0  0  0  0
  191.6300  176.7120  145.1150 C   0  0  0  0  0  3  0  0  0  0  0  0
  188.5030  177.6020  139.7860 C   0  0  0  0  0  0  0  0  0  0  0  0
  189.5500  177.3380  139.0080 C   0  0  0  0  0  0  0  0  0  0  0  0
  185.2510  178.3390  142.4770 C   0  0  0  0  0  0  0  0  0  0  0  0
  186.7930  177.9250  144.4170 C   0  0  0  0  0  3  0  0  0  0  0  0
  191.7530  176.8220  138.4860 C   0  0  2  0  0  3  0  0  0  0  0  0
  184.4410  178.5110  144.9350 C   0  0  0  0  0  3  0  0  0  0  0  0
  189.3140  177.2840  145.4740 C   0  0  0  0  0  3  0  0  0  0  0  0
  187.8160  177.6860  143.5730 C   0  0  0  0  0  0  0  0  0  0  0  0
  189.0900  177.3620  144.0850 C   0  0  0  0  0  0  0  0  0  0  0  0
  189.9690  177.1750  141.8050 C   0  0  0  0  0  0  0  0  0  0  0  0
  190.9490  177.1020  137.1930 C   0  0  0  0  0  3  0  0  0  0  0  0
  183.0490  178.8740  142.8610 C   0  0  0  0  0  0  0  0  0  0  0  0
  185.4850  178.2570  143.9430 N   0  0  0  0  0  0  0  0  0  0  0  0
  189.5790  177.4220  137.6010 N   0  0  0  0  0  0  0  0  0  0  0  0
  183.8970  178.6760  141.8870 C   0  0  0  0  0  3  0  0  0  0  0  0
  182.0640  178.4360  143.7750 C   0  0  2  0  0  3  0  0  0  0  0  0
  191.4300  176.7820  143.7370 C   0  0  0  0  0  3  0  0  0  0  0  0
  190.1670  177.1050  143.2000 C   0  0  0  0  0  0  0  0  0  0  0  0
  190.9960  176.9240  140.9660 C   0  0  0  0  0  3  0  0  0  0  0  0
  186.2650  178.1010  141.6510 C   0  0  0  0  0  3  0  0  0  0  0  0
  187.3300  177.9640  139.2090 F   0  0  0  0  0  0  0  0  0  0  0  0
  192.2690  175.3960  138.4580 C   0  0  0  0  0  1  0  0  0  0  0  0
  188.6830  177.5110  141.2780 C   0  0  0  0  0  0  0  0  0  0  0  0
  190.7860  176.9790  139.5560 N   0  0  0  0  0  0  0  0  0  0  0  0
  181.0620  179.5490  144.0100 C   0  0  0  0  0  2  0  0  0  0  0  0
  180.3360  179.8600  142.7470 C   0  0  0  0  0  0  0  0  0  0  0  0
  180.0170  178.8400  141.8610 O   0  0  0  0  0  0  0  0  0  0  0  0
  179.9830  181.0410  142.4980 O   0  0  0  0  0  1  0  0  0  0  0  0
  1 10  2  3  0  0  0
  2 12  1  0  0  0  0
  4  3  2  0  0  0  0
  5 27  1  0  0  0  0
  6 28  1  0  0  0  0
  6  5  2  0  0  0  0
  7 17  1  0  0  0  0
  9 26  1  6  0  0  0
  9 28  1  0  0  0  0
 11  3  1  0  0  0  0
 12 13  1  0  0  0  0
 12  8  2  0  0  0  0
 13 11  2  0  0  0  0
 14 22  1  0  0  0  0
 15 18  2  0  0  0  0
 15  9  1  0  0  0  0
 16 20  1  0  0  0  0
 16  1  1  0  0  0  0
 17  8  1  0  0  0  0
 17 10  1  0  0  0  0
 18  6  1  0  0  0  0
 19  7  1  0  0  0  0
 19 16  2  0  0  0  0
 20 29  1  1  0  0  0
 20  1  1  0  0  0  0
 21  4  1  0  0  0  0
 22 21  2  0  0  0  0
 22 13  1  0  0  0  0
 23 14  2  0  0  0  0
 24  2  1  0  0  0  0
 24  7  2  0  0  0  0
 25  5  1  0  0  0  0
 27 14  1  0  0  0  0
 27  2  2  0  0  0  0
 28 23  1  0  0  0  0
 30 29  1  0  0  0  0
 31 30  2  0  0  0  0
 32 30  1  0  0  0  0
M  END
>  <MODEL>
4

>  <REMARK>
 VINA RESULT:      -9.8      4.429      8.399
  Name = 
  2 active torsions:
  status: ('A' for Active; 'I' for Inactive)
    1  A    between atoms: C_1  and  C_10
    2  A    between atoms: C_10  and  C_24
                            x       y       z     vdW  Elec       q    Type
                         _______ _______ _______ _____ _____    ______ ____

>  <TORSDO>
F 2

$$$$
=
 OpenBabel10272413213D

 32 38  0  0  1  0  0  0  0  0999 V2000
  190.8470  176.8760  136.8520 C   0  0  0  0  0  0  0  0  0  0  0  0
  189.6060  177.2960  141.6190 C   0  0  0  0  0  0  0  0  0  0  0  0
  184.9730  178.8470  141.3680 C   0  0  0  0  0  3  0  0  0  0  0  0
  184.9000  178.8690  142.7580 C   0  0  0  0  0  3  0  0  0  0  0  0
  190.7310  176.9420  143.8810 C   0  0  0  0  0  0  0  0  0  0  0  0
  190.5950  176.9710  145.2050 C   0  0  0  0  0  0  0  0  0  0  0  0
  190.9220  176.8510  139.6010 C   0  0  0  0  0  0  0  0  0  0  0  0
  188.5420  177.6500  139.5020 C   0  0  0  0  0  3  0  0  0  0  0  0
  189.5440  177.3450  147.2410 C   0  0  2  0  0  3  0  0  0  0  0  0
  189.7080  177.2700  137.3480 C   0  0  0  0  0  3  0  0  0  0  0  0
  186.1530  178.4530  140.7390 C   0  0  0  0  0  3  0  0  0  0  0  0
  188.4770  177.6720  140.8470 C   0  0  0  0  0  0  0  0  0  0  0  0
  187.2840  178.0730  141.4880 C   0  0  0  0  0  0  0  0  0  0  0  0
  188.3300  177.7160  143.6760 C   0  0  0  0  0  0  0  0  0  0  0  0
  191.0130  176.9140  147.4690 C   0  0  0  0  0  3  0  0  0  0  0  0
  192.0790  176.4580  137.6540 C   0  0  0  0  0  0  0  0  0  0  0  0
  189.7290  177.2510  138.8100 N   0  0  0  0  0  0  0  0  0  0  0  0
  191.6070  176.7010  146.1480 N   0  0  0  0  0  0  0  0  0  0  0  0
  192.2180  176.4080  138.9520 C   0  0  0  0  0  3  0  0  0  0  0  0
  191.7540  175.8830  136.4040 C   0  0  2  0  0  3  0  0  0  0  0  0
  186.0090  178.4950  143.5180 C   0  0  0  0  0  3  0  0  0  0  0  0
  187.2110  178.0940  142.9030 C   0  0  0  0  0  0  0  0  0  0  0  0
  188.2530  177.7310  145.0230 C   0  0  0  0  0  3  0  0  0  0  0  0
  190.8490  176.8750  140.9280 C   0  0  0  0  0  3  0  0  0  0  0  0
  191.9330  176.6020  143.3510 F   0  0  0  0  0  0  0  0  0  0  0  0
  188.6160  176.3280  147.8760 C   0  0  0  0  0  1  0  0  0  0  0  0
  189.5440  177.3170  143.0340 C   0  0  0  0  0  0  0  0  0  0  0  0
  189.3820  177.3330  145.7990 N   0  0  0  0  0  0  0  0  0  0  0  0
  192.6490  176.4720  135.3310 C   0  0  0  0  0  2  0  0  0  0  0  0
  194.0750  176.1610  135.6250 C   0  0  0  0  0  0  0  0  0  0  0  0
  194.9800  177.1920  135.8450 O   0  0  0  0  0  1  0  0  0  0  0  0
  194.4550  174.9650  135.7070 O   0  0  0  0  0  0  0  0  0  0  0  0
  1 10  2  3  0  0  0
  1 16  1  0  0  0  0
  2 27  2  0  0  0  0
  3  4  1  0  0  0  0
  4 21  2  0  0  0  0
  5  6  2  0  0  0  0
  6 28  1  0  0  0  0
  6 18  1  0  0  0  0
  7 24  2  0  0  0  0
  8 12  2  0  0  0  0
  9 15  1  0  0  0  0
  9 26  1  1  0  0  0
 10 17  1  0  0  0  0
 11  3  2  0  0  0  0
 11 13  1  0  0  0  0
 12 13  1  0  0  0  0
 12  2  1  0  0  0  0
 13 22  2  0  0  0  0
 14 23  2  0  0  0  0
 16 19  2  0  0  0  0
 17  8  1  0  0  0  0
 17  7  1  0  0  0  0
 18 15  2  0  0  0  0
 19  7  1  0  0  0  0
 20 29  1  6  0  0  0
 20  1  1  0  0  0  0
 20 16  1  0  0  0  0
 22 21  1  0  0  0  0
 22 14  1  0  0  0  0
 23 28  1  0  0  0  0
 24  2  1  0  0  0  0
 25  5  1  0  0  0  0
 27 14  1  0  0  0  0
 27  5  1  0  0  0  0
 28  9  1  0  0  0  0
 29 30  1  0  0  0  0
 30 32  2  0  0  0  0
 30 31  1  0  0  0  0
M  END
>  <MODEL>
5

>  <REMARK>
 VINA RESULT:      -9.5      4.482      8.146
  Name = 
  2 active torsions:
  status: ('A' for Active; 'I' for Inactive)
    1  A    between atoms: C_1  and  C_10
    2  A    between atoms: C_10  and  C_24
                            x       y       z     vdW  Elec       q    Type
                         _______ _______ _______ _____ _____    ______ ____

>  <TORSDO>
F 2

$$$$
=
 OpenBabel10272413213D

 32 38  0  0  1  0  0  0  0  0999 V2000
  190.6140  176.6220  147.3390 C   0  0  0  0  0  0  0  0  0  0  0  0
  188.6530  177.4920  142.8860 C   0  0  0  0  0  0  0  0  0  0  0  0
  184.0660  178.7880  143.9900 C   0  0  0  0  0  3  0  0  0  0  0  0
  183.7850  178.9620  142.6380 C   0  0  0  0  0  3  0  0  0  0  0  0
  189.4200  177.3970  140.4540 C   0  0  0  0  0  0  0  0  0  0  0  0
  189.0940  177.5930  139.1800 C   0  0  0  0  0  0  0  0  0  0  0  0
  190.2740  176.9000  144.6240 C   0  0  0  0  0  0  0  0  0  0  0  0
  187.9120  177.5680  145.1630 C   0  0  0  0  0  3  0  0  0  0  0  0
  187.7240  178.0960  137.3740 C   0  0  2  0  0  3  0  0  0  0  0  0
  189.3960  176.9920  147.0630 C   0  0  0  0  0  3  0  0  0  0  0  0
  185.3390  178.3820  144.3900 C   0  0  0  0  0  3  0  0  0  0  0  0
  187.6430  177.7320  143.8530 C   0  0  0  0  0  0  0  0  0  0  0  0
  186.3560  178.1410  143.4450 C   0  0  0  0  0  0  0  0  0  0  0  0
  187.0720  178.0850  141.1020 C   0  0  0  0  0  0  0  0  0  0  0  0
  189.1210  177.6520  136.8770 C   0  0  0  0  0  3  0  0  0  0  0  0
  191.7260  176.3630  146.3240 C   0  0  0  0  0  0  0  0  0  0  0  0
  189.2020  177.1550  145.6230 N   0  0  0  0  0  0  0  0  0  0  0  0
  189.9220  177.3500  138.0660 N   0  0  0  0  0  0  0  0  0  0  0  0
  191.6700  176.4670  145.0220 C   0  0  0  0  0  3  0  0  0  0  0  0
  191.9810  176.8810  147.6130 C   0  0  2  0  0  3  0  0  0  0  0  0
  184.7780  178.7300  141.6860 C   0  0  0  0  0  3  0  0  0  0  0  0
  186.0700  178.3190  142.0680 C   0  0  0  0  0  0  0  0  0  0  0  0
  186.7970  178.2620  139.7920 C   0  0  0  0  0  3  0  0  0  0  0  0
  190.0000  177.0650  143.3340 C   0  0  0  0  0  3  0  0  0  0  0  0
  190.6640  176.9450  140.7530 F   0  0  0  0  0  0  0  0  0  0  0  0
  187.4600  179.5210  136.9250 C   0  0  0  0  0  1  0  0  0  0  0  0
  188.3760  177.6620  141.5070 C   0  0  0  0  0  0  0  0  0  0  0  0
  187.8180  178.0410  138.8200 N   0  0  0  0  0  0  0  0  0  0  0  0
  192.5290  175.7790  148.5000 C   0  0  0  0  0  2  0  0  0  0  0  0
  193.2050  176.3670  149.6890 C   0  0  0  0  0  0  0  0  0  0  0  0
  193.4990  177.7240  149.7210 O   0  0  0  0  0  0  0  0  0  0  0  0
  193.4820  175.6420  150.6790 O   0  0  0  0  0  1  0  0  0  0  0  0
  1 20  1  0  0  0  0
  2 24  1  0  0  0  0
  2 12  1  0  0  0  0
  3 11  1  0  0  0  0
  4  3  2  0  0  0  0
  5 25  1  0  0  0  0
  5 27  1  0  0  0  0
  6  5  2  0  0  0  0
  7 19  1  0  0  0  0
  7 17  1  0  0  0  0
  8 17  1  0  0  0  0
  9 26  1  1  0  0  0
  9 28  1  0  0  0  0
 10  1  2  3  0  0  0
 12  8  2  0  0  0  0
 13 12  1  0  0  0  0
 13 11  2  0  0  0  0
 14 27  1  0  0  0  0
 14 22  1  0  0  0  0
 15  9  1  0  0  0  0
 15 18  2  0  0  0  0
 16  1  1  0  0  0  0
 16 20  1  0  0  0  0
 17 10  1  0  0  0  0
 18  6  1  0  0  0  0
 19 16  2  0  0  0  0
 20 29  1  1  0  0  0
 21 22  2  0  0  0  0
 21  4  1  0  0  0  0
 22 13  1  0  0  0  0
 23 14  2  0  0  0  0
 24  7  2  0  0  0  0
 27  2  2  0  0  0  0
 28  6  1  0  0  0  0
 28 23  1  0  0  0  0
 29 30  1  0  0  0  0
 30 31  2  0  0  0  0
 30 32  1  0  0  0  0
M  END
>  <MODEL>
6

>  <REMARK>
 VINA RESULT:      -9.5      2.919      5.206
  Name = 
  2 active torsions:
  status: ('A' for Active; 'I' for Inactive)
    1  A    between atoms: C_1  and  C_10
    2  A    between atoms: C_10  and  C_24
                            x       y       z     vdW  Elec       q    Type
                         _______ _______ _______ _____ _____    ______ ____

>  <TORSDO>
F 2

$$$$
=
 OpenBabel10272413213D

 32 38  0  0  1  0  0  0  0  0999 V2000
  183.9500  178.9820  138.8250 C   0  0  0  0  0  0  0  0  0  0  0  0
  186.9340  178.1120  142.6690 C   0  0  0  0  0  0  0  0  0  0  0  0
  191.2620  177.3960  140.5010 C   0  0  0  0  0  3  0  0  0  0  0  0
  191.8550  177.1930  141.7440 C   0  0  0  0  0  3  0  0  0  0  0  0
  186.7160  177.9560  145.2060 C   0  0  0  0  0  0  0  0  0  0  0  0
  187.3450  177.7650  146.3640 C   0  0  0  0  0  0  0  0  0  0  0  0
  184.9160  178.6110  141.3730 C   0  0  0  0  0  0  0  0  0  0  0  0
  187.1510  178.2370  140.2860 C   0  0  0  0  0  3  0  0  0  0  0  0
  189.1180  177.2890  147.7840 C   0  0  2  0  0  3  0  0  0  0  0  0
  185.2250  178.7170  138.8000 C   0  0  0  0  0  3  0  0  0  0  0  0
  189.8980  177.6740  140.4190 C   0  0  0  0  0  3  0  0  0  0  0  0
  187.7210  178.0380  141.4900 C   0  0  0  0  0  0  0  0  0  0  0  0
  189.1000  177.7540  141.5780 C   0  0  0  0  0  0  0  0  0  0  0  0
  188.9270  177.6240  144.0190 C   0  0  0  0  0  0  0  0  0  0  0  0
  187.8090  177.4360  148.5960 C   0  0  0  0  0  3  0  0  0  0  0  0
  183.0770  179.0760  140.0750 C   0  0  0  0  0  0  0  0  0  0  0  0
  185.7560  178.5280  140.1490 N   0  0  0  0  0  0  0  0  0  0  0  0
  186.7410  177.7300  147.6370 N   0  0  0  0  0  0  0  0  0  0  0  0
  183.4340  178.9210  141.3230 C   0  0  0  0  0  3  0  0  0  0  0  0
  182.8450  179.8650  138.9260 C   0  0  2  0  0  3  0  0  0  0  0  0
  191.0840  177.2690  142.9040 C   0  0  0  0  0  3  0  0  0  0  0  0
  189.7040  177.5480  142.8430 C   0  0  0  0  0  0  0  0  0  0  0  0
  189.5090  177.4340  145.2220 C   0  0  0  0  0  3  0  0  0  0  0  0
  185.4870  178.4140  142.5570 C   0  0  0  0  0  3  0  0  0  0  0  0
  185.3760  178.1630  145.2110 F   0  0  0  0  0  0  0  0  0  0  0  0
  190.1090  178.3470  148.2310 C   0  0  0  0  0  1  0  0  0  0  0  0
  187.5280  177.9030  143.9380 C   0  0  0  0  0  0  0  0  0  0  0  0
  188.7220  177.5290  146.4090 N   0  0  0  0  0  0  0  0  0  0  0  0
  181.6760  179.2920  138.1480 C   0  0  0  0  0  2  0  0  0  0  0  0
  181.1060  180.3290  137.2430 C   0  0  0  0  0  0  0  0  0  0  0  0
  181.1070  181.6630  137.6270 O   0  0  0  0  0  1  0  0  0  0  0  0
  180.6540  180.0000  136.1160 O   0  0  0  0  0  0  0  0  0  0  0  0
  1 20  1  0  0  0  0
  1 16  1  0  0  0  0
  2 27  2  0  0  0  0
  3  4  1  0  0  0  0
  4 21  2  0  0  0  0
  5 25  1  0  0  0  0
  5  6  2  0  0  0  0
  6 28  1  0  0  0  0
  6 18  1  0  0  0  0
  7 24  2  0  0  0  0
  8 12  2  0  0  0  0
  9 26  1  1  0  0  0
  9 15  1  0  0  0  0
 10  1  2  3  0  0  0
 10 17  1  0  0  0  0
 11  3  2  0  0  0  0
 11 13  1  0  0  0  0
 12 13  1  0  0  0  0
 12  2  1  0  0  0  0
 13 22  2  0  0  0  0
 14 23  2  0  0  0  0
 16 19  2  0  0  0  0
 17  8  1  0  0  0  0
 17  7  1  0  0  0  0
 18 15  2  0  0  0  0
 19  7  1  0  0  0  0
 20 29  1  6  0  0  0
 20 16  1  0  0  0  0
 22 21  1  0  0  0  0
 22 14  1  0  0  0  0
 23 28  1  0  0  0  0
 24  2  1  0  0  0  0
 27 14  1  0  0  0  0
 27  5  1  0  0  0  0
 28  9  1  0  0  0  0
 30 31  1  0  0  0  0
 30 29  1  0  0  0  0
 32 30  2  0  0  0  0
M  END
>  <MODEL>
7

>  <REMARK>
 VINA RESULT:      -9.5      4.642      8.418
  Name = 
  2 active torsions:
  status: ('A' for Active; 'I' for Inactive)
    1  A    between atoms: C_1  and  C_10
    2  A    between atoms: C_10  and  C_24
                            x       y       z     vdW  Elec       q    Type
                         _______ _______ _______ _____ _____    ______ ____

>  <TORSDO>
F 2

$$$$
=
 OpenBabel10272413213D

 32 38  0  0  1  0  0  0  0  0999 V2000
  188.2320  177.6180  137.3270 C   0  0  0  0  0  0  0  0  0  0  0  0
  187.9440  177.7940  142.2580 C   0  0  0  0  0  0  0  0  0  0  0  0
  183.3150  179.1990  142.9930 C   0  0  0  0  0  3  0  0  0  0  0  0
  183.5170  179.1600  144.3710 C   0  0  0  0  0  3  0  0  0  0  0  0
  189.5010  177.3830  144.2380 C   0  0  0  0  0  0  0  0  0  0  0  0
  189.6270  177.3510  145.5620 C   0  0  0  0  0  0  0  0  0  0  0  0
  188.8470  177.4790  140.0030 C   0  0  0  0  0  0  0  0  0  0  0  0
  186.4750  178.2010  140.4100 C   0  0  0  0  0  3  0  0  0  0  0  0
  188.9890  177.6040  147.7800 C   0  0  2  0  0  3  0  0  0  0  0  0
  187.2030  177.9520  138.0540 C   0  0  0  0  0  3  0  0  0  0  0  0
  184.3580  178.8710  142.1270 C   0  0  0  0  0  3  0  0  0  0  0  0
  186.6760  178.1650  141.7420 C   0  0  0  0  0  0  0  0  0  0  0  0
  185.6230  178.4980  142.6210 C   0  0  0  0  0  0  0  0  0  0  0  0
  187.0880  178.0850  144.5430 C   0  0  0  0  0  0  0  0  0  0  0  0
  190.4840  177.2120  147.6960 C   0  0  0  0  0  3  0  0  0  0  0  0
  189.6070  177.2080  137.8510 C   0  0  0  0  0  0  0  0  0  0  0  0
  187.5120  177.8720  139.4810 N   0  0  0  0  0  0  0  0  0  0  0  0
  190.8120  177.0760  146.2740 N   0  0  0  0  0  0  0  0  0  0  0  0
  190.0000  177.1070  139.0930 C   0  0  0  0  0  3  0  0  0  0  0  0
  189.0570  176.6760  136.6630 C   0  0  2  0  0  3  0  0  0  0  0  0
  184.7620  178.7910  144.8800 C   0  0  0  0  0  3  0  0  0  0  0  0
  185.8300  178.4570  144.0230 C   0  0  0  0  0  0  0  0  0  0  0  0
  187.2770  178.0400  145.8780 C   0  0  0  0  0  3  0  0  0  0  0  0
  189.0360  177.4450  141.3190 C   0  0  0  0  0  3  0  0  0  0  0  0
  190.5820  177.1060  143.4670 F   0  0  0  0  0  0  0  0  0  0  0  0
  188.2290  176.5300  148.5350 C   0  0  0  0  0  1  0  0  0  0  0  0
  188.1610  177.7540  143.6580 C   0  0  0  0  0  0  0  0  0  0  0  0
  188.5460  177.6470  146.3990 N   0  0  0  0  0  0  0  0  0  0  0  0
  189.7080  177.3390  135.4640 C   0  0  0  0  0  2  0  0  0  0  0  0
  190.5770  176.3650  134.7490 C   0  0  0  0  0  0  0  0  0  0  0  0
  190.1150  175.0810  134.4890 O   0  0  0  0  0  1  0  0  0  0  0  0
  191.7190  176.7130  134.3510 O   0  0  0  0  0  0  0  0  0  0  0  0
  1 16  1  0  0  0  0
  1 10  2  3  0  0  0
  2 27  2  0  0  0  0
  3  4  1  0  0  0  0
  4 21  2  0  0  0  0
  5  6  2  0  0  0  0
  6 18  1  0  0  0  0
  6 28  1  0  0  0  0
  7 24  2  0  0  0  0
  8 12  2  0  0  0  0
  9 26  1  1  0  0  0
 10 17  1  0  0  0  0
 11 13  1  0  0  0  0
 11  3  2  0  0  0  0
 12  2  1  0  0  0  0
 12 13  1  0  0  0  0
 13 22  2  0  0  0  0
 14 23  2  0  0  0  0
 15  9  1  0  0  0  0
 16 19  2  0  0  0  0
 17  7  1  0  0  0  0
 17  8  1  0  0  0  0
 18 15  2  0  0  0  0
 19  7  1  0  0  0  0
 20 29  1  6  0  0  0
 20  1  1  0  0  0  0
 20 16  1  0  0  0  0
 22 14  1  0  0  0  0
 22 21  1  0  0  0  0
 23 28  1  0  0  0  0
 24  2  1  0  0  0  0
 25  5  1  0  0  0  0
 27  5  1  0  0  0  0
 27 14  1  0  0  0  0
 28  9  1  0  0  0  0
 30 29  1  0  0  0  0
 31 30  1  0  0  0  0
 32 30  2  0  0  0  0
M  END
>  <MODEL>
8

>  <REMARK>
 VINA RESULT:      -9.4      4.316      8.086
  Name = 
  2 active torsions:
  status: ('A' for Active; 'I' for Inactive)
    1  A    between atoms: C_1  and  C_10
    2  A    between atoms: C_10  and  C_24
                            x       y       z     vdW  Elec       q    Type
                         _______ _______ _______ _____ _____    ______ ____

>  <TORSDO>
F 2

$$$$
=
 OpenBabel10272413213D

 32 38  0  0  1  0  0  0  0  0999 V2000
  191.2930  176.9300  145.3740 C   0  0  0  0  0  0  0  0  0  0  0  0
  188.1750  177.8140  141.6420 C   0  0  0  0  0  0  0  0  0  0  0  0
  190.9490  176.9080  137.7150 C   0  0  0  0  0  3  0  0  0  0  0  0
  189.8770  177.2160  136.8810 C   0  0  0  0  0  3  0  0  0  0  0  0
  185.7520  178.5660  141.3690 C   0  0  0  0  0  0  0  0  0  0  0  0
  184.7630  178.8350  140.5200 C   0  0  0  0  0  0  0  0  0  0  0  0
  189.0550  177.5830  143.9160 C   0  0  0  0  0  0  0  0  0  0  0  0
  190.4570  177.1250  141.8820 C   0  0  0  0  0  3  0  0  0  0  0  0
  183.7290  179.1350  138.4630 C   0  0  2  0  0  3  0  0  0  0  0  0
  191.5360  176.8470  144.0970 C   0  0  0  0  0  3  0  0  0  0  0  0
  190.7970  176.9780  139.0990 C   0  0  0  0  0  3  0  0  0  0  0  0
  189.4180  177.4270  141.0790 C   0  0  0  0  0  0  0  0  0  0  0  0
  189.5690  177.3590  139.6770 C   0  0  0  0  0  0  0  0  0  0  0  0
  187.2370  178.0530  139.3840 C   0  0  0  0  0  0  0  0  0  0  0  0
  182.7580  179.5080  139.6090 C   0  0  0  0  0  3  0  0  0  0  0  0
  189.9660  177.3370  146.0120 C   0  0  0  0  0  0  0  0  0  0  0  0
  190.3510  177.1810  143.3080 N   0  0  0  0  0  0  0  0  0  0  0  0
  183.4780  179.2980  140.8670 N   0  0  0  0  0  0  0  0  0  0  0  0
  188.8500  177.6610  145.4150 C   0  0  0  0  0  3  0  0  0  0  0  0
  190.8430  176.4050  146.6120 C   0  0  2  0  0  3  0  0  0  0  0  0
  188.6530  177.5930  137.4330 C   0  0  0  0  0  3  0  0  0  0  0  0
  188.4780  177.6710  138.8300 C   0  0  0  0  0  0  0  0  0  0  0  0
  186.1990  178.3440  138.5720 C   0  0  0  0  0  3  0  0  0  0  0  0
  188.0350  177.8780  143.1170 C   0  0  0  0  0  3  0  0  0  0  0  0
  185.5370  178.7160  142.7000 F   0  0  0  0  0  0  0  0  0  0  0  0
  183.1500  177.9810  137.6680 C   0  0  0  0  0  1  0  0  0  0  0  0
  187.0790  178.1330  140.8020 C   0  0  0  0  0  0  0  0  0  0  0  0
  184.9420  178.7130  139.1390 N   0  0  0  0  0  0  0  0  0  0  0  0
  191.5970  177.0760  147.7430 C   0  0  0  0  0  2  0  0  0  0  0  0
  192.6790  176.1810  148.2390 C   0  0  0  0  0  0  0  0  0  0  0  0
  193.4900  176.5880  149.2910 O   0  0  0  0  0  1  0  0  0  0  0  0
  192.8390  175.0430  147.7280 O   0  0  0  0  0  0  0  0  0  0  0  0
  1 16  1  0  0  0  0
  1 20  1  0  0  0  0
  2 24  1  0  0  0  0
  3 11  1  0  0  0  0
  4 21  1  0  0  0  0
  4  3  2  0  0  0  0
  5 25  1  0  0  0  0
  6 18  1  0  0  0  0
  6  5  2  0  0  0  0
  7 19  1  0  0  0  0
  8 17  1  0  0  0  0
  9 26  1  1  0  0  0
  9 28  1  0  0  0  0
  9 15  1  0  0  0  0
 10  1  2  3  0  0  0
 11 13  2  0  0  0  0
 12  2  1  0  0  0  0
 12  8  2  0  0  0  0
 13 12  1  0  0  0  0
 14 27  1  0  0  0  0
 15 18  2  0  0  0  0
 16 20  1  0  0  0  0
 17  7  1  0  0  0  0
 17 10  1  0  0  0  0
 19 16  2  0  0  0  0
 20 29  1  1  0  0  0
 21 22  2  0  0  0  0
 22 14  1  0  0  0  0
 22 13  1  0  0  0  0
 23 28  1  0  0  0  0
 23 14  2  0  0  0  0
 24  7  2  0  0  0  0
 27  5  1  0  0  0  0
 27  2  2  0  0  0  0
 28  6  1  0  0  0  0
 29 30  1  0  0  0  0
 30 31  1  0  0  0  0
 32 30  2  0  0  0  0
M  END
>  <MODEL>
9

>  <REMARK>
 VINA RESULT:      -9.2      1.902      2.899
  Name = 
  2 active torsions:
  status: ('A' for Active; 'I' for Inactive)
    1  A    between atoms: C_1  and  C_10
    2  A    between atoms: C_10  and  C_24
                            x       y       z     vdW  Elec       q    Type
                         _______ _______ _______ _____ _____    ______ ____

>  <TORSDO>
F 2

$$$$
