=
 OpenBabel10272413253D

 32 37  0  0  1  0  0  0  0  0999 V2000
  189.8300  176.6100  142.4050 C   0  0  2  0  0  3  0  0  0  0  0  0
  187.4080  177.7810  138.4440 C   0  0  0  0  0  2  0  0  0  0  0  0
  192.2160  174.6390  136.9390 C   0  0  0  0  0  3  0  0  0  0  0  0
  191.2670  173.6800  136.8370 C   0  0  0  0  0  3  0  0  0  0  0  0
  188.1600  178.4370  140.7220 C   0  0  2  0  0  3  0  0  0  0  0  0
  190.0850  178.3190  138.9690 C   0  0  0  0  0  2  0  0  0  0  0  0
  190.0530  176.5500  140.9020 C   0  0  0  0  0  2  0  0  0  0  0  0
  191.8730  176.1080  137.1050 C   0  0  0  0  0  2  0  0  0  0  0  0
  189.8490  177.6160  137.6230 C   0  0  1  0  0  3  0  0  0  0  0  0
  190.4500  176.2370  137.6260 C   0  0  1  0  0  3  0  0  0  0  0  0
  188.1910  175.9140  137.0320 N   0  0  0  0  0  0  0  0  0  0  0  0
  188.3470  176.7790  142.7130 C   0  0  0  0  0  2  0  0  0  0  0  0
  189.3220  177.6470  140.1170 C   0  0  1  0  0  0  0  0  0  0  0  0
  187.8240  178.1150  142.1870 C   0  0  0  0  0  2  0  0  0  0  0  0
  189.7840  173.9830  136.9630 C   0  0  0  0  0  2  0  0  0  0  0  0
  189.5400  175.4690  136.7190 C   0  0  2  0  0  3  0  0  0  0  0  0
  187.8720  177.2580  139.8010 C   0  0  2  0  0  3  0  0  0  0  0  0
  188.3560  177.3440  137.3220 C   0  0  1  0  0  3  0  0  0  0  0  0
  190.8400  177.9200  143.1770 S   0  0  0  0  0  0  0  0  0  0  0  0
  191.5920  176.7660  144.3670 C   0  0  0  0  0  2  0  0  0  0  0  0
  191.1270  177.0630  145.7560 C   0  0  0  0  0  0  0  0  0  0  0  0
  189.7620  177.6310  145.9790 C   0  0  0  0  0  1  0  0  0  0  0  0
  191.8790  176.8910  146.7040 O   0  0  0  0  0  0  0  0  0  0  0  0
  187.4060  175.8440  135.8050 C   0  0  0  0  0  2  0  0  0  0  0  0
  187.5510  173.4620  134.3470 O   0  0  0  0  0  1  0  0  0  0  0  0
  185.4650  172.4870  135.1680 C   0  0  2  0  0  3  0  0  0  0  0  0
  186.2790  174.8220  135.9390 C   0  0  2  0  0  3  0  0  0  0  0  0
  185.0490  173.3250  137.5480 C   0  0  0  0  0  2  0  0  0  0  0  0
  184.4250  172.7560  136.2610 C   0  0  0  0  0  2  0  0  0  0  0  0
  186.3550  171.3170  135.5730 C   0  0  0  0  0  1  0  0  0  0  0  0
  186.3120  174.1630  137.3120 C   0  0  0  0  0  2  0  0  0  0  0  0
  186.2600  173.7660  134.8100 C   0  0  1  0  0  3  0  0  0  0  0  0
  1 12  1  0  0  0  0
  1 19  1  6  0  0  0
  3  8  1  0  0  0  0
  4  3  2  0  0  0  0
  4 15  1  0  0  0  0
  5 14  1  1  0  0  0
  7  1  1  0  0  0  0
  9 10  1  0  0  0  0
  9  6  1  1  0  0  0
 10  8  1  6  0  0  0
 11 18  1  0  0  0  0
 13  6  1  6  0  0  0
 13  5  1  0  0  0  0
 13  7  1  0  0  0  0
 14 12  1  0  0  0  0
 16 15  1  1  0  0  0
 16 11  1  0  0  0  0
 16 10  1  0  0  0  0
 17  2  1  6  0  0  0
 17 13  1  0  0  0  0
 17  5  1  0  0  0  0
 18  9  1  0  0  0  0
 18  2  1  1  0  0  0
 19 20  1  0  0  0  0
 20 21  1  0  0  0  0
 21 22  1  0  0  0  0
 21 23  2  0  0  0  0
 24 11  1  0  0  0  0
 26 30  1  1  0  0  0
 26 29  1  0  0  0  0
 27 24  1  6  0  0  0
 27 31  1  0  0  0  0
 29 28  1  0  0  0  0
 31 28  1  0  0  0  0
 32 25  1  1  0  0  0
 32 26  1  0  0  0  0
 32 27  1  0  0  0  0
M  END
>  <MODEL>
1

>  <REMARK>
 VINA RESULT:      -6.8      0.000      0.000
  Name = 
  5 active torsions:
  status: ('A' for Active; 'I' for Inactive)
    1  A    between atoms: C_1  and  C_10
    2  A    between atoms: C_2  and  S_24
    3  A    between atoms: C_10  and  S_24
    4  A    between atoms: C_11  and  C_27
    5  A    between atoms: N_16  and  C_27
                            x       y       z     vdW  Elec       q    Type
                         _______ _______ _______ _____ _____    ______ ____

>  <TORSDO>
F 5

$$$$
=
 OpenBabel10272413253D

 32 37  0  0  1  0  0  0  0  0999 V2000
  191.1570  177.8900  144.7650 C   0  0  2  0  0  3  0  0  0  0  0  0
  187.6770  178.0760  141.4810 C   0  0  0  0  0  2  0  0  0  0  0  0
  185.2520  178.0580  146.9010 C   0  0  0  0  0  3  0  0  0  0  0  0
  185.1510  179.3730  146.6020 C   0  0  0  0  0  3  0  0  0  0  0  0
  189.9120  177.2000  142.1320 C   0  0  2  0  0  3  0  0  0  0  0  0
  187.9410  176.1940  143.5100 C   0  0  0  0  0  2  0  0  0  0  0  0
  189.6420  177.7660  144.7360 C   0  0  0  0  0  2  0  0  0  0  0  0
  185.6300  177.0150  145.8640 C   0  0  0  0  0  2  0  0  0  0  0  0
  186.5600  176.8640  143.4660 C   0  0  1  0  0  3  0  0  0  0  0  0
  186.3280  177.6960  144.6970 C   0  0  1  0  0  3  0  0  0  0  0  0
  185.9720  179.1700  142.8910 N   0  0  0  0  0  0  0  0  0  0  0  0
  191.6570  178.5620  143.4910 C   0  0  0  0  0  2  0  0  0  0  0  0
  189.0840  177.2120  143.4190 C   0  0  1  0  0  0  0  0  0  0  0  0
  191.3580  177.7040  142.2630 C   0  0  0  0  0  2  0  0  0  0  0  0
  185.4870  179.9270  145.2280 C   0  0  0  0  0  2  0  0  0  0  0  0
  185.4510  178.8020  144.1980 C   0  0  2  0  0  3  0  0  0  0  0  0
  188.8980  178.3130  142.3660 C   0  0  2  0  0  3  0  0  0  0  0  0
  186.4070  177.8900  142.3180 C   0  0  1  0  0  3  0  0  0  0  0  0
  191.9540  176.2700  145.0380 S   0  0  0  0  0  0  0  0  0  0  0  0
  191.0550  175.9890  146.5950 C   0  0  0  0  0  2  0  0  0  0  0  0
  191.8510  176.4790  147.7610 C   0  0  0  0  0  0  0  0  0  0  0  0
  192.9210  175.6160  148.3470 C   0  0  0  0  0  1  0  0  0  0  0  0
  191.5950  177.5630  148.2660 O   0  0  0  0  0  0  0  0  0  0  0  0
  184.8460  179.6100  142.0740 C   0  0  0  0  0  2  0  0  0  0  0  0
  182.2010  178.7350  141.8330 O   0  0  0  0  0  1  0  0  0  0  0  0
  182.5700  177.1930  139.9730 C   0  0  2  0  0  3  0  0  0  0  0  0
  184.5040  178.5660  141.0140 C   0  0  2  0  0  3  0  0  0  0  0  0
  184.4960  178.0780  138.5430 C   0  0  0  0  0  2  0  0  0  0  0  0
  183.6770  176.8480  138.9700 C   0  0  0  0  0  2  0  0  0  0  0  0
  181.4830  178.0110  139.2850 C   0  0  0  0  0  1  0  0  0  0  0  0
  184.5930  179.1690  139.6170 C   0  0  0  0  0  2  0  0  0  0  0  0
  183.1400  177.8750  141.2410 C   0  0  1  0  0  3  0  0  0  0  0  0
  1 19  1  6  0  0  0
  4  3  2  0  0  0  0
  5 14  1  1  0  0  0
  5 17  1  0  0  0  0
  5 13  1  0  0  0  0
  7  1  1  0  0  0  0
  8  3  1  0  0  0  0
  9  6  1  1  0  0  0
  9 10  1  0  0  0  0
 10  8  1  1  0  0  0
 11 16  1  0  0  0  0
 12  1  1  0  0  0  0
 13  6  1  1  0  0  0
 13  7  1  0  0  0  0
 14 12  1  0  0  0  0
 15  4  1  0  0  0  0
 16 10  1  0  0  0  0
 16 15  1  1  0  0  0
 17  2  1  6  0  0  0
 17 13  1  0  0  0  0
 18  2  1  1  0  0  0
 18 11  1  0  0  0  0
 18  9  1  0  0  0  0
 19 20  1  0  0  0  0
 20 21  1  0  0  0  0
 21 23  2  0  0  0  0
 21 22  1  0  0  0  0
 24 11  1  0  0  0  0
 26 30  1  6  0  0  0
 26 32  1  0  0  0  0
 27 32  1  0  0  0  0
 27 24  1  1  0  0  0
 28 29  1  0  0  0  0
 28 31  1  0  0  0  0
 29 26  1  0  0  0  0
 31 27  1  0  0  0  0
 32 25  1  6  0  0  0
M  END
>  <MODEL>
2

>  <REMARK>
 VINA RESULT:      -6.0      4.565      6.848
  Name = 
  5 active torsions:
  status: ('A' for Active; 'I' for Inactive)
    1  A    between atoms: C_1  and  C_10
    2  A    between atoms: C_2  and  S_24
    3  A    between atoms: C_10  and  S_24
    4  A    between atoms: C_11  and  C_27
    5  A    between atoms: N_16  and  C_27
                            x       y       z     vdW  Elec       q    Type
                         _______ _______ _______ _____ _____    ______ ____

>  <TORSDO>
F 5

$$$$
=
 OpenBabel10272413253D

 32 37  0  0  1  0  0  0  0  0999 V2000
  185.7130  173.9060  136.8020 C   0  0  2  0  0  3  0  0  0  0  0  0
  189.6530  175.3710  134.5100 C   0  0  0  0  0  2  0  0  0  0  0  0
  189.3540  178.0560  139.7980 C   0  0  0  0  0  3  0  0  0  0  0  0
  190.2690  177.0990  140.0710 C   0  0  0  0  0  3  0  0  0  0  0  0
  187.2660  174.6910  134.3660 C   0  0  2  0  0  3  0  0  0  0  0  0
  187.6400  176.9870  135.5410 C   0  0  0  0  0  2  0  0  0  0  0  0
  186.7760  174.9770  136.9840 C   0  0  0  0  0  2  0  0  0  0  0  0
  188.8980  178.3640  138.3830 C   0  0  0  0  0  2  0  0  0  0  0  0
  189.0480  177.3870  136.0040 C   0  0  1  0  0  3  0  0  0  0  0  0
  189.2060  177.1760  137.4850 C   0  0  1  0  0  3  0  0  0  0  0  0
  190.9770  175.9650  136.5070 N   0  0  0  0  0  0  0  0  0  0  0  0
  186.2030  172.8320  135.8380 C   0  0  0  0  0  2  0  0  0  0  0  0
  187.3900  175.4800  135.6710 C   0  0  1  0  0  0  0  0  0  0  0  0
  186.4230  173.4070  134.4390 C   0  0  0  0  0  2  0  0  0  0  0  0
  190.8550  176.1980  138.9980 C   0  0  0  0  0  2  0  0  0  0  0  0
  190.6570  176.8370  137.6260 C   0  0  2  0  0  3  0  0  0  0  0  0
  188.5400  174.5820  135.1940 C   0  0  2  0  0  3  0  0  0  0  0  0
  190.1690  176.5030  135.4060 C   0  0  1  0  0  3  0  0  0  0  0  0
  184.1240  174.6290  136.2650 S   0  0  0  0  0  0  0  0  0  0  0  0
  183.9960  175.6780  137.7470 C   0  0  0  0  0  2  0  0  0  0  0  0
  184.0370  177.1250  137.3750 C   0  0  0  0  0  0  0  0  0  0  0  0
  185.0030  178.0410  138.0550 C   0  0  0  0  0  1  0  0  0  0  0  0
  183.2480  177.5690  136.5530 O   0  0  0  0  0  0  0  0  0  0  0  0
  192.3670  176.2100  136.1390 C   0  0  0  0  0  2  0  0  0  0  0  0
  194.5830  175.7770  137.7890 O   0  0  0  0  0  1  0  0  0  0  0  0
  195.1240  173.5370  136.9720 C   0  0  2  0  0  3  0  0  0  0  0  0
  193.1360  174.8960  136.0180 C   0  0  2  0  0  3  0  0  0  0  0  0
  192.9630  172.3920  136.2240 C   0  0  0  0  0  2  0  0  0  0  0  0
  194.4950  172.4550  136.0870 C   0  0  0  0  0  2  0  0  0  0  0  0
  195.0040  173.1440  138.4400 C   0  0  0  0  0  1  0  0  0  0  0  0
  192.3100  173.7380  136.5640 C   0  0  0  0  0  2  0  0  0  0  0  0
  194.5400  174.9370  136.6630 C   0  0  1  0  0  3  0  0  0  0  0  0
  1 19  1  6  0  0  0
  1  7  1  0  0  0  0
  3  4  2  0  0  0  0
  5 14  1  1  0  0  0
  5 17  1  0  0  0  0
  5 13  1  0  0  0  0
  8  3  1  0  0  0  0
  9  6  1  6  0  0  0
  9 10  1  0  0  0  0
 10 16  1  0  0  0  0
 10  8  1  1  0  0  0
 11 16  1  0  0  0  0
 12  1  1  0  0  0  0
 13  6  1  6  0  0  0
 13  7  1  0  0  0  0
 14 12  1  0  0  0  0
 15  4  1  0  0  0  0
 16 15  1  1  0  0  0
 17  2  1  6  0  0  0
 17 13  1  0  0  0  0
 18  2  1  1  0  0  0
 18  9  1  0  0  0  0
 18 11  1  0  0  0  0
 19 20  1  0  0  0  0
 21 20  1  0  0  0  0
 21 22  1  0  0  0  0
 23 21  2  0  0  0  0
 24 11  1  0  0  0  0
 26 30  1  1  0  0  0
 27 24  1  1  0  0  0
 27 31  1  0  0  0  0
 27 32  1  0  0  0  0
 28 31  1  0  0  0  0
 29 28  1  0  0  0  0
 29 26  1  0  0  0  0
 32 26  1  0  0  0  0
 32 25  1  1  0  0  0
M  END
>  <MODEL>
3

>  <REMARK>
 VINA RESULT:      -5.7      3.482      7.259
  Name = 
  5 active torsions:
  status: ('A' for Active; 'I' for Inactive)
    1  A    between atoms: C_1  and  C_10
    2  A    between atoms: C_2  and  S_24
    3  A    between atoms: C_10  and  S_24
    4  A    between atoms: C_11  and  C_27
    5  A    between atoms: N_16  and  C_27
                            x       y       z     vdW  Elec       q    Type
                         _______ _______ _______ _____ _____    ______ ____

>  <TORSDO>
F 5

$$$$
=
 OpenBabel10272413253D

 32 37  0  0  1  0  0  0  0  0999 V2000
  190.6570  178.4460  145.2460 C   0  0  2  0  0  3  0  0  0  0  0  0
  188.5220  177.6510  141.0360 C   0  0  0  0  0  2  0  0  0  0  0  0
  184.3940  178.8970  145.1180 C   0  0  0  0  0  3  0  0  0  0  0  0
  184.4640  180.0890  144.4820 C   0  0  0  0  0  3  0  0  0  0  0  0
  190.3540  177.0620  142.6100 C   0  0  2  0  0  3  0  0  0  0  0  0
  187.9860  176.3540  143.4360 C   0  0  0  0  0  2  0  0  0  0  0  0
  189.2390  178.2550  144.7340 C   0  0  0  0  0  2  0  0  0  0  0  0
  185.0520  177.6440  144.5700 C   0  0  0  0  0  2  0  0  0  0  0  0
  186.7360  176.9320  142.7550 C   0  0  1  0  0  3  0  0  0  0  0  0
  186.1390  178.0370  143.5810 C   0  0  1  0  0  3  0  0  0  0  0  0
  186.4920  178.9910  141.4540 N   0  0  0  0  0  0  0  0  0  0  0  0
  191.5940  178.7960  144.0960 C   0  0  0  0  0  2  0  0  0  0  0  0
  189.1390  177.3640  143.4890 C   0  0  1  0  0  0  0  0  0  0  0  0
  191.6920  177.6440  143.0970 C   0  0  0  0  0  2  0  0  0  0  0  0
  185.2740  180.2920  143.2140 C   0  0  0  0  0  2  0  0  0  0  0  0
  185.5390  178.9430  142.5510 C   0  0  2  0  0  3  0  0  0  0  0  0
  189.3770  178.1540  142.1960 C   0  0  2  0  0  3  0  0  0  0  0  0
  187.0350  177.6280  141.4060 C   0  0  1  0  0  3  0  0  0  0  0  0
  191.2340  176.9830  146.1740 S   0  0  0  0  0  0  0  0  0  0  0  0
  189.5880  176.6730  146.8860 C   0  0  0  0  0  2  0  0  0  0  0  0
  189.2900  177.6560  147.9720 C   0  0  0  0  0  0  0  0  0  0  0  0
  187.8790  178.0820  148.2230 C   0  0  0  0  0  1  0  0  0  0  0  0
  190.2020  178.1490  148.6210 O   0  0  0  0  0  0  0  0  0  0  0  0
  185.7350  179.1630  140.2190 C   0  0  0  0  0  2  0  0  0  0  0  0
  183.6500  180.5450  138.9680 O   0  0  0  0  0  1  0  0  0  0  0  0
  181.8410  179.0770  139.7080 C   0  0  2  0  0  3  0  0  0  0  0  0
  184.3050  178.6540  140.3820 C   0  0  2  0  0  3  0  0  0  0  0  0
  182.7630  176.7060  139.9710 C   0  0  0  0  0  2  0  0  0  0  0  0
  181.6740  177.7120  140.3860 C   0  0  0  0  0  2  0  0  0  0  0  0
  181.5400  178.9580  138.2180 C   0  0  0  0  0  1  0  0  0  0  0  0
  184.1080  177.3520  139.6160 C   0  0  0  0  0  2  0  0  0  0  0  0
  183.2280  179.6960  140.0060 C   0  0  1  0  0  3  0  0  0  0  0  0
  1 19  1  6  0  0  0
  4  3  2  0  0  0  0
  5 14  1  1  0  0  0
  5 13  1  0  0  0  0
  7  1  1  0  0  0  0
  8  3  1  0  0  0  0
  9  6  1  1  0  0  0
  9 10  1  0  0  0  0
 10  8  1  1  0  0  0
 11 16  1  0  0  0  0
 12  1  1  0  0  0  0
 13  6  1  6  0  0  0
 13  7  1  0  0  0  0
 14 12  1  0  0  0  0
 15  4  1  0  0  0  0
 16 15  1  1  0  0  0
 16 10  1  0  0  0  0
 17  2  1  6  0  0  0
 17  5  1  0  0  0  0
 17 13  1  0  0  0  0
 18  2  1  1  0  0  0
 18 11  1  0  0  0  0
 18  9  1  0  0  0  0
 19 20  1  0  0  0  0
 20 21  1  0  0  0  0
 21 22  1  0  0  0  0
 21 23  2  0  0  0  0
 24 11  1  0  0  0  0
 26 30  1  6  0  0  0
 26 32  1  0  0  0  0
 26 29  1  0  0  0  0
 27 24  1  6  0  0  0
 28 29  1  0  0  0  0
 31 28  1  0  0  0  0
 31 27  1  0  0  0  0
 32 25  1  6  0  0  0
 32 27  1  0  0  0  0
M  END
>  <MODEL>
4

>  <REMARK>
 VINA RESULT:      -5.6      4.503      6.532
  Name = 
  5 active torsions:
  status: ('A' for Active; 'I' for Inactive)
    1  A    between atoms: C_1  and  C_10
    2  A    between atoms: C_2  and  S_24
    3  A    between atoms: C_10  and  S_24
    4  A    between atoms: C_11  and  C_27
    5  A    between atoms: N_16  and  C_27
                            x       y       z     vdW  Elec       q    Type
                         _______ _______ _______ _____ _____    ______ ____

>  <TORSDO>
F 5

$$$$
=
 OpenBabel10272413253D

 32 37  0  0  1  0  0  0  0  0999 V2000
  190.0110  176.1790  138.4460 C   0  0  2  0  0  3  0  0  0  0  0  0
  185.8010  178.1930  137.3730 C   0  0  0  0  0  2  0  0  0  0  0  0
  185.6890  172.4690  135.7990 C   0  0  0  0  0  3  0  0  0  0  0  0
  184.9900  172.4090  136.9550 C   0  0  0  0  0  3  0  0  0  0  0  0
  188.2720  178.4320  137.5180 C   0  0  2  0  0  3  0  0  0  0  0  0
  187.4760  176.8250  135.6260 C   0  0  0  0  0  2  0  0  0  0  0  0
  188.7590  175.8020  137.6690 C   0  0  0  0  0  2  0  0  0  0  0  0
  186.0390  173.7850  135.1280 C   0  0  0  0  0  2  0  0  0  0  0  0
  186.0280  176.3140  135.6190 C   0  0  1  0  0  3  0  0  0  0  0  0
  185.9530  174.9090  136.1490 C   0  0  1  0  0  3  0  0  0  0  0  0
  184.4360  176.1390  137.4700 N   0  0  0  0  0  0  0  0  0  0  0  0
  189.7210  177.3470  139.3820 C   0  0  0  0  0  2  0  0  0  0  0  0
  188.0250  176.9970  137.0480 C   0  0  1  0  0  0  0  0  0  0  0  0
  189.3560  178.6050  138.5940 C   0  0  0  0  0  2  0  0  0  0  0  0
  184.5710  173.6510  137.7220 C   0  0  0  0  0  2  0  0  0  0  0  0
  184.6020  174.8620  136.7940 C   0  0  2  0  0  3  0  0  0  0  0  0
  187.0670  177.6640  138.0440 C   0  0  2  0  0  3  0  0  0  0  0  0
  185.0930  177.0960  136.5710 C   0  0  1  0  0  3  0  0  0  0  0  0
  191.4090  176.5330  137.3260 S   0  0  0  0  0  0  0  0  0  0  0  0
  192.2470  174.9690  137.7300 C   0  0  0  0  0  2  0  0  0  0  0  0
  193.7300  175.1220  137.6220 C   0  0  0  0  0  0  0  0  0  0  0  0
  194.6280  174.0230  138.0920 C   0  0  0  0  0  1  0  0  0  0  0  0
  194.2100  176.1640  137.1980 O   0  0  0  0  0  0  0  0  0  0  0  0
  183.0160  176.4730  137.4410 C   0  0  0  0  0  2  0  0  0  0  0  0
  180.3520  176.6780  138.2640 O   0  0  0  0  0  1  0  0  0  0  0  0
  180.7170  178.3250  140.0330 C   0  0  2  0  0  3  0  0  0  0  0  0
  182.6610  177.4360  138.5720 C   0  0  2  0  0  3  0  0  0  0  0  0
  183.0630  177.9890  140.9950 C   0  0  0  0  0  2  0  0  0  0  0  0
  181.8930  178.9660  140.7800 C   0  0  0  0  0  2  0  0  0  0  0  0
  180.0390  177.2890  140.9220 C   0  0  0  0  0  1  0  0  0  0  0  0
  183.1940  176.9210  139.9030 C   0  0  0  0  0  2  0  0  0  0  0  0
  181.1530  177.7630  138.6590 C   0  0  1  0  0  3  0  0  0  0  0  0
  1 19  1  6  0  0  0
  1 12  1  0  0  0  0
  3  4  2  0  0  0  0
  4 15  1  0  0  0  0
  5 17  1  0  0  0  0
  5 14  1  1  0  0  0
  7  1  1  0  0  0  0
  8  3  1  0  0  0  0
  9  6  1  1  0  0  0
  9 10  1  0  0  0  0
  9 18  1  0  0  0  0
 10  8  1  6  0  0  0
 10 16  1  0  0  0  0
 13  6  1  6  0  0  0
 13  5  1  0  0  0  0
 13  7  1  0  0  0  0
 13 17  1  0  0  0  0
 14 12  1  0  0  0  0
 16 11  1  0  0  0  0
 16 15  1  1  0  0  0
 17  2  1  6  0  0  0
 18  2  1  1  0  0  0
 18 11  1  0  0  0  0
 19 20  1  0  0  0  0
 21 20  1  0  0  0  0
 21 22  1  0  0  0  0
 23 21  2  0  0  0  0
 24 11  1  0  0  0  0
 26 29  1  0  0  0  0
 26 30  1  1  0  0  0
 27 24  1  6  0  0  0
 27 32  1  0  0  0  0
 27 31  1  0  0  0  0
 29 28  1  0  0  0  0
 31 28  1  0  0  0  0
 32 25  1  1  0  0  0
 32 26  1  0  0  0  0
M  END
>  <MODEL>
5

>  <REMARK>
 VINA RESULT:      -5.6      3.869      6.160
  Name = 
  5 active torsions:
  status: ('A' for Active; 'I' for Inactive)
    1  A    between atoms: C_1  and  C_10
    2  A    between atoms: C_2  and  S_24
    3  A    between atoms: C_10  and  S_24
    4  A    between atoms: C_11  and  C_27
    5  A    between atoms: N_16  and  C_27
                            x       y       z     vdW  Elec       q    Type
                         _______ _______ _______ _____ _____    ______ ____

>  <TORSDO>
F 5

$$$$
=
 OpenBabel10272413253D

 32 37  0  0  1  0  0  0  0  0999 V2000
  186.3440  173.6370  136.9540 C   0  0  2  0  0  3  0  0  0  0  0  0
  190.6500  175.2330  135.6010 C   0  0  0  0  0  2  0  0  0  0  0  0
  188.7970  178.3520  140.3020 C   0  0  0  0  0  3  0  0  0  0  0  0
  189.6660  177.5090  140.9060 C   0  0  0  0  0  3  0  0  0  0  0  0
  188.4340  174.3320  134.9270 C   0  0  2  0  0  3  0  0  0  0  0  0
  188.3390  176.7500  135.8950 C   0  0  0  0  0  2  0  0  0  0  0  0
  187.2530  174.8110  137.2830 C   0  0  0  0  0  2  0  0  0  0  0  0
  188.7130  178.4880  138.7930 C   0  0  0  0  0  2  0  0  0  0  0  0
  189.5480  177.3140  136.6560 C   0  0  1  0  0  3  0  0  0  0  0  0
  189.3210  177.2550  138.1420 C   0  0  1  0  0  3  0  0  0  0  0  0
  191.3600  176.1230  137.7920 N   0  0  0  0  0  0  0  0  0  0  0  0
  187.1380  172.5280  136.2750 C   0  0  0  0  0  2  0  0  0  0  0  0
  188.1590  175.2440  136.1240 C   0  0  1  0  0  0  0  0  0  0  0  0
  187.6830  172.9900  134.9240 C   0  0  0  0  0  2  0  0  0  0  0  0
  190.5700  176.5700  140.1260 C   0  0  0  0  0  2  0  0  0  0  0  0
  190.7020  177.0610  138.6870 C   0  0  2  0  0  3  0  0  0  0  0  0
  189.4480  174.4140  136.0600 C   0  0  2  0  0  3  0  0  0  0  0  0
  190.8390  176.4830  136.4680 C   0  0  1  0  0  3  0  0  0  0  0  0
  184.9120  174.1630  135.9510 S   0  0  0  0  0  0  0  0  0  0  0  0
  184.2990  175.2840  137.2480 C   0  0  0  0  0  2  0  0  0  0  0  0
  184.3440  176.7040  136.7830 C   0  0  0  0  0  0  0  0  0  0  0  0
  185.0710  177.7290  137.5920 C   0  0  0  0  0  1  0  0  0  0  0  0
  183.7450  177.0360  135.7700 O   0  0  0  0  0  0  0  0  0  0  0  0
  192.7790  176.4560  137.7670 C   0  0  0  0  0  2  0  0  0  0  0  0
  194.8350  176.8420  135.9110 O   0  0  0  0  0  1  0  0  0  0  0  0
  195.5950  174.5210  135.8270 C   0  0  2  0  0  3  0  0  0  0  0  0
  193.6110  175.2560  137.3210 C   0  0  2  0  0  3  0  0  0  0  0  0
  195.1650  173.4340  138.1010 C   0  0  0  0  0  2  0  0  0  0  0  0
  195.3720  173.2110  136.5930 C   0  0  0  0  0  2  0  0  0  0  0  0
  196.9490  175.1160  136.1970 C   0  0  0  0  0  1  0  0  0  0  0  0
  194.5140  174.7770  138.4520 C   0  0  0  0  0  2  0  0  0  0  0  0
  194.4180  175.5060  136.0260 C   0  0  1  0  0  3  0  0  0  0  0  0
  1 19  1  6  0  0  0
  1  7  1  0  0  0  0
  3  4  2  0  0  0  0
  5 14  1  1  0  0  0
  5 17  1  0  0  0  0
  5 13  1  0  0  0  0
  8  3  1  0  0  0  0
  9  6  1  6  0  0  0
  9 10  1  0  0  0  0
 10 16  1  0  0  0  0
 10  8  1  1  0  0  0
 11 16  1  0  0  0  0
 12  1  1  0  0  0  0
 13  6  1  6  0  0  0
 13  7  1  0  0  0  0
 14 12  1  0  0  0  0
 15  4  1  0  0  0  0
 16 15  1  1  0  0  0
 17  2  1  6  0  0  0
 17 13  1  0  0  0  0
 18  2  1  6  0  0  0
 18  9  1  0  0  0  0
 18 11  1  0  0  0  0
 19 20  1  0  0  0  0
 21 20  1  0  0  0  0
 21 22  1  0  0  0  0
 23 21  2  0  0  0  0
 24 11  1  0  0  0  0
 26 32  1  0  0  0  0
 26 30  1  1  0  0  0
 26 29  1  0  0  0  0
 27 24  1  1  0  0  0
 27 31  1  0  0  0  0
 28 31  1  0  0  0  0
 29 28  1  0  0  0  0
 32 25  1  1  0  0  0
 32 27  1  0  0  0  0
M  END
>  <MODEL>
6

>  <REMARK>
 VINA RESULT:      -5.6      3.497      7.612
  Name = 
  5 active torsions:
  status: ('A' for Active; 'I' for Inactive)
    1  A    between atoms: C_1  and  C_10
    2  A    between atoms: C_2  and  S_24
    3  A    between atoms: C_10  and  S_24
    4  A    between atoms: C_11  and  C_27
    5  A    between atoms: N_16  and  C_27
                            x       y       z     vdW  Elec       q    Type
                         _______ _______ _______ _____ _____    ______ ____

>  <TORSDO>
F 5

$$$$
=
 OpenBabel10272413253D

 32 37  0  0  1  0  0  0  0  0999 V2000
  187.6400  175.5780  137.0040 C   0  0  2  0  0  3  0  0  0  0  0  0
  191.3060  176.9080  139.7800 C   0  0  0  0  0  2  0  0  0  0  0  0
  186.2070  178.4060  142.4270 C   0  0  0  0  0  3  0  0  0  0  0  0
  186.5140  177.2880  143.1240 C   0  0  0  0  0  3  0  0  0  0  0  0
  190.4000  176.6320  137.4810 C   0  0  2  0  0  3  0  0  0  0  0  0
  189.2620  178.5420  138.8420 C   0  0  0  0  0  2  0  0  0  0  0  0
  187.8450  176.4170  138.2550 C   0  0  0  0  0  2  0  0  0  0  0  0
  187.1930  179.0750  141.4860 C   0  0  0  0  0  2  0  0  0  0  0  0
  189.4660  178.6210  140.3620 C   0  0  1  0  0  3  0  0  0  0  0  0
  188.2700  178.0760  141.0930 C   0  0  1  0  0  3  0  0  0  0  0  0
  190.1050  176.8570  141.9350 N   0  0  0  0  0  0  0  0  0  0  0  0
  188.8460  174.6770  136.7680 C   0  0  0  0  0  2  0  0  0  0  0  0
  189.2180  177.0950  138.3360 C   0  0  1  0  0  0  0  0  0  0  0  0
  190.1010  175.5010  136.4840 C   0  0  0  0  0  2  0  0  0  0  0  0
  187.8400  176.5640  142.9620 C   0  0  0  0  0  2  0  0  0  0  0  0
  188.8680  177.5050  142.3420 C   0  0  2  0  0  3  0  0  0  0  0  0
  190.2850  176.1630  138.9260 C   0  0  2  0  0  3  0  0  0  0  0  0
  190.6230  177.7320  140.8770 C   0  0  1  0  0  3  0  0  0  0  0  0
  187.2760  176.6250  135.5520 S   0  0  0  0  0  0  0  0  0  0  0  0
  186.1470  177.6970  136.4940 C   0  0  0  0  0  2  0  0  0  0  0  0
  184.7560  177.1490  136.4710 C   0  0  0  0  0  0  0  0  0  0  0  0
  184.1890  176.6100  135.1970 C   0  0  0  0  0  1  0  0  0  0  0  0
  184.0660  177.1870  137.4800 O   0  0  0  0  0  0  0  0  0  0  0  0
  191.0470  176.9690  143.0430 C   0  0  0  0  0  2  0  0  0  0  0  0
  192.2840  175.7850  145.2540 O   0  0  0  0  0  1  0  0  0  0  0  0
  190.5000  176.2340  146.8640 C   0  0  2  0  0  3  0  0  0  0  0  0
  190.3150  176.9530  144.3830 C   0  0  2  0  0  3  0  0  0  0  0  0
  189.3090  178.3940  146.1870 C   0  0  0  0  0  2  0  0  0  0  0  0
  189.2110  177.0600  146.9480 C   0  0  0  0  0  2  0  0  0  0  0  0
  191.6070  176.9150  147.6620 C   0  0  0  0  0  1  0  0  0  0  0  0
  190.2490  178.3550  144.9760 C   0  0  0  0  0  2  0  0  0  0  0  0
  190.8950  175.9410  145.3960 C   0  0  1  0  0  3  0  0  0  0  0  0
  1 19  1  6  0  0  0
  1  7  1  0  0  0  0
  3  4  2  0  0  0  0
  5 14  1  6  0  0  0
  5 13  1  0  0  0  0
  5 17  1  0  0  0  0
  8  3  1  0  0  0  0
  9  6  1  6  0  0  0
  9 18  1  0  0  0  0
  9 10  1  0  0  0  0
 10  8  1  1  0  0  0
 10 16  1  0  0  0  0
 11 16  1  0  0  0  0
 11 24  1  0  0  0  0
 12  1  1  0  0  0  0
 13  7  1  6  0  0  0
 13  6  1  0  0  0  0
 13 17  1  0  0  0  0
 14 12  1  0  0  0  0
 15  4  1  0  0  0  0
 16 15  1  6  0  0  0
 17  2  1  1  0  0  0
 18  2  1  6  0  0  0
 18 11  1  0  0  0  0
 19 20  1  0  0  0  0
 21 20  1  0  0  0  0
 21 23  2  0  0  0  0
 22 21  1  0  0  0  0
 26 29  1  0  0  0  0
 26 30  1  6  0  0  0
 27 24  1  6  0  0  0
 27 31  1  0  0  0  0
 27 32  1  0  0  0  0
 28 29  1  0  0  0  0
 31 28  1  0  0  0  0
 32 25  1  1  0  0  0
 32 26  1  0  0  0  0
M  END
>  <MODEL>
7

>  <REMARK>
 VINA RESULT:      -5.6      2.838      8.517
  Name = 
  5 active torsions:
  status: ('A' for Active; 'I' for Inactive)
    1  A    between atoms: C_1  and  C_10
    2  A    between atoms: C_2  and  S_24
    3  A    between atoms: C_10  and  S_24
    4  A    between atoms: C_11  and  C_27
    5  A    between atoms: N_16  and  C_27
                            x       y       z     vdW  Elec       q    Type
                         _______ _______ _______ _____ _____    ______ ____

>  <TORSDO>
F 5

$$$$
=
 OpenBabel10272413253D

 32 37  0  0  1  0  0  0  0  0999 V2000
  183.8300  173.9290  136.8190 C   0  0  2  0  0  3  0  0  0  0  0  0
  187.9360  176.3320  137.3530 C   0  0  0  0  0  2  0  0  0  0  0  0
  183.5370  179.3810  139.9240 C   0  0  0  0  0  3  0  0  0  0  0  0
  184.1060  178.8230  141.0160 C   0  0  0  0  0  3  0  0  0  0  0  0
  186.5180  174.8850  135.9120 C   0  0  2  0  0  3  0  0  0  0  0  0
  185.5860  177.2990  136.2260 C   0  0  0  0  0  2  0  0  0  0  0  0
  184.2630  175.3060  137.2960 C   0  0  0  0  0  2  0  0  0  0  0  0
  184.1960  179.3480  138.5560 C   0  0  0  0  0  2  0  0  0  0  0  0
  186.1520  178.1970  137.3360 C   0  0  1  0  0  3  0  0  0  0  0  0
  185.2280  178.2300  138.5230 C   0  0  1  0  0  3  0  0  0  0  0  0
  187.3140  177.5680  139.3970 N   0  0  0  0  0  0  0  0  0  0  0  0
  185.0160  172.9710  136.8230 C   0  0  0  0  0  2  0  0  0  0  0  0
  185.5480  175.8220  136.6360 C   0  0  1  0  0  0  0  0  0  0  0  0
  186.0830  173.4130  135.8230 C   0  0  0  0  0  2  0  0  0  0  0  0
  185.4090  178.0450  140.9510 C   0  0  0  0  0  2  0  0  0  0  0  0
  186.1640  178.4120  139.6760 C   0  0  2  0  0  3  0  0  0  0  0  0
  186.8060  175.3070  137.3470 C   0  0  2  0  0  3  0  0  0  0  0  0
  187.4750  177.6700  137.9420 C   0  0  1  0  0  3  0  0  0  0  0  0
  183.0270  174.0130  135.1810 S   0  0  0  0  0  0  0  0  0  0  0  0
  181.3710  173.7180  135.8770 C   0  0  0  0  0  2  0  0  0  0  0  0
  181.2430  172.3080  136.3570 C   0  0  0  0  0  0  0  0  0  0  0  0
  180.6190  172.0290  137.6860 C   0  0  0  0  0  1  0  0  0  0  0  0
  181.6940  171.3900  135.6870 O   0  0  0  0  0  0  0  0  0  0  0  0
  188.4880  178.2140  139.9750 C   0  0  0  0  0  2  0  0  0  0  0  0
  191.2010  177.6640  140.3680 O   0  0  0  0  0  1  0  0  0  0  0  0
  190.9730  176.6160  142.5640 C   0  0  2  0  0  3  0  0  0  0  0  0
  188.9230  177.5060  141.2550 C   0  0  2  0  0  3  0  0  0  0  0  0
  188.9730  177.6610  143.7680 C   0  0  0  0  0  2  0  0  0  0  0  0
  189.9010  176.4390  143.6460 C   0  0  0  0  0  2  0  0  0  0  0  0
  191.9810  177.6730  142.9990 C   0  0  0  0  0  1  0  0  0  0  0  0
  188.7780  178.4320  142.4570 C   0  0  0  0  0  2  0  0  0  0  0  0
  190.3440  176.9020  141.1790 C   0  0  1  0  0  3  0  0  0  0  0  0
  1 19  1  6  0  0  0
  1 12  1  0  0  0  0
  1  7  1  0  0  0  0
  3  4  2  0  0  0  0
  5 14  1  1  0  0  0
  5 13  1  0  0  0  0
  5 17  1  0  0  0  0
  8  3  1  0  0  0  0
  9  6  1  6  0  0  0
  9 18  1  0  0  0  0
  9 10  1  0  0  0  0
 10  8  1  6  0  0  0
 10 16  1  0  0  0  0
 11 16  1  0  0  0  0
 11 24  1  0  0  0  0
 13  6  1  6  0  0  0
 13  7  1  0  0  0  0
 13 17  1  0  0  0  0
 14 12  1  0  0  0  0
 15  4  1  0  0  0  0
 16 15  1  1  0  0  0
 17  2  1  6  0  0  0
 18  2  1  6  0  0  0
 18 11  1  0  0  0  0
 19 20  1  0  0  0  0
 20 21  1  0  0  0  0
 21 22  1  0  0  0  0
 23 21  2  0  0  0  0
 26 30  1  1  0  0  0
 26 29  1  0  0  0  0
 27 24  1  6  0  0  0
 27 31  1  0  0  0  0
 29 28  1  0  0  0  0
 31 28  1  0  0  0  0
 32 25  1  1  0  0  0
 32 27  1  0  0  0  0
 32 26  1  0  0  0  0
M  END
>  <MODEL>
8

>  <REMARK>
 VINA RESULT:      -5.3      3.384      8.653
  Name = 
  5 active torsions:
  status: ('A' for Active; 'I' for Inactive)
    1  A    between atoms: C_1  and  C_10
    2  A    between atoms: C_2  and  S_24
    3  A    between atoms: C_10  and  S_24
    4  A    between atoms: C_11  and  C_27
    5  A    between atoms: N_16  and  C_27
                            x       y       z     vdW  Elec       q    Type
                         _______ _______ _______ _____ _____    ______ ____

>  <TORSDO>
F 5

$$$$
=
 OpenBabel10272413253D

 32 37  0  0  1  0  0  0  0  0999 V2000
  188.6360  177.0200  142.6140 C   0  0  2  0  0  3  0  0  0  0  0  0
  186.6470  178.2380  138.4330 C   0  0  0  0  0  2  0  0  0  0  0  0
  191.5850  175.1040  137.4100 C   0  0  0  0  0  3  0  0  0  0  0  0
  190.6510  174.1480  137.1980 C   0  0  0  0  0  3  0  0  0  0  0  0
  187.1540  178.8680  140.7840 C   0  0  2  0  0  3  0  0  0  0  0  0
  189.2530  178.7650  139.2430 C   0  0  0  0  0  2  0  0  0  0  0  0
  189.0160  176.9760  141.1430 C   0  0  0  0  0  2  0  0  0  0  0  0
  191.2270  176.5720  137.5540 C   0  0  0  0  0  2  0  0  0  0  0  0
  189.1600  178.0770  137.8730 C   0  0  1  0  0  3  0  0  0  0  0  0
  189.7570  176.6980  137.9240 C   0  0  1  0  0  3  0  0  0  0  0  0
  187.5730  176.3850  137.0920 N   0  0  0  0  0  0  0  0  0  0  0  0
  187.1290  177.1890  142.7660 C   0  0  0  0  0  2  0  0  0  0  0  0
  188.3730  178.0830  140.2970 C   0  0  1  0  0  0  0  0  0  0  0  0
  186.6660  178.5320  142.2030 C   0  0  0  0  0  2  0  0  0  0  0  0
  189.1630  174.4520  137.1700 C   0  0  0  0  0  2  0  0  0  0  0  0
  188.9470  175.9410  136.9180 C   0  0  2  0  0  3  0  0  0  0  0  0
  186.9640  177.7000  139.8260 C   0  0  2  0  0  3  0  0  0  0  0  0
  187.7070  177.8110  137.4130 C   0  0  1  0  0  3  0  0  0  0  0  0
  189.5600  178.3210  143.5030 S   0  0  0  0  0  0  0  0  0  0  0  0
  190.4680  177.1110  144.5160 C   0  0  0  0  0  2  0  0  0  0  0  0
  191.5560  176.4660  143.7190 C   0  0  0  0  0  0  0  0  0  0  0  0
  192.1420  177.1810  142.5450 C   0  0  0  0  0  1  0  0  0  0  0  0
  191.9300  175.3350  143.9970 O   0  0  0  0  0  0  0  0  0  0  0  0
  186.9220  176.3290  135.7880 C   0  0  0  0  0  2  0  0  0  0  0  0
  184.2660  177.2050  135.7850 O   0  0  0  0  0  1  0  0  0  0  0  0
  183.2270  174.9930  135.7460 C   0  0  2  0  0  3  0  0  0  0  0  0
  185.7990  175.2940  135.7850 C   0  0  2  0  0  3  0  0  0  0  0  0
  184.7780  173.3800  134.5070 C   0  0  0  0  0  2  0  0  0  0  0  0
  183.6440  173.5320  135.5370 C   0  0  0  0  0  2  0  0  0  0  0  0
  182.5260  175.5170  134.4980 C   0  0  0  0  0  1  0  0  0  0  0  0
  185.7270  174.5820  134.4400 C   0  0  0  0  0  2  0  0  0  0  0  0
  184.4230  175.8690  136.1910 C   0  0  1  0  0  3  0  0  0  0  0  0
  1 12  1  0  0  0  0
  1 19  1  6  0  0  0
  3  8  1  0  0  0  0
  4  3  2  0  0  0  0
  5 14  1  1  0  0  0
  7  1  1  0  0  0  0
  9 10  1  0  0  0  0
  9  6  1  1  0  0  0
 10  8  1  6  0  0  0
 11 18  1  0  0  0  0
 13  6  1  6  0  0  0
 13  5  1  0  0  0  0
 13  7  1  0  0  0  0
 14 12  1  0  0  0  0
 15  4  1  0  0  0  0
 16 11  1  0  0  0  0
 16 15  1  1  0  0  0
 16 10  1  0  0  0  0
 17  2  1  6  0  0  0
 17 13  1  0  0  0  0
 17  5  1  0  0  0  0
 18  9  1  0  0  0  0
 18  2  1  1  0  0  0
 19 20  1  0  0  0  0
 21 23  2  0  0  0  0
 21 20  1  0  0  0  0
 22 21  1  0  0  0  0
 24 11  1  0  0  0  0
 26 30  1  6  0  0  0
 26 32  1  0  0  0  0
 27 24  1  6  0  0  0
 27 32  1  0  0  0  0
 28 29  1  0  0  0  0
 29 26  1  0  0  0  0
 31 28  1  0  0  0  0
 31 27  1  0  0  0  0
 32 25  1  6  0  0  0
M  END
>  <MODEL>
9

>  <REMARK>
 VINA RESULT:      -5.1      1.683      2.205
  Name = 
  5 active torsions:
  status: ('A' for Active; 'I' for Inactive)
    1  A    between atoms: C_1  and  C_10
    2  A    between atoms: C_2  and  S_24
    3  A    between atoms: C_10  and  S_24
    4  A    between atoms: C_11  and  C_27
    5  A    between atoms: N_16  and  C_27
                            x       y       z     vdW  Elec       q    Type
                         _______ _______ _______ _____ _____    ______ ____

>  <TORSDO>
F 5

$$$$
