=
 OpenBabel10272413313D

 32 36  0  0  1  0  0  0  0  0999 V2000
  191.1700  176.3550  140.6950 N   0  0  0  0  0  0  0  0  0  0  0  0
  186.7040  178.3920  141.9070 C   0  0  0  0  0  0  0  0  0  0  0  0
  186.1480  177.7010  146.6870 C   0  0  0  0  0  3  0  0  0  0  0  0
  184.8770  178.2710  146.6090 C   0  0  0  0  0  3  0  0  0  0  0  0
  188.7290  177.7240  140.7570 C   0  0  0  0  0  0  0  0  0  0  0  0
  188.5230  177.3630  143.1470 C   0  0  0  0  0  3  0  0  0  0  0  0
  190.6780  176.7220  142.0270 C   0  0  0  0  0  0  0  0  0  0  0  0
  186.9340  177.5830  145.5390 C   0  0  0  0  0  3  0  0  0  0  0  0
  187.2350  177.9220  143.1300 C   0  0  0  0  0  0  0  0  0  0  0  0
  186.4570  178.0350  144.2970 C   0  0  0  0  0  0  0  0  0  0  0  0
  184.6880  179.0670  142.9760 C   0  0  0  0  0  0  0  0  0  0  0  0
  190.6340  176.9120  139.4880 C   0  0  0  0  0  3  0  0  0  0  0  0
  189.2720  177.2600  141.9710 C   0  0  0  0  0  0  0  0  0  0  0  0
  189.4820  177.5770  139.5040 C   0  0  0  0  0  3  0  0  0  0  0  0
  184.3880  178.7250  145.3830 C   0  0  0  0  0  3  0  0  0  0  0  0
  185.1650  178.6120  144.2200 C   0  0  0  0  0  0  0  0  0  0  0  0
  187.4510  178.2870  140.7310 C   0  0  0  0  0  3  0  0  0  0  0  0
  185.4630  178.9400  141.8660 N   0  0  0  0  0  0  0  0  0  0  0  0
  191.6000  177.7630  142.6420 C   0  0  0  0  0  2  0  0  0  0  0  0
  191.7040  176.5170  144.8270 C   0  0  0  0  0  0  0  0  0  0  0  0
  191.4980  177.7210  144.0920 N   0  0  0  0  0  2  0  0  0  0  0  0
  191.9840  175.4410  144.2340 O   0  0  0  0  0  0  0  0  0  0  0  0
  191.5880  176.5310  146.3090 C   0  0  0  0  0  1  0  0  0  0  0  0
  183.3180  179.6560  142.8300 C   0  0  0  0  0  2  0  0  0  0  0  0
  182.5640  178.7370  140.7950 C   0  0  2  0  0  3  0  0  0  0  0  0
  181.4290  179.4760  140.0740 C   0  0  0  0  0  2  0  0  0  0  0  0
  181.0520  179.0010  142.7370 C   0  0  1  0  0  3  0  0  0  0  0  0
  179.9820  178.3660  141.8540 C   0  0  0  0  0  2  0  0  0  0  0  0
  180.0550  178.8970  140.4220 C   0  0  0  0  0  2  0  0  0  0  0  0
  182.7590  177.3430  140.2240 C   0  0  0  0  0  1  0  0  0  0  0  0
  180.8790  178.5270  144.1000 N   0  0  0  0  0  1  0  0  0  0  0  0
  182.4080  178.6700  142.2620 N   0  0  0  0  0  0  0  0  0  0  0  0
  1  7  1  0  0  0  0
  2  9  1  0  0  0  0
  4  3  1  0  0  0  0
  5 13  1  0  0  0  0
  7 19  1  0  0  0  0
  8  3  2  0  0  0  0
  9  6  2  0  0  0  0
  9 10  1  0  0  0  0
 10  8  1  0  0  0  0
 11 16  1  0  0  0  0
 12 14  1  0  0  0  0
 12  1  2  0  0  0  0
 13  7  2  0  0  0  0
 13  6  1  0  0  0  0
 14  5  2  0  0  0  0
 15  4  2  0  0  0  0
 16 10  2  0  0  0  0
 16 15  1  0  0  0  0
 17  5  1  0  0  0  0
 17  2  2  0  0  0  0
 18  2  1  0  0  0  0
 18 11  2  0  0  0  0
 19 21  1  0  0  0  0
 20 23  1  0  0  0  0
 21 20  1  0  0  0  0
 22 20  2  0  0  0  0
 24 11  1  0  0  0  0
 25 30  1  6  0  0  0
 25 32  1  0  0  0  0
 26 29  1  0  0  0  0
 26 25  1  0  0  0  0
 27 31  1  1  0  0  0
 28 27  1  0  0  0  0
 29 28  1  0  0  0  0
 32 27  1  0  0  0  0
 32 24  1  0  0  0  0
M  END
>  <MODEL>
1

>  <REMARK>
 VINA RESULT:      -9.8      0.000      0.000
  Name = 
  4 active torsions:
  status: ('A' for Active; 'I' for Inactive)
    1  A    between atoms: N_10  and  C_24
    2  A    between atoms: C_12  and  C_24
    3  A    between atoms: C_16  and  C_27
    4  A    between atoms: C_27  and  N_32
                            x       y       z     vdW  Elec       q    Type
                         _______ _______ _______ _____ _____    ______ ____

>  <TORSDO>
F 4

$$$$
=
 OpenBabel10272413313D

 32 36  0  0  1  0  0  0  0  0999 V2000
  190.9050  176.3670  143.6720 N   0  0  0  0  0  0  0  0  0  0  0  0
  186.9600  178.3340  141.1960 C   0  0  0  0  0  0  0  0  0  0  0  0
  183.3160  178.5580  144.4060 C   0  0  0  0  0  3  0  0  0  0  0  0
  182.4730  179.0250  143.3980 C   0  0  0  0  0  3  0  0  0  0  0  0
  189.1710  177.5750  141.8380 C   0  0  0  0  0  0  0  0  0  0  0  0
  187.4000  177.6760  143.4940 C   0  0  0  0  0  3  0  0  0  0  0  0
  189.6890  176.9570  144.2390 C   0  0  0  0  0  0  0  0  0  0  0  0
  184.6520  178.2650  144.1230 C   0  0  0  0  0  3  0  0  0  0  0  0
  186.5030  178.1440  142.5200 C   0  0  0  0  0  0  0  0  0  0  0  0
  185.1610  178.4360  142.8240 C   0  0  0  0  0  0  0  0  0  0  0  0
  184.8120  179.0840  140.5010 C   0  0  0  0  0  0  0  0  0  0  0  0
  191.3570  176.6450  142.3400 C   0  0  0  0  0  3  0  0  0  0  0  0
  188.7280  177.3900  143.1620 C   0  0  0  0  0  0  0  0  0  0  0  0
  190.5480  177.2310  141.4610 C   0  0  0  0  0  3  0  0  0  0  0  0
  182.9630  179.2010  142.1020 C   0  0  0  0  0  3  0  0  0  0  0  0
  184.3020  178.9100  141.8010 C   0  0  0  0  0  0  0  0  0  0  0  0
  188.2860  178.0460  140.8640 C   0  0  0  0  0  3  0  0  0  0  0  0
  186.1130  178.7880  140.2380 N   0  0  0  0  0  0  0  0  0  0  0  0
  190.0570  178.1520  145.1050 C   0  0  0  0  0  2  0  0  0  0  0  0
  189.3580  177.6560  147.4730 C   0  0  0  0  0  0  0  0  0  0  0  0
  189.1180  178.2710  146.2100 N   0  0  0  0  0  2  0  0  0  0  0  0
  190.4040  176.9820  147.6720 O   0  0  0  0  0  0  0  0  0  0  0  0
  188.3650  177.8100  148.5680 C   0  0  0  0  0  1  0  0  0  0  0  0
  183.9420  179.5510  139.3740 C   0  0  0  0  0  2  0  0  0  0  0  0
  183.4150  177.4420  138.4610 C   0  0  2  0  0  3  0  0  0  0  0  0
  183.0930  177.3920  136.9620 C   0  0  0  0  0  2  0  0  0  0  0  0
  181.8030  179.3200  138.4030 C   0  0  1  0  0  3  0  0  0  0  0  0
  180.8520  178.3420  137.7190 C   0  0  0  0  0  2  0  0  0  0  0  0
  181.5880  177.4760  136.6950 C   0  0  0  0  0  2  0  0  0  0  0  0
  182.9930  176.1590  139.1550 C   0  0  0  0  0  1  0  0  0  0  0  0
  181.0360  180.1720  139.2970 N   0  0  0  0  0  1  0  0  0  0  0  0
  182.8470  178.6110  139.1640 N   0  0  0  0  0  0  0  0  0  0  0  0
  1  7  1  0  0  0  0
  2  9  1  0  0  0  0
  4  3  2  0  0  0  0
  5 13  1  0  0  0  0
  7 19  1  0  0  0  0
  8  3  1  0  0  0  0
  9 10  1  0  0  0  0
  9  6  2  0  0  0  0
 10  8  2  0  0  0  0
 11 16  1  0  0  0  0
 12  1  2  0  0  0  0
 13  6  1  0  0  0  0
 13  7  2  0  0  0  0
 14  5  2  0  0  0  0
 14 12  1  0  0  0  0
 15  4  1  0  0  0  0
 16 15  2  0  0  0  0
 16 10  1  0  0  0  0
 17  2  2  0  0  0  0
 17  5  1  0  0  0  0
 18 11  2  0  0  0  0
 18  2  1  0  0  0  0
 19 21  1  0  0  0  0
 20 22  2  0  0  0  0
 20 23  1  0  0  0  0
 21 20  1  0  0  0  0
 24 11  1  0  0  0  0
 25 30  1  1  0  0  0
 25 32  1  0  0  0  0
 26 25  1  0  0  0  0
 27 32  1  0  0  0  0
 27 31  1  1  0  0  0
 28 27  1  0  0  0  0
 29 26  1  0  0  0  0
 29 28  1  0  0  0  0
 32 24  1  0  0  0  0
M  END
>  <MODEL>
2

>  <REMARK>
 VINA RESULT:      -9.6      2.092      3.083
  Name = 
  4 active torsions:
  status: ('A' for Active; 'I' for Inactive)
    1  A    between atoms: N_10  and  C_24
    2  A    between atoms: C_12  and  C_24
    3  A    between atoms: C_16  and  C_27
    4  A    between atoms: C_27  and  N_32
                            x       y       z     vdW  Elec       q    Type
                         _______ _______ _______ _____ _____    ______ ____

>  <TORSDO>
F 4

$$$$
=
 OpenBabel10272413313D

 32 36  0  0  1  0  0  0  0  0999 V2000
  191.2920  176.5890  142.1470 N   0  0  0  0  0  0  0  0  0  0  0  0
  186.7650  178.4600  140.8960 C   0  0  0  0  0  0  0  0  0  0  0  0
  184.0950  178.3880  144.9580 C   0  0  0  0  0  3  0  0  0  0  0  0
  182.9990  178.8530  144.2320 C   0  0  0  0  0  3  0  0  0  0  0  0
  189.0910  177.7830  140.8950 C   0  0  0  0  0  0  0  0  0  0  0  0
  187.8200  177.7360  142.9620 C   0  0  0  0  0  3  0  0  0  0  0  0
  190.2490  177.0990  143.0420 C   0  0  0  0  0  0  0  0  0  0  0  0
  185.3180  178.1700  144.3190 C   0  0  0  0  0  3  0  0  0  0  0  0
  186.6810  178.1980  142.2820 C   0  0  0  0  0  0  0  0  0  0  0  0
  185.4580  178.4140  142.9420 C   0  0  0  0  0  0  0  0  0  0  0  0
  184.4830  179.1330  140.8280 C   0  0  0  0  0  0  0  0  0  0  0  0
  191.3640  176.9390  140.7580 C   0  0  0  0  0  3  0  0  0  0  0  0
  189.0220  177.5270  142.2780 C   0  0  0  0  0  0  0  0  0  0  0  0
  190.3310  177.5190  140.1530 C   0  0  0  0  0  3  0  0  0  0  0  0
  183.1210  179.1020  142.8630 C   0  0  0  0  0  3  0  0  0  0  0  0
  184.3420  178.8860  142.2060 C   0  0  0  0  0  0  0  0  0  0  0  0
  187.9650  178.2480  140.2130 C   0  0  0  0  0  3  0  0  0  0  0  0
  185.6780  178.9100  140.2180 N   0  0  0  0  0  0  0  0  0  0  0  0
  190.7900  178.2760  143.8380 C   0  0  0  0  0  2  0  0  0  0  0  0
  190.8100  177.1340  146.0830 C   0  0  0  0  0  0  0  0  0  0  0  0
  191.4910  177.7950  145.0190 N   0  0  0  0  0  2  0  0  0  0  0  0
  189.5650  176.9460  146.0310 O   0  0  0  0  0  0  0  0  0  0  0  0
  191.5760  176.6630  147.2670 C   0  0  0  0  0  1  0  0  0  0  0  0
  183.3300  179.6010  139.9930 C   0  0  0  0  0  2  0  0  0  0  0  0
  182.8170  177.5800  138.8930 C   0  0  2  0  0  3  0  0  0  0  0  0
  182.1310  177.6860  137.5250 C   0  0  0  0  0  2  0  0  0  0  0  0
  181.0510  179.1950  139.5290 C   0  0  1  0  0  3  0  0  0  0  0  0
  180.0680  178.1900  138.9350 C   0  0  0  0  0  2  0  0  0  0  0  0
  180.6070  177.5860  137.6370 C   0  0  0  0  0  2  0  0  0  0  0  0
  182.7260  176.1680  139.4440 C   0  0  0  0  0  1  0  0  0  0  0  0
  180.4510  179.7990  140.7070 N   0  0  0  0  0  1  0  0  0  0  0  0
  182.3250  178.5490  139.8940 N   0  0  0  0  0  0  0  0  0  0  0  0
  1  7  1  0  0  0  0
  2  9  1  0  0  0  0
  4  3  2  0  0  0  0
  5 13  1  0  0  0  0
  7 19  1  0  0  0  0
  8  3  1  0  0  0  0
  9 10  1  0  0  0  0
  9  6  2  0  0  0  0
 10  8  2  0  0  0  0
 11 16  1  0  0  0  0
 12  1  2  0  0  0  0
 13  6  1  0  0  0  0
 13  7  2  0  0  0  0
 14 12  1  0  0  0  0
 14  5  2  0  0  0  0
 15  4  1  0  0  0  0
 16 15  2  0  0  0  0
 16 10  1  0  0  0  0
 17  5  1  0  0  0  0
 17  2  2  0  0  0  0
 18 11  2  0  0  0  0
 18  2  1  0  0  0  0
 19 21  1  0  0  0  0
 20 23  1  0  0  0  0
 21 20  1  0  0  0  0
 22 20  2  0  0  0  0
 24 11  1  0  0  0  0
 25 30  1  1  0  0  0
 25 32  1  0  0  0  0
 26 29  1  0  0  0  0
 26 25  1  0  0  0  0
 27 32  1  0  0  0  0
 27 31  1  1  0  0  0
 28 27  1  0  0  0  0
 29 28  1  0  0  0  0
 32 24  1  0  0  0  0
M  END
>  <MODEL>
3

>  <REMARK>
 VINA RESULT:      -9.3      1.608      2.140
  Name = 
  4 active torsions:
  status: ('A' for Active; 'I' for Inactive)
    1  A    between atoms: N_10  and  C_24
    2  A    between atoms: C_12  and  C_24
    3  A    between atoms: C_16  and  C_27
    4  A    between atoms: C_27  and  N_32
                            x       y       z     vdW  Elec       q    Type
                         _______ _______ _______ _____ _____    ______ ____

>  <TORSDO>
F 4

$$$$
=
 OpenBabel10272413313D

 32 36  0  0  1  0  0  0  0  0999 V2000
  180.0190  178.4500  142.3780 N   0  0  0  0  0  0  0  0  0  0  0  0
  185.0650  178.6890  142.1660 C   0  0  0  0  0  0  0  0  0  0  0  0
  186.2600  178.0510  137.4970 C   0  0  0  0  0  3  0  0  0  0  0  0
  187.6090  178.0910  137.8500 C   0  0  0  0  0  3  0  0  0  0  0  0
  182.7510  178.7900  142.8800 C   0  0  0  0  0  0  0  0  0  0  0  0
  183.2780  178.4840  140.5310 C   0  0  0  0  0  3  0  0  0  0  0  0
  180.8620  178.6610  141.1980 C   0  0  0  0  0  0  0  0  0  0  0  0
  185.2750  178.1900  138.4770 C   0  0  0  0  0  3  0  0  0  0  0  0
  184.6510  178.5110  140.8270 C   0  0  0  0  0  0  0  0  0  0  0  0
  185.6300  178.3710  139.8260 C   0  0  0  0  0  0  0  0  0  0  0  0
  187.3560  178.5940  141.5310 C   0  0  0  0  0  0  0  0  0  0  0  0
  180.4720  178.7080  143.7130 C   0  0  0  0  0  3  0  0  0  0  0  0
  182.3280  178.6220  141.5480 C   0  0  0  0  0  0  0  0  0  0  0  0
  181.7660  178.8850  143.9660 C   0  0  0  0  0  3  0  0  0  0  0  0
  187.9790  178.2710  139.1850 C   0  0  0  0  0  3  0  0  0  0  0  0
  187.0010  178.4100  140.1810 C   0  0  0  0  0  0  0  0  0  0  0  0
  184.1150  178.8240  143.1820 C   0  0  0  0  0  3  0  0  0  0  0  0
  186.3860  178.7210  142.4760 N   0  0  0  0  0  0  0  0  0  0  0  0
  180.5250  180.0010  140.5630 C   0  0  0  0  0  2  0  0  0  0  0  0
  181.0190  180.5790  138.1620 C   0  0  0  0  0  0  0  0  0  0  0  0
  180.2950  179.8310  139.1370 N   0  0  0  0  0  2  0  0  0  0  0  0
  181.8890  181.4200  138.5120 O   0  0  0  0  0  0  0  0  0  0  0  0
  180.7440  180.3640  136.7170 C   0  0  0  0  0  1  0  0  0  0  0  0
  188.7890  178.6110  141.9690 C   0  0  0  0  0  2  0  0  0  0  0  0
  189.0260  177.8670  144.1930 C   0  0  2  0  0  3  0  0  0  0  0  0
  190.4030  178.0490  144.8460 C   0  0  0  0  0  2  0  0  0  0  0  0
  190.3930  176.9230  142.3580 C   0  0  1  0  0  3  0  0  0  0  0  0
  191.0100  176.0220  143.4240 C   0  0  0  0  0  2  0  0  0  0  0  0
  191.2680  176.7920  144.7200 C   0  0  0  0  0  2  0  0  0  0  0  0
  188.1590  176.9170  145.0000 C   0  0  0  0  0  1  0  0  0  0  0  0
  190.2520  176.1650  141.1260 N   0  0  0  0  0  1  0  0  0  0  0  0
  189.0770  177.4350  142.7820 N   0  0  0  0  0  0  0  0  0  0  0  0
  1 12  1  0  0  0  0
  2 18  1  0  0  0  0
  2 17  1  0  0  0  0
  3  4  2  0  0  0  0
  3  8  1  0  0  0  0
  4 15  1  0  0  0  0
  5 17  2  0  0  0  0
  5 14  1  0  0  0  0
  6  9  1  0  0  0  0
  6 13  2  0  0  0  0
  7 13  1  0  0  0  0
  7  1  2  0  0  0  0
  8 10  2  0  0  0  0
  9  2  2  0  0  0  0
 10 16  1  0  0  0  0
 10  9  1  0  0  0  0
 11 24  1  0  0  0  0
 11 18  2  0  0  0  0
 12 14  2  0  0  0  0
 13  5  1  0  0  0  0
 15 16  2  0  0  0  0
 16 11  1  0  0  0  0
 19  7  1  0  0  0  0
 20 22  2  0  0  0  0
 20 21  1  0  0  0  0
 21 19  1  0  0  0  0
 23 20  1  0  0  0  0
 24 32  1  0  0  0  0
 25 26  1  0  0  0  0
 25 30  1  1  0  0  0
 27 31  1  6  0  0  0
 27 32  1  0  0  0  0
 27 28  1  0  0  0  0
 28 29  1  0  0  0  0
 29 26  1  0  0  0  0
 32 25  1  0  0  0  0
M  END
>  <MODEL>
4

>  <REMARK>
 VINA RESULT:      -9.2      2.961      8.910
  Name = 
  4 active torsions:
  status: ('A' for Active; 'I' for Inactive)
    1  A    between atoms: N_10  and  C_24
    2  A    between atoms: C_12  and  C_24
    3  A    between atoms: C_16  and  C_27
    4  A    between atoms: C_27  and  N_32
                            x       y       z     vdW  Elec       q    Type
                         _______ _______ _______ _____ _____    ______ ____

>  <TORSDO>
F 4

$$$$
=
 OpenBabel10272413313D

 32 36  0  0  1  0  0  0  0  0999 V2000
  188.8950  178.3200  137.2950 N   0  0  0  0  0  0  0  0  0  0  0  0
  188.5050  177.3520  142.2420 C   0  0  0  0  0  0  0  0  0  0  0  0
  184.3470  179.4030  143.7040 C   0  0  0  0  0  3  0  0  0  0  0  0
  184.6330  179.0210  145.0140 C   0  0  0  0  0  3  0  0  0  0  0  0
  189.1850  177.3830  139.9160 C   0  0  0  0  0  0  0  0  0  0  0  0
  187.0890  178.4130  140.5760 C   0  0  0  0  0  3  0  0  0  0  0  0
  187.6990  178.4080  138.1380 C   0  0  0  0  0  0  0  0  0  0  0  0
  185.2330  179.0870  142.6720 C   0  0  0  0  0  3  0  0  0  0  0  0
  187.3260  178.0590  141.9140 C   0  0  0  0  0  0  0  0  0  0  0  0
  186.4210  178.3840  142.9400 C   0  0  0  0  0  0  0  0  0  0  0  0
  187.8970  177.2910  144.5420 C   0  0  0  0  0  0  0  0  0  0  0  0
  190.0400  177.5350  137.6480 C   0  0  0  0  0  3  0  0  0  0  0  0
  188.0090  178.0800  139.5770 C   0  0  0  0  0  0  0  0  0  0  0  0
  190.1850  177.0710  138.8870 C   0  0  0  0  0  3  0  0  0  0  0  0
  185.8080  178.3210  145.2990 C   0  0  0  0  0  3  0  0  0  0  0  0
  186.7100  177.9980  144.2730 C   0  0  0  0  0  0  0  0  0  0  0  0
  189.4250  177.0220  141.2440 C   0  0  0  0  0  3  0  0  0  0  0  0
  188.7550  176.9970  143.5280 N   0  0  0  0  0  0  0  0  0  0  0  0
  186.6350  177.4550  137.6160 C   0  0  0  0  0  2  0  0  0  0  0  0
  184.1210  177.3350  137.7110 C   0  0  0  0  0  0  0  0  0  0  0  0
  185.3290  178.0930  137.6700 N   0  0  0  0  0  2  0  0  0  0  0  0
  184.1520  176.0760  137.7020 O   0  0  0  0  0  0  0  0  0  0  0  0
  182.8130  178.0390  137.7650 C   0  0  0  0  0  1  0  0  0  0  0  0
  188.2700  176.8860  145.9350 C   0  0  0  0  0  2  0  0  0  0  0  0
  190.6040  176.9130  145.6020 C   0  0  2  0  0  3  0  0  0  0  0  0
  191.4390  175.9400  146.4450 C   0  0  0  0  0  2  0  0  0  0  0  0
  189.6030  177.4360  147.8050 C   0  0  1  0  0  3  0  0  0  0  0  0
  191.0340  177.6600  148.2830 C   0  0  0  0  0  2  0  0  0  0  0  0
  191.9820  176.6020  147.7150 C   0  0  0  0  0  2  0  0  0  0  0  0
  191.4830  177.9650  144.9480 C   0  0  0  0  0  1  0  0  0  0  0  0
  188.7370  178.4130  148.4430 N   0  0  0  0  0  1  0  0  0  0  0  0
  189.4990  177.5590  146.3400 N   0  0  0  0  0  0  0  0  0  0  0  0
  1 12  2  0  0  0  0
  1  7  1  0  0  0  0
  2 18  1  0  0  0  0
  3  4  1  0  0  0  0
  4 15  2  0  0  0  0
  5 17  1  0  0  0  0
  6  9  2  0  0  0  0
  7 13  2  0  0  0  0
  8 10  1  0  0  0  0
  8  3  2  0  0  0  0
  9  2  1  0  0  0  0
  9 10  1  0  0  0  0
 10 16  2  0  0  0  0
 11 24  1  0  0  0  0
 12 14  1  0  0  0  0
 13  5  1  0  0  0  0
 13  6  1  0  0  0  0
 14  5  2  0  0  0  0
 16 11  1  0  0  0  0
 16 15  1  0  0  0  0
 17  2  2  0  0  0  0
 18 11  2  0  0  0  0
 19 21  1  0  0  0  0
 19  7  1  0  0  0  0
 20 23  1  0  0  0  0
 21 20  1  0  0  0  0
 22 20  2  0  0  0  0
 24 32  1  0  0  0  0
 25 30  1  1  0  0  0
 25 32  1  0  0  0  0
 25 26  1  0  0  0  0
 26 29  1  0  0  0  0
 27 28  1  0  0  0  0
 27 31  1  1  0  0  0
 29 28  1  0  0  0  0
 32 27  1  0  0  0  0
M  END
>  <MODEL>
5

>  <REMARK>
 VINA RESULT:      -9.1      3.249      7.180
  Name = 
  4 active torsions:
  status: ('A' for Active; 'I' for Inactive)
    1  A    between atoms: N_10  and  C_24
    2  A    between atoms: C_12  and  C_24
    3  A    between atoms: C_16  and  C_27
    4  A    between atoms: C_27  and  N_32
                            x       y       z     vdW  Elec       q    Type
                         _______ _______ _______ _____ _____    ______ ____

>  <TORSDO>
F 4

$$$$
=
 OpenBabel10272413313D

 32 36  0  0  1  0  0  0  0  0999 V2000
  187.0660  178.6000  147.4330 N   0  0  0  0  0  0  0  0  0  0  0  0
  185.9990  178.3610  142.4970 C   0  0  0  0  0  0  0  0  0  0  0  0
  190.2400  177.6700  140.2230 C   0  0  0  0  0  3  0  0  0  0  0  0
  189.5800  177.7440  138.9960 C   0  0  0  0  0  3  0  0  0  0  0  0
  185.8550  178.4420  144.9150 C   0  0  0  0  0  0  0  0  0  0  0  0
  188.0030  178.0790  143.8440 C   0  0  0  0  0  3  0  0  0  0  0  0
  187.9070  178.0730  146.3540 C   0  0  0  0  0  0  0  0  0  0  0  0
  189.5220  177.8030  141.4130 C   0  0  0  0  0  3  0  0  0  0  0  0
  187.3940  178.1500  142.5800 C   0  0  0  0  0  0  0  0  0  0  0  0
  188.1330  178.0120  141.3900 C   0  0  0  0  0  0  0  0  0  0  0  0
  186.0730  178.2950  140.1190 C   0  0  0  0  0  0  0  0  0  0  0  0
  185.6430  178.7330  147.3160 C   0  0  0  0  0  3  0  0  0  0  0  0
  187.2440  178.2240  145.0090 C   0  0  0  0  0  0  0  0  0  0  0  0
  185.0520  178.6470  146.1270 C   0  0  0  0  0  3  0  0  0  0  0  0
  188.2000  177.9510  138.9550 C   0  0  0  0  0  3  0  0  0  0  0  0
  187.4650  178.0880  140.1430 C   0  0  0  0  0  0  0  0  0  0  0  0
  185.2420  178.5080  143.6620 C   0  0  0  0  0  3  0  0  0  0  0  0
  185.3880  178.4300  141.2870 N   0  0  0  0  0  0  0  0  0  0  0  0
  188.2090  176.6060  146.6130 C   0  0  0  0  0  2  0  0  0  0  0  0
  190.7230  176.5410  146.7520 C   0  0  0  0  0  0  0  0  0  0  0  0
  189.4410  176.4800  147.3750 N   0  0  0  0  0  2  0  0  0  0  0  0
  190.8250  176.7090  145.5070 O   0  0  0  0  0  0  0  0  0  0  0  0
  191.9500  176.4060  147.5790 C   0  0  0  0  0  1  0  0  0  0  0  0
  185.3200  178.4170  138.8300 C   0  0  0  0  0  2  0  0  0  0  0  0
  183.4820  176.9670  138.5530 C   0  0  2  0  0  3  0  0  0  0  0  0
  182.7500  177.0190  137.2050 C   0  0  0  0  0  2  0  0  0  0  0  0
  183.2280  179.4250  138.4050 C   0  0  1  0  0  3  0  0  0  0  0  0
  181.7450  179.1520  138.1750 C   0  0  0  0  0  2  0  0  0  0  0  0
  181.5380  177.9550  137.2460 C   0  0  0  0  0  2  0  0  0  0  0  0
  182.6610  176.2250  139.5940 C   0  0  0  0  0  1  0  0  0  0  0  0
  183.3640  180.6210  139.2210 N   0  0  0  0  0  1  0  0  0  0  0  0
  183.8880  178.2890  139.0730 N   0  0  0  0  0  0  0  0  0  0  0  0
  2  9  2  0  0  0  0
  2 17  1  0  0  0  0
  3  8  1  0  0  0  0
  4  3  2  0  0  0  0
  5 13  1  0  0  0  0
  5 14  1  0  0  0  0
  6 13  2  0  0  0  0
  7 19  1  0  0  0  0
  7  1  2  0  0  0  0
  9  6  1  0  0  0  0
 10  8  2  0  0  0  0
 10  9  1  0  0  0  0
 11 16  1  0  0  0  0
 11 18  2  0  0  0  0
 12  1  1  0  0  0  0
 13  7  1  0  0  0  0
 14 12  2  0  0  0  0
 15  4  1  0  0  0  0
 15 16  2  0  0  0  0
 16 10  1  0  0  0  0
 17  5  2  0  0  0  0
 18  2  1  0  0  0  0
 19 21  1  0  0  0  0
 20 21  1  0  0  0  0
 20 23  1  0  0  0  0
 22 20  2  0  0  0  0
 24 32  1  0  0  0  0
 24 11  1  0  0  0  0
 25 32  1  0  0  0  0
 25 30  1  1  0  0  0
 26 29  1  0  0  0  0
 26 25  1  0  0  0  0
 27 32  1  0  0  0  0
 27 31  1  1  0  0  0
 28 27  1  0  0  0  0
 29 28  1  0  0  0  0
M  END
>  <MODEL>
6

>  <REMARK>
 VINA RESULT:      -8.6      2.409      4.922
  Name = 
  4 active torsions:
  status: ('A' for Active; 'I' for Inactive)
    1  A    between atoms: N_10  and  C_24
    2  A    between atoms: C_12  and  C_24
    3  A    between atoms: C_16  and  C_27
    4  A    between atoms: C_27  and  N_32
                            x       y       z     vdW  Elec       q    Type
                         _______ _______ _______ _____ _____    ______ ____

>  <TORSDO>
F 4

$$$$
=
 OpenBabel10272413313D

 32 36  0  0  1  0  0  0  0  0999 V2000
  184.3260  179.5370  145.1980 N   0  0  0  0  0  0  0  0  0  0  0  0
  187.0110  178.1520  141.1440 C   0  0  0  0  0  0  0  0  0  0  0  0
  191.6050  177.6620  142.6600 C   0  0  0  0  0  3  0  0  0  0  0  0
  191.9950  177.3880  141.3490 C   0  0  0  0  0  3  0  0  0  0  0  0
  185.2200  178.6950  142.6830 C   0  0  0  0  0  0  0  0  0  0  0  0
  187.4890  178.4520  143.5080 C   0  0  0  0  0  3  0  0  0  0  0  0
  185.6630  178.9360  145.1650 C   0  0  0  0  0  0  0  0  0  0  0  0
  190.2640  177.9230  142.9520 C   0  0  0  0  0  3  0  0  0  0  0  0
  187.9410  178.1740  142.2080 C   0  0  0  0  0  0  0  0  0  0  0  0
  189.2960  177.9120  141.9330 C   0  0  0  0  0  0  0  0  0  0  0  0
  188.7260  177.6210  139.5810 C   0  0  0  0  0  0  0  0  0  0  0  0
  183.3980  179.4290  144.1110 C   0  0  0  0  0  3  0  0  0  0  0  0
  186.1370  178.7120  143.7520 C   0  0  0  0  0  0  0  0  0  0  0  0
  183.8050  179.0170  142.9130 C   0  0  0  0  0  3  0  0  0  0  0  0
  191.0460  177.3730  140.3240 C   0  0  0  0  0  3  0  0  0  0  0  0
  189.6950  177.6340  140.6020 C   0  0  0  0  0  0  0  0  0  0  0  0
  185.6610  178.4140  141.3870 C   0  0  0  0  0  3  0  0  0  0  0  0
  187.4250  177.8830  139.8800 N   0  0  0  0  0  0  0  0  0  0  0  0
  185.6470  177.6130  145.9140 C   0  0  0  0  0  2  0  0  0  0  0  0
  187.7640  177.5750  147.2770 C   0  0  0  0  0  0  0  0  0  0  0  0
  186.3520  177.7500  147.1790 N   0  0  0  0  0  2  0  0  0  0  0  0
  188.4490  177.2940  146.2590 O   0  0  0  0  0  0  0  0  0  0  0  0
  188.4330  177.7270  148.5960 C   0  0  0  0  0  1  0  0  0  0  0  0
  189.0950  177.3660  138.1520 C   0  0  0  0  0  2  0  0  0  0  0  0
  187.9210  175.7640  136.8820 C   0  0  2  0  0  3  0  0  0  0  0  0
  188.3310  175.6030  135.4120 C   0  0  0  0  0  2  0  0  0  0  0  0
  187.9150  178.1630  136.2690 C   0  0  1  0  0  3  0  0  0  0  0  0
  186.9990  177.7570  135.1180 C   0  0  0  0  0  2  0  0  0  0  0  0
  187.4590  176.4460  134.4770 C   0  0  0  0  0  2  0  0  0  0  0  0
  186.5860  175.0930  137.1550 C   0  0  0  0  0  1  0  0  0  0  0  0
  187.4840  179.4530  136.7790 N   0  0  0  0  0  1  0  0  0  0  0  0
  187.8920  177.1640  137.3530 N   0  0  0  0  0  0  0  0  0  0  0  0
  2 17  2  0  0  0  0
  2  9  1  0  0  0  0
  3  8  1  0  0  0  0
  4  3  2  0  0  0  0
  5 14  2  0  0  0  0
  5 13  1  0  0  0  0
  6 13  1  0  0  0  0
  7  1  1  0  0  0  0
  7 19  1  0  0  0  0
  9  6  2  0  0  0  0
 10  9  1  0  0  0  0
 10  8  2  0  0  0  0
 11 18  2  0  0  0  0
 11 16  1  0  0  0  0
 12  1  2  0  0  0  0
 13  7  2  0  0  0  0
 14 12  1  0  0  0  0
 15 16  2  0  0  0  0
 15  4  1  0  0  0  0
 16 10  1  0  0  0  0
 17  5  1  0  0  0  0
 18  2  1  0  0  0  0
 19 21  1  0  0  0  0
 20 23  1  0  0  0  0
 21 20  1  0  0  0  0
 22 20  2  0  0  0  0
 24 11  1  0  0  0  0
 25 30  1  6  0  0  0
 25 32  1  0  0  0  0
 26 25  1  0  0  0  0
 27 31  1  1  0  0  0
 27 32  1  0  0  0  0
 28 27  1  0  0  0  0
 29 28  1  0  0  0  0
 29 26  1  0  0  0  0
 32 24  1  0  0  0  0
M  END
>  <MODEL>
7

>  <REMARK>
 VINA RESULT:      -8.5      2.953      6.588
  Name = 
  4 active torsions:
  status: ('A' for Active; 'I' for Inactive)
    1  A    between atoms: N_10  and  C_24
    2  A    between atoms: C_12  and  C_24
    3  A    between atoms: C_16  and  C_27
    4  A    between atoms: C_27  and  N_32
                            x       y       z     vdW  Elec       q    Type
                         _______ _______ _______ _____ _____    ______ ____

>  <TORSDO>
F 4

$$$$
=
 OpenBabel10272413313D

 32 36  0  0  1  0  0  0  0  0999 V2000
  184.7910  179.1940  145.8680 N   0  0  0  0  0  0  0  0  0  0  0  0
  185.4630  178.3790  140.9240 C   0  0  0  0  0  0  0  0  0  0  0  0
  190.2550  177.8880  140.2660 C   0  0  0  0  0  3  0  0  0  0  0  0
  190.0420  177.7790  138.8920 C   0  0  0  0  0  3  0  0  0  0  0  0
  184.5100  178.6770  143.1320 C   0  0  0  0  0  0  0  0  0  0  0  0
  186.9100  178.4240  142.8760 C   0  0  0  0  0  3  0  0  0  0  0  0
  185.9760  178.6500  145.1970 C   0  0  0  0  0  0  0  0  0  0  0  0
  189.1720  178.0640  141.1300 C   0  0  0  0  0  3  0  0  0  0  0  0
  186.7580  178.3140  141.4830 C   0  0  0  0  0  0  0  0  0  0  0  0
  187.8610  178.1350  140.6280 C   0  0  0  0  0  0  0  0  0  0  0  0
  186.3350  178.0920  138.7280 C   0  0  0  0  0  0  0  0  0  0  0  0
  183.4860  179.1760  145.2760 C   0  0  0  0  0  3  0  0  0  0  0  0
  185.7960  178.6060  143.7010 C   0  0  0  0  0  0  0  0  0  0  0  0
  183.3350  178.9190  143.9800 C   0  0  0  0  0  3  0  0  0  0  0  0
  188.7460  177.8470  138.3760 C   0  0  0  0  0  3  0  0  0  0  0  0
  187.6480  178.0250  139.2310 C   0  0  0  0  0  0  0  0  0  0  0  0
  184.3500  178.5620  141.7490 C   0  0  0  0  0  3  0  0  0  0  0  0
  185.2910  178.2710  139.5820 N   0  0  0  0  0  0  0  0  0  0  0  0
  186.2610  177.2510  145.7190 C   0  0  0  0  0  2  0  0  0  0  0  0
  188.6830  177.1100  146.3950 C   0  0  0  0  0  0  0  0  0  0  0  0
  187.3090  177.3010  146.7260 N   0  0  0  0  0  2  0  0  0  0  0  0
  189.0320  176.8910  145.2040 O   0  0  0  0  0  0  0  0  0  0  0  0
  189.7130  177.1720  147.4640 C   0  0  0  0  0  1  0  0  0  0  0  0
  186.0540  178.0150  137.2590 C   0  0  0  0  0  2  0  0  0  0  0  0
  186.4940  175.9010  136.3140 C   0  0  2  0  0  3  0  0  0  0  0  0
  186.3860  175.7830  134.7880 C   0  0  0  0  0  2  0  0  0  0  0  0
  184.2950  177.0070  136.0490 C   0  0  1  0  0  3  0  0  0  0  0  0
  183.8830  175.7620  135.2690 C   0  0  0  0  0  2  0  0  0  0  0  0
  185.0070  175.2860  134.3470 C   0  0  0  0  0  2  0  0  0  0  0  0
  186.5310  174.5310  136.9680 C   0  0  0  0  0  1  0  0  0  0  0  0
  183.1630  177.4630  136.8380 N   0  0  0  0  0  1  0  0  0  0  0  0
  185.4420  176.7320  136.9330 N   0  0  0  0  0  0  0  0  0  0  0  0
  2  9  2  0  0  0  0
  2 17  1  0  0  0  0
  3  8  1  0  0  0  0
  4  3  2  0  0  0  0
  5 13  1  0  0  0  0
  5 14  1  0  0  0  0
  6 13  2  0  0  0  0
  7 19  1  0  0  0  0
  7  1  2  0  0  0  0
  9  6  1  0  0  0  0
 10  8  2  0  0  0  0
 10  9  1  0  0  0  0
 11 16  1  0  0  0  0
 11 18  2  0  0  0  0
 12  1  1  0  0  0  0
 13  7  1  0  0  0  0
 14 12  2  0  0  0  0
 15  4  1  0  0  0  0
 15 16  2  0  0  0  0
 16 10  1  0  0  0  0
 17  5  2  0  0  0  0
 18  2  1  0  0  0  0
 19 21  1  0  0  0  0
 20 21  1  0  0  0  0
 20 23  1  0  0  0  0
 22 20  2  0  0  0  0
 24 11  1  0  0  0  0
 25 32  1  0  0  0  0
 25 30  1  1  0  0  0
 26 25  1  0  0  0  0
 27 31  1  1  0  0  0
 27 32  1  0  0  0  0
 28 27  1  0  0  0  0
 29 26  1  0  0  0  0
 29 28  1  0  0  0  0
 32 24  1  0  0  0  0
M  END
>  <MODEL>
8

>  <REMARK>
 VINA RESULT:      -8.4      3.255      6.148
  Name = 
  4 active torsions:
  status: ('A' for Active; 'I' for Inactive)
    1  A    between atoms: N_10  and  C_24
    2  A    between atoms: C_12  and  C_24
    3  A    between atoms: C_16  and  C_27
    4  A    between atoms: C_27  and  N_32
                            x       y       z     vdW  Elec       q    Type
                         _______ _______ _______ _____ _____    ______ ____

>  <TORSDO>
F 4

$$$$
=
 OpenBabel10272413313D

 32 36  0  0  1  0  0  0  0  0999 V2000
  187.7730  177.9360  136.2990 N   0  0  0  0  0  0  0  0  0  0  0  0
  189.2360  177.9700  141.1380 C   0  0  0  0  0  0  0  0  0  0  0  0
  185.1630  178.1180  143.7880 C   0  0  0  0  0  3  0  0  0  0  0  0
  185.9350  178.1990  144.9470 C   0  0  0  0  0  3  0  0  0  0  0  0
  189.1710  177.8190  138.7210 C   0  0  0  0  0  0  0  0  0  0  0  0
  187.1000  177.8740  139.9840 C   0  0  0  0  0  3  0  0  0  0  0  0
  186.9670  177.6360  137.4860 C   0  0  0  0  0  0  0  0  0  0  0  0
  185.7820  178.0380  142.5390 C   0  0  0  0  0  3  0  0  0  0  0  0
  187.8240  177.9630  141.1840 C   0  0  0  0  0  0  0  0  0  0  0  0
  187.1840  178.0400  142.4340 C   0  0  0  0  0  0  0  0  0  0  0  0
  189.3690  178.1230  143.5090 C   0  0  0  0  0  0  0  0  0  0  0  0
  189.2050  177.8660  136.2930 C   0  0  0  0  0  3  0  0  0  0  0  0
  187.7640  177.8020  138.7550 C   0  0  0  0  0  0  0  0  0  0  0  0
  189.8830  177.7960  137.4360 C   0  0  0  0  0  3  0  0  0  0  0  0
  187.3290  178.2010  144.8620 C   0  0  0  0  0  3  0  0  0  0  0  0
  187.9650  178.1240  143.6130 C   0  0  0  0  0  0  0  0  0  0  0  0
  189.8990  177.9010  139.9100 C   0  0  0  0  0  3  0  0  0  0  0  0
  189.9580  178.0520  142.2850 N   0  0  0  0  0  0  0  0  0  0  0  0
  186.4390  176.2120  137.3980 C   0  0  0  0  0  2  0  0  0  0  0  0
  184.2160  175.0310  137.4530 C   0  0  0  0  0  0  0  0  0  0  0  0
  184.9860  176.2250  137.3360 N   0  0  0  0  0  2  0  0  0  0  0  0
  184.7800  173.9160  137.6150 O   0  0  0  0  0  0  0  0  0  0  0  0
  182.7330  175.1020  137.3820 C   0  0  0  0  0  1  0  0  0  0  0  0
  190.2450  178.2420  144.7190 C   0  0  0  0  0  2  0  0  0  0  0  0
  190.0150  177.2760  146.8570 C   0  0  2  0  0  3  0  0  0  0  0  0
  191.2620  177.2560  147.7510 C   0  0  0  0  0  2  0  0  0  0  0  0
  191.6070  176.3720  145.1900 C   0  0  1  0  0  3  0  0  0  0  0  0
  191.9440  175.3190  146.2410 C   0  0  0  0  0  2  0  0  0  0  0  0
  192.0280  175.9350  147.6380 C   0  0  0  0  0  2  0  0  0  0  0  0
  188.9400  176.3480  147.3950 C   0  0  0  0  0  1  0  0  0  0  0  0
  191.6270  175.7480  143.8770 N   0  0  0  0  0  1  0  0  0  0  0  0
  190.2840  176.9730  145.4360 N   0  0  0  0  0  0  0  0  0  0  0  0
  1  7  1  0  0  0  0
  2  9  1  0  0  0  0
  2 18  1  0  0  0  0
  3  4  1  0  0  0  0
  5 13  1  0  0  0  0
  5 17  1  0  0  0  0
  6  9  2  0  0  0  0
  7 13  2  0  0  0  0
  8  3  2  0  0  0  0
  9 10  1  0  0  0  0
 10  8  1  0  0  0  0
 10 16  2  0  0  0  0
 11 16  1  0  0  0  0
 11 24  1  0  0  0  0
 12  1  2  0  0  0  0
 12 14  1  0  0  0  0
 13  6  1  0  0  0  0
 14  5  2  0  0  0  0
 15  4  2  0  0  0  0
 16 15  1  0  0  0  0
 17  2  2  0  0  0  0
 18 11  2  0  0  0  0
 19  7  1  0  0  0  0
 20 22  2  0  0  0  0
 21 19  1  0  0  0  0
 21 20  1  0  0  0  0
 23 20  1  0  0  0  0
 24 32  1  0  0  0  0
 25 30  1  1  0  0  0
 25 26  1  0  0  0  0
 27 31  1  6  0  0  0
 27 32  1  0  0  0  0
 27 28  1  0  0  0  0
 28 29  1  0  0  0  0
 29 26  1  0  0  0  0
 32 25  1  0  0  0  0
M  END
>  <MODEL>
9

>  <REMARK>
 VINA RESULT:      -8.4      3.571      7.581
  Name = 
  4 active torsions:
  status: ('A' for Active; 'I' for Inactive)
    1  A    between atoms: N_10  and  C_24
    2  A    between atoms: C_12  and  C_24
    3  A    between atoms: C_16  and  C_27
    4  A    between atoms: C_27  and  N_32
                            x       y       z     vdW  Elec       q    Type
                         _______ _______ _______ _____ _____    ______ ____

>  <TORSDO>
F 4

$$$$
