=
 OpenBabel10272415323D

 34 38  0  0  1  0  0  0  0  0999 V2000
  192.5910  174.8550  136.8660 C   0  0  1  0  0  3  0  0  0  0  0  0
  189.2430  176.4970  137.2760 C   0  0  0  0  0  3  0  0  0  0  0  0
  190.5370  176.5220  135.2480 C   0  0  0  0  0  2  0  0  0  0  0  0
  190.9470  173.4320  136.4490 O   0  0  0  0  0  0  0  0  0  0  0  0
  191.0360  173.2360  135.0630 C   0  0  0  0  0  2  0  0  0  0  0  0
  191.3100  175.5620  134.5750 O   0  0  0  0  0  0  0  0  0  0  0  0
  192.1920  173.4960  136.9030 O   0  0  0  0  0  0  0  0  0  0  0  0
  190.4770  174.4590  134.3460 C   0  0  0  0  0  2  0  0  0  0  0  0
  188.9230  176.2650  138.7130 C   0  0  0  0  0  2  0  0  0  0  0  0
  189.7170  177.1800  139.5870 C   0  0  0  0  0  0  0  0  0  0  0  0
  191.0490  177.0840  139.6440 C   0  0  0  0  0  3  0  0  0  0  0  0
  190.4450  176.2790  136.7360 C   0  0  0  0  0  0  0  0  0  0  0  0
  191.8730  176.1970  138.7990 C   0  0  0  0  0  3  0  0  0  0  0  0
  191.6250  175.8090  137.5350 C   0  0  0  0  0  0  0  0  0  0  0  0
  194.6470  173.8410  138.0090 C   0  0  1  0  0  3  0  0  0  0  0  0
  196.8130  173.7480  135.8780 C   0  0  0  0  0  2  0  0  0  0  0  0
  194.9770  170.1210  137.6750 C   0  0  0  0  0  2  0  0  0  0  0  0
  194.8650  175.4980  135.9770 C   0  0  1  0  0  3  0  0  0  0  0  0
  194.0730  175.0410  137.2190 C   0  0  1  0  0  3  0  0  0  0  0  0
  196.8620  170.5930  135.9970 C   0  0  2  0  0  3  0  0  0  0  0  0
  195.5610  171.4620  138.0950 C   0  0  2  0  0  3  0  0  0  0  0  0
  197.1080  169.3650  135.3780 O   0  0  0  0  0  1  0  0  0  0  0  0
  194.9540  172.5580  137.1980 C   0  0  2  0  0  3  0  0  0  0  0  0
  194.6050  176.9690  135.6860 C   0  0  0  0  0  1  0  0  0  0  0  0
  197.1710  176.0470  136.2210 O   0  0  0  0  0  0  0  0  0  0  0  0
  196.4540  170.3860  137.4660 C   0  0  1  0  0  3  0  0  0  0  0  0
  195.9760  171.4850  135.1240 C   0  0  2  0  0  3  0  0  0  0  0  0
  195.6320  172.7820  135.8320 C   0  0  2  0  0  3  0  0  0  0  0  0
  194.7160  170.7800  134.6390 C   0  0  0  0  0  1  0  0  0  0  0  0
  196.3440  175.1700  136.0220 C   0  0  0  0  0  0  0  0  0  0  0  0
  195.7910  174.2850  138.9140 C   0  0  0  0  0  1  0  0  0  0  0  0
  189.0080  178.1310  140.4590 C   0  0  0  0  0  0  0  0  0  0  0  0
  189.3570  178.2380  141.8020 O   0  0  0  0  0  1  0  0  0  0  0  0
  188.0820  178.8540  140.0050 O   0  0  0  0  0  0  0  0  0  0  0  0
  1  7  1  1  0  0  0
  1 14  1  0  0  0  0
  2  9  1  0  0  0  0
  3 12  1  0  0  0  0
  4  7  1  0  0  0  0
  5  4  1  0  0  0  0
  6  3  1  0  0  0  0
  8  6  1  0  0  0  0
  8  5  1  0  0  0  0
  9 10  1  0  0  0  0
 10 11  2  0  0  0  0
 10 32  1  0  0  0  0
 12  2  2  0  0  0  0
 12 14  1  0  0  0  0
 13 11  1  0  0  0  0
 14 13  2  0  0  0  0
 15 31  1  6  0  0  0
 16 30  1  0  0  0  0
 18 24  1  1  0  0  0
 18 30  1  0  0  0  0
 18 19  1  0  0  0  0
 19  1  1  6  0  0  0
 19 15  1  0  0  0  0
 20 22  1  6  0  0  0
 20 26  1  0  0  0  0
 21 17  1  6  0  0  0
 23 15  1  0  0  0  0
 23 21  1  0  0  0  0
 26 17  1  0  0  0  0
 26 21  1  0  0  0  0
 27 28  1  0  0  0  0
 27 20  1  0  0  0  0
 28 16  1  0  0  0  0
 28 23  1  0  0  0  0
 29 27  1  0  0  0  0
 30 25  2  0  0  0  0
 32 33  1  0  0  0  0
 34 32  2  0  0  0  0
M  END
>  <MODEL>
1

>  <REMARK>
 VINA RESULT:      -6.4      0.000      0.000
  Name = 
  2 active torsions:
  status: ('A' for Active; 'I' for Inactive)
    1  A    between atoms: C_1  and  C_9
    2  A    between atoms: C_3  and  C_25
                            x       y       z     vdW  Elec       q    Type
                         _______ _______ _______ _____ _____    ______ ____

>  <TORSDO>
F 2

$$$$
=
 OpenBabel10272415323D

 34 38  0  0  1  0  0  0  0  0999 V2000
  187.6170  175.5160  136.7370 C   0  0  1  0  0  3  0  0  0  0  0  0
  191.0930  176.9150  136.5360 C   0  0  0  0  0  3  0  0  0  0  0  0
  189.3740  177.2880  134.8950 C   0  0  0  0  0  2  0  0  0  0  0  0
  187.7670  177.4410  137.8200 O   0  0  0  0  0  0  0  0  0  0  0  0
  187.0250  178.3190  137.0160 C   0  0  0  0  0  2  0  0  0  0  0  0
  187.9960  177.5470  134.9710 O   0  0  0  0  0  0  0  0  0  0  0  0
  187.1170  176.2850  137.8170 O   0  0  0  0  0  0  0  0  0  0  0  0
  187.8410  178.6800  135.7800 C   0  0  0  0  0  2  0  0  0  0  0  0
  191.7670  176.3260  137.7290 C   0  0  0  0  0  2  0  0  0  0  0  0
  192.1020  174.8900  137.4920 C   0  0  0  0  0  0  0  0  0  0  0  0
  191.1350  173.9830  137.3200 C   0  0  0  0  0  3  0  0  0  0  0  0
  189.9030  176.5150  136.0810 C   0  0  0  0  0  0  0  0  0  0  0  0
  189.6940  174.2870  137.2190 C   0  0  0  0  0  3  0  0  0  0  0  0
  189.1260  175.3920  136.7030 C   0  0  0  0  0  0  0  0  0  0  0  0
  185.5750  174.1330  137.4290 C   0  0  1  0  0  3  0  0  0  0  0  0
  184.0360  173.5970  134.8630 C   0  0  0  0  0  2  0  0  0  0  0  0
  182.4870  176.1260  138.1730 C   0  0  0  0  0  2  0  0  0  0  0  0
  186.6270  173.9470  135.0250 C   0  0  1  0  0  3  0  0  0  0  0  0
  186.8310  174.2140  136.5300 C   0  0  1  0  0  3  0  0  0  0  0  0
  181.5810  175.2730  135.9280 C   0  0  2  0  0  3  0  0  0  0  0  0
  183.1640  174.7810  137.9530 C   0  0  2  0  0  3  0  0  0  0  0  0
  180.4530  176.0570  135.6750 O   0  0  0  0  0  1  0  0  0  0  0  0
  184.3580  174.9910  137.0010 C   0  0  2  0  0  3  0  0  0  0  0  0
  187.9130  173.4360  134.3910 C   0  0  0  0  0  1  0  0  0  0  0  0
  185.5920  171.9100  134.3480 O   0  0  0  0  0  0  0  0  0  0  0  0
  181.7410  175.0310  137.4390 C   0  0  1  0  0  3  0  0  0  0  0  0
  182.7950  175.7810  135.1480 C   0  0  2  0  0  3  0  0  0  0  0  0
  184.0420  174.9880  135.4920 C   0  0  2  0  0  3  0  0  0  0  0  0
  183.0350  177.2750  135.3280 C   0  0  0  0  0  1  0  0  0  0  0  0
  185.4350  173.0700  134.7000 C   0  0  0  0  0  0  0  0  0  0  0  0
  185.2250  172.6830  137.7440 C   0  0  0  0  0  1  0  0  0  0  0  0
  193.5110  174.4650  137.5420 C   0  0  0  0  0  0  0  0  0  0  0  0
  194.4830  175.3320  138.0290 O   0  0  0  0  0  1  0  0  0  0  0  0
  193.8520  173.3190  137.1440 O   0  0  0  0  0  0  0  0  0  0  0  0
  1 14  1  1  0  0  0
  1  7  1  0  0  0  0
  2  9  1  0  0  0  0
  3  6  1  0  0  0  0
  3 12  1  0  0  0  0
  5  4  1  0  0  0  0
  6  8  1  0  0  0  0
  7  4  1  0  0  0  0
  8  5  1  0  0  0  0
 10 32  1  0  0  0  0
 10  9  1  0  0  0  0
 11 10  2  0  0  0  0
 12  2  2  0  0  0  0
 12 14  1  0  0  0  0
 13 11  1  0  0  0  0
 14 13  2  0  0  0  0
 15 31  1  6  0  0  0
 16 28  1  0  0  0  0
 18 24  1  1  0  0  0
 18 19  1  0  0  0  0
 19  1  1  6  0  0  0
 19 15  1  0  0  0  0
 20 22  1  1  0  0  0
 20 26  1  0  0  0  0
 21 17  1  1  0  0  0
 23 15  1  0  0  0  0
 23 21  1  0  0  0  0
 25 30  2  0  0  0  0
 26 21  1  0  0  0  0
 26 17  1  0  0  0  0
 27 29  1  0  0  0  0
 27 28  1  0  0  0  0
 27 20  1  0  0  0  0
 28 23  1  0  0  0  0
 30 16  1  0  0  0  0
 30 18  1  0  0  0  0
 32 33  1  0  0  0  0
 34 32  2  0  0  0  0
M  END
>  <MODEL>
2

>  <REMARK>
 VINA RESULT:      -5.0      4.516      9.441
  Name = 
  2 active torsions:
  status: ('A' for Active; 'I' for Inactive)
    1  A    between atoms: C_1  and  C_9
    2  A    between atoms: C_3  and  C_25
                            x       y       z     vdW  Elec       q    Type
                         _______ _______ _______ _____ _____    ______ ____

>  <TORSDO>
F 2

$$$$
=
 OpenBabel10272415323D

 34 38  0  0  1  0  0  0  0  0999 V2000
  186.5630  174.0000  136.4180 C   0  0  1  0  0  3  0  0  0  0  0  0
  183.6980  171.6090  136.0300 C   0  0  0  0  0  3  0  0  0  0  0  0
  185.3650  172.0270  134.3470 C   0  0  0  0  0  2  0  0  0  0  0  0
  187.0780  172.0000  137.2140 O   0  0  0  0  0  0  0  0  0  0  0  0
  188.0190  171.5200  136.2900 C   0  0  0  0  0  2  0  0  0  0  0  0
  186.7560  172.2110  134.3800 O   0  0  0  0  0  0  0  0  0  0  0  0
  187.3310  173.2920  137.3740 O   0  0  0  0  0  0  0  0  0  0  0  0
  187.2980  171.0890  135.0180 C   0  0  0  0  0  2  0  0  0  0  0  0
  182.9320  171.7850  137.2970 C   0  0  0  0  0  2  0  0  0  0  0  0
  182.1510  173.0590  137.2700 C   0  0  0  0  0  0  0  0  0  0  0  0
  182.7740  174.2400  137.2260 C   0  0  0  0  0  3  0  0  0  0  0  0
  184.6780  172.4240  135.6330 C   0  0  0  0  0  0  0  0  0  0  0  0
  184.2310  174.4270  137.0780 C   0  0  0  0  0  3  0  0  0  0  0  0
  185.0920  173.6410  136.4070 C   0  0  0  0  0  0  0  0  0  0  0  0
  188.0740  175.8600  137.3220 C   0  0  1  0  0  3  0  0  0  0  0  0
  189.3010  177.1860  134.8780 C   0  0  0  0  0  2  0  0  0  0  0  0
  191.6520  174.8760  137.8590 C   0  0  0  0  0  2  0  0  0  0  0  0
  186.9610  176.0100  134.9440 C   0  0  1  0  0  3  0  0  0  0  0  0
  186.8880  175.5000  136.3970 C   0  0  1  0  0  3  0  0  0  0  0  0
  192.1870  176.2560  135.7620 C   0  0  2  0  0  3  0  0  0  0  0  0
  190.5780  175.9510  137.8030 C   0  0  2  0  0  3  0  0  0  0  0  0
  193.4990  175.9120  135.4300 O   0  0  0  0  0  1  0  0  0  0  0  0
  189.4910  175.4970  136.8090 C   0  0  2  0  0  3  0  0  0  0  0  0
  185.5650  176.1620  134.3580 C   0  0  0  0  0  1  0  0  0  0  0  0
  187.2780  178.3400  134.5580 O   0  0  0  0  0  0  0  0  0  0  0  0
  191.9930  176.2360  137.2890 C   0  0  1  0  0  3  0  0  0  0  0  0
  191.1790  175.4920  134.9000 C   0  0  2  0  0  3  0  0  0  0  0  0
  189.7530  175.7960  135.3200 C   0  0  2  0  0  3  0  0  0  0  0  0
  191.4310  173.9900  134.8790 C   0  0  0  0  0  1  0  0  0  0  0  0
  187.8040  177.2560  134.7590 C   0  0  0  0  0  0  0  0  0  0  0  0
  187.9510  177.2920  137.8300 C   0  0  0  0  0  1  0  0  0  0  0  0
  180.6840  173.0020  137.3850 C   0  0  0  0  0  0  0  0  0  0  0  0
  180.0400  171.7740  137.4780 O   0  0  0  0  0  1  0  0  0  0  0  0
  179.9980  174.0590  137.3980 O   0  0  0  0  0  0  0  0  0  0  0  0
  1 14  1  1  0  0  0
  1  7  1  0  0  0  0
  2  9  1  0  0  0  0
  3  6  1  0  0  0  0
  3 12  1  0  0  0  0
  4  7  1  0  0  0  0
  5  4  1  0  0  0  0
  6  8  1  0  0  0  0
  8  5  1  0  0  0  0
 10  9  1  0  0  0  0
 10 32  1  0  0  0  0
 11 10  2  0  0  0  0
 12  2  2  0  0  0  0
 12 14  1  0  0  0  0
 13 11  1  0  0  0  0
 14 13  2  0  0  0  0
 15 31  1  6  0  0  0
 16 28  1  0  0  0  0
 18 24  1  1  0  0  0
 18 19  1  0  0  0  0
 19  1  1  6  0  0  0
 19 15  1  0  0  0  0
 20 22  1  1  0  0  0
 20 26  1  0  0  0  0
 21 17  1  1  0  0  0
 23 15  1  0  0  0  0
 23 21  1  0  0  0  0
 25 30  2  0  0  0  0
 26 21  1  0  0  0  0
 26 17  1  0  0  0  0
 27 28  1  0  0  0  0
 27 20  1  0  0  0  0
 28 23  1  0  0  0  0
 29 27  1  0  0  0  0
 30 16  1  0  0  0  0
 30 18  1  0  0  0  0
 32 34  2  0  0  0  0
 32 33  1  0  0  0  0
M  END
>  <MODEL>
3

>  <REMARK>
 VINA RESULT:      -4.7      4.956      7.553
  Name = 
  2 active torsions:
  status: ('A' for Active; 'I' for Inactive)
    1  A    between atoms: C_1  and  C_9
    2  A    between atoms: C_3  and  C_25
                            x       y       z     vdW  Elec       q    Type
                         _______ _______ _______ _____ _____    ______ ____

>  <TORSDO>
F 2

$$$$
=
 OpenBabel10272415323D

 34 38  0  0  1  0  0  0  0  0999 V2000
  185.2290  176.1150  136.7310 C   0  0  1  0  0  3  0  0  0  0  0  0
  188.4600  174.8290  135.3230 C   0  0  0  0  0  3  0  0  0  0  0  0
  187.2130  176.6740  134.4140 C   0  0  0  0  0  2  0  0  0  0  0  0
  186.9660  177.0640  137.7220 O   0  0  0  0  0  0  0  0  0  0  0  0
  186.9200  178.3850  137.2530 C   0  0  0  0  0  2  0  0  0  0  0  0
  186.5150  177.7510  134.9830 O   0  0  0  0  0  0  0  0  0  0  0  0
  185.7100  176.6920  137.9310 O   0  0  0  0  0  0  0  0  0  0  0  0
  187.4190  178.4250  135.8140 C   0  0  0  0  0  2  0  0  0  0  0  0
  188.7630  173.6500  136.1840 C   0  0  0  0  0  2  0  0  0  0  0  0
  187.8950  172.4900  135.8180 C   0  0  0  0  0  0  0  0  0  0  0  0
  186.5710  172.5490  135.9880 C   0  0  0  0  0  3  0  0  0  0  0  0
  187.2860  175.4650  135.3170 C   0  0  0  0  0  0  0  0  0  0  0  0
  185.8220  173.7470  136.4150 C   0  0  0  0  0  3  0  0  0  0  0  0
  186.1200  175.0330  136.1570 C   0  0  0  0  0  0  0  0  0  0  0  0
  183.1770  175.8440  138.2390 C   0  0  1  0  0  3  0  0  0  0  0  0
  181.0830  177.7490  137.1320 C   0  0  0  0  0  2  0  0  0  0  0  0
  182.9920  178.2430  141.1150 C   0  0  0  0  0  2  0  0  0  0  0  0
  182.9620  176.5860  135.7250 C   0  0  1  0  0  3  0  0  0  0  0  0
  183.7310  175.7870  136.7970 C   0  0  1  0  0  3  0  0  0  0  0  0
  181.1450  179.4430  139.7960 C   0  0  2  0  0  3  0  0  0  0  0  0
  182.3470  177.1640  140.2580 C   0  0  2  0  0  3  0  0  0  0  0  0
  180.9630  180.6590  140.4580 O   0  0  0  0  0  1  0  0  0  0  0  0
  182.9420  177.2530  138.8390 C   0  0  2  0  0  3  0  0  0  0  0  0
  183.1780  175.9790  134.3460 C   0  0  0  0  0  1  0  0  0  0  0  0
  180.6320  176.1800  135.4390 O   0  0  0  0  0  0  0  0  0  0  0  0
  181.5140  178.3330  140.7970 C   0  0  1  0  0  3  0  0  0  0  0  0
  182.0250  179.6140  138.5560 C   0  0  2  0  0  3  0  0  0  0  0  0
  182.2990  178.2800  137.8870 C   0  0  2  0  0  3  0  0  0  0  0  0
  183.3240  180.3540  138.8450 C   0  0  0  0  0  1  0  0  0  0  0  0
  181.4960  176.8030  136.0370 C   0  0  0  0  0  0  0  0  0  0  0  0
  181.9900  174.9000  138.4020 C   0  0  0  0  0  1  0  0  0  0  0  0
  188.5240  171.2430  135.3530 C   0  0  0  0  0  0  0  0  0  0  0  0
  189.7980  171.2720  134.7960 O   0  0  0  0  0  0  0  0  0  0  0  0
  187.9190  170.1420  135.4480 O   0  0  0  0  0  1  0  0  0  0  0  0
  1 14  1  1  0  0  0
  1  7  1  0  0  0  0
  2  9  1  0  0  0  0
  3  6  1  0  0  0  0
  3 12  1  0  0  0  0
  4  7  1  0  0  0  0
  5  4  1  0  0  0  0
  6  8  1  0  0  0  0
  8  5  1  0  0  0  0
 10 11  2  0  0  0  0
 10  9  1  0  0  0  0
 11 13  1  0  0  0  0
 12  2  2  0  0  0  0
 12 14  1  0  0  0  0
 14 13  2  0  0  0  0
 15 31  1  6  0  0  0
 15 23  1  0  0  0  0
 16 28  1  0  0  0  0
 18 24  1  6  0  0  0
 18 30  1  0  0  0  0
 18 19  1  0  0  0  0
 19  1  1  1  0  0  0
 19 15  1  0  0  0  0
 20 22  1  1  0  0  0
 20 26  1  0  0  0  0
 21 26  1  0  0  0  0
 21 17  1  1  0  0  0
 23 21  1  0  0  0  0
 25 30  2  0  0  0  0
 26 17  1  0  0  0  0
 27 29  1  0  0  0  0
 27 20  1  0  0  0  0
 28 27  1  0  0  0  0
 28 23  1  0  0  0  0
 30 16  1  0  0  0  0
 32 34  1  0  0  0  0
 32 10  1  0  0  0  0
 33 32  2  0  0  0  0
M  END
>  <MODEL>
4

>  <REMARK>
 VINA RESULT:      -4.7      5.756     11.608
  Name = 
  2 active torsions:
  status: ('A' for Active; 'I' for Inactive)
    1  A    between atoms: C_1  and  C_9
    2  A    between atoms: C_3  and  C_25
                            x       y       z     vdW  Elec       q    Type
                         _______ _______ _______ _____ _____    ______ ____

>  <TORSDO>
F 2

$$$$
=
 OpenBabel10272415323D

 34 38  0  0  1  0  0  0  0  0999 V2000
  183.0400  177.3410  138.0170 C   0  0  1  0  0  3  0  0  0  0  0  0
  185.8340  178.9580  139.9290 C   0  0  0  0  0  3  0  0  0  0  0  0
  183.6280  179.8870  139.6880 C   0  0  0  0  0  2  0  0  0  0  0  0
  183.1030  176.6150  140.1070 O   0  0  0  0  0  0  0  0  0  0  0  0
  181.9560  177.1850  140.6790 C   0  0  0  0  0  2  0  0  0  0  0  0
  182.3350  179.3420  139.7170 O   0  0  0  0  0  0  0  0  0  0  0  0
  182.7700  176.2490  138.8760 O   0  0  0  0  0  0  0  0  0  0  0  0
  182.2070  178.6660  140.9370 C   0  0  0  0  0  2  0  0  0  0  0  0
  186.9830  178.0370  139.6980 C   0  0  0  0  0  2  0  0  0  0  0  0
  187.5370  178.2150  138.3220 C   0  0  0  0  0  0  0  0  0  0  0  0
  186.8010  177.9180  137.2470 C   0  0  0  0  0  3  0  0  0  0  0  0
  184.6840  178.8980  139.2530 C   0  0  0  0  0  0  0  0  0  0  0  0
  185.3800  177.5180  137.2750 C   0  0  0  0  0  3  0  0  0  0  0  0
  184.4370  177.9110  138.1500 C   0  0  0  0  0  0  0  0  0  0  0  0
  183.0400  175.7470  136.0120 C   0  0  1  0  0  3  0  0  0  0  0  0
  180.1150  175.1790  135.4120 C   0  0  0  0  0  2  0  0  0  0  0  0
  182.9640  172.1010  136.8830 C   0  0  0  0  0  2  0  0  0  0  0  0
  181.0360  177.3860  136.4820 C   0  0  1  0  0  3  0  0  0  0  0  0
  182.5480  177.0970  136.5840 C   0  0  1  0  0  3  0  0  0  0  0  0
  180.5110  172.1280  136.1250 C   0  0  2  0  0  3  0  0  0  0  0  0
  182.8790  173.2070  135.8420 C   0  0  2  0  0  3  0  0  0  0  0  0
  179.9840  170.9140  136.5700 O   0  0  0  0  0  1  0  0  0  0  0  0
  182.3240  174.4730  136.5250 C   0  0  2  0  0  3  0  0  0  0  0  0
  180.7750  178.8850  136.4660 C   0  0  0  0  0  1  0  0  0  0  0  0
  179.9840  177.2710  134.3470 O   0  0  0  0  0  0  0  0  0  0  0  0
  181.9900  171.9630  135.7320 C   0  0  1  0  0  3  0  0  0  0  0  0
  180.1430  173.2720  137.0720 C   0  0  2  0  0  3  0  0  0  0  0  0
  180.7900  174.5750  136.6410 C   0  0  2  0  0  3  0  0  0  0  0  0
  180.4620  172.9640  138.5290 C   0  0  0  0  0  1  0  0  0  0  0  0
  180.3360  176.6650  135.3480 C   0  0  0  0  0  0  0  0  0  0  0  0
  183.1650  175.8140  134.4930 C   0  0  0  0  0  1  0  0  0  0  0  0
  188.9380  178.6360  138.1630 C   0  0  0  0  0  0  0  0  0  0  0  0
  189.9550  177.9270  138.7930 O   0  0  0  0  0  1  0  0  0  0  0  0
  189.2330  179.6400  137.4600 O   0  0  0  0  0  0  0  0  0  0  0  0
  1 14  1  6  0  0  0
  1  7  1  0  0  0  0
  3  6  1  0  0  0  0
  4  5  1  0  0  0  0
  5  8  1  0  0  0  0
  6  8  1  0  0  0  0
  7  4  1  0  0  0  0
  9  2  1  0  0  0  0
 10  9  1  0  0  0  0
 11 13  1  0  0  0  0
 11 10  2  0  0  0  0
 12  3  1  0  0  0  0
 12  2  2  0  0  0  0
 13 14  2  0  0  0  0
 14 12  1  0  0  0  0
 15 31  1  6  0  0  0
 15 23  1  0  0  0  0
 15 19  1  0  0  0  0
 16 28  1  0  0  0  0
 18 24  1  6  0  0  0
 18 19  1  0  0  0  0
 19  1  1  1  0  0  0
 20 22  1  1  0  0  0
 20 27  1  0  0  0  0
 21 23  1  0  0  0  0
 21 17  1  1  0  0  0
 23 28  1  0  0  0  0
 25 30  2  0  0  0  0
 26 21  1  0  0  0  0
 26 20  1  0  0  0  0
 26 17  1  0  0  0  0
 27 29  1  0  0  0  0
 28 27  1  0  0  0  0
 30 16  1  0  0  0  0
 30 18  1  0  0  0  0
 32 10  1  0  0  0  0
 32 33  1  0  0  0  0
 34 32  2  0  0  0  0
M  END
>  <MODEL>
5

>  <REMARK>
 VINA RESULT:      -4.5      7.152     11.682
  Name = 
  2 active torsions:
  status: ('A' for Active; 'I' for Inactive)
    1  A    between atoms: C_1  and  C_9
    2  A    between atoms: C_3  and  C_25
                            x       y       z     vdW  Elec       q    Type
                         _______ _______ _______ _____ _____    ______ ____

>  <TORSDO>
F 2

$$$$
=
 OpenBabel10272415323D

 34 38  0  0  1  0  0  0  0  0999 V2000
  190.9220  175.7730  136.2010 C   0  0  1  0  0  3  0  0  0  0  0  0
  194.1000  173.9330  135.4350 C   0  0  0  0  0  3  0  0  0  0  0  0
  192.3690  173.1190  136.8940 C   0  0  0  0  0  2  0  0  0  0  0  0
  190.7140  174.5480  134.3690 O   0  0  0  0  0  0  0  0  0  0  0  0
  189.8430  173.5230  134.7650 C   0  0  0  0  0  2  0  0  0  0  0  0
  190.9670  173.1310  136.8400 O   0  0  0  0  0  0  0  0  0  0  0  0
  190.2770  175.6600  134.9450 O   0  0  0  0  0  0  0  0  0  0  0  0
  190.6020  172.5250  135.6310 C   0  0  0  0  0  2  0  0  0  0  0  0
  194.8480  174.8890  134.5690 C   0  0  0  0  0  2  0  0  0  0  0  0
  195.4340  175.9950  135.3850 C   0  0  0  0  0  0  0  0  0  0  0  0
  194.6440  176.8580  136.0310 C   0  0  0  0  0  3  0  0  0  0  0  0
  193.0070  174.2560  136.1290 C   0  0  0  0  0  0  0  0  0  0  0  0
  193.1740  176.7600  136.1220 C   0  0  0  0  0  3  0  0  0  0  0  0
  192.4290  175.6410  136.1450 C   0  0  0  0  0  0  0  0  0  0  0  0
  189.2620  177.7210  136.3050 C   0  0  1  0  0  3  0  0  0  0  0  0
  187.5940  177.2510  138.8020 C   0  0  0  0  0  2  0  0  0  0  0  0
  185.9480  177.0720  134.6780 C   0  0  0  0  0  2  0  0  0  0  0  0
  190.0750  176.4730  138.4740 C   0  0  1  0  0  3  0  0  0  0  0  0
  190.3800  176.9410  137.0360 C   0  0  1  0  0  3  0  0  0  0  0  0
  184.9900  176.8880  137.0520 C   0  0  2  0  0  3  0  0  0  0  0  0
  186.8410  177.9530  135.5380 C   0  0  2  0  0  3  0  0  0  0  0  0
  183.7140  176.3460  136.8840 O   0  0  0  0  0  1  0  0  0  0  0  0
  187.8670  177.0510  136.2520 C   0  0  2  0  0  3  0  0  0  0  0  0
  191.3610  176.3160  139.2710 C   0  0  0  0  0  1  0  0  0  0  0  0
  189.3800  178.0860  140.0840 O   0  0  0  0  0  0  0  0  0  0  0  0
  185.3510  177.7980  135.8650 C   0  0  1  0  0  3  0  0  0  0  0  0
  185.9980  175.8140  137.4670 C   0  0  2  0  0  3  0  0  0  0  0  0
  187.4020  176.3830  137.5600 C   0  0  2  0  0  3  0  0  0  0  0  0
  185.9680  174.5890  136.5620 C   0  0  0  0  0  1  0  0  0  0  0  0
  189.0440  177.3130  139.2000 C   0  0  0  0  0  0  0  0  0  0  0  0
  189.2300  179.1760  136.7600 C   0  0  0  0  0  1  0  0  0  0  0  0
  196.8940  176.1810  135.3970 C   0  0  0  0  0  0  0  0  0  0  0  0
  197.6140  175.9690  136.5680 O   0  0  0  0  0  1  0  0  0  0  0  0
  197.5070  176.5350  134.3540 O   0  0  0  0  0  0  0  0  0  0  0  0
  1  7  1  6  0  0  0
  2 12  2  0  0  0  0
  4  5  1  0  0  0  0
  4  7  1  0  0  0  0
  5  8  1  0  0  0  0
  6  3  1  0  0  0  0
  8  6  1  0  0  0  0
  9 10  1  0  0  0  0
  9  2  1  0  0  0  0
 10 32  1  0  0  0  0
 10 11  2  0  0  0  0
 11 13  1  0  0  0  0
 12 14  1  0  0  0  0
 12  3  1  0  0  0  0
 13 14  2  0  0  0  0
 14  1  1  0  0  0  0
 15 31  1  1  0  0  0
 15 19  1  0  0  0  0
 16 30  1  0  0  0  0
 17 26  1  0  0  0  0
 18 30  1  0  0  0  0
 18 24  1  1  0  0  0
 19  1  1  6  0  0  0
 19 18  1  0  0  0  0
 20 22  1  6  0  0  0
 20 27  1  0  0  0  0
 21 17  1  6  0  0  0
 21 26  1  0  0  0  0
 21 23  1  0  0  0  0
 23 15  1  0  0  0  0
 23 28  1  0  0  0  0
 26 20  1  0  0  0  0
 27 28  1  0  0  0  0
 28 16  1  0  0  0  0
 29 27  1  0  0  0  0
 30 25  2  0  0  0  0
 32 33  1  0  0  0  0
 34 32  2  0  0  0  0
M  END
>  <MODEL>
6

>  <REMARK>
 VINA RESULT:      -4.4      2.453      8.113
  Name = 
  2 active torsions:
  status: ('A' for Active; 'I' for Inactive)
    1  A    between atoms: C_1  and  C_9
    2  A    between atoms: C_3  and  C_25
                            x       y       z     vdW  Elec       q    Type
                         _______ _______ _______ _____ _____    ______ ____

>  <TORSDO>
F 2

$$$$
=
 OpenBabel10272415323D

 34 38  0  0  1  0  0  0  0  0999 V2000
  189.6560  174.4190  136.3770 C   0  0  1  0  0  3  0  0  0  0  0  0
  192.8610  176.3590  136.1810 C   0  0  0  0  0  3  0  0  0  0  0  0
  191.2530  176.1950  134.3990 C   0  0  0  0  0  2  0  0  0  0  0  0
  189.3960  176.4720  137.1620 O   0  0  0  0  0  0  0  0  0  0  0  0
  188.5940  177.0880  136.1900 C   0  0  0  0  0  2  0  0  0  0  0  0
  189.8510  176.2190  134.3500 O   0  0  0  0  0  0  0  0  0  0  0  0
  188.9460  175.2310  137.2940 O   0  0  0  0  0  0  0  0  0  0  0  0
  189.4440  177.4080  134.9660 C   0  0  0  0  0  2  0  0  0  0  0  0
  193.5170  176.0690  137.4880 C   0  0  0  0  0  2  0  0  0  0  0  0
  194.1010  174.6940  137.4940 C   0  0  0  0  0  0  0  0  0  0  0  0
  193.3140  173.6180  137.4020 C   0  0  0  0  0  3  0  0  0  0  0  0
  191.7970  175.6990  135.7190 C   0  0  0  0  0  0  0  0  0  0  0  0
  191.8570  173.6500  137.1670 C   0  0  0  0  0  3  0  0  0  0  0  0
  191.1620  174.5560  136.4560 C   0  0  0  0  0  0  0  0  0  0  0  0
  187.8410  172.8000  137.1820 C   0  0  1  0  0  3  0  0  0  0  0  0
  186.5610  171.6800  134.6630 C   0  0  0  0  0  2  0  0  0  0  0  0
  184.4250  174.3010  137.5470 C   0  0  0  0  0  2  0  0  0  0  0  0
  189.0430  172.4950  134.8620 C   0  0  1  0  0  3  0  0  0  0  0  0
  189.1140  172.9840  136.3230 C   0  0  1  0  0  3  0  0  0  0  0  0
  183.8020  173.0240  135.4090 C   0  0  2  0  0  3  0  0  0  0  0  0
  185.3300  173.0790  137.5330 C   0  0  2  0  0  3  0  0  0  0  0  0
  182.5750  173.5600  135.0140 O   0  0  0  0  0  1  0  0  0  0  0  0
  186.5230  173.3700  136.6010 C   0  0  2  0  0  3  0  0  0  0  0  0
  190.4300  172.1400  134.3460 C   0  0  0  0  0  1  0  0  0  0  0  0
  188.4060  170.2390  134.4330 O   0  0  0  0  0  0  0  0  0  0  0  0
  183.9170  173.0080  136.9430 C   0  0  1  0  0  3  0  0  0  0  0  0
  184.9560  173.6330  134.6080 C   0  0  2  0  0  3  0  0  0  0  0  0
  186.2980  173.1200  135.0970 C   0  0  2  0  0  3  0  0  0  0  0  0
  184.9300  175.1550  134.5920 C   0  0  0  0  0  1  0  0  0  0  0  0
  188.0360  171.3890  134.6190 C   0  0  0  0  0  0  0  0  0  0  0  0
  187.7250  171.3630  137.6790 C   0  0  0  0  0  1  0  0  0  0  0  0
  195.5500  174.5320  137.6950 C   0  0  0  0  0  0  0  0  0  0  0  0
  196.0260  173.6150  138.6260 O   0  0  0  0  0  1  0  0  0  0  0  0
  196.3730  175.2210  137.0340 O   0  0  0  0  0  0  0  0  0  0  0  0
  1 14  1  1  0  0  0
  1  7  1  0  0  0  0
  2  9  1  0  0  0  0
  3 12  1  0  0  0  0
  4  7  1  0  0  0  0
  5  4  1  0  0  0  0
  6  3  1  0  0  0  0
  6  8  1  0  0  0  0
  8  5  1  0  0  0  0
  9 10  1  0  0  0  0
 10 32  1  0  0  0  0
 11 10  2  0  0  0  0
 12  2  2  0  0  0  0
 12 14  1  0  0  0  0
 13 11  1  0  0  0  0
 14 13  2  0  0  0  0
 15 31  1  6  0  0  0
 16 28  1  0  0  0  0
 18 24  1  1  0  0  0
 18 19  1  0  0  0  0
 19  1  1  6  0  0  0
 19 15  1  0  0  0  0
 20 22  1  1  0  0  0
 20 26  1  0  0  0  0
 21 17  1  1  0  0  0
 23 15  1  0  0  0  0
 23 21  1  0  0  0  0
 25 30  2  0  0  0  0
 26 21  1  0  0  0  0
 26 17  1  0  0  0  0
 27 28  1  0  0  0  0
 27 20  1  0  0  0  0
 28 23  1  0  0  0  0
 29 27  1  0  0  0  0
 30 16  1  0  0  0  0
 30 18  1  0  0  0  0
 32 33  1  0  0  0  0
 34 32  2  0  0  0  0
M  END
>  <MODEL>
7

>  <REMARK>
 VINA RESULT:      -4.3      3.709      7.975
  Name = 
  2 active torsions:
  status: ('A' for Active; 'I' for Inactive)
    1  A    between atoms: C_1  and  C_9
    2  A    between atoms: C_3  and  C_25
                            x       y       z     vdW  Elec       q    Type
                         _______ _______ _______ _____ _____    ______ ____

>  <TORSDO>
F 2

$$$$
=
 OpenBabel10272415323D

 34 38  0  0  1  0  0  0  0  0999 V2000
  182.7380  175.0320  136.0450 C   0  0  1  0  0  3  0  0  0  0  0  0
  181.1760  177.9510  137.8100 C   0  0  0  0  0  3  0  0  0  0  0  0
  181.8450  177.9510  135.4990 C   0  0  0  0  0  2  0  0  0  0  0  0
  180.5290  174.9180  135.9750 O   0  0  0  0  0  0  0  0  0  0  0  0
  180.2370  175.1700  134.6270 C   0  0  0  0  0  2  0  0  0  0  0  0
  181.7560  177.0110  134.4600 O   0  0  0  0  0  0  0  0  0  0  0  0
  181.6200  174.1650  135.9920 O   0  0  0  0  0  0  0  0  0  0  0  0
  180.4060  176.6590  134.3460 C   0  0  0  0  0  2  0  0  0  0  0  0
  181.0390  177.4690  139.2130 C   0  0  0  0  0  2  0  0  0  0  0  0
  182.3610  177.4820  139.9090 C   0  0  0  0  0  0  0  0  0  0  0  0
  183.3540  176.6870  139.5020 C   0  0  0  0  0  3  0  0  0  0  0  0
  181.8900  177.3230  136.8720 C   0  0  0  0  0  0  0  0  0  0  0  0
  183.3190  175.8320  138.2990 C   0  0  0  0  0  3  0  0  0  0  0  0
  182.6720  176.0720  137.1440 C   0  0  0  0  0  0  0  0  0  0  0  0
  185.0890  175.0410  135.0280 C   0  0  1  0  0  3  0  0  0  0  0  0
  187.0030  174.7650  137.3720 C   0  0  0  0  0  2  0  0  0  0  0  0
  186.7250  178.4100  134.8440 C   0  0  0  0  0  2  0  0  0  0  0  0
  184.5630  173.8140  137.2940 C   0  0  1  0  0  3  0  0  0  0  0  0
  184.0710  174.2820  135.9100 C   0  0  1  0  0  3  0  0  0  0  0  0
  188.2020  177.6290  136.7940 C   0  0  2  0  0  3  0  0  0  0  0  0
  186.8080  176.8970  134.7030 C   0  0  2  0  0  3  0  0  0  0  0  0
  188.8380  178.7860  137.2480 O   0  0  0  0  0  1  0  0  0  0  0  0
  185.7900  176.2640  135.6700 C   0  0  2  0  0  3  0  0  0  0  0  0
  183.7690  172.6050  137.7660 C   0  0  0  0  0  1  0  0  0  0  0  0
  186.5230  172.4640  137.4210 O   0  0  0  0  0  0  0  0  0  0  0  0
  187.9890  177.6930  135.2710 C   0  0  1  0  0  3  0  0  0  0  0  0
  187.0000  177.2760  137.6730 C   0  0  2  0  0  3  0  0  0  0  0  0
  186.2530  176.0720  137.1280 C   0  0  2  0  0  3  0  0  0  0  0  0
  186.0550  178.4500  137.8880 C   0  0  0  0  0  1  0  0  0  0  0  0
  186.0600  173.5940  137.3850 C   0  0  0  0  0  0  0  0  0  0  0  0
  186.0480  174.0700  134.3470 C   0  0  0  0  0  1  0  0  0  0  0  0
  182.5290  178.3170  141.1100 C   0  0  0  0  0  0  0  0  0  0  0  0
  183.7740  178.4120  141.7230 O   0  0  0  0  0  1  0  0  0  0  0  0
  181.5540  178.9490  141.5970 O   0  0  0  0  0  0  0  0  0  0  0  0
  1  7  1  1  0  0  0
  1 14  1  0  0  0  0
  2  9  1  0  0  0  0
  3 12  1  0  0  0  0
  4  7  1  0  0  0  0
  5  4  1  0  0  0  0
  6  3  1  0  0  0  0
  8  6  1  0  0  0  0
  8  5  1  0  0  0  0
  9 10  1  0  0  0  0
 10 32  1  0  0  0  0
 11 10  2  0  0  0  0
 12 14  1  0  0  0  0
 12  2  2  0  0  0  0
 13 11  1  0  0  0  0
 14 13  2  0  0  0  0
 15 31  1  1  0  0  0
 15 23  1  0  0  0  0
 15 19  1  0  0  0  0
 16 30  1  0  0  0  0
 17 26  1  0  0  0  0
 18 30  1  0  0  0  0
 18 24  1  6  0  0  0
 19  1  1  1  0  0  0
 19 18  1  0  0  0  0
 20 22  1  1  0  0  0
 20 27  1  0  0  0  0
 21 17  1  6  0  0  0
 21 26  1  0  0  0  0
 21 23  1  0  0  0  0
 23 28  1  0  0  0  0
 26 20  1  0  0  0  0
 27 29  1  0  0  0  0
 28 16  1  0  0  0  0
 28 27  1  0  0  0  0
 30 25  2  0  0  0  0
 32 34  2  0  0  0  0
 32 33  1  0  0  0  0
M  END
>  <MODEL>
8

>  <REMARK>
 VINA RESULT:      -4.2      6.917      9.947
  Name = 
  2 active torsions:
  status: ('A' for Active; 'I' for Inactive)
    1  A    between atoms: C_1  and  C_9
    2  A    between atoms: C_3  and  C_25
                            x       y       z     vdW  Elec       q    Type
                         _______ _______ _______ _____ _____    ______ ____

>  <TORSDO>
F 2

$$$$
=
 OpenBabel10272415323D

 34 38  0  0  1  0  0  0  0  0999 V2000
  182.8320  177.2690  138.0870 C   0  0  1  0  0  3  0  0  0  0  0  0
  185.3410  179.0700  140.2170 C   0  0  0  0  0  3  0  0  0  0  0  0
  183.1520  179.9110  139.6800 C   0  0  0  0  0  2  0  0  0  0  0  0
  182.6750  176.6470  140.2050 O   0  0  0  0  0  0  0  0  0  0  0  0
  181.4540  177.2040  140.6140 C   0  0  0  0  0  2  0  0  0  0  0  0
  181.8790  179.3240  139.5900 O   0  0  0  0  0  0  0  0  0  0  0  0
  182.4960  176.2110  138.9650 O   0  0  0  0  0  0  0  0  0  0  0  0
  181.6310  178.7040  140.8210 C   0  0  0  0  0  2  0  0  0  0  0  0
  186.5350  178.1790  140.1660 C   0  0  0  0  0  2  0  0  0  0  0  0
  187.2370  178.3090  138.8540 C   0  0  0  0  0  0  0  0  0  0  0  0
  186.6380  177.9350  137.7190 C   0  0  0  0  0  3  0  0  0  0  0  0
  184.2780  178.9380  139.4190 C   0  0  0  0  0  0  0  0  0  0  0  0
  185.2360  177.4900  137.6060 C   0  0  0  0  0  3  0  0  0  0  0  0
  184.1880  177.8920  138.3470 C   0  0  0  0  0  0  0  0  0  0  0  0
  183.7730  176.5270  135.8230 C   0  0  1  0  0  3  0  0  0  0  0  0
  182.2090  174.0360  135.0570 C   0  0  0  0  0  2  0  0  0  0  0  0
  186.5510  174.0160  136.0050 C   0  0  0  0  0  2  0  0  0  0  0  0
  181.2980  175.9950  136.5380 C   0  0  1  0  0  3  0  0  0  0  0  0
  182.5140  176.9400  136.6210 C   0  0  1  0  0  3  0  0  0  0  0  0
  184.8330  172.2840  135.2050 C   0  0  2  0  0  3  0  0  0  0  0  0
  185.5420  174.8040  135.1840 C   0  0  2  0  0  3  0  0  0  0  0  0
  185.4500  171.0480  135.4060 O   0  0  0  0  0  1  0  0  0  0  0  0
  184.3190  175.1000  136.0740 C   0  0  2  0  0  3  0  0  0  0  0  0
  180.0070  176.7590  136.7930 C   0  0  0  0  0  1  0  0  0  0  0  0
  180.4310  175.4240  134.3940 O   0  0  0  0  0  0  0  0  0  0  0  0
  185.8750  173.3510  134.8240 C   0  0  1  0  0  3  0  0  0  0  0  0
  183.8560  172.6070  136.3380 C   0  0  2  0  0  3  0  0  0  0  0  0
  183.2540  173.9900  136.1700 C   0  0  2  0  0  3  0  0  0  0  0  0
  184.4750  172.4480  137.7210 C   0  0  0  0  0  1  0  0  0  0  0  0
  181.2370  175.1630  135.2740 C   0  0  0  0  0  0  0  0  0  0  0  0
  183.6170  176.8750  134.3460 C   0  0  0  0  0  1  0  0  0  0  0  0
  188.6350  178.7700  138.8330 C   0  0  0  0  0  0  0  0  0  0  0  0
  189.5180  178.3640  139.8280 O   0  0  0  0  0  1  0  0  0  0  0  0
  189.0470  179.5360  137.9200 O   0  0  0  0  0  0  0  0  0  0  0  0
  1 14  1  6  0  0  0
  1  7  1  0  0  0  0
  4  5  1  0  0  0  0
  5  8  1  0  0  0  0
  6  3  1  0  0  0  0
  6  8  1  0  0  0  0
  7  4  1  0  0  0  0
  9  2  1  0  0  0  0
 10  9  1  0  0  0  0
 11 10  2  0  0  0  0
 12  3  1  0  0  0  0
 12  2  2  0  0  0  0
 13 11  1  0  0  0  0
 13 14  2  0  0  0  0
 14 12  1  0  0  0  0
 15 31  1  6  0  0  0
 15 23  1  0  0  0  0
 15 19  1  0  0  0  0
 16 30  1  0  0  0  0
 16 28  1  0  0  0  0
 18 19  1  0  0  0  0
 18 24  1  6  0  0  0
 19  1  1  1  0  0  0
 20 22  1  1  0  0  0
 20 27  1  0  0  0  0
 21 17  1  1  0  0  0
 21 23  1  0  0  0  0
 23 28  1  0  0  0  0
 25 30  2  0  0  0  0
 26 21  1  0  0  0  0
 26 20  1  0  0  0  0
 26 17  1  0  0  0  0
 27 29  1  0  0  0  0
 28 27  1  0  0  0  0
 30 18  1  0  0  0  0
 32 10  1  0  0  0  0
 32 33  1  0  0  0  0
 34 32  2  0  0  0  0
M  END
>  <MODEL>
9

>  <REMARK>
 VINA RESULT:      -3.8      7.112     10.535
  Name = 
  2 active torsions:
  status: ('A' for Active; 'I' for Inactive)
    1  A    between atoms: C_1  and  C_9
    2  A    between atoms: C_3  and  C_25
                            x       y       z     vdW  Elec       q    Type
                         _______ _______ _______ _____ _____    ______ ____

>  <TORSDO>
F 2

$$$$
