=
 OpenBabel10272402113D

 32 38  0  0  1  0  0  0  0  0999 V2000
  189.6470  177.4280  142.2740 C   0  0  0  0  0  0  0  0  0  0  0  0
  187.6690  177.9690  143.6090 C   0  0  1  0  0  3  0  0  0  0  0  0
  190.7590  178.1630  142.3980 C   0  0  0  0  0  3  0  0  0  0  0  0
  188.8530  177.0350  143.4750 C   0  0  2  0  0  3  0  0  0  0  0  0
  186.2530  178.7950  145.5810 C   0  0  2  0  0  3  0  0  0  0  0  0
  183.1990  178.6800  141.2110 C   0  0  0  0  0  2  0  0  0  0  0  0
  186.7490  177.7200  142.3780 C   0  0  2  0  0  3  0  0  0  0  0  0
  183.2960  179.2760  143.3730 C   0  0  0  0  0  2  0  0  0  0  0  0
  184.6720  178.6570  143.6320 C   0  0  2  0  0  3  0  0  0  0  0  0
  189.6310  176.9890  144.7800 C   0  0  2  0  0  3  0  0  0  0  0  0
  185.4250  179.5780  144.5710 C   0  0  0  0  0  2  0  0  0  0  0  0
  188.4390  177.2440  146.1240 S   0  0  0  0  0  0  0  0  0  0  0  0
  190.7450  178.0010  144.8430 C   0  0  0  0  0  3  0  0  0  0  0  0
  187.5360  178.0120  141.0750 C   0  0  0  0  0  2  0  0  0  0  0  0
  188.8930  177.2750  140.9840 C   0  0  1  0  0  3  0  0  0  0  0  0
  185.4490  178.5480  142.3100 C   0  0  2  0  0  3  0  0  0  0  0  0
  187.0640  177.6400  144.9740 C   0  0  2  0  0  3  0  0  0  0  0  0
  191.2920  178.5010  143.7310 C   0  0  0  0  0  3  0  0  0  0  0  0
  182.5750  178.4960  142.4550 O   0  0  0  0  0  0  0  0  0  0  0  0
  184.5500  177.9710  141.2080 C   0  0  0  0  0  2  0  0  0  0  0  0
  189.3830  176.5520  137.7130 C   0  0  1  0  0  0  0  0  0  0  0  0
  188.4070  175.6360  137.1020 C   0  0  0  0  0  2  0  0  0  0  0  0
  190.6610  175.9730  138.2200 C   0  0  2  0  0  3  0  0  0  0  0  0
  189.6890  177.6090  139.7890 N   0  0  1  0  0  0  0  0  0  0  0  0
  189.1360  176.5750  136.3300 O   0  0  0  0  0  0  0  0  0  0  0  0
  190.7150  176.5590  139.6290 C   0  0  0  0  0  2  0  0  0  0  0  0
  188.8610  177.6580  138.5760 C   0  0  1  0  0  3  0  0  0  0  0  0
  189.0520  179.0020  137.8920 C   0  0  0  0  0  1  0  0  0  0  0  0
  192.9100  176.6370  137.9520 O   0  0  0  0  0  0  0  0  0  0  0  0
  191.8210  176.4810  137.4240 C   0  0  0  0  0  3  0  0  0  0  0  0
  185.3420  178.2840  146.6890 C   0  0  0  0  0  2  0  0  0  0  0  0
  185.8370  178.7720  148.0360 C   0  0  0  0  0  1  0  0  0  0  0  0
  1  3  2  0  0  0  0
  1  4  1  0  0  0  0
  2 17  1  0  0  0  0
  3 18  1  0  0  0  0
  4  2  1  0  0  0  0
  4 10  1  0  0  0  0
  5 31  1  0  0  0  0
  6 19  1  0  0  0  0
  7  2  1  0  0  0  0
  8  9  1  0  0  0  0
  9 11  1  0  0  0  0
 10 13  1  0  0  0  0
 10 12  1  0  0  0  0
 11  5  1  0  0  0  0
 14  7  1  0  0  0  0
 15 14  1  0  0  0  0
 15  1  1  0  0  0  0
 16  7  1  0  0  0  0
 16  9  1  0  0  0  0
 17  5  1  0  0  0  0
 17 12  1  0  0  0  0
 18 13  2  0  0  0  0
 19  8  1  0  0  0  0
 20  6  1  0  0  0  0
 20 16  1  0  0  0  0
 21 23  1  0  0  0  0
 21 27  1  0  0  0  0
 22 21  1  0  0  0  0
 23 26  1  0  0  0  0
 24 15  1  0  0  0  0
 25 22  1  0  0  0  0
 25 21  1  0  0  0  0
 26 24  1  0  0  0  0
 27 24  1  0  0  0  0
 28 27  1  0  0  0  0
 30 29  2  0  0  0  0
 30 23  1  0  0  0  0
 31 32  1  0  0  0  0
M  END
>  <MODEL>
1

>  <REMARK>
 VINA RESULT:      -8.9      0.000      0.000
  Name = 
  3 active torsions:
  status: ('A' for Active; 'I' for Inactive)
    1  A    between atoms: C_6  and  C_13
    2  A    between atoms: C_15  and  C_26
    3  A    between atoms: N_16  and  C_27
                            x       y       z     vdW  Elec       q    Type
                         _______ _______ _______ _____ _____    ______ ____

>  <TORSDO>
F 3

$$$$
=
 OpenBabel10272402113D

 32 38  0  0  1  0  0  0  0  0999 V2000
  185.8120  178.3490  139.7160 C   0  0  0  0  0  0  0  0  0  0  0  0
  186.4660  178.1210  142.0630 C   0  0  1  0  0  3  0  0  0  0  0  0
  184.8010  177.6180  139.2300 C   0  0  0  0  0  3  0  0  0  0  0  0
  185.7180  178.9800  141.0650 C   0  0  2  0  0  3  0  0  0  0  0  0
  186.2600  177.7150  144.5870 C   0  0  2  0  0  3  0  0  0  0  0  0
  191.3630  177.1020  143.1670 C   0  0  0  0  0  2  0  0  0  0  0  0
  187.9700  178.1620  141.6650 C   0  0  2  0  0  3  0  0  0  0  0  0
  189.8850  176.9160  144.8460 C   0  0  0  0  0  2  0  0  0  0  0  0
  188.7140  177.5330  144.0770 C   0  0  2  0  0  3  0  0  0  0  0  0
  184.3060  179.2450  141.5600 C   0  0  2  0  0  3  0  0  0  0  0  0
  187.4560  176.7820  144.4670 C   0  0  0  0  0  2  0  0  0  0  0  0
  184.3710  179.2780  143.3730 S   0  0  0  0  0  0  0  0  0  0  0  0
  183.3050  178.2320  141.0700 C   0  0  0  0  0  3  0  0  0  0  0  0
  188.1430  177.6110  140.2270 C   0  0  0  0  0  2  0  0  0  0  0  0
  187.2150  178.2810  139.1850 C   0  0  1  0  0  3  0  0  0  0  0  0
  188.9430  177.3730  142.5660 C   0  0  2  0  0  3  0  0  0  0  0  0
  186.1170  178.7140  143.4280 C   0  0  2  0  0  3  0  0  0  0  0  0
  183.5240  177.5180  139.9620 C   0  0  0  0  0  3  0  0  0  0  0  0
  191.0910  177.5320  144.4750 O   0  0  0  0  0  0  0  0  0  0  0  0
  190.3830  177.7610  142.2000 C   0  0  0  0  0  2  0  0  0  0  0  0
  189.2330  176.6170  137.0330 C   0  0  1  0  0  0  0  0  0  0  0  0
  190.5010  176.1240  137.5900 C   0  0  0  0  0  2  0  0  0  0  0  0
  189.2460  177.9280  136.3200 C   0  0  2  0  0  3  0  0  0  0  0  0
  187.3090  177.7080  137.8300 N   0  0  1  0  0  0  0  0  0  0  0  0
  189.8910  175.5150  136.4650 O   0  0  0  0  0  0  0  0  0  0  0  0
  188.0860  178.6500  136.9990 C   0  0  0  0  0  2  0  0  0  0  0  0
  187.9860  176.4030  137.8320 C   0  0  1  0  0  3  0  0  0  0  0  0
  187.0920  175.3740  137.1590 C   0  0  0  0  0  1  0  0  0  0  0  0
  187.7790  177.6100  134.4980 O   0  0  0  0  0  0  0  0  0  0  0  0
  188.9350  177.7400  134.8690 C   0  0  0  0  0  3  0  0  0  0  0  0
  186.3260  178.4480  145.9190 C   0  0  0  0  0  2  0  0  0  0  0  0
  185.0400  178.2380  146.6940 C   0  0  0  0  0  1  0  0  0  0  0  0
  1  4  1  0  0  0  0
  2 17  1  0  0  0  0
  3  1  2  0  0  0  0
  3 18  1  0  0  0  0
  4 10  1  0  0  0  0
  4  2  1  0  0  0  0
  5 31  1  0  0  0  0
  6 19  1  0  0  0  0
  7  2  1  0  0  0  0
  7 16  1  0  0  0  0
  9 11  1  0  0  0  0
  9  8  1  0  0  0  0
 10 12  1  0  0  0  0
 11  5  1  0  0  0  0
 12 17  1  0  0  0  0
 13 10  1  0  0  0  0
 14  7  1  0  0  0  0
 15  1  1  0  0  0  0
 15 14  1  0  0  0  0
 16  9  1  0  0  0  0
 17  5  1  0  0  0  0
 18 13  2  0  0  0  0
 19  8  1  0  0  0  0
 20 16  1  0  0  0  0
 20  6  1  0  0  0  0
 21 22  1  0  0  0  0
 21 27  1  0  0  0  0
 23 26  1  0  0  0  0
 23 21  1  0  0  0  0
 24 27  1  0  0  0  0
 24 15  1  0  0  0  0
 25 21  1  0  0  0  0
 25 22  1  0  0  0  0
 26 24  1  0  0  0  0
 28 27  1  0  0  0  0
 29 30  2  0  0  0  0
 30 23  1  0  0  0  0
 31 32  1  0  0  0  0
M  END
>  <MODEL>
2

>  <REMARK>
 VINA RESULT:      -8.5      2.293      4.777
  Name = 
  3 active torsions:
  status: ('A' for Active; 'I' for Inactive)
    1  A    between atoms: C_6  and  C_13
    2  A    between atoms: C_15  and  C_26
    3  A    between atoms: N_16  and  C_27
                            x       y       z     vdW  Elec       q    Type
                         _______ _______ _______ _____ _____    ______ ____

>  <TORSDO>
F 3

$$$$
=
 OpenBabel10272402113D

 32 38  0  0  1  0  0  0  0  0999 V2000
  183.7700  179.0970  142.6310 C   0  0  0  0  0  0  0  0  0  0  0  0
  185.9560  178.3430  143.4320 C   0  0  1  0  0  3  0  0  0  0  0  0
  182.6550  178.5020  143.0720 C   0  0  0  0  0  3  0  0  0  0  0  0
  184.8890  179.4100  143.5680 C   0  0  2  0  0  3  0  0  0  0  0  0
  187.7380  177.3820  145.0060 C   0  0  2  0  0  3  0  0  0  0  0  0
  189.5330  177.0710  139.9940 C   0  0  0  0  0  2  0  0  0  0  0  0
  186.5420  178.4630  141.9950 C   0  0  2  0  0  3  0  0  0  0  0  0
  189.9400  176.5220  142.1320 C   0  0  0  0  0  2  0  0  0  0  0  0
  188.7580  177.3040  142.7100 C   0  0  2  0  0  3  0  0  0  0  0  0
  184.4910  179.5660  145.0260 C   0  0  2  0  0  3  0  0  0  0  0  0
  188.1800  176.4920  143.8520 C   0  0  0  0  0  2  0  0  0  0  0  0
  185.9570  179.1900  146.0260 S   0  0  0  0  0  0  0  0  0  0  0  0
  183.3260  178.6950  145.4200 C   0  0  0  0  0  3  0  0  0  0  0  0
  185.4140  178.2480  140.9540 C   0  0  0  0  0  2  0  0  0  0  0  0
  184.1720  179.1410  141.1850 C   0  0  1  0  0  3  0  0  0  0  0  0
  187.6790  177.4860  141.6310 C   0  0  2  0  0  3  0  0  0  0  0  0
  186.9300  178.6170  144.5790 C   0  0  2  0  0  3  0  0  0  0  0  0
  182.4550  178.2480  144.5110 C   0  0  0  0  0  3  0  0  0  0  0  0
  190.4780  177.1970  141.0250 O   0  0  0  0  0  0  0  0  0  0  0  0
  188.3160  177.9360  140.3090 C   0  0  0  0  0  2  0  0  0  0  0  0
  183.3320  177.7490  138.2140 C   0  0  1  0  0  0  0  0  0  0  0  0
  184.3850  176.9680  137.5490 C   0  0  0  0  0  2  0  0  0  0  0  0
  183.1550  179.1730  137.8050 C   0  0  2  0  0  3  0  0  0  0  0  0
  183.0580  178.8870  140.2530 N   0  0  1  0  0  0  0  0  0  0  0  0
  183.0090  176.7250  137.3100 O   0  0  0  0  0  0  0  0  0  0  0  0
  183.1570  179.8760  139.1600 C   0  0  0  0  0  2  0  0  0  0  0  0
  183.1210  177.5350  139.6800 C   0  0  1  0  0  3  0  0  0  0  0  0
  181.8010  176.8230  139.9300 C   0  0  0  0  0  1  0  0  0  0  0  0
  180.8610  179.7300  137.7950 O   0  0  0  0  0  0  0  0  0  0  0  0
  181.8270  179.3680  137.1440 C   0  0  0  0  0  3  0  0  0  0  0  0
  188.9580  177.7960  145.8160 C   0  0  0  0  0  2  0  0  0  0  0  0
  188.9920  177.0410  147.1300 C   0  0  0  0  0  1  0  0  0  0  0  0
  1  3  2  0  0  0  0
  1  4  1  0  0  0  0
  2  4  1  0  0  0  0
  2 17  1  0  0  0  0
  3 18  1  0  0  0  0
  4 10  1  0  0  0  0
  5 31  1  0  0  0  0
  6 20  1  0  0  0  0
  6 19  1  0  0  0  0
  7  2  1  0  0  0  0
  8  9  1  0  0  0  0
  9 11  1  0  0  0  0
 10 13  1  0  0  0  0
 10 12  1  0  0  0  0
 11  5  1  0  0  0  0
 14 15  1  0  0  0  0
 14  7  1  0  0  0  0
 15  1  1  0  0  0  0
 16  7  1  0  0  0  0
 16  9  1  0  0  0  0
 17  5  1  0  0  0  0
 17 12  1  0  0  0  0
 18 13  2  0  0  0  0
 19  8  1  0  0  0  0
 20 16  1  0  0  0  0
 21 27  1  0  0  0  0
 22 21  1  0  0  0  0
 23 21  1  0  0  0  0
 23 26  1  0  0  0  0
 24 15  1  0  0  0  0
 25 22  1  0  0  0  0
 25 21  1  0  0  0  0
 26 24  1  0  0  0  0
 27 28  1  0  0  0  0
 27 24  1  0  0  0  0
 30 29  2  0  0  0  0
 30 23  1  0  0  0  0
 31 32  1  0  0  0  0
M  END
>  <MODEL>
3

>  <REMARK>
 VINA RESULT:      -7.6      2.680      6.193
  Name = 
  3 active torsions:
  status: ('A' for Active; 'I' for Inactive)
    1  A    between atoms: C_6  and  C_13
    2  A    between atoms: C_15  and  C_26
    3  A    between atoms: N_16  and  C_27
                            x       y       z     vdW  Elec       q    Type
                         _______ _______ _______ _____ _____    ______ ____

>  <TORSDO>
F 3

$$$$
=
 OpenBabel10272402113D

 32 38  0  0  1  0  0  0  0  0999 V2000
  188.7170  177.4240  140.9870 C   0  0  0  0  0  0  0  0  0  0  0  0
  188.7270  177.4040  143.4350 C   0  0  1  0  0  3  0  0  0  0  0  0
  189.6610  178.0990  140.3210 C   0  0  0  0  0  3  0  0  0  0  0  0
  189.0650  176.6110  142.1900 C   0  0  2  0  0  3  0  0  0  0  0  0
  189.6310  177.4420  145.8340 C   0  0  2  0  0  3  0  0  0  0  0  0
  184.4710  178.7880  145.9260 C   0  0  0  0  0  2  0  0  0  0  0  0
  187.1810  177.5800  143.4590 C   0  0  2  0  0  3  0  0  0  0  0  0
  186.3430  178.5870  147.1490 C   0  0  0  0  0  2  0  0  0  0  0  0
  187.1780  177.9550  146.0330 C   0  0  2  0  0  3  0  0  0  0  0  0
  190.5060  176.1300  142.2520 C   0  0  2  0  0  3  0  0  0  0  0  0
  188.5860  178.5070  146.1390 C   0  0  0  0  0  2  0  0  0  0  0  0
  190.9050  175.8620  144.0020 S   0  0  0  0  0  0  0  0  0  0  0  0
  191.4790  177.0860  141.6130 C   0  0  0  0  0  3  0  0  0  0  0  0
  186.7230  178.3340  142.1850 C   0  0  0  0  0  2  0  0  0  0  0  0
  187.2480  177.7140  140.8680 C   0  0  1  0  0  3  0  0  0  0  0  0
  186.5930  178.3410  144.6650 C   0  0  2  0  0  3  0  0  0  0  0  0
  189.3290  176.5990  144.5870 C   0  0  2  0  0  3  0  0  0  0  0  0
  191.0840  177.9610  140.6840 C   0  0  0  0  0  3  0  0  0  0  0  0
  185.0080  178.1600  147.0610 O   0  0  0  0  0  0  0  0  0  0  0  0
  185.0680  178.1640  144.6680 C   0  0  0  0  0  2  0  0  0  0  0  0
  185.6210  177.5500  137.9030 C   0  0  1  0  0  0  0  0  0  0  0  0
  184.8300  176.3320  137.6690 C   0  0  0  0  0  2  0  0  0  0  0  0
  187.0050  177.6020  137.3490 C   0  0  2  0  0  3  0  0  0  0  0  0
  186.8910  178.4700  139.6540 N   0  0  1  0  0  0  0  0  0  0  0  0
  184.5240  177.5580  137.0260 O   0  0  0  0  0  0  0  0  0  0  0  0
  187.8020  178.0380  138.5750 C   0  0  0  0  0  2  0  0  0  0  0  0
  185.5040  178.2150  139.2390 C   0  0  1  0  0  3  0  0  0  0  0  0
  184.7670  179.5380  139.1120 C   0  0  0  0  0  1  0  0  0  0  0  0
  187.4740  179.7810  136.5700 O   0  0  0  0  0  0  0  0  0  0  0  0
  187.1070  178.6520  136.2880 C   0  0  0  0  0  3  0  0  0  0  0  0
  189.8070  176.5490  147.0540 C   0  0  0  0  0  2  0  0  0  0  0  0
  191.2640  176.5190  147.4710 C   0  0  0  0  0  1  0  0  0  0  0  0
  1  4  1  0  0  0  0
  2  7  1  0  0  0  0
  2 17  1  0  0  0  0
  3 18  1  0  0  0  0
  3  1  2  0  0  0  0
  4 10  1  0  0  0  0
  4  2  1  0  0  0  0
  5 11  1  0  0  0  0
  5 31  1  0  0  0  0
  6 19  1  0  0  0  0
  7 16  1  0  0  0  0
  9 11  1  0  0  0  0
  9  8  1  0  0  0  0
 10 12  1  0  0  0  0
 12 17  1  0  0  0  0
 13 10  1  0  0  0  0
 14  7  1  0  0  0  0
 15  1  1  0  0  0  0
 15 14  1  0  0  0  0
 16 20  1  0  0  0  0
 16  9  1  0  0  0  0
 17  5  1  0  0  0  0
 18 13  2  0  0  0  0
 19  8  1  0  0  0  0
 20  6  1  0  0  0  0
 21 27  1  0  0  0  0
 22 21  1  0  0  0  0
 23 21  1  0  0  0  0
 23 26  1  0  0  0  0
 24 15  1  0  0  0  0
 25 22  1  0  0  0  0
 25 21  1  0  0  0  0
 26 24  1  0  0  0  0
 27 24  1  0  0  0  0
 28 27  1  0  0  0  0
 30 29  2  0  0  0  0
 30 23  1  0  0  0  0
 31 32  1  0  0  0  0
M  END
>  <MODEL>
4

>  <REMARK>
 VINA RESULT:      -7.5      2.417      3.741
  Name = 
  3 active torsions:
  status: ('A' for Active; 'I' for Inactive)
    1  A    between atoms: C_6  and  C_13
    2  A    between atoms: C_15  and  C_26
    3  A    between atoms: N_16  and  C_27
                            x       y       z     vdW  Elec       q    Type
                         _______ _______ _______ _____ _____    ______ ____

>  <TORSDO>
F 3

$$$$
=
 OpenBabel10272402113D

 32 38  0  0  1  0  0  0  0  0999 V2000
  188.6010  177.8510  140.1110 C   0  0  0  0  0  0  0  0  0  0  0  0
  186.1820  178.0450  139.7970 C   0  0  1  0  0  3  0  0  0  0  0  0
  189.2460  176.7610  139.6760 C   0  0  0  0  0  3  0  0  0  0  0  0
  187.5350  178.4880  139.2820 C   0  0  2  0  0  3  0  0  0  0  0  0
  183.8670  177.7610  138.7320 C   0  0  2  0  0  3  0  0  0  0  0  0
  183.2420  179.0340  143.8730 C   0  0  0  0  0  2  0  0  0  0  0  0
  186.0250  178.6260  141.2320 C   0  0  2  0  0  3  0  0  0  0  0  0
  182.1890  178.4140  141.9890 C   0  0  0  0  0  2  0  0  0  0  0  0
  183.4320  178.4880  141.0980 C   0  0  2  0  0  3  0  0  0  0  0  0
  187.6350  178.2310  137.7880 C   0  0  2  0  0  3  0  0  0  0  0  0
  183.3600  177.3450  140.1060 C   0  0  0  0  0  2  0  0  0  0  0  0
  185.9650  178.4060  137.1020 S   0  0  0  0  0  0  0  0  0  0  0  0
  188.2210  176.8840  137.4550 C   0  0  0  0  0  3  0  0  0  0  0  0
  187.1620  178.0870  142.1380 C   0  0  0  0  0  2  0  0  0  0  0  0
  188.5790  178.2840  141.5480 C   0  0  1  0  0  3  0  0  0  0  0  0
  184.6970  178.3260  141.9560 C   0  0  2  0  0  3  0  0  0  0  0  0
  185.1830  178.5510  138.7560 C   0  0  2  0  0  3  0  0  0  0  0  0
  189.0050  176.2340  138.3200 C   0  0  0  0  0  3  0  0  0  0  0  0
  182.2340  179.4140  142.9730 O   0  0  0  0  0  0  0  0  0  0  0  0
  184.6060  179.2050  143.2110 C   0  0  0  0  0  2  0  0  0  0  0  0
  189.4780  177.3530  144.6770 C   0  0  1  0  0  0  0  0  0  0  0  0
  188.4170  177.4020  145.6940 C   0  0  0  0  0  2  0  0  0  0  0  0
  190.3930  178.5250  144.5660 C   0  0  2  0  0  3  0  0  0  0  0  0
  189.6630  177.7010  142.3600 N   0  0  1  0  0  0  0  0  0  0  0  0
  189.5340  176.5380  145.8200 O   0  0  0  0  0  0  0  0  0  0  0  0
  190.3360  178.8080  143.0670 C   0  0  0  0  0  2  0  0  0  0  0  0
  189.1500  176.7430  143.3500 C   0  0  1  0  0  3  0  0  0  0  0  0
  189.8690  175.4150  143.1820 C   0  0  0  0  0  1  0  0  0  0  0  0
  191.9820  177.2810  145.7920 O   0  0  0  0  0  0  0  0  0  0  0  0
  191.7880  178.1420  144.9480 C   0  0  0  0  0  3  0  0  0  0  0  0
  182.7810  178.5510  138.0150 C   0  0  0  0  0  2  0  0  0  0  0  0
  182.1540  177.7050  136.9250 C   0  0  0  0  0  1  0  0  0  0  0  0
  1 15  1  0  0  0  0
  2  7  1  0  0  0  0
  3  1  2  0  0  0  0
  4  2  1  0  0  0  0
  4  1  1  0  0  0  0
  5 17  1  0  0  0  0
  5 11  1  0  0  0  0
  7 16  1  0  0  0  0
  7 14  1  0  0  0  0
  8 19  1  0  0  0  0
  9 16  1  0  0  0  0
  9  8  1  0  0  0  0
 10  4  1  0  0  0  0
 11  9  1  0  0  0  0
 12 10  1  0  0  0  0
 12 17  1  0  0  0  0
 13 10  1  0  0  0  0
 13 18  2  0  0  0  0
 15 14  1  0  0  0  0
 15 24  1  0  0  0  0
 16 20  1  0  0  0  0
 17  2  1  0  0  0  0
 18  3  1  0  0  0  0
 19  6  1  0  0  0  0
 20  6  1  0  0  0  0
 21 22  1  0  0  0  0
 21 25  1  0  0  0  0
 22 25  1  0  0  0  0
 23 21  1  0  0  0  0
 23 30  1  0  0  0  0
 24 26  1  0  0  0  0
 24 27  1  0  0  0  0
 26 23  1  0  0  0  0
 27 21  1  0  0  0  0
 28 27  1  0  0  0  0
 30 29  2  0  0  0  0
 31  5  1  0  0  0  0
 32 31  1  0  0  0  0
M  END
>  <MODEL>
5

>  <REMARK>
 VINA RESULT:      -7.3      3.164      6.003
  Name = 
  3 active torsions:
  status: ('A' for Active; 'I' for Inactive)
    1  A    between atoms: C_6  and  C_13
    2  A    between atoms: C_15  and  C_26
    3  A    between atoms: N_16  and  C_27
                            x       y       z     vdW  Elec       q    Type
                         _______ _______ _______ _____ _____    ______ ____

>  <TORSDO>
F 3

$$$$
=
 OpenBabel10272402113D

 32 38  0  0  1  0  0  0  0  0999 V2000
  184.1810  179.2140  141.7840 C   0  0  0  0  0  0  0  0  0  0  0  0
  186.0800  178.3510  143.0630 C   0  0  1  0  0  3  0  0  0  0  0  0
  182.9700  178.6620  141.9310 C   0  0  0  0  0  3  0  0  0  0  0  0
  185.0560  179.4620  142.9680 C   0  0  2  0  0  3  0  0  0  0  0  0
  187.3950  177.2880  144.9900 C   0  0  2  0  0  3  0  0  0  0  0  0
  190.3210  176.9710  140.5430 C   0  0  0  0  0  2  0  0  0  0  0  0
  186.9970  178.4650  141.8100 C   0  0  2  0  0  3  0  0  0  0  0  0
  190.1830  176.3720  142.7030 C   0  0  0  0  0  2  0  0  0  0  0  0
  188.9290  177.1970  143.0020 C   0  0  2  0  0  3  0  0  0  0  0  0
  184.3270  179.6140  144.2920 C   0  0  2  0  0  3  0  0  0  0  0  0
  188.0640  176.3960  143.9530 C   0  0  0  0  0  2  0  0  0  0  0  0
  185.4950  179.1580  145.6020 S   0  0  0  0  0  0  0  0  0  0  0  0
  183.0680  178.7910  144.3760 C   0  0  0  0  0  3  0  0  0  0  0  0
  186.1420  178.3170  140.5260 C   0  0  0  0  0  2  0  0  0  0  0  0
  184.9170  179.2610  140.4760 C   0  0  1  0  0  3  0  0  0  0  0  0
  188.1470  177.4440  141.7020 C   0  0  2  0  0  3  0  0  0  0  0  0
  186.7620  178.5630  144.4150 C   0  0  2  0  0  3  0  0  0  0  0  0
  182.4220  178.3960  143.2750 C   0  0  0  0  0  3  0  0  0  0  0  0
  190.9960  177.0390  141.7720 O   0  0  0  0  0  0  0  0  0  0  0  0
  189.0990  177.8850  140.5820 C   0  0  0  0  0  2  0  0  0  0  0  0
  182.8960  177.0680  138.8730 C   0  0  1  0  0  0  0  0  0  0  0  0
  182.6070  175.8170  139.5890 C   0  0  0  0  0  2  0  0  0  0  0  0
  184.0030  177.0610  137.8730 C   0  0  2  0  0  3  0  0  0  0  0  0
  184.0490  179.0710  139.3000 N   0  0  1  0  0  0  0  0  0  0  0  0
  181.7230  176.3400  138.6120 O   0  0  0  0  0  0  0  0  0  0  0  0
  184.8080  178.2820  138.3090 C   0  0  0  0  0  2  0  0  0  0  0  0
  182.8150  178.3500  139.6410 C   0  0  1  0  0  3  0  0  0  0  0  0
  181.6160  179.1670  139.1880 C   0  0  0  0  0  1  0  0  0  0  0  0
  184.0120  176.7680  135.5310 O   0  0  0  0  0  0  0  0  0  0  0  0
  183.4670  177.2820  136.4940 C   0  0  0  0  0  3  0  0  0  0  0  0
  188.4020  177.6350  146.0780 C   0  0  0  0  0  2  0  0  0  0  0  0
  187.9230  177.1110  147.4180 C   0  0  0  0  0  1  0  0  0  0  0  0
  1  3  2  0  0  0  0
  1  4  1  0  0  0  0
  2 17  1  0  0  0  0
  3 18  1  0  0  0  0
  4  2  1  0  0  0  0
  4 10  1  0  0  0  0
  5 31  1  0  0  0  0
  6 20  1  0  0  0  0
  6 19  1  0  0  0  0
  7  2  1  0  0  0  0
  8  9  1  0  0  0  0
  9 11  1  0  0  0  0
 10 13  1  0  0  0  0
 10 12  1  0  0  0  0
 11  5  1  0  0  0  0
 14  7  1  0  0  0  0
 15 14  1  0  0  0  0
 15  1  1  0  0  0  0
 16  7  1  0  0  0  0
 16  9  1  0  0  0  0
 17  5  1  0  0  0  0
 17 12  1  0  0  0  0
 18 13  2  0  0  0  0
 19  8  1  0  0  0  0
 20 16  1  0  0  0  0
 21 22  1  0  0  0  0
 21 27  1  0  0  0  0
 23 26  1  0  0  0  0
 23 21  1  0  0  0  0
 24 27  1  0  0  0  0
 24 15  1  0  0  0  0
 25 21  1  0  0  0  0
 25 22  1  0  0  0  0
 26 24  1  0  0  0  0
 28 27  1  0  0  0  0
 29 30  2  0  0  0  0
 30 23  1  0  0  0  0
 31 32  1  0  0  0  0
M  END
>  <MODEL>
6

>  <REMARK>
 VINA RESULT:      -7.2      2.634      5.909
  Name = 
  3 active torsions:
  status: ('A' for Active; 'I' for Inactive)
    1  A    between atoms: C_6  and  C_13
    2  A    between atoms: C_15  and  C_26
    3  A    between atoms: N_16  and  C_27
                            x       y       z     vdW  Elec       q    Type
                         _______ _______ _______ _____ _____    ______ ____

>  <TORSDO>
F 3

$$$$
=
 OpenBabel10272402113D

 32 38  0  0  1  0  0  0  0  0999 V2000
  187.1350  177.3110  137.6920 C   0  0  0  0  0  0  0  0  0  0  0  0
  186.8490  177.8330  140.0650 C   0  0  1  0  0  3  0  0  0  0  0  0
  186.3320  176.4150  137.1030 C   0  0  0  0  0  3  0  0  0  0  0  0
  186.5850  178.3110  138.6530 C   0  0  2  0  0  3  0  0  0  0  0  0
  185.6900  178.1920  142.3250 C   0  0  2  0  0  3  0  0  0  0  0  0
  190.9040  177.4590  143.1730 C   0  0  0  0  0  2  0  0  0  0  0  0
  188.3920  177.8340  140.2680 C   0  0  2  0  0  3  0  0  0  0  0  0
  188.8970  177.7050  144.1490 C   0  0  0  0  0  2  0  0  0  0  0  0
  188.1400  177.9990  142.8510 C   0  0  2  0  0  3  0  0  0  0  0  0
  185.1110  178.6360  138.4800 C   0  0  2  0  0  3  0  0  0  0  0  0
  186.7830  177.3320  142.9460 C   0  0  0  0  0  2  0  0  0  0  0  0
  184.4970  179.2130  140.0860 S   0  0  0  0  0  0  0  0  0  0  0  0
  184.3010  177.4700  137.9760 C   0  0  0  0  0  3  0  0  0  0  0  0
  189.0530  176.8870  139.2330 C   0  0  0  0  0  2  0  0  0  0  0  0
  188.6270  177.1630  137.7710 C   0  0  1  0  0  3  0  0  0  0  0  0
  188.9060  177.4050  141.6580 C   0  0  2  0  0  3  0  0  0  0  0  0
  186.0550  178.7880  140.9570 C   0  0  2  0  0  3  0  0  0  0  0  0
  184.8710  176.4700  137.2980 C   0  0  0  0  0  3  0  0  0  0  0  0
  190.1920  178.2450  144.0920 O   0  0  0  0  0  0  0  0  0  0  0  0
  190.4000  177.7430  141.7610 C   0  0  0  0  0  2  0  0  0  0  0  0
  191.3150  175.2540  137.0020 C   0  0  1  0  0  0  0  0  0  0  0  0
  192.3620  175.1700  138.0320 C   0  0  0  0  0  2  0  0  0  0  0  0
  191.4870  176.2580  135.9120 C   0  0  2  0  0  3  0  0  0  0  0  0
  189.1820  176.2160  136.7870 N   0  0  1  0  0  0  0  0  0  0  0  0
  192.1800  174.1490  137.0650 O   0  0  0  0  0  0  0  0  0  0  0  0
  190.1330  176.9610  135.9380 C   0  0  0  0  0  2  0  0  0  0  0  0
  189.8910  175.1040  137.4360 C   0  0  1  0  0  3  0  0  0  0  0  0
  189.3180  173.7870  136.9400 C   0  0  0  0  0  1  0  0  0  0  0  0
  191.0830  174.5330  134.3510 O   0  0  0  0  0  0  0  0  0  0  0  0
  191.6690  175.5760  134.5930 C   0  0  0  0  0  3  0  0  0  0  0  0
  185.3020  179.2930  143.3010 C   0  0  0  0  0  2  0  0  0  0  0  0
  184.2380  178.7900  144.2570 C   0  0  0  0  0  1  0  0  0  0  0  0
  1 15  1  0  0  0  0
  1  4  1  0  0  0  0
  2  7  1  0  0  0  0
  2 17  1  0  0  0  0
  3 18  1  0  0  0  0
  3  1  2  0  0  0  0
  4  2  1  0  0  0  0
  5 11  1  0  0  0  0
  5 31  1  0  0  0  0
  6 19  1  0  0  0  0
  7 16  1  0  0  0  0
  9 11  1  0  0  0  0
  9  8  1  0  0  0  0
 10  4  1  0  0  0  0
 10 12  1  0  0  0  0
 12 17  1  0  0  0  0
 13 10  1  0  0  0  0
 14  7  1  0  0  0  0
 15 14  1  0  0  0  0
 16 20  1  0  0  0  0
 16  9  1  0  0  0  0
 17  5  1  0  0  0  0
 18 13  2  0  0  0  0
 19  8  1  0  0  0  0
 20  6  1  0  0  0  0
 21 25  1  0  0  0  0
 21 27  1  0  0  0  0
 21 22  1  0  0  0  0
 23 26  1  0  0  0  0
 23 21  1  0  0  0  0
 24 27  1  0  0  0  0
 24 15  1  0  0  0  0
 25 22  1  0  0  0  0
 26 24  1  0  0  0  0
 28 27  1  0  0  0  0
 29 30  2  0  0  0  0
 30 23  1  0  0  0  0
 31 32  1  0  0  0  0
M  END
>  <MODEL>
7

>  <REMARK>
 VINA RESULT:      -7.0      2.639      5.204
  Name = 
  3 active torsions:
  status: ('A' for Active; 'I' for Inactive)
    1  A    between atoms: C_6  and  C_13
    2  A    between atoms: C_15  and  C_26
    3  A    between atoms: N_16  and  C_27
                            x       y       z     vdW  Elec       q    Type
                         _______ _______ _______ _____ _____    ______ ____

>  <TORSDO>
F 3

$$$$
=
 OpenBabel10272402113D

 32 38  0  0  1  0  0  0  0  0999 V2000
  190.0470  177.3550  139.3640 C   0  0  0  0  0  0  0  0  0  0  0  0
  187.9690  177.4740  138.0770 C   0  0  1  0  0  3  0  0  0  0  0  0
  190.7520  176.2170  139.3910 C   0  0  0  0  0  3  0  0  0  0  0  0
  189.4370  177.8450  138.0930 C   0  0  2  0  0  3  0  0  0  0  0  0
  186.2600  177.0050  136.2240 C   0  0  2  0  0  3  0  0  0  0  0  0
  183.7030  179.0550  140.4300 C   0  0  0  0  0  2  0  0  0  0  0  0
  187.2830  178.2690  139.2260 C   0  0  2  0  0  3  0  0  0  0  0  0
  183.4590  178.1390  138.3950 C   0  0  0  0  0  2  0  0  0  0  0  0
  184.9560  178.0870  138.0800 C   0  0  2  0  0  3  0  0  0  0  0  0
  190.1110  177.3600  136.8210 C   0  0  2  0  0  3  0  0  0  0  0  0
  185.2250  176.8020  137.3220 C   0  0  0  0  0  2  0  0  0  0  0  0
  188.8660  177.4100  135.5020 S   0  0  0  0  0  0  0  0  0  0  0  0
  190.7080  175.9830  136.9530 C   0  0  0  0  0  3  0  0  0  0  0  0
  187.9320  177.8890  140.5810 C   0  0  0  0  0  2  0  0  0  0  0  0
  189.4750  178.0060  140.5900 C   0  0  1  0  0  3  0  0  0  0  0  0
  185.7620  178.0730  139.3880 C   0  0  2  0  0  3  0  0  0  0  0  0
  187.4980  177.8020  136.6600 C   0  0  2  0  0  3  0  0  0  0  0  0
  191.0450  175.4840  138.1450 C   0  0  0  0  0  3  0  0  0  0  0  0
  183.1600  179.2810  139.1560 O   0  0  0  0  0  0  0  0  0  0  0  0
  185.2250  179.1350  140.3570 C   0  0  0  0  0  2  0  0  0  0  0  0
  188.9770  177.5160  143.9040 C   0  0  1  0  0  0  0  0  0  0  0  0
  187.5920  177.6640  144.3760 C   0  0  0  0  0  2  0  0  0  0  0  0
  189.8860  178.6920  144.0280 C   0  0  2  0  0  3  0  0  0  0  0  0
  190.1110  177.5660  141.8460 N   0  0  1  0  0  0  0  0  0  0  0  0
  188.5350  176.8590  145.0640 O   0  0  0  0  0  0  0  0  0  0  0  0
  190.4610  178.7760  142.6170 C   0  0  0  0  0  2  0  0  0  0  0  0
  189.2110  176.7290  142.6520 C   0  0  1  0  0  3  0  0  0  0  0  0
  189.9010  175.4130  142.9710 C   0  0  0  0  0  1  0  0  0  0  0  0
  191.9820  177.7930  144.6400 O   0  0  0  0  0  0  0  0  0  0  0  0
  190.9880  178.4040  144.9990 C   0  0  0  0  0  3  0  0  0  0  0  0
  185.5950  177.6630  135.0230 C   0  0  0  0  0  2  0  0  0  0  0  0
  184.3570  176.8870  134.6210 C   0  0  0  0  0  1  0  0  0  0  0  0
  1  3  2  0  0  0  0
  1 15  1  0  0  0  0
  2  4  1  0  0  0  0
  2  7  1  0  0  0  0
  4  1  1  0  0  0  0
  5 17  1  0  0  0  0
  5 11  1  0  0  0  0
  7 16  1  0  0  0  0
  7 14  1  0  0  0  0
  8 19  1  0  0  0  0
  9  8  1  0  0  0  0
  9 16  1  0  0  0  0
 10 13  1  0  0  0  0
 10  4  1  0  0  0  0
 11  9  1  0  0  0  0
 12 17  1  0  0  0  0
 12 10  1  0  0  0  0
 13 18  2  0  0  0  0
 14 15  1  0  0  0  0
 15 24  1  0  0  0  0
 16 20  1  0  0  0  0
 17  2  1  0  0  0  0
 18  3  1  0  0  0  0
 19  6  1  0  0  0  0
 20  6  1  0  0  0  0
 21 23  1  0  0  0  0
 21 22  1  0  0  0  0
 21 25  1  0  0  0  0
 22 25  1  0  0  0  0
 23 30  1  0  0  0  0
 24 26  1  0  0  0  0
 24 27  1  0  0  0  0
 26 23  1  0  0  0  0
 27 28  1  0  0  0  0
 27 21  1  0  0  0  0
 29 30  2  0  0  0  0
 31  5  1  0  0  0  0
 32 31  1  0  0  0  0
M  END
>  <MODEL>
8

>  <REMARK>
 VINA RESULT:      -6.9      3.224      6.618
  Name = 
  3 active torsions:
  status: ('A' for Active; 'I' for Inactive)
    1  A    between atoms: C_6  and  C_13
    2  A    between atoms: C_15  and  C_26
    3  A    between atoms: N_16  and  C_27
                            x       y       z     vdW  Elec       q    Type
                         _______ _______ _______ _____ _____    ______ ____

>  <TORSDO>
F 3

$$$$
=
 OpenBabel10272402113D

 32 38  0  0  1  0  0  0  0  0999 V2000
  186.1360  178.3270  143.8170 C   0  0  0  0  0  0  0  0  0  0  0  0
  185.3700  178.5280  141.5020 C   0  0  1  0  0  3  0  0  0  0  0  0
  185.9410  179.3350  144.6760 C   0  0  0  0  0  3  0  0  0  0  0  0
  185.0670  177.9240  142.8570 C   0  0  2  0  0  3  0  0  0  0  0  0
  183.9370  179.2410  139.4980 C   0  0  2  0  0  3  0  0  0  0  0  0
  188.7200  177.6940  137.7180 C   0  0  0  0  0  2  0  0  0  0  0  0
  186.6850  177.8710  140.9910 C   0  0  2  0  0  3  0  0  0  0  0  0
  186.7500  178.6070  137.1460 C   0  0  0  0  0  2  0  0  0  0  0  0
  186.0970  178.4120  138.5170 C   0  0  2  0  0  3  0  0  0  0  0  0
  183.6500  178.2750  143.2790 C   0  0  2  0  0  3  0  0  0  0  0  0
  185.2320  179.6250  138.7950 C   0  0  0  0  0  2  0  0  0  0  0  0
  182.6570  178.4080  141.7670 S   0  0  0  0  0  0  0  0  0  0  0  0
  183.5690  179.5380  144.0950 C   0  0  0  0  0  3  0  0  0  0  0  0
  187.8330  178.1610  141.9920 C   0  0  0  0  0  2  0  0  0  0  0  0
  187.4930  177.7950  143.4570 C   0  0  1  0  0  3  0  0  0  0  0  0
  187.1820  178.3140  139.6000 C   0  0  2  0  0  3  0  0  0  0  0  0
  184.1180  178.2600  140.6660 C   0  0  2  0  0  3  0  0  0  0  0  0
  184.6240  179.9940  144.7770 C   0  0  0  0  0  3  0  0  0  0  0  0
  187.6170  177.5400  136.8620 O   0  0  0  0  0  0  0  0  0  0  0  0
  188.3030  177.3670  139.1490 C   0  0  0  0  0  2  0  0  0  0  0  0
  190.5360  176.9170  144.6550 C   0  0  1  0  0  0  0  0  0  0  0  0
  191.2320  175.8460  143.9240 C   0  0  0  0  0  2  0  0  0  0  0  0
  189.7480  176.5380  145.8640 C   0  0  2  0  0  3  0  0  0  0  0  0
  188.5440  178.1430  144.4300 N   0  0  1  0  0  0  0  0  0  0  0  0
  191.9370  176.8140  144.6830 O   0  0  0  0  0  0  0  0  0  0  0  0
  188.4140  177.2210  145.5770 C   0  0  0  0  0  2  0  0  0  0  0  0
  189.8900  178.0050  143.8560 C   0  0  1  0  0  3  0  0  0  0  0  0
  190.6450  179.3130  144.0290 C   0  0  0  0  0  1  0  0  0  0  0  0
  189.6530  177.6710  147.9330 O   0  0  0  0  0  0  0  0  0  0  0  0
  190.3570  177.1310  147.0950 C   0  0  0  0  0  3  0  0  0  0  0  0
  182.9570  178.6820  138.4770 C   0  0  0  0  0  2  0  0  0  0  0  0
  181.8600  179.6910  138.2000 C   0  0  0  0  0  1  0  0  0  0  0  0
  1  3  2  0  0  0  0
  2  4  1  0  0  0  0
  3 18  1  0  0  0  0
  4 10  1  0  0  0  0
  4  1  1  0  0  0  0
  5 17  1  0  0  0  0
  6 20  1  0  0  0  0
  7  2  1  0  0  0  0
  7 14  1  0  0  0  0
  8  9  1  0  0  0  0
  9 11  1  0  0  0  0
  9 16  1  0  0  0  0
 10 13  1  0  0  0  0
 11  5  1  0  0  0  0
 12 10  1  0  0  0  0
 13 18  2  0  0  0  0
 14 15  1  0  0  0  0
 15  1  1  0  0  0  0
 15 24  1  0  0  0  0
 16  7  1  0  0  0  0
 17  2  1  0  0  0  0
 17 12  1  0  0  0  0
 19  8  1  0  0  0  0
 19  6  1  0  0  0  0
 20 16  1  0  0  0  0
 21 25  1  0  0  0  0
 21 23  1  0  0  0  0
 22 21  1  0  0  0  0
 22 25  1  0  0  0  0
 23 30  1  0  0  0  0
 24 26  1  0  0  0  0
 26 23  1  0  0  0  0
 27 28  1  0  0  0  0
 27 24  1  0  0  0  0
 27 21  1  0  0  0  0
 30 29  2  0  0  0  0
 31  5  1  0  0  0  0
 32 31  1  0  0  0  0
M  END
>  <MODEL>
9

>  <REMARK>
 VINA RESULT:      -6.8      2.983      6.520
  Name = 
  3 active torsions:
  status: ('A' for Active; 'I' for Inactive)
    1  A    between atoms: C_6  and  C_13
    2  A    between atoms: C_15  and  C_26
    3  A    between atoms: N_16  and  C_27
                            x       y       z     vdW  Elec       q    Type
                         _______ _______ _______ _____ _____    ______ ____

>  <TORSDO>
F 3

$$$$
