=
 OpenBabel10272413493D

 30 35  0  0  1  0  0  0  0  0999 V2000
  190.1010  176.9310  138.1460 C   0  0  2  0  0  3  0  0  0  0  0  0
  188.1370  178.1240  137.1280 C   0  0  0  0  0  0  0  0  0  0  0  0
  188.9880  173.2740  136.0080 C   0  0  0  0  0  2  0  0  0  0  0  0
  191.1200  175.9140  137.5650 C   0  0  1  0  0  3  0  0  0  0  0  0
  190.1410  176.9550  139.6650 C   0  0  0  0  0  2  0  0  0  0  0  0
  193.7640  177.3970  139.5570 O   0  0  0  0  0  0  0  0  0  0  0  0
  193.6020  174.1770  136.9050 N   0  0  0  0  0  0  0  0  0  0  0  0
  192.6420  176.9510  139.3640 C   0  0  0  0  0  0  0  0  0  0  0  0
  192.5020  173.2150  136.9360 C   0  0  2  0  0  3  0  0  0  0  0  0
  190.4030  172.7690  135.8230 C   0  0  1  0  0  3  0  0  0  0  0  0
  191.4750  177.5290  140.1340 C   0  0  2  0  0  3  0  0  0  0  0  0
  192.4280  175.8150  138.3830 C   0  0  2  0  0  3  0  0  0  0  0  0
  187.4920  178.2110  135.8530 N   0  0  0  0  0  0  0  0  0  0  0  0
  193.0140  172.1240  136.1760 O   0  0  0  0  0  0  0  0  0  0  0  0
  194.6760  173.5860  136.1850 C   0  0  0  0  0  3  0  0  0  0  0  0
  188.2250  179.1540  137.8470 O   0  0  0  0  0  0  0  0  0  0  0  0
  189.0850  174.3610  137.0580 C   0  0  1  0  0  3  0  0  0  0  0  0
  187.3630  177.1800  135.0740 C   0  0  0  0  0  3  0  0  0  0  0  0
  188.6560  176.8040  137.6370 C   0  0  1  0  0  3  0  0  0  0  0  0
  190.5750  174.4860  137.3670 C   0  0  1  0  0  3  0  0  0  0  0  0
  190.6440  172.5150  134.3460 C   0  0  0  0  0  1  0  0  0  0  0  0
  191.3140  173.8060  136.3080 N   0  0  1  0  0  0  0  0  0  0  0  0
  194.3140  172.3890  135.7630 C   0  0  0  0  0  3  0  0  0  0  0  0
  193.8550  176.5720  136.4320 C   0  0  0  0  0  1  0  0  0  0  0  0
  187.8880  175.8640  135.4650 C   0  0  0  0  0  3  0  0  0  0  0  0
  188.4990  175.6820  136.6440 C   0  0  0  0  0  0  0  0  0  0  0  0
  193.6560  175.5110  137.5070 C   0  0  2  0  0  3  0  0  0  0  0  0
  191.6230  177.2760  141.6260 C   0  0  0  0  0  2  0  0  0  0  0  0
  190.8940  176.2280  143.4240 C   0  0  0  0  0  1  0  0  0  0  0  0
  190.6210  176.4140  142.0700 O   0  0  0  0  0  0  0  0  0  0  0  0
  1  5  1  1  0  0  0
  2 19  1  0  0  0  0
  2 16  2  0  0  0  0
  3 17  1  0  0  0  0
  4  1  1  0  0  0  0
  4 12  1  0  0  0  0
  5 11  1  0  0  0  0
  7  9  1  0  0  0  0
  7 27  1  0  0  0  0
  8  6  2  0  0  0  0
  8 11  1  0  0  0  0
 10  3  1  0  0  0  0
 10 22  1  0  0  0  0
 11 28  1  0  0  0  0
 12  8  1  0  0  0  0
 13  2  1  0  0  0  0
 14  9  1  0  0  0  0
 15  7  1  0  0  0  0
 17 20  1  0  0  0  0
 18 25  1  0  0  0  0
 18 13  2  0  0  0  0
 19  1  1  0  0  0  0
 20  4  1  0  0  0  0
 21 10  1  0  0  0  0
 22  9  1  0  0  0  0
 22 20  1  0  0  0  0
 23 14  1  0  0  0  0
 23 15  2  0  0  0  0
 24 27  1  0  0  0  0
 25 26  2  0  0  0  0
 26 17  1  0  0  0  0
 26 19  1  0  0  0  0
 27 12  1  0  0  0  0
 28 30  1  0  0  0  0
 30 29  1  0  0  0  0
M  END
>  <MODEL>
1

>  <REMARK>
 VINA RESULT:      -6.1      0.000      0.000
  Name = 
  2 active torsions:
  status: ('A' for Active; 'I' for Inactive)
    1  A    between atoms: C_9  and  C_12
    2  A    between atoms: C_9  and  O_21
                            x       y       z     vdW  Elec       q    Type
                         _______ _______ _______ _____ _____    ______ ____

>  <TORSDO>
F 2

$$$$
=
 OpenBabel10272413493D

 30 35  0  0  1  0  0  0  0  0999 V2000
  184.6620  178.4720  139.7720 C   0  0  2  0  0  3  0  0  0  0  0  0
  185.4810  178.7140  142.1360 C   0  0  0  0  0  0  0  0  0  0  0  0
  188.7820  177.8950  138.4020 C   0  0  0  0  0  2  0  0  0  0  0  0
  185.0730  177.5210  138.6160 C   0  0  1  0  0  3  0  0  0  0  0  0
  183.8360  179.6440  139.2630 C   0  0  0  0  0  2  0  0  0  0  0  0
  181.6180  177.3180  137.5290 O   0  0  0  0  0  0  0  0  0  0  0  0
  185.1970  175.7090  136.1030 N   0  0  0  0  0  0  0  0  0  0  0  0
  182.6260  177.8970  137.9110 C   0  0  0  0  0  0  0  0  0  0  0  0
  186.4150  176.5130  136.0140 C   0  0  2  0  0  3  0  0  0  0  0  0
  188.4340  176.9560  137.2660 C   0  0  1  0  0  3  0  0  0  0  0  0
  182.4860  179.1390  138.7620 C   0  0  2  0  0  3  0  0  0  0  0  0
  183.9980  177.3880  137.5130 C   0  0  2  0  0  3  0  0  0  0  0  0
  186.4390  178.0870  142.9960 N   0  0  0  0  0  0  0  0  0  0  0  0
  187.2450  175.7350  135.1570 O   0  0  0  0  0  0  0  0  0  0  0  0
  185.3700  174.5640  135.2790 C   0  0  0  0  0  3  0  0  0  0  0  0
  184.3840  179.1050  142.6130 O   0  0  0  0  0  0  0  0  0  0  0  0
  187.4710  178.5350  138.8070 C   0  0  1  0  0  3  0  0  0  0  0  0
  187.5900  177.6740  142.5610 C   0  0  0  0  0  3  0  0  0  0  0  0
  185.8000  178.9590  140.6820 C   0  0  1  0  0  3  0  0  0  0  0  0
  186.4120  177.8640  137.9340 C   0  0  1  0  0  3  0  0  0  0  0  0
  189.2350  175.6760  137.4270 C   0  0  0  0  0  1  0  0  0  0  0  0
  187.0030  176.6640  137.3500 N   0  0  1  0  0  0  0  0  0  0  0  0
  186.5740  174.5930  134.7370 C   0  0  0  0  0  3  0  0  0  0  0  0
  183.7310  174.8980  137.8960 C   0  0  0  0  0  1  0  0  0  0  0  0
  187.9640  177.8230  141.1470 C   0  0  0  0  0  3  0  0  0  0  0  0
  187.1380  178.4050  140.2670 C   0  0  0  0  0  0  0  0  0  0  0  0
  183.9790  175.9920  136.8650 C   0  0  2  0  0  3  0  0  0  0  0  0
  181.7970  180.2560  137.9940 C   0  0  0  0  0  2  0  0  0  0  0  0
  181.1810  182.3720  138.0680 C   0  0  0  0  0  1  0  0  0  0  0  0
  182.1720  181.4970  138.5090 O   0  0  0  0  0  0  0  0  0  0  0  0
  1  5  1  6  0  0  0
  1 19  1  0  0  0  0
  2 16  2  0  0  0  0
  2 13  1  0  0  0  0
  3 17  1  0  0  0  0
  4  1  1  0  0  0  0
  6  8  2  0  0  0  0
  7 27  1  0  0  0  0
  8 11  1  0  0  0  0
  9  7  1  0  0  0  0
  9 22  1  0  0  0  0
 10 22  1  0  0  0  0
 10 21  1  0  0  0  0
 10  3  1  0  0  0  0
 11  5  1  0  0  0  0
 12  8  1  0  0  0  0
 12  4  1  0  0  0  0
 14  9  1  0  0  0  0
 15  7  1  0  0  0  0
 17 26  1  0  0  0  0
 18 13  2  0  0  0  0
 19  2  1  0  0  0  0
 20  4  1  0  0  0  0
 20 17  1  0  0  0  0
 22 20  1  0  0  0  0
 23 14  1  0  0  0  0
 23 15  2  0  0  0  0
 25 18  1  0  0  0  0
 26 19  1  0  0  0  0
 26 25  2  0  0  0  0
 27 12  1  0  0  0  0
 27 24  1  0  0  0  0
 28 30  1  0  0  0  0
 28 11  1  0  0  0  0
 29 30  1  0  0  0  0
M  END
>  <MODEL>
2

>  <REMARK>
 VINA RESULT:      -5.8      4.530      7.880
  Name = 
  2 active torsions:
  status: ('A' for Active; 'I' for Inactive)
    1  A    between atoms: C_9  and  C_12
    2  A    between atoms: C_9  and  O_21
                            x       y       z     vdW  Elec       q    Type
                         _______ _______ _______ _____ _____    ______ ____

>  <TORSDO>
F 2

$$$$
=
 OpenBabel10272413493D

 30 35  0  0  1  0  0  0  0  0999 V2000
  188.8030  177.6090  146.5120 C   0  0  2  0  0  3  0  0  0  0  0  0
  187.1470  178.8080  147.9740 C   0  0  0  0  0  0  0  0  0  0  0  0
  185.8030  177.3400  143.3310 C   0  0  0  0  0  2  0  0  0  0  0  0
  189.1250  177.7110  144.9960 C   0  0  1  0  0  3  0  0  0  0  0  0
  189.3940  176.3490  147.1230 C   0  0  0  0  0  2  0  0  0  0  0  0
  192.6460  177.1860  145.6890 O   0  0  0  0  0  0  0  0  0  0  0  0
  190.4360  177.7130  142.1870 N   0  0  0  0  0  0  0  0  0  0  0  0
  191.4510  176.9560  145.8010 C   0  0  0  0  0  0  0  0  0  0  0  0
  189.1630  177.0280  141.9760 C   0  0  2  0  0  3  0  0  0  0  0  0
  186.7880  177.4330  142.1860 C   0  0  1  0  0  3  0  0  0  0  0  0
  190.9170  176.4440  147.1210 C   0  0  2  0  0  3  0  0  0  0  0  0
  190.5190  177.1580  144.6220 C   0  0  2  0  0  3  0  0  0  0  0  0
  186.1580  179.8340  147.8360 N   0  0  0  0  0  0  0  0  0  0  0  0
  188.9540  177.1710  140.5740 O   0  0  0  0  0  0  0  0  0  0  0  0
  190.9030  178.1640  140.9220 C   0  0  0  0  0  3  0  0  0  0  0  0
  187.8390  178.7530  149.0240 O   0  0  0  0  0  0  0  0  0  0  0  0
  186.6420  177.0380  144.5560 C   0  0  1  0  0  3  0  0  0  0  0  0
  185.4090  179.9330  146.7800 C   0  0  0  0  0  3  0  0  0  0  0  0
  187.3240  177.7640  146.9000 C   0  0  1  0  0  3  0  0  0  0  0  0
  188.0880  177.0550  144.0640 C   0  0  1  0  0  3  0  0  0  0  0  0
  186.3760  178.5770  141.2770 C   0  0  0  0  0  1  0  0  0  0  0  0
  188.1100  177.6960  142.7530 N   0  0  1  0  0  0  0  0  0  0  0  0
  190.0230  177.8420  139.9920 C   0  0  0  0  0  3  0  0  0  0  0  0
  191.3120  179.3970  143.7430 C   0  0  0  0  0  1  0  0  0  0  0  0
  185.5500  178.9910  145.6600 C   0  0  0  0  0  3  0  0  0  0  0  0
  186.4410  177.9920  145.7000 C   0  0  0  0  0  0  0  0  0  0  0  0
  191.1620  177.9110  143.4440 C   0  0  2  0  0  3  0  0  0  0  0  0
  191.4970  175.0780  147.4540 C   0  0  0  0  0  2  0  0  0  0  0  0
  193.0250  175.7930  148.8750 C   0  0  0  0  0  1  0  0  0  0  0  0
  192.8770  175.1730  147.6350 O   0  0  0  0  0  0  0  0  0  0  0  0
  1 19  1  0  0  0  0
  1  5  1  6  0  0  0
  2 16  2  0  0  0  0
  3 17  1  0  0  0  0
  4  1  1  0  0  0  0
  6  8  2  0  0  0  0
  7 27  1  0  0  0  0
  8 11  1  0  0  0  0
  9  7  1  0  0  0  0
  9 22  1  0  0  0  0
 10 22  1  0  0  0  0
 10  3  1  0  0  0  0
 11  5  1  0  0  0  0
 11 28  1  0  0  0  0
 12  4  1  0  0  0  0
 12  8  1  0  0  0  0
 13  2  1  0  0  0  0
 14  9  1  0  0  0  0
 15  7  1  0  0  0  0
 17 26  1  0  0  0  0
 18 13  2  0  0  0  0
 19  2  1  0  0  0  0
 20 17  1  0  0  0  0
 20  4  1  0  0  0  0
 21 10  1  0  0  0  0
 22 20  1  0  0  0  0
 23 14  1  0  0  0  0
 23 15  2  0  0  0  0
 25 26  2  0  0  0  0
 25 18  1  0  0  0  0
 26 19  1  0  0  0  0
 27 24  1  0  0  0  0
 27 12  1  0  0  0  0
 28 30  1  0  0  0  0
 30 29  1  0  0  0  0
M  END
>  <MODEL>
3

>  <REMARK>
 VINA RESULT:      -5.8      5.128      8.510
  Name = 
  2 active torsions:
  status: ('A' for Active; 'I' for Inactive)
    1  A    between atoms: C_9  and  C_12
    2  A    between atoms: C_9  and  O_21
                            x       y       z     vdW  Elec       q    Type
                         _______ _______ _______ _____ _____    ______ ____

>  <TORSDO>
F 2

$$$$
=
 OpenBabel10272413493D

 30 35  0  0  1  0  0  0  0  0999 V2000
  188.9390  176.9530  139.9060 C   0  0  2  0  0  3  0  0  0  0  0  0
  189.0080  176.8480  142.4160 C   0  0  0  0  0  0  0  0  0  0  0  0
  193.3050  177.2880  139.7990 C   0  0  0  0  0  2  0  0  0  0  0  0
  189.8370  176.3210  138.8090 C   0  0  1  0  0  3  0  0  0  0  0  0
  188.0660  178.0630  139.3400 C   0  0  0  0  0  2  0  0  0  0  0  0
  186.9330  175.8140  136.6960 O   0  0  0  0  0  0  0  0  0  0  0  0
  191.0150  175.0780  136.2240 N   0  0  0  0  0  0  0  0  0  0  0  0
  187.6560  176.4520  137.4470 C   0  0  0  0  0  0  0  0  0  0  0  0
  192.0200  176.0580  136.6280 C   0  0  2  0  0  3  0  0  0  0  0  0
  193.4820  176.5480  138.4910 C   0  0  1  0  0  3  0  0  0  0  0  0
  187.0380  177.4670  138.3830 C   0  0  2  0  0  3  0  0  0  0  0  0
  189.1580  176.2450  137.4220 C   0  0  2  0  0  3  0  0  0  0  0  0
  189.7970  176.2170  143.4310 N   0  0  0  0  0  0  0  0  0  0  0  0
  193.1950  175.5990  135.9660 O   0  0  0  0  0  0  0  0  0  0  0  0
  191.6380  174.1560  135.3390 C   0  0  0  0  0  3  0  0  0  0  0  0
  187.7650  176.9660  142.5840 O   0  0  0  0  0  0  0  0  0  0  0  0
  191.8310  177.6290  139.8700 C   0  0  1  0  0  3  0  0  0  0  0  0
  191.0830  176.0770  143.3160 C   0  0  0  0  0  3  0  0  0  0  0  0
  189.6580  177.4190  141.1810 C   0  0  1  0  0  3  0  0  0  0  0  0
  191.2130  176.9900  138.6270 C   0  0  1  0  0  3  0  0  0  0  0  0
  194.4500  175.3990  138.7060 C   0  0  0  0  0  1  0  0  0  0  0  0
  192.1740  176.0320  138.0890 N   0  0  1  0  0  0  0  0  0  0  0  0
  192.9120  174.4730  135.2030 C   0  0  0  0  0  3  0  0  0  0  0  0
  189.3070  173.7180  137.3460 C   0  0  0  0  0  1  0  0  0  0  0  0
  191.7940  176.5550  142.1220 C   0  0  0  0  0  3  0  0  0  0  0  0
  191.1430  177.1670  141.1230 C   0  0  0  0  0  0  0  0  0  0  0  0
  189.6030  175.0180  136.6080 C   0  0  2  0  0  3  0  0  0  0  0  0
  186.3760  178.5950  137.6070 C   0  0  0  0  0  2  0  0  0  0  0  0
  184.3970  178.1540  138.4750 C   0  0  0  0  0  1  0  0  0  0  0  0
  185.3510  179.1630  138.3650 O   0  0  0  0  0  0  0  0  0  0  0  0
  1  5  1  6  0  0  0
  1 19  1  0  0  0  0
  2 16  2  0  0  0  0
  2 13  1  0  0  0  0
  3 17  1  0  0  0  0
  4  1  1  0  0  0  0
  6  8  2  0  0  0  0
  7 27  1  0  0  0  0
  7  9  1  0  0  0  0
  8 11  1  0  0  0  0
  9 22  1  0  0  0  0
 10 21  1  0  0  0  0
 10  3  1  0  0  0  0
 11  5  1  0  0  0  0
 12  8  1  0  0  0  0
 12  4  1  0  0  0  0
 14  9  1  0  0  0  0
 15  7  1  0  0  0  0
 17 26  1  0  0  0  0
 18 13  2  0  0  0  0
 19  2  1  0  0  0  0
 20  4  1  0  0  0  0
 20 17  1  0  0  0  0
 22 10  1  0  0  0  0
 22 20  1  0  0  0  0
 23 15  2  0  0  0  0
 23 14  1  0  0  0  0
 25 18  1  0  0  0  0
 26 19  1  0  0  0  0
 26 25  2  0  0  0  0
 27 24  1  0  0  0  0
 27 12  1  0  0  0  0
 28 30  1  0  0  0  0
 28 11  1  0  0  0  0
 30 29  1  0  0  0  0
M  END
>  <MODEL>
4

>  <REMARK>
 VINA RESULT:      -5.5      2.376      5.377
  Name = 
  2 active torsions:
  status: ('A' for Active; 'I' for Inactive)
    1  A    between atoms: C_9  and  C_12
    2  A    between atoms: C_9  and  O_21
                            x       y       z     vdW  Elec       q    Type
                         _______ _______ _______ _____ _____    ______ ____

>  <TORSDO>
F 2

$$$$
=
 OpenBabel10272413493D

 30 35  0  0  1  0  0  0  0  0999 V2000
  186.5510  176.8680  137.3750 C   0  0  2  0  0  3  0  0  0  0  0  0
  187.1320  178.3050  139.3530 C   0  0  0  0  0  0  0  0  0  0  0  0
  190.8120  176.2030  136.6060 C   0  0  0  0  0  2  0  0  0  0  0  0
  187.1450  175.5360  136.8410 C   0  0  1  0  0  3  0  0  0  0  0  0
  185.6760  177.5450  136.3320 C   0  0  0  0  0  2  0  0  0  0  0  0
  183.8320  174.4280  135.8640 O   0  0  0  0  0  0  0  0  0  0  0  0
  187.6510  172.7730  135.5270 N   0  0  0  0  0  0  0  0  0  0  0  0
  184.7470  175.2340  135.9540 C   0  0  0  0  0  0  0  0  0  0  0  0
  188.7970  173.5750  135.1030 C   0  0  2  0  0  3  0  0  0  0  0  0
  190.6500  174.8010  136.0560 C   0  0  1  0  0  3  0  0  0  0  0  0
  184.4250  176.7050  136.0900 C   0  0  2  0  0  3  0  0  0  0  0  0
  186.1880  174.7650  135.9020 C   0  0  2  0  0  3  0  0  0  0  0  0
  188.0600  178.2850  140.4430 N   0  0  0  0  0  0  0  0  0  0  0  0
  189.7650  172.5880  134.7620 O   0  0  0  0  0  0  0  0  0  0  0  0
  187.9960  171.4040  135.3690 C   0  0  0  0  0  3  0  0  0  0  0  0
  185.9660  178.7420  139.5410 O   0  0  0  0  0  0  0  0  0  0  0  0
  189.4180  176.7970  136.6030 C   0  0  1  0  0  3  0  0  0  0  0  0
  189.2770  177.8560  140.3050 C   0  0  0  0  0  3  0  0  0  0  0  0
  187.5570  177.8620  137.9750 C   0  0  1  0  0  3  0  0  0  0  0  0
  188.5040  175.6690  136.1260 C   0  0  1  0  0  3  0  0  0  0  0  0
  191.5420  173.8600  136.8460 C   0  0  0  0  0  1  0  0  0  0  0  0
  189.2480  174.4160  136.2190 N   0  0  1  0  0  0  0  0  0  0  0  0
  189.2360  171.3140  134.9250 C   0  0  0  0  0  3  0  0  0  0  0  0
  186.1060  172.7500  137.4350 C   0  0  0  0  0  1  0  0  0  0  0  0
  189.7620  177.3540  139.0110 C   0  0  0  0  0  3  0  0  0  0  0  0
  188.9700  177.3410  137.9300 C   0  0  0  0  0  0  0  0  0  0  0  0
  186.3490  173.2390  136.0120 C   0  0  2  0  0  3  0  0  0  0  0  0
  183.7120  177.2280  134.8530 C   0  0  0  0  0  2  0  0  0  0  0  0
  182.0200  177.8570  136.1200 C   0  0  0  0  0  1  0  0  0  0  0  0
  182.3310  177.0910  134.9980 O   0  0  0  0  0  0  0  0  0  0  0  0
  1  5  1  6  0  0  0
  1 19  1  0  0  0  0
  2 16  2  0  0  0  0
  2 13  1  0  0  0  0
  4  1  1  0  0  0  0
  6  8  2  0  0  0  0
  7 27  1  0  0  0  0
  8 11  1  0  0  0  0
  9  7  1  0  0  0  0
  9 22  1  0  0  0  0
 10 22  1  0  0  0  0
 10  3  1  0  0  0  0
 10 21  1  0  0  0  0
 11  5  1  0  0  0  0
 12  8  1  0  0  0  0
 12 27  1  0  0  0  0
 12  4  1  0  0  0  0
 14 23  1  0  0  0  0
 14  9  1  0  0  0  0
 15  7  1  0  0  0  0
 17  3  1  0  0  0  0
 17 26  1  0  0  0  0
 18 13  2  0  0  0  0
 19  2  1  0  0  0  0
 20 22  1  0  0  0  0
 20 17  1  0  0  0  0
 20  4  1  0  0  0  0
 23 15  2  0  0  0  0
 25 18  1  0  0  0  0
 26 19  1  0  0  0  0
 26 25  2  0  0  0  0
 27 24  1  0  0  0  0
 28 30  1  0  0  0  0
 28 11  1  0  0  0  0
 30 29  1  0  0  0  0
M  END
>  <MODEL>
5

>  <REMARK>
 VINA RESULT:      -5.4      3.039      6.201
  Name = 
  2 active torsions:
  status: ('A' for Active; 'I' for Inactive)
    1  A    between atoms: C_9  and  C_12
    2  A    between atoms: C_9  and  O_21
                            x       y       z     vdW  Elec       q    Type
                         _______ _______ _______ _____ _____    ______ ____

>  <TORSDO>
F 2

$$$$
=
 OpenBabel10272413493D

 30 35  0  0  1  0  0  0  0  0999 V2000
  188.4760  176.7250  137.9010 C   0  0  2  0  0  3  0  0  0  0  0  0
  188.5750  177.6890  140.2200 C   0  0  0  0  0  0  0  0  0  0  0  0
  192.8410  176.3740  137.8590 C   0  0  0  0  0  2  0  0  0  0  0  0
  189.2520  175.5680  137.2170 C   0  0  1  0  0  3  0  0  0  0  0  0
  187.7620  177.5980  136.8810 C   0  0  0  0  0  2  0  0  0  0  0  0
  186.2670  174.6190  135.3890 O   0  0  0  0  0  0  0  0  0  0  0  0
  190.1900  173.1940  135.4570 N   0  0  0  0  0  0  0  0  0  0  0  0
  187.0890  175.4090  135.8310 C   0  0  0  0  0  0  0  0  0  0  0  0
  191.3340  174.1040  135.4530 C   0  0  2  0  0  3  0  0  0  0  0  0
  192.8850  175.1310  136.9960 C   0  0  1  0  0  3  0  0  0  0  0  0
  186.6410  176.8010  136.2200 C   0  0  2  0  0  3  0  0  0  0  0  0
  188.5440  175.0050  135.9630 C   0  0  2  0  0  3  0  0  0  0  0  0
  189.2830  177.4470  141.4410 N   0  0  0  0  0  0  0  0  0  0  0  0
  192.4180  173.2480  135.1010 O   0  0  0  0  0  0  0  0  0  0  0  0
  190.6560  171.9070  135.0740 C   0  0  0  0  0  3  0  0  0  0  0  0
  187.3660  178.0380  140.2660 O   0  0  0  0  0  0  0  0  0  0  0  0
  191.4340  176.9130  137.7120 C   0  0  1  0  0  3  0  0  0  0  0  0
  190.5330  177.0950  141.4540 C   0  0  0  0  0  3  0  0  0  0  0  0
  189.2780  177.5840  138.8910 C   0  0  1  0  0  3  0  0  0  0  0  0
  190.7070  175.8990  136.8300 C   0  0  1  0  0  3  0  0  0  0  0  0
  193.6810  174.0600  137.7210 C   0  0  0  0  0  1  0  0  0  0  0  0
  191.5090  174.6800  136.7920 N   0  0  1  0  0  0  0  0  0  0  0  0
  191.9600  171.9560  134.8740 C   0  0  0  0  0  3  0  0  0  0  0  0
  188.3250  172.6920  136.9710 C   0  0  0  0  0  1  0  0  0  0  0  0
  191.2840  176.9160  140.2030 C   0  0  0  0  0  3  0  0  0  0  0  0
  190.7090  177.1280  139.0110 C   0  0  0  0  0  0  0  0  0  0  0  0
  188.7910  173.4990  135.7660 C   0  0  2  0  0  3  0  0  0  0  0  0
  186.1340  177.5720  135.0110 C   0  0  0  0  0  2  0  0  0  0  0  0
  184.1600  177.2910  135.9540 C   0  0  0  0  0  1  0  0  0  0  0  0
  184.8170  177.2100  134.7270 O   0  0  0  0  0  0  0  0  0  0  0  0
  1  5  1  6  0  0  0
  1 19  1  0  0  0  0
  2 16  2  0  0  0  0
  2 13  1  0  0  0  0
  4  1  1  0  0  0  0
  6  8  2  0  0  0  0
  7 27  1  0  0  0  0
  8 12  1  0  0  0  0
  8 11  1  0  0  0  0
  9  7  1  0  0  0  0
  9 22  1  0  0  0  0
 10 21  1  0  0  0  0
 10  3  1  0  0  0  0
 11  5  1  0  0  0  0
 12  4  1  0  0  0  0
 13 18  2  0  0  0  0
 14  9  1  0  0  0  0
 15  7  1  0  0  0  0
 17  3  1  0  0  0  0
 17 26  1  0  0  0  0
 19 26  1  0  0  0  0
 19  2  1  0  0  0  0
 20  4  1  0  0  0  0
 20 17  1  0  0  0  0
 22 20  1  0  0  0  0
 22 10  1  0  0  0  0
 23 15  2  0  0  0  0
 23 14  1  0  0  0  0
 25 18  1  0  0  0  0
 26 25  2  0  0  0  0
 27 12  1  0  0  0  0
 27 24  1  0  0  0  0
 28 11  1  0  0  0  0
 30 28  1  0  0  0  0
 30 29  1  0  0  0  0
M  END
>  <MODEL>
6

>  <REMARK>
 VINA RESULT:      -5.3      2.189      5.264
  Name = 
  2 active torsions:
  status: ('A' for Active; 'I' for Inactive)
    1  A    between atoms: C_9  and  C_12
    2  A    between atoms: C_9  and  O_21
                            x       y       z     vdW  Elec       q    Type
                         _______ _______ _______ _____ _____    ______ ____

>  <TORSDO>
F 2

$$$$
=
 OpenBabel10272413493D

 30 35  0  0  1  0  0  0  0  0999 V2000
  183.5330  179.0620  138.7920 C   0  0  2  0  0  3  0  0  0  0  0  0
  181.7240  180.6610  138.0960 C   0  0  0  0  0  0  0  0  0  0  0  0
  181.8050  175.9770  136.2070 C   0  0  0  0  0  2  0  0  0  0  0  0
  184.3670  178.0180  138.0000 C   0  0  1  0  0  3  0  0  0  0  0  0
  183.6420  178.8390  140.2920 C   0  0  0  0  0  2  0  0  0  0  0  0
  187.2820  178.7880  140.0160 O   0  0  0  0  0  0  0  0  0  0  0  0
  186.5360  176.0810  136.9270 N   0  0  0  0  0  0  0  0  0  0  0  0
  186.1000  178.5380  139.8310 C   0  0  0  0  0  0  0  0  0  0  0  0
  185.3100  175.2870  136.8850 C   0  0  2  0  0  3  0  0  0  0  0  0
  183.1220  175.3170  135.8570 C   0  0  1  0  0  3  0  0  0  0  0  0
  185.0640  179.1420  140.7530 C   0  0  2  0  0  3  0  0  0  0  0  0
  185.6800  177.6110  138.7070 C   0  0  2  0  0  3  0  0  0  0  0  0
  181.0440  181.0360  136.8930 N   0  0  0  0  0  0  0  0  0  0  0  0
  185.6220  174.2700  135.9380 O   0  0  0  0  0  0  0  0  0  0  0  0
  187.4800  175.4690  136.0570 C   0  0  0  0  0  3  0  0  0  0  0  0
  181.9930  181.5420  138.9540 O   0  0  0  0  0  0  0  0  0  0  0  0
  182.1050  176.8610  137.4000 C   0  0  1  0  0  3  0  0  0  0  0  0
  180.7320  180.1680  135.9780 C   0  0  0  0  0  3  0  0  0  0  0  0
  182.0650  179.2170  138.3660 C   0  0  1  0  0  3  0  0  0  0  0  0
  183.6100  176.7280  137.6270 C   0  0  1  0  0  3  0  0  0  0  0  0
  183.2590  175.2690  134.3460 C   0  0  0  0  0  1  0  0  0  0  0  0
  184.1950  176.1280  136.4310 N   0  0  1  0  0  0  0  0  0  0  0  0
  186.9280  174.4150  135.4850 C   0  0  0  0  0  3  0  0  0  0  0  0
  187.1170  178.4620  136.8030 C   0  0  0  0  0  1  0  0  0  0  0  0
  181.0750  178.7470  136.1320 C   0  0  0  0  0  3  0  0  0  0  0  0
  181.7020  178.2990  137.2280 C   0  0  0  0  0  0  0  0  0  0  0  0
  186.8110  177.2820  137.7170 C   0  0  2  0  0  3  0  0  0  0  0  0
  185.2380  178.6390  142.1780 C   0  0  0  0  0  2  0  0  0  0  0  0
  184.1020  178.9020  144.0500 C   0  0  0  0  0  1  0  0  0  0  0  0
  183.9930  178.3930  142.7570 O   0  0  0  0  0  0  0  0  0  0  0  0
  1  5  1  1  0  0  0
  2 19  1  0  0  0  0
  2 16  2  0  0  0  0
  3 17  1  0  0  0  0
  4 12  1  0  0  0  0
  4  1  1  0  0  0  0
  5 11  1  0  0  0  0
  7 27  1  0  0  0  0
  8  6  2  0  0  0  0
  8 11  1  0  0  0  0
  9  7  1  0  0  0  0
 10  3  1  0  0  0  0
 10 22  1  0  0  0  0
 11 28  1  0  0  0  0
 12  8  1  0  0  0  0
 13  2  1  0  0  0  0
 14  9  1  0  0  0  0
 15  7  1  0  0  0  0
 17 20  1  0  0  0  0
 18 25  1  0  0  0  0
 18 13  2  0  0  0  0
 19  1  1  0  0  0  0
 20  4  1  0  0  0  0
 21 10  1  0  0  0  0
 22  9  1  0  0  0  0
 22 20  1  0  0  0  0
 23 14  1  0  0  0  0
 23 15  2  0  0  0  0
 24 27  1  0  0  0  0
 25 26  2  0  0  0  0
 26 17  1  0  0  0  0
 26 19  1  0  0  0  0
 27 12  1  0  0  0  0
 28 30  1  0  0  0  0
 30 29  1  0  0  0  0
M  END
>  <MODEL>
7

>  <REMARK>
 VINA RESULT:      -5.3      5.076      7.203
  Name = 
  2 active torsions:
  status: ('A' for Active; 'I' for Inactive)
    1  A    between atoms: C_9  and  C_12
    2  A    between atoms: C_9  and  O_21
                            x       y       z     vdW  Elec       q    Type
                         _______ _______ _______ _____ _____    ______ ____

>  <TORSDO>
F 2

$$$$
=
 OpenBabel10272413493D

 30 35  0  0  1  0  0  0  0  0999 V2000
  189.6770  176.4210  139.1900 C   0  0  2  0  0  3  0  0  0  0  0  0
  189.4330  174.7350  137.3420 C   0  0  0  0  0  0  0  0  0  0  0  0
  185.9560  178.3510  137.9210 C   0  0  0  0  0  2  0  0  0  0  0  0
  188.6490  177.0610  140.1620 C   0  0  1  0  0  3  0  0  0  0  0  0
  190.9880  177.1900  139.1800 C   0  0  0  0  0  2  0  0  0  0  0  0
  191.1120  177.0190  142.8250 O   0  0  0  0  0  0  0  0  0  0  0  0
  187.1750  178.3790  142.5500 N   0  0  0  0  0  0  0  0  0  0  0  0
  190.7190  177.2180  141.6840 C   0  0  0  0  0  0  0  0  0  0  0  0
  186.7060  179.1360  141.3910 C   0  0  2  0  0  3  0  0  0  0  0  0
  185.5310  178.7880  139.3070 C   0  0  1  0  0  3  0  0  0  0  0  0
  191.6810  177.0400  140.5300 C   0  0  2  0  0  3  0  0  0  0  0  0
  189.2920  177.6640  141.4330 C   0  0  2  0  0  3  0  0  0  0  0  0
  188.3900  173.9540  136.7490 N   0  0  0  0  0  0  0  0  0  0  0  0
  185.4880  179.7090  141.8580 O   0  0  0  0  0  0  0  0  0  0  0  0
  186.2490  178.5880  143.6080 C   0  0  0  0  0  3  0  0  0  0  0  0
  190.5820  174.2360  137.4710 O   0  0  0  0  0  0  0  0  0  0  0  0
  187.4170  177.9750  138.0510 C   0  0  1  0  0  3  0  0  0  0  0  0
  187.1900  174.4200  136.5810 C   0  0  0  0  0  3  0  0  0  0  0  0
  189.1810  176.1620  137.7590 C   0  0  1  0  0  3  0  0  0  0  0  0
  187.7410  178.1370  139.5350 C   0  0  1  0  0  3  0  0  0  0  0  0
  184.1350  178.2570  139.5810 C   0  0  0  0  0  1  0  0  0  0  0  0
  186.4800  178.2210  140.2650 N   0  0  1  0  0  0  0  0  0  0  0  0
  185.2680  179.3640  143.1850 C   0  0  0  0  0  3  0  0  0  0  0  0
  188.0120  176.1110  142.9710 C   0  0  0  0  0  1  0  0  0  0  0  0
  186.8400  175.7830  137.0080 C   0  0  0  0  0  3  0  0  0  0  0  0
  187.7510  176.5930  137.5650 C   0  0  0  0  0  0  0  0  0  0  0  0
  188.3810  177.5580  142.6680 C   0  0  2  0  0  3  0  0  0  0  0  0
  192.8250  178.0380  140.6110 C   0  0  0  0  0  2  0  0  0  0  0  0
  194.4200  176.5380  140.3460 C   0  0  0  0  0  1  0  0  0  0  0  0
  193.8540  177.6620  139.7470 O   0  0  0  0  0  0  0  0  0  0  0  0
  1  5  1  6  0  0  0
  1  4  1  0  0  0  0
  2 16  2  0  0  0  0
  2 19  1  0  0  0  0
  3 17  1  0  0  0  0
  3 10  1  0  0  0  0
  4 12  1  0  0  0  0
  5 11  1  0  0  0  0
  7 27  1  0  0  0  0
  7 15  1  0  0  0  0
  8  6  2  0  0  0  0
  9 14  1  0  0  0  0
  9  7  1  0  0  0  0
 10 21  1  0  0  0  0
 10 22  1  0  0  0  0
 11 28  1  0  0  0  0
 11  8  1  0  0  0  0
 12  8  1  0  0  0  0
 12 27  1  0  0  0  0
 13  2  1  0  0  0  0
 14 23  1  0  0  0  0
 17 20  1  0  0  0  0
 18 13  2  0  0  0  0
 18 25  1  0  0  0  0
 19  1  1  0  0  0  0
 20  4  1  0  0  0  0
 20 22  1  0  0  0  0
 22  9  1  0  0  0  0
 23 15  2  0  0  0  0
 25 26  2  0  0  0  0
 26 19  1  0  0  0  0
 26 17  1  0  0  0  0
 27 24  1  0  0  0  0
 30 29  1  0  0  0  0
 30 28  1  0  0  0  0
M  END
>  <MODEL>
8

>  <REMARK>
 VINA RESULT:      -5.3      3.100      6.587
  Name = 
  2 active torsions:
  status: ('A' for Active; 'I' for Inactive)
    1  A    between atoms: C_9  and  C_12
    2  A    between atoms: C_9  and  O_21
                            x       y       z     vdW  Elec       q    Type
                         _______ _______ _______ _____ _____    ______ ____

>  <TORSDO>
F 2

$$$$
=
 OpenBabel10272413493D

 30 35  0  0  1  0  0  0  0  0999 V2000
  184.4540  178.4900  139.2660 C   0  0  2  0  0  3  0  0  0  0  0  0
  185.9460  178.9620  141.2330 C   0  0  0  0  0  0  0  0  0  0  0  0
  187.9740  177.6670  136.7930 C   0  0  0  0  0  2  0  0  0  0  0  0
  184.5060  177.4100  138.1520 C   0  0  1  0  0  3  0  0  0  0  0  0
  183.5040  179.6200  138.9040 C   0  0  0  0  0  2  0  0  0  0  0  0
  180.8860  177.1780  138.1820 O   0  0  0  0  0  0  0  0  0  0  0  0
  183.8820  175.3370  135.9320 N   0  0  0  0  0  0  0  0  0  0  0  0
  181.9570  177.7690  138.1780 C   0  0  0  0  0  0  0  0  0  0  0  0
  185.0090  176.0960  135.3930 C   0  0  2  0  0  3  0  0  0  0  0  0
  187.3090  176.6200  135.9250 C   0  0  1  0  0  3  0  0  0  0  0  0
  182.0700  179.0980  138.8910 C   0  0  2  0  0  3  0  0  0  0  0  0
  183.1490  177.1860  137.4450 C   0  0  2  0  0  3  0  0  0  0  0  0
  187.1230  178.4080  141.8300 N   0  0  0  0  0  0  0  0  0  0  0  0
  185.5500  175.2100  134.4170 O   0  0  0  0  0  0  0  0  0  0  0  0
  183.8090  174.1060  135.2250 C   0  0  0  0  0  3  0  0  0  0  0  0
  185.0400  179.4290  141.9730 O   0  0  0  0  0  0  0  0  0  0  0  0
  186.8410  178.3790  137.5020 C   0  0  1  0  0  3  0  0  0  0  0  0
  188.0940  177.9220  141.1170 C   0  0  0  0  0  3  0  0  0  0  0  0
  185.8090  179.0420  139.7340 C   0  0  1  0  0  3  0  0  0  0  0  0
  185.5740  177.6450  137.0660 C   0  0  1  0  0  3  0  0  0  0  0  0
  188.1320  175.3460  135.9770 C   0  0  0  0  0  1  0  0  0  0  0  0
  185.9720  176.3750  136.4660 N   0  0  1  0  0  0  0  0  0  0  0  0
  184.7930  174.0470  134.3460 C   0  0  0  0  0  3  0  0  0  0  0  0
  183.0320  174.7600  138.1610 C   0  0  0  0  0  1  0  0  0  0  0  0
  188.0230  177.9090  139.6480 C   0  0  0  0  0  3  0  0  0  0  0  0
  186.9650  178.4140  138.9990 C   0  0  0  0  0  0  0  0  0  0  0  0
  182.9480  175.7310  136.9890 C   0  0  2  0  0  3  0  0  0  0  0  0
  181.1710  180.1430  138.2480 C   0  0  0  0  0  2  0  0  0  0  0  0
  179.9900  180.5690  140.0610 C   0  0  0  0  0  1  0  0  0  0  0  0
  180.8790  181.1560  139.1620 O   0  0  0  0  0  0  0  0  0  0  0  0
  1  5  1  6  0  0  0
  1 19  1  0  0  0  0
  2 13  1  0  0  0  0
  2 16  2  0  0  0  0
  3 17  1  0  0  0  0
  4  1  1  0  0  0  0
  7 27  1  0  0  0  0
  8  6  2  0  0  0  0
  8 11  1  0  0  0  0
  9  7  1  0  0  0  0
  9 22  1  0  0  0  0
 10 21  1  0  0  0  0
 10 22  1  0  0  0  0
 10  3  1  0  0  0  0
 11  5  1  0  0  0  0
 12  4  1  0  0  0  0
 12  8  1  0  0  0  0
 14  9  1  0  0  0  0
 15  7  1  0  0  0  0
 17 26  1  0  0  0  0
 18 13  2  0  0  0  0
 19  2  1  0  0  0  0
 20 17  1  0  0  0  0
 20  4  1  0  0  0  0
 22 20  1  0  0  0  0
 23 14  1  0  0  0  0
 23 15  2  0  0  0  0
 25 18  1  0  0  0  0
 26 25  2  0  0  0  0
 26 19  1  0  0  0  0
 27 12  1  0  0  0  0
 27 24  1  0  0  0  0
 28 11  1  0  0  0  0
 28 30  1  0  0  0  0
 30 29  1  0  0  0  0
M  END
>  <MODEL>
9

>  <REMARK>
 VINA RESULT:      -5.2      4.839      8.205
  Name = 
  2 active torsions:
  status: ('A' for Active; 'I' for Inactive)
    1  A    between atoms: C_9  and  C_12
    2  A    between atoms: C_9  and  O_21
                            x       y       z     vdW  Elec       q    Type
                         _______ _______ _______ _____ _____    ______ ____

>  <TORSDO>
F 2

$$$$
