=
 OpenBabel10272413203D

 32 33  0  0  1  0  0  0  0  0999 V2000
  188.6190  176.4620  143.8010 C   0  0  0  0  0  0  0  0  0  0  0  0
  187.7740  175.8170  143.1940 O   0  0  0  0  0  0  0  0  0  0  0  0
  188.5510  177.7990  147.3760 C   0  0  0  0  0  0  0  0  0  0  0  0
  189.1140  177.6880  148.4530 O   0  0  0  0  0  0  0  0  0  0  0  0
  186.7320  177.2110  145.2340 C   0  0  0  0  0  2  0  0  0  0  0  0
  187.3880  178.7370  147.2380 C   0  0  0  0  0  2  0  0  0  0  0  0
  188.2270  177.3420  144.9430 C   0  0  1  0  0  3  0  0  0  0  0  0
  189.0500  177.0230  146.1910 C   0  0  0  0  0  2  0  0  0  0  0  0
  186.2670  178.1300  146.3780 C   0  0  1  0  0  3  0  0  0  0  0  0
  185.2920  179.2000  145.8890 C   0  0  0  0  0  2  0  0  0  0  0  0
  184.0140  178.6160  145.2880 C   0  0  0  0  0  2  0  0  0  0  0  0
  183.6030  179.3490  144.0210 C   0  0  0  0  0  2  0  0  0  0  0  0
  184.7790  179.6750  143.2330 N   0  0  0  0  0  2  0  0  0  0  0  0
  186.3910  178.6640  141.7440 C   0  0  0  0  0  2  0  0  0  0  0  0
  185.2020  179.1030  140.9210 C   0  0  0  0  0  2  0  0  0  0  0  0
  184.9930  178.5670  142.3220 C   0  0  0  0  0  3  0  0  0  0  0  0
  190.3660  175.1130  142.9470 O   0  0  0  0  0  1  0  0  0  0  0  0
  190.0590  176.4000  143.3930 C   0  0  1  0  0  3  0  0  0  0  0  0
  190.3800  177.4300  142.3050 C   0  0  2  0  0  3  0  0  0  0  0  0
  190.3060  176.8080  140.9120 C   0  0  0  0  0  2  0  0  0  0  0  0
  189.6100  177.9710  139.6920 S   0  0  0  0  0  0  0  0  0  0  0  0
  189.0790  176.6200  138.6000 C   0  0  2  0  0  3  0  0  0  0  0  0
  190.2870  175.9660  137.9440 C   0  0  0  0  0  1  0  0  0  0  0  0
  188.0450  177.1190  137.5870 C   0  0  1  0  0  3  0  0  0  0  0  0
  187.3950  179.2970  136.8210 O   0  0  0  0  0  1  0  0  0  0  0  0
  188.4760  178.4210  136.9150 C   0  0  0  0  0  2  0  0  0  0  0  0
  187.7500  176.0360  136.5590 C   0  0  0  0  0  2  0  0  0  0  0  0
  186.7220  173.7860  136.5290 C   0  0  0  0  0  1  0  0  0  0  0  0
  186.5410  175.2220  136.9740 C   0  0  0  0  0  2  0  0  0  0  0  0
  191.6480  177.9880  142.5080 O   0  0  0  0  0  0  0  0  0  0  0  0
  191.7080  178.2590  143.8770 C   0  0  0  0  0  2  0  0  0  0  0  0
  191.1620  179.6480  144.1390 C   0  0  0  0  0  1  0  0  0  0  0  0
  2  1  2  0  0  0  0
  3  4  2  0  0  0  0
  5  9  1  0  0  0  0
  6  3  1  0  0  0  0
  7  1  1  6  0  0  0
  7  5  1  0  0  0  0
  7  8  1  0  0  0  0
  8  3  1  0  0  0  0
  9 10  1  6  0  0  0
  9  6  1  0  0  0  0
 11 10  1  0  0  0  0
 12 11  1  0  0  0  0
 13 12  1  0  0  0  0
 14 16  1  0  0  0  0
 15 14  1  0  0  0  0
 15 16  1  0  0  0  0
 16 13  1  0  0  0  0
 18 17  1  6  0  0  0
 18  1  1  0  0  0  0
 19 20  1  6  0  0  0
 19 30  1  0  0  0  0
 19 18  1  0  0  0  0
 21 20  1  0  0  0  0
 22 23  1  6  0  0  0
 22 21  1  0  0  0  0
 24 27  1  6  0  0  0
 24 22  1  0  0  0  0
 25 26  1  0  0  0  0
 26 24  1  0  0  0  0
 27 29  1  0  0  0  0
 28 29  1  0  0  0  0
 30 31  1  0  0  0  0
 31 32  1  0  0  0  0
M  END
>  <MODEL>
1

>  <REMARK>
 VINA RESULT:      -6.8      0.000      0.000
  Name = 
  17 active torsions:
  status: ('A' for Active; 'I' for Inactive)
    1  A    between atoms: C_1  and  C_2
    2  A    between atoms: C_1  and  S_30
    3  A    between atoms: C_2  and  O_5
    4  A    between atoms: C_2  and  C_27
    5  A    between atoms: C_4  and  C_29
    6  A    between atoms: C_4  and  S_30
    7  A    between atoms: O_5  and  C_14
    8  A    between atoms: C_7  and  C_26
    9  A    between atoms: C_7  and  C_31
   10  A    between atoms: C_9  and  C_31
   11  A    between atoms: C_9  and  N_32
   12  A    between atoms: C_16  and  C_20
   13  A    between atoms: C_16  and  C_27
   14  A    between atoms: C_17  and  C_29
   15  A    between atoms: C_18  and  C_25
   16  A    between atoms: C_18  and  C_29
   17  A    between atoms: C_28  and  N_32
                            x       y       z     vdW  Elec       q    Type
                         _______ _______ _______ _____ _____    ______ ____

>  <TORSDO>
F 17

$$$$
=
 OpenBabel10272413203D

 32 33  0  0  1  0  0  0  0  0999 V2000
  188.7010  176.4990  143.7100 C   0  0  0  0  0  0  0  0  0  0  0  0
  187.9050  175.8910  143.0070 O   0  0  0  0  0  0  0  0  0  0  0  0
  188.3230  177.7320  147.3040 C   0  0  0  0  0  0  0  0  0  0  0  0
  188.7810  177.5780  148.4240 O   0  0  0  0  0  0  0  0  0  0  0  0
  186.7020  177.2450  144.9840 C   0  0  0  0  0  2  0  0  0  0  0  0
  187.1950  178.6980  147.0870 C   0  0  0  0  0  2  0  0  0  0  0  0
  188.2200  177.3540  144.8380 C   0  0  1  0  0  3  0  0  0  0  0  0
  188.9170  176.9810  146.1460 C   0  0  0  0  0  2  0  0  0  0  0  0
  186.1490  178.1400  146.1080 C   0  0  1  0  0  3  0  0  0  0  0  0
  185.2430  179.2440  145.5640 C   0  0  0  0  0  2  0  0  0  0  0  0
  183.8080  178.7770  145.3210 C   0  0  0  0  0  2  0  0  0  0  0  0
  183.4590  178.7820  143.8420 C   0  0  0  0  0  2  0  0  0  0  0  0
  184.5470  179.3650  143.0770 N   0  0  0  0  0  2  0  0  0  0  0  0
  186.2830  178.7350  141.5180 C   0  0  0  0  0  2  0  0  0  0  0  0
  185.0510  179.1070  140.7250 C   0  0  0  0  0  2  0  0  0  0  0  0
  184.9060  178.3990  142.0560 C   0  0  0  0  0  3  0  0  0  0  0  0
  190.5110  175.1120  143.0790 O   0  0  0  0  0  1  0  0  0  0  0  0
  190.1710  176.4190  143.4370 C   0  0  1  0  0  3  0  0  0  0  0  0
  190.5940  177.3970  142.3360 C   0  0  2  0  0  3  0  0  0  0  0  0
  190.7500  176.6890  140.9920 C   0  0  0  0  0  2  0  0  0  0  0  0
  189.5780  177.3310  139.7530 S   0  0  0  0  0  0  0  0  0  0  0  0
  190.2080  176.2090  138.4710 C   0  0  2  0  0  3  0  0  0  0  0  0
  191.6530  176.5510  138.1340 C   0  0  0  0  0  1  0  0  0  0  0  0
  189.2910  176.2200  137.2450 C   0  0  1  0  0  3  0  0  0  0  0  0
  189.2470  173.8450  136.9090 O   0  0  0  0  0  1  0  0  0  0  0  0
  189.5770  175.0550  136.2990 C   0  0  0  0  0  2  0  0  0  0  0  0
  187.8310  176.2340  137.6790 C   0  0  0  0  0  2  0  0  0  0  0  0
  186.4990  178.2960  137.3700 C   0  0  0  0  0  1  0  0  0  0  0  0
  186.9920  177.0310  136.7000 C   0  0  0  0  0  2  0  0  0  0  0  0
  191.7900  178.0400  142.6760 O   0  0  0  0  0  0  0  0  0  0  0  0
  191.6610  178.3500  144.0320 C   0  0  0  0  0  2  0  0  0  0  0  0
  191.1410  179.7650  144.1780 C   0  0  0  0  0  1  0  0  0  0  0  0
  2  1  2  0  0  0  0
  3  4  2  0  0  0  0
  5  9  1  0  0  0  0
  6  3  1  0  0  0  0
  7  1  1  6  0  0  0
  7  5  1  0  0  0  0
  7  8  1  0  0  0  0
  8  3  1  0  0  0  0
  9 10  1  6  0  0  0
  9  6  1  0  0  0  0
 11 10  1  0  0  0  0
 12 11  1  0  0  0  0
 13 12  1  0  0  0  0
 14 16  1  0  0  0  0
 15 14  1  0  0  0  0
 15 16  1  0  0  0  0
 16 13  1  0  0  0  0
 18 17  1  6  0  0  0
 18  1  1  0  0  0  0
 19 20  1  6  0  0  0
 19 30  1  0  0  0  0
 19 18  1  0  0  0  0
 21 20  1  0  0  0  0
 22 23  1  6  0  0  0
 22 21  1  0  0  0  0
 24 26  1  6  0  0  0
 24 27  1  0  0  0  0
 24 22  1  0  0  0  0
 26 25  1  0  0  0  0
 29 28  1  0  0  0  0
 29 27  1  0  0  0  0
 30 31  1  0  0  0  0
 31 32  1  0  0  0  0
M  END
>  <MODEL>
2

>  <REMARK>
 VINA RESULT:      -6.7      1.314      1.586
  Name = 
  17 active torsions:
  status: ('A' for Active; 'I' for Inactive)
    1  A    between atoms: C_1  and  C_2
    2  A    between atoms: C_1  and  S_30
    3  A    between atoms: C_2  and  O_5
    4  A    between atoms: C_2  and  C_27
    5  A    between atoms: C_4  and  C_29
    6  A    between atoms: C_4  and  S_30
    7  A    between atoms: O_5  and  C_14
    8  A    between atoms: C_7  and  C_26
    9  A    between atoms: C_7  and  C_31
   10  A    between atoms: C_9  and  C_31
   11  A    between atoms: C_9  and  N_32
   12  A    between atoms: C_16  and  C_20
   13  A    between atoms: C_16  and  C_27
   14  A    between atoms: C_17  and  C_29
   15  A    between atoms: C_18  and  C_25
   16  A    between atoms: C_18  and  C_29
   17  A    between atoms: C_28  and  N_32
                            x       y       z     vdW  Elec       q    Type
                         _______ _______ _______ _____ _____    ______ ____

>  <TORSDO>
F 17

$$$$
=
 OpenBabel10272413203D

 32 33  0  0  1  0  0  0  0  0999 V2000
  188.9700  177.0260  143.4510 C   0  0  0  0  0  0  0  0  0  0  0  0
  188.4680  175.9420  143.1840 O   0  0  0  0  0  0  0  0  0  0  0  0
  190.5680  177.1420  146.9170 C   0  0  0  0  0  0  0  0  0  0  0  0
  191.5520  176.7670  147.5330 O   0  0  0  0  0  0  0  0  0  0  0  0
  187.9590  177.0400  145.7210 C   0  0  0  0  0  2  0  0  0  0  0  0
  189.4990  177.9220  147.6260 C   0  0  0  0  0  2  0  0  0  0  0  0
  189.1660  177.4430  144.8730 C   0  0  1  0  0  3  0  0  0  0  0  0
  190.4520  176.8500  145.4480 C   0  0  0  0  0  2  0  0  0  0  0  0
  188.0910  177.4840  147.1890 C   0  0  1  0  0  3  0  0  0  0  0  0
  187.0360  178.5220  147.5680 C   0  0  0  0  0  2  0  0  0  0  0  0
  185.6510  178.2010  147.0090 C   0  0  0  0  0  2  0  0  0  0  0  0
  185.2470  179.1750  145.9150 C   0  0  0  0  0  2  0  0  0  0  0  0
  183.8420  179.0010  145.5910 N   0  0  0  0  0  2  0  0  0  0  0  0
  182.3180  179.0770  143.7160 C   0  0  0  0  0  2  0  0  0  0  0  0
  183.6040  178.4340  143.2510 C   0  0  0  0  0  2  0  0  0  0  0  0
  183.6460  179.5580  144.2650 C   0  0  0  0  0  3  0  0  0  0  0  0
  190.7340  177.8010  142.0770 O   0  0  0  0  0  1  0  0  0  0  0  0
  189.3760  177.9660  142.3580 C   0  0  1  0  0  3  0  0  0  0  0  0
  188.5420  177.7490  141.0910 C   0  0  2  0  0  3  0  0  0  0  0  0
  189.4140  177.2930  139.9220 C   0  0  0  0  0  2  0  0  0  0  0  0
  189.2990  178.4400  138.5100 S   0  0  0  0  0  0  0  0  0  0  0  0
  188.9360  177.0890  137.3510 C   0  0  2  0  0  3  0  0  0  0  0  0
  187.5010  176.6140  137.5270 C   0  0  0  0  0  1  0  0  0  0  0  0
  189.9610  175.9620  137.4960 C   0  0  1  0  0  3  0  0  0  0  0  0
  190.1230  173.5690  137.5090 O   0  0  0  0  0  1  0  0  0  0  0  0
  189.4540  174.6410  136.9190 C   0  0  0  0  0  2  0  0  0  0  0  0
  191.2860  176.3690  136.8660 C   0  0  0  0  0  2  0  0  0  0  0  0
  193.3310  175.1590  137.5530 C   0  0  0  0  0  1  0  0  0  0  0  0
  192.4040  176.3070  137.8880 C   0  0  0  0  0  2  0  0  0  0  0  0
  187.8540  178.9170  140.7420 O   0  0  0  0  0  0  0  0  0  0  0  0
  186.5780  178.7600  141.2870 C   0  0  0  0  0  2  0  0  0  0  0  0
  185.5490  178.7910  140.1760 C   0  0  0  0  0  1  0  0  0  0  0  0
  2  1  2  0  0  0  0
  3  4  2  0  0  0  0
  3  6  1  0  0  0  0
  5  9  1  0  0  0  0
  7  1  1  6  0  0  0
  7  8  1  0  0  0  0
  7  5  1  0  0  0  0
  8  3  1  0  0  0  0
  9 10  1  6  0  0  0
  9  6  1  0  0  0  0
 11 10  1  0  0  0  0
 12 11  1  0  0  0  0
 13 12  1  0  0  0  0
 14 16  1  0  0  0  0
 15 14  1  0  0  0  0
 15 16  1  0  0  0  0
 16 13  1  0  0  0  0
 18 17  1  6  0  0  0
 18  1  1  0  0  0  0
 19 20  1  6  0  0  0
 19 18  1  0  0  0  0
 21 20  1  0  0  0  0
 22 24  1  0  0  0  0
 22 23  1  1  0  0  0
 22 21  1  0  0  0  0
 24 27  1  6  0  0  0
 26 24  1  0  0  0  0
 26 25  1  0  0  0  0
 27 29  1  0  0  0  0
 28 29  1  0  0  0  0
 30 19  1  0  0  0  0
 30 31  1  0  0  0  0
 32 31  1  0  0  0  0
M  END
>  <MODEL>
3

>  <REMARK>
 VINA RESULT:      -6.5      1.849      3.430
  Name = 
  17 active torsions:
  status: ('A' for Active; 'I' for Inactive)
    1  A    between atoms: C_1  and  C_2
    2  A    between atoms: C_1  and  S_30
    3  A    between atoms: C_2  and  O_5
    4  A    between atoms: C_2  and  C_27
    5  A    between atoms: C_4  and  C_29
    6  A    between atoms: C_4  and  S_30
    7  A    between atoms: O_5  and  C_14
    8  A    between atoms: C_7  and  C_26
    9  A    between atoms: C_7  and  C_31
   10  A    between atoms: C_9  and  C_31
   11  A    between atoms: C_9  and  N_32
   12  A    between atoms: C_16  and  C_20
   13  A    between atoms: C_16  and  C_27
   14  A    between atoms: C_17  and  C_29
   15  A    between atoms: C_18  and  C_25
   16  A    between atoms: C_18  and  C_29
   17  A    between atoms: C_28  and  N_32
                            x       y       z     vdW  Elec       q    Type
                         _______ _______ _______ _____ _____    ______ ____

>  <TORSDO>
F 17

$$$$
=
 OpenBabel10272413203D

 32 33  0  0  1  0  0  0  0  0999 V2000
  187.7680  177.1010  143.3080 C   0  0  0  0  0  0  0  0  0  0  0  0
  187.9520  175.9680  142.8840 O   0  0  0  0  0  0  0  0  0  0  0  0
  185.3650  178.4440  145.9540 C   0  0  0  0  0  0  0  0  0  0  0  0
  184.3070  179.0390  146.0760 O   0  0  0  0  0  0  0  0  0  0  0  0
  188.1820  178.0450  145.5690 C   0  0  0  0  0  2  0  0  0  0  0  0
  186.1350  178.0380  147.1760 C   0  0  0  0  0  2  0  0  0  0  0  0
  187.1840  177.3190  144.6670 C   0  0  1  0  0  3  0  0  0  0  0  0
  185.8690  178.0920  144.5830 C   0  0  0  0  0  2  0  0  0  0  0  0
  187.6460  178.2580  146.9960 C   0  0  1  0  0  3  0  0  0  0  0  0
  188.4560  177.4790  148.0310 C   0  0  0  0  0  2  0  0  0  0  0  0
  189.4920  176.5470  147.4040 C   0  0  0  0  0  2  0  0  0  0  0  0
  190.9100  177.0310  147.6600 C   0  0  0  0  0  2  0  0  0  0  0  0
  191.7690  176.6570  146.5500 N   0  0  0  0  0  2  0  0  0  0  0  0
  191.7070  176.1210  144.1940 C   0  0  0  0  0  2  0  0  0  0  0  0
  191.7250  177.6260  144.3340 C   0  0  0  0  0  2  0  0  0  0  0  0
  190.9730  176.7830  145.3430 C   0  0  0  0  0  3  0  0  0  0  0  0
  189.4670  178.2960  142.1740 O   0  0  0  0  0  1  0  0  0  0  0  0
  188.1000  178.2920  142.4630 C   0  0  1  0  0  3  0  0  0  0  0  0
  187.2840  178.3070  141.1650 C   0  0  2  0  0  3  0  0  0  0  0  0
  188.1790  178.5300  139.9480 C   0  0  0  0  0  2  0  0  0  0  0  0
  188.3060  177.0280  138.9220 S   0  0  0  0  0  0  0  0  0  0  0  0
  189.6040  177.7600  137.8840 C   0  0  2  0  0  3  0  0  0  0  0  0
  189.0510  178.9460  137.1060 C   0  0  0  0  0  1  0  0  0  0  0  0
  190.2370  176.6980  136.9820 C   0  0  1  0  0  3  0  0  0  0  0  0
  191.1610  174.8010  138.1250 O   0  0  0  0  0  1  0  0  0  0  0  0
  190.0060  175.2810  137.5070 C   0  0  0  0  0  2  0  0  0  0  0  0
  189.7320  176.8480  135.5540 C   0  0  0  0  0  2  0  0  0  0  0  0
  187.3900  176.1830  135.1130 C   0  0  0  0  0  1  0  0  0  0  0  0
  188.8210  175.6930  135.1870 C   0  0  0  0  0  2  0  0  0  0  0  0
  186.2940  179.2950  141.2130 O   0  0  0  0  0  0  0  0  0  0  0  0
  185.2390  178.7870  140.4520 C   0  0  0  0  0  2  0  0  0  0  0  0
  184.1340  178.3140  141.3740 C   0  0  0  0  0  1  0  0  0  0  0  0
  2  1  2  0  0  0  0
  3  4  2  0  0  0  0
  3  6  1  0  0  0  0
  5  9  1  0  0  0  0
  7  1  1  6  0  0  0
  7  5  1  0  0  0  0
  8  7  1  0  0  0  0
  8  3  1  0  0  0  0
  9  6  1  0  0  0  0
  9 10  1  1  0  0  0
 11 12  1  0  0  0  0
 11 10  1  0  0  0  0
 13 12  1  0  0  0  0
 14 15  1  0  0  0  0
 14 16  1  0  0  0  0
 15 16  1  0  0  0  0
 16 13  1  0  0  0  0
 18 17  1  6  0  0  0
 18  1  1  0  0  0  0
 19 20  1  6  0  0  0
 19 30  1  0  0  0  0
 19 18  1  0  0  0  0
 21 20  1  0  0  0  0
 22 23  1  6  0  0  0
 22 21  1  0  0  0  0
 24 27  1  6  0  0  0
 24 26  1  0  0  0  0
 24 22  1  0  0  0  0
 26 25  1  0  0  0  0
 28 29  1  0  0  0  0
 29 27  1  0  0  0  0
 31 30  1  0  0  0  0
 31 32  1  0  0  0  0
M  END
>  <MODEL>
4

>  <REMARK>
 VINA RESULT:      -6.4      2.512      4.633
  Name = 
  17 active torsions:
  status: ('A' for Active; 'I' for Inactive)
    1  A    between atoms: C_1  and  C_2
    2  A    between atoms: C_1  and  S_30
    3  A    between atoms: C_2  and  O_5
    4  A    between atoms: C_2  and  C_27
    5  A    between atoms: C_4  and  C_29
    6  A    between atoms: C_4  and  S_30
    7  A    between atoms: O_5  and  C_14
    8  A    between atoms: C_7  and  C_26
    9  A    between atoms: C_7  and  C_31
   10  A    between atoms: C_9  and  C_31
   11  A    between atoms: C_9  and  N_32
   12  A    between atoms: C_16  and  C_20
   13  A    between atoms: C_16  and  C_27
   14  A    between atoms: C_17  and  C_29
   15  A    between atoms: C_18  and  C_25
   16  A    between atoms: C_18  and  C_29
   17  A    between atoms: C_28  and  N_32
                            x       y       z     vdW  Elec       q    Type
                         _______ _______ _______ _____ _____    ______ ____

>  <TORSDO>
F 17

$$$$
=
 OpenBabel10272413203D

 32 33  0  0  1  0  0  0  0  0999 V2000
  184.8690  178.7700  140.9730 C   0  0  0  0  0  0  0  0  0  0  0  0
  186.0850  178.7240  141.1020 O   0  0  0  0  0  0  0  0  0  0  0  0
  181.6880  179.0500  143.0660 C   0  0  0  0  0  0  0  0  0  0  0  0
  180.5100  179.3550  142.9860 O   0  0  0  0  0  0  0  0  0  0  0  0
  184.5250  179.3820  143.3570 C   0  0  0  0  0  2  0  0  0  0  0  0
  182.2580  178.6270  144.3890 C   0  0  0  0  0  2  0  0  0  0  0  0
  183.9710  178.6110  142.1580 C   0  0  1  0  0  3  0  0  0  0  0  0
  182.5480  179.0640  141.8350 C   0  0  0  0  0  2  0  0  0  0  0  0
  183.6590  179.2180  144.6190 C   0  0  1  0  0  3  0  0  0  0  0  0
  184.4050  178.4800  145.7300 C   0  0  0  0  0  2  0  0  0  0  0  0
  185.8820  178.8600  145.8150 C   0  0  0  0  0  2  0  0  0  0  0  0
  186.6070  178.0610  146.8850 C   0  0  0  0  0  2  0  0  0  0  0  0
  187.9890  177.8450  146.4930 N   0  0  0  0  0  2  0  0  0  0  0  0
  188.8840  176.7370  144.5400 C   0  0  0  0  0  2  0  0  0  0  0  0
  189.4400  178.1420  144.5800 C   0  0  0  0  0  2  0  0  0  0  0  0
  188.0220  177.8780  145.0420 C   0  0  0  0  0  3  0  0  0  0  0  0
  184.6510  180.1960  139.0970 O   0  0  0  0  0  1  0  0  0  0  0  0
  184.2550  178.9640  139.6200 C   0  0  1  0  0  3  0  0  0  0  0  0
  184.6390  177.8320  138.6610 C   0  0  2  0  0  3  0  0  0  0  0  0
  185.7000  178.2870  137.6600 C   0  0  0  0  0  2  0  0  0  0  0  0
  186.9460  176.9900  137.3640 S   0  0  0  0  0  0  0  0  0  0  0  0
  188.2290  177.9210  138.2520 C   0  0  2  0  0  3  0  0  0  0  0  0
  189.0150  178.7930  137.2830 C   0  0  0  0  0  1  0  0  0  0  0  0
  189.1200  176.9750  139.0610 C   0  0  1  0  0  3  0  0  0  0  0  0
  190.3130  175.1450  138.0700 O   0  0  0  0  0  1  0  0  0  0  0  0
  190.3500  176.5240  138.2740 C   0  0  0  0  0  2  0  0  0  0  0  0
  189.5150  177.6230  140.3810 C   0  0  0  0  0  2  0  0  0  0  0  0
  191.6390  177.4850  141.6420 C   0  0  0  0  0  1  0  0  0  0  0  0
  190.4290  176.7070  141.1720 C   0  0  0  0  0  2  0  0  0  0  0  0
  183.5140  177.3570  137.9770 O   0  0  0  0  0  0  0  0  0  0  0  0
  183.3840  176.0250  138.3780 C   0  0  0  0  0  2  0  0  0  0  0  0
  182.3610  175.9330  139.4910 C   0  0  0  0  0  1  0  0  0  0  0  0
  1  2  2  0  0  0  0
  3  6  1  0  0  0  0
  4  3  2  0  0  0  0
  5  9  1  0  0  0  0
  6  9  1  0  0  0  0
  7  1  1  6  0  0  0
  7  5  1  0  0  0  0
  8  7  1  0  0  0  0
  8  3  1  0  0  0  0
  9 10  1  1  0  0  0
 10 11  1  0  0  0  0
 11 12  1  0  0  0  0
 13 12  1  0  0  0  0
 14 15  1  0  0  0  0
 14 16  1  0  0  0  0
 15 16  1  0  0  0  0
 16 13  1  0  0  0  0
 18 17  1  6  0  0  0
 18  1  1  0  0  0  0
 19 20  1  6  0  0  0
 19 18  1  0  0  0  0
 21 20  1  0  0  0  0
 21 22  1  0  0  0  0
 22 23  1  6  0  0  0
 22 24  1  0  0  0  0
 24 26  1  6  0  0  0
 24 27  1  0  0  0  0
 25 26  1  0  0  0  0
 27 29  1  0  0  0  0
 29 28  1  0  0  0  0
 30 31  1  0  0  0  0
 30 19  1  0  0  0  0
 31 32  1  0  0  0  0
M  END
>  <MODEL>
5

>  <REMARK>
 VINA RESULT:      -6.4      2.832      6.076
  Name = 
  17 active torsions:
  status: ('A' for Active; 'I' for Inactive)
    1  A    between atoms: C_1  and  C_2
    2  A    between atoms: C_1  and  S_30
    3  A    between atoms: C_2  and  O_5
    4  A    between atoms: C_2  and  C_27
    5  A    between atoms: C_4  and  C_29
    6  A    between atoms: C_4  and  S_30
    7  A    between atoms: O_5  and  C_14
    8  A    between atoms: C_7  and  C_26
    9  A    between atoms: C_7  and  C_31
   10  A    between atoms: C_9  and  C_31
   11  A    between atoms: C_9  and  N_32
   12  A    between atoms: C_16  and  C_20
   13  A    between atoms: C_16  and  C_27
   14  A    between atoms: C_17  and  C_29
   15  A    between atoms: C_18  and  C_25
   16  A    between atoms: C_18  and  C_29
   17  A    between atoms: C_28  and  N_32
                            x       y       z     vdW  Elec       q    Type
                         _______ _______ _______ _____ _____    ______ ____

>  <TORSDO>
F 17

$$$$
=
 OpenBabel10272413203D

 32 33  0  0  1  0  0  0  0  0999 V2000
  190.0560  177.9080  143.0800 C   0  0  0  0  0  0  0  0  0  0  0  0
  189.3670  178.8060  142.6140 O   0  0  0  0  0  0  0  0  0  0  0  0
  191.5080  176.6610  146.3840 C   0  0  0  0  0  0  0  0  0  0  0  0
  192.4690  176.0690  146.8470 O   0  0  0  0  0  0  0  0  0  0  0  0
  188.9520  177.0520  145.1350 C   0  0  0  0  0  2  0  0  0  0  0  0
  190.4040  177.1160  147.2940 C   0  0  0  0  0  2  0  0  0  0  0  0
  190.1890  177.7410  144.5590 C   0  0  1  0  0  3  0  0  0  0  0  0
  191.4560  176.9620  144.9130 C   0  0  0  0  0  2  0  0  0  0  0  0
  189.0200  176.8920  146.6640 C   0  0  1  0  0  3  0  0  0  0  0  0
  187.9410  177.7120  147.3710 C   0  0  0  0  0  2  0  0  0  0  0  0
  186.5850  177.6490  146.6710 C   0  0  0  0  0  2  0  0  0  0  0  0
  185.7130  178.8420  147.0260 C   0  0  0  0  0  2  0  0  0  0  0  0
  184.6460  178.9850  146.0500 N   0  0  0  0  0  2  0  0  0  0  0  0
  184.5450  179.8500  143.7960 C   0  0  0  0  0  2  0  0  0  0  0  0
  184.2580  178.3660  143.7440 C   0  0  0  0  0  2  0  0  0  0  0  0
  185.2640  178.9060  144.7400 C   0  0  0  0  0  3  0  0  0  0  0  0
  190.1850  175.7200  142.1880 O   0  0  0  0  0  1  0  0  0  0  0  0
  190.7990  176.9740  142.1750 C   0  0  1  0  0  3  0  0  0  0  0  0
  190.8700  177.5140  140.7430 C   0  0  2  0  0  3  0  0  0  0  0  0
  189.7800  176.9050  139.8640 C   0  0  0  0  0  2  0  0  0  0  0  0
  188.5420  178.1490  139.3690 S   0  0  0  0  0  0  0  0  0  0  0  0
  187.9470  177.1150  137.9980 C   0  0  2  0  0  3  0  0  0  0  0  0
  188.9700  177.0940  136.8710 C   0  0  0  0  0  1  0  0  0  0  0  0
  186.5610  177.5730  137.5390 C   0  0  1  0  0  3  0  0  0  0  0  0
  185.7970  176.2940  135.6580 O   0  0  0  0  0  1  0  0  0  0  0  0
  185.7020  176.4100  137.0450 C   0  0  0  0  0  2  0  0  0  0  0  0
  185.8630  178.3420  138.6530 C   0  0  0  0  0  2  0  0  0  0  0  0
  183.7640  179.5610  139.1300 C   0  0  0  0  0  1  0  0  0  0  0  0
  184.3640  178.3610  138.4290 C   0  0  0  0  0  2  0  0  0  0  0  0
  192.1280  177.2660  140.1800 O   0  0  0  0  0  0  0  0  0  0  0  0
  191.8640  176.5770  138.9950 C   0  0  0  0  0  2  0  0  0  0  0  0
  193.1200  176.5300  138.1500 C   0  0  0  0  0  1  0  0  0  0  0  0
  2  1  2  0  0  0  0
  3  4  2  0  0  0  0
  3  6  1  0  0  0  0
  5  9  1  0  0  0  0
  7  1  1  6  0  0  0
  7  8  1  0  0  0  0
  7  5  1  0  0  0  0
  8  3  1  0  0  0  0
  9  6  1  0  0  0  0
  9 10  1  1  0  0  0
 11 12  1  0  0  0  0
 11 10  1  0  0  0  0
 13 12  1  0  0  0  0
 14 16  1  0  0  0  0
 15 14  1  0  0  0  0
 15 16  1  0  0  0  0
 16 13  1  0  0  0  0
 18 17  1  6  0  0  0
 18  1  1  0  0  0  0
 19 20  1  6  0  0  0
 19 18  1  0  0  0  0
 21 20  1  0  0  0  0
 22 23  1  6  0  0  0
 22 21  1  0  0  0  0
 24 26  1  1  0  0  0
 24 22  1  0  0  0  0
 24 27  1  0  0  0  0
 25 26  1  0  0  0  0
 29 27  1  0  0  0  0
 29 28  1  0  0  0  0
 30 19  1  0  0  0  0
 31 30  1  0  0  0  0
 32 31  1  0  0  0  0
M  END
>  <MODEL>
6

>  <REMARK>
 VINA RESULT:      -6.3      1.898      3.316
  Name = 
  17 active torsions:
  status: ('A' for Active; 'I' for Inactive)
    1  A    between atoms: C_1  and  C_2
    2  A    between atoms: C_1  and  S_30
    3  A    between atoms: C_2  and  O_5
    4  A    between atoms: C_2  and  C_27
    5  A    between atoms: C_4  and  C_29
    6  A    between atoms: C_4  and  S_30
    7  A    between atoms: O_5  and  C_14
    8  A    between atoms: C_7  and  C_26
    9  A    between atoms: C_7  and  C_31
   10  A    between atoms: C_9  and  C_31
   11  A    between atoms: C_9  and  N_32
   12  A    between atoms: C_16  and  C_20
   13  A    between atoms: C_16  and  C_27
   14  A    between atoms: C_17  and  C_29
   15  A    between atoms: C_18  and  C_25
   16  A    between atoms: C_18  and  C_29
   17  A    between atoms: C_28  and  N_32
                            x       y       z     vdW  Elec       q    Type
                         _______ _______ _______ _____ _____    ______ ____

>  <TORSDO>
F 17

$$$$
=
 OpenBabel10272413203D

 32 33  0  0  1  0  0  0  0  0999 V2000
  190.5530  176.3640  143.0610 C   0  0  0  0  0  0  0  0  0  0  0  0
  190.4620  175.1700  142.8070 O   0  0  0  0  0  0  0  0  0  0  0  0
  191.5020  176.5460  146.7550 C   0  0  0  0  0  0  0  0  0  0  0  0
  192.3190  176.1260  147.5570 O   0  0  0  0  0  0  0  0  0  0  0  0
  189.1550  176.5960  145.1020 C   0  0  0  0  0  2  0  0  0  0  0  0
  190.4010  177.4540  147.2200 C   0  0  0  0  0  2  0  0  0  0  0  0
  190.5270  176.8450  144.4760 C   0  0  1  0  0  3  0  0  0  0  0  0
  191.6270  176.1800  145.3030 C   0  0  0  0  0  2  0  0  0  0  0  0
  189.0600  177.1120  146.5490 C   0  0  1  0  0  3  0  0  0  0  0  0
  188.0560  178.2560  146.6820 C   0  0  0  0  0  2  0  0  0  0  0  0
  186.6500  177.8760  146.2210 C   0  0  0  0  0  2  0  0  0  0  0  0
  185.6020  178.8310  146.7700 C   0  0  0  0  0  2  0  0  0  0  0  0
  184.3540  178.6670  146.0460 N   0  0  0  0  0  2  0  0  0  0  0  0
  183.1590  179.4580  144.0990 C   0  0  0  0  0  2  0  0  0  0  0  0
  184.1560  178.4150  143.6480 C   0  0  0  0  0  2  0  0  0  0  0  0
  184.5100  179.3570  144.7790 C   0  0  0  0  0  3  0  0  0  0  0  0
  192.0110  177.6680  141.7300 O   0  0  0  0  0  1  0  0  0  0  0  0
  190.6660  177.3680  141.9560 C   0  0  1  0  0  3  0  0  0  0  0  0
  190.0120  176.8620  140.6650 C   0  0  2  0  0  3  0  0  0  0  0  0
  190.5360  177.6150  139.4440 C   0  0  0  0  0  2  0  0  0  0  0  0
  191.5380  176.5370  138.3680 S   0  0  0  0  0  0  0  0  0  0  0  0
  190.0870  175.5630  137.8710 C   0  0  2  0  0  3  0  0  0  0  0  0
  190.5250  174.2630  137.2120 C   0  0  0  0  0  1  0  0  0  0  0  0
  189.1540  176.3960  136.9900 C   0  0  1  0  0  3  0  0  0  0  0  0
  190.2980  176.9130  134.9460 O   0  0  0  0  0  1  0  0  0  0  0  0
  189.3280  176.0810  135.5050 C   0  0  0  0  0  2  0  0  0  0  0  0
  187.7080  176.2090  137.4290 C   0  0  0  0  0  2  0  0  0  0  0  0
  185.9350  177.6640  136.5010 C   0  0  0  0  0  1  0  0  0  0  0  0
  187.0130  177.5510  137.5580 C   0  0  0  0  0  2  0  0  0  0  0  0
  188.6190  176.9810  140.7350 O   0  0  0  0  0  0  0  0  0  0  0  0
  188.3800  178.3490  140.8750 C   0  0  0  0  0  2  0  0  0  0  0  0
  187.2480  178.5640  141.8590 C   0  0  0  0  0  1  0  0  0  0  0  0
  2  1  2  0  0  0  0
  3  6  1  0  0  0  0
  3  4  2  0  0  0  0
  5  9  1  0  0  0  0
  7  1  1  6  0  0  0
  7  5  1  0  0  0  0
  7  8  1  0  0  0  0
  8  3  1  0  0  0  0
  9 10  1  6  0  0  0
  9  6  1  0  0  0  0
 11 10  1  0  0  0  0
 11 12  1  0  0  0  0
 13 12  1  0  0  0  0
 14 16  1  0  0  0  0
 15 14  1  0  0  0  0
 15 16  1  0  0  0  0
 16 13  1  0  0  0  0
 18 17  1  6  0  0  0
 18  1  1  0  0  0  0
 19 20  1  6  0  0  0
 19 30  1  0  0  0  0
 19 18  1  0  0  0  0
 21 20  1  0  0  0  0
 22 23  1  6  0  0  0
 22 21  1  0  0  0  0
 24 26  1  6  0  0  0
 24 27  1  0  0  0  0
 24 22  1  0  0  0  0
 25 26  1  0  0  0  0
 27 29  1  0  0  0  0
 28 29  1  0  0  0  0
 30 31  1  0  0  0  0
 31 32  1  0  0  0  0
M  END
>  <MODEL>
7

>  <REMARK>
 VINA RESULT:      -6.2      1.828      2.991
  Name = 
  17 active torsions:
  status: ('A' for Active; 'I' for Inactive)
    1  A    between atoms: C_1  and  C_2
    2  A    between atoms: C_1  and  S_30
    3  A    between atoms: C_2  and  O_5
    4  A    between atoms: C_2  and  C_27
    5  A    between atoms: C_4  and  C_29
    6  A    between atoms: C_4  and  S_30
    7  A    between atoms: O_5  and  C_14
    8  A    between atoms: C_7  and  C_26
    9  A    between atoms: C_7  and  C_31
   10  A    between atoms: C_9  and  C_31
   11  A    between atoms: C_9  and  N_32
   12  A    between atoms: C_16  and  C_20
   13  A    between atoms: C_16  and  C_27
   14  A    between atoms: C_17  and  C_29
   15  A    between atoms: C_18  and  C_25
   16  A    between atoms: C_18  and  C_29
   17  A    between atoms: C_28  and  N_32
                            x       y       z     vdW  Elec       q    Type
                         _______ _______ _______ _____ _____    ______ ____

>  <TORSDO>
F 17

$$$$
=
 OpenBabel10272413203D

 32 33  0  0  1  0  0  0  0  0999 V2000
  190.4070  176.5730  143.2850 C   0  0  0  0  0  0  0  0  0  0  0  0
  190.4490  175.3730  143.0510 O   0  0  0  0  0  0  0  0  0  0  0  0
  191.1720  176.9090  147.0100 C   0  0  0  0  0  0  0  0  0  0  0  0
  191.9920  176.5870  147.8540 O   0  0  0  0  0  0  0  0  0  0  0  0
  188.9060  176.6920  145.2610 C   0  0  0  0  0  2  0  0  0  0  0  0
  189.9650  177.7060  147.4110 C   0  0  0  0  0  2  0  0  0  0  0  0
  190.2710  177.0710  144.6880 C   0  0  1  0  0  3  0  0  0  0  0  0
  191.3960  176.5360  145.5730 C   0  0  0  0  0  2  0  0  0  0  0  0
  188.6970  177.2180  146.6930 C   0  0  1  0  0  3  0  0  0  0  0  0
  187.5770  178.2560  146.7610 C   0  0  0  0  0  2  0  0  0  0  0  0
  186.3420  177.8590  145.9540 C   0  0  0  0  0  2  0  0  0  0  0  0
  185.5500  179.0750  145.5040 C   0  0  0  0  0  2  0  0  0  0  0  0
  184.1270  178.7920  145.5670 N   0  0  0  0  0  2  0  0  0  0  0  0
  182.2630  178.7850  144.0270 C   0  0  0  0  0  2  0  0  0  0  0  0
  183.5390  178.6830  143.2220 C   0  0  0  0  0  2  0  0  0  0  0  0
  183.5050  179.5270  144.4800 C   0  0  0  0  0  3  0  0  0  0  0  0
  191.7720  178.0460  142.0320 O   0  0  0  0  0  1  0  0  0  0  0  0
  190.4670  177.5670  142.1660 C   0  0  1  0  0  3  0  0  0  0  0  0
  189.9890  176.9570  140.8440 C   0  0  2  0  0  3  0  0  0  0  0  0
  190.8020  177.4820  139.6620 C   0  0  0  0  0  2  0  0  0  0  0  0
  190.5090  176.4990  138.1550 S   0  0  0  0  0  0  0  0  0  0  0  0
  192.2510  175.9890  138.0630 C   0  0  2  0  0  3  0  0  0  0  0  0
  193.1060  176.8710  138.9620 C   0  0  0  0  0  1  0  0  0  0  0  0
  192.7320  175.9710  136.6100 C   0  0  1  0  0  3  0  0  0  0  0  0
  194.7710  176.9040  135.7560 O   0  0  0  0  0  1  0  0  0  0  0  0
  194.2520  175.8480  136.5070 C   0  0  0  0  0  2  0  0  0  0  0  0
  192.0330  174.8610  135.8370 C   0  0  0  0  0  2  0  0  0  0  0  0
  192.0390  172.4080  135.5160 C   0  0  0  0  0  1  0  0  0  0  0  0
  192.2440  173.5230  136.5190 C   0  0  0  0  0  2  0  0  0  0  0  0
  188.6290  177.2180  140.6390 O   0  0  0  0  0  0  0  0  0  0  0  0
  188.3890  178.4230  141.3020 C   0  0  0  0  0  2  0  0  0  0  0  0
  186.9610  178.4460  141.8040 C   0  0  0  0  0  1  0  0  0  0  0  0
  2  1  2  0  0  0  0
  3  6  1  0  0  0  0
  3  4  2  0  0  0  0
  5  9  1  0  0  0  0
  7  1  1  6  0  0  0
  7  5  1  0  0  0  0
  7  8  1  0  0  0  0
  8  3  1  0  0  0  0
  9 10  1  6  0  0  0
  9  6  1  0  0  0  0
 11 10  1  0  0  0  0
 12 13  1  0  0  0  0
 12 11  1  0  0  0  0
 14 16  1  0  0  0  0
 15 14  1  0  0  0  0
 15 16  1  0  0  0  0
 16 13  1  0  0  0  0
 18 17  1  6  0  0  0
 18  1  1  0  0  0  0
 19 20  1  6  0  0  0
 19 18  1  0  0  0  0
 21 20  1  0  0  0  0
 22 21  1  0  0  0  0
 22 23  1  1  0  0  0
 24 27  1  6  0  0  0
 24 22  1  0  0  0  0
 25 26  1  0  0  0  0
 26 24  1  0  0  0  0
 27 29  1  0  0  0  0
 28 29  1  0  0  0  0
 30 19  1  0  0  0  0
 30 31  1  0  0  0  0
 31 32  1  0  0  0  0
M  END
>  <MODEL>
8

>  <REMARK>
 VINA RESULT:      -6.1      2.485      3.692
  Name = 
  17 active torsions:
  status: ('A' for Active; 'I' for Inactive)
    1  A    between atoms: C_1  and  C_2
    2  A    between atoms: C_1  and  S_30
    3  A    between atoms: C_2  and  O_5
    4  A    between atoms: C_2  and  C_27
    5  A    between atoms: C_4  and  C_29
    6  A    between atoms: C_4  and  S_30
    7  A    between atoms: O_5  and  C_14
    8  A    between atoms: C_7  and  C_26
    9  A    between atoms: C_7  and  C_31
   10  A    between atoms: C_9  and  C_31
   11  A    between atoms: C_9  and  N_32
   12  A    between atoms: C_16  and  C_20
   13  A    between atoms: C_16  and  C_27
   14  A    between atoms: C_17  and  C_29
   15  A    between atoms: C_18  and  C_25
   16  A    between atoms: C_18  and  C_29
   17  A    between atoms: C_28  and  N_32
                            x       y       z     vdW  Elec       q    Type
                         _______ _______ _______ _____ _____    ______ ____

>  <TORSDO>
F 17

$$$$
=
 OpenBabel10272413203D

 32 33  0  0  1  0  0  0  0  0999 V2000
  188.5950  178.5730  138.5400 C   0  0  0  0  0  0  0  0  0  0  0  0
  188.9800  179.5340  137.8870 O   0  0  0  0  0  0  0  0  0  0  0  0
  187.2460  176.0490  136.0130 C   0  0  0  0  0  0  0  0  0  0  0  0
  187.5650  175.4290  135.0130 O   0  0  0  0  0  0  0  0  0  0  0  0
  186.3110  178.2360  137.6220 C   0  0  0  0  0  2  0  0  0  0  0  0
  185.8610  175.8970  136.5730 C   0  0  0  0  0  2  0  0  0  0  0  0
  187.6520  177.5780  137.9440 C   0  0  1  0  0  3  0  0  0  0  0  0
  188.2510  176.9310  136.6960 C   0  0  0  0  0  2  0  0  0  0  0  0
  185.2870  177.2440  137.0430 C   0  0  1  0  0  3  0  0  0  0  0  0
  184.0910  177.0500  137.9750 C   0  0  0  0  0  2  0  0  0  0  0  0
  183.9030  178.2060  138.9560 C   0  0  0  0  0  2  0  0  0  0  0  0
  183.4190  177.7190  140.3120 C   0  0  0  0  0  2  0  0  0  0  0  0
  183.5800  178.7690  141.3030 N   0  0  0  0  0  2  0  0  0  0  0  0
  183.8670  178.9550  143.6950 C   0  0  0  0  0  2  0  0  0  0  0  0
  185.2180  179.1410  143.0430 C   0  0  0  0  0  2  0  0  0  0  0  0
  184.2240  178.1630  142.4530 C   0  0  0  0  0  3  0  0  0  0  0  0
  187.9330  178.1590  140.7740 O   0  0  0  0  0  1  0  0  0  0  0  0
  189.0430  178.3900  139.9570 C   0  0  1  0  0  3  0  0  0  0  0  0
  190.0450  177.2380  140.0870 C   0  0  2  0  0  3  0  0  0  0  0  0
  190.7990  177.3030  141.4130 C   0  0  0  0  0  2  0  0  0  0  0  0
  190.0990  176.1520  142.6430 S   0  0  0  0  0  0  0  0  0  0  0  0
  189.8450  177.4850  143.8510 C   0  0  2  0  0  3  0  0  0  0  0  0
  190.8130  178.6300  143.5850 C   0  0  0  0  0  1  0  0  0  0  0  0
  189.9380  176.9440  145.2790 C   0  0  1  0  0  3  0  0  0  0  0  0
  191.9830  175.9110  145.9920 O   0  0  0  0  0  1  0  0  0  0  0  0
  191.3280  177.1380  145.8820 C   0  0  0  0  0  2  0  0  0  0  0  0
  188.8630  177.5750  146.1530 C   0  0  0  0  0  2  0  0  0  0  0  0
  186.4540  178.0900  146.3800 C   0  0  0  0  0  1  0  0  0  0  0  0
  187.5130  177.5140  145.4650 C   0  0  0  0  0  2  0  0  0  0  0  0
  190.9540  177.2480  139.0220 O   0  0  0  0  0  0  0  0  0  0  0  0
  191.1330  175.9040  138.6870 C   0  0  0  0  0  2  0  0  0  0  0  0
  192.0410  175.8030  137.4790 C   0  0  0  0  0  1  0  0  0  0  0  0
  1 18  1  0  0  0  0
  2  1  2  0  0  0  0
  3  6  1  0  0  0  0
  3  8  1  0  0  0  0
  4  3  2  0  0  0  0
  5  7  1  0  0  0  0
  6  9  1  0  0  0  0
  7  1  1  6  0  0  0
  8  7  1  0  0  0  0
  9  5  1  0  0  0  0
  9 10  1  1  0  0  0
 10 11  1  0  0  0  0
 11 12  1  0  0  0  0
 12 13  1  0  0  0  0
 13 16  1  0  0  0  0
 15 14  1  0  0  0  0
 16 15  1  0  0  0  0
 16 14  1  0  0  0  0
 18 19  1  0  0  0  0
 18 17  1  1  0  0  0
 19 20  1  1  0  0  0
 20 21  1  0  0  0  0
 21 22  1  0  0  0  0
 22 23  1  1  0  0  0
 22 24  1  0  0  0  0
 24 26  1  1  0  0  0
 24 27  1  0  0  0  0
 26 25  1  0  0  0  0
 29 27  1  0  0  0  0
 29 28  1  0  0  0  0
 30 19  1  0  0  0  0
 31 30  1  0  0  0  0
 32 31  1  0  0  0  0
M  END
>  <MODEL>
9

>  <REMARK>
 VINA RESULT:      -6.1      2.083      7.384
  Name = 
  17 active torsions:
  status: ('A' for Active; 'I' for Inactive)
    1  A    between atoms: C_1  and  C_2
    2  A    between atoms: C_1  and  S_30
    3  A    between atoms: C_2  and  O_5
    4  A    between atoms: C_2  and  C_27
    5  A    between atoms: C_4  and  C_29
    6  A    between atoms: C_4  and  S_30
    7  A    between atoms: O_5  and  C_14
    8  A    between atoms: C_7  and  C_26
    9  A    between atoms: C_7  and  C_31
   10  A    between atoms: C_9  and  C_31
   11  A    between atoms: C_9  and  N_32
   12  A    between atoms: C_16  and  C_20
   13  A    between atoms: C_16  and  C_27
   14  A    between atoms: C_17  and  C_29
   15  A    between atoms: C_18  and  C_25
   16  A    between atoms: C_18  and  C_29
   17  A    between atoms: C_28  and  N_32
                            x       y       z     vdW  Elec       q    Type
                         _______ _______ _______ _____ _____    ______ ____

>  <TORSDO>
F 17

$$$$
