=
 OpenBabel10272400313D

 31 35  0  0  1  0  0  0  0  0999 V2000
  186.9990  178.4430  146.5520 C   0  0  0  0  0  0  0  0  0  0  0  0
  186.9430  177.3660  142.8690 C   0  0  1  0  0  3  0  0  0  0  0  0
  188.4180  177.0670  142.6820 C   0  0  0  0  0  0  0  0  0  0  0  0
  189.9980  176.1080  144.3060 C   0  0  0  0  0  3  0  0  0  0  0  0
  186.5600  177.8780  144.2350 C   0  0  0  0  0  0  0  0  0  0  0  0
  185.6650  178.8360  146.7110 C   0  0  0  0  0  3  0  0  0  0  0  0
  188.9360  175.8110  143.3060 C   0  0  0  0  0  2  0  0  0  0  0  0
  184.9920  178.8010  142.0440 N   0  0  0  0  0  0  0  0  0  0  0  0
  187.8560  178.5220  147.5970 F   0  0  0  0  0  0  0  0  0  0  0  0
  188.6260  178.8870  140.9970 C   0  0  0  0  0  2  0  0  0  0  0  0
  191.1540  176.6710  143.9660 C   0  0  0  0  0  3  0  0  0  0  0  0
  184.3340  178.1950  143.2120 C   0  0  0  0  0  2  0  0  0  0  0  0
  186.3400  178.2580  141.7520 C   0  0  1  0  0  3  0  0  0  0  0  0
  187.4480  177.9630  145.3170 C   0  0  0  0  0  3  0  0  0  0  0  0
  191.4730  177.1060  142.6360 N   0  0  0  0  0  0  0  0  0  0  0  0
  185.2320  178.2760  144.4000 C   0  0  0  0  0  0  0  0  0  0  0  0
  184.7780  178.7530  145.6330 C   0  0  0  0  0  3  0  0  0  0  0  0
  187.2860  179.4200  141.4800 C   0  0  0  0  0  2  0  0  0  0  0  0
  189.2140  177.8440  141.9120 C   0  0  0  0  0  0  0  0  0  0  0  0
  190.6650  177.6010  141.7410 C   0  0  0  0  0  3  0  0  0  0  0  0
  184.1660  178.5210  140.8780 C   0  0  0  0  0  2  0  0  0  0  0  0
  184.1940  180.2870  139.2620 O   0  0  0  0  0  1  0  0  0  0  0  0
  184.8120  179.0890  139.6190 C   0  0  2  0  0  3  0  0  0  0  0  0
  184.5760  176.2980  136.3510 C   0  0  0  0  0  0  0  0  0  0  0  0
  183.4950  177.5470  138.1230 C   0  0  0  0  0  3  0  0  0  0  0  0
  187.0880  178.2900  138.1090 F   0  0  0  0  0  0  0  0  0  0  0  0
  184.4800  175.1630  135.0220 Cl  0  0  0  0  0  0  0  0  0  0  0  0
  183.4200  176.6420  137.0600 C   0  0  0  0  0  3  0  0  0  0  0  0
  185.8850  177.7650  137.7710 C   0  0  0  0  0  0  0  0  0  0  0  0
  184.7290  178.1110  138.4870 C   0  0  0  0  0  0  0  0  0  0  0  0
  185.8070  176.8590  136.7070 C   0  0  0  0  0  3  0  0  0  0  0  0
  1  6  1  0  0  0  0
  1  9  1  0  0  0  0
  2  3  1  1  0  0  0
  2  5  1  0  0  0  0
  3  7  1  0  0  0  0
  5 16  2  0  0  0  0
  5 14  1  0  0  0  0
  7  4  1  0  0  0  0
  8 12  1  0  0  0  0
 10 18  1  0  0  0  0
 10 19  1  0  0  0  0
 11  4  2  0  0  0  0
 12 16  1  0  0  0  0
 13 18  1  1  0  0  0
 13  8  1  0  0  0  0
 13  2  1  0  0  0  0
 14  1  2  0  0  0  0
 15 11  1  0  0  0  0
 16 17  1  0  0  0  0
 17  6  2  0  0  0  0
 19  3  2  0  0  0  0
 20 19  1  0  0  0  0
 20 15  2  0  0  0  0
 21  8  1  0  0  0  0
 23 22  1  6  0  0  0
 23 21  1  0  0  0  0
 24 31  2  0  0  0  0
 24 28  1  0  0  0  0
 25 30  1  0  0  0  0
 27 24  1  0  0  0  0
 28 25  2  0  0  0  0
 29 26  1  0  0  0  0
 29 30  2  0  0  0  0
 30 23  1  0  0  0  0
 31 29  1  0  0  0  0
M  END
>  <MODEL>
1

>  <REMARK>
 VINA RESULT:      -8.9      0.000      0.000
  Name = 
  3 active torsions:
  status: ('A' for Active; 'I' for Inactive)
    1  A    between atoms: C_9  and  C_22
    2  A    between atoms: C_9  and  C_23
    3  A    between atoms: N_15  and  C_23
                            x       y       z     vdW  Elec       q    Type
                         _______ _______ _______ _____ _____    ______ ____

>  <TORSDO>
F 3

$$$$
=
 OpenBabel10272400313D

 31 35  0  0  1  0  0  0  0  0999 V2000
  193.0460  176.7720  137.9620 C   0  0  0  0  0  0  0  0  0  0  0  0
  189.3950  176.3620  139.0730 C   0  0  1  0  0  3  0  0  0  0  0  0
  188.7570  176.1190  137.7200 C   0  0  0  0  0  0  0  0  0  0  0  0
  189.6850  174.9060  135.7900 C   0  0  0  0  0  3  0  0  0  0  0  0
  190.8800  176.6210  139.0450 C   0  0  0  0  0  0  0  0  0  0  0  0
  193.6350  177.1160  139.1850 C   0  0  0  0  0  3  0  0  0  0  0  0
  188.9840  174.7780  137.0980 C   0  0  0  0  0  2  0  0  0  0  0  0
  189.4070  177.8960  141.1200 N   0  0  0  0  0  0  0  0  0  0  0  0
  193.8080  176.6760  136.8480 F   0  0  0  0  0  0  0  0  0  0  0  0
  187.4200  178.2100  137.9160 C   0  0  0  0  0  2  0  0  0  0  0  0
  189.1390  175.5350  134.7520 C   0  0  0  0  0  3  0  0  0  0  0  0
  190.5880  177.0870  141.4530 C   0  0  0  0  0  2  0  0  0  0  0  0
  188.6610  177.4300  139.9270 C   0  0  1  0  0  3  0  0  0  0  0  0
  191.6710  176.5240  137.8900 C   0  0  0  0  0  3  0  0  0  0  0  0
  187.8690  176.2010  134.7970 N   0  0  0  0  0  0  0  0  0  0  0  0
  191.4750  176.9670  140.2600 C   0  0  0  0  0  0  0  0  0  0  0  0
  192.8490  177.2130  140.3370 C   0  0  0  0  0  3  0  0  0  0  0  0
  188.3420  178.6330  139.0500 C   0  0  0  0  0  2  0  0  0  0  0  0
  187.9410  177.0290  137.1390 C   0  0  0  0  0  0  0  0  0  0  0  0
  187.3330  176.8370  135.8010 C   0  0  0  0  0  3  0  0  0  0  0  0
  188.4860  177.8170  142.2460 C   0  0  0  0  0  2  0  0  0  0  0  0
  188.1150  175.5410  142.8920 O   0  0  0  0  0  1  0  0  0  0  0  0
  188.8790  176.6730  143.1750 C   0  0  2  0  0  3  0  0  0  0  0  0
  188.3770  177.7760  147.3040 C   0  0  0  0  0  0  0  0  0  0  0  0
  187.4480  177.4730  145.0890 C   0  0  0  0  0  3  0  0  0  0  0  0
  191.0180  176.6300  145.0510 F   0  0  0  0  0  0  0  0  0  0  0  0
  188.1730  178.2250  148.9850 Cl  0  0  0  0  0  0  0  0  0  0  0  0
  187.2860  177.8290  146.4310 C   0  0  0  0  0  3  0  0  0  0  0  0
  189.7950  177.0120  145.4920 C   0  0  0  0  0  0  0  0  0  0  0  0
  188.7040  177.0660  144.6100 C   0  0  0  0  0  0  0  0  0  0  0  0
  189.6300  177.3690  146.8350 C   0  0  0  0  0  3  0  0  0  0  0  0
  1  6  1  0  0  0  0
  2  3  1  6  0  0  0
  2 13  1  0  0  0  0
  4  7  1  0  0  0  0
  5  2  1  0  0  0  0
  5 16  2  0  0  0  0
  6 17  2  0  0  0  0
  7  3  1  0  0  0  0
  8 12  1  0  0  0  0
  8 21  1  0  0  0  0
  9  1  1  0  0  0  0
 10 18  1  0  0  0  0
 11 15  1  0  0  0  0
 11  4  2  0  0  0  0
 13 18  1  6  0  0  0
 13  8  1  0  0  0  0
 14  1  2  0  0  0  0
 14  5  1  0  0  0  0
 15 20  2  0  0  0  0
 16 17  1  0  0  0  0
 16 12  1  0  0  0  0
 19  3  2  0  0  0  0
 19 10  1  0  0  0  0
 20 19  1  0  0  0  0
 21 23  1  0  0  0  0
 23 22  1  6  0  0  0
 23 30  1  0  0  0  0
 24 27  1  0  0  0  0
 25 28  1  0  0  0  0
 26 29  1  0  0  0  0
 28 24  2  0  0  0  0
 29 31  2  0  0  0  0
 30 25  2  0  0  0  0
 30 29  1  0  0  0  0
 31 24  1  0  0  0  0
M  END
>  <MODEL>
2

>  <REMARK>
 VINA RESULT:      -8.6      4.369      8.233
  Name = 
  3 active torsions:
  status: ('A' for Active; 'I' for Inactive)
    1  A    between atoms: C_9  and  C_22
    2  A    between atoms: C_9  and  C_23
    3  A    between atoms: N_15  and  C_23
                            x       y       z     vdW  Elec       q    Type
                         _______ _______ _______ _____ _____    ______ ____

>  <TORSDO>
F 3

$$$$
=
 OpenBabel10272400313D

 31 35  0  0  1  0  0  0  0  0999 V2000
  187.9480  177.8180  136.6160 C   0  0  0  0  0  0  0  0  0  0  0  0
  184.9770  177.6960  139.0420 C   0  0  1  0  0  3  0  0  0  0  0  0
  183.8820  177.3170  138.0640 C   0  0  0  0  0  0  0  0  0  0  0  0
  184.0340  175.8430  136.1000 C   0  0  0  0  0  3  0  0  0  0  0  0
  186.3430  177.8890  138.4330 C   0  0  0  0  0  0  0  0  0  0  0  0
  188.9480  178.2830  137.4790 C   0  0  0  0  0  3  0  0  0  0  0  0
  183.8710  175.9030  137.5790 C   0  0  0  0  0  2  0  0  0  0  0  0
  185.7400  179.4660  140.7250 N   0  0  0  0  0  0  0  0  0  0  0  0
  188.2420  177.5560  135.3200 F   0  0  0  0  0  0  0  0  0  0  0  0
  182.7010  179.4700  138.4720 C   0  0  0  0  0  2  0  0  0  0  0  0
  183.1370  176.3630  135.2660 C   0  0  0  0  0  3  0  0  0  0  0  0
  186.9660  178.6550  140.6970 C   0  0  0  0  0  2  0  0  0  0  0  0
  184.6070  178.8890  139.9620 C   0  0  1  0  0  3  0  0  0  0  0  0
  186.6470  177.6200  137.0900 C   0  0  0  0  0  3  0  0  0  0  0  0
  181.9700  177.0810  135.6930 N   0  0  0  0  0  0  0  0  0  0  0  0
  187.3450  178.3540  139.2860 C   0  0  0  0  0  0  0  0  0  0  0  0
  188.6470  178.5520  138.8170 C   0  0  0  0  0  3  0  0  0  0  0  0
  183.9760  179.9890  139.1200 C   0  0  0  0  0  2  0  0  0  0  0  0
  182.9030  178.1830  137.7150 C   0  0  0  0  0  0  0  0  0  0  0  0
  181.8420  177.8560  136.7340 C   0  0  0  0  0  3  0  0  0  0  0  0
  185.3050  179.5610  142.1120 C   0  0  0  0  0  2  0  0  0  0  0  0
  183.8130  177.8270  142.8170 O   0  0  0  0  0  1  0  0  0  0  0  0
  185.1620  178.1710  142.7210 C   0  0  2  0  0  3  0  0  0  0  0  0
  186.9970  177.9760  146.6090 C   0  0  0  0  0  0  0  0  0  0  0  0
  185.2810  178.8550  145.1440 C   0  0  0  0  0  3  0  0  0  0  0  0
  187.4530  176.5740  143.2630 F   0  0  0  0  0  0  0  0  0  0  0  0
  187.7450  177.8960  148.1910 Cl  0  0  0  0  0  0  0  0  0  0  0  0
  185.8770  178.7890  146.4070 C   0  0  0  0  0  3  0  0  0  0  0  0
  186.9260  177.2950  144.2830 C   0  0  0  0  0  0  0  0  0  0  0  0
  185.8040  178.1110  144.0740 C   0  0  0  0  0  0  0  0  0  0  0  0
  187.5210  177.2300  145.5470 C   0  0  0  0  0  3  0  0  0  0  0  0
  1 14  2  0  0  0  0
  1  6  1  0  0  0  0
  2  3  1  6  0  0  0
  2 13  1  0  0  0  0
  4  7  1  0  0  0  0
  5  2  1  0  0  0  0
  5 16  2  0  0  0  0
  6 17  2  0  0  0  0
  7  3  1  0  0  0  0
  8 21  1  0  0  0  0
  9  1  1  0  0  0  0
 10 18  1  0  0  0  0
 11 15  1  0  0  0  0
 11  4  2  0  0  0  0
 12  8  1  0  0  0  0
 13 18  1  6  0  0  0
 13  8  1  0  0  0  0
 14  5  1  0  0  0  0
 15 20  2  0  0  0  0
 16 12  1  0  0  0  0
 17 16  1  0  0  0  0
 19  3  2  0  0  0  0
 19 10  1  0  0  0  0
 20 19  1  0  0  0  0
 21 23  1  0  0  0  0
 23 22  1  1  0  0  0
 23 30  1  0  0  0  0
 24 27  1  0  0  0  0
 25 28  2  0  0  0  0
 26 29  1  0  0  0  0
 28 24  1  0  0  0  0
 29 31  1  0  0  0  0
 30 29  2  0  0  0  0
 30 25  1  0  0  0  0
 31 24  2  0  0  0  0
M  END
>  <MODEL>
3

>  <REMARK>
 VINA RESULT:      -8.1      3.419      7.957
  Name = 
  3 active torsions:
  status: ('A' for Active; 'I' for Inactive)
    1  A    between atoms: C_9  and  C_22
    2  A    between atoms: C_9  and  C_23
    3  A    between atoms: N_15  and  C_23
                            x       y       z     vdW  Elec       q    Type
                         _______ _______ _______ _____ _____    ______ ____

>  <TORSDO>
F 3

$$$$
=
 OpenBabel10272400313D

 31 35  0  0  1  0  0  0  0  0999 V2000
  187.9370  178.3660  146.7230 C   0  0  0  0  0  0  0  0  0  0  0  0
  187.1820  177.1160  143.1730 C   0  0  1  0  0  3  0  0  0  0  0  0
  188.6020  176.9240  142.6780 C   0  0  0  0  0  0  0  0  0  0  0  0
  190.5700  176.1660  143.9440 C   0  0  0  0  0  3  0  0  0  0  0  0
  187.0590  177.6610  144.5740 C   0  0  0  0  0  0  0  0  0  0  0  0
  186.6390  178.6630  147.1570 C   0  0  0  0  0  3  0  0  0  0  0  0
  189.3470  175.7410  143.2090 C   0  0  0  0  0  2  0  0  0  0  0  0
  184.9840  178.3570  142.7530 N   0  0  0  0  0  0  0  0  0  0  0  0
  188.9890  178.5600  147.5520 F   0  0  0  0  0  0  0  0  0  0  0  0
  188.2870  178.6730  140.9350 C   0  0  0  0  0  2  0  0  0  0  0  0
  191.5740  176.8000  143.3440 C   0  0  0  0  0  3  0  0  0  0  0  0
  184.6460  177.7580  144.0530 C   0  0  0  0  0  2  0  0  0  0  0  0
  186.2790  177.9060  142.1890 C   0  0  1  0  0  3  0  0  0  0  0  0
  188.1490  177.8650  145.4340 C   0  0  0  0  0  3  0  0  0  0  0  0
  191.5600  177.1950  141.9650 N   0  0  0  0  0  0  0  0  0  0  0  0
  185.7690  177.9630  145.0140 C   0  0  0  0  0  0  0  0  0  0  0  0
  185.5520  178.4610  146.3020 C   0  0  0  0  0  3  0  0  0  0  0  0
  187.0410  179.1230  141.6840 C   0  0  0  0  0  2  0  0  0  0  0  0
  189.1440  177.7220  141.7300 C   0  0  0  0  0  0  0  0  0  0  0  0
  190.5400  177.5840  141.2530 C   0  0  0  0  0  3  0  0  0  0  0  0
  183.9530  177.9600  141.8040 C   0  0  0  0  0  2  0  0  0  0  0  0
  182.0480  179.1340  142.6550 O   0  0  0  0  0  1  0  0  0  0  0  0
  182.9550  179.0930  141.5960 C   0  0  2  0  0  3  0  0  0  0  0  0
  180.8440  178.6500  137.8730 C   0  0  0  0  0  0  0  0  0  0  0  0
  181.0290  178.1930  140.2430 C   0  0  0  0  0  3  0  0  0  0  0  0
  183.8740  180.2410  139.1600 F   0  0  0  0  0  0  0  0  0  0  0  0
  179.9850  178.4690  136.3570 Cl  0  0  0  0  0  0  0  0  0  0  0  0
  180.3430  178.0510  139.0330 C   0  0  0  0  0  3  0  0  0  0  0  0
  182.7190  179.5310  139.1320 C   0  0  0  0  0  0  0  0  0  0  0  0
  182.2230  178.9300  140.2990 C   0  0  0  0  0  0  0  0  0  0  0  0
  182.0310  179.3880  137.9220 C   0  0  0  0  0  3  0  0  0  0  0  0
  1  6  1  0  0  0  0
  1  9  1  0  0  0  0
  2  3  1  6  0  0  0
  2  5  1  0  0  0  0
  3  7  1  0  0  0  0
  5 16  2  0  0  0  0
  5 14  1  0  0  0  0
  7  4  1  0  0  0  0
  8 12  1  0  0  0  0
 10 18  1  0  0  0  0
 10 19  1  0  0  0  0
 11  4  2  0  0  0  0
 12 16  1  0  0  0  0
 13 18  1  1  0  0  0
 13  8  1  0  0  0  0
 13  2  1  0  0  0  0
 14  1  2  0  0  0  0
 15 11  1  0  0  0  0
 16 17  1  0  0  0  0
 17  6  2  0  0  0  0
 19  3  2  0  0  0  0
 20 19  1  0  0  0  0
 20 15  2  0  0  0  0
 21  8  1  0  0  0  0
 23 21  1  0  0  0  0
 23 22  1  1  0  0  0
 24 31  2  0  0  0  0
 24 28  1  0  0  0  0
 25 30  1  0  0  0  0
 27 24  1  0  0  0  0
 28 25  2  0  0  0  0
 29 26  1  0  0  0  0
 29 30  2  0  0  0  0
 30 23  1  0  0  0  0
 31 29  1  0  0  0  0
M  END
>  <MODEL>
4

>  <REMARK>
 VINA RESULT:      -8.0      2.265      2.413
  Name = 
  3 active torsions:
  status: ('A' for Active; 'I' for Inactive)
    1  A    between atoms: C_9  and  C_22
    2  A    between atoms: C_9  and  C_23
    3  A    between atoms: N_15  and  C_23
                            x       y       z     vdW  Elec       q    Type
                         _______ _______ _______ _____ _____    ______ ____

>  <TORSDO>
F 3

$$$$
=
 OpenBabel10272400313D

 31 35  0  0  1  0  0  0  0  0999 V2000
  185.2060  178.9430  144.6780 C   0  0  0  0  0  0  0  0  0  0  0  0
  188.5320  177.0330  144.5370 C   0  0  1  0  0  3  0  0  0  0  0  0
  188.9560  177.1800  145.9860 C   0  0  0  0  0  0  0  0  0  0  0  0
  187.5380  177.1990  147.9970 C   0  0  0  0  0  3  0  0  0  0  0  0
  187.2370  177.7170  144.1750 C   0  0  0  0  0  0  0  0  0  0  0  0
  184.8550  178.9210  143.3230 C   0  0  0  0  0  3  0  0  0  0  0  0
  188.2270  176.3450  146.9900 C   0  0  0  0  0  2  0  0  0  0  0  0
  189.1950  177.5280  142.1160 N   0  0  0  0  0  0  0  0  0  0  0  0
  184.3910  179.5440  145.5780 F   0  0  0  0  0  0  0  0  0  0  0  0
  190.9590  178.4990  145.3190 C   0  0  0  0  0  2  0  0  0  0  0  0
  188.2060  177.9970  148.8250 C   0  0  0  0  0  3  0  0  0  0  0  0
  187.8250  177.0530  141.8700 C   0  0  0  0  0  2  0  0  0  0  0  0
  189.6490  177.3850  143.5200 C   0  0  1  0  0  3  0  0  0  0  0  0
  186.3940  178.3420  145.1060 C   0  0  0  0  0  3  0  0  0  0  0  0
  189.6300  178.1690  148.7960 N   0  0  0  0  0  0  0  0  0  0  0  0
  186.8820  177.7030  142.8250 C   0  0  0  0  0  0  0  0  0  0  0  0
  185.6940  178.3000  142.3930 C   0  0  0  0  0  3  0  0  0  0  0  0
  190.3210  178.6820  143.9510 C   0  0  0  0  0  2  0  0  0  0  0  0
  190.0040  177.9530  146.3490 C   0  0  0  0  0  0  0  0  0  0  0  0
  190.4190  178.1470  147.7580 C   0  0  0  0  0  3  0  0  0  0  0  0
  190.0950  176.7240  141.3010 C   0  0  0  0  0  2  0  0  0  0  0  0
  189.5550  178.2380  139.5270 O   0  0  0  0  0  1  0  0  0  0  0  0
  190.6050  177.5330  140.1140 C   0  0  2  0  0  3  0  0  0  0  0  0
  192.4820  174.9970  137.1880 C   0  0  0  0  0  0  0  0  0  0  0  0
  190.4840  175.7770  138.3110 C   0  0  0  0  0  3  0  0  0  0  0  0
  193.4170  177.5050  139.6790 F   0  0  0  0  0  0  0  0  0  0  0  0
  193.2470  173.9650  135.9980 Cl  0  0  0  0  0  0  0  0  0  0  0  0
  191.0950  174.9550  137.3600 C   0  0  0  0  0  3  0  0  0  0  0  0
  192.6490  176.6830  138.9230 C   0  0  0  0  0  0  0  0  0  0  0  0
  191.2570  176.6430  139.1010 C   0  0  0  0  0  0  0  0  0  0  0  0
  193.2580  175.8590  137.9700 C   0  0  0  0  0  3  0  0  0  0  0  0
  1 14  1  0  0  0  0
  1  9  1  0  0  0  0
  2  5  1  6  0  0  0
  2  3  1  0  0  0  0
  3 19  2  0  0  0  0
  3  7  1  0  0  0  0
  4 11  2  0  0  0  0
  5 14  2  0  0  0  0
  6  1  2  0  0  0  0
  7  4  1  0  0  0  0
  8 13  1  0  0  0  0
 10 19  1  0  0  0  0
 12  8  1  0  0  0  0
 12 16  1  0  0  0  0
 13 18  1  1  0  0  0
 13  2  1  0  0  0  0
 15 11  1  0  0  0  0
 16  5  1  0  0  0  0
 17 16  2  0  0  0  0
 17  6  1  0  0  0  0
 18 10  1  0  0  0  0
 19 20  1  0  0  0  0
 20 15  2  0  0  0  0
 21  8  1  0  0  0  0
 23 22  1  6  0  0  0
 23 21  1  0  0  0  0
 24 28  2  0  0  0  0
 24 31  1  0  0  0  0
 25 30  2  0  0  0  0
 27 24  1  0  0  0  0
 28 25  1  0  0  0  0
 29 30  1  0  0  0  0
 29 26  1  0  0  0  0
 30 23  1  0  0  0  0
 31 29  2  0  0  0  0
M  END
>  <MODEL>
5

>  <REMARK>
 VINA RESULT:      -7.9      3.622      5.359
  Name = 
  3 active torsions:
  status: ('A' for Active; 'I' for Inactive)
    1  A    between atoms: C_9  and  C_22
    2  A    between atoms: C_9  and  C_23
    3  A    between atoms: N_15  and  C_23
                            x       y       z     vdW  Elec       q    Type
                         _______ _______ _______ _____ _____    ______ ____

>  <TORSDO>
F 3

$$$$
=
 OpenBabel10272400313D

 31 35  0  0  1  0  0  0  0  0999 V2000
  185.6800  179.0740  145.9780 C   0  0  0  0  0  0  0  0  0  0  0  0
  188.2070  177.3350  143.6720 C   0  0  1  0  0  3  0  0  0  0  0  0
  189.3370  177.1300  144.6620 C   0  0  0  0  0  0  0  0  0  0  0  0
  189.1850  176.6200  147.0650 C   0  0  0  0  0  3  0  0  0  0  0  0
  187.0000  178.0580  144.2150 C   0  0  0  0  0  0  0  0  0  0  0  0
  184.6750  179.3790  145.0510 C   0  0  0  0  0  3  0  0  0  0  0  0
  189.1480  176.0570  145.6870 C   0  0  0  0  0  2  0  0  0  0  0  0
  187.5650  178.4280  141.4490 N   0  0  0  0  0  0  0  0  0  0  0  0
  185.5260  179.4150  147.2790 F   0  0  0  0  0  0  0  0  0  0  0  0
  190.8340  178.6180  143.3430 C   0  0  0  0  0  2  0  0  0  0  0  0
  190.2720  177.2040  147.5630 C   0  0  0  0  0  3  0  0  0  0  0  0
  186.2240  177.9960  141.8710 C   0  0  0  0  0  2  0  0  0  0  0  0
  188.6640  177.9530  142.3230 C   0  0  1  0  0  3  0  0  0  0  0  0
  186.8410  178.4140  145.5630 C   0  0  0  0  0  3  0  0  0  0  0  0
  191.4820  177.4100  146.8200 N   0  0  0  0  0  0  0  0  0  0  0  0
  185.9950  178.3680  143.2970 C   0  0  0  0  0  0  0  0  0  0  0  0
  184.8320  179.0260  143.7080 C   0  0  0  0  0  3  0  0  0  0  0  0
  189.6020  179.1190  142.6040 C   0  0  0  0  0  2  0  0  0  0  0  0
  190.5010  177.8140  144.5730 C   0  0  0  0  0  0  0  0  0  0  0  0
  191.6070  177.6630  145.5470 C   0  0  0  0  0  3  0  0  0  0  0  0
  187.8120  177.8700  140.1260 C   0  0  0  0  0  2  0  0  0  0  0  0
  188.9750  179.4110  138.7100 O   0  0  0  0  0  1  0  0  0  0  0  0
  189.1580  178.3460  139.5910 C   0  0  2  0  0  3  0  0  0  0  0  0
  191.2570  175.1580  137.6040 C   0  0  0  0  0  0  0  0  0  0  0  0
  189.2580  176.4960  137.8830 C   0  0  0  0  0  3  0  0  0  0  0  0
  191.8260  177.6120  140.2540 F   0  0  0  0  0  0  0  0  0  0  0  0
  192.1120  173.8600  136.7960 Cl  0  0  0  0  0  0  0  0  0  0  0  0
  189.9430  175.4610  137.2370 C   0  0  0  0  0  3  0  0  0  0  0  0
  191.2050  176.9220  139.2660 C   0  0  0  0  0  0  0  0  0  0  0  0
  189.8840  177.2300  138.9040 C   0  0  0  0  0  0  0  0  0  0  0  0
  191.8870  175.8870  138.6180 C   0  0  0  0  0  3  0  0  0  0  0  0
  1  9  1  0  0  0  0
  2  5  1  1  0  0  0
  2  3  1  0  0  0  0
  3  7  1  0  0  0  0
  4 11  2  0  0  0  0
  5 14  2  0  0  0  0
  6  1  2  0  0  0  0
  7  4  1  0  0  0  0
  8 12  1  0  0  0  0
  8 13  1  0  0  0  0
 10 19  1  0  0  0  0
 12 16  1  0  0  0  0
 13 18  1  1  0  0  0
 13  2  1  0  0  0  0
 14  1  1  0  0  0  0
 15 11  1  0  0  0  0
 16 17  2  0  0  0  0
 16  5  1  0  0  0  0
 17  6  1  0  0  0  0
 18 10  1  0  0  0  0
 19  3  2  0  0  0  0
 19 20  1  0  0  0  0
 20 15  2  0  0  0  0
 21  8  1  0  0  0  0
 23 22  1  6  0  0  0
 23 21  1  0  0  0  0
 24 31  1  0  0  0  0
 25 30  2  0  0  0  0
 27 24  1  0  0  0  0
 28 24  2  0  0  0  0
 28 25  1  0  0  0  0
 29 26  1  0  0  0  0
 30 29  1  0  0  0  0
 30 23  1  0  0  0  0
 31 29  2  0  0  0  0
M  END
>  <MODEL>
6

>  <REMARK>
 VINA RESULT:      -7.6      3.088      4.041
  Name = 
  3 active torsions:
  status: ('A' for Active; 'I' for Inactive)
    1  A    between atoms: C_9  and  C_22
    2  A    between atoms: C_9  and  C_23
    3  A    between atoms: N_15  and  C_23
                            x       y       z     vdW  Elec       q    Type
                         _______ _______ _______ _____ _____    ______ ____

>  <TORSDO>
F 3

$$$$
=
 OpenBabel10272400313D

 31 35  0  0  1  0  0  0  0  0999 V2000
  191.0750  174.4810  136.2690 C   0  0  0  0  0  0  0  0  0  0  0  0
  188.2390  176.4040  137.9990 C   0  0  1  0  0  3  0  0  0  0  0  0
  187.1690  176.2640  136.9340 C   0  0  0  0  0  0  0  0  0  0  0  0
  186.7400  174.3550  135.4430 C   0  0  0  0  0  3  0  0  0  0  0  0
  189.5720  175.7880  137.6530 C   0  0  0  0  0  0  0  0  0  0  0  0
  192.1110  174.7010  137.1840 C   0  0  0  0  0  3  0  0  0  0  0  0
  186.5210  174.9230  136.8020 C   0  0  0  0  0  2  0  0  0  0  0  0
  189.6300  178.0810  139.3400 N   0  0  0  0  0  0  0  0  0  0  0  0
  191.2990  173.7400  135.1580 F   0  0  0  0  0  0  0  0  0  0  0  0
  187.1270  178.7280  136.5780 C   0  0  0  0  0  2  0  0  0  0  0  0
  186.2590  174.9350  134.3460 C   0  0  0  0  0  3  0  0  0  0  0  0
  190.3220  176.8500  139.7530 C   0  0  0  0  0  2  0  0  0  0  0  0
  188.4170  177.8550  138.5190 C   0  0  1  0  0  3  0  0  0  0  0  0
  189.8060  175.0230  136.5010 C   0  0  0  0  0  3  0  0  0  0  0  0
  185.5480  176.1810  134.3460 N   0  0  0  0  0  0  0  0  0  0  0  0
  190.6120  176.0050  138.5590 C   0  0  0  0  0  0  0  0  0  0  0  0
  191.8800  175.4640  138.3320 C   0  0  0  0  0  3  0  0  0  0  0  0
  188.4460  178.8080  137.3320 C   0  0  0  0  0  2  0  0  0  0  0  0
  186.7460  177.3200  136.2010 C   0  0  0  0  0  0  0  0  0  0  0  0
  185.7300  177.2070  135.1280 C   0  0  0  0  0  3  0  0  0  0  0  0
  189.1960  178.7700  140.5480 C   0  0  0  0  0  2  0  0  0  0  0  0
  186.8460  178.7500  141.0020 O   0  0  0  0  0  1  0  0  0  0  0  0
  188.0270  178.0320  141.1900 C   0  0  2  0  0  3  0  0  0  0  0  0
  188.7100  177.4350  145.3970 C   0  0  0  0  0  0  0  0  0  0  0  0
  189.5520  177.9950  143.1960 C   0  0  0  0  0  3  0  0  0  0  0  0
  185.9620  177.2650  142.9910 F   0  0  0  0  0  0  0  0  0  0  0  0
  188.9880  177.1920  147.1090 Cl  0  0  0  0  0  0  0  0  0  0  0  0
  189.7710  177.8030  144.5640 C   0  0  0  0  0  3  0  0  0  0  0  0
  187.2070  177.4510  143.4940 C   0  0  0  0  0  0  0  0  0  0  0  0
  188.2690  177.8170  142.6530 C   0  0  0  0  0  0  0  0  0  0  0  0
  187.4300  177.2590  144.8620 C   0  0  0  0  0  3  0  0  0  0  0  0
  1 14  2  0  0  0  0
  1  6  1  0  0  0  0
  2  3  1  6  0  0  0
  2 13  1  0  0  0  0
  4  7  1  0  0  0  0
  5  2  1  0  0  0  0
  5 16  2  0  0  0  0
  6 17  2  0  0  0  0
  7  3  1  0  0  0  0
  8 12  1  0  0  0  0
  8 21  1  0  0  0  0
  9  1  1  0  0  0  0
 10 18  1  0  0  0  0
 11  4  2  0  0  0  0
 13 18  1  6  0  0  0
 13  8  1  0  0  0  0
 14  5  1  0  0  0  0
 15 11  1  0  0  0  0
 15 20  2  0  0  0  0
 16 12  1  0  0  0  0
 17 16  1  0  0  0  0
 19 10  1  0  0  0  0
 19  3  2  0  0  0  0
 20 19  1  0  0  0  0
 21 23  1  0  0  0  0
 23 22  1  1  0  0  0
 23 30  1  0  0  0  0
 24 27  1  0  0  0  0
 25 28  1  0  0  0  0
 26 29  1  0  0  0  0
 28 24  2  0  0  0  0
 29 31  2  0  0  0  0
 30 25  2  0  0  0  0
 30 29  1  0  0  0  0
 31 24  1  0  0  0  0
M  END
>  <MODEL>
7

>  <REMARK>
 VINA RESULT:      -7.4      4.164      8.270
  Name = 
  3 active torsions:
  status: ('A' for Active; 'I' for Inactive)
    1  A    between atoms: C_9  and  C_22
    2  A    between atoms: C_9  and  C_23
    3  A    between atoms: N_15  and  C_23
                            x       y       z     vdW  Elec       q    Type
                         _______ _______ _______ _____ _____    ______ ____

>  <TORSDO>
F 3

$$$$
=
 OpenBabel10272400313D

 31 35  0  0  1  0  0  0  0  0999 V2000
  188.3050  176.8960  143.7420 C   0  0  0  0  0  0  0  0  0  0  0  0
  186.0370  179.0020  141.4710 C   0  0  1  0  0  3  0  0  0  0  0  0
  184.8570  179.1790  142.4060 C   0  0  0  0  0  0  0  0  0  0  0  0
  184.8740  179.4440  144.8530 C   0  0  0  0  0  3  0  0  0  0  0  0
  187.1640  178.1570  142.0120 C   0  0  0  0  0  0  0  0  0  0  0  0
  189.3510  176.6210  142.8530 C   0  0  0  0  0  3  0  0  0  0  0  0
  185.0350  180.1340  143.5430 C   0  0  0  0  0  2  0  0  0  0  0  0
  186.7670  178.0920  139.1940 N   0  0  0  0  0  0  0  0  0  0  0  0
  188.3520  176.4210  145.0090 F   0  0  0  0  0  0  0  0  0  0  0  0
  183.3720  177.9200  140.8550 C   0  0  0  0  0  2  0  0  0  0  0  0
  183.7270  178.8820  145.2220 C   0  0  0  0  0  3  0  0  0  0  0  0
  188.0980  178.3980  139.7390 C   0  0  0  0  0  2  0  0  0  0  0  0
  185.6390  178.5470  140.0420 C   0  0  1  0  0  3  0  0  0  0  0  0
  187.2120  177.6630  143.3240 C   0  0  0  0  0  3  0  0  0  0  0  0
  182.5600  178.8230  144.3890 N   0  0  0  0  0  0  0  0  0  0  0  0
  188.2100  177.8760  141.1320 C   0  0  0  0  0  0  0  0  0  0  0  0
  189.3040  177.1120  141.5440 C   0  0  0  0  0  3  0  0  0  0  0  0
  184.6210  177.4190  140.1460 C   0  0  0  0  0  2  0  0  0  0  0  0
  183.6660  178.5800  142.1770 C   0  0  0  0  0  0  0  0  0  0  0  0
  182.5070  178.7030  143.0920 C   0  0  0  0  0  3  0  0  0  0  0  0
  186.6400  178.7890  137.9210 C   0  0  0  0  0  2  0  0  0  0  0  0
  186.7310  178.4660  135.5510 O   0  0  0  0  0  1  0  0  0  0  0  0
  187.0660  177.8820  136.7720 C   0  0  2  0  0  3  0  0  0  0  0  0
  185.2300  174.0020  137.0870 C   0  0  0  0  0  0  0  0  0  0  0  0
  185.0380  176.3870  136.7120 C   0  0  0  0  0  3  0  0  0  0  0  0
  188.5470  175.5210  137.3450 F   0  0  0  0  0  0  0  0  0  0  0  0
  184.4840  172.4230  137.2160 Cl  0  0  0  0  0  0  0  0  0  0  0  0
  184.4430  175.1250  136.8130 C   0  0  0  0  0  3  0  0  0  0  0  0
  187.2080  175.4020  137.1620 C   0  0  0  0  0  0  0  0  0  0  0  0
  186.4230  176.5330  136.8900 C   0  0  0  0  0  0  0  0  0  0  0  0
  186.6110  174.1410  137.2630 C   0  0  0  0  0  3  0  0  0  0  0  0
  1  9  1  0  0  0  0
  2  5  1  1  0  0  0
  2  3  1  0  0  0  0
  3  7  1  0  0  0  0
  4 11  2  0  0  0  0
  5 14  2  0  0  0  0
  6  1  2  0  0  0  0
  7  4  1  0  0  0  0
  8 12  1  0  0  0  0
  8 13  1  0  0  0  0
 10 19  1  0  0  0  0
 12 16  1  0  0  0  0
 13 18  1  1  0  0  0
 13  2  1  0  0  0  0
 14  1  1  0  0  0  0
 15 11  1  0  0  0  0
 16 17  2  0  0  0  0
 16  5  1  0  0  0  0
 17  6  1  0  0  0  0
 18 10  1  0  0  0  0
 19  3  2  0  0  0  0
 19 20  1  0  0  0  0
 20 15  2  0  0  0  0
 21  8  1  0  0  0  0
 23 22  1  6  0  0  0
 23 30  1  0  0  0  0
 23 21  1  0  0  0  0
 24 27  1  0  0  0  0
 24 31  1  0  0  0  0
 25 28  1  0  0  0  0
 25 30  2  0  0  0  0
 28 24  2  0  0  0  0
 29 31  2  0  0  0  0
 29 26  1  0  0  0  0
 30 29  1  0  0  0  0
M  END
>  <MODEL>
8

>  <REMARK>
 VINA RESULT:      -7.4      2.265      4.636
  Name = 
  3 active torsions:
  status: ('A' for Active; 'I' for Inactive)
    1  A    between atoms: C_9  and  C_22
    2  A    between atoms: C_9  and  C_23
    3  A    between atoms: N_15  and  C_23
                            x       y       z     vdW  Elec       q    Type
                         _______ _______ _______ _____ _____    ______ ____

>  <TORSDO>
F 3

$$$$
=
 OpenBabel10272400313D

 31 35  0  0  1  0  0  0  0  0999 V2000
  190.2870  176.7650  139.8120 C   0  0  0  0  0  0  0  0  0  0  0  0
  188.2270  178.5580  142.5090 C   0  0  1  0  0  3  0  0  0  0  0  0
  189.0890  178.2470  143.7170 C   0  0  0  0  0  0  0  0  0  0  0  0
  191.5400  178.0710  143.8390 C   0  0  0  0  0  3  0  0  0  0  0  0
  188.7060  177.9610  141.2090 C   0  0  0  0  0  0  0  0  0  0  0  0
  189.4450  176.9390  138.7070 C   0  0  0  0  0  3  0  0  0  0  0  0
  190.3750  178.9990  143.8390 C   0  0  0  0  0  2  0  0  0  0  0  0
  185.8920  178.2910  141.4960 N   0  0  0  0  0  0  0  0  0  0  0  0
  191.4600  176.1040  139.6700 F   0  0  0  0  0  0  0  0  0  0  0  0
  187.2480  176.9320  144.7560 C   0  0  0  0  0  2  0  0  0  0  0  0
  191.7270  177.1680  144.7970 C   0  0  0  0  0  3  0  0  0  0  0  0
  186.5770  178.8390  140.3150 C   0  0  0  0  0  2  0  0  0  0  0  0
  186.7180  178.2720  142.7280 C   0  0  1  0  0  3  0  0  0  0  0  0
  189.9200  177.2750  141.0620 C   0  0  0  0  0  3  0  0  0  0  0  0
  190.8120  176.9490  145.8800 N   0  0  0  0  0  0  0  0  0  0  0  0
  187.8710  178.1280  140.1020 C   0  0  0  0  0  0  0  0  0  0  0  0
  188.2340  177.6230  138.8510 C   0  0  0  0  0  3  0  0  0  0  0  0
  186.5620  176.9140  143.3990 C   0  0  0  0  0  2  0  0  0  0  0  0
  188.6780  177.4020  144.6910 C   0  0  0  0  0  0  0  0  0  0  0  0
  189.5120  177.0490  145.8630 C   0  0  0  0  0  3  0  0  0  0  0  0
  184.7440  179.1420  141.7750 C   0  0  0  0  0  2  0  0  0  0  0  0
  183.7280  177.1750  140.8650 O   0  0  0  0  0  1  0  0  0  0  0  0
  183.4470  178.4120  141.4440 C   0  0  2  0  0  3  0  0  0  0  0  0
  180.9850  180.7370  138.7890 C   0  0  0  0  0  0  0  0  0  0  0  0
  183.1290  179.7530  139.3340 C   0  0  0  0  0  3  0  0  0  0  0  0
  180.7100  178.9740  141.9800 F   0  0  0  0  0  0  0  0  0  0  0  0
  179.9820  181.6840  137.7090 Cl  0  0  0  0  0  0  0  0  0  0  0  0
  182.3270  180.5060  138.4710 C   0  0  0  0  0  3  0  0  0  0  0  0
  181.2460  179.4630  140.8350 C   0  0  0  0  0  0  0  0  0  0  0  0
  182.5940  179.2290  140.5220 C   0  0  0  0  0  0  0  0  0  0  0  0
  180.4460  180.2170  139.9700 C   0  0  0  0  0  3  0  0  0  0  0  0
  1 14  1  0  0  0  0
  2  5  1  6  0  0  0
  2 13  1  0  0  0  0
  2  3  1  0  0  0  0
  3  7  1  0  0  0  0
  3 19  2  0  0  0  0
  4 11  2  0  0  0  0
  6 17  1  0  0  0  0
  6  1  2  0  0  0  0
  7  4  1  0  0  0  0
  8 21  1  0  0  0  0
  8 13  1  0  0  0  0
  9  1  1  0  0  0  0
 11 15  1  0  0  0  0
 12  8  1  0  0  0  0
 13 18  1  6  0  0  0
 14  5  2  0  0  0  0
 16 12  1  0  0  0  0
 16  5  1  0  0  0  0
 17 16  2  0  0  0  0
 18 10  1  0  0  0  0
 19 10  1  0  0  0  0
 19 20  1  0  0  0  0
 20 15  2  0  0  0  0
 23 22  1  6  0  0  0
 23 21  1  0  0  0  0
 24 31  1  0  0  0  0
 25 30  2  0  0  0  0
 27 24  1  0  0  0  0
 28 24  2  0  0  0  0
 28 25  1  0  0  0  0
 29 26  1  0  0  0  0
 30 29  1  0  0  0  0
 30 23  1  0  0  0  0
 31 29  2  0  0  0  0
M  END
>  <MODEL>
9

>  <REMARK>
 VINA RESULT:      -7.4      3.255      4.951
  Name = 
  3 active torsions:
  status: ('A' for Active; 'I' for Inactive)
    1  A    between atoms: C_9  and  C_22
    2  A    between atoms: C_9  and  C_23
    3  A    between atoms: N_15  and  C_23
                            x       y       z     vdW  Elec       q    Type
                         _______ _______ _______ _____ _____    ______ ____

>  <TORSDO>
F 3

$$$$
