=
 OpenBabel10272413323D

 32 36  0  0  1  0  0  0  0  0999 V2000
  188.7140  177.3310  137.3950 C   0  0  1  0  0  3  0  0  0  0  0  0
  189.1200  177.2050  142.5040 C   0  0  0  0  0  0  0  0  0  0  0  0
  184.7610  178.6360  144.0810 C   0  0  0  0  0  3  0  0  0  0  0  0
  185.1670  178.3970  145.3950 C   0  0  0  0  0  3  0  0  0  0  0  0
  189.6210  177.1890  140.1400 C   0  0  0  0  0  0  0  0  0  0  0  0
  187.4690  177.9040  140.9170 N   0  0  0  0  0  0  0  0  0  0  0  0
  187.8610  177.9870  138.4850 C   0  0  0  0  0  2  0  0  0  0  0  0
  185.6420  178.4060  143.0220 C   0  0  0  0  0  3  0  0  0  0  0  0
  187.8300  177.6890  142.2130 C   0  0  0  0  0  0  0  0  0  0  0  0
  186.9400  177.9350  143.2690 C   0  0  0  0  0  0  0  0  0  0  0  0
  188.6660  177.2280  144.8430 C   0  0  0  0  0  0  0  0  0  0  0  0
  190.2010  177.4930  137.7090 C   0  0  0  0  0  2  0  0  0  0  0  0
  188.3150  177.6560  139.8810 C   0  0  0  0  0  0  0  0  0  0  0  0
  190.5700  176.8280  139.0350 C   0  0  0  0  0  2  0  0  0  0  0  0
  186.4580  177.9300  145.6550 C   0  0  0  0  0  3  0  0  0  0  0  0
  187.3570  177.6970  144.6010 C   0  0  0  0  0  0  0  0  0  0  0  0
  190.0070  176.9520  141.4600 C   0  0  0  0  0  3  0  0  0  0  0  0
  189.4950  176.9850  143.7900 N   0  0  0  0  0  0  0  0  0  0  0  0
  189.4640  178.2250  146.9680 C   0  0  2  0  0  3  0  0  0  0  0  0
  189.1450  176.9300  146.2380 C   0  0  2  0  0  3  0  0  0  0  0  0
  190.5950  177.3530  146.4170 C   0  0  2  0  0  3  0  0  0  0  0  0
  189.1770  178.0520  148.4540 C   0  0  0  0  0  2  0  0  0  0  0  0
  187.7270  177.6650  148.6490 C   0  0  0  0  0  1  0  0  0  0  0  0
  192.2070  177.1820  148.1810 O   0  0  0  0  0  1  0  0  0  0  0  0
  191.2800  176.4460  147.4400 C   0  0  2  0  0  3  0  0  0  0  0  0
  191.9740  175.2780  146.7520 C   0  0  0  0  0  2  0  0  0  0  0  0
  192.1310  175.5300  145.3870 O   0  0  0  0  0  1  0  0  0  0  0  0
  187.1140  175.5160  137.2660 N   0  0  0  0  0  0  0  0  0  0  0  0
  188.3490  175.8940  137.1980 C   0  0  0  0  0  3  0  0  0  0  0  0
  186.7240  174.1520  137.0880 C   0  0  0  0  0  0  0  0  0  0  0  0
  185.3400  173.7350  137.4310 C   0  0  0  0  0  1  0  0  0  0  0  0
  187.5390  173.2980  136.6430 O   0  0  0  0  0  0  0  0  0  0  0  0
  1 29  1  1  0  0  0
  1 12  1  0  0  0  0
  1  7  1  0  0  0  0
  2 18  1  0  0  0  0
  3  4  1  0  0  0  0
  4 15  2  0  0  0  0
  5 17  1  0  0  0  0
  6  9  2  0  0  0  0
  7 13  1  0  0  0  0
  8 10  1  0  0  0  0
  8  3  2  0  0  0  0
  9  2  1  0  0  0  0
  9 10  1  0  0  0  0
 10 16  2  0  0  0  0
 12 14  1  0  0  0  0
 13  5  2  0  0  0  0
 13  6  1  0  0  0  0
 14  5  1  0  0  0  0
 16 11  1  0  0  0  0
 16 15  1  0  0  0  0
 17  2  2  0  0  0  0
 18 11  2  0  0  0  0
 19 22  1  1  0  0  0
 20 11  1  6  0  0  0
 20 21  1  0  0  0  0
 20 19  1  0  0  0  0
 21 19  1  0  0  0  0
 21 25  1  1  0  0  0
 22 23  1  0  0  0  0
 25 24  1  6  0  0  0
 26 25  1  0  0  0  0
 27 26  1  0  0  0  0
 29 28  2  0  0  0  0
 30 28  1  0  0  0  0
 30 31  1  0  0  0  0
 32 30  2  0  0  0  0
M  END
>  <MODEL>
1

>  <REMARK>
 VINA RESULT:      -9.4      0.000      0.000
  Name = 
  6 active torsions:
  status: ('A' for Active; 'I' for Inactive)
    1  A    between atoms: C_1  and  N_10
    2  A    between atoms: C_2  and  C_24
    3  A    between atoms: C_6  and  C_7
    4  A    between atoms: C_11  and  C_22
    5  A    between atoms: C_16  and  C_27
    6  A    between atoms: C_22  and  C_32
                            x       y       z     vdW  Elec       q    Type
                         _______ _______ _______ _____ _____    ______ ____

>  <TORSDO>
F 6

$$$$
=
 OpenBabel10272413323D

 32 36  0  0  1  0  0  0  0  0999 V2000
  181.5650  178.7170  140.4120 C   0  0  1  0  0  3  0  0  0  0  0  0
  186.4500  178.3700  141.9300 C   0  0  0  0  0  0  0  0  0  0  0  0
  186.1620  177.7230  146.7290 C   0  0  0  0  0  3  0  0  0  0  0  0
  187.5490  177.5720  146.7840 C   0  0  0  0  0  3  0  0  0  0  0  0
  184.4520  178.7510  140.6250 C   0  0  0  0  0  0  0  0  0  0  0  0
  184.3070  178.4390  142.9970 N   0  0  0  0  0  0  0  0  0  0  0  0
  182.1970  178.8690  141.7980 C   0  0  0  0  0  2  0  0  0  0  0  0
  185.5310  177.9650  145.5070 C   0  0  0  0  0  3  0  0  0  0  0  0
  185.6590  178.2930  143.0920 C   0  0  0  0  0  0  0  0  0  0  0  0
  186.2830  178.0610  144.3270 C   0  0  0  0  0  0  0  0  0  0  0  0
  188.4410  178.0170  143.1890 C   0  0  0  0  0  0  0  0  0  0  0  0
  182.3920  179.4590  139.3620 C   0  0  0  0  0  2  0  0  0  0  0  0
  183.6860  178.6490  141.8050 C   0  0  0  0  0  0  0  0  0  0  0  0
  183.8150  178.9070  139.2750 C   0  0  0  0  0  2  0  0  0  0  0  0
  188.3100  177.6670  145.6160 C   0  0  0  0  0  3  0  0  0  0  0  0
  187.6900  177.9140  144.3800 C   0  0  0  0  0  0  0  0  0  0  0  0
  185.8370  178.5930  140.6990 C   0  0  0  0  0  3  0  0  0  0  0  0
  187.7980  178.2250  142.0070 N   0  0  0  0  0  0  0  0  0  0  0  0
  190.3660  177.0590  141.9550 C   0  0  2  0  0  3  0  0  0  0  0  0
  189.9350  177.8370  143.1890 C   0  0  2  0  0  3  0  0  0  0  0  0
  190.3060  176.3670  143.3200 C   0  0  2  0  0  3  0  0  0  0  0  0
  191.7520  177.5220  141.5250 C   0  0  0  0  0  2  0  0  0  0  0  0
  191.9290  177.2810  140.0400 C   0  0  0  0  0  1  0  0  0  0  0  0
  192.0100  174.8840  144.1200 O   0  0  0  0  0  1  0  0  0  0  0  0
  191.6450  176.2310  144.0440 C   0  0  2  0  0  3  0  0  0  0  0  0
  191.5700  176.8280  145.4440 C   0  0  0  0  0  2  0  0  0  0  0  0
  192.1170  175.9530  146.3850 O   0  0  0  0  0  1  0  0  0  0  0  0
  181.0310  176.9490  138.8430 N   0  0  0  0  0  0  0  0  0  0  0  0
  181.3780  177.2800  140.0450 C   0  0  0  0  0  3  0  0  0  0  0  0
  180.8390  175.5870  138.4540 C   0  0  0  0  0  0  0  0  0  0  0  0
  181.0070  175.2030  137.0280 C   0  0  0  0  0  1  0  0  0  0  0  0
  180.5290  174.7070  139.3030 O   0  0  0  0  0  0  0  0  0  0  0  0
  1 29  1  6  0  0  0
  1  7  1  0  0  0  0
  2 18  2  0  0  0  0
  2  9  1  0  0  0  0
  3  4  1  0  0  0  0
  5 17  2  0  0  0  0
  5 13  1  0  0  0  0
  6  9  1  0  0  0  0
  7 13  1  0  0  0  0
  8  3  2  0  0  0  0
  9 10  2  0  0  0  0
 10 16  1  0  0  0  0
 10  8  1  0  0  0  0
 11 16  2  0  0  0  0
 12  1  1  0  0  0  0
 13  6  2  0  0  0  0
 14 12  1  0  0  0  0
 14  5  1  0  0  0  0
 15  4  2  0  0  0  0
 16 15  1  0  0  0  0
 17  2  1  0  0  0  0
 18 11  1  0  0  0  0
 19 22  1  1  0  0  0
 19 20  1  0  0  0  0
 19 21  1  0  0  0  0
 20 11  1  6  0  0  0
 20 21  1  0  0  0  0
 21 25  1  1  0  0  0
 23 22  1  0  0  0  0
 25 24  1  1  0  0  0
 25 26  1  0  0  0  0
 26 27  1  0  0  0  0
 28 29  2  0  0  0  0
 30 28  1  0  0  0  0
 30 32  2  0  0  0  0
 31 30  1  0  0  0  0
M  END
>  <MODEL>
2

>  <REMARK>
 VINA RESULT:      -8.8      3.165      5.069
  Name = 
  6 active torsions:
  status: ('A' for Active; 'I' for Inactive)
    1  A    between atoms: C_1  and  N_10
    2  A    between atoms: C_2  and  C_24
    3  A    between atoms: C_6  and  C_7
    4  A    between atoms: C_11  and  C_22
    5  A    between atoms: C_16  and  C_27
    6  A    between atoms: C_22  and  C_32
                            x       y       z     vdW  Elec       q    Type
                         _______ _______ _______ _____ _____    ______ ____

>  <TORSDO>
F 6

$$$$
=
 OpenBabel10272413323D

 32 36  0  0  1  0  0  0  0  0999 V2000
  185.7530  178.4710  137.5240 C   0  0  1  0  0  3  0  0  0  0  0  0
  187.5720  177.7930  142.2700 C   0  0  0  0  0  0  0  0  0  0  0  0
  183.8230  178.8860  145.1490 C   0  0  0  0  0  3  0  0  0  0  0  0
  184.5810  178.5170  146.2610 C   0  0  0  0  0  3  0  0  0  0  0  0
  187.3930  178.0570  139.8740 C   0  0  0  0  0  0  0  0  0  0  0  0
  185.5410  178.6050  141.2950 N   0  0  0  0  0  0  0  0  0  0  0  0
  185.2380  178.9710  138.8760 C   0  0  0  0  0  2  0  0  0  0  0  0
  184.3740  178.8050  143.8680 C   0  0  0  0  0  3  0  0  0  0  0  0
  186.2510  178.2610  142.4060 C   0  0  0  0  0  0  0  0  0  0  0  0
  185.6910  178.3560  143.6880 C   0  0  0  0  0  0  0  0  0  0  0  0
  187.7900  177.5400  144.6290 C   0  0  0  0  0  0  0  0  0  0  0  0
  187.2680  178.6490  137.4300 C   0  0  0  0  0  2  0  0  0  0  0  0
  186.0650  178.5030  140.0440 C   0  0  0  0  0  0  0  0  0  0  0  0
  187.9950  177.8540  138.5150 C   0  0  0  0  0  2  0  0  0  0  0  0
  185.8950  178.0690  146.0970 C   0  0  0  0  0  3  0  0  0  0  0  0
  186.4640  177.9860  144.8160 C   0  0  0  0  0  0  0  0  0  0  0  0
  188.1330  177.6880  140.9990 C   0  0  0  0  0  3  0  0  0  0  0  0
  188.2930  177.4450  143.3670 N   0  0  0  0  0  0  0  0  0  0  0  0
  189.1280  178.3220  146.5630 C   0  0  2  0  0  3  0  0  0  0  0  0
  188.6400  177.1060  145.7910 C   0  0  2  0  0  3  0  0  0  0  0  0
  190.0770  177.5770  145.6200 C   0  0  2  0  0  3  0  0  0  0  0  0
  189.2670  177.9640  148.0370 C   0  0  0  0  0  2  0  0  0  0  0  0
  187.9400  177.4580  148.5630 C   0  0  0  0  0  1  0  0  0  0  0  0
  191.9560  177.2890  147.0780 O   0  0  0  0  0  1  0  0  0  0  0  0
  191.0320  176.5930  146.2960 C   0  0  2  0  0  3  0  0  0  0  0  0
  191.7610  175.7450  145.2610 C   0  0  0  0  0  2  0  0  0  0  0  0
  191.6050  176.2850  143.9820 O   0  0  0  0  0  1  0  0  0  0  0  0
  184.2360  176.5930  137.7350 N   0  0  0  0  0  0  0  0  0  0  0  0
  185.3530  177.0520  137.2710 C   0  0  0  0  0  3  0  0  0  0  0  0
  183.8180  175.2440  137.5190 C   0  0  0  0  0  0  0  0  0  0  0  0
  184.6520  174.3450  136.6790 C   0  0  0  0  0  1  0  0  0  0  0  0
  182.7530  174.8040  138.0310 O   0  0  0  0  0  0  0  0  0  0  0  0
  1 29  1  1  0  0  0
  1  7  1  0  0  0  0
  2  9  1  0  0  0  0
  2 18  1  0  0  0  0
  3  4  1  0  0  0  0
  5 13  2  0  0  0  0
  5 17  1  0  0  0  0
  6  9  2  0  0  0  0
  7 13  1  0  0  0  0
  8  3  2  0  0  0  0
  9 10  1  0  0  0  0
 10  8  1  0  0  0  0
 10 16  2  0  0  0  0
 11 16  1  0  0  0  0
 12  1  1  0  0  0  0
 12 14  1  0  0  0  0
 13  6  1  0  0  0  0
 14  5  1  0  0  0  0
 15  4  2  0  0  0  0
 16 15  1  0  0  0  0
 17  2  2  0  0  0  0
 18 11  2  0  0  0  0
 19 22  1  1  0  0  0
 20 11  1  6  0  0  0
 20 19  1  0  0  0  0
 21 20  1  0  0  0  0
 21 25  1  1  0  0  0
 21 19  1  0  0  0  0
 22 23  1  0  0  0  0
 25 24  1  6  0  0  0
 26 25  1  0  0  0  0
 27 26  1  0  0  0  0
 29 28  2  0  0  0  0
 30 28  1  0  0  0  0
 30 32  2  0  0  0  0
 31 30  1  0  0  0  0
M  END
>  <MODEL>
3

>  <REMARK>
 VINA RESULT:      -8.7      1.739      2.107
  Name = 
  6 active torsions:
  status: ('A' for Active; 'I' for Inactive)
    1  A    between atoms: C_1  and  N_10
    2  A    between atoms: C_2  and  C_24
    3  A    between atoms: C_6  and  C_7
    4  A    between atoms: C_11  and  C_22
    5  A    between atoms: C_16  and  C_27
    6  A    between atoms: C_22  and  C_32
                            x       y       z     vdW  Elec       q    Type
                         _______ _______ _______ _____ _____    ______ ____

>  <TORSDO>
F 6

$$$$
=
 OpenBabel10272413323D

 32 36  0  0  1  0  0  0  0  0999 V2000
  187.5790  177.6780  136.5990 C   0  0  1  0  0  3  0  0  0  0  0  0
  188.7750  177.9870  141.5760 C   0  0  0  0  0  0  0  0  0  0  0  0
  184.4920  178.4810  143.8020 C   0  0  0  0  0  3  0  0  0  0  0  0
  185.1390  178.4290  145.0370 C   0  0  0  0  0  3  0  0  0  0  0  0
  188.9000  177.9300  139.1630 C   0  0  0  0  0  0  0  0  0  0  0  0
  186.7840  178.1820  140.2590 N   0  0  0  0  0  0  0  0  0  0  0  0
  186.7710  178.1910  137.7950 C   0  0  0  0  0  2  0  0  0  0  0  0
  185.2320  178.3890  142.6200 C   0  0  0  0  0  3  0  0  0  0  0  0
  187.3780  178.1420  141.4850 C   0  0  0  0  0  0  0  0  0  0  0  0
  186.6270  178.2460  142.6650 C   0  0  0  0  0  0  0  0  0  0  0  0
  188.6890  178.0600  143.9560 C   0  0  0  0  0  0  0  0  0  0  0  0
  189.0150  178.1970  136.6620 C   0  0  0  0  0  2  0  0  0  0  0  0
  187.4970  178.0660  139.1070 C   0  0  0  0  0  0  0  0  0  0  0  0
  189.7280  177.7230  137.9290 C   0  0  0  0  0  2  0  0  0  0  0  0
  186.5270  178.2880  145.0970 C   0  0  0  0  0  3  0  0  0  0  0  0
  187.2850  178.1990  143.9170 C   0  0  0  0  0  0  0  0  0  0  0  0
  189.5280  177.8750  140.4090 C   0  0  0  0  0  3  0  0  0  0  0  0
  189.3830  177.9440  142.7890 N   0  0  0  0  0  0  0  0  0  0  0  0
  190.2380  176.6850  145.3180 C   0  0  2  0  0  3  0  0  0  0  0  0
  189.4310  177.9730  145.2610 C   0  0  2  0  0  3  0  0  0  0  0  0
  188.9260  176.8070  146.0980 C   0  0  2  0  0  3  0  0  0  0  0  0
  191.5020  176.9150  146.1370 C   0  0  0  0  0  2  0  0  0  0  0  0
  192.1640  175.5860  146.4320 C   0  0  0  0  0  1  0  0  0  0  0  0
  188.2320  176.3080  148.3360 O   0  0  0  0  0  1  0  0  0  0  0  0
  189.0760  177.1290  147.5850 C   0  0  2  0  0  3  0  0  0  0  0  0
  188.7560  178.5930  147.8590 C   0  0  0  0  0  2  0  0  0  0  0  0
  187.4770  178.7260  148.4040 O   0  0  0  0  0  1  0  0  0  0  0  0
  186.4810  175.5340  136.8630 N   0  0  0  0  0  0  0  0  0  0  0  0
  187.5400  176.1850  136.5070 C   0  0  0  0  0  3  0  0  0  0  0  0
  186.4040  174.1080  136.7940 C   0  0  0  0  0  0  0  0  0  0  0  0
  185.2460  173.4060  137.4050 C   0  0  0  0  0  1  0  0  0  0  0  0
  187.3050  173.4380  136.2190 O   0  0  0  0  0  0  0  0  0  0  0  0
  1 29  1  1  0  0  0
  1 12  1  0  0  0  0
  1  7  1  0  0  0  0
  2 18  1  0  0  0  0
  3  4  1  0  0  0  0
  4 15  2  0  0  0  0
  5 17  1  0  0  0  0
  6  9  2  0  0  0  0
  7 13  1  0  0  0  0
  8 10  1  0  0  0  0
  8  3  2  0  0  0  0
  9  2  1  0  0  0  0
  9 10  1  0  0  0  0
 10 16  2  0  0  0  0
 12 14  1  0  0  0  0
 13  5  2  0  0  0  0
 13  6  1  0  0  0  0
 14  5  1  0  0  0  0
 16 11  1  0  0  0  0
 16 15  1  0  0  0  0
 17  2  2  0  0  0  0
 18 11  2  0  0  0  0
 19 21  1  0  0  0  0
 19 22  1  1  0  0  0
 20 11  1  6  0  0  0
 20 19  1  0  0  0  0
 20 21  1  0  0  0  0
 21 25  1  1  0  0  0
 22 23  1  0  0  0  0
 25 26  1  0  0  0  0
 25 24  1  1  0  0  0
 26 27  1  0  0  0  0
 29 28  2  0  0  0  0
 30 28  1  0  0  0  0
 30 31  1  0  0  0  0
 32 30  2  0  0  0  0
M  END
>  <MODEL>
4

>  <REMARK>
 VINA RESULT:      -8.2      1.472      2.266
  Name = 
  6 active torsions:
  status: ('A' for Active; 'I' for Inactive)
    1  A    between atoms: C_1  and  N_10
    2  A    between atoms: C_2  and  C_24
    3  A    between atoms: C_6  and  C_7
    4  A    between atoms: C_11  and  C_22
    5  A    between atoms: C_16  and  C_27
    6  A    between atoms: C_22  and  C_32
                            x       y       z     vdW  Elec       q    Type
                         _______ _______ _______ _____ _____    ______ ____

>  <TORSDO>
F 6

$$$$
=
 OpenBabel10272413323D

 32 36  0  0  1  0  0  0  0  0999 V2000
  190.6180  175.7970  135.7870 C   0  0  1  0  0  3  0  0  0  0  0  0
  189.7010  177.3470  140.5880 C   0  0  0  0  0  0  0  0  0  0  0  0
  185.1190  178.9390  140.4700 C   0  0  0  0  0  3  0  0  0  0  0  0
  185.1700  179.1610  141.8470 C   0  0  0  0  0  3  0  0  0  0  0  0
  190.7890  176.6020  138.5630 C   0  0  0  0  0  0  0  0  0  0  0  0
  188.5280  177.3950  138.5000 N   0  0  0  0  0  0  0  0  0  0  0  0
  189.5310  176.7150  136.3550 C   0  0  0  0  0  2  0  0  0  0  0  0
  186.2360  178.4350  139.8000 C   0  0  0  0  0  3  0  0  0  0  0  0
  188.5400  177.6320  139.8420 C   0  0  0  0  0  0  0  0  0  0  0  0
  187.4160  178.1490  140.5030 C   0  0  0  0  0  0  0  0  0  0  0  0
  188.6640  178.0930  142.5990 C   0  0  0  0  0  0  0  0  0  0  0  0
  191.9790  176.1420  136.3920 C   0  0  0  0  0  2  0  0  0  0  0  0
  189.6050  176.8800  137.8490 C   0  0  0  0  0  0  0  0  0  0  0  0
  191.9800  175.9630  137.9100 C   0  0  0  0  0  2  0  0  0  0  0  0
  186.3390  178.8820  142.5590 C   0  0  0  0  0  3  0  0  0  0  0  0
  187.4720  178.3780  141.8990 C   0  0  0  0  0  0  0  0  0  0  0  0
  190.8190  176.8260  139.9410 C   0  0  0  0  0  3  0  0  0  0  0  0
  189.7290  177.5760  141.9260 N   0  0  0  0  0  0  0  0  0  0  0  0
  189.4680  177.1030  144.7250 C   0  0  2  0  0  3  0  0  0  0  0  0
  188.7630  178.2900  144.0880 C   0  0  2  0  0  3  0  0  0  0  0  0
  187.9470  177.2430  144.8300 C   0  0  2  0  0  3  0  0  0  0  0  0
  190.2470  177.5740  145.9460 C   0  0  0  0  0  2  0  0  0  0  0  0
  191.2950  176.5420  146.3080 C   0  0  0  0  0  1  0  0  0  0  0  0
  187.5680  176.8750  147.1670 O   0  0  0  0  0  1  0  0  0  0  0  0
  187.4320  177.8210  146.1490 C   0  0  2  0  0  3  0  0  0  0  0  0
  185.9740  178.2460  146.0240 C   0  0  0  0  0  2  0  0  0  0  0  0
  185.6480  179.1860  147.0040 O   0  0  0  0  0  1  0  0  0  0  0  0
  189.1510  173.8810  135.5710 N   0  0  0  0  0  0  0  0  0  0  0  0
  190.2810  174.3540  135.9870 C   0  0  0  0  0  3  0  0  0  0  0  0
  188.7890  172.5090  135.7450 C   0  0  0  0  0  0  0  0  0  0  0  0
  187.9070  172.1220  136.8770 C   0  0  0  0  0  1  0  0  0  0  0  0
  189.2070  171.6220  134.9520 O   0  0  0  0  0  0  0  0  0  0  0  0
  1 29  1  1  0  0  0
  1  7  1  0  0  0  0
  1 12  1  0  0  0  0
  2 18  1  0  0  0  0
  3  4  1  0  0  0  0
  4 15  2  0  0  0  0
  5 17  1  0  0  0  0
  6  9  2  0  0  0  0
  7 13  1  0  0  0  0
  8  3  2  0  0  0  0
  8 10  1  0  0  0  0
  9 10  1  0  0  0  0
  9  2  1  0  0  0  0
 10 16  2  0  0  0  0
 12 14  1  0  0  0  0
 13  6  1  0  0  0  0
 13  5  2  0  0  0  0
 14  5  1  0  0  0  0
 16 15  1  0  0  0  0
 16 11  1  0  0  0  0
 17  2  2  0  0  0  0
 18 11  2  0  0  0  0
 19 21  1  0  0  0  0
 19 22  1  1  0  0  0
 20 11  1  6  0  0  0
 20 19  1  0  0  0  0
 20 21  1  0  0  0  0
 21 25  1  1  0  0  0
 22 23  1  0  0  0  0
 25 24  1  1  0  0  0
 26 25  1  0  0  0  0
 26 27  1  0  0  0  0
 28 30  1  0  0  0  0
 28 29  2  0  0  0  0
 30 31  1  0  0  0  0
 32 30  2  0  0  0  0
M  END
>  <MODEL>
5

>  <REMARK>
 VINA RESULT:      -7.4      2.291      3.401
  Name = 
  6 active torsions:
  status: ('A' for Active; 'I' for Inactive)
    1  A    between atoms: C_1  and  N_10
    2  A    between atoms: C_2  and  C_24
    3  A    between atoms: C_6  and  C_7
    4  A    between atoms: C_11  and  C_22
    5  A    between atoms: C_16  and  C_27
    6  A    between atoms: C_22  and  C_32
                            x       y       z     vdW  Elec       q    Type
                         _______ _______ _______ _____ _____    ______ ____

>  <TORSDO>
F 6

$$$$
=
 OpenBabel10272413323D

 32 36  0  0  1  0  0  0  0  0999 V2000
  193.6320  174.6190  135.2030 C   0  0  1  0  0  3  0  0  0  0  0  0
  191.0240  176.8630  139.0050 C   0  0  0  0  0  0  0  0  0  0  0  0
  186.6630  177.7740  137.0820 C   0  0  0  0  0  3  0  0  0  0  0  0
  186.2250  178.2430  138.3210 C   0  0  0  0  0  3  0  0  0  0  0  0
  192.7870  175.9220  137.6470 C   0  0  0  0  0  0  0  0  0  0  0  0
  190.6370  176.3780  136.6910 N   0  0  0  0  0  0  0  0  0  0  0  0
  192.3570  175.4670  135.1800 C   0  0  0  0  0  2  0  0  0  0  0  0
  187.9740  177.3130  136.9310 C   0  0  0  0  0  3  0  0  0  0  0  0
  190.1730  176.8500  137.8830 C   0  0  0  0  0  0  0  0  0  0  0  0
  188.8580  177.3200  138.0200 C   0  0  0  0  0  0  0  0  0  0  0  0
  189.3130  177.8100  140.3670 C   0  0  0  0  0  0  0  0  0  0  0  0
  194.6770  175.2470  136.1250 C   0  0  0  0  0  2  0  0  0  0  0  0
  191.9030  175.9050  136.5470 C   0  0  0  0  0  0  0  0  0  0  0  0
  194.1700  175.3440  137.5640 C   0  0  0  0  0  2  0  0  0  0  0  0
  187.0960  178.2560  139.4130 C   0  0  0  0  0  3  0  0  0  0  0  0
  188.4170  177.8010  139.2770 C   0  0  0  0  0  0  0  0  0  0  0  0
  192.3280  176.3910  138.8790 C   0  0  0  0  0  3  0  0  0  0  0  0
  190.5770  177.3290  140.1990 N   0  0  0  0  0  0  0  0  0  0  0  0
  189.7330  177.6190  142.8020 C   0  0  2  0  0  3  0  0  0  0  0  0
  188.8830  178.2800  141.7290 C   0  0  2  0  0  3  0  0  0  0  0  0
  188.3040  177.1330  142.5440 C   0  0  2  0  0  3  0  0  0  0  0  0
  189.8910  178.5710  143.9810 C   0  0  0  0  0  2  0  0  0  0  0  0
  191.2850  179.1610  143.9740 C   0  0  0  0  0  1  0  0  0  0  0  0
  186.9150  176.6740  144.4410 O   0  0  0  0  0  1  0  0  0  0  0  0
  187.2480  177.6640  143.5130 C   0  0  2  0  0  3  0  0  0  0  0  0
  186.0000  178.1150  142.7640 C   0  0  0  0  0  2  0  0  0  0  0  0
  184.8950  178.1440  143.6160 O   0  0  0  0  0  1  0  0  0  0  0  0
  194.3130  172.3760  135.8190 N   0  0  0  0  0  0  0  0  0  0  0  0
  193.3440  173.2020  135.5870 C   0  0  0  0  0  3  0  0  0  0  0  0
  194.0810  171.0140  136.1850 C   0  0  0  0  0  0  0  0  0  0  0  0
  194.9130  170.3880  137.2450 C   0  0  0  0  0  1  0  0  0  0  0  0
  193.1780  170.3360  135.6220 O   0  0  0  0  0  0  0  0  0  0  0  0
  1 29  1  1  0  0  0
  1 12  1  0  0  0  0
  2 18  1  0  0  0  0
  3  4  1  0  0  0  0
  4 15  2  0  0  0  0
  5 17  1  0  0  0  0
  6  9  2  0  0  0  0
  7  1  1  0  0  0  0
  7 13  1  0  0  0  0
  8  3  2  0  0  0  0
  8 10  1  0  0  0  0
  9 10  1  0  0  0  0
  9  2  1  0  0  0  0
 10 16  2  0  0  0  0
 12 14  1  0  0  0  0
 13  6  1  0  0  0  0
 13  5  2  0  0  0  0
 14  5  1  0  0  0  0
 16 15  1  0  0  0  0
 16 11  1  0  0  0  0
 17  2  2  0  0  0  0
 18 11  2  0  0  0  0
 19 22  1  1  0  0  0
 20 11  1  6  0  0  0
 20 21  1  0  0  0  0
 20 19  1  0  0  0  0
 21 19  1  0  0  0  0
 21 25  1  1  0  0  0
 23 22  1  0  0  0  0
 25 24  1  1  0  0  0
 26 25  1  0  0  0  0
 26 27  1  0  0  0  0
 28 30  1  0  0  0  0
 29 28  2  0  0  0  0
 30 31  1  0  0  0  0
 32 30  2  0  0  0  0
M  END
>  <MODEL>
6

>  <REMARK>
 VINA RESULT:      -6.9      3.967      6.005
  Name = 
  6 active torsions:
  status: ('A' for Active; 'I' for Inactive)
    1  A    between atoms: C_1  and  N_10
    2  A    between atoms: C_2  and  C_24
    3  A    between atoms: C_6  and  C_7
    4  A    between atoms: C_11  and  C_22
    5  A    between atoms: C_16  and  C_27
    6  A    between atoms: C_22  and  C_32
                            x       y       z     vdW  Elec       q    Type
                         _______ _______ _______ _____ _____    ______ ____

>  <TORSDO>
F 6

$$$$
=
 OpenBabel10272413323D

 32 36  0  0  1  0  0  0  0  0999 V2000
  191.4730  178.3330  144.2770 C   0  0  1  0  0  3  0  0  0  0  0  0
  189.6100  176.7990  139.7530 C   0  0  0  0  0  0  0  0  0  0  0  0
  193.5350  176.3640  136.9340 C   0  0  0  0  0  3  0  0  0  0  0  0
  192.7310  175.8690  135.9060 C   0  0  0  0  0  3  0  0  0  0  0  0
  189.8110  177.6400  142.0090 C   0  0  0  0  0  0  0  0  0  0  0  0
  191.7520  177.4340  140.6170 N   0  0  0  0  0  0  0  0  0  0  0  0
  192.0940  178.3540  142.8770 C   0  0  0  0  0  2  0  0  0  0  0  0
  192.9650  176.7280  138.1560 C   0  0  0  0  0  3  0  0  0  0  0  0
  191.0000  176.9530  139.5860 C   0  0  0  0  0  0  0  0  0  0  0  0
  191.5820  176.6010  138.3600 C   0  0  0  0  0  0  0  0  0  0  0  0
  189.3730  175.9850  137.5260 C   0  0  0  0  0  0  0  0  0  0  0  0
  190.0240  178.8150  144.2260 C   0  0  0  0  0  2  0  0  0  0  0  0
  191.2040  177.7650  141.8170 C   0  0  0  0  0  0  0  0  0  0  0  0
  189.1640  177.9190  143.3340 C   0  0  0  0  0  2  0  0  0  0  0  0
  191.3530  175.7390  136.0950 C   0  0  0  0  0  3  0  0  0  0  0  0
  190.7640  176.1040  137.3160 C   0  0  0  0  0  0  0  0  0  0  0  0
  189.0250  177.1390  140.9700 C   0  0  0  0  0  3  0  0  0  0  0  0
  188.8470  176.3200  138.7370 N   0  0  0  0  0  0  0  0  0  0  0  0
  187.2350  176.3140  136.3150 C   0  0  2  0  0  3  0  0  0  0  0  0
  188.4660  175.4330  136.4600 C   0  0  2  0  0  3  0  0  0  0  0  0
  187.1430  174.9760  137.0550 C   0  0  2  0  0  3  0  0  0  0  0  0
  186.7620  176.2870  134.8680 C   0  0  0  0  0  2  0  0  0  0  0  0
  186.5490  177.7040  134.3780 C   0  0  0  0  0  1  0  0  0  0  0  0
  185.3930  173.3570  136.8180 O   0  0  0  0  0  1  0  0  0  0  0  0
  186.5780  173.8140  136.2370 C   0  0  2  0  0  3  0  0  0  0  0  0
  187.5850  172.6750  136.1440 C   0  0  0  0  0  2  0  0  0  0  0  0
  187.8830  172.1740  137.4130 O   0  0  0  0  0  1  0  0  0  0  0  0
  192.0950  176.8430  146.0840 N   0  0  0  0  0  0  0  0  0  0  0  0
  191.5770  176.9800  144.9060 C   0  0  0  0  0  3  0  0  0  0  0  0
  192.2170  175.5690  146.7190 C   0  0  0  0  0  0  0  0  0  0  0  0
  192.4300  175.5000  148.1880 C   0  0  0  0  0  1  0  0  0  0  0  0
  192.1440  174.5010  146.0510 O   0  0  0  0  0  0  0  0  0  0  0  0
  1 29  1  6  0  0  0
  2 17  1  0  0  0  0
  3  8  1  0  0  0  0
  4 15  1  0  0  0  0
  4  3  2  0  0  0  0
  5 14  1  0  0  0  0
  6 13  2  0  0  0  0
  7  1  1  0  0  0  0
  8 10  2  0  0  0  0
  9  2  2  0  0  0  0
  9  6  1  0  0  0  0
 10  9  1  0  0  0  0
 11 18  2  0  0  0  0
 12  1  1  0  0  0  0
 13  5  1  0  0  0  0
 13  7  1  0  0  0  0
 14 12  1  0  0  0  0
 15 16  2  0  0  0  0
 16 11  1  0  0  0  0
 16 10  1  0  0  0  0
 17  5  2  0  0  0  0
 18  2  1  0  0  0  0
 19 22  1  6  0  0  0
 19 20  1  0  0  0  0
 19 21  1  0  0  0  0
 20 21  1  0  0  0  0
 20 11  1  1  0  0  0
 21 25  1  6  0  0  0
 23 22  1  0  0  0  0
 25 24  1  1  0  0  0
 26 25  1  0  0  0  0
 26 27  1  0  0  0  0
 28 30  1  0  0  0  0
 29 28  2  0  0  0  0
 30 31  1  0  0  0  0
 32 30  2  0  0  0  0
M  END
>  <MODEL>
7

>  <REMARK>
 VINA RESULT:      -6.6      2.557      9.329
  Name = 
  6 active torsions:
  status: ('A' for Active; 'I' for Inactive)
    1  A    between atoms: C_1  and  N_10
    2  A    between atoms: C_2  and  C_24
    3  A    between atoms: C_6  and  C_7
    4  A    between atoms: C_11  and  C_22
    5  A    between atoms: C_16  and  C_27
    6  A    between atoms: C_22  and  C_32
                            x       y       z     vdW  Elec       q    Type
                         _______ _______ _______ _____ _____    ______ ____

>  <TORSDO>
F 6

$$$$
=
 OpenBabel10272413323D

 32 36  0  0  1  0  0  0  0  0999 V2000
  192.6230  174.6320  136.1930 C   0  0  1  0  0  3  0  0  0  0  0  0
  189.0470  176.9850  139.0160 C   0  0  0  0  0  0  0  0  0  0  0  0
  190.8520  176.9220  143.5190 C   0  0  0  0  0  3  0  0  0  0  0  0
  189.7630  177.6750  143.9570 C   0  0  0  0  0  3  0  0  0  0  0  0
  190.2190  175.8830  137.2120 C   0  0  0  0  0  0  0  0  0  0  0  0
  191.1100  175.8430  139.4370 N   0  0  0  0  0  0  0  0  0  0  0  0
  192.3810  174.6360  137.7050 C   0  0  0  0  0  2  0  0  0  0  0  0
  190.9530  176.5510  142.1760 C   0  0  0  0  0  3  0  0  0  0  0  0
  190.0580  176.5730  139.9050 C   0  0  0  0  0  0  0  0  0  0  0  0
  189.9620  176.9300  141.2580 C   0  0  0  0  0  0  0  0  0  0  0  0
  187.8560  178.0640  140.7750 C   0  0  0  0  0  0  0  0  0  0  0  0
  191.3030  174.4580  135.4420 C   0  0  0  0  0  2  0  0  0  0  0  0
  191.2250  175.5030  138.1260 C   0  0  0  0  0  0  0  0  0  0  0  0
  190.3310  175.6000  135.7430 C   0  0  0  0  0  2  0  0  0  0  0  0
  188.7670  178.0580  143.0540 C   0  0  0  0  0  3  0  0  0  0  0  0
  188.8520  177.6900  141.7020 C   0  0  0  0  0  0  0  0  0  0  0  0
  189.1390  176.6400  137.6690 C   0  0  0  0  0  3  0  0  0  0  0  0
  187.9930  177.7130  139.4660 N   0  0  0  0  0  0  0  0  0  0  0  0
  185.9460  178.2310  142.3470 C   0  0  2  0  0  3  0  0  0  0  0  0
  186.6740  178.8980  141.1900 C   0  0  2  0  0  3  0  0  0  0  0  0
  185.3690  178.1600  140.9300 C   0  0  2  0  0  3  0  0  0  0  0  0
  185.3340  179.3000  143.2420 C   0  0  0  0  0  2  0  0  0  0  0  0
  185.2180  178.7720  144.6560 C   0  0  0  0  0  1  0  0  0  0  0  0
  183.0190  178.6200  140.9790 O   0  0  0  0  0  1  0  0  0  0  0  0
  184.2560  179.1630  140.6260 C   0  0  2  0  0  3  0  0  0  0  0  0
  184.2550  179.5430  139.1500 C   0  0  0  0  0  2  0  0  0  0  0  0
  183.7610  180.8370  138.9740 O   0  0  0  0  0  1  0  0  0  0  0  0
  194.5700  175.7830  135.3240 N   0  0  0  0  0  0  0  0  0  0  0  0
  193.3490  175.8600  135.7460 C   0  0  0  0  0  3  0  0  0  0  0  0
  195.3000  176.9330  134.8920 C   0  0  0  0  0  0  0  0  0  0  0  0
  196.7730  176.9810  135.0870 C   0  0  0  0  0  1  0  0  0  0  0  0
  194.7130  177.9070  134.3470 O   0  0  0  0  0  0  0  0  0  0  0  0
  1 29  1  6  0  0  0
  1  7  1  0  0  0  0
  2 18  2  0  0  0  0
  2  9  1  0  0  0  0
  3  4  1  0  0  0  0
  5 17  2  0  0  0  0
  5 13  1  0  0  0  0
  6  9  1  0  0  0  0
  7 13  1  0  0  0  0
  8  3  2  0  0  0  0
  9 10  2  0  0  0  0
 10 16  1  0  0  0  0
 10  8  1  0  0  0  0
 11 16  2  0  0  0  0
 12 14  1  0  0  0  0
 12  1  1  0  0  0  0
 13  6  2  0  0  0  0
 14  5  1  0  0  0  0
 15  4  2  0  0  0  0
 16 15  1  0  0  0  0
 17  2  1  0  0  0  0
 18 11  1  0  0  0  0
 19 22  1  1  0  0  0
 20 11  1  6  0  0  0
 20 19  1  0  0  0  0
 21 25  1  1  0  0  0
 21 20  1  0  0  0  0
 21 19  1  0  0  0  0
 22 23  1  0  0  0  0
 25 24  1  6  0  0  0
 26 25  1  0  0  0  0
 27 26  1  0  0  0  0
 28 29  2  0  0  0  0
 30 31  1  0  0  0  0
 30 28  1  0  0  0  0
 32 30  2  0  0  0  0
M  END
>  <MODEL>
8

>  <REMARK>
 VINA RESULT:      -6.5      3.992      6.733
  Name = 
  6 active torsions:
  status: ('A' for Active; 'I' for Inactive)
    1  A    between atoms: C_1  and  N_10
    2  A    between atoms: C_2  and  C_24
    3  A    between atoms: C_6  and  C_7
    4  A    between atoms: C_11  and  C_22
    5  A    between atoms: C_16  and  C_27
    6  A    between atoms: C_22  and  C_32
                            x       y       z     vdW  Elec       q    Type
                         _______ _______ _______ _____ _____    ______ ____

>  <TORSDO>
F 6

$$$$
