=
 OpenBabel10272400263D

 31 35  0  0  1  0  0  0  0  0999 V2000
  184.8090  179.0310  145.6440 C   0  0  1  0  0  3  0  0  0  0  0  0
  188.1000  177.7270  144.2110 C   0  0  0  0  0  0  0  0  0  0  0  0
  188.9510  177.4660  145.3250 C   0  0  0  0  0  0  0  0  0  0  0  0
  186.5040  178.1500  139.2130 O   0  0  0  0  0  0  0  0  0  0  0  0
  187.7010  177.7550  139.2180 C   0  0  0  0  0  0  0  0  0  0  0  0
  189.3360  177.3800  147.6800 C   0  0  0  0  0  0  0  0  0  0  0  0
  186.7530  178.1890  144.3230 C   0  0  0  0  0  0  0  0  0  0  0  0
  184.0720  178.9190  144.4260 O   0  0  0  0  0  0  0  0  0  0  0  0
  188.5300  177.6270  146.6130 N   0  0  0  0  0  0  0  0  0  0  0  0
  187.8420  177.7590  141.7750 C   0  0  0  0  0  0  0  0  0  0  0  0
  184.1230  178.4070  146.6690 F   0  0  0  0  0  0  0  0  0  0  0  0
  190.7360  176.8470  143.8350 N   0  0  0  0  0  0  0  0  0  0  0  0
  188.8650  177.5570  148.9370 F   0  0  0  0  0  0  0  0  0  0  0  0
  186.5570  178.1670  141.9250 N   0  0  0  0  0  0  0  0  0  0  0  0
  188.6330  177.5220  142.9090 C   0  0  0  0  0  0  0  0  0  0  0  0
  188.3890  177.5550  140.4620 N   0  0  0  0  0  2  0  0  0  0  0  0
  186.1870  178.4470  145.5150 C   0  0  0  0  0  3  0  0  0  0  0  0
  190.6460  176.9440  147.4820 C   0  0  0  0  0  3  0  0  0  0  0  0
  185.9950  178.3790  143.1410 C   0  0  0  0  0  0  0  0  0  0  0  0
  184.7050  178.7180  143.1960 C   0  0  0  0  0  3  0  0  0  0  0  0
  189.9530  177.0840  142.7560 C   0  0  0  0  0  3  0  0  0  0  0  0
  190.2750  177.0240  145.0970 C   0  0  0  0  0  0  0  0  0  0  0  0
  191.1140  176.7660  146.1820 C   0  0  0  0  0  3  0  0  0  0  0  0
  189.7360  176.9010  135.5340 C   0  0  0  0  0  0  0  0  0  0  0  0
  188.4960  176.1740  137.4770 C   0  0  0  0  0  3  0  0  0  0  0  0
  188.9510  179.8540  137.5880 O   0  0  0  0  0  1  0  0  0  0  0  0
  190.3890  176.6070  134.3460 O   0  0  0  0  0  1  0  0  0  0  0  0
  189.1530  175.8770  136.2820 C   0  0  0  0  0  3  0  0  0  0  0  0
  189.0040  178.5260  137.1780 C   0  0  0  0  0  0  0  0  0  0  0  0
  188.4100  177.4950  137.9440 C   0  0  0  0  0  0  0  0  0  0  0  0
  189.6600  178.2200  135.9820 C   0  0  0  0  0  3  0  0  0  0  0  0
  1 11  1  1  0  0  0
  2  7  1  0  0  0  0
  2  3  1  0  0  0  0
  3  9  1  0  0  0  0
  4  5  2  0  0  0  0
  5 16  1  0  0  0  0
  6 13  1  0  0  0  0
  7 17  2  0  0  0  0
  8  1  1  0  0  0  0
  9  6  2  0  0  0  0
 10 14  2  0  0  0  0
 10 15  1  0  0  0  0
 12 22  1  0  0  0  0
 14 19  1  0  0  0  0
 15  2  2  0  0  0  0
 16 10  1  0  0  0  0
 17  1  1  0  0  0  0
 18  6  1  0  0  0  0
 19 20  2  0  0  0  0
 19  7  1  0  0  0  0
 20  8  1  0  0  0  0
 21 15  1  0  0  0  0
 21 12  2  0  0  0  0
 22  3  2  0  0  0  0
 22 23  1  0  0  0  0
 23 18  2  0  0  0  0
 24 31  2  0  0  0  0
 24 28  1  0  0  0  0
 25 30  1  0  0  0  0
 27 24  1  0  0  0  0
 28 25  2  0  0  0  0
 29 26  1  0  0  0  0
 29 30  2  0  0  0  0
 30  5  1  0  0  0  0
 31 29  1  0  0  0  0
M  END
>  <MODEL>
1

>  <REMARK>
 VINA RESULT:     -10.8      0.000      0.000
  Name = 
  1 active torsions:
  status: ('A' for Active; 'I' for Inactive)
    1  A    between atoms: C_9  and  C_22
                            x       y       z     vdW  Elec       q    Type
                         _______ _______ _______ _____ _____    ______ ____

>  <TORSDO>
F 1

$$$$
=
 OpenBabel10272400263D

 31 35  0  0  1  0  0  0  0  0999 V2000
  190.2140  176.8780  147.1770 C   0  0  1  0  0  3  0  0  0  0  0  0
  187.8170  177.6750  144.3120 C   0  0  0  0  0  0  0  0  0  0  0  0
  186.5710  178.0250  144.9130 C   0  0  0  0  0  0  0  0  0  0  0  0
  191.3790  176.6550  140.5750 O   0  0  0  0  0  0  0  0  0  0  0  0
  190.2860  176.9440  140.0170 C   0  0  0  0  0  0  0  0  0  0  0  0
  185.2270  178.4240  146.8450 C   0  0  0  0  0  0  0  0  0  0  0  0
  188.9970  177.3490  145.0490 C   0  0  0  0  0  0  0  0  0  0  0  0
  191.3940  176.8700  146.3740 O   0  0  0  0  0  0  0  0  0  0  0  0
  186.4110  178.0910  146.2660 N   0  0  0  0  0  0  0  0  0  0  0  0
  189.0790  177.3050  142.2450 C   0  0  0  0  0  0  0  0  0  0  0  0
  190.3940  177.7000  148.2720 F   0  0  0  0  0  0  0  0  0  0  0  0
  185.5740  178.2650  142.7360 N   0  0  0  0  0  0  0  0  0  0  0  0
  185.1260  178.4750  148.1940 F   0  0  0  0  0  0  0  0  0  0  0  0
  190.1870  177.0340  142.9810 N   0  0  0  0  0  0  0  0  0  0  0  0
  187.8810  177.6400  142.8930 C   0  0  0  0  0  0  0  0  0  0  0  0
  189.1350  177.2670  140.8100 N   0  0  0  0  0  2  0  0  0  0  0  0
  189.0110  177.3180  146.3930 C   0  0  0  0  0  3  0  0  0  0  0  0
  184.1170  178.7150  146.0520 C   0  0  0  0  0  3  0  0  0  0  0  0
  190.1850  177.0510  144.3370 C   0  0  0  0  0  0  0  0  0  0  0  0
  191.3360  176.8330  144.9780 C   0  0  0  0  0  3  0  0  0  0  0  0
  186.7430  177.9390  142.1350 C   0  0  0  0  0  3  0  0  0  0  0  0
  185.4610  178.3160  144.0860 C   0  0  0  0  0  0  0  0  0  0  0  0
  184.2400  178.6590  144.6650 C   0  0  0  0  0  3  0  0  0  0  0  0
  190.0210  176.8790  135.7300 C   0  0  0  0  0  0  0  0  0  0  0  0
  190.7120  175.8740  137.8170 C   0  0  0  0  0  3  0  0  0  0  0  0
  189.0110  179.1020  138.4860 O   0  0  0  0  0  1  0  0  0  0  0  0
  189.9440  176.8420  134.3460 O   0  0  0  0  0  1  0  0  0  0  0  0
  190.6340  175.8350  136.4240 C   0  0  0  0  0  3  0  0  0  0  0  0
  189.5580  178.0070  137.8270 C   0  0  0  0  0  0  0  0  0  0  0  0
  190.1780  176.9530  138.5390 C   0  0  0  0  0  0  0  0  0  0  0  0
  189.4850  177.9610  136.4320 C   0  0  0  0  0  3  0  0  0  0  0  0
  1 11  1  1  0  0  0
  2  3  1  0  0  0  0
  2  7  1  0  0  0  0
  3  9  1  0  0  0  0
  5  4  2  0  0  0  0
  5 16  1  0  0  0  0
  6 13  1  0  0  0  0
  7 17  2  0  0  0  0
  8  1  1  0  0  0  0
  9  6  2  0  0  0  0
 10 15  1  0  0  0  0
 10 14  2  0  0  0  0
 12 22  1  0  0  0  0
 14 19  1  0  0  0  0
 15  2  2  0  0  0  0
 16 10  1  0  0  0  0
 17  1  1  0  0  0  0
 18  6  1  0  0  0  0
 19 20  2  0  0  0  0
 19  7  1  0  0  0  0
 20  8  1  0  0  0  0
 21 12  2  0  0  0  0
 21 15  1  0  0  0  0
 22 23  1  0  0  0  0
 22  3  2  0  0  0  0
 23 18  2  0  0  0  0
 24 28  2  0  0  0  0
 24 31  1  0  0  0  0
 25 30  2  0  0  0  0
 27 24  1  0  0  0  0
 28 25  1  0  0  0  0
 29 26  1  0  0  0  0
 29 30  1  0  0  0  0
 30  5  1  0  0  0  0
 31 29  2  0  0  0  0
M  END
>  <MODEL>
2

>  <REMARK>
 VINA RESULT:     -10.8      2.081      4.056
  Name = 
  1 active torsions:
  status: ('A' for Active; 'I' for Inactive)
    1  A    between atoms: C_9  and  C_22
                            x       y       z     vdW  Elec       q    Type
                         _______ _______ _______ _____ _____    ______ ____

>  <TORSDO>
F 1

$$$$
=
 OpenBabel10272400263D

 31 35  0  0  1  0  0  0  0  0999 V2000
  190.2060  176.8620  147.1620 C   0  0  1  0  0  3  0  0  0  0  0  0
  187.8030  177.6810  144.3090 C   0  0  0  0  0  0  0  0  0  0  0  0
  186.5620  178.0380  144.9150 C   0  0  0  0  0  0  0  0  0  0  0  0
  191.3440  176.6450  140.5550 O   0  0  0  0  0  0  0  0  0  0  0  0
  190.2500  176.9430  140.0020 C   0  0  0  0  0  0  0  0  0  0  0  0
  185.2280  178.4430  146.8540 C   0  0  0  0  0  0  0  0  0  0  0  0
  188.9840  177.3460  145.0400 C   0  0  0  0  0  0  0  0  0  0  0  0
  191.3820  176.8480  146.3550 O   0  0  0  0  0  0  0  0  0  0  0  0
  186.4080  178.1030  146.2690 N   0  0  0  0  0  0  0  0  0  0  0  0
  189.0550  177.3070  142.2360 C   0  0  0  0  0  0  0  0  0  0  0  0
  190.3960  177.6810  148.2590 F   0  0  0  0  0  0  0  0  0  0  0  0
  185.5580  178.2900  142.7430 N   0  0  0  0  0  0  0  0  0  0  0  0
  185.1330  178.4910  148.2030 F   0  0  0  0  0  0  0  0  0  0  0  0
  190.1630  177.0270  142.9670 N   0  0  0  0  0  0  0  0  0  0  0  0
  187.8610  177.6490  142.8890 C   0  0  0  0  0  0  0  0  0  0  0  0
  189.1050  177.2720  140.8010 N   0  0  0  0  0  2  0  0  0  0  0  0
  189.0030  177.3110  146.3840 C   0  0  0  0  0  3  0  0  0  0  0  0
  184.1170  178.7420  146.0660 C   0  0  0  0  0  3  0  0  0  0  0  0
  190.1670  177.0410  144.3230 C   0  0  0  0  0  0  0  0  0  0  0  0
  191.3190  176.8140  144.9590 C   0  0  0  0  0  3  0  0  0  0  0  0
  186.7220  177.9570  142.1370 C   0  0  0  0  0  3  0  0  0  0  0  0
  185.4510  178.3390  144.0930 C   0  0  0  0  0  0  0  0  0  0  0  0
  184.2340  178.6890  144.6790 C   0  0  0  0  0  3  0  0  0  0  0  0
  189.8670  177.0690  135.7260 C   0  0  0  0  0  0  0  0  0  0  0  0
  189.4530  178.0170  137.9100 C   0  0  0  0  0  3  0  0  0  0  0  0
  191.3780  174.8650  138.2590 O   0  0  0  0  0  1  0  0  0  0  0  0
  189.7340  177.1250  134.3470 O   0  0  0  0  0  1  0  0  0  0  0  0
  189.3180  178.0750  136.5230 C   0  0  0  0  0  3  0  0  0  0  0  0
  190.6890  175.9410  137.7100 C   0  0  0  0  0  0  0  0  0  0  0  0
  190.1360  176.9560  138.5250 C   0  0  0  0  0  0  0  0  0  0  0  0
  190.5500  176.0060  136.3200 C   0  0  0  0  0  3  0  0  0  0  0  0
  1 11  1  1  0  0  0
  2  3  1  0  0  0  0
  2  7  1  0  0  0  0
  3  9  1  0  0  0  0
  5  4  2  0  0  0  0
  5 16  1  0  0  0  0
  6 13  1  0  0  0  0
  7 17  2  0  0  0  0
  8  1  1  0  0  0  0
  9  6  2  0  0  0  0
 10 15  1  0  0  0  0
 10 14  2  0  0  0  0
 12 22  1  0  0  0  0
 14 19  1  0  0  0  0
 15  2  2  0  0  0  0
 16 10  1  0  0  0  0
 17  1  1  0  0  0  0
 18  6  1  0  0  0  0
 19 20  2  0  0  0  0
 19  7  1  0  0  0  0
 20  8  1  0  0  0  0
 21 12  2  0  0  0  0
 21 15  1  0  0  0  0
 22 23  1  0  0  0  0
 22  3  2  0  0  0  0
 23 18  2  0  0  0  0
 24 31  2  0  0  0  0
 24 28  1  0  0  0  0
 25 30  1  0  0  0  0
 27 24  1  0  0  0  0
 28 25  2  0  0  0  0
 29 26  1  0  0  0  0
 29 30  2  0  0  0  0
 30  5  1  0  0  0  0
 31 29  1  0  0  0  0
M  END
>  <MODEL>
3

>  <REMARK>
 VINA RESULT:     -10.8      2.213      4.234
  Name = 
  1 active torsions:
  status: ('A' for Active; 'I' for Inactive)
    1  A    between atoms: C_9  and  C_22
                            x       y       z     vdW  Elec       q    Type
                         _______ _______ _______ _____ _____    ______ ____

>  <TORSDO>
F 1

$$$$
=
 OpenBabel10272400263D

 31 35  0  0  1  0  0  0  0  0999 V2000
  187.5790  178.4140  148.2170 C   0  0  1  0  0  3  0  0  0  0  0  0
  188.0300  177.5240  144.5310 C   0  0  0  0  0  0  0  0  0  0  0  0
  189.3680  177.0510  144.3890 C   0  0  0  0  0  0  0  0  0  0  0  0
  183.1430  178.9690  143.2160 O   0  0  0  0  0  0  0  0  0  0  0  0
  183.7480  178.6100  142.1700 C   0  0  0  0  0  0  0  0  0  0  0  0
  191.4850  176.4720  145.3290 C   0  0  0  0  0  0  0  0  0  0  0  0
  187.4480  177.9200  145.7740 C   0  0  0  0  0  0  0  0  0  0  0  0
  186.1590  178.5490  148.1560 O   0  0  0  0  0  0  0  0  0  0  0  0
  190.2090  176.9220  145.4570 N   0  0  0  0  0  0  0  0  0  0  0  0
  185.9090  178.0710  143.4340 C   0  0  0  0  0  0  0  0  0  0  0  0
  187.9290  177.5710  149.2540 F   0  0  0  0  0  0  0  0  0  0  0  0
  189.0470  176.8060  142.0180 N   0  0  0  0  0  0  0  0  0  0  0  0
  192.2760  176.3650  146.4240 F   0  0  0  0  0  0  0  0  0  0  0  0
  185.3830  178.4070  144.6390 N   0  0  0  0  0  0  0  0  0  0  0  0
  187.2330  177.6150  143.3570 C   0  0  0  0  0  0  0  0  0  0  0  0
  185.1100  178.1650  142.2430 N   0  0  0  0  0  2  0  0  0  0  0  0
  188.1460  177.9040  146.9230 C   0  0  0  0  0  3  0  0  0  0  0  0
  191.9820  176.1190  144.0750 C   0  0  0  0  0  3  0  0  0  0  0  0
  186.0950  178.3410  145.7900 C   0  0  0  0  0  0  0  0  0  0  0  0
  185.4780  178.6300  146.9390 C   0  0  0  0  0  3  0  0  0  0  0  0
  187.7710  177.2500  142.1180 C   0  0  0  0  0  3  0  0  0  0  0  0
  189.8460  176.6980  143.1060 C   0  0  0  0  0  0  0  0  0  0  0  0
  191.1540  176.2340  142.9600 C   0  0  0  0  0  3  0  0  0  0  0  0
  181.6820  178.6580  138.4060 C   0  0  0  0  0  0  0  0  0  0  0  0
  181.8090  178.0240  140.7340 C   0  0  0  0  0  3  0  0  0  0  0  0
  184.8570  179.9130  139.7830 O   0  0  0  0  0  1  0  0  0  0  0  0
  181.0010  178.6650  137.1970 O   0  0  0  0  0  1  0  0  0  0  0  0
  181.1230  178.0300  139.5190 C   0  0  0  0  0  3  0  0  0  0  0  0
  183.6200  179.2810  139.7240 C   0  0  0  0  0  0  0  0  0  0  0  0
  183.0620  178.6450  140.8580 C   0  0  0  0  0  0  0  0  0  0  0  0
  182.9270  179.2820  138.5100 C   0  0  0  0  0  3  0  0  0  0  0  0
  1 11  1  1  0  0  0
  2  7  1  0  0  0  0
  3  2  1  0  0  0  0
  3  9  1  0  0  0  0
  5 16  1  0  0  0  0
  5  4  2  0  0  0  0
  6  9  2  0  0  0  0
  6 13  1  0  0  0  0
  7 19  1  0  0  0  0
  7 17  2  0  0  0  0
  8  1  1  0  0  0  0
 10 14  2  0  0  0  0
 12 21  2  0  0  0  0
 12 22  1  0  0  0  0
 14 19  1  0  0  0  0
 15 10  1  0  0  0  0
 15  2  2  0  0  0  0
 16 10  1  0  0  0  0
 17  1  1  0  0  0  0
 18  6  1  0  0  0  0
 19 20  2  0  0  0  0
 20  8  1  0  0  0  0
 21 15  1  0  0  0  0
 22  3  2  0  0  0  0
 23 22  1  0  0  0  0
 23 18  2  0  0  0  0
 24 31  2  0  0  0  0
 24 28  1  0  0  0  0
 25 30  1  0  0  0  0
 27 24  1  0  0  0  0
 28 25  2  0  0  0  0
 29 26  1  0  0  0  0
 29 30  2  0  0  0  0
 30  5  1  0  0  0  0
 31 29  1  0  0  0  0
M  END
>  <MODEL>
4

>  <REMARK>
 VINA RESULT:     -10.7      3.414      4.789
  Name = 
  1 active torsions:
  status: ('A' for Active; 'I' for Inactive)
    1  A    between atoms: C_9  and  C_22
                            x       y       z     vdW  Elec       q    Type
                         _______ _______ _______ _____ _____    ______ ____

>  <TORSDO>
F 1

$$$$
=
 OpenBabel10272400263D

 31 35  0  0  1  0  0  0  0  0999 V2000
  184.2830  179.1920  144.4740 C   0  0  1  0  0  3  0  0  0  0  0  0
  187.8290  177.7910  144.2640 C   0  0  0  0  0  0  0  0  0  0  0  0
  188.2930  177.6610  145.6060 C   0  0  0  0  0  0  0  0  0  0  0  0
  187.8490  177.6630  139.0020 O   0  0  0  0  0  0  0  0  0  0  0  0
  188.9800  177.2880  139.4150 C   0  0  0  0  0  0  0  0  0  0  0  0
  187.9370  177.8290  147.9610 C   0  0  0  0  0  0  0  0  0  0  0  0
  186.5220  178.2430  143.9090 C   0  0  0  0  0  0  0  0  0  0  0  0
  183.9520  178.9420  143.1080 O   0  0  0  0  0  0  0  0  0  0  0  0
  187.5010  177.9500  146.6790 N   0  0  0  0  0  0  0  0  0  0  0  0
  188.3310  177.5630  141.8760 C   0  0  0  0  0  0  0  0  0  0  0  0
  183.3040  178.6700  145.2990 F   0  0  0  0  0  0  0  0  0  0  0  0
  190.4370  176.9140  144.8090 N   0  0  0  0  0  0  0  0  0  0  0  0
  187.1070  178.1300  148.9870 F   0  0  0  0  0  0  0  0  0  0  0  0
  187.0690  177.9660  141.5830 N   0  0  0  0  0  0  0  0  0  0  0  0
  188.7310  177.4580  143.2170 C   0  0  0  0  0  0  0  0  0  0  0  0
  189.2500  177.2300  140.8230 N   0  0  0  0  0  2  0  0  0  0  0  0
  185.6230  178.6180  144.8360 C   0  0  0  0  0  3  0  0  0  0  0  0
  189.2360  177.3930  148.2210 C   0  0  0  0  0  3  0  0  0  0  0  0
  186.1670  178.2970  142.5380 C   0  0  0  0  0  0  0  0  0  0  0  0
  184.9280  178.6220  142.1600 C   0  0  0  0  0  3  0  0  0  0  0  0
  190.0260  177.0240  143.5230 C   0  0  0  0  0  3  0  0  0  0  0  0
  189.6150  177.2150  145.8430 C   0  0  0  0  0  0  0  0  0  0  0  0
  190.0760  177.0860  147.1530 C   0  0  0  0  0  3  0  0  0  0  0  0
  191.9810  176.1620  136.5570 C   0  0  0  0  0  0  0  0  0  0  0  0
  189.6670  176.5220  137.1550 C   0  0  0  0  0  3  0  0  0  0  0  0
  191.8440  177.2810  140.0610 O   0  0  0  0  0  1  0  0  0  0  0  0
  192.9370  175.7950  135.6220 O   0  0  0  0  0  1  0  0  0  0  0  0
  190.6290  176.1540  136.2130 C   0  0  0  0  0  3  0  0  0  0  0  0
  191.4130  176.9110  138.7930 C   0  0  0  0  0  0  0  0  0  0  0  0
  190.0400  176.9060  138.4540 C   0  0  0  0  0  0  0  0  0  0  0  0
  192.3700  176.5400  137.8430 C   0  0  0  0  0  3  0  0  0  0  0  0
  1 17  1  0  0  0  0
  1 11  1  1  0  0  0
  2  3  1  0  0  0  0
  3 22  2  0  0  0  0
  3  9  1  0  0  0  0
  4  5  2  0  0  0  0
  5 16  1  0  0  0  0
  6 18  1  0  0  0  0
  6 13  1  0  0  0  0
  7  2  1  0  0  0  0
  7 17  2  0  0  0  0
  8  1  1  0  0  0  0
  9  6  2  0  0  0  0
 10 15  1  0  0  0  0
 12 22  1  0  0  0  0
 14 10  2  0  0  0  0
 14 19  1  0  0  0  0
 15 21  1  0  0  0  0
 15  2  2  0  0  0  0
 16 10  1  0  0  0  0
 19  7  1  0  0  0  0
 20 19  2  0  0  0  0
 20  8  1  0  0  0  0
 21 12  2  0  0  0  0
 22 23  1  0  0  0  0
 23 18  2  0  0  0  0
 24 31  1  0  0  0  0
 25 30  2  0  0  0  0
 27 24  1  0  0  0  0
 28 24  2  0  0  0  0
 28 25  1  0  0  0  0
 29 26  1  0  0  0  0
 30 29  1  0  0  0  0
 30  5  1  0  0  0  0
 31 29  2  0  0  0  0
M  END
>  <MODEL>
5

>  <REMARK>
 VINA RESULT:     -10.3      1.709      1.775
  Name = 
  1 active torsions:
  status: ('A' for Active; 'I' for Inactive)
    1  A    between atoms: C_9  and  C_22
                            x       y       z     vdW  Elec       q    Type
                         _______ _______ _______ _____ _____    ______ ____

>  <TORSDO>
F 1

$$$$
=
 OpenBabel10272400263D

 31 35  0  0  1  0  0  0  0  0999 V2000
  184.3070  179.2650  144.4370 C   0  0  1  0  0  3  0  0  0  0  0  0
  187.8170  177.7740  144.2160 C   0  0  0  0  0  0  0  0  0  0  0  0
  188.2790  177.6270  145.5580 C   0  0  0  0  0  0  0  0  0  0  0  0
  187.8260  177.6660  138.9540 O   0  0  0  0  0  0  0  0  0  0  0  0
  188.9470  177.2600  139.3640 C   0  0  0  0  0  0  0  0  0  0  0  0
  187.9300  177.7950  147.9140 C   0  0  0  0  0  0  0  0  0  0  0  0
  186.5200  178.2610  143.8650 C   0  0  0  0  0  0  0  0  0  0  0  0
  183.9690  179.0290  143.0710 O   0  0  0  0  0  0  0  0  0  0  0  0
  187.4960  177.9330  146.6330 N   0  0  0  0  0  0  0  0  0  0  0  0
  188.3090  177.5430  141.8270 C   0  0  0  0  0  0  0  0  0  0  0  0
  183.3170  178.7650  145.2610 F   0  0  0  0  0  0  0  0  0  0  0  0
  190.4010  176.8280  144.7540 N   0  0  0  0  0  0  0  0  0  0  0  0
  187.1090  178.1140  148.9420 F   0  0  0  0  0  0  0  0  0  0  0  0
  187.0570  177.9790  141.5370 N   0  0  0  0  0  0  0  0  0  0  0  0
  188.7080  177.4220  143.1670 C   0  0  0  0  0  0  0  0  0  0  0  0
  189.2170  177.1890  140.7720 N   0  0  0  0  0  2  0  0  0  0  0  0
  185.6330  178.6550  144.7950 C   0  0  0  0  0  3  0  0  0  0  0  0
  189.2180  177.3250  148.1700 C   0  0  0  0  0  3  0  0  0  0  0  0
  186.1650  178.3290  142.4950 C   0  0  0  0  0  0  0  0  0  0  0  0
  184.9340  178.6870  142.1190 C   0  0  0  0  0  3  0  0  0  0  0  0
  189.9920  176.9540  143.4690 C   0  0  0  0  0  3  0  0  0  0  0  0
  189.5890  177.1470  145.7900 C   0  0  0  0  0  0  0  0  0  0  0  0
  190.0480  177.0010  147.1000 C   0  0  0  0  0  3  0  0  0  0  0  0
  192.0590  176.0970  136.6420 C   0  0  0  0  0  0  0  0  0  0  0  0
  191.3340  176.8390  138.8250 C   0  0  0  0  0  3  0  0  0  0  0  0
  188.3970  176.4740  136.5890 O   0  0  0  0  0  1  0  0  0  0  0  0
  193.0760  175.7240  135.7760 O   0  0  0  0  0  1  0  0  0  0  0  0
  192.3580  176.4640  137.9550 C   0  0  0  0  0  3  0  0  0  0  0  0
  189.7020  176.4800  137.0680 C   0  0  0  0  0  0  0  0  0  0  0  0
  189.9960  176.8540  138.4000 C   0  0  0  0  0  0  0  0  0  0  0  0
  190.7340  176.1060  136.2020 C   0  0  0  0  0  3  0  0  0  0  0  0
  1 17  1  0  0  0  0
  1 11  1  1  0  0  0
  2  3  1  0  0  0  0
  3 22  2  0  0  0  0
  3  9  1  0  0  0  0
  4  5  2  0  0  0  0
  5 16  1  0  0  0  0
  6 18  1  0  0  0  0
  6 13  1  0  0  0  0
  7  2  1  0  0  0  0
  7 17  2  0  0  0  0
  8  1  1  0  0  0  0
  9  6  2  0  0  0  0
 10 15  1  0  0  0  0
 12 22  1  0  0  0  0
 14 10  2  0  0  0  0
 14 19  1  0  0  0  0
 15 21  1  0  0  0  0
 15  2  2  0  0  0  0
 16 10  1  0  0  0  0
 19  7  1  0  0  0  0
 20 19  2  0  0  0  0
 20  8  1  0  0  0  0
 21 12  2  0  0  0  0
 22 23  1  0  0  0  0
 23 18  2  0  0  0  0
 24 28  1  0  0  0  0
 26 29  1  0  0  0  0
 27 24  1  0  0  0  0
 28 25  2  0  0  0  0
 29 30  2  0  0  0  0
 30 25  1  0  0  0  0
 30  5  1  0  0  0  0
 31 24  2  0  0  0  0
 31 29  1  0  0  0  0
M  END
>  <MODEL>
6

>  <REMARK>
 VINA RESULT:     -10.3      1.612      1.765
  Name = 
  1 active torsions:
  status: ('A' for Active; 'I' for Inactive)
    1  A    between atoms: C_9  and  C_22
                            x       y       z     vdW  Elec       q    Type
                         _______ _______ _______ _____ _____    ______ ____

>  <TORSDO>
F 1

$$$$
=
 OpenBabel10272400263D

 31 35  0  0  1  0  0  0  0  0999 V2000
  191.1810  176.9530  142.6280 C   0  0  1  0  0  3  0  0  0  0  0  0
  187.6360  177.9800  143.6110 C   0  0  0  0  0  0  0  0  0  0  0  0
  187.5880  177.9530  145.0360 C   0  0  0  0  0  0  0  0  0  0  0  0
  186.0300  178.5210  138.6280 O   0  0  0  0  0  0  0  0  0  0  0  0
  185.0490  178.7390  139.3900 C   0  0  0  0  0  0  0  0  0  0  0  0
  188.6460  177.6380  147.1530 C   0  0  0  0  0  0  0  0  0  0  0  0
  188.8090  177.6990  142.8440 C   0  0  0  0  0  0  0  0  0  0  0  0
  191.0660  177.3430  141.2600 O   0  0  0  0  0  0  0  0  0  0  0  0
  188.6850  177.6660  145.7940 N   0  0  0  0  0  0  0  0  0  0  0  0
  186.4260  178.3410  141.5120 C   0  0  0  0  0  0  0  0  0  0  0  0
  192.3180  177.5090  143.1840 F   0  0  0  0  0  0  0  0  0  0  0  0
  185.2520  178.5280  144.9820 N   0  0  0  0  0  0  0  0  0  0  0  0
  189.7670  177.3470  147.8550 F   0  0  0  0  0  0  0  0  0  0  0  0
  187.5690  178.0990  140.8220 N   0  0  0  0  0  0  0  0  0  0  0  0
  186.4390  178.2970  142.9140 C   0  0  0  0  0  0  0  0  0  0  0  0
  185.2100  178.6570  140.8140 N   0  0  0  0  0  2  0  0  0  0  0  0
  189.9710  177.3500  143.4240 C   0  0  0  0  0  3  0  0  0  0  0  0
  187.4550  177.9110  147.8250 C   0  0  0  0  0  3  0  0  0  0  0  0
  188.7390  177.7920  141.4320 C   0  0  0  0  0  0  0  0  0  0  0  0
  189.8290  177.6320  140.6770 C   0  0  0  0  0  3  0  0  0  0  0  0
  185.2650  178.5640  143.6280 C   0  0  0  0  0  3  0  0  0  0  0  0
  186.3670  178.2350  145.6930 C   0  0  0  0  0  0  0  0  0  0  0  0
  186.3120  178.2110  147.0870 C   0  0  0  0  0  3  0  0  0  0  0  0
  181.2170  179.8290  137.7870 C   0  0  0  0  0  0  0  0  0  0  0  0
  183.2570  180.4000  138.9510 C   0  0  0  0  0  3  0  0  0  0  0  0
  183.3150  176.8120  138.0100 O   0  0  0  0  0  1  0  0  0  0  0  0
  179.9820  180.1980  137.2740 O   0  0  0  0  0  1  0  0  0  0  0  0
  182.0140  180.7720  138.4360 C   0  0  0  0  0  3  0  0  0  0  0  0
  182.9080  178.1320  138.1650 C   0  0  0  0  0  0  0  0  0  0  0  0
  183.7230  179.0810  138.8260 C   0  0  0  0  0  0  0  0  0  0  0  0
  181.6640  178.5140  137.6530 C   0  0  0  0  0  3  0  0  0  0  0  0
  1 11  1  1  0  0  0
  1 17  1  0  0  0  0
  2  3  1  0  0  0  0
  3 22  2  0  0  0  0
  3  9  1  0  0  0  0
  4  5  2  0  0  0  0
  5 16  1  0  0  0  0
  6 18  1  0  0  0  0
  6 13  1  0  0  0  0
  7 17  2  0  0  0  0
  7  2  1  0  0  0  0
  8  1  1  0  0  0  0
  9  6  2  0  0  0  0
 10 15  1  0  0  0  0
 12 22  1  0  0  0  0
 14 19  1  0  0  0  0
 14 10  2  0  0  0  0
 15  2  2  0  0  0  0
 15 21  1  0  0  0  0
 16 10  1  0  0  0  0
 19  7  1  0  0  0  0
 20  8  1  0  0  0  0
 20 19  2  0  0  0  0
 21 12  2  0  0  0  0
 22 23  1  0  0  0  0
 23 18  2  0  0  0  0
 24 28  1  0  0  0  0
 26 29  1  0  0  0  0
 27 24  1  0  0  0  0
 28 25  2  0  0  0  0
 29 30  2  0  0  0  0
 30 25  1  0  0  0  0
 30  5  1  0  0  0  0
 31 24  2  0  0  0  0
 31 29  1  0  0  0  0
M  END
>  <MODEL>
7

>  <REMARK>
 VINA RESULT:     -10.1      3.413      5.481
  Name = 
  1 active torsions:
  status: ('A' for Active; 'I' for Inactive)
    1  A    between atoms: C_9  and  C_22
                            x       y       z     vdW  Elec       q    Type
                         _______ _______ _______ _____ _____    ______ ____

>  <TORSDO>
F 1

$$$$
=
 OpenBabel10272400263D

 31 35  0  0  1  0  0  0  0  0999 V2000
  186.9770  178.3970  147.6040 C   0  0  1  0  0  3  0  0  0  0  0  0
  187.7080  177.8050  143.9030 C   0  0  0  0  0  0  0  0  0  0  0  0
  189.0960  177.4920  143.8100 C   0  0  0  0  0  0  0  0  0  0  0  0
  182.7600  178.7880  142.4030 O   0  0  0  0  0  0  0  0  0  0  0  0
  183.4530  178.5680  141.3730 C   0  0  0  0  0  0  0  0  0  0  0  0
  191.2160  177.0890  144.8320 C   0  0  0  0  0  0  0  0  0  0  0  0
  187.0240  178.0530  145.1330 C   0  0  0  0  0  0  0  0  0  0  0  0
  185.5560  178.3780  147.4710 O   0  0  0  0  0  0  0  0  0  0  0  0
  189.8920  177.3870  144.9130 N   0  0  0  0  0  0  0  0  0  0  0  0
  185.5950  178.1870  142.7220 C   0  0  0  0  0  0  0  0  0  0  0  0
  187.3680  177.5310  148.6070 F   0  0  0  0  0  0  0  0  0  0  0  0
  188.9230  177.3700  141.4130 N   0  0  0  0  0  0  0  0  0  0  0  0
  191.9580  176.9980  145.9610 F   0  0  0  0  0  0  0  0  0  0  0  0
  184.9760  178.3830  143.9140 N   0  0  0  0  0  0  0  0  0  0  0  0
  186.9650  177.8850  142.6940 C   0  0  0  0  0  0  0  0  0  0  0  0
  184.8520  178.2710  141.4960 N   0  0  0  0  0  2  0  0  0  0  0  0
  187.6610  178.0380  146.3160 C   0  0  0  0  0  3  0  0  0  0  0  0
  191.8110  176.8760  143.5890 C   0  0  0  0  0  3  0  0  0  0  0  0
  185.6330  178.3200  145.0980 C   0  0  0  0  0  0  0  0  0  0  0  0
  184.9300  178.4650  146.2240 C   0  0  0  0  0  3  0  0  0  0  0  0
  187.6010  177.6630  141.4670 C   0  0  0  0  0  3  0  0  0  0  0  0
  189.6740  177.2790  142.5370 C   0  0  0  0  0  0  0  0  0  0  0  0
  191.0320  176.9720  142.4370 C   0  0  0  0  0  3  0  0  0  0  0  0
  181.6650  178.8030  137.4750 C   0  0  0  0  0  0  0  0  0  0  0  0
  182.6350  179.8630  139.4190 C   0  0  0  0  0  3  0  0  0  0  0  0
  182.6070  176.1830  139.8830 O   0  0  0  0  0  1  0  0  0  0  0  0
  181.0900  178.8970  136.2170 O   0  0  0  0  0  1  0  0  0  0  0  0
  182.0560  179.9590  138.1530 C   0  0  0  0  0  3  0  0  0  0  0  0
  182.4350  177.4480  139.3330 C   0  0  0  0  0  0  0  0  0  0  0  0
  182.8340  178.6130  140.0280 C   0  0  0  0  0  0  0  0  0  0  0  0
  181.8550  177.5520  138.0650 C   0  0  0  0  0  3  0  0  0  0  0  0
  1 11  1  1  0  0  0
  2  7  1  0  0  0  0
  3  2  1  0  0  0  0
  3  9  1  0  0  0  0
  5 16  1  0  0  0  0
  5  4  2  0  0  0  0
  6  9  2  0  0  0  0
  6 13  1  0  0  0  0
  7 17  2  0  0  0  0
  8  1  1  0  0  0  0
 10 14  2  0  0  0  0
 12 21  2  0  0  0  0
 12 22  1  0  0  0  0
 14 19  1  0  0  0  0
 15 10  1  0  0  0  0
 15  2  2  0  0  0  0
 16 10  1  0  0  0  0
 17  1  1  0  0  0  0
 18  6  1  0  0  0  0
 19  7  1  0  0  0  0
 19 20  2  0  0  0  0
 20  8  1  0  0  0  0
 21 15  1  0  0  0  0
 22  3  2  0  0  0  0
 23 22  1  0  0  0  0
 23 18  2  0  0  0  0
 24 31  2  0  0  0  0
 24 28  1  0  0  0  0
 25 30  1  0  0  0  0
 27 24  1  0  0  0  0
 28 25  2  0  0  0  0
 29 26  1  0  0  0  0
 29 30  2  0  0  0  0
 30  5  1  0  0  0  0
 31 29  1  0  0  0  0
M  END
>  <MODEL>
8

>  <REMARK>
 VINA RESULT:      -9.9      3.561      4.830
  Name = 
  1 active torsions:
  status: ('A' for Active; 'I' for Inactive)
    1  A    between atoms: C_9  and  C_22
                            x       y       z     vdW  Elec       q    Type
                         _______ _______ _______ _____ _____    ______ ____

>  <TORSDO>
F 1

$$$$
=
 OpenBabel10272400263D

 31 35  0  0  1  0  0  0  0  0999 V2000
  183.5520  178.9720  139.3640 C   0  0  1  0  0  3  0  0  0  0  0  0
  187.2830  178.2210  139.6770 C   0  0  0  0  0  0  0  0  0  0  0  0
  187.8000  178.1760  138.3490 C   0  0  0  0  0  0  0  0  0  0  0  0
  187.1480  177.9390  144.9310 O   0  0  0  0  0  0  0  0  0  0  0  0
  188.3190  177.6740  144.5470 C   0  0  0  0  0  0  0  0  0  0  0  0
  187.5070  178.3970  135.9890 C   0  0  0  0  0  0  0  0  0  0  0  0
  185.9230  178.5200  139.9980 C   0  0  0  0  0  0  0  0  0  0  0  0
  183.3500  179.2610  140.7470 O   0  0  0  0  0  0  0  0  0  0  0  0
  187.0220  178.4370  137.2580 N   0  0  0  0  0  0  0  0  0  0  0  0
  187.7280  177.9700  142.0730 C   0  0  0  0  0  0  0  0  0  0  0  0
  183.0420  179.9960  138.5890 F   0  0  0  0  0  0  0  0  0  0  0  0
  189.9730  177.5900  139.1980 N   0  0  0  0  0  0  0  0  0  0  0  0
  186.6890  178.6650  134.9440 F   0  0  0  0  0  0  0  0  0  0  0  0
  186.4360  178.2910  142.3370 N   0  0  0  0  0  0  0  0  0  0  0  0
  188.1780  177.9390  140.7450 C   0  0  0  0  0  0  0  0  0  0  0  0
  188.6370  177.6790  143.1470 N   0  0  0  0  0  2  0  0  0  0  0  0
  185.0040  178.7580  139.0460 C   0  0  0  0  0  3  0  0  0  0  0  0
  188.8470  178.0810  135.7620 C   0  0  0  0  0  3  0  0  0  0  0  0
  185.5380  178.5680  141.3610 C   0  0  0  0  0  0  0  0  0  0  0  0
  184.3040  178.9360  141.7150 C   0  0  0  0  0  3  0  0  0  0  0  0
  189.5140  177.6270  140.4720 C   0  0  0  0  0  3  0  0  0  0  0  0
  189.1620  177.8550  138.1460 C   0  0  0  0  0  0  0  0  0  0  0  0
  189.6750  177.8090  136.8490 C   0  0  0  0  0  3  0  0  0  0  0  0
  191.4510  176.7240  147.3270 C   0  0  0  0  0  0  0  0  0  0  0  0
  190.6270  176.9180  145.0640 C   0  0  0  0  0  3  0  0  0  0  0  0
  187.9650  177.9010  147.4530 O   0  0  0  0  0  1  0  0  0  0  0  0
  192.4740  176.4140  148.2120 O   0  0  0  0  0  1  0  0  0  0  0  0
  191.6560  176.6050  145.9520 C   0  0  0  0  0  3  0  0  0  0  0  0
  189.1790  177.4730  146.9280 C   0  0  0  0  0  0  0  0  0  0  0  0
  189.3770  177.3550  145.5330 C   0  0  0  0  0  0  0  0  0  0  0  0
  190.2160  177.1570  147.8120 C   0  0  0  0  0  3  0  0  0  0  0  0
  1 11  1  6  0  0  0
  1  8  1  0  0  0  0
  2  7  1  0  0  0  0
  2 15  1  0  0  0  0
  3  2  2  0  0  0  0
  5  4  2  0  0  0  0
  5 30  1  0  0  0  0
  6  9  2  0  0  0  0
  7 19  1  0  0  0  0
  8 20  1  0  0  0  0
  9  3  1  0  0  0  0
 10 14  2  0  0  0  0
 10 16  1  0  0  0  0
 12 21  1  0  0  0  0
 13  6  1  0  0  0  0
 15 10  1  0  0  0  0
 16  5  1  0  0  0  0
 17  1  1  0  0  0  0
 17  7  2  0  0  0  0
 18  6  1  0  0  0  0
 18 23  2  0  0  0  0
 19 20  2  0  0  0  0
 19 14  1  0  0  0  0
 21 15  2  0  0  0  0
 22  3  1  0  0  0  0
 22 12  2  0  0  0  0
 23 22  1  0  0  0  0
 24 31  1  0  0  0  0
 24 27  1  0  0  0  0
 25 30  2  0  0  0  0
 25 28  1  0  0  0  0
 28 24  2  0  0  0  0
 29 26  1  0  0  0  0
 29 31  2  0  0  0  0
 30 29  1  0  0  0  0
M  END
>  <MODEL>
9

>  <REMARK>
 VINA RESULT:      -9.8      3.828      7.999
  Name = 
  1 active torsions:
  status: ('A' for Active; 'I' for Inactive)
    1  A    between atoms: C_9  and  C_22
                            x       y       z     vdW  Elec       q    Type
                         _______ _______ _______ _____ _____    ______ ____

>  <TORSDO>
F 1

$$$$
