=
 OpenBabel10272402093D

 32 34  0  0  1  0  0  0  0  0999 V2000
  191.6940  176.1490  139.0760 C   0  0  1  0  0  3  0  0  0  0  0  0
  190.1910  175.9680  138.8260 C   0  0  0  0  0  2  0  0  0  0  0  0
  191.9220  175.8330  136.5760 N   0  0  0  0  0  0  0  0  0  0  0  0
  188.4850  177.8800  134.5410 O   0  0  0  0  0  0  0  0  0  0  0  0
  189.5340  177.1480  138.1160 C   0  0  0  0  0  2  0  0  0  0  0  0
  187.9680  175.5390  134.8450 C   0  0  0  0  0  2  0  0  0  0  0  0
  188.3830  175.5710  136.3420 C   0  0  1  0  0  0  0  0  0  0  0  0
  191.5810  174.4170  136.4690 C   0  0  0  0  0  2  0  0  0  0  0  0
  186.0910  176.6720  137.0860 C   0  0  2  0  0  3  0  0  0  0  0  0
  190.2440  174.2690  135.7560 C   0  0  0  0  0  2  0  0  0  0  0  0
  192.6110  176.1420  137.8400 C   0  0  2  0  0  3  0  0  0  0  0  0
  184.9040  176.3610  137.7590 O   0  0  0  0  0  1  0  0  0  0  0  0
  187.1090  175.5170  137.2420 C   0  0  1  0  0  3  0  0  0  0  0  0
  189.1730  174.4270  136.6620 O   0  0  0  0  0  0  0  0  0  0  0  0
  187.3900  178.7800  136.5470 C   0  0  0  0  0  2  0  0  0  0  0  0
  192.7980  176.1750  135.4640 C   0  0  0  0  0  1  0  0  0  0  0  0
  186.6720  177.9830  137.6330 C   0  0  1  0  0  3  0  0  0  0  0  0
  189.2030  176.8630  136.6410 C   0  0  1  0  0  3  0  0  0  0  0  0
  193.8390  175.2680  138.0970 C   0  0  0  0  0  1  0  0  0  0  0  0
  187.4920  176.9010  134.3460 C   0  0  0  0  0  2  0  0  0  0  0  0
  188.6310  178.1010  135.9280 C   0  0  1  0  0  3  0  0  0  0  0  0
  186.4750  174.1430  137.2850 C   0  0  0  0  0  3  0  0  0  0  0  0
  185.2130  174.4310  135.2970 O   0  0  0  0  0  1  0  0  0  0  0  0
  185.6200  173.6580  136.3790 C   0  0  0  0  0  0  0  0  0  0  0  0
  184.1320  172.0550  137.3100 O   0  0  0  0  0  1  0  0  0  0  0  0
  185.6370  171.2580  135.7810 O   0  0  0  0  0  0  0  0  0  0  0  0
  185.0860  172.2960  136.5210 C   0  0  0  0  0  0  0  0  0  0  0  0
  191.9940  177.3600  139.9510 C   0  0  0  0  0  2  0  0  0  0  0  0
  191.3490  177.2020  141.3150 C   0  0  0  0  0  1  0  0  0  0  0  0
  185.6690  178.7880  138.1880 O   0  0  0  0  0  0  0  0  0  0  0  0
  185.9580  178.8540  139.4710 O   0  0  0  0  0  0  0  0  0  0  0  0
  184.7290  179.0520  140.1050 C   0  0  0  0  0  1  0  0  0  0  0  0
  1 28  1  6  0  0  0
  2  1  1  0  0  0  0
  3 11  1  0  0  0  0
  4 21  1  0  0  0  0
  5  2  1  0  0  0  0
  7  6  1  6  0  0  0
  7 18  1  0  0  0  0
  7 14  1  0  0  0  0
  7 13  1  0  0  0  0
  8  3  1  0  0  0  0
  9 13  1  0  0  0  0
  9 17  1  0  0  0  0
  9 12  1  1  0  0  0
 10  8  1  0  0  0  0
 10 14  1  0  0  0  0
 11 19  1  1  0  0  0
 11  1  1  0  0  0  0
 13 22  1  6  0  0  0
 15 17  1  0  0  0  0
 16  3  1  0  0  0  0
 17 30  1  6  0  0  0
 18  5  1  1  0  0  0
 20  4  1  0  0  0  0
 20  6  1  0  0  0  0
 21 15  1  1  0  0  0
 21 18  1  0  0  0  0
 23 24  1  0  0  0  0
 24 27  1  0  0  0  0
 24 22  2  0  0  0  0
 26 27  2  0  0  0  0
 27 25  1  0  0  0  0
 28 29  1  0  0  0  0
 30 31  1  0  0  0  0
 31 32  1  0  0  0  0
M  END
>  <MODEL>
1

>  <REMARK>
 VINA RESULT:      -5.4      0.000      0.000
  Name = 
  5 active torsions:
  status: ('A' for Active; 'I' for Inactive)
    1  A    between atoms: O_1  and  O_4
    2  A    between atoms: O_1  and  C_27
    3  A    between atoms: C_2  and  C_14
    4  A    between atoms: C_3  and  C_22
    5  A    between atoms: C_19  and  C_26
                            x       y       z     vdW  Elec       q    Type
                         _______ _______ _______ _____ _____    ______ ____

>  <TORSDO>
F 5

$$$$
=
 OpenBabel10272402093D

 32 34  0  0  1  0  0  0  0  0999 V2000
  190.5770  175.1610  137.8650 C   0  0  1  0  0  3  0  0  0  0  0  0
  189.0440  175.1320  137.8180 C   0  0  0  0  0  2  0  0  0  0  0  0
  190.4210  175.7260  135.4040 N   0  0  0  0  0  0  0  0  0  0  0  0
  186.9290  178.4740  134.7700 O   0  0  0  0  0  0  0  0  0  0  0  0
  188.4020  176.5080  137.6660 C   0  0  0  0  0  2  0  0  0  0  0  0
  186.2520  176.1930  134.3460 C   0  0  0  0  0  2  0  0  0  0  0  0
  186.8750  175.6870  135.6770 C   0  0  1  0  0  0  0  0  0  0  0  0
  189.9420  174.4490  134.8830 C   0  0  0  0  0  2  0  0  0  0  0  0
  184.8190  176.5420  137.1130 C   0  0  2  0  0  3  0  0  0  0  0  0
  188.5110  174.6060  134.3890 C   0  0  0  0  0  2  0  0  0  0  0  0
  191.3060  175.5510  136.5680 C   0  0  2  0  0  3  0  0  0  0  0  0
  183.7160  176.0580  137.8240 O   0  0  0  0  0  1  0  0  0  0  0  0
  185.7410  175.3690  136.7000 C   0  0  1  0  0  3  0  0  0  0  0  0
  187.5960  174.4760  135.4580 O   0  0  0  0  0  0  0  0  0  0  0  0
  186.2130  178.6580  137.1120 C   0  0  0  0  0  2  0  0  0  0  0  0
  191.1580  176.4020  134.3460 C   0  0  0  0  0  1  0  0  0  0  0  0
  185.5870  177.5590  137.9670 C   0  0  1  0  0  3  0  0  0  0  0  0
  187.8420  176.7650  136.2560 C   0  0  1  0  0  3  0  0  0  0  0  0
  192.4750  174.6000  136.3100 C   0  0  0  0  0  1  0  0  0  0  0  0
  185.8350  177.6590  134.4210 C   0  0  0  0  0  2  0  0  0  0  0  0
  187.2880  178.1930  136.1070 C   0  0  1  0  0  3  0  0  0  0  0  0
  184.9990  174.0900  136.3800 C   0  0  0  0  0  3  0  0  0  0  0  0
  186.0920  172.7910  138.0380 O   0  0  0  0  0  1  0  0  0  0  0  0
  185.1620  172.9230  137.0120 C   0  0  0  0  0  0  0  0  0  0  0  0
  183.2380  171.5330  137.1380 O   0  0  0  0  0  1  0  0  0  0  0  0
  184.8600  170.8690  135.6670 O   0  0  0  0  0  0  0  0  0  0  0  0
  184.3660  171.7510  136.6200 C   0  0  0  0  0  0  0  0  0  0  0  0
  191.1050  175.9800  139.0370 C   0  0  0  0  0  2  0  0  0  0  0  0
  192.0970  177.0210  138.5540 C   0  0  0  0  0  1  0  0  0  0  0  0
  184.7480  178.1560  138.9170 O   0  0  0  0  0  0  0  0  0  0  0  0
  185.4780  179.1070  139.4640 O   0  0  0  0  0  0  0  0  0  0  0  0
  185.1260  179.0970  140.8150 C   0  0  0  0  0  1  0  0  0  0  0  0
  1 28  1  1  0  0  0
  2  1  1  0  0  0  0
  3 11  1  0  0  0  0
  4 21  1  0  0  0  0
  5  2  1  0  0  0  0
  6 20  1  0  0  0  0
  7  6  1  6  0  0  0
  7 18  1  0  0  0  0
  7 13  1  0  0  0  0
  8  3  1  0  0  0  0
  9 12  1  1  0  0  0
  9 17  1  0  0  0  0
 10  8  1  0  0  0  0
 10 14  1  0  0  0  0
 11 19  1  6  0  0  0
 11  1  1  0  0  0  0
 13 22  1  6  0  0  0
 13  9  1  0  0  0  0
 14  7  1  0  0  0  0
 15 17  1  0  0  0  0
 16  3  1  0  0  0  0
 17 30  1  1  0  0  0
 18  5  1  1  0  0  0
 20  4  1  0  0  0  0
 21 18  1  0  0  0  0
 21 15  1  1  0  0  0
 22 24  2  0  0  0  0
 24 23  1  0  0  0  0
 26 27  2  0  0  0  0
 27 24  1  0  0  0  0
 27 25  1  0  0  0  0
 29 28  1  0  0  0  0
 30 31  1  0  0  0  0
 31 32  1  0  0  0  0
M  END
>  <MODEL>
2

>  <REMARK>
 VINA RESULT:      -5.2      1.414      1.738
  Name = 
  5 active torsions:
  status: ('A' for Active; 'I' for Inactive)
    1  A    between atoms: O_1  and  O_4
    2  A    between atoms: O_1  and  C_27
    3  A    between atoms: C_2  and  C_14
    4  A    between atoms: C_3  and  C_22
    5  A    between atoms: C_19  and  C_26
                            x       y       z     vdW  Elec       q    Type
                         _______ _______ _______ _____ _____    ______ ____

>  <TORSDO>
F 5

$$$$
=
 OpenBabel10272402093D

 32 34  0  0  1  0  0  0  0  0999 V2000
  185.9250  176.3050  135.6260 C   0  0  1  0  0  3  0  0  0  0  0  0
  185.0740  177.0930  136.6300 C   0  0  0  0  0  2  0  0  0  0  0  0
  184.3190  174.4070  136.0920 N   0  0  0  0  0  0  0  0  0  0  0  0
  180.1830  176.0920  136.5430 O   0  0  0  0  0  0  0  0  0  0  0  0
  183.6920  177.4750  136.1060 C   0  0  0  0  0  2  0  0  0  0  0  0
  181.1970  175.8410  138.7220 C   0  0  0  0  0  2  0  0  0  0  0  0
  182.5040  176.5510  138.2730 C   0  0  1  0  0  0  0  0  0  0  0  0
  184.7020  174.0840  137.4640 C   0  0  0  0  0  2  0  0  0  0  0  0
  181.4280  178.9600  138.5150 C   0  0  2  0  0  3  0  0  0  0  0  0
  183.5730  174.4680  138.4100 C   0  0  0  0  0  2  0  0  0  0  0  0
  185.4640  174.8750  135.2940 C   0  0  2  0  0  3  0  0  0  0  0  0
  181.4780  180.0950  139.3330 O   0  0  0  0  0  1  0  0  0  0  0  0
  182.5650  177.9810  138.8950 C   0  0  1  0  0  3  0  0  0  0  0  0
  183.6450  175.8380  138.7450 O   0  0  0  0  0  0  0  0  0  0  0  0
  180.7310  178.4500  136.1330 C   0  0  0  0  0  2  0  0  0  0  0  0
  183.7740  173.2050  135.4770 C   0  0  0  0  0  1  0  0  0  0  0  0
  181.5390  179.3730  137.0420 C   0  0  1  0  0  3  0  0  0  0  0  0
  182.5570  176.6350  136.7170 C   0  0  1  0  0  3  0  0  0  0  0  0
  186.6550  173.9170  135.3120 C   0  0  0  0  0  1  0  0  0  0  0  0
  179.9820  176.2990  137.9220 C   0  0  0  0  0  2  0  0  0  0  0  0
  181.1890  176.9770  136.0980 C   0  0  1  0  0  3  0  0  0  0  0  0
  182.8950  177.9680  140.3720 C   0  0  0  0  0  3  0  0  0  0  0  0
  184.7820  179.3950  140.1780 O   0  0  0  0  0  1  0  0  0  0  0  0
  183.9050  178.6330  140.9440 C   0  0  0  0  0  0  0  0  0  0  0  0
  185.1770  178.0780  142.8730 O   0  0  0  0  0  0  0  0  0  0  0  0
  183.1240  179.0120  143.2590 O   0  0  0  0  0  1  0  0  0  0  0  0
  184.1130  178.5560  142.3960 C   0  0  0  0  0  0  0  0  0  0  0  0
  186.1860  177.0890  134.3460 C   0  0  0  0  0  2  0  0  0  0  0  0
  187.3380  178.0560  134.5400 C   0  0  0  0  0  1  0  0  0  0  0  0
  181.0940  180.6880  136.8510 O   0  0  0  0  0  0  0  0  0  0  0  0
  180.8030  180.7640  135.5680 O   0  0  0  0  0  0  0  0  0  0  0  0
  180.7810  182.1320  135.2870 C   0  0  0  0  0  1  0  0  0  0  0  0
  1 28  1  6  0  0  0
  1  2  1  0  0  0  0
  3  8  1  0  0  0  0
  4 20  1  0  0  0  0
  5  2  1  0  0  0  0
  7  6  1  1  0  0  0
  7 14  1  0  0  0  0
  7 13  1  0  0  0  0
  8 10  1  0  0  0  0
  9 13  1  0  0  0  0
  9 12  1  1  0  0  0
 10 14  1  0  0  0  0
 11 19  1  1  0  0  0
 11  1  1  0  0  0  0
 11  3  1  0  0  0  0
 13 22  1  1  0  0  0
 15 17  1  0  0  0  0
 16  3  1  0  0  0  0
 17 30  1  1  0  0  0
 17  9  1  0  0  0  0
 18  5  1  1  0  0  0
 18  7  1  0  0  0  0
 20  6  1  0  0  0  0
 21 15  1  1  0  0  0
 21  4  1  0  0  0  0
 21 18  1  0  0  0  0
 22 24  2  0  0  0  0
 23 24  1  0  0  0  0
 24 27  1  0  0  0  0
 27 25  2  0  0  0  0
 27 26  1  0  0  0  0
 28 29  1  0  0  0  0
 31 30  1  0  0  0  0
 32 31  1  0  0  0  0
M  END
>  <MODEL>
3

>  <REMARK>
 VINA RESULT:      -4.9      4.486      7.240
  Name = 
  5 active torsions:
  status: ('A' for Active; 'I' for Inactive)
    1  A    between atoms: O_1  and  O_4
    2  A    between atoms: O_1  and  C_27
    3  A    between atoms: C_2  and  C_14
    4  A    between atoms: C_3  and  C_22
    5  A    between atoms: C_19  and  C_26
                            x       y       z     vdW  Elec       q    Type
                         _______ _______ _______ _____ _____    ______ ____

>  <TORSDO>
F 5

$$$$
=
 OpenBabel10272402093D

 32 34  0  0  1  0  0  0  0  0999 V2000
  187.4820  171.8800  136.0130 C   0  0  1  0  0  3  0  0  0  0  0  0
  188.3270  172.9660  136.6940 C   0  0  0  0  0  2  0  0  0  0  0  0
  185.9490  173.7870  135.3720 N   0  0  0  0  0  0  0  0  0  0  0  0
  188.4510  177.3700  134.3460 O   0  0  0  0  0  0  0  0  0  0  0  0
  189.0600  173.8830  135.7190 C   0  0  0  0  0  2  0  0  0  0  0  0
  187.7470  177.5090  136.6530 C   0  0  0  0  0  2  0  0  0  0  0  0
  188.1940  176.0510  136.9490 C   0  0  1  0  0  0  0  0  0  0  0  0
  185.4030  174.1240  136.6840 C   0  0  0  0  0  2  0  0  0  0  0  0
  190.7410  176.7430  137.1800 C   0  0  2  0  0  3  0  0  0  0  0  0
  185.9230  175.4880  137.1160 C   0  0  0  0  0  2  0  0  0  0  0  0
  186.2350  172.3490  135.2440 C   0  0  2  0  0  3  0  0  0  0  0  0
  191.7410  176.9010  138.1460 O   0  0  0  0  0  1  0  0  0  0  0  0
  189.4990  176.0650  137.8050 C   0  0  1  0  0  3  0  0  0  0  0  0
  187.1980  175.3710  137.7120 O   0  0  0  0  0  0  0  0  0  0  0  0
  190.6590  176.3480  134.6780 C   0  0  0  0  0  2  0  0  0  0  0  0
  184.9720  174.1680  134.3610 C   0  0  0  0  0  1  0  0  0  0  0  0
  191.2760  175.9140  136.0050 C   0  0  1  0  0  3  0  0  0  0  0  0
  188.4310  175.2840  135.6130 C   0  0  1  0  0  3  0  0  0  0  0  0
  185.0400  171.4560  135.5770 C   0  0  0  0  0  1  0  0  0  0  0  0
  188.5480  178.1430  135.5200 C   0  0  0  0  0  2  0  0  0  0  0  0
  189.1340  176.1520  134.5530 C   0  0  1  0  0  3  0  0  0  0  0  0
  189.2530  176.4480  139.2490 C   0  0  0  0  0  3  0  0  0  0  0  0
  189.2590  178.7870  138.8500 O   0  0  0  0  0  1  0  0  0  0  0  0
  189.1320  177.6990  139.7070 C   0  0  0  0  0  0  0  0  0  0  0  0
  187.9070  178.6600  141.5020 O   0  0  0  0  0  0  0  0  0  0  0  0
  189.7090  177.3790  142.0900 O   0  0  0  0  0  1  0  0  0  0  0  0
  188.8750  177.9430  141.1330 C   0  0  0  0  0  0  0  0  0  0  0  0
  188.3230  170.9520  135.1460 C   0  0  0  0  0  2  0  0  0  0  0  0
  188.0400  169.5020  135.4890 C   0  0  0  0  0  1  0  0  0  0  0  0
  192.6690  176.0200  135.9050 O   0  0  0  0  0  0  0  0  0  0  0  0
  193.1140  174.7870  136.0440 O   0  0  0  0  0  0  0  0  0  0  0  0
  194.1950  174.8940  136.9230 C   0  0  0  0  0  1  0  0  0  0  0  0
  1 28  1  6  0  0  0
  1  2  1  0  0  0  0
  3  8  1  0  0  0  0
  4 21  1  0  0  0  0
  4 20  1  0  0  0  0
  5  2  1  0  0  0  0
  7  6  1  6  0  0  0
  7 14  1  0  0  0  0
  7 13  1  0  0  0  0
  8 10  1  0  0  0  0
  9 13  1  0  0  0  0
  9 12  1  1  0  0  0
 10 14  1  0  0  0  0
 11  3  1  0  0  0  0
 11 19  1  1  0  0  0
 11  1  1  0  0  0  0
 13 22  1  1  0  0  0
 15 17  1  0  0  0  0
 16  3  1  0  0  0  0
 17 30  1  6  0  0  0
 17  9  1  0  0  0  0
 18  5  1  1  0  0  0
 18  7  1  0  0  0  0
 20  6  1  0  0  0  0
 21 15  1  1  0  0  0
 21 18  1  0  0  0  0
 22 24  2  0  0  0  0
 23 24  1  0  0  0  0
 24 27  1  0  0  0  0
 27 25  2  0  0  0  0
 27 26  1  0  0  0  0
 28 29  1  0  0  0  0
 30 31  1  0  0  0  0
 31 32  1  0  0  0  0
M  END
>  <MODEL>
4

>  <REMARK>
 VINA RESULT:      -4.8      2.628      6.472
  Name = 
  5 active torsions:
  status: ('A' for Active; 'I' for Inactive)
    1  A    between atoms: O_1  and  O_4
    2  A    between atoms: O_1  and  C_27
    3  A    between atoms: C_2  and  C_14
    4  A    between atoms: C_3  and  C_22
    5  A    between atoms: C_19  and  C_26
                            x       y       z     vdW  Elec       q    Type
                         _______ _______ _______ _____ _____    ______ ____

>  <TORSDO>
F 5

$$$$
=
 OpenBabel10272402093D

 32 34  0  0  1  0  0  0  0  0999 V2000
  184.9570  172.2970  137.0780 C   0  0  1  0  0  3  0  0  0  0  0  0
  184.8540  173.6870  137.7210 C   0  0  0  0  0  2  0  0  0  0  0  0
  182.8790  172.9770  135.8050 N   0  0  0  0  0  0  0  0  0  0  0  0
  183.2050  177.3200  134.7210 O   0  0  0  0  0  0  0  0  0  0  0  0
  185.2050  174.8340  136.7780 C   0  0  0  0  0  2  0  0  0  0  0  0
  181.9410  177.0900  136.7680 C   0  0  0  0  0  2  0  0  0  0  0  0
  183.0070  176.1530  137.4010 C   0  0  1  0  0  0  0  0  0  0  0  0
  181.9050  172.9750  136.8930 C   0  0  0  0  0  2  0  0  0  0  0  0
  184.5930  178.1770  138.0380 C   0  0  2  0  0  3  0  0  0  0  0  0
  181.4610  174.4020  137.1810 C   0  0  0  0  0  2  0  0  0  0  0  0
  183.9210  171.9540  135.9940 C   0  0  2  0  0  3  0  0  0  0  0  0
  185.0390  178.8990  139.1510 O   0  0  0  0  0  1  0  0  0  0  0  0
  183.8030  176.9280  138.4970 C   0  0  1  0  0  3  0  0  0  0  0  0
  182.3760  175.0460  138.0430 O   0  0  0  0  0  0  0  0  0  0  0  0
  185.4240  177.7450  135.6840 C   0  0  0  0  0  2  0  0  0  0  0  0
  182.1720  172.7090  134.5610 C   0  0  0  0  0  1  0  0  0  0  0  0
  185.7880  177.7720  137.1670 C   0  0  1  0  0  3  0  0  0  0  0  0
  183.9750  175.6250  136.3000 C   0  0  1  0  0  3  0  0  0  0  0  0
  183.3650  170.5480  136.2180 C   0  0  0  0  0  1  0  0  0  0  0  0
  182.5430  178.0390  135.7350 C   0  0  0  0  0  2  0  0  0  0  0  0
  184.3520  176.7120  135.2760 C   0  0  1  0  0  3  0  0  0  0  0  0
  183.0060  177.1390  139.7670 C   0  0  0  0  0  3  0  0  0  0  0  0
  181.9120  179.1020  139.0060 O   0  0  0  0  0  1  0  0  0  0  0  0
  182.1350  178.1310  139.9770 C   0  0  0  0  0  0  0  0  0  0  0  0
  181.9170  178.7890  142.2500 O   0  0  0  0  0  1  0  0  0  0  0  0
  180.1360  177.6630  141.3570 O   0  0  0  0  0  0  0  0  0  0  0  0
  181.4060  178.2180  141.2500 C   0  0  0  0  0  0  0  0  0  0  0  0
  186.3650  171.9910  136.5830 C   0  0  0  0  0  2  0  0  0  0  0  0
  186.3900  171.9120  135.0680 C   0  0  0  0  0  1  0  0  0  0  0  0
  186.8650  178.6490  137.3450 O   0  0  0  0  0  0  0  0  0  0  0  0
  187.8860  177.8750  137.6530 O   0  0  0  0  0  0  0  0  0  0  0  0
  188.9810  178.7380  137.7270 C   0  0  0  0  0  1  0  0  0  0  0  0
  1 28  1  6  0  0  0
  1  2  1  0  0  0  0
  3 11  1  0  0  0  0
  3  8  1  0  0  0  0
  4 21  1  0  0  0  0
  4 20  1  0  0  0  0
  5  2  1  0  0  0  0
  7  6  1  6  0  0  0
  7 14  1  0  0  0  0
  7 13  1  0  0  0  0
  8 10  1  0  0  0  0
  9 13  1  0  0  0  0
  9 12  1  1  0  0  0
 10 14  1  0  0  0  0
 11 19  1  1  0  0  0
 11  1  1  0  0  0  0
 13 22  1  1  0  0  0
 15 17  1  0  0  0  0
 16  3  1  0  0  0  0
 17 30  1  6  0  0  0
 17  9  1  0  0  0  0
 18  5  1  1  0  0  0
 18  7  1  0  0  0  0
 20  6  1  0  0  0  0
 21 15  1  1  0  0  0
 21 18  1  0  0  0  0
 22 24  2  0  0  0  0
 23 24  1  0  0  0  0
 24 27  1  0  0  0  0
 27 26  2  0  0  0  0
 27 25  1  0  0  0  0
 29 28  1  0  0  0  0
 30 31  1  0  0  0  0
 31 32  1  0  0  0  0
M  END
>  <MODEL>
5

>  <REMARK>
 VINA RESULT:      -4.7      3.686      7.014
  Name = 
  5 active torsions:
  status: ('A' for Active; 'I' for Inactive)
    1  A    between atoms: O_1  and  O_4
    2  A    between atoms: O_1  and  C_27
    3  A    between atoms: C_2  and  C_14
    4  A    between atoms: C_3  and  C_22
    5  A    between atoms: C_19  and  C_26
                            x       y       z     vdW  Elec       q    Type
                         _______ _______ _______ _____ _____    ______ ____

>  <TORSDO>
F 5

$$$$
=
 OpenBabel10272402093D

 32 34  0  0  1  0  0  0  0  0999 V2000
  184.6050  179.2680  142.1780 C   0  0  1  0  0  3  0  0  0  0  0  0
  184.0310  179.1950  140.7560 C   0  0  0  0  0  2  0  0  0  0  0  0
  182.3350  178.4150  142.8990 N   0  0  0  0  0  0  0  0  0  0  0  0
  180.9050  175.3970  139.9000 O   0  0  0  0  0  0  0  0  0  0  0  0
  183.8490  177.7720  140.2340 C   0  0  0  0  0  2  0  0  0  0  0  0
  179.9820  177.5660  139.3690 C   0  0  0  0  0  2  0  0  0  0  0  0
  181.3680  178.2600  139.4800 C   0  0  1  0  0  0  0  0  0  0  0  0
  181.5200  179.5910  142.6070 C   0  0  0  0  0  2  0  0  0  0  0  0
  182.1100  177.4480  137.0700 C   0  0  2  0  0  3  0  0  0  0  0  0
  180.5900  179.2880  141.4400 C   0  0  0  0  0  2  0  0  0  0  0  0
  183.6980  178.7780  143.3200 C   0  0  2  0  0  3  0  0  0  0  0  0
  182.3310  177.9390  135.7780 O   0  0  0  0  0  1  0  0  0  0  0  0
  181.8900  178.6210  138.0550 C   0  0  1  0  0  3  0  0  0  0  0  0
  181.2540  179.4810  140.2080 O   0  0  0  0  0  0  0  0  0  0  0  0
  182.8630  175.4380  138.4180 C   0  0  0  0  0  2  0  0  0  0  0  0
  181.6910  177.6700  143.9710 C   0  0  0  0  0  1  0  0  0  0  0  0
  183.3000  176.5860  137.5110 C   0  0  1  0  0  3  0  0  0  0  0  0
  182.3780  177.3200  140.2050 C   0  0  1  0  0  3  0  0  0  0  0  0
  183.7360  179.7660  144.4870 C   0  0  0  0  0  1  0  0  0  0  0  0
  180.0990  176.0950  138.9800 C   0  0  0  0  0  2  0  0  0  0  0  0
  182.2360  175.8510  139.7660 C   0  0  1  0  0  3  0  0  0  0  0  0
  181.1720  179.8060  137.4450 C   0  0  0  0  0  3  0  0  0  0  0  0
  182.5590  181.4400  138.4620 O   0  0  0  0  0  1  0  0  0  0  0  0
  181.5010  181.0880  137.6310 C   0  0  0  0  0  0  0  0  0  0  0  0
  180.4180  182.0590  135.7510 O   0  0  0  0  0  0  0  0  0  0  0  0
  180.3540  183.2790  137.6860 O   0  0  0  0  0  1  0  0  0  0  0  0
  180.7340  182.1520  136.9680 C   0  0  0  0  0  0  0  0  0  0  0  0
  185.9820  178.6240  142.2800 C   0  0  0  0  0  2  0  0  0  0  0  0
  186.0410  177.6810  143.4670 C   0  0  0  0  0  1  0  0  0  0  0  0
  183.9740  176.0500  136.4070 O   0  0  0  0  0  0  0  0  0  0  0  0
  185.2190  175.8940  136.8110 O   0  0  0  0  0  0  0  0  0  0  0  0
  185.7380  177.1880  136.8830 C   0  0  0  0  0  1  0  0  0  0  0  0
  1 28  1  6  0  0  0
  1 11  1  0  0  0  0
  2  1  1  0  0  0  0
  3 11  1  0  0  0  0
  3 16  1  0  0  0  0
  5  2  1  0  0  0  0
  7  6  1  6  0  0  0
  7 18  1  0  0  0  0
  7 14  1  0  0  0  0
  8  3  1  0  0  0  0
  9 12  1  6  0  0  0
  9 17  1  0  0  0  0
  9 13  1  0  0  0  0
 10  8  1  0  0  0  0
 11 19  1  1  0  0  0
 13 22  1  6  0  0  0
 13  7  1  0  0  0  0
 14 10  1  0  0  0  0
 17 30  1  6  0  0  0
 17 15  1  0  0  0  0
 18  5  1  6  0  0  0
 20  6  1  0  0  0  0
 20  4  1  0  0  0  0
 21 15  1  6  0  0  0
 21  4  1  0  0  0  0
 21 18  1  0  0  0  0
 22 24  2  0  0  0  0
 24 23  1  0  0  0  0
 25 27  2  0  0  0  0
 27 24  1  0  0  0  0
 27 26  1  0  0  0  0
 28 29  1  0  0  0  0
 30 31  1  0  0  0  0
 31 32  1  0  0  0  0
M  END
>  <MODEL>
6

>  <REMARK>
 VINA RESULT:      -4.3      4.867      8.806
  Name = 
  5 active torsions:
  status: ('A' for Active; 'I' for Inactive)
    1  A    between atoms: O_1  and  O_4
    2  A    between atoms: O_1  and  C_27
    3  A    between atoms: C_2  and  C_14
    4  A    between atoms: C_3  and  C_22
    5  A    between atoms: C_19  and  C_26
                            x       y       z     vdW  Elec       q    Type
                         _______ _______ _______ _____ _____    ______ ____

>  <TORSDO>
F 5

$$$$
=
 OpenBabel10272402093D

 32 34  0  0  1  0  0  0  0  0999 V2000
  181.1130  181.0540  136.9800 C   0  0  1  0  0  3  0  0  0  0  0  0
  181.8840  180.4190  138.1460 C   0  0  0  0  0  2  0  0  0  0  0  0
  180.8580  178.6800  136.1470 N   0  0  0  0  0  0  0  0  0  0  0  0
  180.1900  175.9760  139.6680 O   0  0  0  0  0  0  0  0  0  0  0  0
  181.0030  179.6450  139.1220 C   0  0  0  0  0  2  0  0  0  0  0  0
  182.5360  175.9860  139.0880 C   0  0  0  0  0  2  0  0  0  0  0  0
  182.5880  177.5380  139.0370 C   0  0  1  0  0  0  0  0  0  0  0  0
  182.2390  178.3970  135.7640 C   0  0  0  0  0  2  0  0  0  0  0  0
  182.7420  177.7460  141.6740 C   0  0  2  0  0  3  0  0  0  0  0  0
  182.8270  177.3590  136.7100 C   0  0  0  0  0  2  0  0  0  0  0  0
  180.5060  180.0940  135.9430 C   0  0  2  0  0  3  0  0  0  0  0  0
  183.6500  178.0730  142.6870 O   0  0  0  0  0  1  0  0  0  0  0  0
  183.3460  178.0790  140.2890 C   0  0  1  0  0  3  0  0  0  0  0  0
  183.3110  177.9730  137.8870 O   0  0  0  0  0  0  0  0  0  0  0  0
  180.2200  177.6930  141.4240 C   0  0  0  0  0  2  0  0  0  0  0  0
  179.9820  177.8510  135.3310 C   0  0  0  0  0  1  0  0  0  0  0  0
  181.4270  178.5060  141.8870 C   0  0  1  0  0  3  0  0  0  0  0  0
  181.1430  178.1190  138.9870 C   0  0  1  0  0  3  0  0  0  0  0  0
  180.7880  180.5970  134.5270 C   0  0  0  0  0  1  0  0  0  0  0  0
  181.4530  175.4720  140.0330 C   0  0  0  0  0  2  0  0  0  0  0  0
  180.1730  177.3660  139.9160 C   0  0  1  0  0  3  0  0  0  0  0  0
  184.8430  177.8700  140.2080 C   0  0  0  0  0  3  0  0  0  0  0  0
  185.4010  179.9760  141.1480 O   0  0  0  0  0  1  0  0  0  0  0  0
  185.7690  178.7440  140.6190 C   0  0  0  0  0  0  0  0  0  0  0  0
  187.7920  178.4960  139.3960 O   0  0  0  0  0  0  0  0  0  0  0  0
  187.9050  178.0120  141.6300 O   0  0  0  0  0  1  0  0  0  0  0  0
  187.1970  178.4170  140.5040 C   0  0  0  0  0  0  0  0  0  0  0  0
  180.0660  182.0540  137.4550 C   0  0  0  0  0  2  0  0  0  0  0  0
  180.6680  183.4420  137.5650 C   0  0  0  0  0  1  0  0  0  0  0  0
  181.2480  178.8400  143.2360 O   0  0  0  0  0  0  0  0  0  0  0  0
  180.0090  179.2800  143.3150 O   0  0  0  0  0  0  0  0  0  0  0  0
  180.0650  180.5960  142.8510 C   0  0  0  0  0  1  0  0  0  0  0  0
  1 28  1  1  0  0  0
  1  2  1  0  0  0  0
  2  5  1  0  0  0  0
  4 21  1  0  0  0  0
  4 20  1  0  0  0  0
  6 20  1  0  0  0  0
  7  6  1  1  0  0  0
  7 13  1  0  0  0  0
  8  3  1  0  0  0  0
  8 10  1  0  0  0  0
  9 17  1  0  0  0  0
  9 12  1  1  0  0  0
 10 14  1  0  0  0  0
 11 19  1  6  0  0  0
 11  3  1  0  0  0  0
 11  1  1  0  0  0  0
 13 22  1  1  0  0  0
 13  9  1  0  0  0  0
 14  7  1  0  0  0  0
 15 17  1  0  0  0  0
 16  3  1  0  0  0  0
 17 30  1  1  0  0  0
 18  7  1  0  0  0  0
 18  5  1  1  0  0  0
 18 21  1  0  0  0  0
 21 15  1  1  0  0  0
 22 24  2  0  0  0  0
 24 23  1  0  0  0  0
 25 27  2  0  0  0  0
 27 24  1  0  0  0  0
 27 26  1  0  0  0  0
 28 29  1  0  0  0  0
 30 31  1  0  0  0  0
 32 31  1  0  0  0  0
M  END
>  <MODEL>
7

>  <REMARK>
 VINA RESULT:      -4.2      5.402      9.082
  Name = 
  5 active torsions:
  status: ('A' for Active; 'I' for Inactive)
    1  A    between atoms: O_1  and  O_4
    2  A    between atoms: O_1  and  C_27
    3  A    between atoms: C_2  and  C_14
    4  A    between atoms: C_3  and  C_22
    5  A    between atoms: C_19  and  C_26
                            x       y       z     vdW  Elec       q    Type
                         _______ _______ _______ _____ _____    ______ ____

>  <TORSDO>
F 5

$$$$
=
 OpenBabel10272402093D

 32 34  0  0  1  0  0  0  0  0999 V2000
  181.6800  176.5510  139.6880 C   0  0  1  0  0  3  0  0  0  0  0  0
  182.7550  175.8000  138.8900 C   0  0  0  0  0  2  0  0  0  0  0  0
  182.6250  178.6220  138.5850 N   0  0  0  0  0  0  0  0  0  0  0  0
  183.7250  177.6300  134.3470 O   0  0  0  0  0  0  0  0  0  0  0  0
  182.4800  175.7310  137.3910 C   0  0  0  0  0  2  0  0  0  0  0  0
  185.6750  177.4250  135.7590 C   0  0  0  0  0  2  0  0  0  0  0  0
  184.9140  176.5630  136.8040 C   0  0  1  0  0  0  0  0  0  0  0  0
  183.9190  178.6980  139.2580 C   0  0  0  0  0  2  0  0  0  0  0  0
  185.1410  174.3640  135.3440 C   0  0  2  0  0  3  0  0  0  0  0  0
  185.0300  178.3970  138.2610 C   0  0  0  0  0  2  0  0  0  0  0  0
  181.5780  178.0690  139.4590 C   0  0  2  0  0  3  0  0  0  0  0  0
  185.8250  173.1430  135.3170 O   0  0  0  0  0  1  0  0  0  0  0  0
  185.3770  175.0770  136.6970 C   0  0  1  0  0  3  0  0  0  0  0  0
  185.2170  177.0040  138.1260 O   0  0  0  0  0  0  0  0  0  0  0  0
  182.9990  175.2840  134.3490 C   0  0  0  0  0  2  0  0  0  0  0  0
  182.2430  179.9680  138.1820 C   0  0  0  0  0  1  0  0  0  0  0  0
  183.6430  174.1280  135.1110 C   0  0  1  0  0  3  0  0  0  0  0  0
  183.3770  176.6700  136.5650 C   0  0  1  0  0  3  0  0  0  0  0  0
  181.4500  178.7980  140.7970 C   0  0  0  0  0  1  0  0  0  0  0  0
  185.0900  177.2870  134.3560 C   0  0  0  0  0  2  0  0  0  0  0  0
  183.0110  176.6490  135.0700 C   0  0  1  0  0  3  0  0  0  0  0  0
  186.7550  174.8450  137.2790 C   0  0  0  0  0  3  0  0  0  0  0  0
  187.9240  175.5050  135.3220 O   0  0  0  0  0  1  0  0  0  0  0  0
  187.9100  175.0600  136.6400 C   0  0  0  0  0  0  0  0  0  0  0  0
  189.8130  175.7540  137.8830 O   0  0  0  0  0  1  0  0  0  0  0  0
  189.7220  173.5320  137.3460 O   0  0  0  0  0  0  0  0  0  0  0  0
  189.1890  174.8150  137.3210 C   0  0  0  0  0  0  0  0  0  0  0  0
  180.3070  175.9030  139.5620 C   0  0  0  0  0  2  0  0  0  0  0  0
  180.2660  174.5930  140.3270 C   0  0  0  0  0  1  0  0  0  0  0  0
  183.4220  172.9450  134.3950 O   0  0  0  0  0  0  0  0  0  0  0  0
  182.2150  172.5540  134.7480 O   0  0  0  0  0  0  0  0  0  0  0  0
  182.3350  172.1820  136.0890 C   0  0  0  0  0  1  0  0  0  0  0  0
  1 28  1  6  0  0  0
  2  1  1  0  0  0  0
  3  8  1  0  0  0  0
  3 11  1  0  0  0  0
  4 20  1  0  0  0  0
  4 21  1  0  0  0  0
  5  2  1  0  0  0  0
  7  6  1  6  0  0  0
  7 14  1  0  0  0  0
  9 12  1  1  0  0  0
  9 13  1  0  0  0  0
 10  8  1  0  0  0  0
 11  1  1  0  0  0  0
 11 19  1  1  0  0  0
 13  7  1  0  0  0  0
 13 22  1  6  0  0  0
 14 10  1  0  0  0  0
 15 17  1  0  0  0  0
 16  3  1  0  0  0  0
 17 30  1  6  0  0  0
 17  9  1  0  0  0  0
 18  7  1  0  0  0  0
 18  5  1  1  0  0  0
 20  6  1  0  0  0  0
 21 15  1  6  0  0  0
 21 18  1  0  0  0  0
 23 24  1  0  0  0  0
 24 22  2  0  0  0  0
 24 27  1  0  0  0  0
 27 26  2  0  0  0  0
 27 25  1  0  0  0  0
 28 29  1  0  0  0  0
 30 31  1  0  0  0  0
 31 32  1  0  0  0  0
M  END
>  <MODEL>
8

>  <REMARK>
 VINA RESULT:      -4.1      3.349      7.281
  Name = 
  5 active torsions:
  status: ('A' for Active; 'I' for Inactive)
    1  A    between atoms: O_1  and  O_4
    2  A    between atoms: O_1  and  C_27
    3  A    between atoms: C_2  and  C_14
    4  A    between atoms: C_3  and  C_22
    5  A    between atoms: C_19  and  C_26
                            x       y       z     vdW  Elec       q    Type
                         _______ _______ _______ _____ _____    ______ ____

>  <TORSDO>
F 5

$$$$
=
 OpenBabel10272402093D

 32 34  0  0  1  0  0  0  0  0999 V2000
  187.2950  177.1940  137.6990 C   0  0  1  0  0  3  0  0  0  0  0  0
  186.0180  176.3460  137.7660 C   0  0  0  0  0  2  0  0  0  0  0  0
  186.5280  177.7640  135.3570 N   0  0  0  0  0  0  0  0  0  0  0  0
  182.0640  178.2340  135.3720 O   0  0  0  0  0  0  0  0  0  0  0  0
  184.7340  177.1660  137.8520 C   0  0  0  0  0  2  0  0  0  0  0  0
  182.6390  175.9860  134.6960 C   0  0  0  0  0  2  0  0  0  0  0  0
  183.6110  175.8010  135.8930 C   0  0  1  0  0  0  0  0  0  0  0  0
  186.7270  176.4720  134.7050 C   0  0  0  0  0  2  0  0  0  0  0  0
  181.6350  175.3040  137.5860 C   0  0  2  0  0  3  0  0  0  0  0  0
  185.3760  175.8690  134.3490 C   0  0  0  0  0  2  0  0  0  0  0  0
  187.5220  178.0090  136.4140 C   0  0  2  0  0  3  0  0  0  0  0  0
  181.0620  174.2520  138.3080 O   0  0  0  0  0  1  0  0  0  0  0  0
  182.9690  174.8480  136.9490 C   0  0  1  0  0  3  0  0  0  0  0  0
  184.8240  175.1890  135.4580 O   0  0  0  0  0  0  0  0  0  0  0  0
  181.6890  177.8320  137.7650 C   0  0  0  0  0  2  0  0  0  0  0  0
  186.6450  178.8060  134.3460 C   0  0  0  0  0  1  0  0  0  0  0  0
  181.8600  176.5090  138.5090 C   0  0  1  0  0  3  0  0  0  0  0  0
  183.9340  177.1830  136.5370 C   0  0  1  0  0  3  0  0  0  0  0  0
  188.9690  177.8600  135.9410 C   0  0  0  0  0  1  0  0  0  0  0  0
  181.5270  176.9860  135.0000 C   0  0  0  0  0  2  0  0  0  0  0  0
  182.6970  178.0940  136.6270 C   0  0  1  0  0  3  0  0  0  0  0  0
  182.9760  173.3970  136.5160 C   0  0  0  0  0  3  0  0  0  0  0  0
  184.8940  172.8090  137.7830 O   0  0  0  0  0  1  0  0  0  0  0  0
  183.8570  172.4750  136.9190 C   0  0  0  0  0  0  0  0  0  0  0  0
  182.6340  170.5000  136.4140 O   0  0  0  0  0  1  0  0  0  0  0  0
  184.8860  170.4160  136.0150 O   0  0  0  0  0  0  0  0  0  0  0  0
  183.7480  171.0890  136.4410 C   0  0  0  0  0  0  0  0  0  0  0  0
  187.4670  178.0800  138.9260 C   0  0  0  0  0  2  0  0  0  0  0  0
  188.7200  177.6930  139.6900 C   0  0  0  0  0  1  0  0  0  0  0  0
  180.9730  176.4890  139.5930 O   0  0  0  0  0  0  0  0  0  0  0  0
  181.2340  177.5910  140.2650 O   0  0  0  0  0  0  0  0  0  0  0  0
  180.1900  177.7050  141.1860 C   0  0  0  0  0  1  0  0  0  0  0  0
  1  2  1  0  0  0  0
  1 28  1  1  0  0  0
  2  5  1  0  0  0  0
  3 11  1  0  0  0  0
  4 21  1  0  0  0  0
  6 20  1  0  0  0  0
  7  6  1  6  0  0  0
  7 18  1  0  0  0  0
  7 13  1  0  0  0  0
  8  3  1  0  0  0  0
  9 12  1  1  0  0  0
  9 17  1  0  0  0  0
 10  8  1  0  0  0  0
 10 14  1  0  0  0  0
 11 19  1  6  0  0  0
 11  1  1  0  0  0  0
 13 22  1  6  0  0  0
 13  9  1  0  0  0  0
 14  7  1  0  0  0  0
 15 17  1  0  0  0  0
 16  3  1  0  0  0  0
 17 30  1  1  0  0  0
 18 21  1  0  0  0  0
 18  5  1  1  0  0  0
 20  4  1  0  0  0  0
 21 15  1  1  0  0  0
 22 24  2  0  0  0  0
 24 23  1  0  0  0  0
 25 27  1  0  0  0  0
 26 27  2  0  0  0  0
 27 24  1  0  0  0  0
 28 29  1  0  0  0  0
 30 31  1  0  0  0  0
 31 32  1  0  0  0  0
M  END
>  <MODEL>
9

>  <REMARK>
 VINA RESULT:      -4.1      3.139      4.844
  Name = 
  5 active torsions:
  status: ('A' for Active; 'I' for Inactive)
    1  A    between atoms: O_1  and  O_4
    2  A    between atoms: O_1  and  C_27
    3  A    between atoms: C_2  and  C_14
    4  A    between atoms: C_3  and  C_22
    5  A    between atoms: C_19  and  C_26
                            x       y       z     vdW  Elec       q    Type
                         _______ _______ _______ _____ _____    ______ ____

>  <TORSDO>
F 5

$$$$
