=
 OpenBabel10262423433D

 34 38  0  0  1  0  0  0  0  0999 V2000
  188.7000  176.7700  135.7780 C   0  0  2  0  0  3  0  0  0  0  0  0
  189.8300  176.6580  137.9830 N   0  0  2  0  0  0  0  0  0  0  0  0
  189.0360  178.8330  137.2620 C   0  0  0  0  0  2  0  0  0  0  0  0
  189.8700  177.5790  139.1090 C   0  0  0  0  0  2  0  0  0  0  0  0
  189.1670  175.3500  135.4060 C   0  0  0  0  0  2  0  0  0  0  0  0
  191.5170  176.0870  134.7440 C   0  0  0  0  0  1  0  0  0  0  0  0
  191.1660  176.1000  137.8300 C   0  0  0  0  0  2  0  0  0  0  0  0
  191.1230  174.8390  136.9620 C   0  0  1  0  0  3  0  0  0  0  0  0
  188.9700  178.7470  138.7660 C   0  0  2  0  0  3  0  0  0  0  0  0
  189.5890  177.4900  136.8110 C   0  0  2  0  0  3  0  0  0  0  0  0
  190.6720  175.0740  135.5100 C   0  0  1  0  0  3  0  0  0  0  0  0
  186.8110  176.0190  137.1110 N   0  0  0  0  0  0  0  0  0  0  0  0
  186.2020  177.4810  135.4490 C   0  0  0  0  0  0  0  0  0  0  0  0
  185.3690  176.0520  137.3400 C   0  0  1  0  0  3  0  0  0  0  0  0
  184.5870  177.1710  136.1110 S   0  0  0  0  0  0  0  0  0  0  0  0
  187.2450  176.7630  136.1520 C   0  0  0  0  0  0  0  0  0  0  0  0
  184.7990  174.6560  137.1880 C   0  0  0  0  0  1  0  0  0  0  0  0
  186.4060  178.2410  134.4670 O   0  0  0  0  0  0  0  0  0  0  0  0
  194.5470  173.7970  138.0300 C   0  0  0  0  0  0  0  0  0  0  0  0
  194.7930  172.6650  137.2500 C   0  0  0  0  0  3  0  0  0  0  0  0
  192.4050  174.0670  137.0360 C   0  0  0  0  0  0  0  0  0  0  0  0
  193.8180  172.2320  136.3520 C   0  0  0  0  0  3  0  0  0  0  0  0
  193.3690  174.4660  137.9090 N   0  0  0  0  0  0  0  0  0  0  0  0
  192.6160  172.9310  136.2400 C   0  0  0  0  0  3  0  0  0  0  0  0
  195.7550  174.3550  139.1650 Cl  0  0  0  0  0  0  0  0  0  0  0  0
  187.6610  178.4430  139.1470 O   0  0  0  0  0  0  0  0  0  0  0  0
  187.7620  177.9970  140.4680 C   0  0  0  0  0  2  0  0  0  0  0  0
  185.3030  179.4460  139.6340 O   0  0  0  0  0  0  0  0  0  0  0  0
  186.7570  178.7190  141.3600 C   0  0  1  0  0  3  0  0  0  0  0  0
  185.4120  178.8470  140.6900 C   0  0  0  0  0  0  0  0  0  0  0  0
  184.1390  178.5490  142.8280 C   0  0  0  0  0  2  0  0  0  0  0  0
  185.5050  178.6200  143.5340 C   0  0  0  0  0  2  0  0  0  0  0  0
  186.6370  178.0070  142.7100 C   0  0  0  0  0  2  0  0  0  0  0  0
  184.2020  178.2310  141.3290 C   0  0  0  0  0  2  0  0  0  0  0  0
  1 16  1  1  0  0  0
  1 10  1  0  0  0  0
  2  7  1  6  0  0  0
  2  4  1  0  0  0  0
  3  9  1  0  0  0  0
  5 11  1  0  0  0  0
  5  1  1  0  0  0  0
  8 21  1  6  0  0  0
  8  7  1  0  0  0  0
  9  4  1  0  0  0  0
  9 26  1  6  0  0  0
 10  3  1  1  0  0  0
 10  2  1  0  0  0  0
 11  6  1  1  0  0  0
 11  8  1  0  0  0  0
 12 14  1  0  0  0  0
 13 15  1  0  0  0  0
 13 16  1  0  0  0  0
 14 17  1  6  0  0  0
 15 14  1  0  0  0  0
 16 12  2  0  0  0  0
 18 13  2  0  0  0  0
 19 25  1  0  0  0  0
 20 19  2  0  0  0  0
 21 23  2  0  0  0  0
 22 20  1  0  0  0  0
 23 19  1  0  0  0  0
 24 22  2  0  0  0  0
 24 21  1  0  0  0  0
 26 27  1  0  0  0  0
 28 30  2  0  0  0  0
 29 27  1  6  0  0  0
 29 33  1  0  0  0  0
 30 34  1  0  0  0  0
 30 29  1  0  0  0  0
 31 32  1  0  0  0  0
 33 32  1  0  0  0  0
 34 31  1  0  0  0  0
M  END
>  <MODEL>
1

>  <REMARK>
 VINA RESULT:      -7.7      0.000      0.000
  Name = 
  5 active torsions:
  status: ('A' for Active; 'I' for Inactive)
    1  A    between atoms: C_3  and  C_13
    2  A    between atoms: C_3  and  O_17
    3  A    between atoms: C_4  and  C_15
    4  A    between atoms: C_12  and  C_28
    5  A    between atoms: O_17  and  C_29
                            x       y       z     vdW  Elec       q    Type
                         _______ _______ _______ _____ _____    ______ ____

>  <TORSDO>
F 5

$$$$
=
 OpenBabel10262423433D

 34 38  0  0  1  0  0  0  0  0999 V2000
  189.1170  176.7820  136.4290 C   0  0  2  0  0  3  0  0  0  0  0  0
  190.3130  175.8750  138.4030 N   0  0  2  0  0  0  0  0  0  0  0  0
  189.7980  178.2450  138.4190 C   0  0  0  0  0  2  0  0  0  0  0  0
  190.5280  176.4020  139.7420 C   0  0  0  0  0  2  0  0  0  0  0  0
  189.3660  175.4950  135.6200 C   0  0  0  0  0  2  0  0  0  0  0  0
  191.7640  176.1100  135.0120 C   0  0  0  0  0  1  0  0  0  0  0  0
  191.5510  175.2340  137.9840 C   0  0  0  0  0  2  0  0  0  0  0  0
  191.2960  174.3070  136.7910 C   0  0  1  0  0  3  0  0  0  0  0  0
  189.7860  177.7180  139.8320 C   0  0  2  0  0  3  0  0  0  0  0  0
  190.1400  177.0440  137.5500 C   0  0  2  0  0  3  0  0  0  0  0  0
  190.8200  175.0220  135.5130 C   0  0  1  0  0  3  0  0  0  0  0  0
  187.0480  175.7570  137.1910 N   0  0  0  0  0  0  0  0  0  0  0  0
  186.8900  178.0390  136.9930 C   0  0  0  0  0  0  0  0  0  0  0  0
  185.6520  175.9340  137.5810 C   0  0  1  0  0  3  0  0  0  0  0  0
  185.2240  177.7190  137.5050 S   0  0  0  0  0  0  0  0  0  0  0  0
  187.6910  176.8360  136.9030 C   0  0  0  0  0  0  0  0  0  0  0  0
  184.7580  175.1590  136.6340 C   0  0  0  0  0  1  0  0  0  0  0  0
  187.3180  179.1930  136.7300 O   0  0  0  0  0  0  0  0  0  0  0  0
  194.6950  172.7820  137.0490 C   0  0  0  0  0  0  0  0  0  0  0  0
  194.6480  171.7390  136.1210 C   0  0  0  0  0  3  0  0  0  0  0  0
  192.4600  173.4020  136.5290 C   0  0  0  0  0  0  0  0  0  0  0  0
  193.4780  171.5310  135.3910 C   0  0  0  0  0  3  0  0  0  0  0  0
  193.6100  173.5810  137.2330 N   0  0  0  0  0  0  0  0  0  0  0  0
  192.3760  172.3620  135.5920 C   0  0  0  0  0  3  0  0  0  0  0  0
  196.1520  173.0590  137.9780 Cl  0  0  0  0  0  0  0  0  0  0  0  0
  188.4650  177.4720  140.2130 O   0  0  0  0  0  0  0  0  0  0  0  0
  188.2470  178.2990  141.3200 C   0  0  0  0  0  2  0  0  0  0  0  0
  190.2680  177.0820  143.1300 O   0  0  0  0  0  0  0  0  0  0  0  0
  187.9960  177.4680  142.5740 C   0  0  1  0  0  3  0  0  0  0  0  0
  189.1830  177.4930  143.5040 C   0  0  0  0  0  0  0  0  0  0  0  0
  187.7680  177.4660  145.5720 C   0  0  0  0  0  2  0  0  0  0  0  0
  186.5720  177.2390  144.6290 C   0  0  0  0  0  2  0  0  0  0  0  0
  186.7280  177.9480  143.2840 C   0  0  0  0  0  2  0  0  0  0  0  0
  189.0250  178.0290  144.8960 C   0  0  0  0  0  2  0  0  0  0  0  0
  1 16  1  1  0  0  0
  1 10  1  0  0  0  0
  2  7  1  6  0  0  0
  2  4  1  0  0  0  0
  3  9  1  0  0  0  0
  4  9  1  0  0  0  0
  5  1  1  0  0  0  0
  8 21  1  6  0  0  0
  8  7  1  0  0  0  0
  9 26  1  6  0  0  0
 10  2  1  0  0  0  0
 10  3  1  1  0  0  0
 11  6  1  1  0  0  0
 11  5  1  0  0  0  0
 11  8  1  0  0  0  0
 12 14  1  0  0  0  0
 13 15  1  0  0  0  0
 14 17  1  6  0  0  0
 15 14  1  0  0  0  0
 16 13  1  0  0  0  0
 16 12  2  0  0  0  0
 18 13  2  0  0  0  0
 19 23  1  0  0  0  0
 19 25  1  0  0  0  0
 20 19  2  0  0  0  0
 21 23  2  0  0  0  0
 22 24  2  0  0  0  0
 22 20  1  0  0  0  0
 24 21  1  0  0  0  0
 26 27  1  0  0  0  0
 28 30  2  0  0  0  0
 29 27  1  6  0  0  0
 29 33  1  0  0  0  0
 29 30  1  0  0  0  0
 30 34  1  0  0  0  0
 32 31  1  0  0  0  0
 33 32  1  0  0  0  0
 34 31  1  0  0  0  0
M  END
>  <MODEL>
2

>  <REMARK>
 VINA RESULT:      -7.5      1.645      2.268
  Name = 
  5 active torsions:
  status: ('A' for Active; 'I' for Inactive)
    1  A    between atoms: C_3  and  C_13
    2  A    between atoms: C_3  and  O_17
    3  A    between atoms: C_4  and  C_15
    4  A    between atoms: C_12  and  C_28
    5  A    between atoms: O_17  and  C_29
                            x       y       z     vdW  Elec       q    Type
                         _______ _______ _______ _____ _____    ______ ____

>  <TORSDO>
F 5

$$$$
=
 OpenBabel10262423433D

 34 38  0  0  1  0  0  0  0  0999 V2000
  189.7930  176.0550  136.1910 C   0  0  2  0  0  3  0  0  0  0  0  0
  190.8370  175.8800  138.4330 N   0  0  2  0  0  0  0  0  0  0  0  0
  189.7420  177.9730  137.8880 C   0  0  0  0  0  2  0  0  0  0  0  0
  190.6860  176.6690  139.6460 C   0  0  0  0  0  2  0  0  0  0  0  0
  190.4910  174.7710  135.7050 C   0  0  0  0  0  2  0  0  0  0  0  0
  192.7210  175.9210  135.2540 C   0  0  0  0  0  1  0  0  0  0  0  0
  192.2480  175.5500  138.3010 C   0  0  0  0  0  2  0  0  0  0  0  0
  192.4380  174.3970  137.3110 C   0  0  1  0  0  3  0  0  0  0  0  0
  189.6290  177.7180  139.3710 C   0  0  2  0  0  3  0  0  0  0  0  0
  190.5160  176.7860  137.3380 C   0  0  2  0  0  3  0  0  0  0  0  0
  192.0160  174.7150  135.8660 C   0  0  1  0  0  3  0  0  0  0  0  0
  187.9790  174.7260  137.1130 N   0  0  0  0  0  0  0  0  0  0  0  0
  187.2390  176.6020  136.0160 C   0  0  0  0  0  0  0  0  0  0  0  0
  186.5390  174.5460  137.2790 C   0  0  1  0  0  3  0  0  0  0  0  0
  185.6580  175.9380  136.4670 S   0  0  0  0  0  0  0  0  0  0  0  0
  188.3430  175.7870  136.4790 C   0  0  0  0  0  0  0  0  0  0  0  0
  186.1140  173.2380  136.6420 C   0  0  0  0  0  1  0  0  0  0  0  0
  187.3740  177.6650  135.3560 O   0  0  0  0  0  0  0  0  0  0  0  0
  195.9760  173.8610  138.3820 C   0  0  0  0  0  0  0  0  0  0  0  0
  196.3920  172.7920  137.5850 C   0  0  0  0  0  3  0  0  0  0  0  0
  193.8210  173.8250  137.3790 C   0  0  0  0  0  0  0  0  0  0  0  0
  195.4960  172.2340  136.6730 C   0  0  0  0  0  3  0  0  0  0  0  0
  194.7110  174.3480  138.2650 N   0  0  0  0  0  0  0  0  0  0  0  0
  194.2030  172.7480  136.5660 C   0  0  0  0  0  3  0  0  0  0  0  0
  197.0830  174.5740  139.5350 Cl  0  0  0  0  0  0  0  0  0  0  0  0
  188.3700  177.1800  139.6440 O   0  0  0  0  0  0  0  0  0  0  0  0
  187.5700  178.2790  139.9730 C   0  0  0  0  0  2  0  0  0  0  0  0
  185.5530  179.7640  141.5750 O   0  0  0  0  0  0  0  0  0  0  0  0
  187.5630  178.5100  141.4800 C   0  0  1  0  0  3  0  0  0  0  0  0
  186.1740  178.8010  141.9910 C   0  0  0  0  0  0  0  0  0  0  0  0
  186.5360  177.5810  144.1500 C   0  0  0  0  0  2  0  0  0  0  0  0
  188.0080  177.4580  143.7160 C   0  0  0  0  0  2  0  0  0  0  0  0
  188.1770  177.3090  142.2050 C   0  0  0  0  0  2  0  0  0  0  0  0
  185.5530  177.8970  143.0150 C   0  0  0  0  0  2  0  0  0  0  0  0
  1 16  1  1  0  0  0
  1 10  1  0  0  0  0
  2  7  1  6  0  0  0
  2  4  1  0  0  0  0
  3  9  1  0  0  0  0
  5 11  1  0  0  0  0
  5  1  1  0  0  0  0
  8 21  1  6  0  0  0
  8  7  1  0  0  0  0
  9 26  1  6  0  0  0
  9  4  1  0  0  0  0
 10  3  1  1  0  0  0
 10  2  1  0  0  0  0
 11  6  1  1  0  0  0
 11  8  1  0  0  0  0
 12 14  1  0  0  0  0
 13 15  1  0  0  0  0
 13 16  1  0  0  0  0
 14 17  1  6  0  0  0
 15 14  1  0  0  0  0
 16 12  2  0  0  0  0
 18 13  2  0  0  0  0
 19 25  1  0  0  0  0
 20 19  2  0  0  0  0
 21 23  2  0  0  0  0
 22 20  1  0  0  0  0
 23 19  1  0  0  0  0
 24 22  2  0  0  0  0
 24 21  1  0  0  0  0
 26 27  1  0  0  0  0
 28 30  2  0  0  0  0
 29 27  1  6  0  0  0
 29 30  1  0  0  0  0
 29 33  1  0  0  0  0
 30 34  1  0  0  0  0
 32 31  1  0  0  0  0
 33 32  1  0  0  0  0
 34 31  1  0  0  0  0
M  END
>  <MODEL>
3

>  <REMARK>
 VINA RESULT:      -7.5      1.323      1.631
  Name = 
  5 active torsions:
  status: ('A' for Active; 'I' for Inactive)
    1  A    between atoms: C_3  and  C_13
    2  A    between atoms: C_3  and  O_17
    3  A    between atoms: C_4  and  C_15
    4  A    between atoms: C_12  and  C_28
    5  A    between atoms: O_17  and  C_29
                            x       y       z     vdW  Elec       q    Type
                         _______ _______ _______ _____ _____    ______ ____

>  <TORSDO>
F 5

$$$$
=
 OpenBabel10262423433D

 34 38  0  0  1  0  0  0  0  0999 V2000
  190.6550  177.3430  139.5910 C   0  0  2  0  0  3  0  0  0  0  0  0
  188.2130  177.6980  139.8370 N   0  0  2  0  0  0  0  0  0  0  0  0
  189.3560  179.0230  138.1580 C   0  0  0  0  0  2  0  0  0  0  0  0
  187.2270  178.3330  138.9760 C   0  0  0  0  0  2  0  0  0  0  0  0
  190.7240  176.5350  140.9020 C   0  0  0  0  0  2  0  0  0  0  0  0
  190.7190  178.5980  142.4000 C   0  0  0  0  0  1  0  0  0  0  0  0
  187.8990  178.0730  141.2080 C   0  0  0  0  0  2  0  0  0  0  0  0
  188.6080  177.1380  142.1930 C   0  0  1  0  0  3  0  0  0  0  0  0
  187.9410  178.7560  137.7100 C   0  0  2  0  0  3  0  0  0  0  0  0
  189.4810  178.3370  139.5090 C   0  0  2  0  0  3  0  0  0  0  0  0
  190.1450  177.2070  142.1530 C   0  0  1  0  0  3  0  0  0  0  0  0
  189.7260  175.7090  138.0490 N   0  0  0  0  0  0  0  0  0  0  0  0
  191.9330  176.1790  137.6240 C   0  0  0  0  0  0  0  0  0  0  0  0
  189.9470  174.8120  136.9180 C   0  0  1  0  0  3  0  0  0  0  0  0
  191.6880  174.9680  136.3530 S   0  0  0  0  0  0  0  0  0  0  0  0
  190.7380  176.4240  138.4050 C   0  0  0  0  0  0  0  0  0  0  0  0
  189.6820  173.3820  137.3460 C   0  0  0  0  0  1  0  0  0  0  0  0
  193.0360  176.7530  137.8230 O   0  0  0  0  0  0  0  0  0  0  0  0
  188.4810  177.2060  145.9250 C   0  0  0  0  0  0  0  0  0  0  0  0
  187.1610  177.5770  146.1920 C   0  0  0  0  0  3  0  0  0  0  0  0
  188.0740  177.2860  143.5850 C   0  0  0  0  0  0  0  0  0  0  0  0
  186.2900  177.8070  145.1270 C   0  0  0  0  0  3  0  0  0  0  0  0
  188.9050  177.0730  144.6400 N   0  0  0  0  0  0  0  0  0  0  0  0
  186.7430  177.6640  143.8160 C   0  0  0  0  0  3  0  0  0  0  0  0
  189.5910  176.9150  147.2460 Cl  0  0  0  0  0  0  0  0  0  0  0  0
  187.9430  177.6900  136.8080 O   0  0  0  0  0  0  0  0  0  0  0  0
  187.0020  178.0380  135.8330 C   0  0  0  0  0  2  0  0  0  0  0  0
  187.3180  175.2350  134.8930 O   0  0  0  0  0  0  0  0  0  0  0  0
  185.9240  176.9670  135.7180 C   0  0  1  0  0  3  0  0  0  0  0  0
  186.5140  175.5790  135.7430 C   0  0  0  0  0  0  0  0  0  0  0  0
  184.5880  174.6080  137.0200 C   0  0  0  0  0  2  0  0  0  0  0  0
  183.8990  175.9700  136.8190 C   0  0  0  0  0  2  0  0  0  0  0  0
  184.8790  177.1430  136.8230 C   0  0  0  0  0  2  0  0  0  0  0  0
  186.1100  174.6190  136.8220 C   0  0  0  0  0  2  0  0  0  0  0  0
  1 16  1  6  0  0  0
  1  5  1  0  0  0  0
  2  4  1  6  0  0  0
  2  7  1  0  0  0  0
  5 11  1  0  0  0  0
  7  8  1  0  0  0  0
  8 21  1  1  0  0  0
  9 26  1  6  0  0  0
  9  3  1  0  0  0  0
  9  4  1  0  0  0  0
 10  3  1  6  0  0  0
 10  1  1  0  0  0  0
 10  2  1  0  0  0  0
 11  8  1  0  0  0  0
 11  6  1  6  0  0  0
 12 16  2  0  0  0  0
 13 18  2  0  0  0  0
 13 16  1  0  0  0  0
 14 17  1  1  0  0  0
 14 12  1  0  0  0  0
 15 14  1  0  0  0  0
 15 13  1  0  0  0  0
 19 20  1  0  0  0  0
 19 25  1  0  0  0  0
 21 24  2  0  0  0  0
 21 23  1  0  0  0  0
 22 20  2  0  0  0  0
 23 19  2  0  0  0  0
 24 22  1  0  0  0  0
 27 26  1  0  0  0  0
 28 30  2  0  0  0  0
 29 30  1  0  0  0  0
 29 27  1  1  0  0  0
 29 33  1  0  0  0  0
 30 34  1  0  0  0  0
 32 33  1  0  0  0  0
 32 31  1  0  0  0  0
 34 31  1  0  0  0  0
M  END
>  <MODEL>
4

>  <REMARK>
 VINA RESULT:      -7.2      3.240      6.892
  Name = 
  5 active torsions:
  status: ('A' for Active; 'I' for Inactive)
    1  A    between atoms: C_3  and  C_13
    2  A    between atoms: C_3  and  O_17
    3  A    between atoms: C_4  and  C_15
    4  A    between atoms: C_12  and  C_28
    5  A    between atoms: O_17  and  C_29
                            x       y       z     vdW  Elec       q    Type
                         _______ _______ _______ _____ _____    ______ ____

>  <TORSDO>
F 5

$$$$
=
 OpenBabel10262423433D

 34 38  0  0  1  0  0  0  0  0999 V2000
  190.4800  177.3170  139.4590 C   0  0  2  0  0  3  0  0  0  0  0  0
  188.0420  177.7640  139.5090 N   0  0  2  0  0  0  0  0  0  0  0  0
  189.3570  179.0090  137.8960 C   0  0  0  0  0  2  0  0  0  0  0  0
  187.1470  178.4130  138.5630 C   0  0  0  0  0  2  0  0  0  0  0  0
  190.4200  176.5380  140.7870 C   0  0  0  0  0  2  0  0  0  0  0  0
  190.3770  178.6340  142.2380 C   0  0  0  0  0  1  0  0  0  0  0  0
  187.6390  178.1810  140.8440 C   0  0  0  0  0  2  0  0  0  0  0  0
  188.2350  177.2450  141.9000 C   0  0  1  0  0  3  0  0  0  0  0  0
  187.9700  178.7820  137.3470 C   0  0  2  0  0  3  0  0  0  0  0  0
  189.3540  178.3500  139.2670 C   0  0  2  0  0  3  0  0  0  0  0  0
  189.7720  177.2590  141.9760 C   0  0  1  0  0  3  0  0  0  0  0  0
  189.6090  175.6900  137.8760 N   0  0  0  0  0  0  0  0  0  0  0  0
  191.8620  176.0550  137.6270 C   0  0  0  0  0  0  0  0  0  0  0  0
  189.8810  174.7580  136.7860 C   0  0  1  0  0  3  0  0  0  0  0  0
  191.6680  174.8270  136.3640 S   0  0  0  0  0  0  0  0  0  0  0  0
  190.6190  176.3690  138.3010 C   0  0  0  0  0  0  0  0  0  0  0  0
  189.5180  173.3520  137.2170 C   0  0  0  0  0  1  0  0  0  0  0  0
  192.9690  176.5850  137.9060 O   0  0  0  0  0  0  0  0  0  0  0  0
  185.7110  178.1360  144.5040 C   0  0  0  0  0  0  0  0  0  0  0  0
  186.3570  177.8100  145.6990 C   0  0  0  0  0  3  0  0  0  0  0  0
  187.6030  177.4440  143.2430 C   0  0  0  0  0  0  0  0  0  0  0  0
  187.6500  177.2880  145.6530 C   0  0  0  0  0  3  0  0  0  0  0  0
  186.3410  177.9460  143.3140 N   0  0  0  0  0  0  0  0  0  0  0  0
  188.2810  177.1020  144.4230 C   0  0  0  0  0  3  0  0  0  0  0  0
  184.0870  178.7880  144.5390 Cl  0  0  0  0  0  0  0  0  0  0  0  0
  188.0020  177.6960  136.4700 O   0  0  0  0  0  0  0  0  0  0  0  0
  186.6630  177.4520  136.1470 C   0  0  0  0  0  2  0  0  0  0  0  0
  184.4270  176.1790  137.6380 O   0  0  0  0  0  0  0  0  0  0  0  0
  186.3430  175.9650  136.2580 C   0  0  1  0  0  3  0  0  0  0  0  0
  184.8930  175.7330  136.6030 C   0  0  0  0  0  0  0  0  0  0  0  0
  184.7200  173.6680  135.1950 C   0  0  0  0  0  2  0  0  0  0  0  0
  186.2430  173.7920  135.0040 C   0  0  0  0  0  2  0  0  0  0  0  0
  186.7240  175.2410  134.9640 C   0  0  0  0  0  2  0  0  0  0  0  0
  184.0220  174.9500  135.6670 C   0  0  0  0  0  2  0  0  0  0  0  0
  1 16  1  6  0  0  0
  1  5  1  0  0  0  0
  2  4  1  6  0  0  0
  2  7  1  0  0  0  0
  5 11  1  0  0  0  0
  7  8  1  0  0  0  0
  8 11  1  0  0  0  0
  8 21  1  1  0  0  0
  9 26  1  6  0  0  0
  9  3  1  0  0  0  0
  9  4  1  0  0  0  0
 10  3  1  6  0  0  0
 10  1  1  0  0  0  0
 10  2  1  0  0  0  0
 11  6  1  6  0  0  0
 12 16  2  0  0  0  0
 13 18  2  0  0  0  0
 13 16  1  0  0  0  0
 14 17  1  1  0  0  0
 14 12  1  0  0  0  0
 15 14  1  0  0  0  0
 15 13  1  0  0  0  0
 19 25  1  0  0  0  0
 19 20  1  0  0  0  0
 21 23  1  0  0  0  0
 21 24  2  0  0  0  0
 22 20  2  0  0  0  0
 23 19  2  0  0  0  0
 24 22  1  0  0  0  0
 27 26  1  0  0  0  0
 29 27  1  6  0  0  0
 29 30  1  0  0  0  0
 30 28  2  0  0  0  0
 31 34  1  0  0  0  0
 32 31  1  0  0  0  0
 33 32  1  0  0  0  0
 33 29  1  0  0  0  0
 34 30  1  0  0  0  0
M  END
>  <MODEL>
5

>  <REMARK>
 VINA RESULT:      -7.2      3.565      7.228
  Name = 
  5 active torsions:
  status: ('A' for Active; 'I' for Inactive)
    1  A    between atoms: C_3  and  C_13
    2  A    between atoms: C_3  and  O_17
    3  A    between atoms: C_4  and  C_15
    4  A    between atoms: C_12  and  C_28
    5  A    between atoms: O_17  and  C_29
                            x       y       z     vdW  Elec       q    Type
                         _______ _______ _______ _____ _____    ______ ____

>  <TORSDO>
F 5

$$$$
=
 OpenBabel10262423433D

 34 38  0  0  1  0  0  0  0  0999 V2000
  188.7790  176.8320  136.2810 C   0  0  2  0  0  3  0  0  0  0  0  0
  189.9820  176.3380  138.3920 N   0  0  2  0  0  0  0  0  0  0  0  0
  189.2440  178.6230  138.0530 C   0  0  0  0  0  2  0  0  0  0  0  0
  190.0960  177.0670  139.6460 C   0  0  0  0  0  2  0  0  0  0  0  0
  189.1790  175.4750  135.6710 C   0  0  0  0  0  2  0  0  0  0  0  0
  191.5290  176.2330  135.0370 C   0  0  0  0  0  1  0  0  0  0  0  0
  191.2900  175.7700  138.0990 C   0  0  0  0  0  2  0  0  0  0  0  0
  191.1690  174.6630  137.0460 C   0  0  1  0  0  3  0  0  0  0  0  0
  189.2290  178.3020  139.5280 C   0  0  2  0  0  3  0  0  0  0  0  0
  189.7300  177.3510  137.3760 C   0  0  2  0  0  3  0  0  0  0  0  0
  190.6750  175.1380  135.6680 C   0  0  1  0  0  3  0  0  0  0  0  0
  186.6320  177.8890  136.7090 N   0  0  0  0  0  0  0  0  0  0  0  0
  186.6430  175.6540  137.2320 C   0  0  0  0  0  0  0  0  0  0  0  0
  185.2650  177.7540  137.2030 C   0  0  1  0  0  3  0  0  0  0  0  0
  184.9780  176.0150  137.7200 S   0  0  0  0  0  0  0  0  0  0  0  0
  187.3380  176.8110  136.7080 C   0  0  0  0  0  0  0  0  0  0  0  0
  185.0600  178.6750  138.3890 C   0  0  0  0  0  1  0  0  0  0  0  0
  187.1580  174.5100  137.3420 O   0  0  0  0  0  0  0  0  0  0  0  0
  194.6410  173.4540  137.7010 C   0  0  0  0  0  0  0  0  0  0  0  0
  194.7680  172.3650  136.8360 C   0  0  0  0  0  3  0  0  0  0  0  0
  192.4220  173.8500  136.9450 C   0  0  0  0  0  0  0  0  0  0  0  0
  193.6930  172.0180  136.0160 C   0  0  0  0  0  3  0  0  0  0  0  0
  193.4820  174.1640  137.7380 N   0  0  0  0  0  0  0  0  0  0  0  0
  192.5130  172.7590  136.0670 C   0  0  0  0  0  3  0  0  0  0  0  0
  195.9750  173.9030  138.7400 Cl  0  0  0  0  0  0  0  0  0  0  0  0
  187.9240  177.9830  139.9090 O   0  0  0  0  0  0  0  0  0  0  0  0
  187.6790  178.7600  141.0460 C   0  0  0  0  0  2  0  0  0  0  0  0
  188.5520  176.4950  142.7650 O   0  0  0  0  0  0  0  0  0  0  0  0
  186.8460  177.9840  142.0610 C   0  0  1  0  0  3  0  0  0  0  0  0
  187.7130  177.3160  143.0980 C   0  0  0  0  0  0  0  0  0  0  0  0
  186.0630  177.6790  144.9480 C   0  0  0  0  0  2  0  0  0  0  0  0
  185.1000  178.1770  143.8550 C   0  0  0  0  0  2  0  0  0  0  0  0
  185.8130  178.9040  142.7150 C   0  0  0  0  0  2  0  0  0  0  0  0
  187.5440  177.6650  144.5460 C   0  0  0  0  0  2  0  0  0  0  0  0
  1 16  1  1  0  0  0
  1 10  1  0  0  0  0
  2  7  1  6  0  0  0
  2  4  1  0  0  0  0
  3  9  1  0  0  0  0
  5  1  1  0  0  0  0
  8 21  1  6  0  0  0
  8  7  1  0  0  0  0
  9  4  1  0  0  0  0
  9 26  1  6  0  0  0
 10  3  1  1  0  0  0
 10  2  1  0  0  0  0
 11  6  1  1  0  0  0
 11  5  1  0  0  0  0
 11  8  1  0  0  0  0
 12 14  1  0  0  0  0
 13 18  2  0  0  0  0
 13 15  1  0  0  0  0
 14 15  1  0  0  0  0
 14 17  1  1  0  0  0
 16 12  2  0  0  0  0
 16 13  1  0  0  0  0
 19 23  1  0  0  0  0
 19 25  1  0  0  0  0
 20 19  2  0  0  0  0
 21 23  2  0  0  0  0
 22 24  2  0  0  0  0
 22 20  1  0  0  0  0
 24 21  1  0  0  0  0
 26 27  1  0  0  0  0
 28 30  2  0  0  0  0
 29 27  1  6  0  0  0
 29 33  1  0  0  0  0
 29 30  1  0  0  0  0
 30 34  1  0  0  0  0
 32 31  1  0  0  0  0
 33 32  1  0  0  0  0
 34 31  1  0  0  0  0
M  END
>  <MODEL>
6

>  <REMARK>
 VINA RESULT:      -7.2      1.461      2.037
  Name = 
  5 active torsions:
  status: ('A' for Active; 'I' for Inactive)
    1  A    between atoms: C_3  and  C_13
    2  A    between atoms: C_3  and  O_17
    3  A    between atoms: C_4  and  C_15
    4  A    between atoms: C_12  and  C_28
    5  A    between atoms: O_17  and  C_29
                            x       y       z     vdW  Elec       q    Type
                         _______ _______ _______ _____ _____    ______ ____

>  <TORSDO>
F 5

$$$$
=
 OpenBabel10262423433D

 34 38  0  0  1  0  0  0  0  0999 V2000
  189.2660  176.3780  136.1290 C   0  0  2  0  0  3  0  0  0  0  0  0
  190.4360  175.9310  138.2680 N   0  0  2  0  0  0  0  0  0  0  0  0
  189.6850  178.2040  137.8770 C   0  0  0  0  0  2  0  0  0  0  0  0
  190.5220  176.6830  139.5110 C   0  0  0  0  0  2  0  0  0  0  0  0
  189.6870  175.0140  135.5500 C   0  0  0  0  0  2  0  0  0  0  0  0
  192.0420  175.7800  134.9440 C   0  0  0  0  0  1  0  0  0  0  0  0
  191.7520  175.3690  138.0090 C   0  0  0  0  0  2  0  0  0  0  0  0
  191.6580  174.2430  136.9740 C   0  0  1  0  0  3  0  0  0  0  0  0
  189.6470  177.9090  139.3560 C   0  0  2  0  0  3  0  0  0  0  0  0
  190.1930  176.9240  137.2300 C   0  0  2  0  0  3  0  0  0  0  0  0
  191.1850  174.6900  135.5790 C   0  0  1  0  0  3  0  0  0  0  0  0
  187.3150  175.3280  137.1310 N   0  0  0  0  0  0  0  0  0  0  0  0
  186.8500  177.3850  136.2220 C   0  0  0  0  0  0  0  0  0  0  0  0
  185.8850  175.3970  137.4170 C   0  0  1  0  0  3  0  0  0  0  0  0
  185.2150  176.9820  136.7740 S   0  0  0  0  0  0  0  0  0  0  0  0
  187.8180  176.3530  136.5310 C   0  0  0  0  0  0  0  0  0  0  0  0
  185.1770  174.2390  136.7430 C   0  0  0  0  0  1  0  0  0  0  0  0
  187.1270  178.4540  135.6180 O   0  0  0  0  0  0  0  0  0  0  0  0
  194.0720  171.5500  136.0370 C   0  0  0  0  0  0  0  0  0  0  0  0
  195.2360  171.9160  136.7160 C   0  0  0  0  0  3  0  0  0  0  0  0
  192.9200  173.4380  136.9090 C   0  0  0  0  0  0  0  0  0  0  0  0
  195.2320  173.0690  137.5020 C   0  0  0  0  0  3  0  0  0  0  0  0
  192.9510  172.3130  136.1450 N   0  0  0  0  0  0  0  0  0  0  0  0
  194.0730  173.8380  137.6020 C   0  0  0  0  0  3  0  0  0  0  0  0
  194.0560  170.1100  135.0440 Cl  0  0  0  0  0  0  0  0  0  0  0  0
  188.3380  177.5860  139.7210 O   0  0  0  0  0  0  0  0  0  0  0  0
  188.0360  178.4430  140.7830 C   0  0  0  0  0  2  0  0  0  0  0  0
  189.1660  176.3830  142.6050 O   0  0  0  0  0  0  0  0  0  0  0  0
  187.3180  177.6900  141.8980 C   0  0  1  0  0  3  0  0  0  0  0  0
  188.2880  177.1650  142.9270 C   0  0  0  0  0  0  0  0  0  0  0  0
  186.7160  177.5500  144.8410 C   0  0  0  0  0  2  0  0  0  0  0  0
  185.6610  177.8950  143.7730 C   0  0  0  0  0  2  0  0  0  0  0  0
  186.2560  178.5820  142.5440 C   0  0  0  0  0  2  0  0  0  0  0  0
  188.1700  177.6100  144.3550 C   0  0  0  0  0  2  0  0  0  0  0  0
  1 16  1  1  0  0  0
  1 10  1  0  0  0  0
  2  7  1  6  0  0  0
  2  4  1  0  0  0  0
  3  9  1  0  0  0  0
  5 11  1  0  0  0  0
  5  1  1  0  0  0  0
  8 21  1  6  0  0  0
  8  7  1  0  0  0  0
  9  4  1  0  0  0  0
  9 26  1  6  0  0  0
 10  3  1  1  0  0  0
 10  2  1  0  0  0  0
 11  6  1  1  0  0  0
 11  8  1  0  0  0  0
 12 14  1  0  0  0  0
 13 16  1  0  0  0  0
 13 15  1  0  0  0  0
 14 17  1  6  0  0  0
 15 14  1  0  0  0  0
 16 12  2  0  0  0  0
 18 13  2  0  0  0  0
 19 23  2  0  0  0  0
 19 20  1  0  0  0  0
 20 22  2  0  0  0  0
 21 24  2  0  0  0  0
 22 24  1  0  0  0  0
 23 21  1  0  0  0  0
 25 19  1  0  0  0  0
 26 27  1  0  0  0  0
 28 30  2  0  0  0  0
 29 27  1  6  0  0  0
 29 33  1  0  0  0  0
 29 30  1  0  0  0  0
 30 34  1  0  0  0  0
 32 31  1  0  0  0  0
 33 32  1  0  0  0  0
 34 31  1  0  0  0  0
M  END
>  <MODEL>
7

>  <REMARK>
 VINA RESULT:      -7.2      1.703      2.250
  Name = 
  5 active torsions:
  status: ('A' for Active; 'I' for Inactive)
    1  A    between atoms: C_3  and  C_13
    2  A    between atoms: C_3  and  O_17
    3  A    between atoms: C_4  and  C_15
    4  A    between atoms: C_12  and  C_28
    5  A    between atoms: O_17  and  C_29
                            x       y       z     vdW  Elec       q    Type
                         _______ _______ _______ _____ _____    ______ ____

>  <TORSDO>
F 5

$$$$
=
 OpenBabel10262423433D

 34 38  0  0  1  0  0  0  0  0999 V2000
  185.0060  178.0560  137.2120 C   0  0  2  0  0  3  0  0  0  0  0  0
  183.6830  176.3640  138.4510 N   0  0  2  0  0  0  0  0  0  0  0  0
  183.2320  176.5960  136.0800 C   0  0  0  0  0  2  0  0  0  0  0  0
  182.8740  175.2390  138.0060 C   0  0  0  0  0  2  0  0  0  0  0  0
  185.5320  178.6810  138.5190 C   0  0  0  0  0  2  0  0  0  0  0  0
  183.4040  180.0130  138.9650 C   0  0  0  0  0  1  0  0  0  0  0  0
  182.9810  176.9940  139.5590 C   0  0  0  0  0  2  0  0  0  0  0  0
  183.9300  177.9040  140.3460 C   0  0  1  0  0  3  0  0  0  0  0  0
  182.9950  175.1660  136.4990 C   0  0  2  0  0  3  0  0  0  0  0  0
  183.6630  177.3160  137.3480 C   0  0  2  0  0  3  0  0  0  0  0  0
  184.4780  179.1020  139.5500 C   0  0  1  0  0  3  0  0  0  0  0  0
  186.7690  176.3830  137.2450 N   0  0  0  0  0  0  0  0  0  0  0  0
  186.4950  177.3460  135.1790 C   0  0  0  0  0  0  0  0  0  0  0  0
  187.8200  175.6810  136.5130 C   0  0  1  0  0  3  0  0  0  0  0  0
  187.8460  176.2720  134.7740 S   0  0  0  0  0  0  0  0  0  0  0  0
  186.0770  177.2270  136.5600 C   0  0  0  0  0  0  0  0  0  0  0  0
  189.1620  175.9580  137.1620 C   0  0  0  0  0  1  0  0  0  0  0  0
  185.9690  178.1300  134.3470 O   0  0  0  0  0  0  0  0  0  0  0  0
  183.6860  178.8710  143.9450 C   0  0  0  0  0  0  0  0  0  0  0  0
  182.3230  179.1250  144.1150 C   0  0  0  0  0  3  0  0  0  0  0  0
  183.3410  178.3210  141.6580 C   0  0  0  0  0  0  0  0  0  0  0  0
  181.4620  178.9740  143.0280 C   0  0  0  0  0  3  0  0  0  0  0  0
  184.1610  178.4800  142.7320 N   0  0  0  0  0  0  0  0  0  0  0  0
  181.9670  178.5720  141.7920 C   0  0  0  0  0  3  0  0  0  0  0  0
  184.7840  179.0570  145.2950 Cl  0  0  0  0  0  0  0  0  0  0  0  0
  184.1170  174.4040  136.1660 O   0  0  0  0  0  0  0  0  0  0  0  0
  183.8650  173.1360  136.6990 C   0  0  0  0  0  2  0  0  0  0  0  0
  184.7270  171.5330  134.3470 O   0  0  0  0  0  0  0  0  0  0  0  0
  185.0960  172.2450  136.5780 C   0  0  1  0  0  3  0  0  0  0  0  0
  185.4990  172.0460  135.1390 C   0  0  0  0  0  0  0  0  0  0  0  0
  187.9510  172.0310  135.6580 C   0  0  0  0  0  2  0  0  0  0  0  0
  187.5340  172.0330  137.1400 C   0  0  0  0  0  2  0  0  0  0  0  0
  186.2520  172.8210  137.4010 C   0  0  0  0  0  2  0  0  0  0  0  0
  186.8590  172.4840  134.6800 C   0  0  0  0  0  2  0  0  0  0  0  0
  1 16  1  1  0  0  0
  1 10  1  0  0  0  0
  1  5  1  0  0  0  0
  2  4  1  6  0  0  0
  2  7  1  0  0  0  0
  3  9  1  0  0  0  0
  5 11  1  0  0  0  0
  7  8  1  0  0  0  0
  8 21  1  1  0  0  0
  9 26  1  1  0  0  0
  9  4  1  0  0  0  0
 10  3  1  6  0  0  0
 10  2  1  0  0  0  0
 11  6  1  6  0  0  0
 11  8  1  0  0  0  0
 13 16  1  0  0  0  0
 14 17  1  1  0  0  0
 14 12  1  0  0  0  0
 15 13  1  0  0  0  0
 15 14  1  0  0  0  0
 16 12  2  0  0  0  0
 18 13  2  0  0  0  0
 19 20  1  0  0  0  0
 19 25  1  0  0  0  0
 21 24  2  0  0  0  0
 21 23  1  0  0  0  0
 22 20  2  0  0  0  0
 23 19  2  0  0  0  0
 24 22  1  0  0  0  0
 26 27  1  0  0  0  0
 28 30  2  0  0  0  0
 29 27  1  6  0  0  0
 29 33  1  0  0  0  0
 30 29  1  0  0  0  0
 31 32  1  0  0  0  0
 32 33  1  0  0  0  0
 34 30  1  0  0  0  0
 34 31  1  0  0  0  0
M  END
>  <MODEL>
8

>  <REMARK>
 VINA RESULT:      -6.7      4.062      8.679
  Name = 
  5 active torsions:
  status: ('A' for Active; 'I' for Inactive)
    1  A    between atoms: C_3  and  C_13
    2  A    between atoms: C_3  and  O_17
    3  A    between atoms: C_4  and  C_15
    4  A    between atoms: C_12  and  C_28
    5  A    between atoms: O_17  and  C_29
                            x       y       z     vdW  Elec       q    Type
                         _______ _______ _______ _____ _____    ______ ____

>  <TORSDO>
F 5

$$$$
=
 OpenBabel10262423433D

 34 38  0  0  1  0  0  0  0  0999 V2000
  190.6100  176.6780  137.8340 C   0  0  2  0  0  3  0  0  0  0  0  0
  188.5730  177.2850  139.1130 N   0  0  2  0  0  0  0  0  0  0  0  0
  189.0000  178.5190  137.0700 C   0  0  0  0  0  2  0  0  0  0  0  0
  187.3830  178.0410  138.7530 C   0  0  0  0  0  2  0  0  0  0  0  0
  191.1590  175.8380  139.0030 C   0  0  0  0  0  2  0  0  0  0  0  0
  192.0270  177.8550  140.2990 C   0  0  0  0  0  1  0  0  0  0  0  0
  188.9320  177.6590  140.4730 C   0  0  0  0  0  2  0  0  0  0  0  0
  189.8970  176.6310  141.0730 C   0  0  1  0  0  3  0  0  0  0  0  0
  187.5120  178.4150  137.2920 C   0  0  2  0  0  3  0  0  0  0  0  0
  189.6300  177.7930  138.2480 C   0  0  2  0  0  3  0  0  0  0  0  0
  191.2590  176.5390  140.3640 C   0  0  1  0  0  3  0  0  0  0  0  0
  189.1210  174.9450  137.0030 N   0  0  0  0  0  0  0  0  0  0  0  0
  190.5880  175.7000  135.4060 C   0  0  0  0  0  0  0  0  0  0  0  0
  188.7220  174.0890  135.8890 C   0  0  1  0  0  3  0  0  0  0  0  0
  189.7640  174.4730  134.4260 S   0  0  0  0  0  0  0  0  0  0  0  0
  190.0680  175.7840  136.7550 C   0  0  0  0  0  0  0  0  0  0  0  0
  188.9080  172.6350  136.2750 C   0  0  0  0  0  1  0  0  0  0  0  0
  191.5290  176.4110  134.9660 O   0  0  0  0  0  0  0  0  0  0  0  0
  189.0530  177.4180  144.6260 C   0  0  0  0  0  0  0  0  0  0  0  0
  190.2340  177.1160  145.3080 C   0  0  0  0  0  3  0  0  0  0  0  0
  190.0440  176.8040  142.5540 C   0  0  0  0  0  0  0  0  0  0  0  0
  191.3340  176.6470  144.5890 C   0  0  0  0  0  3  0  0  0  0  0  0
  188.9840  177.2540  143.2770 N   0  0  0  0  0  0  0  0  0  0  0  0
  191.2440  176.4870  143.2070 C   0  0  0  0  0  3  0  0  0  0  0  0
  187.6610  178.0040  145.5080 Cl  0  0  0  0  0  0  0  0  0  0  0  0
  187.0070  177.3750  136.5080 O   0  0  0  0  0  0  0  0  0  0  0  0
  185.7640  177.8320  136.0580 C   0  0  0  0  0  2  0  0  0  0  0  0
  185.5660  175.1660  134.7550 O   0  0  0  0  0  0  0  0  0  0  0  0
  184.6910  176.7690  136.2680 C   0  0  1  0  0  3  0  0  0  0  0  0
  185.1880  175.3960  135.8920 C   0  0  0  0  0  0  0  0  0  0  0  0
  183.9090  174.2540  137.7190 C   0  0  0  0  0  2  0  0  0  0  0  0
  183.2500  175.6210  137.9740 C   0  0  0  0  0  2  0  0  0  0  0  0
  184.1910  176.7970  137.7150 C   0  0  0  0  0  2  0  0  0  0  0  0
  185.2200  174.3070  136.9230 C   0  0  0  0  0  2  0  0  0  0  0  0
  1 16  1  6  0  0  0
  1 10  1  0  0  0  0
  1  5  1  0  0  0  0
  2  4  1  6  0  0  0
  2  7  1  0  0  0  0
  3  9  1  0  0  0  0
  5 11  1  0  0  0  0
  7  8  1  0  0  0  0
  8 21  1  1  0  0  0
  9 26  1  6  0  0  0
  9  4  1  0  0  0  0
 10  3  1  6  0  0  0
 10  2  1  0  0  0  0
 11  6  1  6  0  0  0
 11  8  1  0  0  0  0
 13 16  1  0  0  0  0
 14 17  1  1  0  0  0
 14 12  1  0  0  0  0
 15 13  1  0  0  0  0
 15 14  1  0  0  0  0
 16 12  2  0  0  0  0
 18 13  2  0  0  0  0
 19 20  1  0  0  0  0
 19 25  1  0  0  0  0
 21 24  2  0  0  0  0
 21 23  1  0  0  0  0
 22 20  2  0  0  0  0
 23 19  2  0  0  0  0
 24 22  1  0  0  0  0
 27 26  1  0  0  0  0
 28 30  2  0  0  0  0
 29 27  1  1  0  0  0
 29 33  1  0  0  0  0
 30 29  1  0  0  0  0
 30 34  1  0  0  0  0
 31 32  1  0  0  0  0
 33 32  1  0  0  0  0
 34 31  1  0  0  0  0
M  END
>  <MODEL>
9

>  <REMARK>
 VINA RESULT:      -6.7      3.463      5.816
  Name = 
  5 active torsions:
  status: ('A' for Active; 'I' for Inactive)
    1  A    between atoms: C_3  and  C_13
    2  A    between atoms: C_3  and  O_17
    3  A    between atoms: C_4  and  C_15
    4  A    between atoms: C_12  and  C_28
    5  A    between atoms: O_17  and  C_29
                            x       y       z     vdW  Elec       q    Type
                         _______ _______ _______ _____ _____    ______ ____

>  <TORSDO>
F 5

$$$$
