=
 OpenBabel10262423433D

 34 38  0  0  1  0  0  0  0  0999 V2000
  190.8160  177.0650  146.0420 C   0  0  2  0  0  3  0  0  0  0  0  0
  188.5890  177.8510  146.9770 C   0  0  1  0  0  3  0  0  0  0  0  0
  188.8410  177.4610  144.4920 C   0  0  1  0  0  3  0  0  0  0  0  0
  187.3810  178.7240  142.1320 C   0  0  0  0  0  2  0  0  0  0  0  0
  188.8660  177.3610  148.2540 O   0  0  0  0  0  1  0  0  0  0  0  0
  186.6980  178.3500  145.3990 C   0  0  0  0  0  2  0  0  0  0  0  0
  189.2830  176.9870  145.8990 C   0  0  1  0  0  3  0  0  0  0  0  0
  186.7230  177.5980  142.9600 C   0  0  1  0  0  3  0  0  0  0  0  0
  189.6180  176.7670  143.3430 C   0  0  1  0  0  3  0  0  0  0  0  0
  191.5020  176.3080  144.9110 C   0  0  0  0  0  2  0  0  0  0  0  0
  187.0720  177.8770  146.7950 C   0  0  0  0  0  2  0  0  0  0  0  0
  188.7950  178.6800  142.0690 O   0  0  0  0  0  0  0  0  0  0  0  0
  189.2020  177.3360  141.9650 C   0  0  1  0  0  3  0  0  0  0  0  0
  187.3020  177.3930  144.3780 C   0  0  1  0  0  3  0  0  0  0  0  0
  191.1200  176.9240  143.5800 C   0  0  0  0  0  2  0  0  0  0  0  0
  192.4210  177.2440  139.9280 C   0  0  0  0  0  0  0  0  0  0  0  0
  191.9740  176.6420  138.7480 C   0  0  0  0  0  3  0  0  0  0  0  0
  190.1760  177.1160  140.8430 C   0  0  0  0  0  0  0  0  0  0  0  0
  190.6310  176.2750  138.6150 C   0  0  0  0  0  3  0  0  0  0  0  0
  191.5250  177.4770  140.9760 C   0  0  0  0  0  3  0  0  0  0  0  0
  189.7350  176.5090  139.6630 C   0  0  0  0  0  3  0  0  0  0  0  0
  193.7220  177.5970  140.0590 F   0  0  0  0  0  0  0  0  0  0  0  0
  192.2750  175.6500  146.9270 C   0  0  0  0  0  1  0  0  0  0  0  0
  191.2290  176.5140  147.2590 O   0  0  0  0  0  0  0  0  0  0  0  0
  185.2050  177.7100  142.9240 C   0  0  0  0  0  2  0  0  0  0  0  0
  184.7870  178.9810  142.2110 C   0  0  0  0  0  2  0  0  0  0  0  0
  183.4020  178.7970  141.6220 C   0  0  0  0  0  2  0  0  0  0  0  0
  184.7210  179.8230  139.3320 O   0  0  0  0  0  0  0  0  0  0  0  0
  183.4960  178.1110  140.2980 C   0  0  2  0  0  3  0  0  0  0  0  0
  184.1640  178.6990  139.2110 C   0  0  0  0  0  0  0  0  0  0  0  0
  183.6240  176.8390  137.8340 C   0  0  0  0  0  3  0  0  0  0  0  0
  182.9460  176.2240  138.8870 C   0  0  0  0  0  3  0  0  0  0  0  0
  182.8820  176.8680  140.1240 C   0  0  0  0  0  3  0  0  0  0  0  0
  184.2130  178.0520  138.0160 N   0  0  0  0  0  0  0  0  0  0  0  0
  1 24  1  1  0  0  0
  2  5  1  1  0  0  0
  3  7  1  0  0  0  0
  4  8  1  0  0  0  0
  6 11  1  0  0  0  0
  7  1  1  0  0  0  0
  7  2  1  0  0  0  0
  8 14  1  0  0  0  0
  9 15  1  0  0  0  0
  9  3  1  0  0  0  0
 10  1  1  0  0  0  0
 11  2  1  0  0  0  0
 12  4  1  0  0  0  0
 13 12  1  0  0  0  0
 13  9  1  0  0  0  0
 14  3  1  0  0  0  0
 14  6  1  0  0  0  0
 15 10  1  0  0  0  0
 16 22  1  0  0  0  0
 16 20  1  0  0  0  0
 17 16  2  0  0  0  0
 18 20  2  0  0  0  0
 18 13  1  0  0  0  0
 19 17  1  0  0  0  0
 19 21  2  0  0  0  0
 21 18  1  0  0  0  0
 23 24  1  0  0  0  0
 25  8  1  0  0  0  0
 26 25  1  0  0  0  0
 27 26  1  0  0  0  0
 29 27  1  0  0  0  0
 30 28  2  0  0  0  0
 30 29  1  0  0  0  0
 31 34  2  0  0  0  0
 31 32  1  0  0  0  0
 32 33  2  0  0  0  0
 33 29  1  0  0  0  0
 34 30  1  0  0  0  0
M  END
>  <MODEL>
1

>  <REMARK>
 VINA RESULT:     -10.1      0.000      0.000
  Name = 
  6 active torsions:
  status: ('A' for Active; 'I' for Inactive)
    1  A    between atoms: C_1  and  O_19
    2  A    between atoms: C_3  and  C_13
    3  A    between atoms: C_3  and  C_17
    4  A    between atoms: C_12  and  C_28
    5  A    between atoms: C_17  and  C_29
    6  A    between atoms: C_18  and  C_29
                            x       y       z     vdW  Elec       q    Type
                         _______ _______ _______ _____ _____    ______ ____

>  <TORSDO>
F 6

$$$$
=
 OpenBabel10262423433D

 34 38  0  0  1  0  0  0  0  0999 V2000
  189.1220  177.6670  145.8680 C   0  0  2  0  0  3  0  0  0  0  0  0
  186.8560  178.4270  146.7280 C   0  0  1  0  0  3  0  0  0  0  0  0
  187.1940  178.0350  144.2530 C   0  0  1  0  0  3  0  0  0  0  0  0
  185.7970  179.2750  141.8430 C   0  0  0  0  0  2  0  0  0  0  0  0
  187.0970  177.9430  148.0140 O   0  0  0  0  0  1  0  0  0  0  0  0
  185.0120  178.8990  145.0870 C   0  0  0  0  0  2  0  0  0  0  0  0
  187.5960  177.5690  145.6750 C   0  0  1  0  0  3  0  0  0  0  0  0
  185.1260  178.1430  142.6520 C   0  0  1  0  0  3  0  0  0  0  0  0
  188.0170  177.3480  143.1320 C   0  0  1  0  0  3  0  0  0  0  0  0
  189.8540  176.9160  144.7620 C   0  0  0  0  0  2  0  0  0  0  0  0
  185.3460  178.4340  146.4960 C   0  0  0  0  0  2  0  0  0  0  0  0
  187.2130  179.2480  141.8270 O   0  0  0  0  0  0  0  0  0  0  0  0
  187.6390  177.9090  141.7390 C   0  0  1  0  0  3  0  0  0  0  0  0
  185.6610  177.9480  144.0890 C   0  0  1  0  0  3  0  0  0  0  0  0
  189.5080  177.5240  143.4170 C   0  0  0  0  0  2  0  0  0  0  0  0
  189.5440  178.2200  138.4540 C   0  0  0  0  0  0  0  0  0  0  0  0
  190.5900  177.3160  138.6640 C   0  0  0  0  0  3  0  0  0  0  0  0
  188.6530  177.6980  140.6500 C   0  0  0  0  0  0  0  0  0  0  0  0
  190.6700  176.6060  139.8660 C   0  0  0  0  0  3  0  0  0  0  0  0
  188.5790  178.4140  139.4460 C   0  0  0  0  0  3  0  0  0  0  0  0
  189.7040  176.7990  140.8580 C   0  0  0  0  0  3  0  0  0  0  0  0
  189.4680  178.9100  137.2920 F   0  0  0  0  0  0  0  0  0  0  0  0
  190.8590  176.8230  146.9570 C   0  0  0  0  0  1  0  0  0  0  0  0
  189.5020  177.1230  147.0990 O   0  0  0  0  0  0  0  0  0  0  0  0
  183.6090  178.2350  142.5660 C   0  0  0  0  0  2  0  0  0  0  0  0
  183.1910  178.8020  141.2230 C   0  0  0  0  0  2  0  0  0  0  0  0
  182.5500  177.7090  140.3910 C   0  0  0  0  0  2  0  0  0  0  0  0
  182.3290  175.3890  138.7770 O   0  0  0  0  0  0  0  0  0  0  0  0
  183.4160  177.3860  139.2170 C   0  0  2  0  0  3  0  0  0  0  0  0
  183.2410  176.2050  138.4770 C   0  0  0  0  0  0  0  0  0  0  0  0
  185.0630  176.7830  137.0650 C   0  0  0  0  0  3  0  0  0  0  0  0
  185.2730  177.9640  137.7780 C   0  0  0  0  0  3  0  0  0  0  0  0
  184.4450  178.2630  138.8610 C   0  0  0  0  0  3  0  0  0  0  0  0
  184.0610  175.9370  137.4260 N   0  0  0  0  0  0  0  0  0  0  0  0
  1 24  1  1  0  0  0
  2  5  1  1  0  0  0
  3  7  1  0  0  0  0
  4  8  1  0  0  0  0
  6 11  1  0  0  0  0
  7  1  1  0  0  0  0
  7  2  1  0  0  0  0
  8 14  1  0  0  0  0
  9 15  1  0  0  0  0
  9  3  1  0  0  0  0
 10  1  1  0  0  0  0
 11  2  1  0  0  0  0
 12  4  1  0  0  0  0
 13 12  1  0  0  0  0
 13  9  1  0  0  0  0
 14  3  1  0  0  0  0
 14  6  1  0  0  0  0
 15 10  1  0  0  0  0
 16 17  2  0  0  0  0
 16 20  1  0  0  0  0
 17 19  1  0  0  0  0
 18 21  1  0  0  0  0
 18 13  1  0  0  0  0
 19 21  2  0  0  0  0
 20 18  2  0  0  0  0
 22 16  1  0  0  0  0
 23 24  1  0  0  0  0
 25  8  1  0  0  0  0
 26 25  1  0  0  0  0
 27 26  1  0  0  0  0
 29 27  1  0  0  0  0
 30 28  2  0  0  0  0
 30 29  1  0  0  0  0
 31 34  2  0  0  0  0
 31 32  1  0  0  0  0
 32 33  2  0  0  0  0
 33 29  1  0  0  0  0
 34 30  1  0  0  0  0
M  END
>  <MODEL>
2

>  <REMARK>
 VINA RESULT:     -10.1      1.788      2.305
  Name = 
  6 active torsions:
  status: ('A' for Active; 'I' for Inactive)
    1  A    between atoms: C_1  and  O_19
    2  A    between atoms: C_3  and  C_13
    3  A    between atoms: C_3  and  C_17
    4  A    between atoms: C_12  and  C_28
    5  A    between atoms: C_17  and  C_29
    6  A    between atoms: C_18  and  C_29
                            x       y       z     vdW  Elec       q    Type
                         _______ _______ _______ _____ _____    ______ ____

>  <TORSDO>
F 6

$$$$
=
 OpenBabel10262423433D

 34 38  0  0  1  0  0  0  0  0999 V2000
  187.5260  178.0480  146.0970 C   0  0  2  0  0  3  0  0  0  0  0  0
  185.1070  178.8230  146.0680 C   0  0  1  0  0  3  0  0  0  0  0  0
  186.2540  178.2030  143.9020 C   0  0  1  0  0  3  0  0  0  0  0  0
  185.7530  179.1630  141.0520 C   0  0  0  0  0  2  0  0  0  0  0  0
  184.9000  178.4730  147.4030 O   0  0  0  0  0  1  0  0  0  0  0  0
  183.9230  179.0820  143.8660 C   0  0  0  0  0  2  0  0  0  0  0  0
  186.1520  177.8890  145.4160 C   0  0  1  0  0  3  0  0  0  0  0  0
  184.8440  178.0960  141.7000 C   0  0  1  0  0  3  0  0  0  0  0  0
  187.4010  177.4340  143.1960 C   0  0  1  0  0  3  0  0  0  0  0  0
  188.5820  177.2140  145.3810 C   0  0  0  0  0  2  0  0  0  0  0  0
  183.7620  178.7650  145.3450 C   0  0  0  0  0  2  0  0  0  0  0  0
  187.0930  179.1740  141.5130 O   0  0  0  0  0  0  0  0  0  0  0  0
  187.5160  177.8460  141.7080 C   0  0  1  0  0  3  0  0  0  0  0  0
  184.8640  178.0560  143.2440 C   0  0  1  0  0  3  0  0  0  0  0  0
  188.7110  177.6790  143.9450 C   0  0  0  0  0  2  0  0  0  0  0  0
  191.2390  177.2460  141.1620 C   0  0  0  0  0  0  0  0  0  0  0  0
  191.2670  176.9720  139.7910 C   0  0  0  0  0  3  0  0  0  0  0  0
  188.8350  177.5600  141.0480 C   0  0  0  0  0  0  0  0  0  0  0  0
  190.0820  176.9880  139.0490 C   0  0  0  0  0  3  0  0  0  0  0  0
  190.0250  177.5370  141.7910 C   0  0  0  0  0  3  0  0  0  0  0  0
  188.8670  177.2790  139.6780 C   0  0  0  0  0  3  0  0  0  0  0  0
  192.3860  177.2270  141.8810 F   0  0  0  0  0  0  0  0  0  0  0  0
  188.7720  177.7790  147.9100 C   0  0  0  0  0  1  0  0  0  0  0  0
  187.4670  177.6380  147.4330 O   0  0  0  0  0  0  0  0  0  0  0  0
  183.4440  178.1360  141.1020 C   0  0  0  0  0  2  0  0  0  0  0  0
  183.4080  179.0670  139.9050 C   0  0  0  0  0  2  0  0  0  0  0  0
  182.8170  178.3370  138.7150 C   0  0  0  0  0  2  0  0  0  0  0  0
  182.4920  175.5560  138.2710 O   0  0  0  0  0  0  0  0  0  0  0  0
  183.8410  177.4320  138.1100 C   0  0  0  0  0  0  0  0  0  0  0  0
  183.5970  176.0600  137.9350 C   0  0  0  0  0  0  0  0  0  0  0  0
  185.7710  175.7600  137.0220 C   0  0  0  0  0  3  0  0  0  0  0  0
  186.0540  177.1170  137.1850 C   0  0  0  0  0  2  0  0  0  0  0  0
  185.0820  177.9540  137.7350 C   0  0  0  0  0  3  0  0  0  0  0  0
  184.5600  175.2640  137.3970 N   0  0  0  0  0  0  0  0  0  0  0  0
  1 24  1  1  0  0  0
  2  5  1  1  0  0  0
  3  7  1  0  0  0  0
  4 12  1  0  0  0  0
  4  8  1  0  0  0  0
  6 11  1  0  0  0  0
  7  2  1  0  0  0  0
  7  1  1  0  0  0  0
  8 14  1  0  0  0  0
  9  3  1  0  0  0  0
  9 15  1  0  0  0  0
 10  1  1  0  0  0  0
 11  2  1  0  0  0  0
 12 13  1  0  0  0  0
 13  9  1  0  0  0  0
 14  6  1  0  0  0  0
 14  3  1  0  0  0  0
 15 10  1  0  0  0  0
 16 20  1  0  0  0  0
 16 22  1  0  0  0  0
 17 16  2  0  0  0  0
 18 13  1  0  0  0  0
 18 20  2  0  0  0  0
 19 21  2  0  0  0  0
 19 17  1  0  0  0  0
 21 18  1  0  0  0  0
 24 23  1  0  0  0  0
 25  8  1  0  0  0  0
 26 25  1  0  0  0  0
 27 26  1  0  0  0  0
 29 27  1  0  0  0  0
 30 29  1  0  0  0  0
 30 28  2  0  0  0  0
 31 32  1  0  0  0  0
 31 34  2  0  0  0  0
 32 33  1  0  0  0  0
 33 29  2  0  0  0  0
 34 30  1  0  0  0  0
M  END
>  <MODEL>
3

>  <REMARK>
 VINA RESULT:      -9.9      1.830      2.885
  Name = 
  6 active torsions:
  status: ('A' for Active; 'I' for Inactive)
    1  A    between atoms: C_1  and  O_19
    2  A    between atoms: C_3  and  C_13
    3  A    between atoms: C_3  and  C_17
    4  A    between atoms: C_12  and  C_28
    5  A    between atoms: C_17  and  C_29
    6  A    between atoms: C_18  and  C_29
                            x       y       z     vdW  Elec       q    Type
                         _______ _______ _______ _____ _____    ______ ____

>  <TORSDO>
F 6

$$$$
=
 OpenBabel10262423433D

 34 38  0  0  1  0  0  0  0  0999 V2000
  188.6800  177.2810  147.5110 C   0  0  2  0  0  3  0  0  0  0  0  0
  190.9370  176.5220  146.6280 C   0  0  1  0  0  3  0  0  0  0  0  0
  189.1500  177.2900  145.0140 C   0  0  1  0  0  3  0  0  0  0  0  0
  188.6610  176.5380  142.0990 C   0  0  0  0  0  2  0  0  0  0  0  0
  191.5810  176.7760  147.8400 O   0  0  0  0  0  1  0  0  0  0  0  0
  191.3200  176.4270  144.1460 C   0  0  0  0  0  2  0  0  0  0  0  0
  189.7530  177.4950  146.4260 C   0  0  1  0  0  3  0  0  0  0  0  0
  189.7530  177.5610  142.4810 C   0  0  1  0  0  3  0  0  0  0  0  0
  187.8490  178.1020  144.7820 C   0  0  1  0  0  3  0  0  0  0  0  0
  187.4620  178.1580  147.2450 C   0  0  0  0  0  2  0  0  0  0  0  0
  191.9680  176.6380  145.5060 C   0  0  0  0  0  2  0  0  0  0  0  0
  187.5490  176.4870  142.9760 O   0  0  0  0  0  0  0  0  0  0  0  0
  187.2400  177.7960  143.3920 C   0  0  1  0  0  3  0  0  0  0  0  0
  190.2460  177.4890  143.9440 C   0  0  1  0  0  3  0  0  0  0  0  0
  186.8560  177.7970  145.9040 C   0  0  0  0  0  2  0  0  0  0  0  0
  183.6470  178.8110  144.1520 C   0  0  0  0  0  0  0  0  0  0  0  0
  183.0820  178.7730  142.8740 C   0  0  0  0  0  3  0  0  0  0  0  0
  185.7830  178.1230  143.2280 C   0  0  0  0  0  0  0  0  0  0  0  0
  183.8660  178.4140  141.7730 C   0  0  0  0  0  3  0  0  0  0  0  0
  184.9960  178.4890  144.3300 C   0  0  0  0  0  3  0  0  0  0  0  0
  185.2150  178.0920  141.9500 C   0  0  0  0  0  3  0  0  0  0  0  0
  182.8890  179.1620  145.2180 F   0  0  0  0  0  0  0  0  0  0  0  0
  188.2140  178.4130  149.3590 C   0  0  0  0  0  1  0  0  0  0  0  0
  189.1850  177.5950  148.7760 O   0  0  0  0  0  0  0  0  0  0  0  0
  190.8760  177.5700  141.4520 C   0  0  0  0  0  2  0  0  0  0  0  0
  190.4840  176.7510  140.2370 C   0  0  0  0  0  2  0  0  0  0  0  0
  190.3430  177.6640  139.0360 C   0  0  0  0  0  2  0  0  0  0  0  0
  187.8110  178.7880  139.6350 O   0  0  0  0  0  0  0  0  0  0  0  0
  189.0710  177.3650  138.3130 C   0  0  2  0  0  3  0  0  0  0  0  0
  187.8550  177.9630  138.6850 C   0  0  0  0  0  0  0  0  0  0  0  0
  186.7090  176.7640  136.9820 C   0  0  0  0  0  3  0  0  0  0  0  0
  187.8950  176.1440  136.5860 C   0  0  0  0  0  3  0  0  0  0  0  0
  189.0800  176.4470  137.2590 C   0  0  0  0  0  3  0  0  0  0  0  0
  186.7140  177.6520  138.0130 N   0  0  0  0  0  0  0  0  0  0  0  0
  1 24  1  1  0  0  0
  2  5  1  1  0  0  0
  3  7  1  0  0  0  0
  4  8  1  0  0  0  0
  4 12  1  0  0  0  0
  6 11  1  0  0  0  0
  7  2  1  0  0  0  0
  7  1  1  0  0  0  0
  8 14  1  0  0  0  0
  9  3  1  0  0  0  0
  9 15  1  0  0  0  0
 10  1  1  0  0  0  0
 11  2  1  0  0  0  0
 12 13  1  0  0  0  0
 13  9  1  0  0  0  0
 14  6  1  0  0  0  0
 14  3  1  0  0  0  0
 15 10  1  0  0  0  0
 16 20  1  0  0  0  0
 16 22  1  0  0  0  0
 17 16  2  0  0  0  0
 18 13  1  0  0  0  0
 18 20  2  0  0  0  0
 19 21  2  0  0  0  0
 19 17  1  0  0  0  0
 21 18  1  0  0  0  0
 24 23  1  0  0  0  0
 25  8  1  0  0  0  0
 26 25  1  0  0  0  0
 27 26  1  0  0  0  0
 29 30  1  0  0  0  0
 29 27  1  0  0  0  0
 30 28  2  0  0  0  0
 31 34  2  0  0  0  0
 32 31  1  0  0  0  0
 32 33  2  0  0  0  0
 33 29  1  0  0  0  0
 34 30  1  0  0  0  0
M  END
>  <MODEL>
4

>  <REMARK>
 VINA RESULT:      -9.7      2.647      5.447
  Name = 
  6 active torsions:
  status: ('A' for Active; 'I' for Inactive)
    1  A    between atoms: C_1  and  O_19
    2  A    between atoms: C_3  and  C_13
    3  A    between atoms: C_3  and  C_17
    4  A    between atoms: C_12  and  C_28
    5  A    between atoms: C_17  and  C_29
    6  A    between atoms: C_18  and  C_29
                            x       y       z     vdW  Elec       q    Type
                         _______ _______ _______ _____ _____    ______ ____

>  <TORSDO>
F 6

$$$$
=
 OpenBabel10262423433D

 34 38  0  0  1  0  0  0  0  0999 V2000
  183.3390  178.8120  140.6620 C   0  0  2  0  0  3  0  0  0  0  0  0
  182.3400  178.6930  142.9940 C   0  0  1  0  0  3  0  0  0  0  0  0
  184.8420  178.5010  142.6880 C   0  0  1  0  0  3  0  0  0  0  0  0
  186.9420  177.0890  144.3900 C   0  0  0  0  0  2  0  0  0  0  0  0
  181.1820  179.3720  142.6150 O   0  0  0  0  0  1  0  0  0  0  0  0
  183.8460  178.2600  144.9590 C   0  0  0  0  0  2  0  0  0  0  0  0
  183.5480  179.1600  142.1490 C   0  0  1  0  0  3  0  0  0  0  0  0
  186.3850  178.4690  144.8020 C   0  0  1  0  0  3  0  0  0  0  0  0
  186.0820  178.7750  141.7970 C   0  0  1  0  0  3  0  0  0  0  0  0
  184.5770  179.1670  139.8470 C   0  0  0  0  0  2  0  0  0  0  0  0
  182.5640  178.9290  144.4870 C   0  0  0  0  0  2  0  0  0  0  0  0
  186.9640  176.8390  142.9950 O   0  0  0  0  0  0  0  0  0  0  0  0
  187.3280  178.0250  142.3290 C   0  0  1  0  0  3  0  0  0  0  0  0
  185.0200  178.8460  144.1830 C   0  0  1  0  0  3  0  0  0  0  0  0
  185.7660  178.3760  140.3550 C   0  0  0  0  0  2  0  0  0  0  0  0
  189.4680  178.2410  139.1840 C   0  0  0  0  0  0  0  0  0  0  0  0
  190.5480  177.4280  139.5390 C   0  0  0  0  0  3  0  0  0  0  0  0
  188.4370  177.8110  141.3390 C   0  0  0  0  0  0  0  0  0  0  0  0
  190.5770  176.8110  140.7930 C   0  0  0  0  0  3  0  0  0  0  0  0
  188.4150  178.4350  140.0830 C   0  0  0  0  0  3  0  0  0  0  0  0
  189.5230  177.0040  141.6920 C   0  0  0  0  0  3  0  0  0  0  0  0
  189.4420  178.8420  137.9710 F   0  0  0  0  0  0  0  0  0  0  0  0
  182.6460  179.8920  138.8550 C   0  0  0  0  0  1  0  0  0  0  0  0
  182.2480  179.5110  140.1380 O   0  0  0  0  0  0  0  0  0  0  0  0
  186.4490  178.6550  146.3120 C   0  0  0  0  0  2  0  0  0  0  0  0
  187.3980  177.6440  146.9270 C   0  0  0  0  0  2  0  0  0  0  0  0
  188.6940  178.3350  147.3070 C   0  0  0  0  0  2  0  0  0  0  0  0
  189.9080  178.6340  144.7630 O   0  0  0  0  0  0  0  0  0  0  0  0
  189.8590  177.5450  146.8060 C   0  0  2  0  0  3  0  0  0  0  0  0
  190.3930  177.7540  145.5240 C   0  0  0  0  0  0  0  0  0  0  0  0
  191.9990  176.0390  145.8790 C   0  0  0  0  0  3  0  0  0  0  0  0
  191.4940  175.7970  147.1570 C   0  0  0  0  0  3  0  0  0  0  0  0
  190.4170  176.5540  147.6190 C   0  0  0  0  0  3  0  0  0  0  0  0
  191.4430  177.0030  145.0960 N   0  0  0  0  0  0  0  0  0  0  0  0
  1 24  1  6  0  0  0
  1  7  1  0  0  0  0
  2  5  1  6  0  0  0
  2 11  1  0  0  0  0
  3 14  1  0  0  0  0
  4  8  1  0  0  0  0
  7  3  1  0  0  0  0
  7  2  1  0  0  0  0
  8 25  1  0  0  0  0
  9 13  1  0  0  0  0
  9  3  1  0  0  0  0
 10 15  1  0  0  0  0
 10  1  1  0  0  0  0
 11  6  1  0  0  0  0
 12  4  1  0  0  0  0
 13 12  1  0  0  0  0
 14  8  1  0  0  0  0
 14  6  1  0  0  0  0
 15  9  1  0  0  0  0
 16 17  2  0  0  0  0
 16 20  1  0  0  0  0
 17 19  1  0  0  0  0
 18 21  1  0  0  0  0
 18 13  1  0  0  0  0
 19 21  2  0  0  0  0
 20 18  2  0  0  0  0
 22 16  1  0  0  0  0
 23 24  1  0  0  0  0
 25 26  1  0  0  0  0
 26 27  1  0  0  0  0
 28 30  2  0  0  0  0
 29 27  1  0  0  0  0
 29 33  1  0  0  0  0
 30 29  1  0  0  0  0
 31 32  1  0  0  0  0
 32 33  2  0  0  0  0
 34 30  1  0  0  0  0
 34 31  2  0  0  0  0
M  END
>  <MODEL>
5

>  <REMARK>
 VINA RESULT:      -9.7      2.596      7.106
  Name = 
  6 active torsions:
  status: ('A' for Active; 'I' for Inactive)
    1  A    between atoms: C_1  and  O_19
    2  A    between atoms: C_3  and  C_13
    3  A    between atoms: C_3  and  C_17
    4  A    between atoms: C_12  and  C_28
    5  A    between atoms: C_17  and  C_29
    6  A    between atoms: C_18  and  C_29
                            x       y       z     vdW  Elec       q    Type
                         _______ _______ _______ _____ _____    ______ ____

>  <TORSDO>
F 6

$$$$
=
 OpenBabel10262423433D

 34 38  0  0  1  0  0  0  0  0999 V2000
  187.5260  177.9990  146.1200 C   0  0  2  0  0  3  0  0  0  0  0  0
  185.1120  178.7880  146.1110 C   0  0  1  0  0  3  0  0  0  0  0  0
  186.2500  178.1970  143.9320 C   0  0  1  0  0  3  0  0  0  0  0  0
  185.7470  179.2060  141.0980 C   0  0  0  0  0  2  0  0  0  0  0  0
  184.9060  178.4180  147.4400 O   0  0  0  0  0  1  0  0  0  0  0  0
  183.9240  179.0890  143.9160 C   0  0  0  0  0  2  0  0  0  0  0  0
  186.1500  177.8590  145.4400 C   0  0  1  0  0  3  0  0  0  0  0  0
  184.8330  178.1340  141.7320 C   0  0  1  0  0  3  0  0  0  0  0  0
  187.3900  177.4330  143.2100 C   0  0  1  0  0  3  0  0  0  0  0  0
  188.5760  177.1710  145.3880 C   0  0  0  0  0  2  0  0  0  0  0  0
  183.7650  178.7490  145.3910 C   0  0  0  0  0  2  0  0  0  0  0  0
  187.0880  179.2020  141.5560 O   0  0  0  0  0  0  0  0  0  0  0  0
  187.5040  177.8680  141.7290 C   0  0  1  0  0  3  0  0  0  0  0  0
  184.8570  178.0690  143.2750 C   0  0  1  0  0  3  0  0  0  0  0  0
  188.7040  177.6590  143.9590 C   0  0  0  0  0  2  0  0  0  0  0  0
  191.2260  177.2920  141.1570 C   0  0  0  0  0  0  0  0  0  0  0  0
  191.2450  177.0030  139.7890 C   0  0  0  0  0  3  0  0  0  0  0  0
  188.8190  177.5850  141.0610 C   0  0  0  0  0  0  0  0  0  0  0  0
  190.0540  177.0020  139.0570 C   0  0  0  0  0  3  0  0  0  0  0  0
  190.0150  177.5790  141.7930 C   0  0  0  0  0  3  0  0  0  0  0  0
  188.8420  177.2900  139.6940 C   0  0  0  0  0  3  0  0  0  0  0  0
  192.3800  177.2900  141.8660 F   0  0  0  0  0  0  0  0  0  0  0  0
  188.3450  178.4090  148.1390 C   0  0  0  0  0  1  0  0  0  0  0  0
  187.4690  177.5680  147.4490 O   0  0  0  0  0  0  0  0  0  0  0  0
  183.4320  178.1910  141.1390 C   0  0  0  0  0  2  0  0  0  0  0  0
  183.4220  179.0570  139.8940 C   0  0  0  0  0  2  0  0  0  0  0  0
  182.3840  178.5310  138.9210 C   0  0  0  0  0  2  0  0  0  0  0  0
  181.3340  178.3800  136.2930 O   0  0  0  0  0  0  0  0  0  0  0  0
  181.7660  179.6650  138.1710 C   0  0  0  0  0  0  0  0  0  0  0  0
  181.2780  179.5020  136.8630 C   0  0  0  0  0  0  0  0  0  0  0  0
  180.6580  181.7950  136.7760 C   0  0  0  0  0  3  0  0  0  0  0  0
  181.1370  181.9990  138.0710 C   0  0  0  0  0  2  0  0  0  0  0  0
  181.6960  180.9270  138.7680 C   0  0  0  0  0  3  0  0  0  0  0  0
  180.7380  180.5630  136.2050 N   0  0  0  0  0  0  0  0  0  0  0  0
  1 24  1  1  0  0  0
  2  5  1  1  0  0  0
  3  7  1  0  0  0  0
  4 12  1  0  0  0  0
  4  8  1  0  0  0  0
  6 11  1  0  0  0  0
  7  2  1  0  0  0  0
  7  1  1  0  0  0  0
  8 14  1  0  0  0  0
  9  3  1  0  0  0  0
  9 15  1  0  0  0  0
 10  1  1  0  0  0  0
 11  2  1  0  0  0  0
 12 13  1  0  0  0  0
 13  9  1  0  0  0  0
 14  6  1  0  0  0  0
 14  3  1  0  0  0  0
 15 10  1  0  0  0  0
 16 20  1  0  0  0  0
 16 22  1  0  0  0  0
 17 16  2  0  0  0  0
 18 13  1  0  0  0  0
 18 20  2  0  0  0  0
 19 21  2  0  0  0  0
 19 17  1  0  0  0  0
 21 18  1  0  0  0  0
 24 23  1  0  0  0  0
 25  8  1  0  0  0  0
 26 25  1  0  0  0  0
 27 26  1  0  0  0  0
 28 30  2  0  0  0  0
 29 33  2  0  0  0  0
 29 27  1  0  0  0  0
 30 29  1  0  0  0  0
 31 32  1  0  0  0  0
 32 33  1  0  0  0  0
 34 31  2  0  0  0  0
 34 30  1  0  0  0  0
M  END
>  <MODEL>
6

>  <REMARK>
 VINA RESULT:      -9.4      2.374      3.300
  Name = 
  6 active torsions:
  status: ('A' for Active; 'I' for Inactive)
    1  A    between atoms: C_1  and  O_19
    2  A    between atoms: C_3  and  C_13
    3  A    between atoms: C_3  and  C_17
    4  A    between atoms: C_12  and  C_28
    5  A    between atoms: C_17  and  C_29
    6  A    between atoms: C_18  and  C_29
                            x       y       z     vdW  Elec       q    Type
                         _______ _______ _______ _____ _____    ______ ____

>  <TORSDO>
F 6

$$$$
=
 OpenBabel10262423433D

 34 38  0  0  1  0  0  0  0  0999 V2000
  183.0330  178.7790  139.8790 C   0  0  2  0  0  3  0  0  0  0  0  0
  181.7340  178.7830  142.0610 C   0  0  1  0  0  3  0  0  0  0  0  0
  184.2600  178.6830  142.1020 C   0  0  1  0  0  3  0  0  0  0  0  0
  186.1610  177.4930  144.1690 C   0  0  0  0  0  2  0  0  0  0  0  0
  180.6140  179.3800  141.4820 O   0  0  0  0  0  1  0  0  0  0  0  0
  182.9780  178.5600  144.2340 C   0  0  0  0  0  2  0  0  0  0  0  0
  183.0270  179.2420  141.3490 C   0  0  1  0  0  3  0  0  0  0  0  0
  185.5050  178.8730  144.3970 C   0  0  1  0  0  3  0  0  0  0  0  0
  185.5980  178.9480  141.3630 C   0  0  1  0  0  3  0  0  0  0  0  0
  184.3560  179.1310  139.2080 C   0  0  0  0  0  2  0  0  0  0  0  0
  181.7480  179.1350  143.5480 C   0  0  0  0  0  2  0  0  0  0  0  0
  186.3790  177.1450  142.8130 O   0  0  0  0  0  0  0  0  0  0  0  0
  186.7870  178.2960  142.1100 C   0  0  1  0  0  3  0  0  0  0  0  0
  184.2240  179.1420  143.5770 C   0  0  1  0  0  3  0  0  0  0  0  0
  185.4930  178.4330  139.9270 C   0  0  0  0  0  2  0  0  0  0  0  0
  189.2520  178.2290  139.2070 C   0  0  0  0  0  0  0  0  0  0  0  0
  190.3710  177.6550  139.8180 C   0  0  0  0  0  3  0  0  0  0  0  0
  188.0260  178.0610  141.2940 C   0  0  0  0  0  0  0  0  0  0  0  0
  190.3190  177.2870  141.1660 C   0  0  0  0  0  3  0  0  0  0  0  0
  188.0820  178.4350  139.9430 C   0  0  0  0  0  3  0  0  0  0  0  0
  189.1490  177.4930  141.9030 C   0  0  0  0  0  3  0  0  0  0  0  0
  189.3030  178.5890  137.9020 F   0  0  0  0  0  0  0  0  0  0  0  0
  182.4990  180.6410  138.8010 C   0  0  0  0  0  1  0  0  0  0  0  0
  181.9970  179.3890  139.1630 O   0  0  0  0  0  0  0  0  0  0  0  0
  185.3600  179.1690  145.8830 C   0  0  0  0  0  2  0  0  0  0  0  0
  186.0050  178.0690  146.7050 C   0  0  0  0  0  2  0  0  0  0  0  0
  187.1140  178.6580  147.5540 C   0  0  0  0  0  2  0  0  0  0  0  0
  189.2590  178.1820  149.3450 O   0  0  0  0  0  0  0  0  0  0  0  0
  188.4220  178.0340  147.1900 C   0  0  0  0  0  0  0  0  0  0  0  0
  189.4360  177.8430  148.1440 C   0  0  0  0  0  0  0  0  0  0  0  0
  190.8610  176.9090  146.4870 C   0  0  0  0  0  3  0  0  0  0  0  0
  189.8810  177.0870  145.5090 C   0  0  0  0  0  2  0  0  0  0  0  0
  188.6570  177.6550  145.8660 C   0  0  0  0  0  3  0  0  0  0  0  0
  190.6200  177.2870  147.7710 N   0  0  0  0  0  0  0  0  0  0  0  0
  1 24  1  6  0  0  0
  1  7  1  0  0  0  0
  2  5  1  6  0  0  0
  2 11  1  0  0  0  0
  3 14  1  0  0  0  0
  4  8  1  0  0  0  0
  7  2  1  0  0  0  0
  7  3  1  0  0  0  0
  8 25  1  0  0  0  0
  9  3  1  0  0  0  0
  9 13  1  0  0  0  0
 10  1  1  0  0  0  0
 10 15  1  0  0  0  0
 11  6  1  0  0  0  0
 12  4  1  0  0  0  0
 13 12  1  0  0  0  0
 14  6  1  0  0  0  0
 14  8  1  0  0  0  0
 15  9  1  0  0  0  0
 16 17  2  0  0  0  0
 16 20  1  0  0  0  0
 17 19  1  0  0  0  0
 18 21  1  0  0  0  0
 18 13  1  0  0  0  0
 19 21  2  0  0  0  0
 20 18  2  0  0  0  0
 22 16  1  0  0  0  0
 23 24  1  0  0  0  0
 25 26  1  0  0  0  0
 26 27  1  0  0  0  0
 29 27  1  0  0  0  0
 29 30  1  0  0  0  0
 30 28  2  0  0  0  0
 31 34  2  0  0  0  0
 32 33  1  0  0  0  0
 32 31  1  0  0  0  0
 33 29  2  0  0  0  0
 34 30  1  0  0  0  0
M  END
>  <MODEL>
7

>  <REMARK>
 VINA RESULT:      -9.3      2.757      7.427
  Name = 
  6 active torsions:
  status: ('A' for Active; 'I' for Inactive)
    1  A    between atoms: C_1  and  O_19
    2  A    between atoms: C_3  and  C_13
    3  A    between atoms: C_3  and  C_17
    4  A    between atoms: C_12  and  C_28
    5  A    between atoms: C_17  and  C_29
    6  A    between atoms: C_18  and  C_29
                            x       y       z     vdW  Elec       q    Type
                         _______ _______ _______ _____ _____    ______ ____

>  <TORSDO>
F 6

$$$$
=
 OpenBabel10262423433D

 34 38  0  0  1  0  0  0  0  0999 V2000
  186.2010  178.1430  143.7670 C   0  0  2  0  0  3  0  0  0  0  0  0
  186.3880  178.7930  141.3180 C   0  0  1  0  0  3  0  0  0  0  0  0
  188.3620  177.7370  142.4920 C   0  0  1  0  0  3  0  0  0  0  0  0
  191.3530  177.9930  141.9560 C   0  0  0  0  0  2  0  0  0  0  0  0
  185.0070  178.7520  141.1240 O   0  0  0  0  0  1  0  0  0  0  0  0
  188.5810  178.4900  140.1280 C   0  0  0  0  0  2  0  0  0  0  0  0
  186.8160  177.7760  142.4010 C   0  0  1  0  0  3  0  0  0  0  0  0
  190.4700  177.0690  141.0900 C   0  0  1  0  0  3  0  0  0  0  0  0
  188.8820  176.8720  143.6700 C   0  0  1  0  0  3  0  0  0  0  0  0
  186.7140  177.2100  144.8570 C   0  0  0  0  0  2  0  0  0  0  0  0
  187.0670  178.5160  139.9780 C   0  0  0  0  0  2  0  0  0  0  0  0
  190.9180  178.1640  143.2940 O   0  0  0  0  0  0  0  0  0  0  0  0
  190.4250  176.9340  143.7710 C   0  0  1  0  0  3  0  0  0  0  0  0
  188.9580  177.3870  141.1110 C   0  0  1  0  0  3  0  0  0  0  0  0
  188.2210  177.3360  144.9690 C   0  0  0  0  0  2  0  0  0  0  0  0
  191.2610  176.9170  147.4880 C   0  0  0  0  0  0  0  0  0  0  0  0
  192.0860  175.7910  147.5720 C   0  0  0  0  0  3  0  0  0  0  0  0
  191.0130  176.5570  145.1010 C   0  0  0  0  0  0  0  0  0  0  0  0
  192.3720  175.0470  146.4230 C   0  0  0  0  0  3  0  0  0  0  0  0
  190.7220  177.2980  146.2560 C   0  0  0  0  0  3  0  0  0  0  0  0
  191.8340  175.4280  145.1900 C   0  0  0  0  0  3  0  0  0  0  0  0
  190.9800  177.6360  148.6010 F   0  0  0  0  0  0  0  0  0  0  0  0
  184.3500  179.1140  144.5030 C   0  0  0  0  0  1  0  0  0  0  0  0
  184.8070  178.0490  143.7230 O   0  0  0  0  0  0  0  0  0  0  0  0
  191.0490  176.9140  139.6900 C   0  0  0  0  0  2  0  0  0  0  0  0
  190.2490  175.8990  138.8980 C   0  0  0  0  0  2  0  0  0  0  0  0
  190.1740  176.3350  137.4480 C   0  0  0  0  0  2  0  0  0  0  0  0
  189.2750  178.8400  136.4740 O   0  0  0  0  0  0  0  0  0  0  0  0
  188.7630  176.6660  137.0860 C   0  0  0  0  0  0  0  0  0  0  0  0
  188.4040  177.9410  136.6180 C   0  0  0  0  0  0  0  0  0  0  0  0
  186.1280  177.2760  136.4580 C   0  0  0  0  0  3  0  0  0  0  0  0
  186.4430  175.9990  136.9260 C   0  0  0  0  0  2  0  0  0  0  0  0
  187.7680  175.6970  137.2430 C   0  0  0  0  0  3  0  0  0  0  0  0
  187.1060  178.2110  136.3150 N   0  0  0  0  0  0  0  0  0  0  0  0
  1 24  1  6  0  0  0
  1 10  1  0  0  0  0
  2  5  1  6  0  0  0
  2  7  1  0  0  0  0
  3  9  1  0  0  0  0
  4 12  1  0  0  0  0
  6 14  1  0  0  0  0
  7  3  1  0  0  0  0
  7  1  1  0  0  0  0
  8 14  1  0  0  0  0
  8  4  1  0  0  0  0
  9 13  1  0  0  0  0
  9 15  1  0  0  0  0
 10 15  1  0  0  0  0
 11  6  1  0  0  0  0
 11  2  1  0  0  0  0
 12 13  1  0  0  0  0
 13 18  1  0  0  0  0
 14  3  1  0  0  0  0
 16 17  1  0  0  0  0
 16 22  1  0  0  0  0
 18 21  2  0  0  0  0
 18 20  1  0  0  0  0
 19 17  2  0  0  0  0
 20 16  2  0  0  0  0
 21 19  1  0  0  0  0
 24 23  1  0  0  0  0
 25  8  1  0  0  0  0
 26 25  1  0  0  0  0
 27 26  1  0  0  0  0
 28 30  2  0  0  0  0
 29 33  2  0  0  0  0
 29 27  1  0  0  0  0
 30 29  1  0  0  0  0
 31 32  1  0  0  0  0
 32 33  1  0  0  0  0
 34 31  2  0  0  0  0
 34 30  1  0  0  0  0
M  END
>  <MODEL>
8

>  <REMARK>
 VINA RESULT:      -9.3      2.715      5.845
  Name = 
  6 active torsions:
  status: ('A' for Active; 'I' for Inactive)
    1  A    between atoms: C_1  and  O_19
    2  A    between atoms: C_3  and  C_13
    3  A    between atoms: C_3  and  C_17
    4  A    between atoms: C_12  and  C_28
    5  A    between atoms: C_17  and  C_29
    6  A    between atoms: C_18  and  C_29
                            x       y       z     vdW  Elec       q    Type
                         _______ _______ _______ _____ _____    ______ ____

>  <TORSDO>
F 6

$$$$
=
 OpenBabel10262423433D

 34 38  0  0  1  0  0  0  0  0999 V2000
  191.2540  176.9170  140.1050 C   0  0  2  0  0  3  0  0  0  0  0  0
  189.1820  177.3430  138.7010 C   0  0  1  0  0  3  0  0  0  0  0  0
  189.0830  177.6400  141.2090 C   0  0  1  0  0  3  0  0  0  0  0  0
  186.7380  177.3840  143.1420 C   0  0  0  0  0  2  0  0  0  0  0  0
  189.9220  177.5760  137.5420 O   0  0  0  0  0  1  0  0  0  0  0  0
  187.0220  177.9350  139.8420 C   0  0  0  0  0  2  0  0  0  0  0  0
  189.9800  177.7710  139.9530 C   0  0  1  0  0  3  0  0  0  0  0  0
  186.9250  178.6570  142.2870 C   0  0  1  0  0  3  0  0  0  0  0  0
  189.8500  177.8820  142.5350 C   0  0  1  0  0  3  0  0  0  0  0  0
  191.9820  177.2580  141.4000 C   0  0  0  0  0  2  0  0  0  0  0  0
  187.8600  178.1010  138.5830 C   0  0  0  0  0  2  0  0  0  0  0  0
  187.9330  176.7040  143.4810 O   0  0  0  0  0  0  0  0  0  0  0  0
  188.9320  177.6550  143.7610 C   0  0  1  0  0  3  0  0  0  0  0  0
  187.8040  178.4870  141.0280 C   0  0  1  0  0  3  0  0  0  0  0  0
  191.0780  176.9720  142.5830 C   0  0  0  0  0  2  0  0  0  0  0  0
  189.6650  177.3870  147.4900 C   0  0  0  0  0  0  0  0  0  0  0  0
  190.9470  176.8290  147.4720 C   0  0  0  0  0  3  0  0  0  0  0  0
  189.6310  177.3880  145.0640 C   0  0  0  0  0  0  0  0  0  0  0  0
  191.5700  176.5480  146.2520 C   0  0  0  0  0  3  0  0  0  0  0  0
  189.0060  177.6640  146.2890 C   0  0  0  0  0  3  0  0  0  0  0  0
  190.9110  176.8250  145.0500 C   0  0  0  0  0  3  0  0  0  0  0  0
  189.0590  177.6570  148.6710 F   0  0  0  0  0  0  0  0  0  0  0  0
  193.3860  177.2880  139.6230 C   0  0  0  0  0  1  0  0  0  0  0  0
  192.1280  177.1350  139.0350 O   0  0  0  0  0  0  0  0  0  0  0  0
  185.5890  179.3370  142.0200 C   0  0  0  0  0  2  0  0  0  0  0  0
  184.4450  178.4010  142.3570 C   0  0  0  0  0  2  0  0  0  0  0  0
  183.2210  178.7890  141.5500 C   0  0  0  0  0  2  0  0  0  0  0  0
  184.0150  180.1930  139.2190 O   0  0  0  0  0  0  0  0  0  0  0  0
  183.3090  178.2060  140.1770 C   0  0  0  0  0  0  0  0  0  0  0  0
  183.7050  178.9810  139.0740 C   0  0  0  0  0  0  0  0  0  0  0  0
  183.4260  177.1160  137.6260 C   0  0  0  0  0  3  0  0  0  0  0  0
  183.0220  176.3150  138.6960 C   0  0  0  0  0  2  0  0  0  0  0  0
  182.9630  176.8670  139.9760 C   0  0  0  0  0  3  0  0  0  0  0  0
  183.7550  178.4200  137.8360 N   0  0  0  0  0  0  0  0  0  0  0  0
  1 24  1  6  0  0  0
  1 10  1  0  0  0  0
  2  5  1  6  0  0  0
  2  7  1  0  0  0  0
  3  9  1  0  0  0  0
  4 12  1  0  0  0  0
  6 14  1  0  0  0  0
  7  1  1  0  0  0  0
  7  3  1  0  0  0  0
  8  4  1  0  0  0  0
  9 15  1  0  0  0  0
  9 13  1  0  0  0  0
 10 15  1  0  0  0  0
 11  2  1  0  0  0  0
 11  6  1  0  0  0  0
 12 13  1  0  0  0  0
 13 18  1  0  0  0  0
 14  3  1  0  0  0  0
 14  8  1  0  0  0  0
 16 22  1  0  0  0  0
 17 16  1  0  0  0  0
 18 20  1  0  0  0  0
 19 17  2  0  0  0  0
 20 16  2  0  0  0  0
 21 18  2  0  0  0  0
 21 19  1  0  0  0  0
 24 23  1  0  0  0  0
 25  8  1  0  0  0  0
 25 26  1  0  0  0  0
 27 26  1  0  0  0  0
 29 27  1  0  0  0  0
 30 28  2  0  0  0  0
 30 29  1  0  0  0  0
 31 34  2  0  0  0  0
 31 32  1  0  0  0  0
 32 33  1  0  0  0  0
 33 29  2  0  0  0  0
 34 30  1  0  0  0  0
M  END
>  <MODEL>
9

>  <REMARK>
 VINA RESULT:      -9.2      2.338      5.211
  Name = 
  6 active torsions:
  status: ('A' for Active; 'I' for Inactive)
    1  A    between atoms: C_1  and  O_19
    2  A    between atoms: C_3  and  C_13
    3  A    between atoms: C_3  and  C_17
    4  A    between atoms: C_12  and  C_28
    5  A    between atoms: C_17  and  C_29
    6  A    between atoms: C_18  and  C_29
                            x       y       z     vdW  Elec       q    Type
                         _______ _______ _______ _____ _____    ______ ____

>  <TORSDO>
F 6

$$$$
