=
 OpenBabel10272414013D

 30 32  0  0  1  0  0  0  0  0999 V2000
  187.3200  177.8810  144.1190 C   0  0  2  0  0  3  0  0  0  0  0  0
  185.8050  177.9140  144.3060 C   0  0  2  0  0  3  0  0  0  0  0  0
  185.2340  178.8710  143.3470 N   0  0  0  0  0  0  0  0  0  0  0  0
  185.3540  179.2220  144.7670 C   0  0  0  0  0  2  0  0  0  0  0  0
  183.8600  178.4540  143.1140 C   0  0  0  0  0  2  0  0  0  0  0  0
  185.2470  179.4830  140.0520 O   0  0  0  0  0  0  0  0  0  0  0  0
  183.4520  178.8050  141.7200 C   0  0  0  0  0  0  0  0  0  0  0  0
  184.3720  179.1520  140.8660 C   0  0  0  0  0  0  0  0  0  0  0  0
  182.0910  178.7130  141.2890 N   0  0  0  0  0  2  0  0  0  0  0  0
  180.9900  179.2790  142.0470 C   0  0  0  0  0  2  0  0  0  0  0  0
  180.0970  178.1690  142.5640 C   0  0  0  0  0  2  0  0  0  0  0  0
  179.9830  178.2950  144.0690 C   0  0  0  0  0  1  0  0  0  0  0  0
  188.2490  175.8120  143.2320 O   0  0  0  0  0  1  0  0  0  0  0  0
  187.6620  177.0360  142.8800 C   0  0  2  0  0  3  0  0  0  0  0  0
  190.4030  176.2680  141.6510 O   0  0  0  0  0  0  0  0  0  0  0  0
  190.1910  177.0970  139.4310 C   0  0  0  0  0  2  0  0  0  0  0  0
  188.2110  179.1470  141.9300 O   0  0  0  0  0  1  0  0  0  0  0  0
  188.9900  179.1670  139.2660 O   0  0  0  0  0  1  0  0  0  0  0  0
  190.8510  177.3070  140.8020 C   0  0  1  0  0  3  0  0  0  0  0  0
  188.8430  177.7750  139.2860 C   0  0  2  0  0  3  0  0  0  0  0  0
  189.9920  177.5660  142.0050 C   0  0  1  0  0  3  0  0  0  0  0  0
  188.4680  177.7790  141.8000 C   0  0  1  0  0  0  0  0  0  0  0  0
  187.9410  177.3360  140.4300 C   0  0  0  0  0  2  0  0  0  0  0  0
  187.3090  177.3920  146.6640 C   0  0  0  0  0  1  0  0  0  0  0  0
  188.1080  177.4350  145.3690 C   0  0  2  0  0  3  0  0  0  0  0  0
  189.4450  178.1530  145.5330 C   0  0  0  0  0  2  0  0  0  0  0  0
  190.6010  177.2080  145.6240 C   0  0  0  0  0  3  0  0  0  0  0  0
  190.8770  176.5960  146.7750 C   0  0  0  0  0  3  0  0  0  0  0  0
  192.0080  175.6230  146.8770 C   0  0  0  0  0  2  0  0  0  0  0  0
  192.7070  175.7770  148.2130 C   0  0  0  0  0  1  0  0  0  0  0  0
  1 14  1  6  0  0  0
  1 25  1  0  0  0  0
  2  1  1  6  0  0  0
  2  4  1  0  0  0  0
  3  2  1  0  0  0  0
  3  4  1  0  0  0  0
  5  3  1  0  0  0  0
  6  8  2  0  0  0  0
  7  5  1  0  0  0  0
  8  7  2  0  0  0  0
  9  7  1  0  0  0  0
  9 10  1  0  0  0  0
 10 11  1  0  0  0  0
 11 12  1  0  0  0  0
 14 13  1  1  0  0  0
 19 16  1  6  0  0  0
 19 15  1  0  0  0  0
 19 21  1  0  0  0  0
 20 18  1  1  0  0  0
 20 16  1  0  0  0  0
 20 23  1  0  0  0  0
 21 15  1  1  0  0  0
 22 17  1  1  0  0  0
 22 21  1  0  0  0  0
 22 14  1  0  0  0  0
 23 22  1  0  0  0  0
 25 26  1  0  0  0  0
 25 24  1  1  0  0  0
 26 27  1  0  0  0  0
 27 28  2  0  0  0  0
 28 29  1  0  0  0  0
 29 30  1  0  0  0  0
M  END
>  <MODEL>
1

>  <REMARK>
 VINA RESULT:      -7.3      0.000      0.000
  Name = 
  12 active torsions:
  status: ('A' for Active; 'I' for Inactive)
    1  A    between atoms: C_4  and  C_19
    2  A    between atoms: N_6  and  CA_8
    3  A    between atoms: N_6  and  C_21
    4  A    between atoms: C_7  and  C_26
    5  A    between atoms: CA_8  and  C_30
    6  A    between atoms: C_9  and  C_21
    7  A    between atoms: C_10  and  C_15
    8  A    between atoms: C_10  and  C_25
    9  A    between atoms: N_13  and  C_30
   10  A    between atoms: C_19  and  C_24
   11  A    between atoms: C_19  and  C_25
   12  A    between atoms: C_24  and  C_28
                            x       y       z     vdW  Elec       q    Type
                         _______ _______ _______ _____ _____    ______ ____

>  <TORSDO>
F 12

$$$$
=
 OpenBabel10272414013D

 30 32  0  0  1  0  0  0  0  0999 V2000
  187.4330  177.8540  143.9410 C   0  0  2  0  0  3  0  0  0  0  0  0
  185.9170  177.8660  144.1200 C   0  0  2  0  0  3  0  0  0  0  0  0
  185.3410  178.8540  143.1960 N   0  0  0  0  0  0  0  0  0  0  0  0
  185.4500  179.1500  144.6290 C   0  0  0  0  0  2  0  0  0  0  0  0
  183.9730  178.4340  142.9380 C   0  0  0  0  0  2  0  0  0  0  0  0
  181.2360  178.3770  140.7330 O   0  0  0  0  0  0  0  0  0  0  0  0
  183.6510  178.6120  141.4900 C   0  0  0  0  0  0  0  0  0  0  0  0
  182.4130  178.4910  141.1030 C   0  0  0  0  0  0  0  0  0  0  0  0
  184.6560  178.9640  140.5350 N   0  0  0  0  0  2  0  0  0  0  0  0
  184.3470  179.2830  139.1530 C   0  0  0  0  0  2  0  0  0  0  0  0
  185.0140  178.2810  138.2320 C   0  0  0  0  0  2  0  0  0  0  0  0
  184.0580  177.1320  137.9860 C   0  0  0  0  0  1  0  0  0  0  0  0
  188.4040  175.7920  143.0830 O   0  0  0  0  0  1  0  0  0  0  0  0
  187.7950  177.0000  142.7140 C   0  0  2  0  0  3  0  0  0  0  0  0
  190.4470  176.1590  141.3480 O   0  0  0  0  0  0  0  0  0  0  0  0
  190.1820  177.0720  139.1660 C   0  0  0  0  0  2  0  0  0  0  0  0
  188.3970  179.1170  141.8110 O   0  0  0  0  0  1  0  0  0  0  0  0
  189.0670  179.1960  139.1190 O   0  0  0  0  0  1  0  0  0  0  0  0
  190.9050  177.2060  140.5150 C   0  0  1  0  0  3  0  0  0  0  0  0
  188.8610  177.8110  139.1000 C   0  0  2  0  0  3  0  0  0  0  0  0
  190.1080  177.4600  141.7610 C   0  0  1  0  0  3  0  0  0  0  0  0
  188.5880  177.7440  141.6260 C   0  0  1  0  0  0  0  0  0  0  0  0
  187.9870  177.3710  140.2650 C   0  0  0  0  0  2  0  0  0  0  0  0
  187.4460  177.5000  146.5090 C   0  0  0  0  0  1  0  0  0  0  0  0
  188.2220  177.4350  145.2000 C   0  0  2  0  0  3  0  0  0  0  0  0
  189.5950  178.0930  145.3040 C   0  0  0  0  0  2  0  0  0  0  0  0
  190.7030  177.0970  145.4420 C   0  0  0  0  0  3  0  0  0  0  0  0
  191.1260  176.7300  146.6500 C   0  0  0  0  0  3  0  0  0  0  0  0
  192.2110  175.7120  146.8090 C   0  0  0  0  0  2  0  0  0  0  0  0
  192.7300  175.7220  148.2330 C   0  0  0  0  0  1  0  0  0  0  0  0
  1 14  1  6  0  0  0
  1 25  1  0  0  0  0
  2  1  1  6  0  0  0
  2  4  1  0  0  0  0
  3  2  1  0  0  0  0
  3  4  1  0  0  0  0
  5  3  1  0  0  0  0
  6  8  2  0  0  0  0
  7  5  1  0  0  0  0
  8  7  2  0  0  0  0
  9  7  1  0  0  0  0
 10  9  1  0  0  0  0
 11 10  1  0  0  0  0
 12 11  1  0  0  0  0
 14 13  1  1  0  0  0
 19 16  1  6  0  0  0
 19 15  1  0  0  0  0
 19 21  1  0  0  0  0
 20 18  1  1  0  0  0
 20 16  1  0  0  0  0
 20 23  1  0  0  0  0
 21 15  1  1  0  0  0
 22 21  1  0  0  0  0
 22 17  1  1  0  0  0
 22 14  1  0  0  0  0
 23 22  1  0  0  0  0
 25 26  1  0  0  0  0
 25 24  1  1  0  0  0
 26 27  1  0  0  0  0
 27 28  2  0  0  0  0
 28 29  1  0  0  0  0
 29 30  1  0  0  0  0
M  END
>  <MODEL>
2

>  <REMARK>
 VINA RESULT:      -7.2      1.309      2.223
  Name = 
  12 active torsions:
  status: ('A' for Active; 'I' for Inactive)
    1  A    between atoms: C_4  and  C_19
    2  A    between atoms: N_6  and  CA_8
    3  A    between atoms: N_6  and  C_21
    4  A    between atoms: C_7  and  C_26
    5  A    between atoms: CA_8  and  C_30
    6  A    between atoms: C_9  and  C_21
    7  A    between atoms: C_10  and  C_15
    8  A    between atoms: C_10  and  C_25
    9  A    between atoms: N_13  and  C_30
   10  A    between atoms: C_19  and  C_24
   11  A    between atoms: C_19  and  C_25
   12  A    between atoms: C_24  and  C_28
                            x       y       z     vdW  Elec       q    Type
                         _______ _______ _______ _____ _____    ______ ____

>  <TORSDO>
F 12

$$$$
=
 OpenBabel10272414013D

 30 32  0  0  1  0  0  0  0  0999 V2000
  189.0250  177.0150  141.6960 C   0  0  2  0  0  3  0  0  0  0  0  0
  190.2900  176.4020  142.2920 C   0  0  2  0  0  3  0  0  0  0  0  0
  190.6880  177.1910  143.4660 N   0  0  0  0  0  0  0  0  0  0  0  0
  191.4200  177.3190  142.2010 C   0  0  0  0  0  2  0  0  0  0  0  0
  191.4510  176.3010  144.3260 C   0  0  0  0  0  2  0  0  0  0  0  0
  192.7660  175.8780  147.5580 O   0  0  0  0  0  0  0  0  0  0  0  0
  191.1080  176.5590  145.7570 C   0  0  0  0  0  0  0  0  0  0  0  0
  191.9580  176.2090  146.6800 C   0  0  0  0  0  0  0  0  0  0  0  0
  189.8990  177.2270  146.1310 N   0  0  0  0  0  2  0  0  0  0  0  0
  189.1500  176.8820  147.3260 C   0  0  0  0  0  2  0  0  0  0  0  0
  188.2540  178.0390  147.7230 C   0  0  0  0  0  2  0  0  0  0  0  0
  187.0320  178.0370  146.8280 C   0  0  0  0  0  1  0  0  0  0  0  0
  188.7860  179.3870  141.1960 O   0  0  0  0  0  1  0  0  0  0  0  0
  189.4100  178.1990  140.7920 C   0  0  2  0  0  3  0  0  0  0  0  0
  190.6400  175.9230  139.0820 O   0  0  0  0  0  0  0  0  0  0  0  0
  188.9480  175.5730  137.4470 C   0  0  0  0  0  2  0  0  0  0  0  0
  189.0720  179.1670  138.6450 O   0  0  0  0  0  1  0  0  0  0  0  0
  187.8500  177.5800  136.7230 O   0  0  0  0  0  1  0  0  0  0  0  0
  190.3480  176.1450  137.7160 C   0  0  1  0  0  3  0  0  0  0  0  0
  187.8230  176.5620  137.6830 C   0  0  2  0  0  3  0  0  0  0  0  0
  190.5130  177.2700  138.6950 C   0  0  1  0  0  3  0  0  0  0  0  0
  189.2410  177.9350  139.2850 C   0  0  1  0  0  0  0  0  0  0  0  0
  187.9500  177.1300  139.0890 C   0  0  0  0  0  2  0  0  0  0  0  0
  187.5750  176.3000  143.7220 C   0  0  0  0  0  1  0  0  0  0  0  0
  187.9500  177.3980  142.7350 C   0  0  2  0  0  3  0  0  0  0  0  0
  186.7250  178.0730  142.1220 C   0  0  0  0  0  2  0  0  0  0  0  0
  185.5750  178.1560  143.0760 C   0  0  0  0  0  3  0  0  0  0  0  0
  184.4850  178.8480  142.7490 C   0  0  0  0  0  3  0  0  0  0  0  0
  183.3110  178.9170  143.6750 C   0  0  0  0  0  2  0  0  0  0  0  0
  183.7850  178.9380  145.1140 C   0  0  0  0  0  1  0  0  0  0  0  0
  1 14  1  1  0  0  0
  1 25  1  0  0  0  0
  2  1  1  6  0  0  0
  2  3  1  0  0  0  0
  3  5  1  0  0  0  0
  4  2  1  0  0  0  0
  4  3  1  0  0  0  0
  5  7  1  0  0  0  0
  7  9  1  0  0  0  0
  7  8  2  0  0  0  0
  8  6  2  0  0  0  0
  9 10  1  0  0  0  0
 10 11  1  0  0  0  0
 12 11  1  0  0  0  0
 14 13  1  1  0  0  0
 16 20  1  0  0  0  0
 19 16  1  1  0  0  0
 19 21  1  0  0  0  0
 19 15  1  0  0  0  0
 20 18  1  6  0  0  0
 20 23  1  0  0  0  0
 21 15  1  1  0  0  0
 21 22  1  0  0  0  0
 22 17  1  6  0  0  0
 22 14  1  0  0  0  0
 23 22  1  0  0  0  0
 25 24  1  6  0  0  0
 26 25  1  0  0  0  0
 26 27  1  0  0  0  0
 28 27  2  0  0  0  0
 28 29  1  0  0  0  0
 29 30  1  0  0  0  0
M  END
>  <MODEL>
3

>  <REMARK>
 VINA RESULT:      -6.5      2.704      6.449
  Name = 
  12 active torsions:
  status: ('A' for Active; 'I' for Inactive)
    1  A    between atoms: C_4  and  C_19
    2  A    between atoms: N_6  and  CA_8
    3  A    between atoms: N_6  and  C_21
    4  A    between atoms: C_7  and  C_26
    5  A    between atoms: CA_8  and  C_30
    6  A    between atoms: C_9  and  C_21
    7  A    between atoms: C_10  and  C_15
    8  A    between atoms: C_10  and  C_25
    9  A    between atoms: N_13  and  C_30
   10  A    between atoms: C_19  and  C_24
   11  A    between atoms: C_19  and  C_25
   12  A    between atoms: C_24  and  C_28
                            x       y       z     vdW  Elec       q    Type
                         _______ _______ _______ _____ _____    ______ ____

>  <TORSDO>
F 12

$$$$
=
 OpenBabel10272414013D

 30 32  0  0  1  0  0  0  0  0999 V2000
  188.0870  177.9830  142.6550 C   0  0  2  0  0  3  0  0  0  0  0  0
  186.6520  177.5620  142.9590 C   0  0  2  0  0  3  0  0  0  0  0  0
  185.7380  178.5790  142.4190 N   0  0  0  0  0  0  0  0  0  0  0  0
  186.0000  178.5040  143.8610 C   0  0  0  0  0  2  0  0  0  0  0  0
  184.4720  177.9090  142.1690 C   0  0  0  0  0  2  0  0  0  0  0  0
  185.0280  179.6690  139.1770 O   0  0  0  0  0  0  0  0  0  0  0  0
  183.7230  178.6250  141.0920 C   0  0  0  0  0  0  0  0  0  0  0  0
  184.3920  179.1600  140.1110 C   0  0  0  0  0  0  0  0  0  0  0  0
  182.2940  178.6890  141.0860 N   0  0  0  0  0  2  0  0  0  0  0  0
  181.4960  178.2790  139.9440 C   0  0  0  0  0  2  0  0  0  0  0  0
  180.9110  176.9020  140.1930 C   0  0  0  0  0  2  0  0  0  0  0  0
  181.6030  175.9070  139.2860 C   0  0  0  0  0  1  0  0  0  0  0  0
  189.7160  176.2640  142.0880 O   0  0  0  0  0  1  0  0  0  0  0  0
  188.6740  177.0520  141.5810 C   0  0  2  0  0  3  0  0  0  0  0  0
  190.5230  176.0200  139.3160 O   0  0  0  0  0  0  0  0  0  0  0  0
  189.5370  177.0140  137.3920 C   0  0  0  0  0  2  0  0  0  0  0  0
  189.0830  179.1330  140.5010 O   0  0  0  0  0  1  0  0  0  0  0  0
  188.6880  179.2280  137.7550 O   0  0  0  0  0  1  0  0  0  0  0  0
  190.7260  177.0460  138.3640 C   0  0  1  0  0  3  0  0  0  0  0  0
  188.3630  177.8690  137.8260 C   0  0  2  0  0  3  0  0  0  0  0  0
  190.4870  177.3340  139.8170 C   0  0  1  0  0  3  0  0  0  0  0  0
  189.0620  177.7550  140.2670 C   0  0  1  0  0  0  0  0  0  0  0  0
  187.9590  177.4750  139.2390 C   0  0  0  0  0  2  0  0  0  0  0  0
  190.4020  178.6170  143.6330 C   0  0  0  0  0  1  0  0  0  0  0  0
  188.9980  178.0910  143.8970 C   0  0  2  0  0  3  0  0  0  0  0  0
  189.0010  176.8320  144.7600 C   0  0  0  0  0  2  0  0  0  0  0  0
  189.0090  177.1360  146.2250 C   0  0  0  0  0  3  0  0  0  0  0  0
  187.8850  177.5050  146.8380 C   0  0  0  0  0  3  0  0  0  0  0  0
  187.8650  177.7820  148.3080 C   0  0  0  0  0  2  0  0  0  0  0  0
  189.1940  178.3650  148.7440 C   0  0  0  0  0  1  0  0  0  0  0  0
  1 14  1  6  0  0  0
  1 25  1  0  0  0  0
  2  1  1  6  0  0  0
  2  4  1  0  0  0  0
  3  2  1  0  0  0  0
  3  4  1  0  0  0  0
  5  3  1  0  0  0  0
  6  8  2  0  0  0  0
  7  5  1  0  0  0  0
  8  7  2  0  0  0  0
  9  7  1  0  0  0  0
 10 11  1  0  0  0  0
 10  9  1  0  0  0  0
 12 11  1  0  0  0  0
 14 13  1  1  0  0  0
 16 20  1  0  0  0  0
 19 16  1  6  0  0  0
 19 15  1  0  0  0  0
 19 21  1  0  0  0  0
 20 18  1  1  0  0  0
 20 23  1  0  0  0  0
 21 15  1  1  0  0  0
 21 22  1  0  0  0  0
 22 17  1  1  0  0  0
 22 14  1  0  0  0  0
 23 22  1  0  0  0  0
 25 24  1  6  0  0  0
 25 26  1  0  0  0  0
 26 27  1  0  0  0  0
 27 28  2  0  0  0  0
 28 29  1  0  0  0  0
 29 30  1  0  0  0  0
M  END
>  <MODEL>
4

>  <REMARK>
 VINA RESULT:      -6.4      1.810      2.436
  Name = 
  12 active torsions:
  status: ('A' for Active; 'I' for Inactive)
    1  A    between atoms: C_4  and  C_19
    2  A    between atoms: N_6  and  CA_8
    3  A    between atoms: N_6  and  C_21
    4  A    between atoms: C_7  and  C_26
    5  A    between atoms: CA_8  and  C_30
    6  A    between atoms: C_9  and  C_21
    7  A    between atoms: C_10  and  C_15
    8  A    between atoms: C_10  and  C_25
    9  A    between atoms: N_13  and  C_30
   10  A    between atoms: C_19  and  C_24
   11  A    between atoms: C_19  and  C_25
   12  A    between atoms: C_24  and  C_28
                            x       y       z     vdW  Elec       q    Type
                         _______ _______ _______ _____ _____    ______ ____

>  <TORSDO>
F 12

$$$$
=
 OpenBabel10272414013D

 30 32  0  0  1  0  0  0  0  0999 V2000
  188.3750  177.9500  142.6400 C   0  0  2  0  0  3  0  0  0  0  0  0
  186.9490  177.5140  142.9710 C   0  0  2  0  0  3  0  0  0  0  0  0
  186.0250  178.5830  142.5670 N   0  0  0  0  0  0  0  0  0  0  0  0
  186.3500  178.3760  143.9830 C   0  0  0  0  0  2  0  0  0  0  0  0
  184.7400  177.9490  142.3160 C   0  0  0  0  0  2  0  0  0  0  0  0
  181.4620  178.7060  141.3000 O   0  0  0  0  0  0  0  0  0  0  0  0
  184.0030  178.6970  141.2540 C   0  0  0  0  0  0  0  0  0  0  0  0
  182.7010  178.7010  141.2780 C   0  0  0  0  0  0  0  0  0  0  0  0
  184.6910  179.4490  140.2500 N   0  0  0  0  0  2  0  0  0  0  0  0
  184.3410  179.3810  138.8420 C   0  0  0  0  0  2  0  0  0  0  0  0
  184.5980  177.9830  138.3150 C   0  0  0  0  0  2  0  0  0  0  0  0
  183.4670  177.5980  137.3840 C   0  0  0  0  0  1  0  0  0  0  0  0
  190.0760  176.3090  142.0550 O   0  0  0  0  0  1  0  0  0  0  0  0
  188.9610  177.0080  141.5740 C   0  0  2  0  0  3  0  0  0  0  0  0
  190.6450  175.9290  139.2060 O   0  0  0  0  0  0  0  0  0  0  0  0
  189.4940  176.8410  137.3340 C   0  0  0  0  0  2  0  0  0  0  0  0
  189.2440  179.0570  140.3990 O   0  0  0  0  0  1  0  0  0  0  0  0
  188.6350  179.0530  137.6900 O   0  0  0  0  0  1  0  0  0  0  0  0
  190.7550  176.9250  138.2080 C   0  0  1  0  0  3  0  0  0  0  0  0
  188.3420  177.6910  137.8310 C   0  0  2  0  0  3  0  0  0  0  0  0
  190.6240  177.2590  139.6650 C   0  0  1  0  0  3  0  0  0  0  0  0
  189.2310  177.6710  140.2120 C   0  0  1  0  0  0  0  0  0  0  0  0
  188.0570  177.3390  139.2840 C   0  0  0  0  0  2  0  0  0  0  0  0
  190.6470  178.7510  143.5970 C   0  0  0  0  0  1  0  0  0  0  0  0
  189.3000  178.0930  143.8680 C   0  0  2  0  0  3  0  0  0  0  0  0
  189.4330  176.8080  144.6810 C   0  0  0  0  0  2  0  0  0  0  0  0
  189.3520  177.0490  146.1560 C   0  0  0  0  0  3  0  0  0  0  0  0
  188.1700  177.2470  146.7370 C   0  0  0  0  0  3  0  0  0  0  0  0
  188.0640  177.4580  148.2150 C   0  0  0  0  0  2  0  0  0  0  0  0
  189.1640  178.3860  148.6880 C   0  0  0  0  0  1  0  0  0  0  0  0
  1 14  1  6  0  0  0
  1 25  1  0  0  0  0
  2  1  1  6  0  0  0
  2  4  1  0  0  0  0
  3  2  1  0  0  0  0
  3  4  1  0  0  0  0
  5  3  1  0  0  0  0
  7  8  2  0  0  0  0
  7  5  1  0  0  0  0
  8  6  2  0  0  0  0
  9  7  1  0  0  0  0
 10  9  1  0  0  0  0
 11 10  1  0  0  0  0
 12 11  1  0  0  0  0
 14 13  1  1  0  0  0
 16 20  1  0  0  0  0
 19 16  1  6  0  0  0
 19 15  1  0  0  0  0
 19 21  1  0  0  0  0
 20 18  1  1  0  0  0
 20 23  1  0  0  0  0
 21 15  1  1  0  0  0
 21 22  1  0  0  0  0
 22 17  1  1  0  0  0
 22 14  1  0  0  0  0
 23 22  1  0  0  0  0
 25 24  1  6  0  0  0
 25 26  1  0  0  0  0
 26 27  1  0  0  0  0
 27 28  2  0  0  0  0
 28 29  1  0  0  0  0
 29 30  1  0  0  0  0
M  END
>  <MODEL>
5

>  <REMARK>
 VINA RESULT:      -6.4      1.944      3.064
  Name = 
  12 active torsions:
  status: ('A' for Active; 'I' for Inactive)
    1  A    between atoms: C_4  and  C_19
    2  A    between atoms: N_6  and  CA_8
    3  A    between atoms: N_6  and  C_21
    4  A    between atoms: C_7  and  C_26
    5  A    between atoms: CA_8  and  C_30
    6  A    between atoms: C_9  and  C_21
    7  A    between atoms: C_10  and  C_15
    8  A    between atoms: C_10  and  C_25
    9  A    between atoms: N_13  and  C_30
   10  A    between atoms: C_19  and  C_24
   11  A    between atoms: C_19  and  C_25
   12  A    between atoms: C_24  and  C_28
                            x       y       z     vdW  Elec       q    Type
                         _______ _______ _______ _____ _____    ______ ____

>  <TORSDO>
F 12

$$$$
=
 OpenBabel10272414013D

 30 32  0  0  1  0  0  0  0  0999 V2000
  189.7020  177.6860  141.5590 C   0  0  2  0  0  3  0  0  0  0  0  0
  188.3690  177.1380  142.0630 C   0  0  2  0  0  3  0  0  0  0  0  0
  187.3640  178.2080  141.9940 N   0  0  0  0  0  0  0  0  0  0  0  0
  187.9440  177.8130  143.2830 C   0  0  0  0  0  2  0  0  0  0  0  0
  186.0700  177.5560  141.8780 C   0  0  0  0  0  2  0  0  0  0  0  0
  184.6330  179.8670  139.6530 O   0  0  0  0  0  0  0  0  0  0  0  0
  184.9870  178.5830  141.8180 C   0  0  0  0  0  0  0  0  0  0  0  0
  184.8060  179.2410  140.7080 C   0  0  0  0  0  0  0  0  0  0  0  0
  184.1130  178.8200  142.9260 N   0  0  0  0  0  2  0  0  0  0  0  0
  184.4980  179.6290  144.0680 C   0  0  0  0  0  2  0  0  0  0  0  0
  184.1440  178.9070  145.3530 C   0  0  0  0  0  2  0  0  0  0  0  0
  185.4230  178.4440  146.0200 C   0  0  0  0  0  1  0  0  0  0  0  0
  191.3590  177.0580  139.8870 O   0  0  0  0  0  1  0  0  0  0  0  0
  189.9840  177.1250  140.1540 C   0  0  2  0  0  3  0  0  0  0  0  0
  190.1430  176.5930  137.1040 O   0  0  0  0  0  0  0  0  0  0  0  0
  187.9140  177.0570  136.4120 C   0  0  0  0  0  2  0  0  0  0  0  0
  188.9550  179.1360  139.4050 O   0  0  0  0  0  1  0  0  0  0  0  0
  186.8850  178.8870  137.5730 O   0  0  0  0  0  1  0  0  0  0  0  0
  189.3670  177.5530  136.4130 C   0  0  1  0  0  3  0  0  0  0  0  0
  187.1080  177.5050  137.6150 C   0  0  2  0  0  3  0  0  0  0  0  0
  190.0450  177.8550  137.7170 C   0  0  1  0  0  3  0  0  0  0  0  0
  189.2040  177.8140  139.0210 C   0  0  1  0  0  0  0  0  0  0  0  0
  187.8490  177.1090  138.8840 C   0  0  0  0  0  2  0  0  0  0  0  0
  191.1610  176.0230  142.9100 C   0  0  0  0  0  1  0  0  0  0  0  0
  190.8880  177.4700  142.5240 C   0  0  2  0  0  3  0  0  0  0  0  0
  190.8630  178.4010  143.7340 C   0  0  0  0  0  2  0  0  0  0  0  0
  191.1470  177.6850  145.0170 C   0  0  0  0  0  3  0  0  0  0  0  0
  190.2240  177.6400  145.9760 C   0  0  0  0  0  3  0  0  0  0  0  0
  190.4770  176.9030  147.2530 C   0  0  0  0  0  2  0  0  0  0  0  0
  191.7200  176.0450  147.1210 C   0  0  0  0  0  1  0  0  0  0  0  0
  1 14  1  6  0  0  0
  1 25  1  0  0  0  0
  2  1  1  6  0  0  0
  2  4  1  0  0  0  0
  3  2  1  0  0  0  0
  3  4  1  0  0  0  0
  5  3  1  0  0  0  0
  6  8  2  0  0  0  0
  7  5  1  0  0  0  0
  7  9  1  0  0  0  0
  8  7  2  0  0  0  0
  9 10  1  0  0  0  0
 10 11  1  0  0  0  0
 11 12  1  0  0  0  0
 14 13  1  6  0  0  0
 16 20  1  0  0  0  0
 19 16  1  1  0  0  0
 19 15  1  0  0  0  0
 19 21  1  0  0  0  0
 20 18  1  6  0  0  0
 20 23  1  0  0  0  0
 21 15  1  1  0  0  0
 21 22  1  0  0  0  0
 22 17  1  1  0  0  0
 22 14  1  0  0  0  0
 23 22  1  0  0  0  0
 25 24  1  1  0  0  0
 25 26  1  0  0  0  0
 26 27  1  0  0  0  0
 27 28  2  0  0  0  0
 28 29  1  0  0  0  0
 30 29  1  0  0  0  0
M  END
>  <MODEL>
6

>  <REMARK>
 VINA RESULT:      -6.2      2.112      3.350
  Name = 
  12 active torsions:
  status: ('A' for Active; 'I' for Inactive)
    1  A    between atoms: C_4  and  C_19
    2  A    between atoms: N_6  and  CA_8
    3  A    between atoms: N_6  and  C_21
    4  A    between atoms: C_7  and  C_26
    5  A    between atoms: CA_8  and  C_30
    6  A    between atoms: C_9  and  C_21
    7  A    between atoms: C_10  and  C_15
    8  A    between atoms: C_10  and  C_25
    9  A    between atoms: N_13  and  C_30
   10  A    between atoms: C_19  and  C_24
   11  A    between atoms: C_19  and  C_25
   12  A    between atoms: C_24  and  C_28
                            x       y       z     vdW  Elec       q    Type
                         _______ _______ _______ _____ _____    ______ ____

>  <TORSDO>
F 12

$$$$
=
 OpenBabel10272414013D

 30 32  0  0  1  0  0  0  0  0999 V2000
  188.7040  177.4000  140.2430 C   0  0  2  0  0  3  0  0  0  0  0  0
  189.9400  176.6640  140.7550 C   0  0  2  0  0  3  0  0  0  0  0  0
  190.8160  177.6310  141.4300 N   0  0  0  0  0  0  0  0  0  0  0  0
  191.1510  177.1320  140.0910 C   0  0  0  0  0  2  0  0  0  0  0  0
  191.6070  176.8760  142.3890 C   0  0  0  0  0  2  0  0  0  0  0  0
  191.2300  179.9240  144.0990 O   0  0  0  0  0  0  0  0  0  0  0  0
  191.3810  177.4080  143.7660 C   0  0  0  0  0  0  0  0  0  0  0  0
  191.3030  178.6970  143.9360 C   0  0  0  0  0  0  0  0  0  0  0  0
  191.1920  176.5380  144.8870 N   0  0  0  0  0  2  0  0  0  0  0  0
  190.8400  177.0270  146.2080 C   0  0  0  0  0  2  0  0  0  0  0  0
  189.3320  177.0780  146.3530 C   0  0  0  0  0  2  0  0  0  0  0  0
  188.9930  177.5060  147.7660 C   0  0  0  0  0  1  0  0  0  0  0  0
  188.9820  179.6110  139.2610 O   0  0  0  0  0  1  0  0  0  0  0  0
  189.0840  178.2360  139.0090 C   0  0  2  0  0  3  0  0  0  0  0  0
  190.2370  176.7260  136.5590 O   0  0  0  0  0  0  0  0  0  0  0  0
  188.3400  175.5020  135.8050 C   0  0  0  0  0  2  0  0  0  0  0  0
  187.3800  178.7830  137.4410 O   0  0  0  0  0  1  0  0  0  0  0  0
  186.2630  176.6840  136.0080 O   0  0  0  0  0  1  0  0  0  0  0  0
  189.2720  176.6910  135.5260 C   0  0  1  0  0  3  0  0  0  0  0  0
  187.1530  175.8420  136.6840 C   0  0  2  0  0  3  0  0  0  0  0  0
  189.3510  177.8180  136.5130 C   0  0  1  0  0  3  0  0  0  0  0  0
  188.3640  177.8270  137.7110 C   0  0  1  0  0  0  0  0  0  0  0  0
  187.6550  176.4910  137.9650 C   0  0  0  0  0  2  0  0  0  0  0  0
  187.9580  177.6390  142.7140 C   0  0  0  0  0  1  0  0  0  0  0  0
  187.9680  178.2350  141.3130 C   0  0  2  0  0  3  0  0  0  0  0  0
  186.5850  178.7060  140.8700 C   0  0  0  0  0  2  0  0  0  0  0  0
  185.6780  178.9940  142.0250 C   0  0  0  0  0  3  0  0  0  0  0  0
  184.4260  178.5380  142.0210 C   0  0  0  0  0  3  0  0  0  0  0  0
  183.5130  178.7870  143.1800 C   0  0  0  0  0  2  0  0  0  0  0  0
  184.2840  179.4170  144.3230 C   0  0  0  0  0  1  0  0  0  0  0  0
  1 14  1  6  0  0  0
  1 25  1  0  0  0  0
  2  1  1  6  0  0  0
  2  3  1  0  0  0  0
  3  5  1  0  0  0  0
  4  2  1  0  0  0  0
  4  3  1  0  0  0  0
  5  7  1  0  0  0  0
  7  8  2  0  0  0  0
  7  9  1  0  0  0  0
  8  6  2  0  0  0  0
  9 10  1  0  0  0  0
 10 11  1  0  0  0  0
 11 12  1  0  0  0  0
 14 13  1  1  0  0  0
 16 20  1  0  0  0  0
 19 16  1  1  0  0  0
 19 21  1  0  0  0  0
 19 15  1  0  0  0  0
 20 18  1  6  0  0  0
 20 23  1  0  0  0  0
 21 15  1  1  0  0  0
 21 22  1  0  0  0  0
 22 17  1  6  0  0  0
 22 23  1  0  0  0  0
 22 14  1  0  0  0  0
 25 24  1  1  0  0  0
 26 25  1  0  0  0  0
 26 27  1  0  0  0  0
 28 27  2  0  0  0  0
 28 29  1  0  0  0  0
 29 30  1  0  0  0  0
M  END
>  <MODEL>
7

>  <REMARK>
 VINA RESULT:      -6.2      2.905      6.851
  Name = 
  12 active torsions:
  status: ('A' for Active; 'I' for Inactive)
    1  A    between atoms: C_4  and  C_19
    2  A    between atoms: N_6  and  CA_8
    3  A    between atoms: N_6  and  C_21
    4  A    between atoms: C_7  and  C_26
    5  A    between atoms: CA_8  and  C_30
    6  A    between atoms: C_9  and  C_21
    7  A    between atoms: C_10  and  C_15
    8  A    between atoms: C_10  and  C_25
    9  A    between atoms: N_13  and  C_30
   10  A    between atoms: C_19  and  C_24
   11  A    between atoms: C_19  and  C_25
   12  A    between atoms: C_24  and  C_28
                            x       y       z     vdW  Elec       q    Type
                         _______ _______ _______ _____ _____    ______ ____

>  <TORSDO>
F 12

$$$$
=
 OpenBabel10272414013D

 30 32  0  0  1  0  0  0  0  0999 V2000
  188.7490  177.5560  140.2920 C   0  0  2  0  0  3  0  0  0  0  0  0
  187.7230  178.6620  140.5200 C   0  0  2  0  0  3  0  0  0  0  0  0
  186.5580  178.0890  141.2090 N   0  0  0  0  0  0  0  0  0  0  0  0
  186.4930  178.4090  139.7780 C   0  0  0  0  0  2  0  0  0  0  0  0
  185.9230  179.1800  141.9300 C   0  0  0  0  0  2  0  0  0  0  0  0
  182.5240  178.4910  141.3550 O   0  0  0  0  0  0  0  0  0  0  0  0
  184.7080  178.6800  142.6420 C   0  0  0  0  0  0  0  0  0  0  0  0
  183.5890  178.5830  141.9820 C   0  0  0  0  0  0  0  0  0  0  0  0
  184.7590  178.2550  144.0070 N   0  0  0  0  0  2  0  0  0  0  0  0
  185.1900  179.1270  145.0840 C   0  0  0  0  0  2  0  0  0  0  0  0
  185.0880  178.3980  146.4090 C   0  0  0  0  0  2  0  0  0  0  0  0
  186.2760  178.7780  147.2690 C   0  0  0  0  0  1  0  0  0  0  0  0
  191.1340  177.3040  140.7210 O   0  0  0  0  0  1  0  0  0  0  0  0
  189.9200  177.7380  141.2730 C   0  0  2  0  0  3  0  0  0  0  0  0
  191.9830  177.2180  143.5280 O   0  0  0  0  0  0  0  0  0  0  0  0
  190.6740  177.5840  145.4800 C   0  0  0  0  0  2  0  0  0  0  0  0
  188.6120  176.2510  142.5930 O   0  0  0  0  0  1  0  0  0  0  0  0
  188.4070  176.8180  145.3020 O   0  0  0  0  0  1  0  0  0  0  0  0
  191.3580  176.5320  144.5950 C   0  0  1  0  0  3  0  0  0  0  0  0
  189.2520  177.9090  145.0660 C   0  0  2  0  0  3  0  0  0  0  0  0
  190.9210  176.3670  143.1690 C   0  0  1  0  0  3  0  0  0  0  0  0
  189.6770  177.1540  142.6760 C   0  0  1  0  0  0  0  0  0  0  0  0
  189.2420  178.3010  143.5960 C   0  0  0  0  0  2  0  0  0  0  0  0
  189.1920  178.6990  138.0080 C   0  0  0  0  0  1  0  0  0  0  0  0
  189.2270  177.4180  138.8300 C   0  0  2  0  0  3  0  0  0  0  0  0
  188.5970  176.2370  138.0940 C   0  0  0  0  0  2  0  0  0  0  0  0
  189.6130  175.3690  137.4220 C   0  0  0  0  0  3  0  0  0  0  0  0
  190.8470  175.2780  137.9160 C   0  0  0  0  0  3  0  0  0  0  0  0
  191.8680  174.3900  137.2770 C   0  0  0  0  0  2  0  0  0  0  0  0
  191.2720  173.6980  136.0690 C   0  0  0  0  0  1  0  0  0  0  0  0
  1 25  1  6  0  0  0
  1 14  1  0  0  0  0
  2  1  1  6  0  0  0
  2  3  1  0  0  0  0
  3  5  1  0  0  0  0
  4  2  1  0  0  0  0
  4  3  1  0  0  0  0
  5  7  1  0  0  0  0
  6  8  2  0  0  0  0
  7  9  1  0  0  0  0
  8  7  2  0  0  0  0
  9 10  1  0  0  0  0
 10 11  1  0  0  0  0
 11 12  1  0  0  0  0
 14 13  1  6  0  0  0
 14 22  1  0  0  0  0
 15 19  1  0  0  0  0
 19 16  1  1  0  0  0
 20 18  1  6  0  0  0
 20 16  1  0  0  0  0
 21 15  1  6  0  0  0
 21 19  1  0  0  0  0
 22 17  1  6  0  0  0
 22 21  1  0  0  0  0
 22 23  1  0  0  0  0
 23 20  1  0  0  0  0
 25 24  1  6  0  0  0
 26 25  1  0  0  0  0
 27 28  2  0  0  0  0
 27 26  1  0  0  0  0
 29 28  1  0  0  0  0
 30 29  1  0  0  0  0
M  END
>  <MODEL>
8

>  <REMARK>
 VINA RESULT:      -6.1      2.130      5.753
  Name = 
  12 active torsions:
  status: ('A' for Active; 'I' for Inactive)
    1  A    between atoms: C_4  and  C_19
    2  A    between atoms: N_6  and  CA_8
    3  A    between atoms: N_6  and  C_21
    4  A    between atoms: C_7  and  C_26
    5  A    between atoms: CA_8  and  C_30
    6  A    between atoms: C_9  and  C_21
    7  A    between atoms: C_10  and  C_15
    8  A    between atoms: C_10  and  C_25
    9  A    between atoms: N_13  and  C_30
   10  A    between atoms: C_19  and  C_24
   11  A    between atoms: C_19  and  C_25
   12  A    between atoms: C_24  and  C_28
                            x       y       z     vdW  Elec       q    Type
                         _______ _______ _______ _____ _____    ______ ____

>  <TORSDO>
F 12

$$$$
=
 OpenBabel10272414013D

 30 32  0  0  1  0  0  0  0  0999 V2000
  189.3220  177.4570  142.9680 C   0  0  2  0  0  3  0  0  0  0  0  0
  190.6680  176.9790  143.5080 C   0  0  2  0  0  3  0  0  0  0  0  0
  190.8460  177.5110  144.8660 N   0  0  0  0  0  0  0  0  0  0  0  0
  191.5780  178.0950  143.7350 C   0  0  0  0  0  2  0  0  0  0  0  0
  191.7530  176.6040  145.5520 C   0  0  0  0  0  2  0  0  0  0  0  0
  193.1080  175.6540  148.6530 O   0  0  0  0  0  0  0  0  0  0  0  0
  191.3820  176.5120  146.9960 C   0  0  0  0  0  0  0  0  0  0  0  0
  192.2660  176.0720  147.8450 C   0  0  0  0  0  0  0  0  0  0  0  0
  190.1040  176.9460  147.4730 N   0  0  0  0  0  2  0  0  0  0  0  0
  189.9220  178.1800  148.2160 C   0  0  0  0  0  2  0  0  0  0  0  0
  188.4640  178.3410  148.5960 C   0  0  0  0  0  2  0  0  0  0  0  0
  187.7930  176.9840  148.5430 C   0  0  0  0  0  1  0  0  0  0  0  0
  187.4810  175.8720  143.1450 O   0  0  0  0  0  1  0  0  0  0  0  0
  188.1900  176.8700  143.8280 C   0  0  2  0  0  3  0  0  0  0  0  0
  185.5510  178.0360  142.6940 O   0  0  0  0  0  0  0  0  0  0  0  0
  184.3040  178.4410  144.6800 C   0  0  0  0  0  2  0  0  0  0  0  0
  188.0380  178.7880  145.2280 O   0  0  0  0  0  1  0  0  0  0  0  0
  185.6230  179.2120  146.5290 O   0  0  0  0  0  1  0  0  0  0  0  0
  185.0960  179.0820  143.5310 C   0  0  1  0  0  3  0  0  0  0  0  0
  185.1530  178.0650  145.8790 C   0  0  2  0  0  3  0  0  0  0  0  0
  186.5530  178.7620  143.3660 C   0  0  1  0  0  3  0  0  0  0  0  0
  187.2580  177.9180  144.4610 C   0  0  1  0  0  0  0  0  0  0  0  0
  186.3050  177.1870  145.4150 C   0  0  0  0  0  2  0  0  0  0  0  0
  190.2780  176.5380  140.7400 C   0  0  0  0  0  1  0  0  0  0  0  0
  189.1090  177.1950  141.4610 C   0  0  2  0  0  3  0  0  0  0  0  0
  188.5640  178.4050  140.7050 C   0  0  0  0  0  2  0  0  0  0  0  0
  188.3170  178.1170  139.2580 C   0  0  0  0  0  3  0  0  0  0  0  0
  188.9820  178.7890  138.3200 C   0  0  0  0  0  3  0  0  0  0  0  0
  188.7720  178.4930  136.8680 C   0  0  0  0  0  2  0  0  0  0  0  0
  187.4980  177.6950  136.6780 C   0  0  0  0  0  1  0  0  0  0  0  0
  1 25  1  6  0  0  0
  1 14  1  0  0  0  0
  2  1  1  6  0  0  0
  2  4  1  0  0  0  0
  2  3  1  0  0  0  0
  3  5  1  0  0  0  0
  4  3  1  0  0  0  0
  5  7  1  0  0  0  0
  7  9  1  0  0  0  0
  7  8  2  0  0  0  0
  8  6  2  0  0  0  0
  9 10  1  0  0  0  0
 10 11  1  0  0  0  0
 12 11  1  0  0  0  0
 14 13  1  6  0  0  0
 14 22  1  0  0  0  0
 15 19  1  0  0  0  0
 16 20  1  0  0  0  0
 19 16  1  1  0  0  0
 20 18  1  6  0  0  0
 21 15  1  6  0  0  0
 21 19  1  0  0  0  0
 21 22  1  0  0  0  0
 22 17  1  1  0  0  0
 22 23  1  0  0  0  0
 23 20  1  0  0  0  0
 25 24  1  6  0  0  0
 26 25  1  0  0  0  0
 27 26  1  0  0  0  0
 28 27  2  0  0  0  0
 29 28  1  0  0  0  0
 30 29  1  0  0  0  0
M  END
>  <MODEL>
9

>  <REMARK>
 VINA RESULT:      -6.1      3.070      7.692
  Name = 
  12 active torsions:
  status: ('A' for Active; 'I' for Inactive)
    1  A    between atoms: C_4  and  C_19
    2  A    between atoms: N_6  and  CA_8
    3  A    between atoms: N_6  and  C_21
    4  A    between atoms: C_7  and  C_26
    5  A    between atoms: CA_8  and  C_30
    6  A    between atoms: C_9  and  C_21
    7  A    between atoms: C_10  and  C_15
    8  A    between atoms: C_10  and  C_25
    9  A    between atoms: N_13  and  C_30
   10  A    between atoms: C_19  and  C_24
   11  A    between atoms: C_19  and  C_25
   12  A    between atoms: C_24  and  C_28
                            x       y       z     vdW  Elec       q    Type
                         _______ _______ _______ _____ _____    ______ ____

>  <TORSDO>
F 12

$$$$
