=
 OpenBabel10272400543D

 25 28  0  0  1  0  0  0  0  0999 V2000
  185.7550  178.5250  144.6040 C   0  0  0  0  0  0  0  0  0  0  0  0
  187.0600  178.0290  144.6000 C   0  0  0  0  0  0  0  0  0  0  0  0
  185.5610  178.3040  146.9980 C   0  0  0  0  0  3  0  0  0  0  0  0
  184.9230  179.0340  143.4840 C   0  0  2  0  0  3  0  0  0  0  0  0
  188.8090  177.0050  143.1420 C   0  0  2  0  0  3  0  0  0  0  0  0
  182.2890  178.7830  142.3450 C   0  0  0  0  0  3  0  0  0  0  0  0
  186.8740  177.8120  147.0340 C   0  0  0  0  0  3  0  0  0  0  0  0
  183.6550  179.3400  144.2370 C   0  0  0  0  0  0  0  0  0  0  0  0
  182.3830  179.4280  143.5160 C   0  0  0  0  0  3  0  0  0  0  0  0
  189.0800  177.2040  145.9250 C   0  0  2  0  0  3  0  0  0  0  0  0
  189.6410  177.1610  147.3400 C   0  0  0  0  0  1  0  0  0  0  0  0
  187.7300  177.9080  143.3730 O   0  0  0  0  0  0  0  0  0  0  0  0
  183.4220  177.9660  141.8320 C   0  0  0  0  0  3  0  0  0  0  0  0
  185.0380  178.6740  145.7640 C   0  0  0  0  0  0  0  0  0  0  0  0
  183.7220  179.1450  145.5180 N   0  0  0  0  0  0  0  0  0  0  0  0
  189.9210  178.0690  145.1070 N   0  0  0  0  0  2  0  0  0  0  0  0
  184.6390  178.0280  142.3980 C   0  0  0  0  0  3  0  0  0  0  0  0
  190.1200  177.4590  143.7940 C   0  0  0  0  0  2  0  0  0  0  0  0
  187.6470  177.6840  145.8530 C   0  0  0  0  0  0  0  0  0  0  0  0
  189.0000  176.7170  141.6480 C   0  0  0  0  0  2  0  0  0  0  0  0
  190.8040  177.4060  140.1070 N   0  0  0  0  0  1  0  0  0  0  0  0
  189.6110  177.8510  140.8100 C   0  0  1  0  0  3  0  0  0  0  0  0
  188.6400  178.4970  139.8740 C   0  0  0  0  0  0  0  0  0  0  0  0
  189.0800  179.0880  138.6950 O   0  0  0  0  0  0  0  0  0  0  0  0
  187.4110  178.4750  140.1400 O   0  0  0  0  0  1  0  0  0  0  0  0
  1 14  1  0  0  0  0
  2  1  2  0  0  0  0
  2 19  1  0  0  0  0
  3  7  1  0  0  0  0
  4 17  1  6  0  0  0
  4  8  1  0  0  0  0
  4  1  1  0  0  0  0
  5 20  1  6  0  0  0
  5 12  1  0  0  0  0
  5 18  1  0  0  0  0
  6  9  2  0  0  0  0
  8 15  2  0  0  0  0
  9  8  1  0  0  0  0
 10 11  1  1  0  0  0
 12  2  1  0  0  0  0
 13  6  1  0  0  0  0
 13 17  2  0  0  0  0
 14  3  2  0  0  0  0
 15 14  1  0  0  0  0
 16 10  1  0  0  0  0
 18 16  1  0  0  0  0
 19 10  1  0  0  0  0
 19  7  2  0  0  0  0
 22 21  1  6  0  0  0
 22 20  1  0  0  0  0
 23 25  1  0  0  0  0
 23 22  1  0  0  0  0
 24 23  2  0  0  0  0
M  END
>  <MODEL>
1

>  <REMARK>
 VINA RESULT:      -9.7      0.000      0.000
  Name = 
  3 active torsions:
  status: ('A' for Active; 'I' for Inactive)
    1  A    between atoms: C_2  and  CA_25
    2  A    between atoms: C_6  and  C_15
    3  A    between atoms: C_15  and  CA_25
                            x       y       z     vdW  Elec       q    Type
                         _______ _______ _______ _____ _____    ______ ____

>  <TORSDO>
F 3

$$$$
=
 OpenBabel10272400543D

 25 28  0  0  1  0  0  0  0  0999 V2000
  187.4540  178.1320  145.5910 C   0  0  0  0  0  0  0  0  0  0  0  0
  188.7110  177.5600  145.3830 C   0  0  0  0  0  0  0  0  0  0  0  0
  187.5800  177.8070  147.9780 C   0  0  0  0  0  3  0  0  0  0  0  0
  186.5100  178.7440  144.6210 C   0  0  2  0  0  3  0  0  0  0  0  0
  190.1690  176.5060  143.6510 C   0  0  2  0  0  3  0  0  0  0  0  0
  183.7330  178.7060  143.8570 C   0  0  0  0  0  3  0  0  0  0  0  0
  188.8510  177.2360  147.8080 C   0  0  0  0  0  3  0  0  0  0  0  0
  185.3820  179.0880  145.5580 C   0  0  0  0  0  0  0  0  0  0  0  0
  184.0310  179.2870  145.0280 C   0  0  0  0  0  3  0  0  0  0  0  0
  190.8360  176.5520  146.3740 C   0  0  2  0  0  3  0  0  0  0  0  0
  191.5840  176.4080  147.6930 C   0  0  0  0  0  1  0  0  0  0  0  0
  189.1940  177.4590  144.0690 O   0  0  0  0  0  0  0  0  0  0  0  0
  184.7270  177.8500  143.1570 C   0  0  0  0  0  3  0  0  0  0  0  0
  186.9170  178.2680  146.8460 C   0  0  0  0  0  0  0  0  0  0  0  0
  185.6140  178.8270  146.8080 N   0  0  0  0  0  0  0  0  0  0  0  0
  191.6100  177.4050  145.4800 N   0  0  0  0  0  2  0  0  0  0  0  0
  186.0130  177.8110  143.5470 C   0  0  0  0  0  3  0  0  0  0  0  0
  191.5850  176.8490  144.1290 C   0  0  0  0  0  2  0  0  0  0  0  0
  189.4420  177.1200  146.5250 C   0  0  0  0  0  0  0  0  0  0  0  0
  190.1310  176.2810  142.1360 C   0  0  0  0  0  2  0  0  0  0  0  0
  191.3950  177.4550  140.3670 N   0  0  0  0  0  1  0  0  0  0  0  0
  190.2490  177.5370  141.2580 C   0  0  1  0  0  3  0  0  0  0  0  0
  188.9990  177.8620  140.5040 C   0  0  0  0  0  0  0  0  0  0  0  0
  188.7030  177.2110  139.3120 O   0  0  0  0  0  0  0  0  0  0  0  0
  188.1930  178.7070  140.9700 O   0  0  0  0  0  1  0  0  0  0  0  0
  1 14  1  0  0  0  0
  2  1  2  0  0  0  0
  2 19  1  0  0  0  0
  4 17  1  6  0  0  0
  4  8  1  0  0  0  0
  4  1  1  0  0  0  0
  5 20  1  6  0  0  0
  5 12  1  0  0  0  0
  5 18  1  0  0  0  0
  6  9  2  0  0  0  0
  7  3  1  0  0  0  0
  8 15  2  0  0  0  0
  9  8  1  0  0  0  0
 10 19  1  0  0  0  0
 10 11  1  1  0  0  0
 12  2  1  0  0  0  0
 13 17  2  0  0  0  0
 13  6  1  0  0  0  0
 14  3  2  0  0  0  0
 15 14  1  0  0  0  0
 16 10  1  0  0  0  0
 18 16  1  0  0  0  0
 19  7  2  0  0  0  0
 22 21  1  6  0  0  0
 22 20  1  0  0  0  0
 23 25  1  0  0  0  0
 23 22  1  0  0  0  0
 24 23  2  0  0  0  0
M  END
>  <MODEL>
2

>  <REMARK>
 VINA RESULT:      -9.6      1.300      1.847
  Name = 
  3 active torsions:
  status: ('A' for Active; 'I' for Inactive)
    1  A    between atoms: C_2  and  CA_25
    2  A    between atoms: C_6  and  C_15
    3  A    between atoms: C_15  and  CA_25
                            x       y       z     vdW  Elec       q    Type
                         _______ _______ _______ _____ _____    ______ ____

>  <TORSDO>
F 3

$$$$
=
 OpenBabel10272400543D

 25 28  0  0  1  0  0  0  0  0999 V2000
  187.6960  177.5820  145.2840 C   0  0  0  0  0  0  0  0  0  0  0  0
  186.9290  178.0440  144.2130 C   0  0  0  0  0  0  0  0  0  0  0  0
  186.0540  178.2810  146.9050 C   0  0  0  0  0  3  0  0  0  0  0  0
  189.0020  176.8740  145.2880 C   0  0  2  0  0  3  0  0  0  0  0  0
  187.0430  178.7240  141.8130 C   0  0  2  0  0  3  0  0  0  0  0  0
  191.5910  176.9380  146.5500 C   0  0  0  0  0  3  0  0  0  0  0  0
  185.2510  178.7480  145.8540 C   0  0  0  0  0  3  0  0  0  0  0  0
  189.2090  176.7470  146.7750 C   0  0  0  0  0  0  0  0  0  0  0  0
  190.5580  176.5380  147.3060 C   0  0  0  0  0  3  0  0  0  0  0  0
  184.7490  179.0820  143.3840 C   0  0  2  0  0  3  0  0  0  0  0  0
  183.3300  179.3970  143.8390 C   0  0  0  0  0  1  0  0  0  0  0  0
  187.4370  177.9050  142.9120 O   0  0  0  0  0  0  0  0  0  0  0  0
  191.3620  177.6150  145.2450 C   0  0  0  0  0  3  0  0  0  0  0  0
  187.2650  177.6800  146.5820 C   0  0  0  0  0  0  0  0  0  0  0  0
  188.2310  177.1940  147.5010 N   0  0  0  0  0  0  0  0  0  0  0  0
  184.6990  178.0550  142.3500 N   0  0  0  0  0  2  0  0  0  0  0  0
  190.1440  177.6460  144.6790 C   0  0  0  0  0  3  0  0  0  0  0  0
  185.6440  178.3860  141.2850 C   0  0  0  0  0  2  0  0  0  0  0  0
  185.6590  178.6230  144.5020 C   0  0  0  0  0  0  0  0  0  0  0  0
  188.0840  178.7030  140.6870 C   0  0  0  0  0  2  0  0  0  0  0  0
  188.3800  177.1150  138.8170 N   0  0  0  0  0  1  0  0  0  0  0  0
  188.5780  177.3170  140.2440 C   0  0  1  0  0  3  0  0  0  0  0  0
  189.9910  177.0280  140.6410 C   0  0  0  0  0  0  0  0  0  0  0  0
  190.2690  176.1100  141.6470 O   0  0  0  0  0  1  0  0  0  0  0  0
  190.9360  177.5960  140.0360 O   0  0  0  0  0  0  0  0  0  0  0  0
  1  4  1  0  0  0  0
  1 14  1  0  0  0  0
  2 19  1  0  0  0  0
  2  1  2  0  0  0  0
  4 17  1  1  0  0  0
  4  8  1  0  0  0  0
  5 20  1  6  0  0  0
  5 12  1  0  0  0  0
  6  9  2  0  0  0  0
  7  3  1  0  0  0  0
  8  9  1  0  0  0  0
  8 15  2  0  0  0  0
 10 11  1  1  0  0  0
 10 19  1  0  0  0  0
 12  2  1  0  0  0  0
 13  6  1  0  0  0  0
 14  3  2  0  0  0  0
 14 15  1  0  0  0  0
 16 10  1  0  0  0  0
 17 13  2  0  0  0  0
 18  5  1  0  0  0  0
 18 16  1  0  0  0  0
 19  7  2  0  0  0  0
 22 21  1  6  0  0  0
 22 23  1  0  0  0  0
 22 20  1  0  0  0  0
 23 24  1  0  0  0  0
 25 23  2  0  0  0  0
M  END
>  <MODEL>
3

>  <REMARK>
 VINA RESULT:      -9.4      1.728      5.043
  Name = 
  3 active torsions:
  status: ('A' for Active; 'I' for Inactive)
    1  A    between atoms: C_2  and  CA_25
    2  A    between atoms: C_6  and  C_15
    3  A    between atoms: C_15  and  CA_25
                            x       y       z     vdW  Elec       q    Type
                         _______ _______ _______ _____ _____    ______ ____

>  <TORSDO>
F 3

$$$$
=
 OpenBabel10272400543D

 25 28  0  0  1  0  0  0  0  0999 V2000
  188.8680  177.2050  143.7450 C   0  0  0  0  0  0  0  0  0  0  0  0
  188.0030  177.6630  144.7400 C   0  0  0  0  0  0  0  0  0  0  0  0
  190.6750  176.8830  145.3080 C   0  0  0  0  0  3  0  0  0  0  0  0
  188.6230  176.9790  142.2970 C   0  0  2  0  0  3  0  0  0  0  0  0
  185.9020  178.9560  145.1290 C   0  0  2  0  0  3  0  0  0  0  0  0
  189.7650  177.5320  139.7110 C   0  0  0  0  0  3  0  0  0  0  0  0
  189.8310  177.3290  146.3370 C   0  0  0  0  0  3  0  0  0  0  0  0
  190.0020  176.5350  141.8800 C   0  0  0  0  0  0  0  0  0  0  0  0
  190.4050  176.6360  140.4760 C   0  0  0  0  0  3  0  0  0  0  0  0
  187.5830  178.1290  147.2150 C   0  0  2  0  0  3  0  0  0  0  0  0
  188.1560  177.8400  148.5960 C   0  0  0  0  0  1  0  0  0  0  0  0
  186.7020  178.0460  144.3780 O   0  0  0  0  0  0  0  0  0  0  0  0
  188.7220  178.4210  140.2890 C   0  0  0  0  0  3  0  0  0  0  0  0
  190.1520  176.8110  144.0230 C   0  0  0  0  0  0  0  0  0  0  0  0
  190.8570  176.4340  142.8510 N   0  0  0  0  0  0  0  0  0  0  0  0
  186.2970  177.4540  147.0830 N   0  0  0  0  0  2  0  0  0  0  0  0
  188.2290  178.2090  141.5210 C   0  0  0  0  0  3  0  0  0  0  0  0
  185.3450  178.3410  146.4180 C   0  0  0  0  0  2  0  0  0  0  0  0
  188.4900  177.7060  146.0800 C   0  0  0  0  0  0  0  0  0  0  0  0
  184.7860  179.5700  144.2760 C   0  0  0  0  0  2  0  0  0  0  0  0
  182.5140  178.7880  143.7050 N   0  0  0  0  0  1  0  0  0  0  0  0
  183.9330  178.5850  143.4620 C   0  0  1  0  0  3  0  0  0  0  0  0
  184.2390  178.5940  141.9980 C   0  0  0  0  0  0  0  0  0  0  0  0
  185.1070  179.5380  141.4630 O   0  0  0  0  0  1  0  0  0  0  0  0
  183.7320  177.7180  141.2510 O   0  0  0  0  0  0  0  0  0  0  0  0
  1 14  2  0  0  0  0
  1  2  1  0  0  0  0
  2 19  2  0  0  0  0
  3  7  2  0  0  0  0
  4 17  1  6  0  0  0
  4  1  1  0  0  0  0
  5 20  1  6  0  0  0
  5 18  1  0  0  0  0
  6 13  1  0  0  0  0
  6  9  2  0  0  0  0
  8  4  1  0  0  0  0
  8 15  2  0  0  0  0
  9  8  1  0  0  0  0
 10 11  1  1  0  0  0
 12  2  1  0  0  0  0
 12  5  1  0  0  0  0
 13 17  2  0  0  0  0
 14  3  1  0  0  0  0
 15 14  1  0  0  0  0
 16 10  1  0  0  0  0
 18 16  1  0  0  0  0
 19  7  1  0  0  0  0
 19 10  1  0  0  0  0
 22 21  1  6  0  0  0
 22 20  1  0  0  0  0
 23 22  1  0  0  0  0
 24 23  1  0  0  0  0
 25 23  2  0  0  0  0
M  END
>  <MODEL>
4

>  <REMARK>
 VINA RESULT:      -9.2      1.738      5.329
  Name = 
  3 active torsions:
  status: ('A' for Active; 'I' for Inactive)
    1  A    between atoms: C_2  and  CA_25
    2  A    between atoms: C_6  and  C_15
    3  A    between atoms: C_15  and  CA_25
                            x       y       z     vdW  Elec       q    Type
                         _______ _______ _______ _____ _____    ______ ____

>  <TORSDO>
F 3

$$$$
=
 OpenBabel10272400543D

 25 28  0  0  1  0  0  0  0  0999 V2000
  186.9200  178.1670  143.9640 C   0  0  0  0  0  0  0  0  0  0  0  0
  188.1260  177.7300  143.4130 C   0  0  0  0  0  0  0  0  0  0  0  0
  187.5490  177.4580  146.1810 C   0  0  0  0  0  3  0  0  0  0  0  0
  185.7740  178.8620  143.3240 C   0  0  2  0  0  3  0  0  0  0  0  0
  189.2310  177.0870  141.2680 C   0  0  2  0  0  3  0  0  0  0  0  0
  182.9020  178.7540  143.1310 C   0  0  0  0  0  3  0  0  0  0  0  0
  188.7770  177.0160  145.6650 C   0  0  0  0  0  3  0  0  0  0  0  0
  184.8520  178.9640  144.5130 C   0  0  0  0  0  0  0  0  0  0  0  0
  183.4140  179.1510  144.3040 C   0  0  0  0  0  3  0  0  0  0  0  0
  190.4450  176.7260  143.7680 C   0  0  2  0  0  3  0  0  0  0  0  0
  191.4550  176.4170  144.8660 C   0  0  0  0  0  1  0  0  0  0  0  0
  188.3300  177.8850  142.0330 O   0  0  0  0  0  0  0  0  0  0  0  0
  183.7590  178.1000  142.1070 C   0  0  0  0  0  3  0  0  0  0  0  0
  186.6500  178.0520  145.3040 C   0  0  0  0  0  0  0  0  0  0  0  0
  185.3470  178.5150  145.6250 N   0  0  0  0  0  0  0  0  0  0  0  0
  190.9860  177.7690  142.9060 N   0  0  0  0  0  2  0  0  0  0  0  0
  185.0980  178.0890  142.2210 C   0  0  0  0  0  3  0  0  0  0  0  0
  190.7010  177.4460  141.5090 C   0  0  0  0  0  2  0  0  0  0  0  0
  189.0930  177.1580  144.2910 C   0  0  0  0  0  0  0  0  0  0  0  0
  188.8880  177.1160  139.7740 C   0  0  0  0  0  2  0  0  0  0  0  0
  188.9860  179.2010  138.4520 N   0  0  0  0  0  1  0  0  0  0  0  0
  188.1330  178.3580  139.2730 C   0  0  1  0  0  3  0  0  0  0  0  0
  186.8510  178.0390  138.5730 C   0  0  0  0  0  0  0  0  0  0  0  0
  186.7670  176.9490  137.7140 O   0  0  0  0  0  0  0  0  0  0  0  0
  185.8310  178.7430  138.7890 O   0  0  0  0  0  1  0  0  0  0  0  0
  1 14  1  0  0  0  0
  2  1  2  0  0  0  0
  2 19  1  0  0  0  0
  4 17  1  6  0  0  0
  4  1  1  0  0  0  0
  4  8  1  0  0  0  0
  5 20  1  6  0  0  0
  5 18  1  0  0  0  0
  5 12  1  0  0  0  0
  6  9  2  0  0  0  0
  7  3  1  0  0  0  0
  8 15  2  0  0  0  0
  9  8  1  0  0  0  0
 10 19  1  0  0  0  0
 10 11  1  1  0  0  0
 12  2  1  0  0  0  0
 13 17  2  0  0  0  0
 13  6  1  0  0  0  0
 14 15  1  0  0  0  0
 14  3  2  0  0  0  0
 16 10  1  0  0  0  0
 18 16  1  0  0  0  0
 19  7  2  0  0  0  0
 22 21  1  6  0  0  0
 22 20  1  0  0  0  0
 23 25  1  0  0  0  0
 23 22  1  0  0  0  0
 24 23  2  0  0  0  0
M  END
>  <MODEL>
5

>  <REMARK>
 VINA RESULT:      -8.8      1.487      2.050
  Name = 
  3 active torsions:
  status: ('A' for Active; 'I' for Inactive)
    1  A    between atoms: C_2  and  CA_25
    2  A    between atoms: C_6  and  C_15
    3  A    between atoms: C_15  and  CA_25
                            x       y       z     vdW  Elec       q    Type
                         _______ _______ _______ _____ _____    ______ ____

>  <TORSDO>
F 3

$$$$
=
 OpenBabel10272400543D

 25 28  0  0  1  0  0  0  0  0999 V2000
  187.0480  178.3630  142.1440 C   0  0  0  0  0  0  0  0  0  0  0  0
  186.3690  178.2880  143.3620 C   0  0  0  0  0  0  0  0  0  0  0  0
  185.0060  178.6560  140.8960 C   0  0  0  0  0  3  0  0  0  0  0  0
  188.5060  178.3280  141.8600 C   0  0  2  0  0  3  0  0  0  0  0  0
  186.5770  177.5160  145.7280 C   0  0  2  0  0  3  0  0  0  0  0  0
  190.4320  177.0530  140.1390 C   0  0  0  0  0  3  0  0  0  0  0  0
  184.2900  178.5960  142.1020 C   0  0  0  0  0  3  0  0  0  0  0  0
  188.4660  178.4130  140.3560 C   0  0  0  0  0  0  0  0  0  0  0  0
  189.6140  177.9510  139.5710 C   0  0  0  0  0  3  0  0  0  0  0  0
  184.1610  178.4260  144.6350 C   0  0  2  0  0  3  0  0  0  0  0  0
  182.7160  178.8810  144.4710 C   0  0  0  0  0  1  0  0  0  0  0  0
  187.1110  178.0880  144.5350 O   0  0  0  0  0  0  0  0  0  0  0  0
  190.1460  176.5120  141.4940 C   0  0  0  0  0  3  0  0  0  0  0  0
  186.3910  178.5590  140.9570 C   0  0  0  0  0  0  0  0  0  0  0  0
  187.2790  178.5490  139.8500 N   0  0  0  0  0  0  0  0  0  0  0  0
  184.8220  179.2870  145.6090 N   0  0  0  0  0  2  0  0  0  0  0  0
  189.2040  177.0610  142.2800 C   0  0  0  0  0  3  0  0  0  0  0  0
  185.6570  178.4760  146.4920 C   0  0  0  0  0  2  0  0  0  0  0  0
  184.9500  178.4310  143.3440 C   0  0  0  0  0  0  0  0  0  0  0  0
  187.6800  176.9590  146.6350 C   0  0  0  0  0  2  0  0  0  0  0  0
  188.8690  178.3890  148.2610 N   0  0  0  0  0  1  0  0  0  0  0  0
  188.8770  177.8860  146.8970 C   0  0  1  0  0  3  0  0  0  0  0  0
  190.1970  177.2720  146.5540 C   0  0  0  0  0  0  0  0  0  0  0  0
  191.0950  176.9180  147.5550 O   0  0  0  0  0  1  0  0  0  0  0  0
  190.4830  177.0440  145.3500 O   0  0  0  0  0  0  0  0  0  0  0  0
  1  2  1  0  0  0  0
  2 12  1  0  0  0  0
  3 14  1  0  0  0  0
  3  7  2  0  0  0  0
  4  1  1  0  0  0  0
  4 17  1  6  0  0  0
  5 18  1  0  0  0  0
  5 20  1  1  0  0  0
  6 13  1  0  0  0  0
  7 19  1  0  0  0  0
  8  4  1  0  0  0  0
  9  6  2  0  0  0  0
  9  8  1  0  0  0  0
 10 11  1  6  0  0  0
 10 16  1  0  0  0  0
 12  5  1  0  0  0  0
 13 17  2  0  0  0  0
 14  1  2  0  0  0  0
 15  8  2  0  0  0  0
 15 14  1  0  0  0  0
 16 18  1  0  0  0  0
 19  2  2  0  0  0  0
 19 10  1  0  0  0  0
 20 22  1  0  0  0  0
 22 21  1  1  0  0  0
 23 22  1  0  0  0  0
 23 24  1  0  0  0  0
 25 23  2  0  0  0  0
M  END
>  <MODEL>
6

>  <REMARK>
 VINA RESULT:      -8.8      2.115      5.993
  Name = 
  3 active torsions:
  status: ('A' for Active; 'I' for Inactive)
    1  A    between atoms: C_2  and  CA_25
    2  A    between atoms: C_6  and  C_15
    3  A    between atoms: C_15  and  CA_25
                            x       y       z     vdW  Elec       q    Type
                         _______ _______ _______ _____ _____    ______ ____

>  <TORSDO>
F 3

$$$$
=
 OpenBabel10272400543D

 25 28  0  0  1  0  0  0  0  0999 V2000
  187.6440  177.6040  145.0570 C   0  0  0  0  0  0  0  0  0  0  0  0
  186.8300  178.0640  144.0190 C   0  0  0  0  0  0  0  0  0  0  0  0
  186.0520  178.2620  146.7450 C   0  0  0  0  0  3  0  0  0  0  0  0
  188.9590  176.9170  145.0050 C   0  0  2  0  0  3  0  0  0  0  0  0
  186.8450  178.7690  141.6240 C   0  0  2  0  0  3  0  0  0  0  0  0
  191.5910  177.0100  146.1720 C   0  0  0  0  0  3  0  0  0  0  0  0
  185.2030  178.7250  145.7280 C   0  0  0  0  0  3  0  0  0  0  0  0
  189.2230  176.7790  146.4830 C   0  0  0  0  0  0  0  0  0  0  0  0
  190.5940  176.5870  146.9620 C   0  0  0  0  0  3  0  0  0  0  0  0
  184.6060  179.0750  143.2810 C   0  0  2  0  0  3  0  0  0  0  0  0
  183.2000  179.3640  143.7910 C   0  0  0  0  0  1  0  0  0  0  0  0
  187.2920  177.9460  142.6990 O   0  0  0  0  0  0  0  0  0  0  0  0
  191.3050  177.6960  144.8840 C   0  0  0  0  0  3  0  0  0  0  0  0
  187.2590  177.6840  146.3710 C   0  0  0  0  0  0  0  0  0  0  0  0
  188.2660  177.2040  147.2480 N   0  0  0  0  0  0  0  0  0  0  0  0
  184.5330  178.0580  142.2390 N   0  0  0  0  0  2  0  0  0  0  0  0
  190.0660  177.7130  144.3630 C   0  0  0  0  0  3  0  0  0  0  0  0
  185.4330  178.4140  141.1440 C   0  0  0  0  0  2  0  0  0  0  0  0
  185.5620  178.6200  144.3610 C   0  0  0  0  0  0  0  0  0  0  0  0
  187.8440  178.7750  140.4600 C   0  0  0  0  0  2  0  0  0  0  0  0
  187.0150  178.7770  138.1330 N   0  0  0  0  0  1  0  0  0  0  0  0
  187.4620  177.9360  139.2310 C   0  0  1  0  0  3  0  0  0  0  0  0
  188.5360  176.9940  138.7900 C   0  0  0  0  0  0  0  0  0  0  0  0
  188.3530  176.1850  137.6740 O   0  0  0  0  0  0  0  0  0  0  0  0
  189.6280  176.9580  139.4140 O   0  0  0  0  0  1  0  0  0  0  0  0
  1 14  1  0  0  0  0
  2 19  1  0  0  0  0
  2  1  2  0  0  0  0
  4 17  1  1  0  0  0
  4  1  1  0  0  0  0
  4  8  1  0  0  0  0
  5 20  1  6  0  0  0
  5 12  1  0  0  0  0
  6  9  2  0  0  0  0
  7  3  1  0  0  0  0
  8  9  1  0  0  0  0
  8 15  2  0  0  0  0
 10 11  1  1  0  0  0
 10 19  1  0  0  0  0
 12  2  1  0  0  0  0
 13  6  1  0  0  0  0
 14  3  2  0  0  0  0
 14 15  1  0  0  0  0
 16 10  1  0  0  0  0
 17 13  2  0  0  0  0
 18  5  1  0  0  0  0
 18 16  1  0  0  0  0
 19  7  2  0  0  0  0
 22 21  1  6  0  0  0
 22 20  1  0  0  0  0
 23 22  1  0  0  0  0
 23 25  1  0  0  0  0
 24 23  2  0  0  0  0
M  END
>  <MODEL>
7

>  <REMARK>
 VINA RESULT:      -8.8      1.847      5.044
  Name = 
  3 active torsions:
  status: ('A' for Active; 'I' for Inactive)
    1  A    between atoms: C_2  and  CA_25
    2  A    between atoms: C_6  and  C_15
    3  A    between atoms: C_15  and  CA_25
                            x       y       z     vdW  Elec       q    Type
                         _______ _______ _______ _____ _____    ______ ____

>  <TORSDO>
F 3

$$$$
=
 OpenBabel10272400543D

 25 28  0  0  1  0  0  0  0  0999 V2000
  186.6330  178.0370  143.0670 C   0  0  0  0  0  0  0  0  0  0  0  0
  187.8480  177.9650  142.3820 C   0  0  0  0  0  0  0  0  0  0  0  0
  185.4610  178.8570  141.1260 C   0  0  0  0  0  3  0  0  0  0  0  0
  186.3000  177.6540  144.4630 C   0  0  2  0  0  3  0  0  0  0  0  0
  190.3230  177.8580  142.6990 C   0  0  2  0  0  3  0  0  0  0  0  0
  184.9570  178.6510  146.8080 C   0  0  0  0  0  3  0  0  0  0  0  0
  186.6620  178.7890  140.4020 C   0  0  0  0  0  3  0  0  0  0  0  0
  184.8470  178.0510  144.4870 C   0  0  0  0  0  0  0  0  0  0  0  0
  184.1840  178.3070  145.7680 C   0  0  0  0  0  3  0  0  0  0  0  0
  189.1280  178.2110  140.1870 C   0  0  2  0  0  3  0  0  0  0  0  0
  188.9060  178.3520  138.6870 C   0  0  0  0  0  1  0  0  0  0  0  0
  188.9870  177.5300  143.0760 O   0  0  0  0  0  0  0  0  0  0  0  0
  186.4260  178.8160  146.6430 C   0  0  0  0  0  3  0  0  0  0  0  0
  185.4780  178.4500  142.4550 C   0  0  0  0  0  0  0  0  0  0  0  0
  184.3840  178.4920  143.3580 N   0  0  0  0  0  0  0  0  0  0  0  0
  189.7560  176.9220  140.4550 N   0  0  0  0  0  2  0  0  0  0  0  0
  187.0530  178.4130  145.5250 C   0  0  0  0  0  3  0  0  0  0  0  0
  190.8020  177.0880  141.4630 C   0  0  0  0  0  2  0  0  0  0  0  0
  187.8600  178.3290  141.0040 C   0  0  0  0  0  0  0  0  0  0  0  0
  191.3000  177.6980  143.8690 C   0  0  0  0  0  2  0  0  0  0  0  0
  191.9820  175.3860  144.4130 N   0  0  0  0  0  1  0  0  0  0  0  0
  191.0850  176.4730  144.7720 C   0  0  1  0  0  3  0  0  0  0  0  0
  191.1670  176.7820  146.2330 C   0  0  0  0  0  0  0  0  0  0  0  0
  190.0670  177.3010  146.9080 O   0  0  0  0  0  1  0  0  0  0  0  0
  192.2280  176.5400  146.8620 O   0  0  0  0  0  0  0  0  0  0  0  0
  1  4  1  0  0  0  0
  2  1  2  0  0  0  0
  2 12  1  0  0  0  0
  3 14  2  0  0  0  0
  4  8  1  0  0  0  0
  4 17  1  1  0  0  0
  5 12  1  0  0  0  0
  5 20  1  1  0  0  0
  7 19  2  0  0  0  0
  7  3  1  0  0  0  0
  8  9  1  0  0  0  0
  9  6  2  0  0  0  0
 10 11  1  6  0  0  0
 10 16  1  0  0  0  0
 10 19  1  0  0  0  0
 13  6  1  0  0  0  0
 14  1  1  0  0  0  0
 14 15  1  0  0  0  0
 15  8  2  0  0  0  0
 16 18  1  0  0  0  0
 17 13  2  0  0  0  0
 18  5  1  0  0  0  0
 19  2  1  0  0  0  0
 20 22  1  0  0  0  0
 22 21  1  6  0  0  0
 22 23  1  0  0  0  0
 23 25  2  0  0  0  0
 23 24  1  0  0  0  0
M  END
>  <MODEL>
8

>  <REMARK>
 VINA RESULT:      -8.5      2.073      4.963
  Name = 
  3 active torsions:
  status: ('A' for Active; 'I' for Inactive)
    1  A    between atoms: C_2  and  CA_25
    2  A    between atoms: C_6  and  C_15
    3  A    between atoms: C_15  and  CA_25
                            x       y       z     vdW  Elec       q    Type
                         _______ _______ _______ _____ _____    ______ ____

>  <TORSDO>
F 3

$$$$
=
 OpenBabel10272400543D

 25 28  0  0  1  0  0  0  0  0999 V2000
  186.7830  177.9310  143.3930 C   0  0  0  0  0  0  0  0  0  0  0  0
  186.7340  178.1960  142.0230 C   0  0  0  0  0  0  0  0  0  0  0  0
  184.6020  178.8890  143.7690 C   0  0  0  0  0  3  0  0  0  0  0  0
  187.8270  177.2430  144.1950 C   0  0  2  0  0  3  0  0  0  0  0  0
  188.1470  178.4530  139.9800 C   0  0  2  0  0  3  0  0  0  0  0  0
  189.3640  177.5400  146.6130 C   0  0  0  0  0  3  0  0  0  0  0  0
  184.5130  179.1620  142.3950 C   0  0  0  0  0  3  0  0  0  0  0  0
  187.2120  177.3760  145.5650 C   0  0  0  0  0  0  0  0  0  0  0  0
  188.0590  177.2700  146.7560 C   0  0  0  0  0  3  0  0  0  0  0  0
  185.4110  179.0620  140.0190 C   0  0  2  0  0  3  0  0  0  0  0  0
  183.9980  179.4420  139.5980 C   0  0  0  0  0  1  0  0  0  0  0  0
  187.8340  177.8380  141.2280 O   0  0  0  0  0  0  0  0  0  0  0  0
  189.9130  177.9810  145.3030 C   0  0  0  0  0  3  0  0  0  0  0  0
  185.7460  178.2490  144.2320 C   0  0  0  0  0  0  0  0  0  0  0  0
  186.0420  177.9350  145.5840 N   0  0  0  0  0  0  0  0  0  0  0  0
  185.8220  177.8720  139.2840 N   0  0  0  0  0  2  0  0  0  0  0  0
  189.1800  177.9060  144.1790 C   0  0  0  0  0  3  0  0  0  0  0  0
  187.2090  178.0210  138.8480 C   0  0  0  0  0  2  0  0  0  0  0  0
  185.5560  178.8080  141.5030 C   0  0  0  0  0  0  0  0  0  0  0  0
  189.6170  178.2450  139.5970 C   0  0  0  0  0  2  0  0  0  0  0  0
  190.3950  175.9330  139.2050 N   0  0  0  0  0  1  0  0  0  0  0  0
  190.3040  177.0030  140.1860 C   0  0  1  0  0  3  0  0  0  0  0  0
  191.6370  177.2890  140.8000 C   0  0  0  0  0  0  0  0  0  0  0  0
  192.7820  177.3430  140.0130 O   0  0  0  0  0  0  0  0  0  0  0  0
  191.7180  177.5150  142.0350 O   0  0  0  0  0  1  0  0  0  0  0  0
  1  4  1  0  0  0  0
  1 14  1  0  0  0  0
  2  1  2  0  0  0  0
  3 14  2  0  0  0  0
  4 17  1  1  0  0  0
  4  8  1  0  0  0  0
  5 20  1  6  0  0  0
  5 12  1  0  0  0  0
  6  9  2  0  0  0  0
  7  3  1  0  0  0  0
  8 15  2  0  0  0  0
  8  9  1  0  0  0  0
 10 11  1  1  0  0  0
 10 19  1  0  0  0  0
 12  2  1  0  0  0  0
 13  6  1  0  0  0  0
 14 15  1  0  0  0  0
 16 10  1  0  0  0  0
 17 13  2  0  0  0  0
 18 16  1  0  0  0  0
 18  5  1  0  0  0  0
 19  2  1  0  0  0  0
 19  7  2  0  0  0  0
 20 22  1  0  0  0  0
 22 21  1  6  0  0  0
 22 23  1  0  0  0  0
 23 25  1  0  0  0  0
 24 23  2  0  0  0  0
M  END
>  <MODEL>
9

>  <REMARK>
 VINA RESULT:      -8.4      2.153      4.999
  Name = 
  3 active torsions:
  status: ('A' for Active; 'I' for Inactive)
    1  A    between atoms: C_2  and  CA_25
    2  A    between atoms: C_6  and  C_15
    3  A    between atoms: C_15  and  CA_25
                            x       y       z     vdW  Elec       q    Type
                         _______ _______ _______ _____ _____    ______ ____

>  <TORSDO>
F 3

$$$$
