=
 OpenBabel10272401553D

 28 32  0  0  1  0  0  0  0  0999 V2000
  187.1540  178.3910  141.0890 C   0  0  0  0  0  0  0  0  0  0  0  0
  184.5070  178.3050  145.0190 O   0  0  0  0  0  0  0  0  0  0  0  0
  188.1990  178.1720  144.5870 C   0  0  1  0  0  3  0  0  0  0  0  0
  186.7800  178.2200  146.5640 N   0  0  0  0  0  2  0  0  0  0  0  0
  185.7390  178.3150  143.0280 N   0  0  0  0  0  0  0  0  0  0  0  0
  188.1530  177.5460  143.1930 C   0  0  0  0  0  2  0  0  0  0  0  0
  184.8480  179.0090  140.8490 C   0  0  0  0  0  3  0  0  0  0  0  0
  185.6350  178.2420  144.4600 C   0  0  0  0  0  0  0  0  0  0  0  0
  184.5280  178.4770  142.2170 C   0  0  0  0  0  2  0  0  0  0  0  0
  186.8570  178.1080  145.2760 C   0  0  0  0  0  0  0  0  0  0  0  0
  186.0470  178.9280  140.3540 N   0  0  0  0  0  0  0  0  0  0  0  0
  187.0150  178.1080  142.3920 C   0  0  0  0  0  0  0  0  0  0  0  0
  189.0100  177.0290  146.6490 C   0  0  0  0  0  3  0  0  0  0  0  0
  190.6420  177.5330  144.9270 C   0  0  0  0  0  0  0  0  0  0  0  0
  191.3330  176.4310  146.9720 C   0  0  0  0  0  0  0  0  0  0  0  0
  189.3140  177.5660  145.3930 C   0  0  0  0  0  0  0  0  0  0  0  0
  191.6450  176.9650  145.7190 C   0  0  0  0  0  3  0  0  0  0  0  0
  190.9670  178.0460  143.7140 F   0  0  0  0  0  0  0  0  0  0  0  0
  192.4030  175.8300  147.8110 C   0  0  0  0  0  1  0  0  0  0  0  0
  190.0170  176.4630  147.4370 C   0  0  0  0  0  3  0  0  0  0  0  0
  188.4060  178.2140  140.4260 N   0  0  0  0  0  0  0  0  0  0  0  0
  189.3070  178.3780  139.2780 N   0  0  1  0  0  0  0  0  0  0  0  0
  189.7650  177.6960  140.3630 C   0  0  2  0  0  3  0  0  0  0  0  0
  189.7280  176.3000  140.2280 O   0  0  0  0  0  1  0  0  0  0  0  0
  189.3870  177.9660  136.8840 C   0  0  2  0  0  3  0  0  0  0  0  0
  188.7700  177.5420  138.2040 C   0  0  2  0  0  3  0  0  0  0  0  0
  187.9840  178.4060  137.2380 C   0  0  0  0  0  2  0  0  0  0  0  0
  189.3160  176.8040  135.9150 C   0  0  0  0  0  1  0  0  0  0  0  0
  1 12  2  0  0  0  0
  3 10  1  0  0  0  0
  3 16  1  1  0  0  0
  5  8  1  0  0  0  0
  6  3  1  0  0  0  0
  7  9  1  0  0  0  0
  8  2  2  0  0  0  0
  8 10  1  0  0  0  0
  9  5  1  0  0  0  0
 10  4  2  0  0  0  0
 11  7  2  0  0  0  0
 11  1  1  0  0  0  0
 12  5  1  0  0  0  0
 12  6  1  0  0  0  0
 13 20  1  0  0  0  0
 14 16  1  0  0  0  0
 14 17  2  0  0  0  0
 15 20  2  0  0  0  0
 15 19  1  0  0  0  0
 16 13  2  0  0  0  0
 17 15  1  0  0  0  0
 18 14  1  0  0  0  0
 21  1  1  0  0  0  0
 22 23  1  0  0  0  0
 22 21  1  1  0  0  0
 23 24  1  6  0  0  0
 23 21  1  0  0  0  0
 25 28  1  6  0  0  0
 25 27  1  0  0  0  0
 25 26  1  0  0  0  0
 26 27  1  6  0  0  0
 26 22  1  0  0  0  0
M  END
>  <MODEL>
1

>  <REMARK>
 VINA RESULT:      -9.9      0.000      0.000
  Name = 
  3 active torsions:
  status: ('A' for Active; 'I' for Inactive)
    1  A    between atoms: C_1  and  N_2
    2  A    between atoms: N_3  and  C_7
    3  A    between atoms: C_10  and  C_13
                            x       y       z     vdW  Elec       q    Type
                         _______ _______ _______ _____ _____    ______ ____

>  <TORSDO>
F 3

$$$$
=
 OpenBabel10272401553D

 28 32  0  0  1  0  0  0  0  0999 V2000
  186.8490  178.4200  139.8480 C   0  0  0  0  0  0  0  0  0  0  0  0
  191.3110  176.9270  140.4140 O   0  0  0  0  0  0  0  0  0  0  0  0
  188.5170  177.1780  142.8560 C   0  0  1  0  0  3  0  0  0  0  0  0
  190.7960  176.3450  143.0510 N   0  0  0  0  0  2  0  0  0  0  0  0
  189.1360  177.7160  140.0570 N   0  0  0  0  0  0  0  0  0  0  0  0
  187.8020  178.3190  142.1320 C   0  0  0  0  0  2  0  0  0  0  0  0
  188.1010  177.9830  137.8480 C   0  0  0  0  0  3  0  0  0  0  0  0
  190.1800  177.1980  140.8990 C   0  0  0  0  0  0  0  0  0  0  0  0
  189.3850  177.9140  138.6260 C   0  0  0  0  0  2  0  0  0  0  0  0
  189.9190  176.9720  142.3330 C   0  0  0  0  0  0  0  0  0  0  0  0
  186.9690  178.2450  138.4290 N   0  0  0  0  0  0  0  0  0  0  0  0
  187.8930  178.1470  140.6440 C   0  0  0  0  0  0  0  0  0  0  0  0
  189.5930  177.8900  144.9890 C   0  0  0  0  0  3  0  0  0  0  0  0
  187.3080  177.0860  145.0970 C   0  0  0  0  0  0  0  0  0  0  0  0
  188.4440  177.7930  147.1170 C   0  0  0  0  0  0  0  0  0  0  0  0
  188.4590  177.3870  144.3430 C   0  0  0  0  0  0  0  0  0  0  0  0
  187.3070  177.2920  146.4800 C   0  0  0  0  0  3  0  0  0  0  0  0
  186.1930  176.5970  144.4990 F   0  0  0  0  0  0  0  0  0  0  0  0
  188.4390  178.0090  148.5870 C   0  0  0  0  0  1  0  0  0  0  0  0
  189.5880  178.0930  146.3720 C   0  0  0  0  0  3  0  0  0  0  0  0
  185.5960  178.8360  140.3910 N   0  0  0  0  0  0  0  0  0  0  0  0
  184.7770  179.5750  141.3590 N   0  0  1  0  0  0  0  0  0  0  0  0
  184.1410  178.8180  140.4240 C   0  0  2  0  0  3  0  0  0  0  0  0
  183.6980  177.5720  140.8930 O   0  0  0  0  0  1  0  0  0  0  0  0
  183.9750  179.4860  143.6510 C   0  0  2  0  0  3  0  0  0  0  0  0
  184.9710  178.9250  142.6540 C   0  0  2  0  0  3  0  0  0  0  0  0
  185.4120  179.9560  143.6740 C   0  0  0  0  0  2  0  0  0  0  0  0
  183.7630  178.4720  144.7560 C   0  0  0  0  0  1  0  0  0  0  0  0
  1 21  1  0  0  0  0
  1 12  2  0  0  0  0
  2  8  2  0  0  0  0
  3 16  1  1  0  0  0
  5 12  1  0  0  0  0
  5  8  1  0  0  0  0
  6  3  1  0  0  0  0
  7 11  2  0  0  0  0
  7  9  1  0  0  0  0
  8 10  1  0  0  0  0
  9  5  1  0  0  0  0
 10  3  1  0  0  0  0
 10  4  2  0  0  0  0
 11  1  1  0  0  0  0
 12  6  1  0  0  0  0
 13 20  1  0  0  0  0
 14 17  2  0  0  0  0
 15 19  1  0  0  0  0
 16 13  2  0  0  0  0
 16 14  1  0  0  0  0
 17 15  1  0  0  0  0
 18 14  1  0  0  0  0
 20 15  2  0  0  0  0
 21 23  1  0  0  0  0
 22 21  1  6  0  0  0
 22 26  1  0  0  0  0
 23 24  1  1  0  0  0
 23 22  1  0  0  0  0
 25 27  1  0  0  0  0
 25 28  1  1  0  0  0
 26 25  1  0  0  0  0
 26 27  1  1  0  0  0
M  END
>  <MODEL>
2

>  <REMARK>
 VINA RESULT:      -9.6      2.234      5.102
  Name = 
  3 active torsions:
  status: ('A' for Active; 'I' for Inactive)
    1  A    between atoms: C_1  and  N_2
    2  A    between atoms: N_3  and  C_7
    3  A    between atoms: C_10  and  C_13
                            x       y       z     vdW  Elec       q    Type
                         _______ _______ _______ _____ _____    ______ ____

>  <TORSDO>
F 3

$$$$
=
 OpenBabel10272401553D

 28 32  0  0  1  0  0  0  0  0999 V2000
  186.9390  178.2990  139.3510 C   0  0  0  0  0  0  0  0  0  0  0  0
  191.4610  177.2280  140.2780 O   0  0  0  0  0  0  0  0  0  0  0  0
  188.4660  177.1910  142.4830 C   0  0  1  0  0  3  0  0  0  0  0  0
  190.7900  176.5740  142.8620 N   0  0  0  0  0  2  0  0  0  0  0  0
  189.2570  177.8120  139.7460 N   0  0  0  0  0  0  0  0  0  0  0  0
  187.7080  178.2660  141.7050 C   0  0  0  0  0  2  0  0  0  0  0  0
  188.3860  178.0030  137.4600 C   0  0  0  0  0  3  0  0  0  0  0  0
  190.2730  177.3870  140.6690 C   0  0  0  0  0  0  0  0  0  0  0  0
  189.6020  178.0480  138.3400 C   0  0  0  0  0  2  0  0  0  0  0  0
  189.9200  177.1230  142.0770 C   0  0  0  0  0  0  0  0  0  0  0  0
  187.1900  178.1510  137.9470 N   0  0  0  0  0  0  0  0  0  0  0  0
  187.9350  178.1190  140.2290 C   0  0  0  0  0  0  0  0  0  0  0  0
  189.3980  177.5430  144.7690 C   0  0  0  0  0  3  0  0  0  0  0  0
  186.9880  177.3850  144.5500 C   0  0  0  0  0  0  0  0  0  0  0  0
  187.9910  177.7180  146.7300 C   0  0  0  0  0  0  0  0  0  0  0  0
  188.2680  177.3780  143.9610 C   0  0  0  0  0  0  0  0  0  0  0  0
  186.8570  177.5550  145.9310 C   0  0  0  0  0  3  0  0  0  0  0  0
  185.8730  177.2260  143.7920 F   0  0  0  0  0  0  0  0  0  0  0  0
  187.8470  177.8980  148.1980 C   0  0  0  0  0  1  0  0  0  0  0  0
  189.2620  177.7120  146.1490 C   0  0  0  0  0  3  0  0  0  0  0  0
  185.6120  178.5900  139.7900 N   0  0  0  0  0  0  0  0  0  0  0  0
  184.2360  178.2020  140.1260 N   0  0  1  0  0  0  0  0  0  0  0  0
  184.5740  179.5170  140.2160 C   0  0  2  0  0  3  0  0  0  0  0  0
  184.1640  180.2960  139.1240 O   0  0  0  0  0  1  0  0  0  0  0  0
  182.1230  177.5390  139.1250 C   0  0  2  0  0  3  0  0  0  0  0  0
  183.5930  177.8130  138.8710 C   0  0  2  0  0  3  0  0  0  0  0  0
  183.0930  176.3870  138.9830 C   0  0  0  0  0  2  0  0  0  0  0  0
  181.3610  177.7140  137.8290 C   0  0  0  0  0  1  0  0  0  0  0  0
  1 21  1  0  0  0  0
  1 12  2  0  0  0  0
  2  8  2  0  0  0  0
  3 16  1  1  0  0  0
  5 12  1  0  0  0  0
  5  8  1  0  0  0  0
  6  3  1  0  0  0  0
  7 11  2  0  0  0  0
  7  9  1  0  0  0  0
  8 10  1  0  0  0  0
  9  5  1  0  0  0  0
 10  3  1  0  0  0  0
 10  4  2  0  0  0  0
 11  1  1  0  0  0  0
 12  6  1  0  0  0  0
 13 20  1  0  0  0  0
 14 17  2  0  0  0  0
 15 19  1  0  0  0  0
 16 14  1  0  0  0  0
 16 13  2  0  0  0  0
 17 15  1  0  0  0  0
 18 14  1  0  0  0  0
 20 15  2  0  0  0  0
 21 23  1  0  0  0  0
 22 21  1  6  0  0  0
 22 23  1  0  0  0  0
 23 24  1  6  0  0  0
 25 28  1  6  0  0  0
 26 27  1  1  0  0  0
 26 25  1  0  0  0  0
 26 22  1  0  0  0  0
 27 25  1  0  0  0  0
M  END
>  <MODEL>
3

>  <REMARK>
 VINA RESULT:      -9.5      2.479      4.948
  Name = 
  3 active torsions:
  status: ('A' for Active; 'I' for Inactive)
    1  A    between atoms: C_1  and  N_2
    2  A    between atoms: N_3  and  C_7
    3  A    between atoms: C_10  and  C_13
                            x       y       z     vdW  Elec       q    Type
                         _______ _______ _______ _____ _____    ______ ____

>  <TORSDO>
F 3

$$$$
=
 OpenBabel10272401553D

 28 32  0  0  1  0  0  0  0  0999 V2000
  189.2970  177.3440  142.8190 C   0  0  0  0  0  0  0  0  0  0  0  0
  187.4960  178.4130  138.5680 O   0  0  0  0  0  0  0  0  0  0  0  0
  186.0560  178.8120  141.9740 C   0  0  1  0  0  3  0  0  0  0  0  0
  185.2320  179.4140  139.7650 N   0  0  0  0  0  2  0  0  0  0  0  0
  188.4440  177.8210  140.6250 N   0  0  0  0  0  0  0  0  0  0  0  0
  186.8510  177.6630  142.5960 C   0  0  0  0  0  2  0  0  0  0  0  0
  190.8290  177.3570  140.9710 C   0  0  0  0  0  3  0  0  0  0  0  0
  187.3710  178.3370  139.8200 C   0  0  0  0  0  0  0  0  0  0  0  0
  189.6940  177.3960  139.9870 C   0  0  0  0  0  2  0  0  0  0  0  0
  186.1240  178.7900  140.4660 C   0  0  0  0  0  0  0  0  0  0  0  0
  190.6140  177.3030  142.2520 N   0  0  0  0  0  0  0  0  0  0  0  0
  188.2420  177.6120  142.0360 C   0  0  0  0  0  0  0  0  0  0  0  0
  183.6690  178.1090  141.8130 C   0  0  0  0  0  3  0  0  0  0  0  0
  184.2990  179.5300  143.6750 C   0  0  0  0  0  0  0  0  0  0  0  0
  182.0020  178.8010  143.4250 C   0  0  0  0  0  0  0  0  0  0  0  0
  184.6510  178.8220  142.5090 C   0  0  0  0  0  0  0  0  0  0  0  0
  182.9760  179.5150  144.1260 C   0  0  0  0  0  3  0  0  0  0  0  0
  185.2290  180.2320  144.3700 F   0  0  0  0  0  0  0  0  0  0  0  0
  180.5970  178.7880  143.9080 C   0  0  0  0  0  1  0  0  0  0  0  0
  182.3480  178.0980  142.2680 C   0  0  0  0  0  3  0  0  0  0  0  0
  189.1420  177.1460  144.2250 N   0  0  0  0  0  0  0  0  0  0  0  0
  188.3390  176.8480  145.4170 N   0  0  1  0  0  0  0  0  0  0  0  0
  189.6620  177.1210  145.5830 C   0  0  2  0  0  3  0  0  0  0  0  0
  189.9330  178.4310  146.0050 O   0  0  0  0  0  1  0  0  0  0  0  0
  186.8290  177.9100  146.9980 C   0  0  2  0  0  3  0  0  0  0  0  0
  187.4430  177.9870  145.6130 C   0  0  2  0  0  3  0  0  0  0  0  0
  186.0240  177.4870  145.7910 C   0  0  0  0  0  2  0  0  0  0  0  0
  186.4010  179.2990  147.4230 C   0  0  0  0  0  1  0  0  0  0  0  0
  1 21  1  0  0  0  0
  2  8  2  0  0  0  0
  3 16  1  6  0  0  0
  3  6  1  0  0  0  0
  4 10  2  0  0  0  0
  5 12  1  0  0  0  0
  7 11  2  0  0  0  0
  8 10  1  0  0  0  0
  8  5  1  0  0  0  0
  9  5  1  0  0  0  0
  9  7  1  0  0  0  0
 10  3  1  0  0  0  0
 11  1  1  0  0  0  0
 12  6  1  0  0  0  0
 12  1  2  0  0  0  0
 13 20  2  0  0  0  0
 13 16  1  0  0  0  0
 14 17  1  0  0  0  0
 14 18  1  0  0  0  0
 15 19  1  0  0  0  0
 15 17  2  0  0  0  0
 16 14  2  0  0  0  0
 20 15  1  0  0  0  0
 21 23  1  0  0  0  0
 22 21  1  6  0  0  0
 22 23  1  0  0  0  0
 22 26  1  0  0  0  0
 23 24  1  1  0  0  0
 25 28  1  6  0  0  0
 26 27  1  6  0  0  0
 26 25  1  0  0  0  0
 27 25  1  0  0  0  0
M  END
>  <MODEL>
4

>  <REMARK>
 VINA RESULT:      -9.5      2.549      7.093
  Name = 
  3 active torsions:
  status: ('A' for Active; 'I' for Inactive)
    1  A    between atoms: C_1  and  N_2
    2  A    between atoms: N_3  and  C_7
    3  A    between atoms: C_10  and  C_13
                            x       y       z     vdW  Elec       q    Type
                         _______ _______ _______ _____ _____    ______ ____

>  <TORSDO>
F 3

$$$$
=
 OpenBabel10272401553D

 28 32  0  0  1  0  0  0  0  0999 V2000
  185.7400  178.7500  140.3810 C   0  0  0  0  0  0  0  0  0  0  0  0
  181.7510  178.7490  142.9390 O   0  0  0  0  0  0  0  0  0  0  0  0
  185.3050  179.0230  144.0020 C   0  0  1  0  0  3  0  0  0  0  0  0
  183.2120  179.1020  145.2410 N   0  0  0  0  0  2  0  0  0  0  0  0
  183.6740  178.7020  141.6050 N   0  0  0  0  0  0  0  0  0  0  0  0
  185.8670  178.2550  142.8040 C   0  0  0  0  0  2  0  0  0  0  0  0
  183.6870  179.0540  139.1760 C   0  0  0  0  0  3  0  0  0  0  0  0
  183.0100  178.7670  142.8780 C   0  0  0  0  0  0  0  0  0  0  0  0
  182.8820  178.6310  140.3730 C   0  0  0  0  0  2  0  0  0  0  0  0
  183.8070  178.8670  144.1160 C   0  0  0  0  0  0  0  0  0  0  0  0
  184.9860  179.0680  139.2030 N   0  0  0  0  0  0  0  0  0  0  0  0
  185.1090  178.5880  141.5530 C   0  0  0  0  0  0  0  0  0  0  0  0
  185.7310  179.3210  146.4400 C   0  0  0  0  0  3  0  0  0  0  0  0
  187.0320  177.6430  145.2690 C   0  0  0  0  0  0  0  0  0  0  0  0
  187.3780  178.0150  147.6380 C   0  0  0  0  0  0  0  0  0  0  0  0
  186.0420  178.6440  145.2560 C   0  0  0  0  0  0  0  0  0  0  0  0
  187.6950  177.3340  146.4600 C   0  0  0  0  0  3  0  0  0  0  0  0
  187.3560  176.9700  144.1360 F   0  0  0  0  0  0  0  0  0  0  0  0
  188.0860  177.6840  148.9020 C   0  0  0  0  0  1  0  0  0  0  0  0
  186.3970  179.0090  147.6280 C   0  0  0  0  0  3  0  0  0  0  0  0
  187.1620  178.6590  140.2900 N   0  0  0  0  0  0  0  0  0  0  0  0
  188.4270  178.7330  139.5480 N   0  0  1  0  0  0  0  0  0  0  0  0
  188.4710  178.3850  140.8630 C   0  0  2  0  0  3  0  0  0  0  0  0
  188.6020  177.0070  141.0930 O   0  0  0  0  0  1  0  0  0  0  0  0
  189.6720  177.6820  137.7450 C   0  0  2  0  0  3  0  0  0  0  0  0
  188.4280  177.6100  138.6110 C   0  0  2  0  0  3  0  0  0  0  0  0
  188.3410  178.1380  137.1930 C   0  0  0  0  0  2  0  0  0  0  0  0
  189.9830  176.2960  137.2190 C   0  0  0  0  0  1  0  0  0  0  0  0
  1 12  2  0  0  0  0
  3 10  1  0  0  0  0
  3 16  1  1  0  0  0
  5  8  1  0  0  0  0
  6  3  1  0  0  0  0
  7 11  2  0  0  0  0
  7  9  1  0  0  0  0
  8  2  2  0  0  0  0
  8 10  1  0  0  0  0
  9  5  1  0  0  0  0
 10  4  2  0  0  0  0
 11  1  1  0  0  0  0
 12  5  1  0  0  0  0
 12  6  1  0  0  0  0
 13 20  1  0  0  0  0
 14 17  2  0  0  0  0
 15 19  1  0  0  0  0
 16 14  1  0  0  0  0
 16 13  2  0  0  0  0
 17 15  1  0  0  0  0
 18 14  1  0  0  0  0
 20 15  2  0  0  0  0
 21  1  1  0  0  0  0
 21 23  1  0  0  0  0
 22 21  1  1  0  0  0
 22 23  1  0  0  0  0
 23 24  1  6  0  0  0
 25 28  1  6  0  0  0
 25 26  1  0  0  0  0
 26 27  1  6  0  0  0
 26 22  1  0  0  0  0
 27 25  1  0  0  0  0
M  END
>  <MODEL>
5

>  <REMARK>
 VINA RESULT:      -9.4      2.327      2.895
  Name = 
  3 active torsions:
  status: ('A' for Active; 'I' for Inactive)
    1  A    between atoms: C_1  and  N_2
    2  A    between atoms: N_3  and  C_7
    3  A    between atoms: C_10  and  C_13
                            x       y       z     vdW  Elec       q    Type
                         _______ _______ _______ _____ _____    ______ ____

>  <TORSDO>
F 3

$$$$
=
 OpenBabel10272401553D

 28 32  0  0  1  0  0  0  0  0999 V2000
  186.1870  178.3650  141.8630 C   0  0  0  0  0  0  0  0  0  0  0  0
  184.3030  178.7880  146.1910 O   0  0  0  0  0  0  0  0  0  0  0  0
  187.8340  178.3070  145.1280 C   0  0  1  0  0  3  0  0  0  0  0  0
  186.8070  178.6180  147.3120 N   0  0  0  0  0  2  0  0  0  0  0  0
  185.1470  178.5490  144.0200 N   0  0  0  0  0  0  0  0  0  0  0  0
  187.4890  177.5890  143.8220 C   0  0  0  0  0  2  0  0  0  0  0  0
  183.9270  179.1610  141.9810 C   0  0  0  0  0  3  0  0  0  0  0  0
  185.3020  178.5890  145.4490 C   0  0  0  0  0  0  0  0  0  0  0  0
  183.8240  178.7570  143.4250 C   0  0  0  0  0  2  0  0  0  0  0  0
  186.6390  178.4080  146.0460 C   0  0  0  0  0  0  0  0  0  0  0  0
  185.0050  178.9410  141.2910 N   0  0  0  0  0  0  0  0  0  0  0  0
  186.2680  178.1890  143.1900 C   0  0  0  0  0  0  0  0  0  0  0  0
  188.8190  176.7790  146.8340 C   0  0  0  0  0  3  0  0  0  0  0  0
  190.3460  177.9400  145.3510 C   0  0  0  0  0  0  0  0  0  0  0  0
  191.2050  176.4390  147.0480 C   0  0  0  0  0  0  0  0  0  0  0  0
  189.0310  177.6660  145.7740 C   0  0  0  0  0  0  0  0  0  0  0  0
  191.4270  177.3240  145.9900 C   0  0  0  0  0  3  0  0  0  0  0  0
  190.5830  178.7970  144.3260 F   0  0  0  0  0  0  0  0  0  0  0  0
  192.3570  175.7880  147.7260 C   0  0  0  0  0  1  0  0  0  0  0  0
  189.9020  176.1660  147.4710 C   0  0  0  0  0  3  0  0  0  0  0  0
  187.2810  178.0340  141.0070 N   0  0  0  0  0  0  0  0  0  0  0  0
  188.4490  177.2240  140.6400 N   0  0  1  0  0  0  0  0  0  0  0  0
  188.1150  178.2720  139.8390 C   0  0  2  0  0  3  0  0  0  0  0  0
  188.8890  179.4240  140.0420 O   0  0  0  0  0  1  0  0  0  0  0  0
  190.8010  176.9140  141.1680 C   0  0  2  0  0  3  0  0  0  0  0  0
  189.4850  177.5090  141.6320 C   0  0  2  0  0  3  0  0  0  0  0  0
  189.9840  176.2080  142.2270 C   0  0  0  0  0  2  0  0  0  0  0  0
  191.9380  177.6630  141.8310 C   0  0  0  0  0  1  0  0  0  0  0  0
  1 12  2  0  0  0  0
  3 16  1  1  0  0  0
  3 10  1  0  0  0  0
  5  8  1  0  0  0  0
  6  3  1  0  0  0  0
  7  9  1  0  0  0  0
  8 10  1  0  0  0  0
  8  2  2  0  0  0  0
  9  5  1  0  0  0  0
 10  4  2  0  0  0  0
 11  1  1  0  0  0  0
 11  7  2  0  0  0  0
 12  6  1  0  0  0  0
 12  5  1  0  0  0  0
 13 20  1  0  0  0  0
 14 16  1  0  0  0  0
 14 17  2  0  0  0  0
 15 20  2  0  0  0  0
 15 19  1  0  0  0  0
 16 13  2  0  0  0  0
 17 15  1  0  0  0  0
 18 14  1  0  0  0  0
 21  1  1  0  0  0  0
 22 21  1  1  0  0  0
 22 26  1  0  0  0  0
 23 24  1  1  0  0  0
 23 22  1  0  0  0  0
 23 21  1  0  0  0  0
 25 26  1  0  0  0  0
 25 28  1  1  0  0  0
 25 27  1  0  0  0  0
 26 27  1  1  0  0  0
M  END
>  <MODEL>
6

>  <REMARK>
 VINA RESULT:      -9.4      1.624      2.296
  Name = 
  3 active torsions:
  status: ('A' for Active; 'I' for Inactive)
    1  A    between atoms: C_1  and  N_2
    2  A    between atoms: N_3  and  C_7
    3  A    between atoms: C_10  and  C_13
                            x       y       z     vdW  Elec       q    Type
                         _______ _______ _______ _____ _____    ______ ____

>  <TORSDO>
F 3

$$$$
=
 OpenBabel10272401553D

 28 32  0  0  1  0  0  0  0  0999 V2000
  189.3250  177.9340  143.2080 C   0  0  0  0  0  0  0  0  0  0  0  0
  187.4780  178.3040  138.8590 O   0  0  0  0  0  0  0  0  0  0  0  0
  185.9740  178.9900  142.1910 C   0  0  1  0  0  3  0  0  0  0  0  0
  185.1220  179.2390  139.9240 N   0  0  0  0  0  2  0  0  0  0  0  0
  188.4550  178.0580  140.9730 N   0  0  0  0  0  0  0  0  0  0  0  0
  186.8620  178.0030  142.9490 C   0  0  0  0  0  2  0  0  0  0  0  0
  190.8680  177.8560  141.3710 C   0  0  0  0  0  3  0  0  0  0  0  0
  187.3480  178.3720  140.1110 C   0  0  0  0  0  0  0  0  0  0  0  0
  189.7440  177.6710  140.3910 C   0  0  0  0  0  2  0  0  0  0  0  0
  186.0590  178.7880  140.6960 C   0  0  0  0  0  0  0  0  0  0  0  0
  190.6450  177.9420  142.6490 N   0  0  0  0  0  0  0  0  0  0  0  0
  188.2580  178.0080  142.3990 C   0  0  0  0  0  0  0  0  0  0  0  0
  183.5370  178.6040  141.8400 C   0  0  0  0  0  3  0  0  0  0  0  0
  184.2660  179.2300  144.0660 C   0  0  0  0  0  0  0  0  0  0  0  0
  181.9160  178.8410  143.6210 C   0  0  0  0  0  0  0  0  0  0  0  0
  184.5690  178.9410  142.7210 C   0  0  0  0  0  0  0  0  0  0  0  0
  182.9400  179.1780  144.5090 C   0  0  0  0  0  3  0  0  0  0  0  0
  185.2450  179.5610  144.9440 F   0  0  0  0  0  0  0  0  0  0  0  0
  180.5090  178.7880  144.0960 C   0  0  0  0  0  1  0  0  0  0  0  0
  182.2130  178.5540  142.2870 C   0  0  0  0  0  3  0  0  0  0  0  0
  189.1730  177.8980  144.6270 N   0  0  0  0  0  0  0  0  0  0  0  0
  189.7080  177.8710  145.9940 N   0  0  1  0  0  0  0  0  0  0  0  0
  188.3580  177.8240  145.8300 C   0  0  2  0  0  3  0  0  0  0  0  0
  187.8070  176.5390  145.9430 O   0  0  0  0  0  1  0  0  0  0  0  0
  191.5600  176.7270  147.0750 C   0  0  2  0  0  3  0  0  0  0  0  0
  190.3570  176.5710  146.1630 C   0  0  2  0  0  3  0  0  0  0  0  0
  191.7540  176.6260  145.5790 C   0  0  0  0  0  2  0  0  0  0  0  0
  191.8690  175.3870  147.7110 C   0  0  0  0  0  1  0  0  0  0  0  0
  1 21  1  0  0  0  0
  2  8  2  0  0  0  0
  3 16  1  1  0  0  0
  3  6  1  0  0  0  0
  4 10  2  0  0  0  0
  5 12  1  0  0  0  0
  7 11  2  0  0  0  0
  8 10  1  0  0  0  0
  8  5  1  0  0  0  0
  9  5  1  0  0  0  0
  9  7  1  0  0  0  0
 10  3  1  0  0  0  0
 11  1  1  0  0  0  0
 12  6  1  0  0  0  0
 12  1  2  0  0  0  0
 13 20  2  0  0  0  0
 13 16  1  0  0  0  0
 14 17  1  0  0  0  0
 14 18  1  0  0  0  0
 15 19  1  0  0  0  0
 15 17  2  0  0  0  0
 16 14  2  0  0  0  0
 20 15  1  0  0  0  0
 21 23  1  0  0  0  0
 22 21  1  6  0  0  0
 22 26  1  0  0  0  0
 23 24  1  6  0  0  0
 23 22  1  0  0  0  0
 25 28  1  1  0  0  0
 26 27  1  6  0  0  0
 26 25  1  0  0  0  0
 27 25  1  0  0  0  0
M  END
>  <MODEL>
7

>  <REMARK>
 VINA RESULT:      -9.2      2.351      7.137
  Name = 
  3 active torsions:
  status: ('A' for Active; 'I' for Inactive)
    1  A    between atoms: C_1  and  N_2
    2  A    between atoms: N_3  and  C_7
    3  A    between atoms: C_10  and  C_13
                            x       y       z     vdW  Elec       q    Type
                         _______ _______ _______ _____ _____    ______ ____

>  <TORSDO>
F 3

$$$$
=
 OpenBabel10272401553D

 28 32  0  0  1  0  0  0  0  0999 V2000
  189.8110  177.5910  141.2260 C   0  0  0  0  0  0  0  0  0  0  0  0
  189.9760  177.9230  145.9510 O   0  0  0  0  0  0  0  0  0  0  0  0
  187.0730  177.5790  143.6510 C   0  0  1  0  0  3  0  0  0  0  0  0
  187.2410  177.6670  146.0780 N   0  0  0  0  0  2  0  0  0  0  0  0
  189.9810  177.8030  143.6130 N   0  0  0  0  0  0  0  0  0  0  0  0
  187.7630  178.2420  142.4580 C   0  0  0  0  0  2  0  0  0  0  0  0
  191.9580  177.2890  142.2540 C   0  0  0  0  0  3  0  0  0  0  0  0
  189.3100  177.8510  144.8830 C   0  0  0  0  0  0  0  0  0  0  0  0
  191.4460  177.8230  143.5620 C   0  0  0  0  0  2  0  0  0  0  0  0
  187.8360  177.8020  144.9350 C   0  0  0  0  0  0  0  0  0  0  0  0
  191.1970  177.2240  141.2030 N   0  0  0  0  0  0  0  0  0  0  0  0
  189.2110  177.8550  142.3960 C   0  0  0  0  0  0  0  0  0  0  0  0
  185.1200  178.3880  144.9720 C   0  0  0  0  0  3  0  0  0  0  0  0
  184.8000  178.0380  142.5940 C   0  0  0  0  0  0  0  0  0  0  0  0
  182.9610  178.8150  143.9660 C   0  0  0  0  0  0  0  0  0  0  0  0
  185.6360  178.0110  143.7280 C   0  0  0  0  0  0  0  0  0  0  0  0
  183.4670  178.4400  142.7200 C   0  0  0  0  0  3  0  0  0  0  0  0
  185.2720  177.6770  141.3740 F   0  0  0  0  0  0  0  0  0  0  0  0
  181.5430  179.2400  144.0950 C   0  0  0  0  0  1  0  0  0  0  0  0
  183.7860  178.7890  145.0930 C   0  0  0  0  0  3  0  0  0  0  0  0
  189.0800  177.6180  140.0000 N   0  0  0  0  0  0  0  0  0  0  0  0
  188.6260  177.0160  138.7410 N   0  0  1  0  0  0  0  0  0  0  0  0
  188.2380  178.2890  139.0210 C   0  0  2  0  0  3  0  0  0  0  0  0
  188.9820  179.2790  138.3630 O   0  0  0  0  0  1  0  0  0  0  0  0
  189.4380  176.1380  136.6240 C   0  0  2  0  0  3  0  0  0  0  0  0
  189.8050  176.9030  137.8820 C   0  0  2  0  0  3  0  0  0  0  0  0
  190.1870  175.4440  137.7390 C   0  0  0  0  0  2  0  0  0  0  0  0
  190.4110  176.5090  135.5240 C   0  0  0  0  0  1  0  0  0  0  0  0
  1 12  2  0  0  0  0
  3 16  1  1  0  0  0
  3 10  1  0  0  0  0
  5  8  1  0  0  0  0
  6  3  1  0  0  0  0
  7  9  1  0  0  0  0
  8 10  1  0  0  0  0
  8  2  2  0  0  0  0
  9  5  1  0  0  0  0
 10  4  2  0  0  0  0
 11  1  1  0  0  0  0
 11  7  2  0  0  0  0
 12  6  1  0  0  0  0
 12  5  1  0  0  0  0
 13 20  1  0  0  0  0
 14 17  2  0  0  0  0
 14 16  1  0  0  0  0
 15 19  1  0  0  0  0
 15 20  2  0  0  0  0
 16 13  2  0  0  0  0
 17 15  1  0  0  0  0
 18 14  1  0  0  0  0
 21  1  1  0  0  0  0
 22 23  1  0  0  0  0
 22 21  1  1  0  0  0
 23 24  1  6  0  0  0
 23 21  1  0  0  0  0
 25 28  1  6  0  0  0
 25 27  1  0  0  0  0
 25 26  1  0  0  0  0
 26 27  1  1  0  0  0
 26 22  1  0  0  0  0
M  END
>  <MODEL>
8

>  <REMARK>
 VINA RESULT:      -9.1      2.537      5.102
  Name = 
  3 active torsions:
  status: ('A' for Active; 'I' for Inactive)
    1  A    between atoms: C_1  and  N_2
    2  A    between atoms: N_3  and  C_7
    3  A    between atoms: C_10  and  C_13
                            x       y       z     vdW  Elec       q    Type
                         _______ _______ _______ _____ _____    ______ ____

>  <TORSDO>
F 3

$$$$
=
 OpenBabel10272401553D

 28 32  0  0  1  0  0  0  0  0999 V2000
  187.9270  177.7440  142.3700 C   0  0  0  0  0  0  0  0  0  0  0  0
  186.5450  178.6080  137.9200 O   0  0  0  0  0  0  0  0  0  0  0  0
  189.3450  176.5350  139.2230 C   0  0  1  0  0  3  0  0  0  0  0  0
  188.5250  176.9540  136.9700 N   0  0  0  0  0  2  0  0  0  0  0  0
  187.1840  178.2640  140.1460 N   0  0  0  0  0  0  0  0  0  0  0  0
  189.5170  177.3330  140.5160 C   0  0  0  0  0  2  0  0  0  0  0  0
  185.7610  178.7390  142.0880 C   0  0  0  0  0  3  0  0  0  0  0  0
  187.3540  178.0810  138.7300 C   0  0  0  0  0  0  0  0  0  0  0  0
  186.0560  179.0540  140.6480 C   0  0  0  0  0  2  0  0  0  0  0  0
  188.4740  177.2630  138.2260 C   0  0  0  0  0  0  0  0  0  0  0  0
  186.6450  178.1700  142.8520 N   0  0  0  0  0  0  0  0  0  0  0  0
  188.1870  177.7710  141.0550 C   0  0  0  0  0  0  0  0  0  0  0  0
  191.7860  176.9600  138.9520 C   0  0  0  0  0  3  0  0  0  0  0  0
  190.8620  174.9920  137.8780 C   0  0  0  0  0  0  0  0  0  0  0  0
  193.2220  175.4970  137.6660 C   0  0  0  0  0  0  0  0  0  0  0  0
  190.6860  176.1430  138.6700 C   0  0  0  0  0  0  0  0  0  0  0  0
  192.1300  174.6750  137.3800 C   0  0  0  0  0  3  0  0  0  0  0  0
  189.8140  174.1810  137.5870 F   0  0  0  0  0  0  0  0  0  0  0  0
  194.5670  175.1570  137.1340 C   0  0  0  0  0  1  0  0  0  0  0  0
  193.0520  176.6400  138.4510 C   0  0  0  0  0  3  0  0  0  0  0  0
  188.8880  177.2500  143.3030 N   0  0  0  0  0  0  0  0  0  0  0  0
  189.2710  176.6760  144.5980 N   0  0  1  0  0  0  0  0  0  0  0  0
  190.2570  176.9650  143.7060 C   0  0  2  0  0  3  0  0  0  0  0  0
  190.9320  178.1680  143.9600 O   0  0  0  0  0  1  0  0  0  0  0  0
  188.8720  177.0590  146.9650 C   0  0  2  0  0  3  0  0  0  0  0  0
  189.0240  177.7100  145.6030 C   0  0  2  0  0  3  0  0  0  0  0  0
  187.6460  177.5100  146.2030 C   0  0  0  0  0  2  0  0  0  0  0  0
  189.1990  178.0790  148.0350 C   0  0  0  0  0  1  0  0  0  0  0  0
  1 11  1  0  0  0  0
  1 21  1  0  0  0  0
  2  8  2  0  0  0  0
  3 16  1  6  0  0  0
  3  6  1  0  0  0  0
  4 10  2  0  0  0  0
  5  9  1  0  0  0  0
  5 12  1  0  0  0  0
  6 12  1  0  0  0  0
  7 11  2  0  0  0  0
  8  5  1  0  0  0  0
  9  7  1  0  0  0  0
 10  8  1  0  0  0  0
 10  3  1  0  0  0  0
 12  1  2  0  0  0  0
 14 16  2  0  0  0  0
 15 20  1  0  0  0  0
 16 13  1  0  0  0  0
 17 15  2  0  0  0  0
 17 14  1  0  0  0  0
 18 14  1  0  0  0  0
 19 15  1  0  0  0  0
 20 13  2  0  0  0  0
 21 23  1  0  0  0  0
 22 21  1  6  0  0  0
 22 26  1  0  0  0  0
 23 24  1  1  0  0  0
 23 22  1  0  0  0  0
 25 28  1  1  0  0  0
 26 27  1  6  0  0  0
 26 25  1  0  0  0  0
 27 25  1  0  0  0  0
M  END
>  <MODEL>
9

>  <REMARK>
 VINA RESULT:      -9.0      2.973      7.003
  Name = 
  3 active torsions:
  status: ('A' for Active; 'I' for Inactive)
    1  A    between atoms: C_1  and  N_2
    2  A    between atoms: N_3  and  C_7
    3  A    between atoms: C_10  and  C_13
                            x       y       z     vdW  Elec       q    Type
                         _______ _______ _______ _____ _____    ______ ____

>  <TORSDO>
F 3

$$$$
