=
 OpenBabel10272414483D

 37 42  0  0  1  0  0  0  0  0999 V2000
  187.6670  177.8450  137.2850 C   0  0  0  0  0  0  0  0  0  0  0  0
  190.4130  175.9280  138.0940 C   0  0  2  0  0  3  0  0  0  0  0  0
  189.3820  178.3120  139.1990 C   0  0  0  0  0  2  0  0  0  0  0  0
  190.8530  176.6610  136.8120 C   0  0  0  0  0  2  0  0  0  0  0  0
  188.8790  175.9480  138.3020 C   0  0  2  0  0  3  0  0  0  0  0  0
  192.1070  176.0490  136.1760 C   0  0  1  0  0  3  0  0  0  0  0  0
  189.6920  177.0520  141.2180 O   0  0  0  0  0  1  0  0  0  0  0  0
  188.0190  175.4330  137.1510 C   0  0  1  0  0  3  0  0  0  0  0  0
  188.3900  178.9970  136.6020 C   0  0  0  0  0  1  0  0  0  0  0  0
  192.5880  176.8260  139.2470 C   0  0  0  0  0  2  0  0  0  0  0  0
  190.3630  177.5720  140.1100 C   0  0  1  0  0  3  0  0  0  0  0  0
  187.6420  176.6570  136.3320 C   0  0  0  0  0  2  0  0  0  0  0  0
  191.1150  176.4460  139.3800 C   0  0  1  0  0  3  0  0  0  0  0  0
  188.3460  177.3550  138.5770 C   0  0  2  0  0  3  0  0  0  0  0  0
  193.3880  176.3700  136.9580 C   0  0  1  0  0  3  0  0  0  0  0  0
  186.2450  178.2680  137.5990 C   0  0  0  0  0  1  0  0  0  0  0  0
  193.3800  175.8540  138.3920 C   0  0  0  0  0  2  0  0  0  0  0  0
  187.8190  174.0520  135.0750 C   0  0  0  0  0  2  0  0  0  0  0  0
  186.8400  172.9390  135.4500 C   0  0  1  0  0  0  0  0  0  0  0  0
  187.6980  170.7630  134.8440 C   0  0  2  0  0  3  0  0  0  0  0  0
  186.8100  171.8740  134.3560 C   0  0  0  0  0  2  0  0  0  0  0  0
  187.7120  170.9280  136.3470 C   0  0  0  0  0  2  0  0  0  0  0  0
  188.5700  172.9950  137.0630 C   0  0  0  0  0  2  0  0  0  0  0  0
  187.3460  172.3020  136.6730 N   0  0  1  0  0  0  0  0  0  0  0  0
  188.9880  170.9500  134.3480 O   0  0  0  0  0  1  0  0  0  0  0  0
  188.6380  174.3080  136.3140 C   0  0  2  0  0  3  0  0  0  0  0  0
  185.5460  173.4510  135.7190 O   0  0  0  0  0  0  0  0  0  0  0  0
  185.1900  174.4030  134.7460 C   0  0  0  0  0  1  0  0  0  0  0  0
  194.9840  176.6100  135.0040 C   0  0  0  0  0  3  0  0  0  0  0  0
  194.6350  175.9920  136.2150 C   0  0  0  0  0  0  0  0  0  0  0  0
  195.4840  175.0240  136.7640 C   0  0  0  0  0  3  0  0  0  0  0  0
  197.7170  173.4520  136.7980 Cl  0  0  0  0  0  0  0  0  0  0  0  0
  197.0040  175.2800  134.8980 C   0  0  0  0  0  3  0  0  0  0  0  0
  196.6630  174.6660  136.1060 C   0  0  0  0  0  0  0  0  0  0  0  0
  196.1650  176.2530  134.3460 C   0  0  0  0  0  3  0  0  0  0  0  0
  191.9420  174.5620  135.8720 C   0  0  0  0  0  2  0  0  0  0  0  0
  191.8050  174.3550  134.3780 C   0  0  0  0  0  1  0  0  0  0  0  0
  1 16  1  0  0  0  0
  1 14  1  0  0  0  0
  2  4  1  6  0  0  0
  2  5  1  0  0  0  0
  2 13  1  0  0  0  0
  3 11  1  0  0  0  0
  5 14  1  0  0  0  0
  6  4  1  0  0  0  0
  6 15  1  0  0  0  0
  8  5  1  0  0  0  0
  9  1  1  0  0  0  0
 10 13  1  0  0  0  0
 11  7  1  0  0  0  0
 12  8  1  0  0  0  0
 12  1  1  0  0  0  0
 13 11  1  0  0  0  0
 14  3  1  0  0  0  0
 15 17  1  0  0  0  0
 17 10  1  0  0  0  0
 18 19  1  0  0  0  0
 18 26  1  0  0  0  0
 19 27  1  0  0  0  0
 19 24  1  0  0  0  0
 20 22  1  0  0  0  0
 21 20  1  0  0  0  0
 21 19  1  0  0  0  0
 22 24  1  0  0  0  0
 24 23  1  0  0  0  0
 25 20  1  0  0  0  0
 26 23  1  0  0  0  0
 26  8  1  0  0  0  0
 28 27  1  0  0  0  0
 29 30  1  0  0  0  0
 30 31  2  0  0  0  0
 30 15  1  0  0  0  0
 33 34  2  0  0  0  0
 34 31  1  0  0  0  0
 34 32  1  0  0  0  0
 35 33  1  0  0  0  0
 35 29  2  0  0  0  0
 36  6  1  0  0  0  0
 37 36  1  0  0  0  0
M  END
>  <MODEL>
1

>  <REMARK>
 VINA RESULT:      -5.4      0.000      0.000
  Name = 
  4 active torsions:
  status: ('A' for Active; 'I' for Inactive)
    1  A    between atoms: C_5  and  O_12
    2  A    between atoms: C_6  and  C_31
    3  A    between atoms: C_7  and  C_14
    4  A    between atoms: C_20  and  C_36
                            x       y       z     vdW  Elec       q    Type
                         _______ _______ _______ _____ _____    ______ ____

>  <TORSDO>
F 4

$$$$
=
 OpenBabel10272414483D

 37 42  0  0  1  0  0  0  0  0999 V2000
  183.5970  178.1470  139.0000 C   0  0  0  0  0  0  0  0  0  0  0  0
  183.1230  176.1590  136.2250 C   0  0  2  0  0  3  0  0  0  0  0  0
  181.3300  177.6780  137.7900 C   0  0  0  0  0  2  0  0  0  0  0  0
  183.3240  175.1420  137.3650 C   0  0  0  0  0  2  0  0  0  0  0  0
  183.6120  177.5810  136.5950 C   0  0  2  0  0  3  0  0  0  0  0  0
  183.6050  173.7230  136.8540 C   0  0  1  0  0  3  0  0  0  0  0  0
  180.6620  178.4190  135.6070 O   0  0  0  0  0  1  0  0  0  0  0  0
  185.0510  177.7100  137.0880 C   0  0  1  0  0  3  0  0  0  0  0  0
  183.0230  177.2070  140.0500 C   0  0  0  0  0  1  0  0  0  0  0  0
  180.8950  174.9160  135.6280 C   0  0  0  0  0  2  0  0  0  0  0  0
  180.7860  177.2870  136.4150 C   0  0  1  0  0  3  0  0  0  0  0  0
  184.9800  177.6450  138.6050 C   0  0  0  0  0  2  0  0  0  0  0  0
  181.6600  176.2360  135.7090 C   0  0  1  0  0  3  0  0  0  0  0  0
  182.7710  178.2180  137.7020 C   0  0  2  0  0  3  0  0  0  0  0  0
  182.3550  173.0380  136.2840 C   0  0  1  0  0  3  0  0  0  0  0  0
  183.7170  179.5380  139.5900 C   0  0  0  0  0  1  0  0  0  0  0  0
  181.7380  173.7700  135.0980 C   0  0  0  0  0  2  0  0  0  0  0  0
  187.2670  176.5820  137.3600 C   0  0  0  0  0  2  0  0  0  0  0  0
  188.2790  177.5940  136.8220 C   0  0  1  0  0  0  0  0  0  0  0  0
  189.7990  176.5740  135.2460 C   0  0  2  0  0  3  0  0  0  0  0  0
  189.6560  176.9460  136.6950 C   0  0  0  0  0  2  0  0  0  0  0  0
  188.8490  177.5020  134.5250 C   0  0  0  0  0  2  0  0  0  0  0  0
  186.6070  177.2560  135.1820 C   0  0  0  0  0  2  0  0  0  0  0  0
  187.8440  177.9750  135.4710 N   0  0  1  0  0  0  0  0  0  0  0  0
  189.3830  175.2550  135.0630 O   0  0  0  0  0  1  0  0  0  0  0  0
  186.0500  176.7180  136.4820 C   0  0  2  0  0  3  0  0  0  0  0  0
  188.3220  178.7650  137.6200 O   0  0  0  0  0  0  0  0  0  0  0  0
  188.9170  178.4820  138.8630 C   0  0  0  0  0  1  0  0  0  0  0  0
  183.7350  170.9160  136.4140 C   0  0  0  0  0  3  0  0  0  0  0  0
  182.5620  171.5770  136.0160 C   0  0  0  0  0  0  0  0  0  0  0  0
  181.5440  170.8530  135.3840 C   0  0  0  0  0  3  0  0  0  0  0  0
  180.4230  168.5890  134.3470 Cl  0  0  0  0  0  0  0  0  0  0  0  0
  182.8710  168.8340  135.5330 C   0  0  0  0  0  3  0  0  0  0  0  0
  181.7000  169.4860  135.1400 C   0  0  0  0  0  0  0  0  0  0  0  0
  183.8900  169.5490  136.1710 C   0  0  0  0  0  3  0  0  0  0  0  0
  184.8050  173.6670  135.9140 C   0  0  0  0  0  2  0  0  0  0  0  0
  186.0270  173.1820  136.6680 C   0  0  0  0  0  1  0  0  0  0  0  0
  1 16  1  0  0  0  0
  1  9  1  0  0  0  0
  2  5  1  0  0  0  0
  2  4  1  1  0  0  0
  5  8  1  0  0  0  0
  5 14  1  0  0  0  0
  6  4  1  0  0  0  0
  7 11  1  0  0  0  0
  8 12  1  0  0  0  0
 10 13  1  0  0  0  0
 11  3  1  0  0  0  0
 12  1  1  0  0  0  0
 13  2  1  0  0  0  0
 13 11  1  0  0  0  0
 14  3  1  0  0  0  0
 14  1  1  0  0  0  0
 15  6  1  0  0  0  0
 17 10  1  0  0  0  0
 17 15  1  0  0  0  0
 19 18  1  0  0  0  0
 19 27  1  0  0  0  0
 20 21  1  0  0  0  0
 21 19  1  0  0  0  0
 22 20  1  0  0  0  0
 22 24  1  0  0  0  0
 23 24  1  0  0  0  0
 23 26  1  0  0  0  0
 24 19  1  0  0  0  0
 25 20  1  0  0  0  0
 26  8  1  0  0  0  0
 26 18  1  0  0  0  0
 27 28  1  0  0  0  0
 30 15  1  0  0  0  0
 30 29  2  0  0  0  0
 31 30  1  0  0  0  0
 32 34  1  0  0  0  0
 33 35  2  0  0  0  0
 34 31  2  0  0  0  0
 34 33  1  0  0  0  0
 35 29  1  0  0  0  0
 36 37  1  0  0  0  0
 36  6  1  0  0  0  0
M  END
>  <MODEL>
2

>  <REMARK>
 VINA RESULT:      -4.8      4.682      9.277
  Name = 
  4 active torsions:
  status: ('A' for Active; 'I' for Inactive)
    1  A    between atoms: C_5  and  O_12
    2  A    between atoms: C_6  and  C_31
    3  A    between atoms: C_7  and  C_14
    4  A    between atoms: C_20  and  C_36
                            x       y       z     vdW  Elec       q    Type
                         _______ _______ _______ _____ _____    ______ ____

>  <TORSDO>
F 4

$$$$
=
 OpenBabel10272414483D

 37 42  0  0  1  0  0  0  0  0999 V2000
  190.8720  176.9730  139.8170 C   0  0  0  0  0  0  0  0  0  0  0  0
  189.0220  176.6110  136.9330 C   0  0  2  0  0  3  0  0  0  0  0  0
  188.8120  178.4090  139.0990 C   0  0  0  0  0  2  0  0  0  0  0  0
  188.5540  175.4330  137.8090 C   0  0  0  0  0  2  0  0  0  0  0  0
  190.3610  177.2240  137.4130 C   0  0  2  0  0  3  0  0  0  0  0  0
  187.7780  174.3740  137.0160 C   0  0  1  0  0  3  0  0  0  0  0  0
  188.6880  179.9740  137.2840 O   0  0  0  0  0  1  0  0  0  0  0  0
  191.5390  176.2670  137.5770 C   0  0  1  0  0  3  0  0  0  0  0  0
  189.8780  176.3670  140.7980 C   0  0  0  0  0  1  0  0  0  0  0  0
  186.5070  177.2940  136.6620 C   0  0  0  0  0  2  0  0  0  0  0  0
  188.0670  178.8550  137.8400 C   0  0  1  0  0  3  0  0  0  0  0  0
  191.5320  175.8430  139.0370 C   0  0  0  0  0  2  0  0  0  0  0  0
  187.9630  177.7380  136.7860 C   0  0  1  0  0  3  0  0  0  0  0  0
  190.2330  177.9090  138.7740 C   0  0  2  0  0  3  0  0  0  0  0  0
  186.3620  174.8310  136.6420 C   0  0  1  0  0  3  0  0  0  0  0  0
  191.9300  177.7360  140.5890 C   0  0  0  0  0  1  0  0  0  0  0  0
  186.3280  176.0800  135.7690 C   0  0  0  0  0  2  0  0  0  0  0  0
  192.1930  173.8750  137.2490 C   0  0  0  0  0  2  0  0  0  0  0  0
  193.6790  173.9310  136.8940 C   0  0  1  0  0  0  0  0  0  0  0  0
  194.1670  172.6240  134.9210 C   0  0  2  0  0  3  0  0  0  0  0  0
  194.1590  172.5600  136.4230 C   0  0  0  0  0  2  0  0  0  0  0  0
  194.2830  174.0990  134.6100 C   0  0  0  0  0  2  0  0  0  0  0  0
  192.5020  175.3840  135.4440 C   0  0  0  0  0  2  0  0  0  0  0  0
  193.8260  174.8620  135.7670 N   0  0  1  0  0  0  0  0  0  0  0  0
  192.9530  172.1440  134.4310 O   0  0  0  0  0  1  0  0  0  0  0  0
  191.5740  175.0860  136.6010 C   0  0  2  0  0  3  0  0  0  0  0  0
  194.4570  174.4170  137.9740 O   0  0  0  0  0  0  0  0  0  0  0  0
  195.2420  173.3790  138.5110 C   0  0  0  0  0  1  0  0  0  0  0  0
  185.7580  173.1740  134.8220 C   0  0  0  0  0  3  0  0  0  0  0  0
  185.5160  173.7200  136.0920 C   0  0  0  0  0  0  0  0  0  0  0  0
  184.4850  173.1990  136.8820 C   0  0  0  0  0  3  0  0  0  0  0  0
  182.4050  171.5060  137.3980 Cl  0  0  0  0  0  0  0  0  0  0  0  0
  183.9350  171.6130  135.1380 C   0  0  0  0  0  3  0  0  0  0  0  0
  183.6940  172.1500  136.4050 C   0  0  0  0  0  0  0  0  0  0  0  0
  184.9680  172.1240  134.3460 C   0  0  0  0  0  3  0  0  0  0  0  0
  188.5710  173.8330  135.8300 C   0  0  0  0  0  2  0  0  0  0  0  0
  188.9810  172.3990  136.0960 C   0  0  0  0  0  1  0  0  0  0  0  0
  1 16  1  0  0  0  0
  1  9  1  0  0  0  0
  2  5  1  0  0  0  0
  2  4  1  1  0  0  0
  5  8  1  0  0  0  0
  5 14  1  0  0  0  0
  6  4  1  0  0  0  0
  7 11  1  0  0  0  0
  8 12  1  0  0  0  0
 10 13  1  0  0  0  0
 11  3  1  0  0  0  0
 12  1  1  0  0  0  0
 13  2  1  0  0  0  0
 13 11  1  0  0  0  0
 14  3  1  0  0  0  0
 14  1  1  0  0  0  0
 15  6  1  0  0  0  0
 17 15  1  0  0  0  0
 17 10  1  0  0  0  0
 19 18  1  0  0  0  0
 19 27  1  0  0  0  0
 20 21  1  0  0  0  0
 21 19  1  0  0  0  0
 22 20  1  0  0  0  0
 22 24  1  0  0  0  0
 23 24  1  0  0  0  0
 23 26  1  0  0  0  0
 24 19  1  0  0  0  0
 25 20  1  0  0  0  0
 26 18  1  0  0  0  0
 26  8  1  0  0  0  0
 27 28  1  0  0  0  0
 29 30  1  0  0  0  0
 30 15  1  0  0  0  0
 30 31  2  0  0  0  0
 33 34  2  0  0  0  0
 34 31  1  0  0  0  0
 34 32  1  0  0  0  0
 35 29  2  0  0  0  0
 35 33  1  0  0  0  0
 36 37  1  0  0  0  0
 36  6  1  0  0  0  0
M  END
>  <MODEL>
3

>  <REMARK>
 VINA RESULT:      -4.7      3.578      7.323
  Name = 
  4 active torsions:
  status: ('A' for Active; 'I' for Inactive)
    1  A    between atoms: C_5  and  O_12
    2  A    between atoms: C_6  and  C_31
    3  A    between atoms: C_7  and  C_14
    4  A    between atoms: C_20  and  C_36
                            x       y       z     vdW  Elec       q    Type
                         _______ _______ _______ _____ _____    ______ ____

>  <TORSDO>
F 4

$$$$
=
 OpenBabel10272414483D

 37 42  0  0  1  0  0  0  0  0999 V2000
  185.6190  177.4900  135.3620 C   0  0  0  0  0  0  0  0  0  0  0  0
  187.8800  175.8500  137.3810 C   0  0  2  0  0  3  0  0  0  0  0  0
  187.2500  178.5860  137.0830 C   0  0  0  0  0  2  0  0  0  0  0  0
  188.5430  175.8070  135.9910 C   0  0  0  0  0  2  0  0  0  0  0  0
  186.3670  176.1760  137.3160 C   0  0  2  0  0  3  0  0  0  0  0  0
  189.6980  174.8010  135.9140 C   0  0  1  0  0  3  0  0  0  0  0  0
  187.1660  178.4280  139.4770 O   0  0  0  0  0  1  0  0  0  0  0  0
  185.5080  175.2910  136.4160 C   0  0  1  0  0  3  0  0  0  0  0  0
  186.5980  178.0600  134.3460 C   0  0  0  0  0  1  0  0  0  0  0  0
  190.0980  176.8910  138.3100 C   0  0  0  0  0  2  0  0  0  0  0  0
  188.0020  178.2530  138.3730 C   0  0  1  0  0  3  0  0  0  0  0  0
  185.4340  176.0060  135.0760 C   0  0  0  0  0  2  0  0  0  0  0  0
  188.5730  176.8240  138.3730 C   0  0  1  0  0  3  0  0  0  0  0  0
  186.0970  177.5980  136.8230 C   0  0  2  0  0  3  0  0  0  0  0  0
  190.9570  175.2830  136.6460 C   0  0  1  0  0  3  0  0  0  0  0  0
  184.2870  178.2000  135.2210 C   0  0  0  0  0  1  0  0  0  0  0  0
  190.7470  175.5300  138.1360 C   0  0  0  0  0  2  0  0  0  0  0  0
  185.6730  173.2900  134.9240 C   0  0  0  0  0  2  0  0  0  0  0  0
  184.2960  172.6320  135.0140 C   0  0  1  0  0  0  0  0  0  0  0  0
  184.4720  170.2650  135.4650 C   0  0  2  0  0  3  0  0  0  0  0  0
  184.3240  171.2590  134.3470 C   0  0  0  0  0  2  0  0  0  0  0  0
  183.9410  170.9880  136.6820 C   0  0  0  0  0  2  0  0  0  0  0  0
  185.1240  172.9490  137.2070 C   0  0  0  0  0  2  0  0  0  0  0  0
  183.9990  172.4260  136.4380 N   0  0  1  0  0  0  0  0  0  0  0  0
  185.8250  169.9790  135.6530 O   0  0  0  0  0  1  0  0  0  0  0  0
  185.9570  173.8300  136.3020 C   0  0  2  0  0  3  0  0  0  0  0  0
  183.2840  173.4610  134.4670 O   0  0  0  0  0  0  0  0  0  0  0  0
  182.2580  173.6580  135.4090 C   0  0  0  0  0  1  0  0  0  0  0  0
  192.3840  173.8730  135.0970 C   0  0  0  0  0  3  0  0  0  0  0  0
  192.1580  174.4290  136.3670 C   0  0  0  0  0  0  0  0  0  0  0  0
  193.0890  174.2130  137.3890 C   0  0  0  0  0  3  0  0  0  0  0  0
  195.3860  173.1720  138.4370 Cl  0  0  0  0  0  0  0  0  0  0  0  0
  194.4460  172.8830  135.8890 C   0  0  0  0  0  3  0  0  0  0  0  0
  194.2280  173.4390  137.1520 C   0  0  0  0  0  0  0  0  0  0  0  0
  193.5240  173.1000  134.8600 C   0  0  0  0  0  3  0  0  0  0  0  0
  189.2720  173.3900  136.3110 C   0  0  0  0  0  2  0  0  0  0  0  0
  189.0380  172.5550  135.0680 C   0  0  0  0  0  1  0  0  0  0  0  0
  1 14  1  0  0  0  0
  2  4  1  6  0  0  0
  2 13  1  0  0  0  0
  3 11  1  0  0  0  0
  5  2  1  0  0  0  0
  6  4  1  0  0  0  0
  6 36  1  0  0  0  0
  6 15  1  0  0  0  0
  8  5  1  0  0  0  0
  9  1  1  0  0  0  0
 10 13  1  0  0  0  0
 11  7  1  0  0  0  0
 12  1  1  0  0  0  0
 12  8  1  0  0  0  0
 13 11  1  0  0  0  0
 14  3  1  0  0  0  0
 14  5  1  0  0  0  0
 15 17  1  0  0  0  0
 16  1  1  0  0  0  0
 17 10  1  0  0  0  0
 18 19  1  0  0  0  0
 18 26  1  0  0  0  0
 19 24  1  0  0  0  0
 20 25  1  0  0  0  0
 20 22  1  0  0  0  0
 21 19  1  0  0  0  0
 21 20  1  0  0  0  0
 24 22  1  0  0  0  0
 24 23  1  0  0  0  0
 26  8  1  0  0  0  0
 26 23  1  0  0  0  0
 27 19  1  0  0  0  0
 27 28  1  0  0  0  0
 29 30  1  0  0  0  0
 30 15  1  0  0  0  0
 30 31  2  0  0  0  0
 33 34  2  0  0  0  0
 34 31  1  0  0  0  0
 34 32  1  0  0  0  0
 35 29  2  0  0  0  0
 35 33  1  0  0  0  0
 37 36  1  0  0  0  0
M  END
>  <MODEL>
4

>  <REMARK>
 VINA RESULT:      -4.2      2.168      3.013
  Name = 
  4 active torsions:
  status: ('A' for Active; 'I' for Inactive)
    1  A    between atoms: C_5  and  O_12
    2  A    between atoms: C_6  and  C_31
    3  A    between atoms: C_7  and  C_14
    4  A    between atoms: C_20  and  C_36
                            x       y       z     vdW  Elec       q    Type
                         _______ _______ _______ _____ _____    ______ ____

>  <TORSDO>
F 4

$$$$
=
 OpenBabel10272414483D

 37 42  0  0  1  0  0  0  0  0999 V2000
  190.8640  176.9830  139.9000 C   0  0  0  0  0  0  0  0  0  0  0  0
  189.2210  176.6080  136.8940 C   0  0  2  0  0  3  0  0  0  0  0  0
  188.7410  178.2850  139.1130 C   0  0  0  0  0  2  0  0  0  0  0  0
  188.7980  175.3590  137.6920 C   0  0  0  0  0  2  0  0  0  0  0  0
  190.4760  177.3010  137.4810 C   0  0  2  0  0  3  0  0  0  0  0  0
  188.1570  174.2790  136.8120 C   0  0  1  0  0  3  0  0  0  0  0  0
  188.5980  179.9160  137.3580 O   0  0  0  0  0  1  0  0  0  0  0  0
  191.7150  176.4320  137.6790 C   0  0  1  0  0  3  0  0  0  0  0  0
  189.8660  176.2590  140.7930 C   0  0  0  0  0  1  0  0  0  0  0  0
  186.6790  177.1050  136.4970 C   0  0  0  0  0  2  0  0  0  0  0  0
  188.0370  178.7280  137.8290 C   0  0  1  0  0  3  0  0  0  0  0  0
  191.6560  175.9440  139.1180 C   0  0  0  0  0  2  0  0  0  0  0  0
  188.0850  177.6550  136.7280 C   0  0  1  0  0  3  0  0  0  0  0  0
  190.2140  177.9130  138.8580 C   0  0  2  0  0  3  0  0  0  0  0  0
  186.7330  174.6410  136.3690 C   0  0  1  0  0  3  0  0  0  0  0  0
  191.8110  177.7910  140.7650 C   0  0  0  0  0  1  0  0  0  0  0  0
  186.6500  175.9220  135.5470 C   0  0  0  0  0  2  0  0  0  0  0  0
  192.7270  174.1850  137.2460 C   0  0  0  0  0  2  0  0  0  0  0  0
  194.1720  174.4880  136.8480 C   0  0  1  0  0  0  0  0  0  0  0  0
  194.7900  173.3370  134.8160 C   0  0  2  0  0  3  0  0  0  0  0  0
  194.8460  173.2260  136.3150 C   0  0  0  0  0  2  0  0  0  0  0  0
  194.6610  174.8200  134.5550 C   0  0  0  0  0  2  0  0  0  0  0  0
  192.7300  175.7790  135.4880 C   0  0  0  0  0  2  0  0  0  0  0  0
  194.1300  175.4650  135.7520 N   0  0  1  0  0  0  0  0  0  0  0  0
  193.6500  172.6850  134.3460 O   0  0  0  0  0  1  0  0  0  0  0  0
  191.9010  175.3020  136.6600 C   0  0  2  0  0  3  0  0  0  0  0  0
  194.9010  175.0580  137.9220 O   0  0  0  0  0  0  0  0  0  0  0  0
  195.3640  174.0460  138.7830 C   0  0  0  0  0  1  0  0  0  0  0  0
  184.8570  173.6940  134.9530 C   0  0  0  0  0  3  0  0  0  0  0  0
  186.0130  173.4940  135.7240 C   0  0  0  0  0  0  0  0  0  0  0  0
  186.5290  172.2020  135.8710 C   0  0  0  0  0  3  0  0  0  0  0  0
  186.5410  169.5020  135.4550 Cl  0  0  0  0  0  0  0  0  0  0  0  0
  184.7370  171.3180  134.5020 C   0  0  0  0  0  3  0  0  0  0  0  0
  185.8910  171.1160  135.2650 C   0  0  0  0  0  0  0  0  0  0  0  0
  184.2200  172.6080  134.3460 C   0  0  0  0  0  3  0  0  0  0  0  0
  189.0590  173.8550  135.6560 C   0  0  0  0  0  2  0  0  0  0  0  0
  189.7140  172.5260  135.9750 C   0  0  0  0  0  1  0  0  0  0  0  0
  1 16  1  0  0  0  0
  1  9  1  0  0  0  0
  2  5  1  0  0  0  0
  2  4  1  1  0  0  0
  5  8  1  0  0  0  0
  5 14  1  0  0  0  0
  6  4  1  0  0  0  0
  7 11  1  0  0  0  0
  8 12  1  0  0  0  0
 10 13  1  0  0  0  0
 11  3  1  0  0  0  0
 12  1  1  0  0  0  0
 13  2  1  0  0  0  0
 13 11  1  0  0  0  0
 14  3  1  0  0  0  0
 14  1  1  0  0  0  0
 15  6  1  0  0  0  0
 17 15  1  0  0  0  0
 17 10  1  0  0  0  0
 19 18  1  0  0  0  0
 19 27  1  0  0  0  0
 20 21  1  0  0  0  0
 21 19  1  0  0  0  0
 22 20  1  0  0  0  0
 22 24  1  0  0  0  0
 23 24  1  0  0  0  0
 23 26  1  0  0  0  0
 24 19  1  0  0  0  0
 25 20  1  0  0  0  0
 26 18  1  0  0  0  0
 26  8  1  0  0  0  0
 27 28  1  0  0  0  0
 29 30  1  0  0  0  0
 30 31  2  0  0  0  0
 30 15  1  0  0  0  0
 33 34  2  0  0  0  0
 34 32  1  0  0  0  0
 34 31  1  0  0  0  0
 35 33  1  0  0  0  0
 35 29  2  0  0  0  0
 36 37  1  0  0  0  0
 36  6  1  0  0  0  0
M  END
>  <MODEL>
5

>  <REMARK>
 VINA RESULT:      -4.2      3.158      7.113
  Name = 
  4 active torsions:
  status: ('A' for Active; 'I' for Inactive)
    1  A    between atoms: C_5  and  O_12
    2  A    between atoms: C_6  and  C_31
    3  A    between atoms: C_7  and  C_14
    4  A    between atoms: C_20  and  C_36
                            x       y       z     vdW  Elec       q    Type
                         _______ _______ _______ _____ _____    ______ ____

>  <TORSDO>
F 4

$$$$
=
 OpenBabel10272414483D

 37 42  0  0  1  0  0  0  0  0999 V2000
  188.9300  177.0490  135.1530 C   0  0  0  0  0  0  0  0  0  0  0  0
  186.6160  176.0440  137.5000 C   0  0  2  0  0  3  0  0  0  0  0  0
  186.9510  175.3860  134.7750 C   0  0  0  0  0  2  0  0  0  0  0  0
  186.1670  177.4740  137.1440 C   0  0  0  0  0  2  0  0  0  0  0  0
  188.0730  175.7450  137.0680 C   0  0  2  0  0  3  0  0  0  0  0  0
  185.1640  178.0510  138.1500 C   0  0  1  0  0  3  0  0  0  0  0  0
  186.7110  173.1760  135.6790 O   0  0  0  0  0  1  0  0  0  0  0  0
  189.1500  176.7080  137.5610 C   0  0  1  0  0  3  0  0  0  0  0  0
  188.0450  177.9980  134.3580 C   0  0  0  0  0  1  0  0  0  0  0  0
  184.1790  175.2410  136.9630 C   0  0  0  0  0  2  0  0  0  0  0  0
  186.0680  174.4080  135.5520 C   0  0  1  0  0  3  0  0  0  0  0  0
  189.3290  177.7340  136.4530 C   0  0  0  0  0  2  0  0  0  0  0  0
  185.6760  174.9390  136.9420 C   0  0  1  0  0  3  0  0  0  0  0  0
  188.2390  175.7300  135.5480 C   0  0  2  0  0  3  0  0  0  0  0  0
  183.7640  177.4360  138.0130 C   0  0  1  0  0  3  0  0  0  0  0  0
  190.1740  176.7370  134.3460 C   0  0  0  0  0  1  0  0  0  0  0  0
  183.7290  175.9290  138.2390 C   0  0  0  0  0  2  0  0  0  0  0  0
  190.0480  178.2240  139.3360 C   0  0  0  0  0  2  0  0  0  0  0  0
  190.9910  177.3390  140.1520 C   0  0  1  0  0  0  0  0  0  0  0  0
  190.5500  177.5250  142.5200 C   0  0  2  0  0  3  0  0  0  0  0  0
  191.4250  178.0660  141.4230 C   0  0  0  0  0  2  0  0  0  0  0  0
  190.1070  176.1720  142.0140 C   0  0  0  0  0  2  0  0  0  0  0  0
  188.8860  176.2670  140.0090 C   0  0  0  0  0  2  0  0  0  0  0  0
  190.2330  176.1490  140.5600 N   0  0  1  0  0  0  0  0  0  0  0  0
  189.4350  178.3500  142.6710 O   0  0  0  0  0  1  0  0  0  0  0  0
  188.8990  177.3350  138.9360 C   0  0  2  0  0  3  0  0  0  0  0  0
  192.1040  176.9140  139.3850 O   0  0  0  0  0  0  0  0  0  0  0  0
  193.3020  177.2890  140.0210 C   0  0  0  0  0  1  0  0  0  0  0  0
  182.1510  177.5940  139.9620 C   0  0  0  0  0  3  0  0  0  0  0  0
  182.7250  178.1640  138.8140 C   0  0  0  0  0  0  0  0  0  0  0  0
  182.3490  179.4530  138.4230 C   0  0  0  0  0  3  0  0  0  0  0  0
  180.9310  181.7760  138.6640 Cl  0  0  0  0  0  0  0  0  0  0  0  0
  180.8250  179.5910  140.3000 C   0  0  0  0  0  3  0  0  0  0  0  0
  181.3990  180.1640  139.1620 C   0  0  0  0  0  0  0  0  0  0  0  0
  181.2020  178.3060  140.7010 C   0  0  0  0  0  3  0  0  0  0  0  0
  185.6930  178.0320  139.5820 C   0  0  0  0  0  2  0  0  0  0  0  0
  185.2320  179.2740  140.3170 C   0  0  0  0  0  1  0  0  0  0  0  0
  1 14  1  0  0  0  0
  1 12  1  0  0  0  0
  2  4  1  6  0  0  0
  3 14  1  0  0  0  0
  3 11  1  0  0  0  0
  4  6  1  0  0  0  0
  5  2  1  0  0  0  0
  5  8  1  0  0  0  0
  6 36  1  0  0  0  0
  8 26  1  0  0  0  0
  9  1  1  0  0  0  0
 10 17  1  0  0  0  0
 11  7  1  0  0  0  0
 11 13  1  0  0  0  0
 12  8  1  0  0  0  0
 13 10  1  0  0  0  0
 13  2  1  0  0  0  0
 14  5  1  0  0  0  0
 15  6  1  0  0  0  0
 15 17  1  0  0  0  0
 15 30  1  0  0  0  0
 16  1  1  0  0  0  0
 18 19  1  0  0  0  0
 19 24  1  0  0  0  0
 19 21  1  0  0  0  0
 20 25  1  0  0  0  0
 21 20  1  0  0  0  0
 22 20  1  0  0  0  0
 23 24  1  0  0  0  0
 24 22  1  0  0  0  0
 26 18  1  0  0  0  0
 26 23  1  0  0  0  0
 27 28  1  0  0  0  0
 27 19  1  0  0  0  0
 29 35  1  0  0  0  0
 30 29  2  0  0  0  0
 31 30  1  0  0  0  0
 31 34  2  0  0  0  0
 32 34  1  0  0  0  0
 33 35  2  0  0  0  0
 34 33  1  0  0  0  0
 36 37  1  0  0  0  0
M  END
>  <MODEL>
6

>  <REMARK>
 VINA RESULT:      -4.0      4.359      9.393
  Name = 
  4 active torsions:
  status: ('A' for Active; 'I' for Inactive)
    1  A    between atoms: C_5  and  O_12
    2  A    between atoms: C_6  and  C_31
    3  A    between atoms: C_7  and  C_14
    4  A    between atoms: C_20  and  C_36
                            x       y       z     vdW  Elec       q    Type
                         _______ _______ _______ _____ _____    ______ ____

>  <TORSDO>
F 4

$$$$
=
 OpenBabel10272414483D

 37 42  0  0  1  0  0  0  0  0999 V2000
  185.2260  175.5500  136.6960 C   0  0  0  0  0  0  0  0  0  0  0  0
  186.9500  178.0920  138.2580 C   0  0  2  0  0  3  0  0  0  0  0  0
  187.6660  176.3240  136.1770 C   0  0  0  0  0  2  0  0  0  0  0  0
  186.9760  176.9520  139.2940 C   0  0  0  0  0  2  0  0  0  0  0  0
  185.8710  177.8880  137.1660 C   0  0  2  0  0  3  0  0  0  0  0  0
  187.3870  177.4280  140.6930 C   0  0  1  0  0  3  0  0  0  0  0  0
  188.3580  178.3950  135.1800 O   0  0  0  0  0  1  0  0  0  0  0  0
  184.4390  177.6580  137.6420 C   0  0  1  0  0  3  0  0  0  0  0  0
  185.9330  174.3680  137.3450 C   0  0  0  0  0  1  0  0  0  0  0  0
  189.5570  178.2300  138.4760 C   0  0  0  0  0  2  0  0  0  0  0  0
  188.5590  177.5620  136.2830 C   0  0  1  0  0  3  0  0  0  0  0  0
  184.2590  176.1500  137.7070 C   0  0  0  0  0  2  0  0  0  0  0  0
  188.3240  178.3520  137.5820 C   0  0  1  0  0  3  0  0  0  0  0  0
  186.1720  176.6870  136.2670 C   0  0  2  0  0  3  0  0  0  0  0  0
  188.8860  177.7370  140.7990 C   0  0  1  0  0  3  0  0  0  0  0  0
  184.4530  175.0630  135.4870 C   0  0  0  0  0  1  0  0  0  0  0  0
  189.3570  178.8360  139.8530 C   0  0  0  0  0  2  0  0  0  0  0  0
  183.2110  177.4780  139.8140 C   0  0  0  0  0  2  0  0  0  0  0  0
  181.7590  177.7990  139.4590 C   0  0  1  0  0  0  0  0  0  0  0  0
  180.8270  179.4540  140.9530 C   0  0  2  0  0  3  0  0  0  0  0  0
  180.9320  177.9700  140.7310 C   0  0  0  0  0  2  0  0  0  0  0  0
  181.0440  180.0540  139.5830 C   0  0  0  0  0  2  0  0  0  0  0  0
  183.1370  179.5430  138.6470 C   0  0  0  0  0  2  0  0  0  0  0  0
  181.7550  179.0870  138.7520 N   0  0  1  0  0  0  0  0  0  0  0  0
  181.8520  179.8670  141.8040 O   0  0  0  0  0  1  0  0  0  0  0  0
  184.0510  178.3730  138.9410 C   0  0  2  0  0  3  0  0  0  0  0  0
  181.2020  176.8200  138.5980 O   0  0  0  0  0  0  0  0  0  0  0  0
  180.8720  175.6640  139.3300 C   0  0  0  0  0  1  0  0  0  0  0  0
  190.5650  178.5780  142.5020 C   0  0  0  0  0  3  0  0  0  0  0  0
  189.3380  177.9600  142.2120 C   0  0  0  0  0  0  0  0  0  0  0  0
  188.4980  177.5690  143.2610 C   0  0  0  0  0  3  0  0  0  0  0  0
  187.8290  177.2890  145.8940 Cl  0  0  0  0  0  0  0  0  0  0  0  0
  190.1080  178.3940  144.8720 C   0  0  0  0  0  3  0  0  0  0  0  0
  188.8830  177.7830  144.5880 C   0  0  0  0  0  0  0  0  0  0  0  0
  190.9490  178.7930  143.8280 C   0  0  0  0  0  3  0  0  0  0  0  0
  186.5000  178.5570  141.2110 C   0  0  0  0  0  2  0  0  0  0  0  0
  185.5980  178.0390  142.3130 C   0  0  0  0  0  1  0  0  0  0  0  0
  1  9  1  0  0  0  0
  1 12  1  0  0  0  0
  2  4  1  6  0  0  0
  3 14  1  0  0  0  0
  3 11  1  0  0  0  0
  4  6  1  0  0  0  0
  5  8  1  0  0  0  0
  5  2  1  0  0  0  0
  6 15  1  0  0  0  0
  6 36  1  0  0  0  0
  7 11  1  0  0  0  0
  8 12  1  0  0  0  0
  8 26  1  0  0  0  0
 10 17  1  0  0  0  0
 11 13  1  0  0  0  0
 13  2  1  0  0  0  0
 13 10  1  0  0  0  0
 14  1  1  0  0  0  0
 14  5  1  0  0  0  0
 15 30  1  0  0  0  0
 16  1  1  0  0  0  0
 17 15  1  0  0  0  0
 19 18  1  0  0  0  0
 19 21  1  0  0  0  0
 20 25  1  0  0  0  0
 21 20  1  0  0  0  0
 22 20  1  0  0  0  0
 23 24  1  0  0  0  0
 23 26  1  0  0  0  0
 24 19  1  0  0  0  0
 24 22  1  0  0  0  0
 26 18  1  0  0  0  0
 27 28  1  0  0  0  0
 27 19  1  0  0  0  0
 29 35  1  0  0  0  0
 30 29  2  0  0  0  0
 30 31  1  0  0  0  0
 31 34  2  0  0  0  0
 34 33  1  0  0  0  0
 34 32  1  0  0  0  0
 35 33  2  0  0  0  0
 36 37  1  0  0  0  0
M  END
>  <MODEL>
7

>  <REMARK>
 VINA RESULT:      -3.9      5.127      8.072
  Name = 
  4 active torsions:
  status: ('A' for Active; 'I' for Inactive)
    1  A    between atoms: C_5  and  O_12
    2  A    between atoms: C_6  and  C_31
    3  A    between atoms: C_7  and  C_14
    4  A    between atoms: C_20  and  C_36
                            x       y       z     vdW  Elec       q    Type
                         _______ _______ _______ _____ _____    ______ ____

>  <TORSDO>
F 4

$$$$
=
 OpenBabel10272414483D

 37 42  0  0  1  0  0  0  0  0999 V2000
  188.8630  177.0050  135.1580 C   0  0  0  0  0  0  0  0  0  0  0  0
  186.4710  176.1110  137.4720 C   0  0  2  0  0  3  0  0  0  0  0  0
  186.8190  175.4290  134.7550 C   0  0  0  0  0  2  0  0  0  0  0  0
  186.0910  177.5580  137.1050 C   0  0  0  0  0  2  0  0  0  0  0  0
  187.9200  175.7470  137.0640 C   0  0  2  0  0  3  0  0  0  0  0  0
  185.0990  178.1820  138.0940 C   0  0  1  0  0  3  0  0  0  0  0  0
  186.4680  173.2340  135.6620 O   0  0  0  0  0  1  0  0  0  0  0  0
  189.0310  176.6630  137.5690 C   0  0  1  0  0  3  0  0  0  0  0  0
  188.0320  177.9890  134.3460 C   0  0  0  0  0  1  0  0  0  0  0  0
  184.0100  175.4140  136.9010 C   0  0  0  0  0  2  0  0  0  0  0  0
  185.8820  174.4930  135.5210 C   0  0  1  0  0  3  0  0  0  0  0  0
  189.2720  177.6770  136.4620 C   0  0  0  0  0  2  0  0  0  0  0  0
  185.4930  175.0460  136.9030 C   0  0  1  0  0  3  0  0  0  0  0  0
  188.1090  175.7190  135.5460 C   0  0  2  0  0  3  0  0  0  0  0  0
  183.6760  177.6290  137.9370 C   0  0  1  0  0  3  0  0  0  0  0  0
  190.1040  176.6350  134.3710 C   0  0  0  0  0  1  0  0  0  0  0  0
  183.5710  176.1250  138.1670 C   0  0  0  0  0  2  0  0  0  0  0  0
  189.9310  178.2120  139.3160 C   0  0  0  0  0  2  0  0  0  0  0  0
  190.8900  177.3470  140.1350 C   0  0  1  0  0  0  0  0  0  0  0  0
  190.4710  177.5600  142.5040 C   0  0  2  0  0  3  0  0  0  0  0  0
  191.3290  178.0940  141.3920 C   0  0  0  0  0  2  0  0  0  0  0  0
  190.0350  176.1960  142.0200 C   0  0  0  0  0  2  0  0  0  0  0  0
  188.7950  176.2520  140.0250 C   0  0  0  0  0  2  0  0  0  0  0  0
  190.1480  176.1550  140.5650 N   0  0  1  0  0  0  0  0  0  0  0  0
  189.3490  178.3750  142.6550 O   0  0  0  0  0  1  0  0  0  0  0  0
  188.7870  177.3060  138.9390 C   0  0  2  0  0  3  0  0  0  0  0  0
  192.0000  176.9220  139.3620 O   0  0  0  0  0  0  0  0  0  0  0  0
  193.2010  177.2880  139.9980 C   0  0  0  0  0  1  0  0  0  0  0  0
  182.3870  179.7530  138.4370 C   0  0  0  0  0  3  0  0  0  0  0  0
  182.6580  178.4050  138.7200 C   0  0  0  0  0  0  0  0  0  0  0  0
  181.9430  177.7560  139.7320 C   0  0  0  0  0  3  0  0  0  0  0  0
  180.0850  177.6290  141.7300 Cl  0  0  0  0  0  0  0  0  0  0  0  0
  180.7100  179.7900  140.1820 C   0  0  0  0  0  3  0  0  0  0  0  0
  180.9740  178.4470  140.4640 C   0  0  0  0  0  0  0  0  0  0  0  0
  181.4170  180.4440  139.1680 C   0  0  0  0  0  3  0  0  0  0  0  0
  185.6050  178.1450  139.5330 C   0  0  0  0  0  2  0  0  0  0  0  0
  185.1930  179.4120  140.2560 C   0  0  0  0  0  1  0  0  0  0  0  0
  1 14  1  0  0  0  0
  1 12  1  0  0  0  0
  2  4  1  6  0  0  0
  3 11  1  0  0  0  0
  3 14  1  0  0  0  0
  4  6  1  0  0  0  0
  5  2  1  0  0  0  0
  5  8  1  0  0  0  0
  6 36  1  0  0  0  0
  8 26  1  0  0  0  0
  9  1  1  0  0  0  0
 10 13  1  0  0  0  0
 10 17  1  0  0  0  0
 11  7  1  0  0  0  0
 11 13  1  0  0  0  0
 12  8  1  0  0  0  0
 13  2  1  0  0  0  0
 14  5  1  0  0  0  0
 15  6  1  0  0  0  0
 15 17  1  0  0  0  0
 15 30  1  0  0  0  0
 16  1  1  0  0  0  0
 18 19  1  0  0  0  0
 19 24  1  0  0  0  0
 19 21  1  0  0  0  0
 20 25  1  0  0  0  0
 21 20  1  0  0  0  0
 22 20  1  0  0  0  0
 23 24  1  0  0  0  0
 24 22  1  0  0  0  0
 26 18  1  0  0  0  0
 26 23  1  0  0  0  0
 27 28  1  0  0  0  0
 27 19  1  0  0  0  0
 29 30  2  0  0  0  0
 29 35  1  0  0  0  0
 30 31  1  0  0  0  0
 31 34  2  0  0  0  0
 33 34  1  0  0  0  0
 34 32  1  0  0  0  0
 35 33  2  0  0  0  0
 36 37  1  0  0  0  0
M  END
>  <MODEL>
8

>  <REMARK>
 VINA RESULT:      -3.9      4.374      9.404
  Name = 
  4 active torsions:
  status: ('A' for Active; 'I' for Inactive)
    1  A    between atoms: C_5  and  O_12
    2  A    between atoms: C_6  and  C_31
    3  A    between atoms: C_7  and  C_14
    4  A    between atoms: C_20  and  C_36
                            x       y       z     vdW  Elec       q    Type
                         _______ _______ _______ _____ _____    ______ ____

>  <TORSDO>
F 4

$$$$
=
 OpenBabel10272414483D

 37 42  0  0  1  0  0  0  0  0999 V2000
  191.3990  173.7580  135.6620 C   0  0  0  0  0  0  0  0  0  0  0  0
  191.8260  176.6100  137.5480 C   0  0  2  0  0  3  0  0  0  0  0  0
  193.6070  174.5460  136.8150 C   0  0  0  0  0  2  0  0  0  0  0  0
  191.0550  175.6670  138.4920 C   0  0  0  0  0  2  0  0  0  0  0  0
  191.7500  176.1690  136.0650 C   0  0  2  0  0  3  0  0  0  0  0  0
  190.4560  176.3960  139.7020 C   0  0  1  0  0  3  0  0  0  0  0  0
  194.9560  176.4450  136.2360 O   0  0  0  0  0  1  0  0  0  0  0  0
  190.3570  175.9580  135.4780 C   0  0  1  0  0  3  0  0  0  0  0  0
  191.3860  172.7400  136.7940 C   0  0  0  0  0  1  0  0  0  0  0  0
  193.6090  176.9070  139.4450 C   0  0  0  0  0  2  0  0  0  0  0  0
  194.2940  175.8250  137.2970 C   0  0  1  0  0  3  0  0  0  0  0  0
  190.0570  174.4760  135.6420 C   0  0  0  0  0  2  0  0  0  0  0  0
  193.3130  176.8140  137.9490 C   0  0  1  0  0  3  0  0  0  0  0  0
  192.4770  174.8480  135.8120 C   0  0  2  0  0  3  0  0  0  0  0  0
  191.5130  176.7890  140.7430 C   0  0  1  0  0  3  0  0  0  0  0  0
  191.6030  173.0340  134.3460 C   0  0  0  0  0  1  0  0  0  0  0  0
  192.5860  177.7300  140.2060 C   0  0  0  0  0  2  0  0  0  0  0  0
  188.0950  176.0510  136.5430 C   0  0  0  0  0  2  0  0  0  0  0  0
  187.1180  175.9550  135.3710 C   0  0  1  0  0  0  0  0  0  0  0  0
  185.4320  177.6810  135.4810 C   0  0  2  0  0  3  0  0  0  0  0  0
  185.6970  176.2470  135.8460 C   0  0  0  0  0  2  0  0  0  0  0  0
  186.3900  177.9620  134.3460 C   0  0  0  0  0  2  0  0  0  0  0  0
  188.6500  177.7030  134.9320 C   0  0  0  0  0  2  0  0  0  0  0  0
  187.4850  176.9990  134.4060 N   0  0  1  0  0  0  0  0  0  0  0  0
  185.7480  178.5010  136.5650 O   0  0  0  0  0  1  0  0  0  0  0  0
  189.2570  176.8670  136.0380 C   0  0  2  0  0  3  0  0  0  0  0  0
  187.2050  174.6990  134.7190 O   0  0  0  0  0  0  0  0  0  0  0  0
  186.4100  173.7500  135.3890 C   0  0  0  0  0  1  0  0  0  0  0  0
  191.5500  178.2470  142.8150 C   0  0  0  0  0  3  0  0  0  0  0  0
  190.9140  177.2730  142.0300 C   0  0  0  0  0  0  0  0  0  0  0  0
  189.6760  176.7610  142.4360 C   0  0  0  0  0  3  0  0  0  0  0  0
  187.5370  176.5600  144.1220 Cl  0  0  0  0  0  0  0  0  0  0  0  0
  189.7230  178.1740  144.4010 C   0  0  0  0  0  3  0  0  0  0  0  0
  189.0840  177.2080  143.6200 C   0  0  0  0  0  0  0  0  0  0  0  0
  190.9560  178.6950  143.9990 C   0  0  0  0  0  3  0  0  0  0  0  0
  189.5480  177.5540  139.2970 C   0  0  0  0  0  2  0  0  0  0  0  0
  188.1350  177.2920  139.7790 C   0  0  0  0  0  1  0  0  0  0  0  0
  1 14  1  0  0  0  0
  1  9  1  0  0  0  0
  2 13  1  0  0  0  0
  2  4  1  1  0  0  0
  3 11  1  0  0  0  0
  4  6  1  0  0  0  0
  5  2  1  0  0  0  0
  6 15  1  0  0  0  0
  7 11  1  0  0  0  0
  8 12  1  0  0  0  0
  8 26  1  0  0  0  0
  8  5  1  0  0  0  0
 10 17  1  0  0  0  0
 11 13  1  0  0  0  0
 12  1  1  0  0  0  0
 13 10  1  0  0  0  0
 14  5  1  0  0  0  0
 14  3  1  0  0  0  0
 15 30  1  0  0  0  0
 16  1  1  0  0  0  0
 17 15  1  0  0  0  0
 19 21  1  0  0  0  0
 19 18  1  0  0  0  0
 20 21  1  0  0  0  0
 20 25  1  0  0  0  0
 22 24  1  0  0  0  0
 22 20  1  0  0  0  0
 23 26  1  0  0  0  0
 24 23  1  0  0  0  0
 24 19  1  0  0  0  0
 26 18  1  0  0  0  0
 27 19  1  0  0  0  0
 27 28  1  0  0  0  0
 29 35  1  0  0  0  0
 30 31  1  0  0  0  0
 30 29  2  0  0  0  0
 31 34  2  0  0  0  0
 34 32  1  0  0  0  0
 34 33  1  0  0  0  0
 35 33  2  0  0  0  0
 36  6  1  0  0  0  0
 36 37  1  0  0  0  0
M  END
>  <MODEL>
9

>  <REMARK>
 VINA RESULT:      -3.9      3.303      6.386
  Name = 
  4 active torsions:
  status: ('A' for Active; 'I' for Inactive)
    1  A    between atoms: C_5  and  O_12
    2  A    between atoms: C_6  and  C_31
    3  A    between atoms: C_7  and  C_14
    4  A    between atoms: C_20  and  C_36
                            x       y       z     vdW  Elec       q    Type
                         _______ _______ _______ _____ _____    ______ ____

>  <TORSDO>
F 4

$$$$
