=
 OpenBabel10262423563D

 34 39  0  0  1  0  0  0  0  0999 V2000
  185.4380  175.9990  137.1780 C   0  0  2  0  0  3  0  0  0  0  0  0
  186.8300  178.1100  136.9210 C   0  0  0  0  0  0  0  0  0  0  0  0
  184.6290  178.2170  138.1030 C   0  0  1  0  0  3  0  0  0  0  0  0
  183.6440  178.5650  141.7040 C   0  0  0  0  0  2  0  0  0  0  0  0
  186.9060  176.4180  135.1450 C   0  0  0  0  0  2  0  0  0  0  0  0
  187.7140  177.4400  135.9230 C   0  0  0  0  0  2  0  0  0  0  0  0
  186.2070  178.1940  140.2160 C   0  0  0  0  0  2  0  0  0  0  0  0
  185.6880  177.4200  137.4650 N   0  0  0  0  0  0  0  0  0  0  0  0
  184.9560  178.2960  142.4580 C   0  0  0  0  0  2  0  0  0  0  0  0
  186.3610  175.3840  136.1160 C   0  0  0  0  0  2  0  0  0  0  0  0
  183.2020  177.5860  138.0360 C   0  0  2  0  0  3  0  0  0  0  0  0
  183.9820  175.8250  136.8060 C   0  0  0  0  0  2  0  0  0  0  0  0
  187.0970  179.2880  137.2790 O   0  0  0  0  0  0  0  0  0  0  0  0
  183.7680  177.9300  140.3290 C   0  0  1  0  0  3  0  0  0  0  0  0
  182.5700  177.9180  139.3910 C   0  0  1  0  0  3  0  0  0  0  0  0
  186.1980  178.7450  141.6540 C   0  0  1  0  0  3  0  0  0  0  0  0
  184.8870  178.5760  139.5640 C   0  0  2  0  0  3  0  0  0  0  0  0
  183.2170  176.1780  137.9250 O   0  0  0  0  0  0  0  0  0  0  0  0
  181.3830  181.4430  138.5010 C   0  0  0  0  0  0  0  0  0  0  0  0
  180.3140  181.5910  139.3870 C   0  0  0  0  0  3  0  0  0  0  0  0
  181.7930  179.2090  139.3630 C   0  0  0  0  0  0  0  0  0  0  0  0
  179.9820  180.5520  140.2620 C   0  0  0  0  0  3  0  0  0  0  0  0
  182.1220  180.2570  138.4880 C   0  0  0  0  0  3  0  0  0  0  0  0
  180.7220  179.3650  140.2500 C   0  0  0  0  0  3  0  0  0  0  0  0
  181.7050  182.4500  137.6540 F   0  0  0  0  0  0  0  0  0  0  0  0
  187.6490  177.1800  142.9140 C   0  0  0  0  0  3  0  0  0  0  0  0
  187.4620  178.3870  142.3740 C   0  0  0  0  0  3  0  0  0  0  0  0
  190.0870  176.1690  141.6360 O   0  0  0  0  0  1  0  0  0  0  0  0
  188.9180  176.8450  143.6310 C   0  0  1  0  0  3  0  0  0  0  0  0
  190.1400  177.0460  142.7200 C   0  0  1  0  0  3  0  0  0  0  0  0
  191.5160  177.7050  144.7120 C   0  0  0  0  0  2  0  0  0  0  0  0
  190.3160  177.4630  145.6220 C   0  0  0  0  0  2  0  0  0  0  0  0
  189.0240  177.7420  144.8630 C   0  0  0  0  0  2  0  0  0  0  0  0
  191.4340  176.7940  143.4930 C   0  0  0  0  0  2  0  0  0  0  0  0
  1 10  1  6  0  0  0
  1  8  1  0  0  0  0
  2 13  2  0  0  0  0
  2  8  1  0  0  0  0
  3  8  1  1  0  0  0
  3 17  1  0  0  0  0
  4  9  1  0  0  0  0
  5  6  1  0  0  0  0
  5 10  1  0  0  0  0
  6  2  1  0  0  0  0
  7 16  1  0  0  0  0
 11 18  1  1  0  0  0
 11  3  1  0  0  0  0
 11 15  1  0  0  0  0
 12  1  1  0  0  0  0
 12 18  1  0  0  0  0
 14  4  1  1  0  0  0
 15 21  1  6  0  0  0
 15 14  1  0  0  0  0
 16 27  1  1  0  0  0
 16  9  1  0  0  0  0
 17  7  1  1  0  0  0
 17 14  1  0  0  0  0
 19 20  1  0  0  0  0
 20 22  2  0  0  0  0
 21 24  2  0  0  0  0
 23 19  2  0  0  0  0
 23 21  1  0  0  0  0
 24 22  1  0  0  0  0
 25 19  1  0  0  0  0
 27 26  2  0  0  0  0
 29 26  1  6  0  0  0
 29 33  1  0  0  0  0
 30 28  1  6  0  0  0
 30 34  1  0  0  0  0
 30 29  1  0  0  0  0
 31 32  1  0  0  0  0
 33 32  1  0  0  0  0
 34 31  1  0  0  0  0
M  END
>  <MODEL>
1

>  <REMARK>
 VINA RESULT:      -8.8      0.000      0.000
  Name = 
  3 active torsions:
  status: ('A' for Active; 'I' for Inactive)
    1  A    between atoms: C_3  and  C_13
    2  A    between atoms: C_12  and  C_28
    3  A    between atoms: C_17  and  C_29
                            x       y       z     vdW  Elec       q    Type
                         _______ _______ _______ _____ _____    ______ ____

>  <TORSDO>
F 3

$$$$
=
 OpenBabel10262423563D

 34 39  0  0  1  0  0  0  0  0999 V2000
  187.0740  175.7240  137.3400 C   0  0  2  0  0  3  0  0  0  0  0  0
  187.9390  178.1100  137.2050 C   0  0  0  0  0  0  0  0  0  0  0  0
  185.4760  177.6830  137.1410 C   0  0  1  0  0  3  0  0  0  0  0  0
  182.7030  178.1740  139.6150 C   0  0  0  0  0  2  0  0  0  0  0  0
  189.2720  176.3090  136.2040 C   0  0  0  0  0  2  0  0  0  0  0  0
  189.3290  177.6230  136.9610 C   0  0  0  0  0  2  0  0  0  0  0  0
  185.6780  178.4250  139.6630 C   0  0  0  0  0  2  0  0  0  0  0  0
  186.8460  177.1770  137.3150 N   0  0  0  0  0  0  0  0  0  0  0  0
  183.4460  178.4250  140.9360 C   0  0  0  0  0  2  0  0  0  0  0  0
  188.5180  175.2920  137.0460 C   0  0  0  0  0  2  0  0  0  0  0  0
  184.4560  176.6380  136.5870 C   0  0  2  0  0  3  0  0  0  0  0  0
  186.0990  175.0610  136.3930 C   0  0  0  0  0  2  0  0  0  0  0  0
  187.7370  179.3480  137.3140 O   0  0  0  0  0  0  0  0  0  0  0  0
  183.6530  177.4350  138.6880 C   0  0  1  0  0  3  0  0  0  0  0  0
  183.1560  176.9310  137.3410 C   0  0  1  0  0  3  0  0  0  0  0  0
  184.8060  179.1280  140.7200 C   0  0  1  0  0  3  0  0  0  0  0  0
  184.8520  178.2900  138.3940 C   0  0  2  0  0  3  0  0  0  0  0  0
  184.8090  175.3010  136.8810 O   0  0  0  0  0  0  0  0  0  0  0  0
  180.8400  179.8660  136.5350 C   0  0  0  0  0  0  0  0  0  0  0  0
  180.6130  179.6530  135.1740 C   0  0  0  0  0  3  0  0  0  0  0  0
  182.2700  177.9020  136.6060 C   0  0  0  0  0  0  0  0  0  0  0  0
  181.2110  178.5680  134.5260 C   0  0  0  0  0  3  0  0  0  0  0  0
  181.6650  178.9940  137.2510 C   0  0  0  0  0  3  0  0  0  0  0  0
  182.0360  177.6940  135.2420 C   0  0  0  0  0  3  0  0  0  0  0  0
  180.2600  180.9160  137.1630 F   0  0  0  0  0  0  0  0  0  0  0  0
  185.4430  178.3740  142.9940 C   0  0  0  0  0  3  0  0  0  0  0  0
  185.5460  179.2760  142.0140 C   0  0  0  0  0  3  0  0  0  0  0  0
  184.2540  179.2570  145.5240 O   0  0  0  0  0  1  0  0  0  0  0  0
  186.1890  178.5430  144.2790 C   0  0  1  0  0  3  0  0  0  0  0  0
  185.2710  178.3020  145.4890 C   0  0  1  0  0  3  0  0  0  0  0  0
  187.2170  177.3830  146.7800 C   0  0  0  0  0  2  0  0  0  0  0  0
  188.1360  177.6620  145.5960 C   0  0  0  0  0  2  0  0  0  0  0  0
  187.3520  177.5530  144.2930 C   0  0  0  0  0  2  0  0  0  0  0  0
  186.0670  178.3840  146.7910 C   0  0  0  0  0  2  0  0  0  0  0  0
  1 12  1  6  0  0  0
  2 13  2  0  0  0  0
  2  8  1  0  0  0  0
  3  8  1  1  0  0  0
  3 17  1  0  0  0  0
  4  9  1  0  0  0  0
  5  6  1  0  0  0  0
  5 10  1  0  0  0  0
  6  2  1  0  0  0  0
  7 16  1  0  0  0  0
  8  1  1  0  0  0  0
 10  1  1  0  0  0  0
 11 18  1  1  0  0  0
 11  3  1  0  0  0  0
 11 15  1  0  0  0  0
 12 18  1  0  0  0  0
 14  4  1  6  0  0  0
 15 21  1  6  0  0  0
 15 14  1  0  0  0  0
 16  9  1  0  0  0  0
 16 27  1  1  0  0  0
 17 14  1  0  0  0  0
 17  7  1  1  0  0  0
 19 25  1  0  0  0  0
 19 23  1  0  0  0  0
 20 19  2  0  0  0  0
 21 23  2  0  0  0  0
 22 20  1  0  0  0  0
 22 24  2  0  0  0  0
 24 21  1  0  0  0  0
 27 26  2  0  0  0  0
 29 26  1  6  0  0  0
 29 33  1  0  0  0  0
 29 30  1  0  0  0  0
 30 28  1  1  0  0  0
 30 34  1  0  0  0  0
 31 34  1  0  0  0  0
 32 31  1  0  0  0  0
 33 32  1  0  0  0  0
M  END
>  <MODEL>
2

>  <REMARK>
 VINA RESULT:      -8.3      2.332      3.261
  Name = 
  3 active torsions:
  status: ('A' for Active; 'I' for Inactive)
    1  A    between atoms: C_3  and  C_13
    2  A    between atoms: C_12  and  C_28
    3  A    between atoms: C_17  and  C_29
                            x       y       z     vdW  Elec       q    Type
                         _______ _______ _______ _____ _____    ______ ____

>  <TORSDO>
F 3

$$$$
=
 OpenBabel10262423563D

 34 39  0  0  1  0  0  0  0  0999 V2000
  187.8990  177.5860  135.5010 C   0  0  2  0  0  3  0  0  0  0  0  0
  186.8000  175.7390  136.8590 C   0  0  0  0  0  0  0  0  0  0  0  0
  189.2830  175.7380  136.5510 C   0  0  1  0  0  3  0  0  0  0  0  0
  192.1660  176.5290  138.8120 C   0  0  0  0  0  2  0  0  0  0  0  0
  185.5790  176.6990  134.9600 C   0  0  0  0  0  2  0  0  0  0  0  0
  185.4500  176.1380  136.3640 C   0  0  0  0  0  2  0  0  0  0  0  0
  189.1920  176.7190  138.9970 C   0  0  0  0  0  2  0  0  0  0  0  0
  187.9830  176.4050  136.3750 N   0  0  0  0  0  0  0  0  0  0  0  0
  191.5000  177.2270  140.0070 C   0  0  0  0  0  2  0  0  0  0  0  0
  186.4860  177.9180  135.0010 C   0  0  0  0  0  2  0  0  0  0  0  0
  190.3550  176.0950  135.4740 C   0  0  2  0  0  3  0  0  0  0  0  0
  188.8630  177.4100  134.3490 C   0  0  0  0  0  2  0  0  0  0  0  0
  186.8900  174.8110  137.7060 O   0  0  0  0  0  0  0  0  0  0  0  0
  191.2270  176.6560  137.6240 C   0  0  1  0  0  3  0  0  0  0  0  0
  191.6720  176.1690  136.2530 C   0  0  1  0  0  3  0  0  0  0  0  0
  190.0660  176.7090  140.2650 C   0  0  1  0  0  3  0  0  0  0  0  0
  189.9340  175.9510  137.9150 C   0  0  2  0  0  3  0  0  0  0  0  0
  190.1560  177.3640  134.8850 O   0  0  0  0  0  0  0  0  0  0  0  0
  192.5290  172.4640  135.8410 C   0  0  0  0  0  0  0  0  0  0  0  0
  193.8250  172.4370  136.3600 C   0  0  0  0  0  3  0  0  0  0  0  0
  192.4050  174.8530  136.2710 C   0  0  0  0  0  0  0  0  0  0  0  0
  194.4130  173.6120  136.8360 C   0  0  0  0  0  3  0  0  0  0  0  0
  191.8190  173.6680  135.7960 C   0  0  0  0  0  3  0  0  0  0  0  0
  193.7030  174.8170  136.7920 C   0  0  0  0  0  3  0  0  0  0  0  0
  191.9580  171.3260  135.3810 F   0  0  0  0  0  0  0  0  0  0  0  0
  188.7260  176.8590  142.3450 C   0  0  0  0  0  3  0  0  0  0  0  0
  189.4110  177.4710  141.3750 C   0  0  0  0  0  3  0  0  0  0  0  0
  186.1580  178.2560  142.1230 O   0  0  0  0  0  1  0  0  0  0  0  0
  188.0770  177.6400  143.4420 C   0  0  1  0  0  3  0  0  0  0  0  0
  186.5460  177.6240  143.3050 C   0  0  1  0  0  3  0  0  0  0  0  0
  186.3220  177.7100  145.8020 C   0  0  0  0  0  2  0  0  0  0  0  0
  187.8400  177.7710  145.9380 C   0  0  0  0  0  2  0  0  0  0  0  0
  188.4940  177.0280  144.7780 C   0  0  0  0  0  2  0  0  0  0  0  0
  185.8930  178.3440  144.4840 C   0  0  0  0  0  2  0  0  0  0  0  0
  1 12  1  6  0  0  0
  1  8  1  0  0  0  0
  2 13  2  0  0  0  0
  3  8  1  1  0  0  0
  3 17  1  0  0  0  0
  4  9  1  0  0  0  0
  5 10  1  0  0  0  0
  5  6  1  0  0  0  0
  6  2  1  0  0  0  0
  7 16  1  0  0  0  0
  8  2  1  0  0  0  0
  9 16  1  0  0  0  0
 10  1  1  0  0  0  0
 11 18  1  1  0  0  0
 11 15  1  0  0  0  0
 11  3  1  0  0  0  0
 12 18  1  0  0  0  0
 14 17  1  0  0  0  0
 14  4  1  1  0  0  0
 15 21  1  1  0  0  0
 15 14  1  0  0  0  0
 16 27  1  1  0  0  0
 17  7  1  1  0  0  0
 19 20  1  0  0  0  0
 20 22  2  0  0  0  0
 21 24  2  0  0  0  0
 23 19  2  0  0  0  0
 23 21  1  0  0  0  0
 24 22  1  0  0  0  0
 25 19  1  0  0  0  0
 27 26  2  0  0  0  0
 29 26  1  6  0  0  0
 29 33  1  0  0  0  0
 30 28  1  6  0  0  0
 30 29  1  0  0  0  0
 30 34  1  0  0  0  0
 31 32  1  0  0  0  0
 33 32  1  0  0  0  0
 34 31  1  0  0  0  0
M  END
>  <MODEL>
3

>  <REMARK>
 VINA RESULT:      -7.8      4.597      8.035
  Name = 
  3 active torsions:
  status: ('A' for Active; 'I' for Inactive)
    1  A    between atoms: C_3  and  C_13
    2  A    between atoms: C_12  and  C_28
    3  A    between atoms: C_17  and  C_29
                            x       y       z     vdW  Elec       q    Type
                         _______ _______ _______ _____ _____    ______ ____

>  <TORSDO>
F 3

$$$$
=
 OpenBabel10262423563D

 34 39  0  0  1  0  0  0  0  0999 V2000
  183.2500  174.4820  137.3600 C   0  0  2  0  0  3  0  0  0  0  0  0
  185.4220  175.7690  137.0650 C   0  0  0  0  0  0  0  0  0  0  0  0
  183.2430  176.9980  137.0380 C   0  0  1  0  0  3  0  0  0  0  0  0
  181.5190  179.2550  139.4840 C   0  0  0  0  0  2  0  0  0  0  0  0
  185.2690  173.4860  136.1800 C   0  0  0  0  0  2  0  0  0  0  0  0
  186.1770  174.5010  136.8480 C   0  0  0  0  0  2  0  0  0  0  0  0
  183.9810  177.5650  139.5050 C   0  0  0  0  0  2  0  0  0  0  0  0
  183.9910  175.7470  137.2400 N   0  0  0  0  0  0  0  0  0  0  0  0
  182.3110  179.0420  140.7830 C   0  0  0  0  0  2  0  0  0  0  0  0
  184.0800  173.2200  137.0890 C   0  0  0  0  0  2  0  0  0  0  0  0
  181.7690  176.8110  136.5570 C   0  0  2  0  0  3  0  0  0  0  0  0
  182.0340  174.5430  136.4610 C   0  0  0  0  0  2  0  0  0  0  0  0
  186.0530  176.8590  137.0930 O   0  0  0  0  0  0  0  0  0  0  0  0
  181.7450  178.0370  138.6040 C   0  0  1  0  0  3  0  0  0  0  0  0
  180.9830  177.8980  137.2950 C   0  0  1  0  0  3  0  0  0  0  0  0
  183.7980  178.7120  140.5160 C   0  0  1  0  0  3  0  0  0  0  0  0
  183.2000  177.9240  138.2500 C   0  0  2  0  0  3  0  0  0  0  0  0
  181.2100  175.5700  136.9370 O   0  0  0  0  0  0  0  0  0  0  0  0
  180.4480  181.5590  136.3260 C   0  0  0  0  0  0  0  0  0  0  0  0
  180.6810  181.5020  134.9500 C   0  0  0  0  0  3  0  0  0  0  0  0
  180.8790  179.1740  136.5000 C   0  0  0  0  0  0  0  0  0  0  0  0
  181.0120  180.2850  134.3460 C   0  0  0  0  0  3  0  0  0  0  0  0
  180.5460  180.3990  137.1000 C   0  0  0  0  0  3  0  0  0  0  0  0
  181.1090  179.1240  135.1200 C   0  0  0  0  0  3  0  0  0  0  0  0
  180.1270  182.7370  136.9100 F   0  0  0  0  0  0  0  0  0  0  0  0
  184.8930  179.3910  142.6340 C   0  0  0  0  0  3  0  0  0  0  0  0
  184.5210  178.4200  141.7950 C   0  0  0  0  0  3  0  0  0  0  0  0
  183.7150  179.5170  145.3160 O   0  0  0  0  0  1  0  0  0  0  0  0
  185.6170  179.0770  143.9050 C   0  0  1  0  0  3  0  0  0  0  0  0
  184.6520  178.5410  144.9750 C   0  0  1  0  0  3  0  0  0  0  0  0
  186.4830  177.0960  145.8990 C   0  0  0  0  0  2  0  0  0  0  0  0
  187.4520  177.6600  144.8660 C   0  0  0  0  0  2  0  0  0  0  0  0
  186.6960  178.0400  143.5980 C   0  0  0  0  0  2  0  0  0  0  0  0
  185.4180  178.1340  146.2330 C   0  0  0  0  0  2  0  0  0  0  0  0
  1 12  1  6  0  0  0
  2 13  2  0  0  0  0
  2  8  1  0  0  0  0
  3  8  1  1  0  0  0
  3 17  1  0  0  0  0
  4  9  1  0  0  0  0
  5  6  1  0  0  0  0
  5 10  1  0  0  0  0
  6  2  1  0  0  0  0
  7 16  1  0  0  0  0
  8  1  1  0  0  0  0
 10  1  1  0  0  0  0
 11 18  1  1  0  0  0
 11  3  1  0  0  0  0
 11 15  1  0  0  0  0
 12 18  1  0  0  0  0
 14  4  1  6  0  0  0
 15 21  1  6  0  0  0
 15 14  1  0  0  0  0
 16  9  1  0  0  0  0
 16 27  1  1  0  0  0
 17 14  1  0  0  0  0
 17  7  1  1  0  0  0
 19 25  1  0  0  0  0
 19 23  1  0  0  0  0
 20 19  2  0  0  0  0
 21 23  2  0  0  0  0
 22 20  1  0  0  0  0
 22 24  2  0  0  0  0
 24 21  1  0  0  0  0
 27 26  2  0  0  0  0
 29 26  1  6  0  0  0
 29 30  1  0  0  0  0
 30 28  1  1  0  0  0
 30 34  1  0  0  0  0
 31 34  1  0  0  0  0
 32 31  1  0  0  0  0
 33 29  1  0  0  0  0
 33 32  1  0  0  0  0
M  END
>  <MODEL>
4

>  <REMARK>
 VINA RESULT:      -7.0      2.571      3.712
  Name = 
  3 active torsions:
  status: ('A' for Active; 'I' for Inactive)
    1  A    between atoms: C_3  and  C_13
    2  A    between atoms: C_12  and  C_28
    3  A    between atoms: C_17  and  C_29
                            x       y       z     vdW  Elec       q    Type
                         _______ _______ _______ _____ _____    ______ ____

>  <TORSDO>
F 3

$$$$
=
 OpenBabel10262423563D

 34 39  0  0  1  0  0  0  0  0999 V2000
  187.2140  175.8770  137.2870 C   0  0  2  0  0  3  0  0  0  0  0  0
  188.2550  178.1880  137.1070 C   0  0  0  0  0  0  0  0  0  0  0  0
  185.8100  177.9680  137.5850 C   0  0  1  0  0  3  0  0  0  0  0  0
  183.7230  178.4730  140.6580 C   0  0  0  0  0  2  0  0  0  0  0  0
  189.1480  176.3760  135.7150 C   0  0  0  0  0  2  0  0  0  0  0  0
  189.5000  177.6130  136.5190 C   0  0  0  0  0  2  0  0  0  0  0  0
  186.6430  178.4790  140.0340 C   0  0  0  0  0  2  0  0  0  0  0  0
  187.1290  177.3410  137.4060 N   0  0  0  0  0  0  0  0  0  0  0  0
  184.7630  178.5530  141.7850 C   0  0  0  0  0  2  0  0  0  0  0  0
  188.5060  175.3560  136.6420 C   0  0  0  0  0  2  0  0  0  0  0  0
  184.5950  177.0590  137.2160 C   0  0  2  0  0  3  0  0  0  0  0  0
  185.9910  175.3760  136.5510 C   0  0  0  0  0  2  0  0  0  0  0  0
  188.2040  179.4260  137.3370 O   0  0  0  0  0  0  0  0  0  0  0  0
  184.3640  177.7400  139.4920 C   0  0  1  0  0  3  0  0  0  0  0  0
  183.5320  177.3920  138.2670 C   0  0  1  0  0  3  0  0  0  0  0  0
  186.1030  179.1590  141.3060 C   0  0  1  0  0  3  0  0  0  0  0  0
  185.5440  178.5180  138.9840 C   0  0  2  0  0  3  0  0  0  0  0  0
  184.8730  175.6780  137.3370 O   0  0  0  0  0  0  0  0  0  0  0  0
  180.8580  179.3570  136.3660 C   0  0  0  0  0  0  0  0  0  0  0  0
  180.9210  180.5880  137.0230 C   0  0  0  0  0  3  0  0  0  0  0  0
  182.6030  178.4900  137.8170 C   0  0  0  0  0  0  0  0  0  0  0  0
  181.8230  180.7730  138.0750 C   0  0  0  0  0  3  0  0  0  0  0  0
  181.6960  178.3110  136.7600 C   0  0  0  0  0  3  0  0  0  0  0  0
  182.6620  179.7260  138.4700 C   0  0  0  0  0  3  0  0  0  0  0  0
  179.9860  179.1780  135.3450 F   0  0  0  0  0  0  0  0  0  0  0  0
  187.8380  178.0450  142.6810 C   0  0  0  0  0  3  0  0  0  0  0  0
  187.1240  179.1390  142.4010 C   0  0  0  0  0  3  0  0  0  0  0  0
  187.4210  176.9100  145.3510 O   0  0  0  0  0  1  0  0  0  0  0  0
  188.8510  178.0460  143.7810 C   0  0  1  0  0  3  0  0  0  0  0  0
  188.6590  176.8380  144.7130 C   0  0  1  0  0  3  0  0  0  0  0  0
  191.1350  176.7620  145.1190 C   0  0  0  0  0  2  0  0  0  0  0  0
  191.3200  177.9860  144.2300 C   0  0  0  0  0  2  0  0  0  0  0  0
  190.2430  178.0130  143.1510 C   0  0  0  0  0  2  0  0  0  0  0  0
  189.7590  176.7990  145.7740 C   0  0  0  0  0  2  0  0  0  0  0  0
  1 12  1  6  0  0  0
  1  8  1  0  0  0  0
  2 13  2  0  0  0  0
  2  8  1  0  0  0  0
  3  8  1  1  0  0  0
  3 17  1  0  0  0  0
  4  9  1  0  0  0  0
  5  6  1  0  0  0  0
  5 10  1  0  0  0  0
  6  2  1  0  0  0  0
  7 16  1  0  0  0  0
 10  1  1  0  0  0  0
 11 18  1  1  0  0  0
 11  3  1  0  0  0  0
 11 15  1  0  0  0  0
 12 18  1  0  0  0  0
 14  4  1  1  0  0  0
 15 21  1  6  0  0  0
 15 14  1  0  0  0  0
 16  9  1  0  0  0  0
 16 27  1  1  0  0  0
 17 14  1  0  0  0  0
 17  7  1  1  0  0  0
 19 23  2  0  0  0  0
 19 20  1  0  0  0  0
 20 22  2  0  0  0  0
 21 24  2  0  0  0  0
 22 24  1  0  0  0  0
 23 21  1  0  0  0  0
 25 19  1  0  0  0  0
 27 26  2  0  0  0  0
 29 26  1  6  0  0  0
 29 30  1  0  0  0  0
 30 28  1  1  0  0  0
 30 34  1  0  0  0  0
 31 34  1  0  0  0  0
 32 31  1  0  0  0  0
 33 29  1  0  0  0  0
 33 32  1  0  0  0  0
M  END
>  <MODEL>
5

>  <REMARK>
 VINA RESULT:      -6.8      1.688      2.099
  Name = 
  3 active torsions:
  status: ('A' for Active; 'I' for Inactive)
    1  A    between atoms: C_3  and  C_13
    2  A    between atoms: C_12  and  C_28
    3  A    between atoms: C_17  and  C_29
                            x       y       z     vdW  Elec       q    Type
                         _______ _______ _______ _____ _____    ______ ____

>  <TORSDO>
F 3

$$$$
=
 OpenBabel10262423563D

 34 39  0  0  1  0  0  0  0  0999 V2000
  189.7210  176.5250  135.2390 C   0  0  2  0  0  3  0  0  0  0  0  0
  188.7300  174.6000  136.5700 C   0  0  0  0  0  0  0  0  0  0  0  0
  191.1640  175.1310  136.7900 C   0  0  1  0  0  3  0  0  0  0  0  0
  193.2250  176.7390  139.4770 C   0  0  0  0  0  2  0  0  0  0  0  0
  187.8160  175.0960  134.3480 C   0  0  0  0  0  2  0  0  0  0  0  0
  187.4800  174.6420  135.7560 C   0  0  0  0  0  2  0  0  0  0  0  0
  190.3130  176.2700  139.0110 C   0  0  0  0  0  2  0  0  0  0  0  0
  189.8350  175.4710  136.2600 N   0  0  0  0  0  0  0  0  0  0  0  0
  192.1730  177.3680  140.4030 C   0  0  0  0  0  2  0  0  0  0  0  0
  188.4260  176.4870  134.4150 C   0  0  0  0  0  2  0  0  0  0  0  0
  192.3640  175.6290  135.9230 C   0  0  2  0  0  3  0  0  0  0  0  0
  190.9410  176.4740  134.3470 C   0  0  0  0  0  2  0  0  0  0  0  0
  188.8050  173.7910  137.5330 O   0  0  0  0  0  0  0  0  0  0  0  0
  192.5820  176.5510  138.1140 C   0  0  1  0  0  3  0  0  0  0  0  0
  193.4210  176.0630  136.9420 C   0  0  1  0  0  3  0  0  0  0  0  0
  190.8530  176.5640  140.4230 C   0  0  1  0  0  3  0  0  0  0  0  0
  191.4250  175.6000  138.2190 C   0  0  2  0  0  3  0  0  0  0  0  0
  192.0560  176.7650  135.1420 O   0  0  0  0  0  0  0  0  0  0  0  0
  196.5400  174.1490  138.0540 C   0  0  0  0  0  0  0  0  0  0  0  0
  196.1120  172.8300  137.8860 C   0  0  0  0  0  3  0  0  0  0  0  0
  194.3790  174.9520  137.2880 C   0  0  0  0  0  0  0  0  0  0  0  0
  194.8200  172.5690  137.4190 C   0  0  0  0  0  3  0  0  0  0  0  0
  195.6780  175.2070  137.7550 C   0  0  0  0  0  3  0  0  0  0  0  0
  193.9570  173.6280  137.1200 C   0  0  0  0  0  3  0  0  0  0  0  0
  197.7920  174.4020  138.5050 F   0  0  0  0  0  0  0  0  0  0  0  0
  189.7450  177.0680  142.5830 C   0  0  0  0  0  3  0  0  0  0  0  0
  189.8180  177.2500  141.2610 C   0  0  0  0  0  3  0  0  0  0  0  0
  187.4750  178.5680  141.4900 O   0  0  0  0  0  1  0  0  0  0  0  0
  188.7020  177.7620  143.4000 C   0  0  1  0  0  3  0  0  0  0  0  0
  187.3570  177.8120  142.6560 C   0  0  1  0  0  3  0  0  0  0  0  0
  186.1420  177.6630  144.8470 C   0  0  0  0  0  2  0  0  0  0  0  0
  187.4750  177.6580  145.5870 C   0  0  0  0  0  2  0  0  0  0  0  0
  188.5480  177.0090  144.7200 C   0  0  0  0  0  2  0  0  0  0  0  0
  186.2780  178.4360  143.5400 C   0  0  0  0  0  2  0  0  0  0  0  0
  1 12  1  6  0  0  0
  1  8  1  0  0  0  0
  2 13  2  0  0  0  0
  3  8  1  6  0  0  0
  3 17  1  0  0  0  0
  4  9  1  0  0  0  0
  5 10  1  0  0  0  0
  5  6  1  0  0  0  0
  6  2  1  0  0  0  0
  7 16  1  0  0  0  0
  8  2  1  0  0  0  0
  9 16  1  0  0  0  0
 10  1  1  0  0  0  0
 11 18  1  1  0  0  0
 11  3  1  0  0  0  0
 11 15  1  0  0  0  0
 12 18  1  0  0  0  0
 14 17  1  0  0  0  0
 14  4  1  1  0  0  0
 15 21  1  1  0  0  0
 15 14  1  0  0  0  0
 16 27  1  1  0  0  0
 17  7  1  6  0  0  0
 19 25  1  0  0  0  0
 20 19  1  0  0  0  0
 21 23  1  0  0  0  0
 22 20  2  0  0  0  0
 23 19  2  0  0  0  0
 24 21  2  0  0  0  0
 24 22  1  0  0  0  0
 27 26  2  0  0  0  0
 29 26  1  6  0  0  0
 29 33  1  0  0  0  0
 30 28  1  6  0  0  0
 30 29  1  0  0  0  0
 30 34  1  0  0  0  0
 31 32  1  0  0  0  0
 33 32  1  0  0  0  0
 34 31  1  0  0  0  0
M  END
>  <MODEL>
6

>  <REMARK>
 VINA RESULT:      -6.1      5.433      9.093
  Name = 
  3 active torsions:
  status: ('A' for Active; 'I' for Inactive)
    1  A    between atoms: C_3  and  C_13
    2  A    between atoms: C_12  and  C_28
    3  A    between atoms: C_17  and  C_29
                            x       y       z     vdW  Elec       q    Type
                         _______ _______ _______ _____ _____    ______ ____

>  <TORSDO>
F 3

$$$$
=
 OpenBabel10262423563D

 34 39  0  0  1  0  0  0  0  0999 V2000
  191.0730  178.1040  143.5520 C   0  0  2  0  0  3  0  0  0  0  0  0
  190.6010  175.6150  143.3460 C   0  0  0  0  0  0  0  0  0  0  0  0
  189.0500  177.2610  142.2770 C   0  0  1  0  0  3  0  0  0  0  0  0
  188.4310  178.3000  138.7290 C   0  0  0  0  0  2  0  0  0  0  0  0
  191.6560  176.4530  145.3960 C   0  0  0  0  0  2  0  0  0  0  0  0
  191.6070  175.3060  144.4040 C   0  0  0  0  0  2  0  0  0  0  0  0
  190.3950  176.5380  140.1270 C   0  0  0  0  0  2  0  0  0  0  0  0
  190.3020  176.9810  142.9960 N   0  0  0  0  0  0  0  0  0  0  0  0
  189.6290  177.7080  137.9710 C   0  0  0  0  0  2  0  0  0  0  0  0
  192.0640  177.7190  144.6600 C   0  0  0  0  0  2  0  0  0  0  0  0
  188.4500  178.6800  142.5320 C   0  0  2  0  0  3  0  0  0  0  0  0
  190.1100  179.1710  144.0230 C   0  0  0  0  0  2  0  0  0  0  0  0
  190.0160  174.6630  142.7640 O   0  0  0  0  0  0  0  0  0  0  0  0
  188.8310  178.4310  140.1890 C   0  0  1  0  0  3  0  0  0  0  0  0
  187.8900  179.1110  141.1730 C   0  0  1  0  0  3  0  0  0  0  0  0
  190.1420  176.3990  138.6150 C   0  0  1  0  0  3  0  0  0  0  0  0
  189.1230  177.0750  140.7640 C   0  0  2  0  0  3  0  0  0  0  0  0
  189.4200  179.6400  142.8990 O   0  0  0  0  0  0  0  0  0  0  0  0
  184.4610  178.4090  139.6320 C   0  0  0  0  0  0  0  0  0  0  0  0
  183.7320  178.0530  140.7680 C   0  0  0  0  0  3  0  0  0  0  0  0
  186.4410  178.7370  141.0020 C   0  0  0  0  0  0  0  0  0  0  0  0
  184.3520  178.0380  142.0210 C   0  0  0  0  0  3  0  0  0  0  0  0
  185.8110  178.7510  139.7460 C   0  0  0  0  0  3  0  0  0  0  0  0
  185.7030  178.3810  142.1370 C   0  0  0  0  0  3  0  0  0  0  0  0
  183.8600  178.4240  138.4180 F   0  0  0  0  0  0  0  0  0  0  0  0
  192.5390  176.5250  137.9980 C   0  0  0  0  0  3  0  0  0  0  0  0
  191.3640  175.8960  137.9100 C   0  0  0  0  0  3  0  0  0  0  0  0
  194.9180  175.4140  139.3020 O   0  0  0  0  0  1  0  0  0  0  0  0
  193.7460  176.0070  137.2830 C   0  0  1  0  0  3  0  0  0  0  0  0
  194.4400  174.9020  138.0960 C   0  0  1  0  0  3  0  0  0  0  0  0
  195.1430  173.7790  135.9640 C   0  0  0  0  0  2  0  0  0  0  0  0
  194.4930  174.8980  135.1590 C   0  0  0  0  0  2  0  0  0  0  0  0
  193.3030  175.4650  135.9250 C   0  0  0  0  0  2  0  0  0  0  0  0
  195.6130  174.3150  137.3110 C   0  0  0  0  0  2  0  0  0  0  0  0
  1 12  1  1  0  0  0
  1 10  1  0  0  0  0
  2  6  1  0  0  0  0
  3 11  1  0  0  0  0
  3  8  1  6  0  0  0
  6  5  1  0  0  0  0
  8  2  1  0  0  0  0
  8  1  1  0  0  0  0
  9 16  1  0  0  0  0
  9  4  1  0  0  0  0
 10  5  1  0  0  0  0
 11 18  1  6  0  0  0
 13  2  2  0  0  0  0
 14  4  1  6  0  0  0
 14 17  1  0  0  0  0
 14 15  1  0  0  0  0
 15 21  1  6  0  0  0
 15 11  1  0  0  0  0
 16 27  1  6  0  0  0
 16  7  1  0  0  0  0
 17  7  1  1  0  0  0
 17  3  1  0  0  0  0
 18 12  1  0  0  0  0
 19 23  2  0  0  0  0
 19 20  1  0  0  0  0
 20 22  2  0  0  0  0
 21 24  2  0  0  0  0
 22 24  1  0  0  0  0
 23 21  1  0  0  0  0
 25 19  1  0  0  0  0
 27 26  2  0  0  0  0
 29 26  1  1  0  0  0
 29 30  1  0  0  0  0
 30 28  1  1  0  0  0
 31 34  1  0  0  0  0
 32 33  1  0  0  0  0
 32 31  1  0  0  0  0
 33 29  1  0  0  0  0
 34 30  1  0  0  0  0
M  END
>  <MODEL>
7

>  <REMARK>
 VINA RESULT:      -6.1      3.972      7.373
  Name = 
  3 active torsions:
  status: ('A' for Active; 'I' for Inactive)
    1  A    between atoms: C_3  and  C_13
    2  A    between atoms: C_12  and  C_28
    3  A    between atoms: C_17  and  C_29
                            x       y       z     vdW  Elec       q    Type
                         _______ _______ _______ _____ _____    ______ ____

>  <TORSDO>
F 3

$$$$
