=
 OpenBabel10272401243D

 55 58  0  0  1  0  0  0  0  0999 V2000
  183.6050  178.9560  141.3750 C   0  0  1  0  0  3  0  0  0  0  0  0
  184.6200  178.9670  140.2420 C   0  0  0  0  0  2  0  0  0  0  0  0
  184.2110  177.9890  139.1520 C   0  0  0  0  0  2  0  0  0  0  0  0
  185.1530  178.0620  137.9560 C   0  0  0  0  0  2  0  0  0  0  0  0
  184.9360  176.9340  136.9510 C   0  0  0  0  0  2  0  0  0  0  0  0
  184.4810  175.6580  137.6420 C   0  0  0  0  0  2  0  0  0  0  0  0
  184.8200  174.4310  136.8080 C   0  0  1  0  0  3  0  0  0  0  0  0
  186.2300  174.3990  136.4220 N   0  0  0  0  0  0  0  0  0  0  0  0
  188.4290  174.3700  136.4540 C   0  0  0  0  0  0  0  0  0  0  0  0
  186.6590  174.2330  135.1560 C   0  0  0  0  0  3  0  0  0  0  0  0
  188.0430  174.2130  135.1350 C   0  0  0  0  0  3  0  0  0  0  0  0
  187.2970  174.4790  137.2400 C   0  0  0  0  0  3  0  0  0  0  0  0
  190.7140  173.7770  136.3280 O   0  0  0  0  0  0  0  0  0  0  0  0
  190.1470  175.1580  138.0590 O   0  0  0  0  0  1  0  0  0  0  0  0
  189.8150  174.4150  136.9350 C   0  0  0  0  0  0  0  0  0  0  0  0
  184.4240  173.1680  137.5680 C   0  0  0  0  0  2  0  0  0  0  0  0
  181.6050  171.4210  135.6670 C   0  0  0  0  0  3  0  0  0  0  0  0
  182.3050  170.3820  135.0540 C   0  0  0  0  0  3  0  0  0  0  0  0
  183.6610  172.2030  136.7070 C   0  0  0  0  0  0  0  0  0  0  0  0
  184.3550  171.1670  136.0660 C   0  0  0  0  0  3  0  0  0  0  0  0
  183.6800  170.2570  135.2490 C   0  0  0  0  0  3  0  0  0  0  0  0
  182.2680  172.3440  136.4870 C   0  0  0  0  0  0  0  0  0  0  0  0
  180.3550  172.9250  137.9810 C   0  0  0  0  0  1  0  0  0  0  0  0
  181.4460  173.4580  137.0690 C   0  0  2  0  0  3  0  0  0  0  0  0
  180.8790  174.3670  135.9900 C   0  0  0  0  0  2  0  0  0  0  0  0
  181.9130  174.8970  135.2180 O   0  0  0  0  0  0  0  0  0  0  0  0
  181.9380  177.1660  135.0430 O   0  0  0  0  0  1  0  0  0  0  0  0
  181.3380  175.9960  134.5820 C   0  0  0  0  0  2  0  0  0  0  0  0
  182.5010  178.1550  141.0560 O   0  0  0  0  0  0  0  0  0  0  0  0
  181.5050  179.0480  140.6510 C   0  0  0  0  0  2  0  0  0  0  0  0
  180.7720  178.9970  142.9140 O   0  0  0  0  0  1  0  0  0  0  0  0
  180.3220  178.9530  141.5940 C   0  0  0  0  0  2  0  0  0  0  0  0
  184.2700  178.5100  142.6810 C   0  0  0  0  0  2  0  0  0  0  0  0
  184.2610  179.5600  143.7920 C   0  0  0  0  0  2  0  0  0  0  0  0
  184.0580  178.9500  145.1750 C   0  0  0  0  0  2  0  0  0  0  0  0
  185.1180  179.2910  146.0200 O   0  0  0  0  0  0  0  0  0  0  0  0
  185.5970  178.0750  146.5140 C   0  0  0  0  0  2  0  0  0  0  0  0
  186.9560  178.2810  147.1600 C   0  0  0  0  0  2  0  0  0  0  0  0
  187.5830  177.0480  147.3690 O   0  0  0  0  0  0  0  0  0  0  0  0
  188.9000  177.3570  147.7250 C   0  0  0  0  0  2  0  0  0  0  0  0
  189.8440  176.5990  145.5420 C   0  0  2  0  0  3  0  0  0  0  0  0
  192.0140  177.7900  145.6890 O   0  0  0  0  0  1  0  0  0  0  0  0
  189.6940  177.7820  146.4960 C   0  0  2  0  0  3  0  0  0  0  0  0
  191.5000  176.1030  147.4510 C   0  0  0  0  0  1  0  0  0  0  0  0
  191.0320  177.0680  146.3720 C   0  0  1  0  0  0  0  0  0  0  0  0
  190.0300  176.9580  141.2550 C   0  0  1  0  0  3  0  0  0  0  0  0
  191.1320  177.3290  142.2630 C   0  0  0  0  0  2  0  0  0  0  0  0
  187.6560  177.9530  143.3570 C   0  0  0  0  0  1  0  0  0  0  0  0
  191.0060  176.5800  143.4440 O   0  0  0  0  0  0  0  0  0  0  0  0
  188.8410  176.2620  141.9360 C   0  0  0  0  0  2  0  0  0  0  0  0
  189.8860  177.1100  144.1060 C   0  0  1  0  0  3  0  0  0  0  0  0
  188.5830  176.7530  143.3700 C   0  0  1  0  0  3  0  0  0  0  0  0
  189.5580  178.1950  140.5060 C   0  0  0  0  0  2  0  0  0  0  0  0
  188.8120  178.4800  138.1590 C   0  0  0  0  0  1  0  0  0  0  0  0
  188.4930  177.8270  139.4880 C   0  0  0  0  0  2  0  0  0  0  0  0
  1  2  1  6  0  0  0
  1 33  1  0  0  0  0
  3  2  1  0  0  0  0
  4  3  1  0  0  0  0
  5  6  1  0  0  0  0
  5  4  1  0  0  0  0
  7 16  1  1  0  0  0
  7  6  1  0  0  0  0
  8  7  1  0  0  0  0
  8 12  1  0  0  0  0
  9 15  1  0  0  0  0
  9 12  2  0  0  0  0
 10  8  1  0  0  0  0
 11 10  2  0  0  0  0
 11  9  1  0  0  0  0
 13 15  2  0  0  0  0
 15 14  1  0  0  0  0
 17 22  1  0  0  0  0
 18 21  1  0  0  0  0
 18 17  2  0  0  0  0
 19 16  1  0  0  0  0
 20 19  1  0  0  0  0
 21 20  2  0  0  0  0
 22 19  2  0  0  0  0
 22 24  1  0  0  0  0
 24 23  1  6  0  0  0
 25 24  1  0  0  0  0
 26 25  1  0  0  0  0
 28 27  1  0  0  0  0
 28 26  1  0  0  0  0
 29  1  1  0  0  0  0
 30 29  1  0  0  0  0
 30 32  1  0  0  0  0
 32 31  1  0  0  0  0
 33 34  1  0  0  0  0
 34 35  1  0  0  0  0
 35 36  1  0  0  0  0
 36 37  1  0  0  0  0
 37 38  1  0  0  0  0
 38 39  1  0  0  0  0
 39 40  1  0  0  0  0
 41 51  1  6  0  0  0
 41 45  1  0  0  0  0
 41 43  1  0  0  0  0
 42 45  1  0  0  0  0
 43 40  1  1  0  0  0
 45 43  1  0  0  0  0
 45 44  1  1  0  0  0
 46 53  1  1  0  0  0
 46 50  1  0  0  0  0
 46 47  1  0  0  0  0
 47 49  1  0  0  0  0
 50 52  1  0  0  0  0
 51 49  1  6  0  0  0
 52 48  1  6  0  0  0
 52 51  1  0  0  0  0
 54 55  1  0  0  0  0
 55 53  1  0  0  0  0
M  END
>  <MODEL>
1

>  <REMARK>
 VINA RESULT:      -5.6      0.000      0.000
  Name = 
  29 active torsions:
  status: ('A' for Active; 'I' for Inactive)
    1  A    between atoms: C_1  and  C_46
    2  A    between atoms: C_2  and  C_44
    3  A    between atoms: C_2  and  C_49
    4  A    between atoms: C_3  and  C_25
    5  A    between atoms: C_5  and  O_40
    6  A    between atoms: C_5  and  C_45
    7  A    between atoms: C_8  and  O_20
    8  A    between atoms: C_8  and  C_22
    9  A    between atoms: C_12  and  C_42
   10  A    between atoms: N_13  and  C_52
   11  A    between atoms: C_16  and  C_36
   12  A    between atoms: O_20  and  C_42
   13  A    between atoms: C_22  and  O_43
   14  A    between atoms: C_25  and  C_38
   15  A    between atoms: C_26  and  C_45
   16  A    between atoms: C_27  and  C_31
   17  A    between atoms: C_27  and  C_49
   18  A    between atoms: C_27  and  O_54
   19  A    between atoms: C_28  and  C_33
   20  A    between atoms: C_28  and  C_44
   21  A    between atoms: C_31  and  C_35
   22  A    between atoms: C_32  and  C_47
   23  A    between atoms: C_33  and  C_52
   24  A    between atoms: C_35  and  C_51
   25  A    between atoms: C_36  and  C_52
   26  A    between atoms: C_37  and  O_40
   27  A    between atoms: C_41  and  C_55
   28  A    between atoms: O_43  and  C_51
   29  A    between atoms: O_54  and  C_55
                            x       y       z     vdW  Elec       q    Type
                         _______ _______ _______ _____ _____    ______ ____

>  <TORSDO>
F 29

$$$$
=
 OpenBabel10272401243D

 55 58  0  0  1  0  0  0  0  0999 V2000
  189.4280  177.1770  143.3980 C   0  0  1  0  0  3  0  0  0  0  0  0
  189.2420  176.7940  141.9360 C   0  0  0  0  0  2  0  0  0  0  0  0
  189.1580  178.0390  141.0670 C   0  0  0  0  0  2  0  0  0  0  0  0
  189.8640  177.8340  139.7320 C   0  0  0  0  0  2  0  0  0  0  0  0
  188.9950  177.1310  138.6940 C   0  0  0  0  0  2  0  0  0  0  0  0
  189.6080  175.8080  138.2620 C   0  0  0  0  0  2  0  0  0  0  0  0
  190.5920  176.0050  137.1170 C   0  0  1  0  0  3  0  0  0  0  0  0
  191.9350  175.5410  137.4590 N   0  0  0  0  0  0  0  0  0  0  0  0
  193.7600  174.3340  137.6850 C   0  0  0  0  0  0  0  0  0  0  0  0
  192.8810  176.3230  138.0150 C   0  0  0  0  0  3  0  0  0  0  0  0
  194.0470  175.5950  138.1770 C   0  0  0  0  0  3  0  0  0  0  0  0
  192.4510  174.3170  137.2400 C   0  0  0  0  0  3  0  0  0  0  0  0
  195.1400  172.7170  138.7190 O   0  0  0  0  0  1  0  0  0  0  0  0
  195.0950  172.6610  136.4340 O   0  0  0  0  0  0  0  0  0  0  0  0
  194.6940  173.2030  137.6480 C   0  0  0  0  0  0  0  0  0  0  0  0
  190.0660  175.3100  135.8640 C   0  0  0  0  0  2  0  0  0  0  0  0
  186.3930  175.9020  134.9870 C   0  0  0  0  0  3  0  0  0  0  0  0
  186.4580  177.1790  134.4280 C   0  0  0  0  0  3  0  0  0  0  0  0
  188.7970  175.9340  135.3600 C   0  0  0  0  0  0  0  0  0  0  0  0
  188.8440  177.2260  134.8170 C   0  0  0  0  0  3  0  0  0  0  0  0
  187.6810  177.8430  134.3480 C   0  0  0  0  0  3  0  0  0  0  0  0
  187.5490  175.2710  135.4650 C   0  0  0  0  0  0  0  0  0  0  0  0
  187.0610  172.8590  135.0530 C   0  0  0  0  0  1  0  0  0  0  0  0
  187.3800  173.9180  136.0940 C   0  0  2  0  0  3  0  0  0  0  0  0
  186.3480  173.9350  137.2100 C   0  0  0  0  0  2  0  0  0  0  0  0
  185.9280  172.6360  137.4950 O   0  0  0  0  0  0  0  0  0  0  0  0
  184.1480  174.0480  137.3570 O   0  0  0  0  0  1  0  0  0  0  0  0
  184.5510  172.7520  137.6740 C   0  0  0  0  0  2  0  0  0  0  0  0
  190.4660  178.1060  143.5470 O   0  0  0  0  0  0  0  0  0  0  0  0
  191.6150  177.3390  143.7570 C   0  0  0  0  0  2  0  0  0  0  0  0
  191.8990  177.2360  146.1170 O   0  0  0  0  0  1  0  0  0  0  0  0
  191.4510  176.5090  145.0150 C   0  0  0  0  0  2  0  0  0  0  0  0
  188.1120  177.7010  143.9810 C   0  0  0  0  0  2  0  0  0  0  0  0
  187.6840  177.0310  145.2870 C   0  0  0  0  0  2  0  0  0  0  0  0
  186.3670  177.5800  145.8250 C   0  0  0  0  0  2  0  0  0  0  0  0
  186.3110  178.9670  145.6620 O   0  0  0  0  0  0  0  0  0  0  0  0
  184.9570  179.2590  145.4770 C   0  0  0  0  0  2  0  0  0  0  0  0
  184.4080  178.4440  144.3200 C   0  0  0  0  0  2  0  0  0  0  0  0
  183.8800  179.2910  143.3390 O   0  0  0  0  0  0  0  0  0  0  0  0
  182.9580  178.5120  142.6330 C   0  0  0  0  0  2  0  0  0  0  0  0
  183.4480  177.7610  140.3030 C   0  0  2  0  0  3  0  0  0  0  0  0
  184.4470  179.8750  139.4780 O   0  0  0  0  0  1  0  0  0  0  0  0
  182.9400  178.9160  141.1640 C   0  0  2  0  0  3  0  0  0  0  0  0
  185.5680  178.7360  141.3910 C   0  0  0  0  0  1  0  0  0  0  0  0
  184.3280  178.9800  140.5450 C   0  0  1  0  0  0  0  0  0  0  0  0
  181.8270  176.8040  136.4310 C   0  0  1  0  0  3  0  0  0  0  0  0
  183.0210  177.7280  136.7310 C   0  0  0  0  0  2  0  0  0  0  0  0
  180.2600  177.7890  139.1910 C   0  0  0  0  0  1  0  0  0  0  0  0
  183.6350  177.3760  137.9440 O   0  0  0  0  0  0  0  0  0  0  0  0
  181.3260  176.0850  137.6930 C   0  0  0  0  0  2  0  0  0  0  0  0
  182.7480  177.7940  138.9490 C   0  0  1  0  0  3  0  0  0  0  0  0
  181.4830  176.9190  138.9750 C   0  0  1  0  0  3  0  0  0  0  0  0
  180.6950  177.5910  135.7890 C   0  0  0  0  0  2  0  0  0  0  0  0
  180.1260  175.6510  134.3540 C   0  0  0  0  0  1  0  0  0  0  0  0
  180.4670  177.1270  134.3610 C   0  0  0  0  0  2  0  0  0  0  0  0
  1  2  1  6  0  0  0
  1 29  1  0  0  0  0
  1 33  1  0  0  0  0
  3  2  1  0  0  0  0
  4  3  1  0  0  0  0
  5  4  1  0  0  0  0
  6  5  1  0  0  0  0
  7 16  1  6  0  0  0
  7  8  1  0  0  0  0
  7  6  1  0  0  0  0
  8 10  1  0  0  0  0
  9 11  1  0  0  0  0
 10 11  2  0  0  0  0
 12  8  1  0  0  0  0
 12  9  2  0  0  0  0
 14 15  2  0  0  0  0
 15  9  1  0  0  0  0
 15 13  1  0  0  0  0
 17 22  1  0  0  0  0
 18 17  2  0  0  0  0
 19 22  2  0  0  0  0
 19 16  1  0  0  0  0
 20 19  1  0  0  0  0
 21 18  1  0  0  0  0
 21 20  2  0  0  0  0
 22 24  1  0  0  0  0
 24 23  1  6  0  0  0
 24 25  1  0  0  0  0
 25 26  1  0  0  0  0
 26 28  1  0  0  0  0
 27 28  1  0  0  0  0
 29 30  1  0  0  0  0
 30 32  1  0  0  0  0
 32 31  1  0  0  0  0
 33 34  1  0  0  0  0
 34 35  1  0  0  0  0
 36 35  1  0  0  0  0
 37 36  1  0  0  0  0
 38 37  1  0  0  0  0
 39 38  1  0  0  0  0
 40 39  1  0  0  0  0
 41 51  1  6  0  0  0
 41 45  1  0  0  0  0
 41 43  1  0  0  0  0
 42 45  1  0  0  0  0
 43 40  1  1  0  0  0
 45 43  1  0  0  0  0
 45 44  1  1  0  0  0
 46 53  1  1  0  0  0
 46 47  1  0  0  0  0
 46 50  1  0  0  0  0
 47 49  1  0  0  0  0
 50 52  1  0  0  0  0
 51 49  1  6  0  0  0
 51 52  1  0  0  0  0
 52 48  1  6  0  0  0
 54 55  1  0  0  0  0
 55 53  1  0  0  0  0
M  END
>  <MODEL>
2

>  <REMARK>
 VINA RESULT:      -5.1      2.523      7.295
  Name = 
  29 active torsions:
  status: ('A' for Active; 'I' for Inactive)
    1  A    between atoms: C_1  and  C_46
    2  A    between atoms: C_2  and  C_44
    3  A    between atoms: C_2  and  C_49
    4  A    between atoms: C_3  and  C_25
    5  A    between atoms: C_5  and  O_40
    6  A    between atoms: C_5  and  C_45
    7  A    between atoms: C_8  and  O_20
    8  A    between atoms: C_8  and  C_22
    9  A    between atoms: C_12  and  C_42
   10  A    between atoms: N_13  and  C_52
   11  A    between atoms: C_16  and  C_36
   12  A    between atoms: O_20  and  C_42
   13  A    between atoms: C_22  and  O_43
   14  A    between atoms: C_25  and  C_38
   15  A    between atoms: C_26  and  C_45
   16  A    between atoms: C_27  and  C_31
   17  A    between atoms: C_27  and  C_49
   18  A    between atoms: C_27  and  O_54
   19  A    between atoms: C_28  and  C_33
   20  A    between atoms: C_28  and  C_44
   21  A    between atoms: C_31  and  C_35
   22  A    between atoms: C_32  and  C_47
   23  A    between atoms: C_33  and  C_52
   24  A    between atoms: C_35  and  C_51
   25  A    between atoms: C_36  and  C_52
   26  A    between atoms: C_37  and  O_40
   27  A    between atoms: C_41  and  C_55
   28  A    between atoms: O_43  and  C_51
   29  A    between atoms: O_54  and  C_55
                            x       y       z     vdW  Elec       q    Type
                         _______ _______ _______ _____ _____    ______ ____

>  <TORSDO>
F 29

$$$$
=
 OpenBabel10272401243D

 55 58  0  0  1  0  0  0  0  0999 V2000
  192.1000  176.1830  137.6980 C   0  0  1  0  0  3  0  0  0  0  0  0
  192.6870  176.6030  139.0380 C   0  0  0  0  0  2  0  0  0  0  0  0
  191.7320  177.5330  139.7680 C   0  0  0  0  0  2  0  0  0  0  0  0
  191.7250  177.2580  141.2680 C   0  0  0  0  0  2  0  0  0  0  0  0
  190.7900  176.1190  141.6640 C   0  0  0  0  0  2  0  0  0  0  0  0
  189.8180  176.5530  142.7510 C   0  0  0  0  0  2  0  0  0  0  0  0
  189.4870  178.0340  142.6330 C   0  0  1  0  0  3  0  0  0  0  0  0
  188.3370  178.2740  141.7630 N   0  0  0  0  0  0  0  0  0  0  0  0
  186.9880  178.3990  140.0300 C   0  0  0  0  0  0  0  0  0  0  0  0
  187.1330  178.6870  142.2060 C   0  0  0  0  0  3  0  0  0  0  0  0
  186.2550  178.7810  141.1400 C   0  0  0  0  0  3  0  0  0  0  0  0
  188.2730  178.0830  140.4320 C   0  0  0  0  0  3  0  0  0  0  0  0
  185.4090  177.7320  138.4020 O   0  0  0  0  0  1  0  0  0  0  0  0
  187.1740  178.9580  137.6220 O   0  0  0  0  0  0  0  0  0  0  0  0
  186.4800  178.3420  138.6550 C   0  0  0  0  0  0  0  0  0  0  0  0
  189.2630  178.6220  144.0240 C   0  0  0  0  0  2  0  0  0  0  0  0
  189.9950  176.8210  147.3150 C   0  0  0  0  0  3  0  0  0  0  0  0
  191.2470  176.2690  147.0400 C   0  0  0  0  0  3  0  0  0  0  0  0
  189.9390  177.8170  145.0960 C   0  0  0  0  0  0  0  0  0  0  0  0
  191.1860  177.2370  144.8250 C   0  0  0  0  0  3  0  0  0  0  0  0
  191.8400  176.4720  145.7940 C   0  0  0  0  0  3  0  0  0  0  0  0
  189.3250  177.5880  146.3530 C   0  0  0  0  0  0  0  0  0  0  0  0
  187.6540  177.8710  148.1840 C   0  0  0  0  0  1  0  0  0  0  0  0
  187.9630  178.1050  146.7160 C   0  0  2  0  0  3  0  0  0  0  0  0
  186.8800  177.5290  145.8180 C   0  0  0  0  0  2  0  0  0  0  0  0
  185.6340  177.6450  146.4340 O   0  0  0  0  0  0  0  0  0  0  0  0
  185.3310  179.7760  145.6960 O   0  0  0  0  0  1  0  0  0  0  0  0
  184.8990  178.4570  145.5720 C   0  0  0  0  0  2  0  0  0  0  0  0
  193.0850  175.6380  136.8640 O   0  0  0  0  0  0  0  0  0  0  0  0
  193.0530  174.2630  137.1120 C   0  0  0  0  0  2  0  0  0  0  0  0
  194.9620  173.9270  138.4930 O   0  0  0  0  0  1  0  0  0  0  0  0
  194.4700  173.7290  137.2030 C   0  0  0  0  0  2  0  0  0  0  0  0
  190.9350  175.2120  137.9080 C   0  0  0  0  0  2  0  0  0  0  0  0
  189.5550  175.7980  137.6100 C   0  0  0  0  0  2  0  0  0  0  0  0
  188.8550  175.0940  136.4530 C   0  0  0  0  0  2  0  0  0  0  0  0
  188.3960  173.8350  136.8510 O   0  0  0  0  0  0  0  0  0  0  0  0
  188.9390  172.9390  135.9270 C   0  0  0  0  0  2  0  0  0  0  0  0
  187.8830  171.9340  135.5020 C   0  0  0  0  0  2  0  0  0  0  0  0
  186.6360  172.2930  136.0260 O   0  0  0  0  0  0  0  0  0  0  0  0
  185.7440  171.3210  135.5600 C   0  0  0  0  0  2  0  0  0  0  0  0
  183.6130  172.0100  136.6620 C   0  0  2  0  0  3  0  0  0  0  0  0
  182.0580  171.2110  134.9050 O   0  0  0  0  0  1  0  0  0  0  0  0
  184.3660  171.9320  135.3360 C   0  0  2  0  0  3  0  0  0  0  0  0
  183.5170  169.5200  136.0130 C   0  0  0  0  0  1  0  0  0  0  0  0
  183.2290  170.9630  135.6250 C   0  0  1  0  0  0  0  0  0  0  0  0
  181.0010  175.2660  137.7190 C   0  0  1  0  0  3  0  0  0  0  0  0
  180.6100  173.9620  137.0000 C   0  0  0  0  0  2  0  0  0  0  0  0
  183.9440  175.3350  136.1760 C   0  0  0  0  0  1  0  0  0  0  0  0
  181.4970  172.9240  137.3250 O   0  0  0  0  0  0  0  0  0  0  0  0
  182.4620  175.2420  138.1960 C   0  0  0  0  0  2  0  0  0  0  0  0
  182.6910  173.2240  136.6480 C   0  0  1  0  0  3  0  0  0  0  0  0
  183.3940  174.4420  137.2720 C   0  0  1  0  0  3  0  0  0  0  0  0
  180.7620  176.4640  136.8130 C   0  0  0  0  0  2  0  0  0  0  0  0
  181.1860  178.7530  137.6650 C   0  0  0  0  0  1  0  0  0  0  0  0
  180.1800  177.6220  137.6040 C   0  0  0  0  0  2  0  0  0  0  0  0
  1 33  1  1  0  0  0
  1  2  1  0  0  0  0
  2  3  1  0  0  0  0
  3  4  1  0  0  0  0
  4  5  1  0  0  0  0
  5  6  1  0  0  0  0
  7  6  1  1  0  0  0
  7 16  1  0  0  0  0
  8 10  1  0  0  0  0
  8  7  1  0  0  0  0
  9 12  2  0  0  0  0
  9 11  1  0  0  0  0
 11 10  2  0  0  0  0
 12  8  1  0  0  0  0
 13 15  1  0  0  0  0
 14 15  2  0  0  0  0
 15  9  1  0  0  0  0
 16 19  1  0  0  0  0
 18 17  1  0  0  0  0
 19 22  1  0  0  0  0
 20 19  2  0  0  0  0
 20 21  1  0  0  0  0
 21 18  2  0  0  0  0
 22 24  1  0  0  0  0
 22 17  2  0  0  0  0
 24 23  1  1  0  0  0
 25 26  1  0  0  0  0
 25 24  1  0  0  0  0
 28 27  1  0  0  0  0
 28 26  1  0  0  0  0
 29 30  1  0  0  0  0
 29  1  1  0  0  0  0
 30 32  1  0  0  0  0
 32 31  1  0  0  0  0
 34 33  1  0  0  0  0
 35 36  1  0  0  0  0
 35 34  1  0  0  0  0
 37 36  1  0  0  0  0
 38 37  1  0  0  0  0
 38 39  1  0  0  0  0
 40 39  1  0  0  0  0
 41 51  1  6  0  0  0
 42 45  1  0  0  0  0
 43 40  1  1  0  0  0
 43 45  1  0  0  0  0
 43 41  1  0  0  0  0
 45 44  1  1  0  0  0
 45 41  1  0  0  0  0
 46 53  1  6  0  0  0
 46 50  1  0  0  0  0
 47 49  1  0  0  0  0
 47 46  1  0  0  0  0
 51 52  1  0  0  0  0
 51 49  1  1  0  0  0
 52 48  1  6  0  0  0
 52 50  1  0  0  0  0
 53 55  1  0  0  0  0
 55 54  1  0  0  0  0
M  END
>  <MODEL>
3

>  <REMARK>
 VINA RESULT:      -4.9      2.518     11.128
  Name = 
  29 active torsions:
  status: ('A' for Active; 'I' for Inactive)
    1  A    between atoms: C_1  and  C_46
    2  A    between atoms: C_2  and  C_44
    3  A    between atoms: C_2  and  C_49
    4  A    between atoms: C_3  and  C_25
    5  A    between atoms: C_5  and  O_40
    6  A    between atoms: C_5  and  C_45
    7  A    between atoms: C_8  and  O_20
    8  A    between atoms: C_8  and  C_22
    9  A    between atoms: C_12  and  C_42
   10  A    between atoms: N_13  and  C_52
   11  A    between atoms: C_16  and  C_36
   12  A    between atoms: O_20  and  C_42
   13  A    between atoms: C_22  and  O_43
   14  A    between atoms: C_25  and  C_38
   15  A    between atoms: C_26  and  C_45
   16  A    between atoms: C_27  and  C_31
   17  A    between atoms: C_27  and  C_49
   18  A    between atoms: C_27  and  O_54
   19  A    between atoms: C_28  and  C_33
   20  A    between atoms: C_28  and  C_44
   21  A    between atoms: C_31  and  C_35
   22  A    between atoms: C_32  and  C_47
   23  A    between atoms: C_33  and  C_52
   24  A    between atoms: C_35  and  C_51
   25  A    between atoms: C_36  and  C_52
   26  A    between atoms: C_37  and  O_40
   27  A    between atoms: C_41  and  C_55
   28  A    between atoms: O_43  and  C_51
   29  A    between atoms: O_54  and  C_55
                            x       y       z     vdW  Elec       q    Type
                         _______ _______ _______ _____ _____    ______ ____

>  <TORSDO>
F 29

$$$$
=
 OpenBabel10272401243D

 55 58  0  0  1  0  0  0  0  0999 V2000
  184.1100  178.7500  141.1820 C   0  0  1  0  0  3  0  0  0  0  0  0
  185.1610  178.8980  140.0910 C   0  0  0  0  0  2  0  0  0  0  0  0
  184.8500  177.9750  138.9240 C   0  0  0  0  0  2  0  0  0  0  0  0
  185.5760  178.4140  137.6580 C   0  0  0  0  0  2  0  0  0  0  0  0
  185.8730  177.2590  136.7060 C   0  0  0  0  0  2  0  0  0  0  0  0
  185.6810  175.9140  137.3890 C   0  0  0  0  0  2  0  0  0  0  0  0
  186.4330  174.8120  136.6560 C   0  0  1  0  0  3  0  0  0  0  0  0
  187.8650  175.0890  136.5650 N   0  0  0  0  0  0  0  0  0  0  0  0
  190.0090  175.3010  137.0100 C   0  0  0  0  0  0  0  0  0  0  0  0
  188.4880  175.4590  135.4290 C   0  0  0  0  0  3  0  0  0  0  0  0
  189.8430  175.6060  135.6700 C   0  0  0  0  0  3  0  0  0  0  0  0
  188.7770  174.9780  137.5490 C   0  0  0  0  0  3  0  0  0  0  0  0
  191.9760  174.2720  137.8230 O   0  0  0  0  0  0  0  0  0  0  0  0
  191.7400  176.4900  138.3270 O   0  0  0  0  0  1  0  0  0  0  0  0
  191.2850  175.3200  137.7340 C   0  0  0  0  0  0  0  0  0  0  0  0
  186.1680  173.4710  137.3350 C   0  0  0  0  0  2  0  0  0  0  0  0
  185.6290  170.6390  134.8250 C   0  0  0  0  0  3  0  0  0  0  0  0
  186.9340  170.1680  134.6740 C   0  0  0  0  0  3  0  0  0  0  0  0
  186.4070  172.3110  136.4120 C   0  0  0  0  0  0  0  0  0  0  0  0
  187.7160  171.8420  136.2330 C   0  0  0  0  0  3  0  0  0  0  0  0
  187.9780  170.7720  135.3740 C   0  0  0  0  0  3  0  0  0  0  0  0
  185.3510  171.7130  135.6800 C   0  0  0  0  0  0  0  0  0  0  0  0
  183.7290  173.4630  134.9500 C   0  0  0  0  0  1  0  0  0  0  0  0
  183.9260  172.1850  135.7450 C   0  0  2  0  0  3  0  0  0  0  0  0
  183.4450  172.3380  137.1800 C   0  0  0  0  0  2  0  0  0  0  0  0
  182.2880  171.5840  137.3800 O   0  0  0  0  0  0  0  0  0  0  0  0
  180.4430  171.0430  136.1640 O   0  0  0  0  0  1  0  0  0  0  0  0
  181.7980  171.3600  136.0950 C   0  0  0  0  0  2  0  0  0  0  0  0
  183.1150  177.8390  140.8030 O   0  0  0  0  0  0  0  0  0  0  0  0
  182.0320  178.6260  140.4040 C   0  0  0  0  0  2  0  0  0  0  0  0
  181.1740  178.7690  142.6190 O   0  0  0  0  0  1  0  0  0  0  0  0
  180.8520  178.3720  141.3210 C   0  0  0  0  0  2  0  0  0  0  0  0
  184.7700  178.3490  142.5050 C   0  0  0  0  0  2  0  0  0  0  0  0
  184.6330  179.3820  143.6230 C   0  0  0  0  0  2  0  0  0  0  0  0
  184.5780  178.7450  145.0080 C   0  0  0  0  0  2  0  0  0  0  0  0
  185.6640  179.1610  145.7820 O   0  0  0  0  0  0  0  0  0  0  0  0
  185.9860  178.0620  146.5820 C   0  0  0  0  0  2  0  0  0  0  0  0
  187.1200  178.4240  147.5240 C   0  0  0  0  0  2  0  0  0  0  0  0
  187.6620  177.2680  148.0970 O   0  0  0  0  0  0  0  0  0  0  0  0
  189.0310  177.5210  148.2210 C   0  0  0  0  0  2  0  0  0  0  0  0
  189.5120  176.8100  145.8770 C   0  0  2  0  0  3  0  0  0  0  0  0
  191.7410  177.8730  145.6590 O   0  0  0  0  0  1  0  0  0  0  0  0
  189.6120  177.9560  146.8810 C   0  0  2  0  0  3  0  0  0  0  0  0
  191.4550  176.1400  147.4290 C   0  0  0  0  0  1  0  0  0  0  0  0
  190.8580  177.1760  146.4880 C   0  0  1  0  0  0  0  0  0  0  0  0
  189.8480  177.7720  141.6930 C   0  0  1  0  0  3  0  0  0  0  0  0
  190.1920  178.6860  142.8830 C   0  0  0  0  0  2  0  0  0  0  0  0
  187.3030  176.4270  143.3530 C   0  0  0  0  0  1  0  0  0  0  0  0
  190.5310  177.9290  144.0160 O   0  0  0  0  0  0  0  0  0  0  0  0
  189.4990  176.3460  142.1470 C   0  0  0  0  0  2  0  0  0  0  0  0
  189.3220  177.3800  144.4760 C   0  0  1  0  0  3  0  0  0  0  0  0
  188.8050  176.2930  143.5180 C   0  0  1  0  0  3  0  0  0  0  0  0
  188.7030  178.3630  140.8850 C   0  0  0  0  0  2  0  0  0  0  0  0
  189.0580  178.6660  138.4490 C   0  0  0  0  0  1  0  0  0  0  0  0
  188.6130  177.6950  139.5240 C   0  0  0  0  0  2  0  0  0  0  0  0
  1  2  1  6  0  0  0
  1 33  1  0  0  0  0
  3  2  1  0  0  0  0
  4  3  1  0  0  0  0
  5  6  1  0  0  0  0
  5  4  1  0  0  0  0
  7 16  1  1  0  0  0
  7  6  1  0  0  0  0
  8  7  1  0  0  0  0
  8 12  1  0  0  0  0
  9 12  2  0  0  0  0
  9 15  1  0  0  0  0
 10 11  2  0  0  0  0
 10  8  1  0  0  0  0
 11  9  1  0  0  0  0
 15 13  2  0  0  0  0
 15 14  1  0  0  0  0
 17 22  1  0  0  0  0
 18 17  2  0  0  0  0
 18 21  1  0  0  0  0
 19 16  1  0  0  0  0
 20 19  1  0  0  0  0
 21 20  2  0  0  0  0
 22 24  1  0  0  0  0
 22 19  2  0  0  0  0
 24 23  1  1  0  0  0
 24 25  1  0  0  0  0
 25 26  1  0  0  0  0
 28 27  1  0  0  0  0
 28 26  1  0  0  0  0
 29  1  1  0  0  0  0
 30 29  1  0  0  0  0
 30 32  1  0  0  0  0
 32 31  1  0  0  0  0
 33 34  1  0  0  0  0
 34 35  1  0  0  0  0
 35 36  1  0  0  0  0
 36 37  1  0  0  0  0
 37 38  1  0  0  0  0
 38 39  1  0  0  0  0
 39 40  1  0  0  0  0
 41 51  1  6  0  0  0
 41 45  1  0  0  0  0
 41 43  1  0  0  0  0
 42 45  1  0  0  0  0
 43 40  1  1  0  0  0
 45 43  1  0  0  0  0
 45 44  1  1  0  0  0
 46 53  1  1  0  0  0
 46 50  1  0  0  0  0
 46 47  1  0  0  0  0
 47 49  1  0  0  0  0
 50 52  1  0  0  0  0
 51 49  1  6  0  0  0
 52 48  1  6  0  0  0
 52 51  1  0  0  0  0
 54 55  1  0  0  0  0
 55 53  1  0  0  0  0
M  END
>  <MODEL>
4

>  <REMARK>
 VINA RESULT:      -4.8      1.593      2.213
  Name = 
  29 active torsions:
  status: ('A' for Active; 'I' for Inactive)
    1  A    between atoms: C_1  and  C_46
    2  A    between atoms: C_2  and  C_44
    3  A    between atoms: C_2  and  C_49
    4  A    between atoms: C_3  and  C_25
    5  A    between atoms: C_5  and  O_40
    6  A    between atoms: C_5  and  C_45
    7  A    between atoms: C_8  and  O_20
    8  A    between atoms: C_8  and  C_22
    9  A    between atoms: C_12  and  C_42
   10  A    between atoms: N_13  and  C_52
   11  A    between atoms: C_16  and  C_36
   12  A    between atoms: O_20  and  C_42
   13  A    between atoms: C_22  and  O_43
   14  A    between atoms: C_25  and  C_38
   15  A    between atoms: C_26  and  C_45
   16  A    between atoms: C_27  and  C_31
   17  A    between atoms: C_27  and  C_49
   18  A    between atoms: C_27  and  O_54
   19  A    between atoms: C_28  and  C_33
   20  A    between atoms: C_28  and  C_44
   21  A    between atoms: C_31  and  C_35
   22  A    between atoms: C_32  and  C_47
   23  A    between atoms: C_33  and  C_52
   24  A    between atoms: C_35  and  C_51
   25  A    between atoms: C_36  and  C_52
   26  A    between atoms: C_37  and  O_40
   27  A    between atoms: C_41  and  C_55
   28  A    between atoms: O_43  and  C_51
   29  A    between atoms: O_54  and  C_55
                            x       y       z     vdW  Elec       q    Type
                         _______ _______ _______ _____ _____    ______ ____

>  <TORSDO>
F 29

$$$$
=
 OpenBabel10272401243D

 55 58  0  0  1  0  0  0  0  0999 V2000
  191.8240  177.0650  139.5390 C   0  0  1  0  0  3  0  0  0  0  0  0
  191.3050  176.0070  140.5020 C   0  0  0  0  0  2  0  0  0  0  0  0
  190.6810  176.6600  141.7250 C   0  0  0  0  0  2  0  0  0  0  0  0
  189.8100  177.8500  141.3370 C   0  0  0  0  0  2  0  0  0  0  0  0
  188.3170  177.5370  141.3730 C   0  0  0  0  0  2  0  0  0  0  0  0
  187.4830  178.8060  141.2820 C   0  0  0  0  0  2  0  0  0  0  0  0
  186.2790  178.7390  142.2110 C   0  0  1  0  0  3  0  0  0  0  0  0
  185.0170  178.7020  141.4740 N   0  0  0  0  0  0  0  0  0  0  0  0
  182.8850  178.6520  140.9360 C   0  0  0  0  0  0  0  0  0  0  0  0
  184.9270  178.7980  140.1330 C   0  0  0  0  0  3  0  0  0  0  0  0
  183.5960  178.7660  139.7540 C   0  0  0  0  0  3  0  0  0  0  0  0
  183.7770  178.6180  141.9910 C   0  0  0  0  0  3  0  0  0  0  0  0
  180.8930  177.9450  141.9940 O   0  0  0  0  0  1  0  0  0  0  0  0
  180.6150  179.2000  140.1030 O   0  0  0  0  0  0  0  0  0  0  0  0
  181.4230  178.5770  141.0440 C   0  0  0  0  0  0  0  0  0  0  0  0
  186.4140  177.5360  143.1410 C   0  0  0  0  0  2  0  0  0  0  0  0
  187.1860  178.2010  146.8250 C   0  0  0  0  0  3  0  0  0  0  0  0
  185.9570  178.6890  147.2690 C   0  0  0  0  0  3  0  0  0  0  0  0
  186.2770  177.9190  144.5860 C   0  0  0  0  0  0  0  0  0  0  0  0
  185.0530  178.4330  145.0400 C   0  0  0  0  0  3  0  0  0  0  0  0
  184.8920  178.8110  146.3760 C   0  0  0  0  0  3  0  0  0  0  0  0
  187.3650  177.8210  145.4890 C   0  0  0  0  0  0  0  0  0  0  0  0
  189.3790  176.5220  146.1840 C   0  0  0  0  0  1  0  0  0  0  0  0
  188.7340  177.3510  145.0870 C   0  0  2  0  0  3  0  0  0  0  0  0
  189.6270  178.5050  144.6580 C   0  0  0  0  0  2  0  0  0  0  0  0
  190.9070  178.3430  145.1870 O   0  0  0  0  0  0  0  0  0  0  0  0
  192.4670  179.8920  144.6010 O   0  0  0  0  0  1  0  0  0  0  0  0
  191.7560  178.7750  144.1700 C   0  0  0  0  0  2  0  0  0  0  0  0
  193.2200  177.1600  139.5990 O   0  0  0  0  0  0  0  0  0  0  0  0
  193.6650  176.8160  138.3200 C   0  0  0  0  0  2  0  0  0  0  0  0
  195.1810  175.1980  139.1860 O   0  0  0  0  0  1  0  0  0  0  0  0
  194.1100  175.3660  138.3090 C   0  0  0  0  0  2  0  0  0  0  0  0
  191.3360  176.7740  138.1160 C   0  0  0  0  0  2  0  0  0  0  0  0
  189.9060  176.2420  138.0300 C   0  0  0  0  0  2  0  0  0  0  0  0
  188.9090  177.3050  137.5820 C   0  0  0  0  0  2  0  0  0  0  0  0
  188.6750  177.2100  136.2080 O   0  0  0  0  0  0  0  0  0  0  0  0
  187.4500  176.5490  136.0900 C   0  0  0  0  0  2  0  0  0  0  0  0
  186.6030  176.8110  137.3230 C   0  0  0  0  0  2  0  0  0  0  0  0
  185.6080  177.7510  137.0360 O   0  0  0  0  0  0  0  0  0  0  0  0
  184.7870  177.1440  136.0810 C   0  0  0  0  0  2  0  0  0  0  0  0
  183.1530  175.3080  135.6490 C   0  0  2  0  0  3  0  0  0  0  0  0
  182.1180  175.2500  137.9010 O   0  0  0  0  0  1  0  0  0  0  0  0
  184.1370  175.8940  136.6590 C   0  0  2  0  0  3  0  0  0  0  0  0
  181.9440  177.3710  136.6030 C   0  0  0  0  0  1  0  0  0  0  0  0
  182.6390  176.0460  136.8780 C   0  0  1  0  0  0  0  0  0  0  0  0
  183.4460  171.0520  135.0650 C   0  0  1  0  0  3  0  0  0  0  0  0
  182.1580  171.8930  135.1090 C   0  0  0  0  0  2  0  0  0  0  0  0
  184.8780  172.9710  137.3700 C   0  0  0  0  0  1  0  0  0  0  0  0
  182.4120  173.2200  134.7290 O   0  0  0  0  0  0  0  0  0  0  0  0
  184.7060  171.9310  135.0960 C   0  0  0  0  0  2  0  0  0  0  0  0
  183.1090  173.7920  135.8060 C   0  0  1  0  0  3  0  0  0  0  0  0
  184.5330  173.2200  135.9140 C   0  0  1  0  0  3  0  0  0  0  0  0
  183.4690  170.0580  136.2170 C   0  0  0  0  0  2  0  0  0  0  0  0
  185.2670  168.5250  135.4650 C   0  0  0  0  0  1  0  0  0  0  0  0
  183.7780  168.6610  135.7070 C   0  0  0  0  0  2  0  0  0  0  0  0
  1 33  1  6  0  0  0
  1 29  1  0  0  0  0
  1  2  1  0  0  0  0
  2  3  1  0  0  0  0
  4  5  1  0  0  0  0
  4  3  1  0  0  0  0
  6  5  1  0  0  0  0
  7  6  1  6  0  0  0
  7 16  1  0  0  0  0
  8 12  1  0  0  0  0
  8  7  1  0  0  0  0
  9 15  1  0  0  0  0
  9 12  2  0  0  0  0
 10  8  1  0  0  0  0
 11 10  2  0  0  0  0
 11  9  1  0  0  0  0
 14 15  2  0  0  0  0
 15 13  1  0  0  0  0
 16 19  1  0  0  0  0
 17 18  1  0  0  0  0
 19 20  2  0  0  0  0
 19 22  1  0  0  0  0
 20 21  1  0  0  0  0
 21 18  2  0  0  0  0
 22 17  2  0  0  0  0
 24 22  1  0  0  0  0
 24 23  1  1  0  0  0
 25 24  1  0  0  0  0
 25 26  1  0  0  0  0
 28 27  1  0  0  0  0
 28 26  1  0  0  0  0
 30 29  1  0  0  0  0
 32 30  1  0  0  0  0
 32 31  1  0  0  0  0
 34 33  1  0  0  0  0
 35 34  1  0  0  0  0
 36 35  1  0  0  0  0
 37 36  1  0  0  0  0
 37 38  1  0  0  0  0
 39 38  1  0  0  0  0
 40 39  1  0  0  0  0
 41 51  1  1  0  0  0
 41 43  1  0  0  0  0
 41 45  1  0  0  0  0
 43 40  1  6  0  0  0
 43 45  1  0  0  0  0
 45 44  1  6  0  0  0
 45 42  1  0  0  0  0
 46 50  1  0  0  0  0
 46 47  1  0  0  0  0
 46 53  1  1  0  0  0
 49 47  1  0  0  0  0
 50 52  1  0  0  0  0
 51 49  1  6  0  0  0
 51 52  1  0  0  0  0
 52 48  1  1  0  0  0
 54 55  1  0  0  0  0
 55 53  1  0  0  0  0
M  END
>  <MODEL>
5

>  <REMARK>
 VINA RESULT:      -4.5      2.306     10.971
  Name = 
  29 active torsions:
  status: ('A' for Active; 'I' for Inactive)
    1  A    between atoms: C_1  and  C_46
    2  A    between atoms: C_2  and  C_44
    3  A    between atoms: C_2  and  C_49
    4  A    between atoms: C_3  and  C_25
    5  A    between atoms: C_5  and  O_40
    6  A    between atoms: C_5  and  C_45
    7  A    between atoms: C_8  and  O_20
    8  A    between atoms: C_8  and  C_22
    9  A    between atoms: C_12  and  C_42
   10  A    between atoms: N_13  and  C_52
   11  A    between atoms: C_16  and  C_36
   12  A    between atoms: O_20  and  C_42
   13  A    between atoms: C_22  and  O_43
   14  A    between atoms: C_25  and  C_38
   15  A    between atoms: C_26  and  C_45
   16  A    between atoms: C_27  and  C_31
   17  A    between atoms: C_27  and  C_49
   18  A    between atoms: C_27  and  O_54
   19  A    between atoms: C_28  and  C_33
   20  A    between atoms: C_28  and  C_44
   21  A    between atoms: C_31  and  C_35
   22  A    between atoms: C_32  and  C_47
   23  A    between atoms: C_33  and  C_52
   24  A    between atoms: C_35  and  C_51
   25  A    between atoms: C_36  and  C_52
   26  A    between atoms: C_37  and  O_40
   27  A    between atoms: C_41  and  C_55
   28  A    between atoms: O_43  and  C_51
   29  A    between atoms: O_54  and  C_55
                            x       y       z     vdW  Elec       q    Type
                         _______ _______ _______ _____ _____    ______ ____

>  <TORSDO>
F 29

$$$$
=
 OpenBabel10272401243D

 55 58  0  0  1  0  0  0  0  0999 V2000
  191.7730  176.9500  138.6280 C   0  0  1  0  0  3  0  0  0  0  0  0
  191.0660  175.9770  139.5600 C   0  0  0  0  0  2  0  0  0  0  0  0
  190.6700  176.6720  140.8530 C   0  0  0  0  0  2  0  0  0  0  0  0
  189.5640  177.6940  140.6190 C   0  0  0  0  0  2  0  0  0  0  0  0
  188.2540  177.3300  141.3120 C   0  0  0  0  0  2  0  0  0  0  0  0
  187.3740  178.5550  141.5100 C   0  0  0  0  0  2  0  0  0  0  0  0
  186.8280  178.6150  142.9300 C   0  0  1  0  0  3  0  0  0  0  0  0
  185.3740  178.7650  142.9550 N   0  0  0  0  0  0  0  0  0  0  0  0
  183.2370  178.7260  142.4380 C   0  0  0  0  0  0  0  0  0  0  0  0
  184.6820  179.1980  144.0270 C   0  0  0  0  0  3  0  0  0  0  0  0
  183.3290  179.1910  143.7380 C   0  0  0  0  0  3  0  0  0  0  0  0
  184.5100  178.4620  141.9680 C   0  0  0  0  0  3  0  0  0  0  0  0
  180.8900  178.4800  142.2940 O   0  0  0  0  0  1  0  0  0  0  0  0
  182.0100  178.4490  140.3010 O   0  0  0  0  0  0  0  0  0  0  0  0
  181.9890  178.5470  141.6850 C   0  0  0  0  0  0  0  0  0  0  0  0
  187.2710  177.3760  143.7030 C   0  0  0  0  0  2  0  0  0  0  0  0
  188.6490  177.9170  147.2270 C   0  0  0  0  0  3  0  0  0  0  0  0
  187.4720  178.1570  147.9370 C   0  0  0  0  0  3  0  0  0  0  0  0
  187.3670  177.6330  145.1790 C   0  0  0  0  0  0  0  0  0  0  0  0
  186.1940  177.8990  145.9010 C   0  0  0  0  0  3  0  0  0  0  0  0
  186.2450  178.1540  147.2730 C   0  0  0  0  0  3  0  0  0  0  0  0
  188.6150  177.6630  145.8500 C   0  0  0  0  0  0  0  0  0  0  0  0
  189.8500  176.3580  144.1180 C   0  0  0  0  0  1  0  0  0  0  0  0
  189.9330  177.4620  145.1580 C   0  0  2  0  0  3  0  0  0  0  0  0
  191.0610  177.2160  146.1470 C   0  0  0  0  0  2  0  0  0  0  0  0
  192.0020  176.3470  145.5950 O   0  0  0  0  0  0  0  0  0  0  0  0
  192.0790  175.9790  147.8390 O   0  0  0  0  0  1  0  0  0  0  0  0
  192.2040  175.3860  146.5850 C   0  0  0  0  0  2  0  0  0  0  0  0
  193.1590  176.7460  138.6410 O   0  0  0  0  0  0  0  0  0  0  0  0
  193.4190  175.9310  137.5370 C   0  0  0  0  0  2  0  0  0  0  0  0
  195.0540  174.9560  138.9640 O   0  0  0  0  0  1  0  0  0  0  0  0
  194.8170  175.3530  137.6490 C   0  0  0  0  0  2  0  0  0  0  0  0
  191.1980  176.8420  137.2120 C   0  0  0  0  0  2  0  0  0  0  0  0
  189.7630  176.3200  137.1450 C   0  0  0  0  0  2  0  0  0  0  0  0
  188.7510  177.4200  136.8440 C   0  0  0  0  0  2  0  0  0  0  0  0
  188.7010  177.6770  135.4710 O   0  0  0  0  0  0  0  0  0  0  0  0
  187.3490  177.5830  135.1310 C   0  0  0  0  0  2  0  0  0  0  0  0
  186.5570  177.0480  136.3100 C   0  0  0  0  0  2  0  0  0  0  0  0
  185.7480  178.0550  136.8460 O   0  0  0  0  0  0  0  0  0  0  0  0
  184.4500  177.5350  136.8350 C   0  0  0  0  0  2  0  0  0  0  0  0
  183.7240  175.2130  136.2750 C   0  0  2  0  0  3  0  0  0  0  0  0
  183.0470  174.5180  138.5560 O   0  0  0  0  0  1  0  0  0  0  0  0
  184.4590  176.0810  137.2930 C   0  0  2  0  0  3  0  0  0  0  0  0
  181.8520  176.4530  137.5350 C   0  0  0  0  0  1  0  0  0  0  0  0
  183.0710  175.5460  137.6100 C   0  0  1  0  0  0  0  0  0  0  0  0
  184.7550  171.1270  135.3900 C   0  0  1  0  0  3  0  0  0  0  0  0
  184.0190  171.6460  136.6380 C   0  0  0  0  0  2  0  0  0  0  0  0
  186.6470  173.8570  135.2670 C   0  0  0  0  0  1  0  0  0  0  0  0
  183.3450  172.8460  136.3610 O   0  0  0  0  0  0  0  0  0  0  0  0
  184.9700  172.2360  134.3480 C   0  0  0  0  0  2  0  0  0  0  0  0
  184.3490  173.8230  136.2500 C   0  0  1  0  0  3  0  0  0  0  0  0
  185.1770  173.6270  134.9690 C   0  0  1  0  0  3  0  0  0  0  0  0
  186.0870  170.5060  135.7800 C   0  0  0  0  0  2  0  0  0  0  0  0
  188.0800  169.5000  134.7000 C   0  0  0  0  0  1  0  0  0  0  0  0
  186.5660  169.5510  134.7010 C   0  0  0  0  0  2  0  0  0  0  0  0
  1 33  1  6  0  0  0
  1 29  1  0  0  0  0
  1  2  1  0  0  0  0
  2  3  1  0  0  0  0
  4  3  1  0  0  0  0
  4  5  1  0  0  0  0
  5  6  1  0  0  0  0
  7  6  1  6  0  0  0
  7  8  1  0  0  0  0
  7 16  1  0  0  0  0
  8 10  1  0  0  0  0
  9 11  1  0  0  0  0
 11 10  2  0  0  0  0
 12  9  2  0  0  0  0
 12  8  1  0  0  0  0
 14 15  2  0  0  0  0
 15 13  1  0  0  0  0
 15  9  1  0  0  0  0
 16 19  1  0  0  0  0
 17 18  1  0  0  0  0
 19 22  1  0  0  0  0
 19 20  2  0  0  0  0
 20 21  1  0  0  0  0
 21 18  2  0  0  0  0
 22 17  2  0  0  0  0
 24 23  1  6  0  0  0
 24 22  1  0  0  0  0
 24 25  1  0  0  0  0
 26 25  1  0  0  0  0
 26 28  1  0  0  0  0
 28 27  1  0  0  0  0
 30 32  1  0  0  0  0
 30 29  1  0  0  0  0
 32 31  1  0  0  0  0
 34 33  1  0  0  0  0
 35 34  1  0  0  0  0
 36 35  1  0  0  0  0
 37 36  1  0  0  0  0
 37 38  1  0  0  0  0
 38 39  1  0  0  0  0
 40 39  1  0  0  0  0
 41 51  1  1  0  0  0
 41 43  1  0  0  0  0
 41 45  1  0  0  0  0
 43 40  1  6  0  0  0
 43 45  1  0  0  0  0
 45 44  1  6  0  0  0
 45 42  1  0  0  0  0
 46 53  1  1  0  0  0
 46 47  1  0  0  0  0
 49 47  1  0  0  0  0
 50 52  1  0  0  0  0
 50 46  1  0  0  0  0
 51 49  1  6  0  0  0
 52 48  1  1  0  0  0
 52 51  1  0  0  0  0
 54 55  1  0  0  0  0
 55 53  1  0  0  0  0
M  END
>  <MODEL>
6

>  <REMARK>
 VINA RESULT:      -4.5      2.435     11.159
  Name = 
  29 active torsions:
  status: ('A' for Active; 'I' for Inactive)
    1  A    between atoms: C_1  and  C_46
    2  A    between atoms: C_2  and  C_44
    3  A    between atoms: C_2  and  C_49
    4  A    between atoms: C_3  and  C_25
    5  A    between atoms: C_5  and  O_40
    6  A    between atoms: C_5  and  C_45
    7  A    between atoms: C_8  and  O_20
    8  A    between atoms: C_8  and  C_22
    9  A    between atoms: C_12  and  C_42
   10  A    between atoms: N_13  and  C_52
   11  A    between atoms: C_16  and  C_36
   12  A    between atoms: O_20  and  C_42
   13  A    between atoms: C_22  and  O_43
   14  A    between atoms: C_25  and  C_38
   15  A    between atoms: C_26  and  C_45
   16  A    between atoms: C_27  and  C_31
   17  A    between atoms: C_27  and  C_49
   18  A    between atoms: C_27  and  O_54
   19  A    between atoms: C_28  and  C_33
   20  A    between atoms: C_28  and  C_44
   21  A    between atoms: C_31  and  C_35
   22  A    between atoms: C_32  and  C_47
   23  A    between atoms: C_33  and  C_52
   24  A    between atoms: C_35  and  C_51
   25  A    between atoms: C_36  and  C_52
   26  A    between atoms: C_37  and  O_40
   27  A    between atoms: C_41  and  C_55
   28  A    between atoms: O_43  and  C_51
   29  A    between atoms: O_54  and  C_55
                            x       y       z     vdW  Elec       q    Type
                         _______ _______ _______ _____ _____    ______ ____

>  <TORSDO>
F 29

$$$$
=
 OpenBabel10272401243D

 55 58  0  0  1  0  0  0  0  0999 V2000
  184.1300  178.1230  140.7240 C   0  0  1  0  0  3  0  0  0  0  0  0
  182.7600  178.7820  140.6550 C   0  0  0  0  0  2  0  0  0  0  0  0
  181.7230  177.8000  140.1340 C   0  0  0  0  0  2  0  0  0  0  0  0
  182.3520  176.4530  139.7970 C   0  0  0  0  0  2  0  0  0  0  0  0
  181.7790  175.8230  138.5310 C   0  0  0  0  0  2  0  0  0  0  0  0
  182.3570  176.4670  137.2810 C   0  0  0  0  0  2  0  0  0  0  0  0
  183.1750  175.4670  136.4750 C   0  0  1  0  0  3  0  0  0  0  0  0
  184.3750  176.0730  135.9010 N   0  0  0  0  0  0  0  0  0  0  0  0
  186.4430  176.7220  135.5300 C   0  0  0  0  0  0  0  0  0  0  0  0
  184.4050  176.6940  134.7050 C   0  0  0  0  0  3  0  0  0  0  0  0
  185.6940  177.1210  134.4380 C   0  0  0  0  0  3  0  0  0  0  0  0
  185.6150  176.0710  136.4250 C   0  0  0  0  0  3  0  0  0  0  0  0
  188.4000  178.0270  135.2940 O   0  0  0  0  0  0  0  0  0  0  0  0
  188.6800  176.0060  136.3260 O   0  0  0  0  0  1  0  0  0  0  0  0
  187.8810  176.9580  135.7060 C   0  0  0  0  0  0  0  0  0  0  0  0
  183.5230  174.2660  137.3490 C   0  0  0  0  0  2  0  0  0  0  0  0
  183.3180  170.7700  135.8170 C   0  0  0  0  0  3  0  0  0  0  0  0
  181.9370  170.5840  135.7680 C   0  0  0  0  0  3  0  0  0  0  0  0
  182.9950  172.9800  136.7820 C   0  0  0  0  0  0  0  0  0  0  0  0
  181.6090  172.7690  136.7490 C   0  0  0  0  0  3  0  0  0  0  0  0
  181.0820  171.5800  136.2390 C   0  0  0  0  0  3  0  0  0  0  0  0
  183.8630  171.9550  136.3280 C   0  0  0  0  0  0  0  0  0  0  0  0
  185.8170  172.8800  137.5740 C   0  0  0  0  0  1  0  0  0  0  0  0
  185.3610  172.0520  136.3860 C   0  0  2  0  0  3  0  0  0  0  0  0
  185.9460  172.5720  135.0830 C   0  0  0  0  0  2  0  0  0  0  0  0
  187.3120  172.8130  135.2330 O   0  0  0  0  0  0  0  0  0  0  0  0
  188.4020  170.8480  135.5930 O   0  0  0  0  0  1  0  0  0  0  0  0
  187.9230  171.7210  134.6190 C   0  0  0  0  0  2  0  0  0  0  0  0
  184.9790  178.6190  139.7270 O   0  0  0  0  0  0  0  0  0  0  0  0
  186.2580  178.5900  140.2880 C   0  0  0  0  0  2  0  0  0  0  0  0
  188.1440  178.7750  138.8480 O   0  0  0  0  0  1  0  0  0  0  0  0
  187.2090  177.8710  139.3510 C   0  0  0  0  0  2  0  0  0  0  0  0
  184.7340  178.2970  142.1210 C   0  0  0  0  0  2  0  0  0  0  0  0
  183.9140  179.1790  143.0630 C   0  0  0  0  0  2  0  0  0  0  0  0
  183.3930  178.4170  144.2770 C   0  0  0  0  0  2  0  0  0  0  0  0
  183.7000  179.1040  145.4550 O   0  0  0  0  0  0  0  0  0  0  0  0
  184.9380  179.7050  145.2160 C   0  0  0  0  0  2  0  0  0  0  0  0
  185.8140  179.5900  146.4510 C   0  0  0  0  0  2  0  0  0  0  0  0
  186.1060  178.2480  146.7140 O   0  0  0  0  0  0  0  0  0  0  0  0
  187.1120  178.2700  147.6850 C   0  0  0  0  0  2  0  0  0  0  0  0
  188.5360  176.9190  146.1430 C   0  0  2  0  0  3  0  0  0  0  0  0
  190.6550  177.0820  147.4200 O   0  0  0  0  0  1  0  0  0  0  0  0
  188.4830  178.1620  147.0290 C   0  0  2  0  0  3  0  0  0  0  0  0
  188.7070  176.0060  148.5450 C   0  0  0  0  0  1  0  0  0  0  0  0
  189.2660  176.9370  147.4790 C   0  0  1  0  0  0  0  0  0  0  0  0
  191.4190  176.5950  142.9620 C   0  0  1  0  0  3  0  0  0  0  0  0
  191.5820  177.3680  144.2830 C   0  0  0  0  0  2  0  0  0  0  0  0
  188.1890  177.3630  142.8140 C   0  0  0  0  0  1  0  0  0  0  0  0
  190.7750  176.8150  145.2900 O   0  0  0  0  0  0  0  0  0  0  0  0
  190.1220  175.7720  142.9350 C   0  0  0  0  0  2  0  0  0  0  0  0
  189.4600  177.1800  144.9590 C   0  0  1  0  0  3  0  0  0  0  0  0
  188.9680  176.4220  143.7140 C   0  0  1  0  0  3  0  0  0  0  0  0
  191.4600  177.5530  141.7800 C   0  0  0  0  0  2  0  0  0  0  0  0
  191.4030  177.1770  139.3290 C   0  0  0  0  0  1  0  0  0  0  0  0
  190.6370  177.0080  140.6260 C   0  0  0  0  0  2  0  0  0  0  0  0
  1  2  1  1  0  0  0
  1 33  1  0  0  0  0
  3  2  1  0  0  0  0
  4  3  1  0  0  0  0
  5  4  1  0  0  0  0
  6  5  1  0  0  0  0
  7  6  1  1  0  0  0
  7 16  1  0  0  0  0
  8 12  1  0  0  0  0
  8  7  1  0  0  0  0
  9 15  1  0  0  0  0
  9 12  2  0  0  0  0
 10  8  1  0  0  0  0
 11 10  2  0  0  0  0
 11  9  1  0  0  0  0
 13 15  2  0  0  0  0
 15 14  1  0  0  0  0
 17 22  1  0  0  0  0
 18 17  2  0  0  0  0
 18 21  1  0  0  0  0
 19 16  1  0  0  0  0
 20 19  1  0  0  0  0
 21 20  2  0  0  0  0
 22 24  1  0  0  0  0
 22 19  2  0  0  0  0
 24 23  1  1  0  0  0
 25 26  1  0  0  0  0
 25 24  1  0  0  0  0
 28 26  1  0  0  0  0
 28 27  1  0  0  0  0
 29 30  1  0  0  0  0
 29  1  1  0  0  0  0
 31 32  1  0  0  0  0
 32 30  1  0  0  0  0
 33 34  1  0  0  0  0
 34 35  1  0  0  0  0
 35 36  1  0  0  0  0
 37 36  1  0  0  0  0
 37 38  1  0  0  0  0
 38 39  1  0  0  0  0
 39 40  1  0  0  0  0
 41 51  1  6  0  0  0
 41 43  1  0  0  0  0
 41 45  1  0  0  0  0
 42 45  1  0  0  0  0
 43 45  1  0  0  0  0
 43 40  1  1  0  0  0
 45 44  1  1  0  0  0
 46 53  1  6  0  0  0
 46 47  1  0  0  0  0
 47 49  1  0  0  0  0
 50 46  1  0  0  0  0
 50 52  1  0  0  0  0
 51 49  1  1  0  0  0
 52 48  1  6  0  0  0
 52 51  1  0  0  0  0
 54 55  1  0  0  0  0
 55 53  1  0  0  0  0
M  END
>  <MODEL>
7

>  <REMARK>
 VINA RESULT:      -4.1      2.071      3.475
  Name = 
  29 active torsions:
  status: ('A' for Active; 'I' for Inactive)
    1  A    between atoms: C_1  and  C_46
    2  A    between atoms: C_2  and  C_44
    3  A    between atoms: C_2  and  C_49
    4  A    between atoms: C_3  and  C_25
    5  A    between atoms: C_5  and  O_40
    6  A    between atoms: C_5  and  C_45
    7  A    between atoms: C_8  and  O_20
    8  A    between atoms: C_8  and  C_22
    9  A    between atoms: C_12  and  C_42
   10  A    between atoms: N_13  and  C_52
   11  A    between atoms: C_16  and  C_36
   12  A    between atoms: O_20  and  C_42
   13  A    between atoms: C_22  and  O_43
   14  A    between atoms: C_25  and  C_38
   15  A    between atoms: C_26  and  C_45
   16  A    between atoms: C_27  and  C_31
   17  A    between atoms: C_27  and  C_49
   18  A    between atoms: C_27  and  O_54
   19  A    between atoms: C_28  and  C_33
   20  A    between atoms: C_28  and  C_44
   21  A    between atoms: C_31  and  C_35
   22  A    between atoms: C_32  and  C_47
   23  A    between atoms: C_33  and  C_52
   24  A    between atoms: C_35  and  C_51
   25  A    between atoms: C_36  and  C_52
   26  A    between atoms: C_37  and  O_40
   27  A    between atoms: C_41  and  C_55
   28  A    between atoms: O_43  and  C_51
   29  A    between atoms: O_54  and  C_55
                            x       y       z     vdW  Elec       q    Type
                         _______ _______ _______ _____ _____    ______ ____

>  <TORSDO>
F 29

$$$$
=
 OpenBabel10272401243D

 55 58  0  0  1  0  0  0  0  0999 V2000
  187.8100  176.9490  144.7880 C   0  0  1  0  0  3  0  0  0  0  0  0
  188.0680  177.4950  143.3910 C   0  0  0  0  0  2  0  0  0  0  0  0
  189.1510  176.6860  142.6950 C   0  0  0  0  0  2  0  0  0  0  0  0
  189.2000  176.9890  141.2020 C   0  0  0  0  0  2  0  0  0  0  0  0
  190.3800  177.8720  140.8070 C   0  0  0  0  0  2  0  0  0  0  0  0
  191.5320  177.0440  140.2590 C   0  0  0  0  0  2  0  0  0  0  0  0
  191.4040  176.8520  138.7550 C   0  0  1  0  0  3  0  0  0  0  0  0
  192.6140  176.2770  138.1680 N   0  0  0  0  0  0  0  0  0  0  0  0
  194.3030  174.9570  137.6790 C   0  0  0  0  0  0  0  0  0  0  0  0
  193.2760  176.8220  137.1280 C   0  0  0  0  0  3  0  0  0  0  0  0
  194.3510  176.0180  136.7920 C   0  0  0  0  0  3  0  0  0  0  0  0
  193.2210  175.1290  138.5210 C   0  0  0  0  0  3  0  0  0  0  0  0
  195.7270  173.3780  136.6460 O   0  0  0  0  0  0  0  0  0  0  0  0
  195.6300  173.2760  138.9280 O   0  0  0  0  0  1  0  0  0  0  0  0
  195.2510  173.8370  137.7160 C   0  0  0  0  0  0  0  0  0  0  0  0
  190.1790  175.9950  138.4490 C   0  0  0  0  0  2  0  0  0  0  0  0
  187.9680  176.3870  135.3550 C   0  0  0  0  0  3  0  0  0  0  0  0
  187.7200  177.7600  135.3800 C   0  0  0  0  0  3  0  0  0  0  0  0
  189.3300  176.5870  137.3620 C   0  0  0  0  0  0  0  0  0  0  0  0
  189.0530  177.9620  137.3870 C   0  0  0  0  0  3  0  0  0  0  0  0
  188.2580  178.5460  136.3990 C   0  0  0  0  0  3  0  0  0  0  0  0
  188.7610  175.7850  136.3410 C   0  0  0  0  0  0  0  0  0  0  0  0
  188.2540  173.5950  137.4240 C   0  0  0  0  0  1  0  0  0  0  0  0
  188.9380  174.2950  136.2630 C   0  0  2  0  0  3  0  0  0  0  0  0
  190.4030  173.9030  136.1560 C   0  0  0  0  0  2  0  0  0  0  0  0
  190.8620  174.1150  134.8570 O   0  0  0  0  0  0  0  0  0  0  0  0
  190.9540  171.8910  135.3270 O   0  0  0  0  0  1  0  0  0  0  0  0
  191.4310  172.8970  134.4900 C   0  0  0  0  0  2  0  0  0  0  0  0
  188.5820  177.6220  145.7430 O   0  0  0  0  0  0  0  0  0  0  0  0
  189.1300  176.6180  146.5450 C   0  0  0  0  0  2  0  0  0  0  0  0
  188.4240  177.6590  148.5650 O   0  0  0  0  0  1  0  0  0  0  0  0
  188.3200  176.4840  147.8200 C   0  0  0  0  0  2  0  0  0  0  0  0
  186.3160  177.0160  145.1170 C   0  0  0  0  0  2  0  0  0  0  0  0
  185.8860  178.2760  145.8690 C   0  0  0  0  0  2  0  0  0  0  0  0
  184.5430  178.8170  145.3890 C   0  0  0  0  0  2  0  0  0  0  0  0
  184.3280  178.4780  144.0510 O   0  0  0  0  0  0  0  0  0  0  0  0
  183.6590  179.5730  143.4990 C   0  0  0  0  0  2  0  0  0  0  0  0
  182.4000  179.1050  142.7920 C   0  0  0  0  0  2  0  0  0  0  0  0
  182.5810  177.8130  142.2870 O   0  0  0  0  0  0  0  0  0  0  0  0
  182.8980  177.9820  140.9360 C   0  0  0  0  0  2  0  0  0  0  0  0
  182.2280  177.0340  138.7260 C   0  0  2  0  0  3  0  0  0  0  0  0
  180.7290  175.2500  139.5710 O   0  0  0  0  0  1  0  0  0  0  0  0
  182.6230  176.6980  140.1620 C   0  0  2  0  0  3  0  0  0  0  0  0
  180.1410  177.6100  140.1180 C   0  0  0  0  0  1  0  0  0  0  0  0
  181.1730  176.5670  139.7190 C   0  0  1  0  0  0  0  0  0  0  0  0
  183.0710  174.5160  135.3360 C   0  0  1  0  0  3  0  0  0  0  0  0
  182.0780  174.2290  136.4780 C   0  0  0  0  0  2  0  0  0  0  0  0
  185.1740  176.0150  137.4270 C   0  0  0  0  0  1  0  0  0  0  0  0
  181.6200  175.4240  137.0560 O   0  0  0  0  0  0  0  0  0  0  0  0
  183.6610  175.9320  135.4310 C   0  0  0  0  0  2  0  0  0  0  0  0
  182.7040  175.9210  137.7980 C   0  0  1  0  0  3  0  0  0  0  0  0
  183.8240  176.4310  136.8750 C   0  0  1  0  0  3  0  0  0  0  0  0
  184.1850  173.4800  135.3300 C   0  0  0  0  0  2  0  0  0  0  0  0
  185.1880  171.5930  136.5880 C   0  0  0  0  0  1  0  0  0  0  0  0
  183.9370  172.4260  136.3950 C   0  0  0  0  0  2  0  0  0  0  0  0
  1  2  1  6  0  0  0
  1 33  1  0  0  0  0
  1 29  1  0  0  0  0
  3  2  1  0  0  0  0
  4  3  1  0  0  0  0
  5  4  1  0  0  0  0
  6  5  1  0  0  0  0
  7 16  1  1  0  0  0
  7  6  1  0  0  0  0
  8 12  1  0  0  0  0
  8  7  1  0  0  0  0
  9 15  1  0  0  0  0
  9 12  2  0  0  0  0
 10  8  1  0  0  0  0
 11 10  2  0  0  0  0
 11  9  1  0  0  0  0
 13 15  2  0  0  0  0
 15 14  1  0  0  0  0
 17 18  2  0  0  0  0
 17 22  1  0  0  0  0
 18 21  1  0  0  0  0
 19 20  1  0  0  0  0
 19 16  1  0  0  0  0
 21 20  2  0  0  0  0
 22 19  2  0  0  0  0
 24 22  1  0  0  0  0
 24 23  1  1  0  0  0
 25 24  1  0  0  0  0
 26 25  1  0  0  0  0
 28 26  1  0  0  0  0
 28 27  1  0  0  0  0
 29 30  1  0  0  0  0
 30 32  1  0  0  0  0
 32 31  1  0  0  0  0
 33 34  1  0  0  0  0
 35 34  1  0  0  0  0
 36 35  1  0  0  0  0
 37 36  1  0  0  0  0
 38 37  1  0  0  0  0
 39 38  1  0  0  0  0
 40 39  1  0  0  0  0
 41 51  1  6  0  0  0
 41 45  1  0  0  0  0
 41 43  1  0  0  0  0
 42 45  1  0  0  0  0
 43 40  1  1  0  0  0
 45 44  1  1  0  0  0
 45 43  1  0  0  0  0
 46 53  1  1  0  0  0
 46 50  1  0  0  0  0
 46 47  1  0  0  0  0
 47 49  1  0  0  0  0
 50 52  1  0  0  0  0
 51 49  1  6  0  0  0
 52 48  1  1  0  0  0
 52 51  1  0  0  0  0
 53 55  1  0  0  0  0
 55 54  1  0  0  0  0
M  END
>  <MODEL>
8

>  <REMARK>
 VINA RESULT:      -3.7      2.577      8.146
  Name = 
  29 active torsions:
  status: ('A' for Active; 'I' for Inactive)
    1  A    between atoms: C_1  and  C_46
    2  A    between atoms: C_2  and  C_44
    3  A    between atoms: C_2  and  C_49
    4  A    between atoms: C_3  and  C_25
    5  A    between atoms: C_5  and  O_40
    6  A    between atoms: C_5  and  C_45
    7  A    between atoms: C_8  and  O_20
    8  A    between atoms: C_8  and  C_22
    9  A    between atoms: C_12  and  C_42
   10  A    between atoms: N_13  and  C_52
   11  A    between atoms: C_16  and  C_36
   12  A    between atoms: O_20  and  C_42
   13  A    between atoms: C_22  and  O_43
   14  A    between atoms: C_25  and  C_38
   15  A    between atoms: C_26  and  C_45
   16  A    between atoms: C_27  and  C_31
   17  A    between atoms: C_27  and  C_49
   18  A    between atoms: C_27  and  O_54
   19  A    between atoms: C_28  and  C_33
   20  A    between atoms: C_28  and  C_44
   21  A    between atoms: C_31  and  C_35
   22  A    between atoms: C_32  and  C_47
   23  A    between atoms: C_33  and  C_52
   24  A    between atoms: C_35  and  C_51
   25  A    between atoms: C_36  and  C_52
   26  A    between atoms: C_37  and  O_40
   27  A    between atoms: C_41  and  C_55
   28  A    between atoms: O_43  and  C_51
   29  A    between atoms: O_54  and  C_55
                            x       y       z     vdW  Elec       q    Type
                         _______ _______ _______ _____ _____    ______ ____

>  <TORSDO>
F 29

$$$$
=
 OpenBabel10272401243D

 55 58  0  0  1  0  0  0  0  0999 V2000
  189.8030  177.7520  144.1010 C   0  0  1  0  0  3  0  0  0  0  0  0
  189.2200  177.2160  142.8010 C   0  0  0  0  0  2  0  0  0  0  0  0
  188.8980  178.3590  141.8520 C   0  0  0  0  0  2  0  0  0  0  0  0
  189.6900  178.2460  140.5550 C   0  0  0  0  0  2  0  0  0  0  0  0
  189.4880  176.9110  139.8430 C   0  0  0  0  0  2  0  0  0  0  0  0
  190.8120  176.3250  139.3790 C   0  0  0  0  0  2  0  0  0  0  0  0
  190.9200  176.3460  137.8610 C   0  0  1  0  0  3  0  0  0  0  0  0
  192.2000  175.8160  137.3920 N   0  0  0  0  0  0  0  0  0  0  0  0
  194.1610  175.5760  136.4270 C   0  0  0  0  0  0  0  0  0  0  0  0
  192.7070  174.6280  137.7770 C   0  0  0  0  0  3  0  0  0  0  0  0
  193.9440  174.4400  137.1850 C   0  0  0  0  0  3  0  0  0  0  0  0
  193.0760  176.4210  136.5680 C   0  0  0  0  0  3  0  0  0  0  0  0
  196.3390  175.0600  135.6650 O   0  0  0  0  0  1  0  0  0  0  0  0
  195.3960  176.9360  134.7610 O   0  0  0  0  0  0  0  0  0  0  0  0
  195.3500  175.8360  135.6060 C   0  0  0  0  0  0  0  0  0  0  0  0
  189.7470  175.5810  137.2520 C   0  0  0  0  0  2  0  0  0  0  0  0
  186.5920  176.9080  135.5500 C   0  0  0  0  0  3  0  0  0  0  0  0
  186.7330  178.2790  135.7660 C   0  0  0  0  0  3  0  0  0  0  0  0
  188.6900  176.5010  136.7130 C   0  0  0  0  0  0  0  0  0  0  0  0
  188.8060  177.8800  136.9430 C   0  0  0  0  0  3  0  0  0  0  0  0
  187.8360  178.7650  136.4670 C   0  0  0  0  0  3  0  0  0  0  0  0
  187.5540  176.0070  136.0240 C   0  0  0  0  0  0  0  0  0  0  0  0
  186.0100  174.3250  135.0170 C   0  0  0  0  0  1  0  0  0  0  0  0
  187.3000  174.5450  135.7880 C   0  0  2  0  0  3  0  0  0  0  0  0
  187.3220  173.7500  137.0840 C   0  0  0  0  0  2  0  0  0  0  0  0
  188.1460  172.6330  136.9460 O   0  0  0  0  0  0  0  0  0  0  0  0
  188.8920  171.2740  135.2810 O   0  0  0  0  0  1  0  0  0  0  0  0
  187.9050  172.1850  135.6490 C   0  0  0  0  0  2  0  0  0  0  0  0
  190.6960  178.8030  143.8580 O   0  0  0  0  0  0  0  0  0  0  0  0
  191.9450  178.3220  144.2610 C   0  0  0  0  0  2  0  0  0  0  0  0
  191.9980  176.4540  145.7340 O   0  0  0  0  0  1  0  0  0  0  0  0
  191.8920  176.8120  144.3900 C   0  0  0  0  0  2  0  0  0  0  0  0
  188.6790  178.1730  145.0540 C   0  0  0  0  0  2  0  0  0  0  0  0
  188.4110  177.1920  146.1950 C   0  0  0  0  0  2  0  0  0  0  0  0
  187.1780  177.5640  147.0130 C   0  0  0  0  0  2  0  0  0  0  0  0
  186.9550  178.9430  146.9610 O   0  0  0  0  0  0  0  0  0  0  0  0
  185.5720  179.0940  147.0910 C   0  0  0  0  0  2  0  0  0  0  0  0
  184.8720  178.4770  145.8930 C   0  0  0  0  0  2  0  0  0  0  0  0
  184.4470  179.4780  145.0130 O   0  0  0  0  0  0  0  0  0  0  0  0
  183.4270  178.8960  144.2520 C   0  0  0  0  0  2  0  0  0  0  0  0
  183.6390  177.8840  141.9800 C   0  0  2  0  0  3  0  0  0  0  0  0
  185.4710  179.3290  141.1430 O   0  0  0  0  0  1  0  0  0  0  0  0
  183.6380  179.1900  142.7720 C   0  0  2  0  0  3  0  0  0  0  0  0
  185.9300  177.9280  143.1540 C   0  0  0  0  0  1  0  0  0  0  0  0
  184.9440  178.6280  142.2310 C   0  0  1  0  0  0  0  0  0  0  0  0
  183.1070  178.6590  137.7780 C   0  0  1  0  0  3  0  0  0  0  0  0
  182.8230  179.6270  138.9410 C   0  0  0  0  0  2  0  0  0  0  0  0
  182.1090  176.0570  139.5890 C   0  0  0  0  0  1  0  0  0  0  0  0
  183.6150  179.3170  140.0570 O   0  0  0  0  0  0  0  0  0  0  0  0
  183.7840  177.3660  138.2610 C   0  0  0  0  0  2  0  0  0  0  0  0
  183.0700  178.1360  140.5880 C   0  0  1  0  0  3  0  0  0  0  0  0
  183.3440  176.9340  139.6690 C   0  0  1  0  0  3  0  0  0  0  0  0
  181.8220  178.3340  137.0320 C   0  0  0  0  0  2  0  0  0  0  0  0
  182.7330  177.8280  134.7820 C   0  0  0  0  0  1  0  0  0  0  0  0
  182.0640  177.2400  136.0070 C   0  0  0  0  0  2  0  0  0  0  0  0
  1  2  1  6  0  0  0
  1 33  1  0  0  0  0
  3  2  1  0  0  0  0
  4  3  1  0  0  0  0
  5  4  1  0  0  0  0
  6  5  1  0  0  0  0
  7 16  1  6  0  0  0
  7  6  1  0  0  0  0
  8 10  1  0  0  0  0
  8  7  1  0  0  0  0
  9 12  2  0  0  0  0
  9 11  1  0  0  0  0
 11 10  2  0  0  0  0
 12  8  1  0  0  0  0
 14 15  2  0  0  0  0
 15 13  1  0  0  0  0
 15  9  1  0  0  0  0
 17 18  2  0  0  0  0
 17 22  1  0  0  0  0
 18 21  1  0  0  0  0
 19 20  1  0  0  0  0
 19 16  1  0  0  0  0
 21 20  2  0  0  0  0
 22 19  2  0  0  0  0
 24 23  1  1  0  0  0
 24 22  1  0  0  0  0
 24 25  1  0  0  0  0
 26 25  1  0  0  0  0
 27 28  1  0  0  0  0
 28 26  1  0  0  0  0
 29  1  1  0  0  0  0
 29 30  1  0  0  0  0
 30 32  1  0  0  0  0
 32 31  1  0  0  0  0
 33 34  1  0  0  0  0
 34 35  1  0  0  0  0
 36 35  1  0  0  0  0
 36 37  1  0  0  0  0
 38 37  1  0  0  0  0
 39 38  1  0  0  0  0
 40 39  1  0  0  0  0
 41 51  1  6  0  0  0
 41 45  1  0  0  0  0
 41 43  1  0  0  0  0
 42 45  1  0  0  0  0
 43 40  1  1  0  0  0
 45 43  1  0  0  0  0
 45 44  1  1  0  0  0
 46 53  1  1  0  0  0
 46 50  1  0  0  0  0
 46 47  1  0  0  0  0
 47 49  1  0  0  0  0
 50 52  1  0  0  0  0
 51 49  1  6  0  0  0
 52 48  1  6  0  0  0
 52 51  1  0  0  0  0
 54 55  1  0  0  0  0
 55 53  1  0  0  0  0
M  END
>  <MODEL>
9

>  <REMARK>
 VINA RESULT:      -3.6      2.792      7.104
  Name = 
  29 active torsions:
  status: ('A' for Active; 'I' for Inactive)
    1  A    between atoms: C_1  and  C_46
    2  A    between atoms: C_2  and  C_44
    3  A    between atoms: C_2  and  C_49
    4  A    between atoms: C_3  and  C_25
    5  A    between atoms: C_5  and  O_40
    6  A    between atoms: C_5  and  C_45
    7  A    between atoms: C_8  and  O_20
    8  A    between atoms: C_8  and  C_22
    9  A    between atoms: C_12  and  C_42
   10  A    between atoms: N_13  and  C_52
   11  A    between atoms: C_16  and  C_36
   12  A    between atoms: O_20  and  C_42
   13  A    between atoms: C_22  and  O_43
   14  A    between atoms: C_25  and  C_38
   15  A    between atoms: C_26  and  C_45
   16  A    between atoms: C_27  and  C_31
   17  A    between atoms: C_27  and  C_49
   18  A    between atoms: C_27  and  O_54
   19  A    between atoms: C_28  and  C_33
   20  A    between atoms: C_28  and  C_44
   21  A    between atoms: C_31  and  C_35
   22  A    between atoms: C_32  and  C_47
   23  A    between atoms: C_33  and  C_52
   24  A    between atoms: C_35  and  C_51
   25  A    between atoms: C_36  and  C_52
   26  A    between atoms: C_37  and  O_40
   27  A    between atoms: C_41  and  C_55
   28  A    between atoms: O_43  and  C_51
   29  A    between atoms: O_54  and  C_55
                            x       y       z     vdW  Elec       q    Type
                         _______ _______ _______ _____ _____    ______ ____

>  <TORSDO>
F 29

$$$$
