=
 OpenBabel10272401533D

 28 32  0  0  1  0  0  0  0  0999 V2000
  189.9290  177.8080  140.1360 N   0  0  0  0  0  0  0  0  0  0  0  0
  185.3750  178.3260  142.3690 C   0  0  0  0  0  3  0  0  0  0  0  0
  191.1640  176.8540  144.9870 S   0  0  0  0  0  0  0  0  0  0  0  0
  185.8530  178.0550  144.7370 C   0  0  0  0  0  0  0  0  0  0  0  0
  187.6940  177.7010  143.0850 C   0  0  0  0  0  0  0  0  0  0  0  0
  183.6250  178.6690  144.0060 C   0  0  0  0  0  0  0  0  0  0  0  0
  186.2820  178.0150  143.3930 C   0  0  0  0  0  0  0  0  0  0  0  0
  188.2480  177.9440  145.4920 C   0  0  0  0  0  2  0  0  0  0  0  0
  184.5230  178.3700  145.0320 C   0  0  0  0  0  3  0  0  0  0  0  0
  190.4500  177.3920  142.4410 C   0  0  0  0  0  0  0  0  0  0  0  0
  188.1500  177.8580  141.8770 N   0  0  0  0  0  0  0  0  0  0  0  0
  186.7850  177.7030  145.8660 C   0  0  0  0  0  2  0  0  0  0  0  0
  192.2280  177.3070  140.8270 C   0  0  0  0  0  3  0  0  0  0  0  0
  190.0470  177.2680  143.8560 C   0  0  0  0  0  0  0  0  0  0  0  0
  191.8330  177.2960  142.0650 N   0  0  0  0  0  0  0  0  0  0  0  0
  182.2140  179.0080  144.3270 C   0  0  0  0  0  1  0  0  0  0  0  0
  184.0510  178.6490  142.6740 C   0  0  0  0  0  3  0  0  0  0  0  0
  188.5820  177.1960  144.2010 C   0  0  2  0  0  3  0  0  0  0  0  0
  191.2470  177.3570  139.6900 C   0  0  0  0  0  2  0  0  0  0  0  0
  189.5230  177.6510  141.5070 C   0  0  0  0  0  0  0  0  0  0  0  0
  188.9710  178.2230  139.1230 C   0  0  0  0  0  2  0  0  0  0  0  0
  189.1440  177.4240  137.9210 N   0  0  0  0  0  0  0  0  0  0  0  0
  188.3930  176.4860  135.3210 C   0  0  0  0  0  0  0  0  0  0  0  0
  188.0310  176.4770  137.8720 C   0  0  0  0  0  2  0  0  0  0  0  0
  189.0260  178.3400  136.7870 C   0  0  0  0  0  2  0  0  0  0  0  0
  189.3450  177.6220  135.4770 C   0  0  0  0  0  2  0  0  0  0  0  0
  187.5860  176.4710  134.4060 O   0  0  0  0  0  0  0  0  0  0  0  0
  188.3530  175.2220  136.5890 S   0  0  0  0  0  0  0  0  0  0  0  0
  1 20  1  0  0  0  0
  2 17  2  0  0  0  0
  2  7  1  0  0  0  0
  4  9  1  0  0  0  0
  4 12  1  0  0  0  0
  5  7  1  0  0  0  0
  5 18  1  0  0  0  0
  6 16  1  0  0  0  0
  6  9  2  0  0  0  0
  7  4  2  0  0  0  0
  8 12  1  0  0  0  0
 10 14  1  0  0  0  0
 11  5  2  0  0  0  0
 13 15  2  0  0  0  0
 14 18  1  0  0  0  0
 14  3  2  0  0  0  0
 15 10  1  0  0  0  0
 17  6  1  0  0  0  0
 18  8  1  1  0  0  0
 19  1  1  0  0  0  0
 19 13  1  0  0  0  0
 20 11  1  0  0  0  0
 20 10  2  0  0  0  0
 21  1  1  0  0  0  0
 22 21  1  0  0  0  0
 23 26  1  0  0  0  0
 23 28  1  0  0  0  0
 24 22  1  0  0  0  0
 25 22  1  0  0  0  0
 26 25  1  0  0  0  0
 27 23  2  0  0  0  0
 28 24  1  0  0  0  0
M  END
>  <MODEL>
1

>  <REMARK>
 VINA RESULT:     -10.0      0.000      0.000
  Name = 
  2 active torsions:
  status: ('A' for Active; 'I' for Inactive)
    1  A    between atoms: N_1  and  C_2
    2  A    between atoms: C_2  and  N_3
                            x       y       z     vdW  Elec       q    Type
                         _______ _______ _______ _____ _____    ______ ____

>  <TORSDO>
F 2

$$$$
=
 OpenBabel10272401533D

 28 32  0  0  1  0  0  0  0  0999 V2000
  189.3670  177.6940  140.9280 N   0  0  0  0  0  0  0  0  0  0  0  0
  184.4890  178.4400  142.2080 C   0  0  0  0  0  3  0  0  0  0  0  0
  189.6740  177.3090  145.9990 S   0  0  0  0  0  0  0  0  0  0  0  0
  184.5190  178.4450  144.6390 C   0  0  0  0  0  0  0  0  0  0  0  0
  186.6260  177.9140  143.4060 C   0  0  0  0  0  0  0  0  0  0  0  0
  182.4730  178.9590  143.4440 C   0  0  0  0  0  0  0  0  0  0  0  0
  185.1870  178.2540  143.4100 C   0  0  0  0  0  0  0  0  0  0  0  0
  186.7320  178.4340  145.8300 C   0  0  0  0  0  2  0  0  0  0  0  0
  183.1620  178.7840  144.6460 C   0  0  0  0  0  3  0  0  0  0  0  0
  189.4480  177.5480  143.3200 C   0  0  0  0  0  0  0  0  0  0  0  0
  187.2990  177.9340  142.2920 N   0  0  0  0  0  0  0  0  0  0  0  0
  185.2220  178.2300  145.9530 C   0  0  0  0  0  2  0  0  0  0  0  0
  191.4910  177.2890  142.0830 C   0  0  0  0  0  3  0  0  0  0  0  0
  188.7910  177.5850  144.6420 C   0  0  0  0  0  0  0  0  0  0  0  0
  190.8750  177.4170  143.2200 N   0  0  0  0  0  0  0  0  0  0  0  0
  181.0330  179.3250  143.4590 C   0  0  0  0  0  1  0  0  0  0  0  0
  183.1360  178.7890  142.2250 C   0  0  0  0  0  3  0  0  0  0  0  0
  187.2860  177.5450  144.7160 C   0  0  2  0  0  3  0  0  0  0  0  0
  190.7370  177.2020  140.7860 C   0  0  0  0  0  2  0  0  0  0  0  0
  188.7130  177.6930  142.2080 C   0  0  0  0  0  0  0  0  0  0  0  0
  188.6180  177.9850  139.7140 C   0  0  0  0  0  2  0  0  0  0  0  0
  188.9970  177.0550  138.6640 N   0  0  0  0  0  0  0  0  0  0  0  0
  189.1780  176.1750  135.9440 C   0  0  0  0  0  0  0  0  0  0  0  0
  187.7590  176.5650  138.0580 C   0  0  0  0  0  2  0  0  0  0  0  0
  189.7300  177.8280  137.6620 C   0  0  0  0  0  2  0  0  0  0  0  0
  190.3060  176.9100  136.5850 C   0  0  0  0  0  2  0  0  0  0  0  0
  188.9120  176.3520  134.7660 O   0  0  0  0  0  0  0  0  0  0  0  0
  188.1300  175.1490  136.9700 S   0  0  0  0  0  0  0  0  0  0  0  0
  1 20  1  0  0  0  0
  2 17  2  0  0  0  0
  2  7  1  0  0  0  0
  4  9  1  0  0  0  0
  4 12  1  0  0  0  0
  5  7  1  0  0  0  0
  5 18  1  0  0  0  0
  6 16  1  0  0  0  0
  6  9  2  0  0  0  0
  7  4  2  0  0  0  0
  8 12  1  0  0  0  0
 10 14  1  0  0  0  0
 11  5  2  0  0  0  0
 13 15  2  0  0  0  0
 14 18  1  0  0  0  0
 14  3  2  0  0  0  0
 15 10  1  0  0  0  0
 17  6  1  0  0  0  0
 18  8  1  1  0  0  0
 19  1  1  0  0  0  0
 19 13  1  0  0  0  0
 20 11  1  0  0  0  0
 20 10  2  0  0  0  0
 21  1  1  0  0  0  0
 22 21  1  0  0  0  0
 23 26  1  0  0  0  0
 23 28  1  0  0  0  0
 24 22  1  0  0  0  0
 25 22  1  0  0  0  0
 26 25  1  0  0  0  0
 27 23  2  0  0  0  0
 28 24  1  0  0  0  0
M  END
>  <MODEL>
2

>  <REMARK>
 VINA RESULT:      -9.8      1.060      1.270
  Name = 
  2 active torsions:
  status: ('A' for Active; 'I' for Inactive)
    1  A    between atoms: N_1  and  C_2
    2  A    between atoms: C_2  and  N_3
                            x       y       z     vdW  Elec       q    Type
                         _______ _______ _______ _____ _____    ______ ____

>  <TORSDO>
F 2

$$$$
=
 OpenBabel10272401533D

 28 32  0  0  1  0  0  0  0  0999 V2000
  187.1920  178.1610  140.9800 N   0  0  0  0  0  0  0  0  0  0  0  0
  190.4070  177.0420  144.7750 C   0  0  0  0  0  3  0  0  0  0  0  0
  184.1460  178.8540  145.0050 S   0  0  0  0  0  0  0  0  0  0  0  0
  189.0230  177.1750  146.7690 C   0  0  0  0  0  0  0  0  0  0  0  0
  188.0370  177.8280  144.5690 C   0  0  0  0  0  0  0  0  0  0  0  0
  191.3180  176.4100  146.9270 C   0  0  0  0  0  0  0  0  0  0  0  0
  189.1810  177.3590  145.3780 C   0  0  0  0  0  0  0  0  0  0  0  0
  186.5390  177.4550  146.5120 C   0  0  0  0  0  2  0  0  0  0  0  0
  190.0980  176.7140  147.5350 C   0  0  0  0  0  3  0  0  0  0  0  0
  185.8030  178.4470  142.9150 C   0  0  0  0  0  0  0  0  0  0  0  0
  188.1030  177.8090  143.2690 N   0  0  0  0  0  0  0  0  0  0  0  0
  187.7340  177.5270  147.4630 C   0  0  0  0  0  2  0  0  0  0  0  0
  184.8430  178.8240  140.7450 C   0  0  0  0  0  3  0  0  0  0  0  0
  185.6010  178.4230  144.3770 C   0  0  0  0  0  0  0  0  0  0  0  0
  184.7000  178.7030  142.0310 N   0  0  0  0  0  0  0  0  0  0  0  0
  192.4540  175.9140  147.7460 C   0  0  0  0  0  1  0  0  0  0  0  0
  191.4720  176.5720  145.5470 C   0  0  0  0  0  3  0  0  0  0  0  0
  186.8010  178.3290  145.2840 C   0  0  2  0  0  3  0  0  0  0  0  0
  186.1970  178.7680  140.0960 C   0  0  0  0  0  2  0  0  0  0  0  0
  187.0140  178.1730  142.4070 C   0  0  0  0  0  0  0  0  0  0  0  0
  188.4540  177.7350  140.3940 C   0  0  0  0  0  2  0  0  0  0  0  0
  188.3190  177.6270  138.9520 N   0  0  0  0  0  0  0  0  0  0  0  0
  189.2760  177.0760  136.3090 C   0  0  0  0  0  0  0  0  0  0  0  0
  189.2020  178.6310  138.3610 C   0  0  0  0  0  2  0  0  0  0  0  0
  188.8120  176.3000  138.5820 C   0  0  0  0  0  2  0  0  0  0  0  0
  188.5710  176.0270  137.0990 C   0  0  0  0  0  2  0  0  0  0  0  0
  190.2020  176.7800  135.5710 O   0  0  0  0  0  0  0  0  0  0  0  0
  188.8410  178.7910  136.5800 S   0  0  0  0  0  0  0  0  0  0  0  0
  1 20  1  0  0  0  0
  2  7  2  0  0  0  0
  2 17  1  0  0  0  0
  4 12  1  0  0  0  0
  4  9  2  0  0  0  0
  5 18  1  0  0  0  0
  5  7  1  0  0  0  0
  6  9  1  0  0  0  0
  6 16  1  0  0  0  0
  7  4  1  0  0  0  0
  8 12  1  0  0  0  0
 10 14  1  0  0  0  0
 11  5  2  0  0  0  0
 13 15  2  0  0  0  0
 14  3  2  0  0  0  0
 14 18  1  0  0  0  0
 15 10  1  0  0  0  0
 17  6  2  0  0  0  0
 18  8  1  1  0  0  0
 19 13  1  0  0  0  0
 19  1  1  0  0  0  0
 20 10  2  0  0  0  0
 20 11  1  0  0  0  0
 21  1  1  0  0  0  0
 22 21  1  0  0  0  0
 23 28  1  0  0  0  0
 23 26  1  0  0  0  0
 24 22  1  0  0  0  0
 25 22  1  0  0  0  0
 26 25  1  0  0  0  0
 27 23  2  0  0  0  0
 28 24  1  0  0  0  0
M  END
>  <MODEL>
3

>  <REMARK>
 VINA RESULT:      -9.8      2.462      4.936
  Name = 
  2 active torsions:
  status: ('A' for Active; 'I' for Inactive)
    1  A    between atoms: N_1  and  C_2
    2  A    between atoms: C_2  and  N_3
                            x       y       z     vdW  Elec       q    Type
                         _______ _______ _______ _____ _____    ______ ____

>  <TORSDO>
F 2

$$$$
=
 OpenBabel10272401533D

 28 32  0  0  1  0  0  0  0  0999 V2000
  189.7490  177.7680  138.9800 N   0  0  0  0  0  0  0  0  0  0  0  0
  190.9930  177.0760  143.8760 C   0  0  0  0  0  3  0  0  0  0  0  0
  185.3140  178.8840  141.2270 S   0  0  0  0  0  0  0  0  0  0  0  0
  188.8990  177.4200  145.0630 C   0  0  0  0  0  0  0  0  0  0  0  0
  188.9720  177.8280  142.5990 C   0  0  0  0  0  0  0  0  0  0  0  0
  190.8740  176.6820  146.2610 C   0  0  0  0  0  0  0  0  0  0  0  0
  189.6420  177.4520  143.8620 C   0  0  0  0  0  0  0  0  0  0  0  0
  186.7750  177.6630  143.7420 C   0  0  0  0  0  2  0  0  0  0  0  0
  189.5260  177.0470  146.2560 C   0  0  0  0  0  3  0  0  0  0  0  0
  187.6840  178.2570  140.0970 C   0  0  0  0  0  0  0  0  0  0  0  0
  189.5840  177.6680  141.4620 N   0  0  0  0  0  0  0  0  0  0  0  0
  187.4550  177.8410  145.1000 C   0  0  0  0  0  2  0  0  0  0  0  0
  187.7550  178.3950  137.6990 C   0  0  0  0  0  3  0  0  0  0  0  0
  186.8780  178.3910  141.3270 C   0  0  0  0  0  0  0  0  0  0  0  0
  187.0730  178.4130  138.8050 N   0  0  0  0  0  0  0  0  0  0  0  0
  191.5310  176.2810  147.5320 C   0  0  0  0  0  1  0  0  0  0  0  0
  191.6070  176.6940  145.0710 C   0  0  0  0  0  3  0  0  0  0  0  0
  187.5730  178.4000  142.6650 C   0  0  2  0  0  3  0  0  0  0  0  0
  189.2520  178.2730  137.7000 C   0  0  0  0  0  2  0  0  0  0  0  0
  188.9820  177.9330  140.1850 C   0  0  0  0  0  0  0  0  0  0  0  0
  191.1210  177.2850  139.0360 C   0  0  0  0  0  2  0  0  0  0  0  0
  191.4200  176.5050  137.8470 N   0  0  0  0  0  0  0  0  0  0  0  0
  192.4910  174.2470  136.4490 C   0  0  0  0  0  0  0  0  0  0  0  0
  192.8760  176.4520  137.7230 C   0  0  0  0  0  2  0  0  0  0  0  0
  190.9250  175.1520  138.0960 C   0  0  0  0  0  2  0  0  0  0  0  0
  191.0540  174.2890  136.8420 C   0  0  0  0  0  2  0  0  0  0  0  0
  193.1120  173.1970  136.4760 O   0  0  0  0  0  0  0  0  0  0  0  0
  193.3260  175.7880  136.0850 S   0  0  0  0  0  0  0  0  0  0  0  0
  1 21  1  0  0  0  0
  1 20  1  0  0  0  0
  2 17  1  0  0  0  0
  3 14  2  0  0  0  0
  4 12  1  0  0  0  0
  4  9  2  0  0  0  0
  5 18  1  0  0  0  0
  5  7  1  0  0  0  0
  6 16  1  0  0  0  0
  7  2  2  0  0  0  0
  7  4  1  0  0  0  0
  8 12  1  0  0  0  0
  9  6  1  0  0  0  0
 10 20  2  0  0  0  0
 10 14  1  0  0  0  0
 11  5  2  0  0  0  0
 13 19  1  0  0  0  0
 13 15  2  0  0  0  0
 14 18  1  0  0  0  0
 15 10  1  0  0  0  0
 17  6  2  0  0  0  0
 18  8  1  1  0  0  0
 19  1  1  0  0  0  0
 20 11  1  0  0  0  0
 22 25  1  0  0  0  0
 22 21  1  0  0  0  0
 23 27  2  0  0  0  0
 23 26  1  0  0  0  0
 24 22  1  0  0  0  0
 26 25  1  0  0  0  0
 28 23  1  0  0  0  0
 28 24  1  0  0  0  0
M  END
>  <MODEL>
4

>  <REMARK>
 VINA RESULT:      -9.5      2.856      4.839
  Name = 
  2 active torsions:
  status: ('A' for Active; 'I' for Inactive)
    1  A    between atoms: N_1  and  C_2
    2  A    between atoms: C_2  and  N_3
                            x       y       z     vdW  Elec       q    Type
                         _______ _______ _______ _____ _____    ______ ____

>  <TORSDO>
F 2

$$$$
=
 OpenBabel10272401533D

 28 32  0  0  1  0  0  0  0  0999 V2000
  186.7390  178.4610  140.0160 N   0  0  0  0  0  0  0  0  0  0  0  0
  187.2650  177.8770  145.0540 C   0  0  0  0  0  3  0  0  0  0  0  0
  191.6640  177.1860  140.2890 S   0  0  0  0  0  0  0  0  0  0  0  0
  189.6360  177.4220  145.3430 C   0  0  0  0  0  0  0  0  0  0  0  0
  188.7140  177.6050  143.0280 C   0  0  0  0  0  0  0  0  0  0  0  0
  188.2030  177.7030  147.2790 C   0  0  0  0  0  0  0  0  0  0  0  0
  188.5250  177.6190  144.4940 C   0  0  0  0  0  0  0  0  0  0  0  0
  191.1720  177.6620  143.3680 C   0  0  0  0  0  2  0  0  0  0  0  0
  189.4630  177.4540  146.7300 C   0  0  0  0  0  3  0  0  0  0  0  0
  189.0570  177.8800  140.2150 C   0  0  0  0  0  0  0  0  0  0  0  0
  187.7500  177.9830  142.2400 N   0  0  0  0  0  0  0  0  0  0  0  0
  191.0000  177.1160  144.7860 C   0  0  0  0  0  2  0  0  0  0  0  0
  188.1630  178.3090  138.0260 C   0  0  0  0  0  3  0  0  0  0  0  0
  190.2360  177.5200  141.0280 C   0  0  0  0  0  0  0  0  0  0  0  0
  189.1830  178.0810  138.7980 N   0  0  0  0  0  0  0  0  0  0  0  0
  188.0290  177.7400  148.7540 C   0  0  0  0  0  1  0  0  0  0  0  0
  187.1050  177.9170  146.4410 C   0  0  0  0  0  3  0  0  0  0  0  0
  190.0440  177.1420  142.4750 C   0  0  2  0  0  3  0  0  0  0  0  0
  186.7590  178.3120  138.5610 C   0  0  0  0  0  2  0  0  0  0  0  0
  187.8720  178.0740  140.8120 C   0  0  0  0  0  0  0  0  0  0  0  0
  185.4750  178.8110  140.6480 C   0  0  0  0  0  2  0  0  0  0  0  0
  184.3680  178.3790  139.8130 N   0  0  0  0  0  0  0  0  0  0  0  0
  181.6190  178.3170  139.0080 C   0  0  0  0  0  0  0  0  0  0  0  0
  183.4600  177.6120  140.6660 C   0  0  0  0  0  2  0  0  0  0  0  0
  183.6770  179.5900  139.3710 C   0  0  0  0  0  2  0  0  0  0  0  0
  182.5840  179.2510  138.3600 C   0  0  0  0  0  2  0  0  0  0  0  0
  180.4630  178.6550  139.2040 O   0  0  0  0  0  0  0  0  0  0  0  0
  182.2290  176.7530  139.6310 S   0  0  0  0  0  0  0  0  0  0  0  0
  1 21  1  0  0  0  0
  1 20  1  0  0  0  0
  2 17  1  0  0  0  0
  3 14  2  0  0  0  0
  4  9  2  0  0  0  0
  5  7  1  0  0  0  0
  6 16  1  0  0  0  0
  7  2  2  0  0  0  0
  7  4  1  0  0  0  0
  8 12  1  0  0  0  0
  9  6  1  0  0  0  0
 10 20  2  0  0  0  0
 10 14  1  0  0  0  0
 11  5  2  0  0  0  0
 12  4  1  0  0  0  0
 13 19  1  0  0  0  0
 13 15  2  0  0  0  0
 14 18  1  0  0  0  0
 15 10  1  0  0  0  0
 17  6  2  0  0  0  0
 18  5  1  0  0  0  0
 18  8  1  1  0  0  0
 19  1  1  0  0  0  0
 20 11  1  0  0  0  0
 22 21  1  0  0  0  0
 22 24  1  0  0  0  0
 23 27  2  0  0  0  0
 23 28  1  0  0  0  0
 25 22  1  0  0  0  0
 26 23  1  0  0  0  0
 26 25  1  0  0  0  0
 28 24  1  0  0  0  0
M  END
>  <MODEL>
5

>  <REMARK>
 VINA RESULT:      -9.5      3.133      4.946
  Name = 
  2 active torsions:
  status: ('A' for Active; 'I' for Inactive)
    1  A    between atoms: N_1  and  C_2
    2  A    between atoms: C_2  and  N_3
                            x       y       z     vdW  Elec       q    Type
                         _______ _______ _______ _____ _____    ______ ____

>  <TORSDO>
F 2

$$$$
=
 OpenBabel10272401533D

 28 32  0  0  1  0  0  0  0  0999 V2000
  184.3740  178.8620  142.8230 N   0  0  0  0  0  0  0  0  0  0  0  0
  188.3040  177.8390  139.7410 C   0  0  0  0  0  3  0  0  0  0  0  0
  187.9010  177.5100  146.2420 S   0  0  0  0  0  0  0  0  0  0  0  0
  190.0260  177.0150  141.2470 C   0  0  0  0  0  0  0  0  0  0  0  0
  187.8910  177.8820  142.2120 C   0  0  0  0  0  0  0  0  0  0  0  0
  190.3840  176.9800  138.8490 C   0  0  0  0  0  0  0  0  0  0  0  0
  188.7540  177.5940  141.0470 C   0  0  0  0  0  0  0  0  0  0  0  0
  189.4350  176.5740  143.6490 C   0  0  0  0  0  2  0  0  0  0  0  0
  190.8370  176.7240  140.1460 C   0  0  0  0  0  3  0  0  0  0  0  0
  186.0710  178.1920  144.3800 C   0  0  0  0  0  0  0  0  0  0  0  0
  186.6480  178.2230  142.0370 N   0  0  0  0  0  0  0  0  0  0  0  0
  190.5600  176.7600  142.6310 C   0  0  0  0  0  2  0  0  0  0  0  0
  183.9090  178.8070  145.2300 C   0  0  0  0  0  3  0  0  0  0  0  0
  187.4400  177.7270  144.6810 C   0  0  0  0  0  0  0  0  0  0  0  0
  185.0970  178.3170  145.4280 N   0  0  0  0  0  0  0  0  0  0  0  0
  191.2500  176.6620  137.6840 C   0  0  0  0  0  1  0  0  0  0  0  0
  189.1170  177.5350  138.6470 C   0  0  0  0  0  3  0  0  0  0  0  0
  188.4880  177.7740  143.5980 C   0  0  2  0  0  3  0  0  0  0  0  0
  183.4940  179.3420  143.8880 C   0  0  0  0  0  2  0  0  0  0  0  0
  185.7200  178.4460  143.1110 C   0  0  0  0  0  0  0  0  0  0  0  0
  183.9230  179.0130  141.4470 C   0  0  0  0  0  2  0  0  0  0  0  0
  182.8920  178.0320  141.1540 N   0  0  0  0  0  0  0  0  0  0  0  0
  181.0010  176.7120  139.4540 C   0  0  0  0  0  0  0  0  0  0  0  0
  181.6690  178.7740  140.8460 C   0  0  0  0  0  2  0  0  0  0  0  0
  183.3190  177.3210  139.9490 C   0  0  0  0  0  2  0  0  0  0  0  0
  182.3740  176.1610  139.6420 C   0  0  0  0  0  2  0  0  0  0  0  0
  180.4430  176.6330  138.3730 O   0  0  0  0  0  0  0  0  0  0  0  0
  180.2540  177.6260  140.8000 S   0  0  0  0  0  0  0  0  0  0  0  0
  1 20  1  0  0  0  0
  1 19  1  0  0  0  0
  2  7  1  0  0  0  0
  4 12  1  0  0  0  0
  5 18  1  0  0  0  0
  6  9  2  0  0  0  0
  7  4  2  0  0  0  0
  7  5  1  0  0  0  0
  9  4  1  0  0  0  0
 10 14  1  0  0  0  0
 10 15  1  0  0  0  0
 11  5  2  0  0  0  0
 11 20  1  0  0  0  0
 12  8  1  0  0  0  0
 13 15  2  0  0  0  0
 14  3  2  0  0  0  0
 16  6  1  0  0  0  0
 17  6  1  0  0  0  0
 17  2  2  0  0  0  0
 18  8  1  6  0  0  0
 18 14  1  0  0  0  0
 19 13  1  0  0  0  0
 20 10  2  0  0  0  0
 21  1  1  0  0  0  0
 22 21  1  0  0  0  0
 23 26  1  0  0  0  0
 23 28  1  0  0  0  0
 24 22  1  0  0  0  0
 25 22  1  0  0  0  0
 26 25  1  0  0  0  0
 27 23  2  0  0  0  0
 28 24  1  0  0  0  0
M  END
>  <MODEL>
6

>  <REMARK>
 VINA RESULT:      -8.4      3.358      6.592
  Name = 
  2 active torsions:
  status: ('A' for Active; 'I' for Inactive)
    1  A    between atoms: N_1  and  C_2
    2  A    between atoms: C_2  and  N_3
                            x       y       z     vdW  Elec       q    Type
                         _______ _______ _______ _____ _____    ______ ____

>  <TORSDO>
F 2

$$$$
=
 OpenBabel10272401533D

 28 32  0  0  1  0  0  0  0  0999 V2000
  186.8420  178.3350  138.2500 N   0  0  0  0  0  0  0  0  0  0  0  0
  185.6230  178.1840  143.1980 C   0  0  0  0  0  3  0  0  0  0  0  0
  191.3900  177.2760  140.2900 S   0  0  0  0  0  0  0  0  0  0  0  0
  187.7570  177.8460  144.3140 C   0  0  0  0  0  0  0  0  0  0  0  0
  187.6790  177.8040  141.8170 C   0  0  0  0  0  0  0  0  0  0  0  0
  185.7480  178.2280  145.6160 C   0  0  0  0  0  0  0  0  0  0  0  0
  187.0010  177.9300  143.1240 C   0  0  0  0  0  0  0  0  0  0  0  0
  189.8730  177.9810  142.9640 C   0  0  0  0  0  2  0  0  0  0  0  0
  187.1210  177.9830  145.5520 C   0  0  0  0  0  3  0  0  0  0  0  0
  188.9590  177.8610  139.2740 C   0  0  0  0  0  0  0  0  0  0  0  0
  187.0380  178.0790  140.7180 N   0  0  0  0  0  0  0  0  0  0  0  0
  189.2320  177.5470  144.2830 C   0  0  0  0  0  2  0  0  0  0  0  0
  188.8610  178.0760  136.8830 C   0  0  0  0  0  3  0  0  0  0  0  0
  189.7920  177.6140  140.4680 C   0  0  0  0  0  0  0  0  0  0  0  0
  189.5590  177.9510  137.9720 N   0  0  0  0  0  0  0  0  0  0  0  0
  185.0800  178.3790  146.9340 C   0  0  0  0  0  1  0  0  0  0  0  0
  184.9990  178.3310  144.4390 C   0  0  0  0  0  3  0  0  0  0  0  0
  189.1220  177.3480  141.7910 C   0  0  2  0  0  3  0  0  0  0  0  0
  187.3590  178.0690  136.9080 C   0  0  0  0  0  2  0  0  0  0  0  0
  187.6400  178.0570  139.4140 C   0  0  0  0  0  0  0  0  0  0  0  0
  185.4360  178.6870  138.3820 C   0  0  0  0  0  2  0  0  0  0  0  0
  184.6160  177.4900  138.2960 N   0  0  0  0  0  0  0  0  0  0  0  0
  182.2130  176.0520  137.6940 C   0  0  0  0  0  0  0  0  0  0  0  0
  183.5080  177.6600  139.2350 C   0  0  0  0  0  2  0  0  0  0  0  0
  184.0730  177.4510  136.9380 C   0  0  0  0  0  2  0  0  0  0  0  0
  183.3160  176.1460  136.6960 C   0  0  0  0  0  2  0  0  0  0  0  0
  181.0470  176.0660  137.3350 O   0  0  0  0  0  0  0  0  0  0  0  0
  182.6290  176.0750  139.4360 S   0  0  0  0  0  0  0  0  0  0  0  0
  1 21  1  0  0  0  0
  1 20  1  0  0  0  0
  2 17  1  0  0  0  0
  3 14  2  0  0  0  0
  4  9  2  0  0  0  0
  5  7  1  0  0  0  0
  6 16  1  0  0  0  0
  7  2  2  0  0  0  0
  7  4  1  0  0  0  0
  8 12  1  0  0  0  0
  9  6  1  0  0  0  0
 10 20  2  0  0  0  0
 10 14  1  0  0  0  0
 11  5  2  0  0  0  0
 12  4  1  0  0  0  0
 13 19  1  0  0  0  0
 13 15  2  0  0  0  0
 14 18  1  0  0  0  0
 15 10  1  0  0  0  0
 17  6  2  0  0  0  0
 18  5  1  0  0  0  0
 18  8  1  1  0  0  0
 19  1  1  0  0  0  0
 20 11  1  0  0  0  0
 22 21  1  0  0  0  0
 22 24  1  0  0  0  0
 23 28  1  0  0  0  0
 24 28  1  0  0  0  0
 25 22  1  0  0  0  0
 26 25  1  0  0  0  0
 26 23  1  0  0  0  0
 27 23  2  0  0  0  0
M  END
>  <MODEL>
7

>  <REMARK>
 VINA RESULT:      -8.4      3.065      4.090
  Name = 
  2 active torsions:
  status: ('A' for Active; 'I' for Inactive)
    1  A    between atoms: N_1  and  C_2
    2  A    between atoms: C_2  and  N_3
                            x       y       z     vdW  Elec       q    Type
                         _______ _______ _______ _____ _____    ______ ____

>  <TORSDO>
F 2

$$$$
=
 OpenBabel10272401533D

 28 32  0  0  1  0  0  0  0  0999 V2000
  183.3860  178.1590  139.0450 N   0  0  0  0  0  0  0  0  0  0  0  0
  186.7400  177.8320  142.8710 C   0  0  0  0  0  3  0  0  0  0  0  0
  180.4570  179.5800  142.9640 S   0  0  0  0  0  0  0  0  0  0  0  0
  185.4170  178.3310  144.8490 C   0  0  0  0  0  0  0  0  0  0  0  0
  184.3500  178.5350  142.5990 C   0  0  0  0  0  0  0  0  0  0  0  0
  187.7290  177.6370  145.0720 C   0  0  0  0  0  0  0  0  0  0  0  0
  185.5270  178.2440  143.4440 C   0  0  0  0  0  0  0  0  0  0  0  0
  182.9210  178.5270  144.6280 C   0  0  0  0  0  2  0  0  0  0  0  0
  186.5240  178.0390  145.6520 C   0  0  0  0  0  3  0  0  0  0  0  0
  182.0550  178.7960  140.9350 C   0  0  0  0  0  0  0  0  0  0  0  0
  184.3760  178.2660  141.3260 N   0  0  0  0  0  0  0  0  0  0  0  0
  184.1440  178.7950  145.5060 C   0  0  0  0  0  2  0  0  0  0  0  0
  181.0190  178.7360  138.7680 C   0  0  0  0  0  3  0  0  0  0  0  0
  181.8990  179.0530  142.3810 C   0  0  0  0  0  0  0  0  0  0  0  0
  180.9200  178.8640  140.0570 N   0  0  0  0  0  0  0  0  0  0  0  0
  188.9000  177.3230  145.9320 C   0  0  0  0  0  1  0  0  0  0  0  0
  187.8370  177.5320  143.6820 C   0  0  0  0  0  3  0  0  0  0  0  0
  183.1290  179.1500  143.2470 C   0  0  2  0  0  3  0  0  0  0  0  0
  182.3530  178.5720  138.0950 C   0  0  0  0  0  2  0  0  0  0  0  0
  183.2530  178.4440  140.4480 C   0  0  0  0  0  0  0  0  0  0  0  0
  184.6370  177.6430  138.5090 C   0  0  0  0  0  2  0  0  0  0  0  0
  184.4080  177.0430  137.2060 N   0  0  0  0  0  0  0  0  0  0  0  0
  185.0230  175.2710  135.0410 C   0  0  0  0  0  0  0  0  0  0  0  0
  185.5290  177.4300  136.3510 C   0  0  0  0  0  2  0  0  0  0  0  0
  184.4490  175.5930  137.3980 C   0  0  0  0  0  2  0  0  0  0  0  0
  184.0660  174.8660  136.1100 C   0  0  0  0  0  2  0  0  0  0  0  0
  185.7770  174.4530  134.5400 O   0  0  0  0  0  0  0  0  0  0  0  0
  185.1510  177.0060  134.6180 S   0  0  0  0  0  0  0  0  0  0  0  0
  1 20  1  0  0  0  0
  2  7  2  0  0  0  0
  2 17  1  0  0  0  0
  4 12  1  0  0  0  0
  4  9  2  0  0  0  0
  5 18  1  0  0  0  0
  5  7  1  0  0  0  0
  6  9  1  0  0  0  0
  6 16  1  0  0  0  0
  7  4  1  0  0  0  0
  8 12  1  0  0  0  0
 10 14  1  0  0  0  0
 11  5  2  0  0  0  0
 13 15  2  0  0  0  0
 14  3  2  0  0  0  0
 14 18  1  0  0  0  0
 15 10  1  0  0  0  0
 17  6  2  0  0  0  0
 18  8  1  1  0  0  0
 19 13  1  0  0  0  0
 19  1  1  0  0  0  0
 20 10  2  0  0  0  0
 20 11  1  0  0  0  0
 21  1  1  0  0  0  0
 22 25  1  0  0  0  0
 22 21  1  0  0  0  0
 23 26  1  0  0  0  0
 24 22  1  0  0  0  0
 26 25  1  0  0  0  0
 27 23  2  0  0  0  0
 28 23  1  0  0  0  0
 28 24  1  0  0  0  0
M  END
>  <MODEL>
8

>  <REMARK>
 VINA RESULT:      -8.3      3.910      6.110
  Name = 
  2 active torsions:
  status: ('A' for Active; 'I' for Inactive)
    1  A    between atoms: N_1  and  C_2
    2  A    between atoms: C_2  and  N_3
                            x       y       z     vdW  Elec       q    Type
                         _______ _______ _______ _____ _____    ______ ____

>  <TORSDO>
F 2

$$$$
=
 OpenBabel10272401533D

 28 32  0  0  1  0  0  0  0  0999 V2000
  183.0200  178.7170  141.6700 N   0  0  0  0  0  0  0  0  0  0  0  0
  187.9590  178.0460  140.5980 C   0  0  0  0  0  3  0  0  0  0  0  0
  184.9500  178.3900  146.3740 S   0  0  0  0  0  0  0  0  0  0  0  0
  188.9870  177.7080  142.7750 C   0  0  0  0  0  0  0  0  0  0  0  0
  186.5610  178.2970  142.6630 C   0  0  0  0  0  0  0  0  0  0  0  0
  190.3030  177.4640  140.7540 C   0  0  0  0  0  0  0  0  0  0  0  0
  187.8540  178.0320  141.9970 C   0  0  0  0  0  0  0  0  0  0  0  0
  187.5100  177.4460  144.7920 C   0  0  0  0  0  2  0  0  0  0  0  0
  190.2070  177.4390  142.1470 C   0  0  0  0  0  3  0  0  0  0  0  0
  183.9870  178.5300  143.8570 C   0  0  0  0  0  0  0  0  0  0  0  0
  185.4710  178.3960  141.9590 N   0  0  0  0  0  0  0  0  0  0  0  0
  188.9270  177.7070  144.2790 C   0  0  0  0  0  2  0  0  0  0  0  0
  181.6130  178.8550  143.6740 C   0  0  0  0  0  3  0  0  0  0  0  0
  185.1520  178.3460  144.7450 C   0  0  0  0  0  0  0  0  0  0  0  0
  182.6600  178.6030  144.4020 N   0  0  0  0  0  0  0  0  0  0  0  0
  191.6020  177.1710  140.0940 C   0  0  0  0  0  1  0  0  0  0  0  0
  189.1790  177.7660  139.9800 C   0  0  0  0  0  3  0  0  0  0  0  0
  186.5410  178.4510  144.1680 C   0  0  2  0  0  3  0  0  0  0  0  0
  181.7310  179.1550  142.2060 C   0  0  0  0  0  2  0  0  0  0  0  0
  184.1650  178.5750  142.5290 C   0  0  0  0  0  0  0  0  0  0  0  0
  183.1630  178.6310  140.2240 C   0  0  0  0  0  2  0  0  0  0  0  0
  182.0900  177.8250  139.6680 N   0  0  0  0  0  0  0  0  0  0  0  0
  181.0020  175.8480  137.9030 C   0  0  0  0  0  0  0  0  0  0  0  0
  181.9370  178.2210  138.2680 C   0  0  0  0  0  2  0  0  0  0  0  0
  182.5430  176.4350  139.7110 C   0  0  0  0  0  2  0  0  0  0  0  0
  181.4220  175.4870  139.2870 C   0  0  0  0  0  2  0  0  0  0  0  0
  181.1630  175.0660  136.9810 O   0  0  0  0  0  0  0  0  0  0  0  0
  180.4000  177.5060  137.5960 S   0  0  0  0  0  0  0  0  0  0  0  0
  1 19  1  0  0  0  0
  1 20  1  0  0  0  0
  2  7  1  0  0  0  0
  4 12  1  0  0  0  0
  5 18  1  0  0  0  0
  6  9  2  0  0  0  0
  7  5  1  0  0  0  0
  7  4  2  0  0  0  0
  9  4  1  0  0  0  0
 10 15  1  0  0  0  0
 10 14  1  0  0  0  0
 11 20  1  0  0  0  0
 11  5  2  0  0  0  0
 12  8  1  0  0  0  0
 13 15  2  0  0  0  0
 14  3  2  0  0  0  0
 16  6  1  0  0  0  0
 17  2  2  0  0  0  0
 17  6  1  0  0  0  0
 18 14  1  0  0  0  0
 18  8  1  1  0  0  0
 19 13  1  0  0  0  0
 20 10  2  0  0  0  0
 21  1  1  0  0  0  0
 22 25  1  0  0  0  0
 22 21  1  0  0  0  0
 23 26  1  0  0  0  0
 24 22  1  0  0  0  0
 26 25  1  0  0  0  0
 27 23  2  0  0  0  0
 28 23  1  0  0  0  0
 28 24  1  0  0  0  0
M  END
>  <MODEL>
9

>  <REMARK>
 VINA RESULT:      -7.9      3.822      6.679
  Name = 
  2 active torsions:
  status: ('A' for Active; 'I' for Inactive)
    1  A    between atoms: N_1  and  C_2
    2  A    between atoms: C_2  and  N_3
                            x       y       z     vdW  Elec       q    Type
                         _______ _______ _______ _____ _____    ______ ____

>  <TORSDO>
F 2

$$$$
