=
 OpenBabel10272400253D

 31 35  0  0  1  0  0  0  0  0999 V2000
  185.3620  178.3440  145.6920 C   0  0  0  0  0  0  0  0  0  0  0  0
  188.8360  177.8120  144.1390 C   0  0  2  0  0  3  0  0  0  0  0  0
  189.6790  177.3550  145.3190 C   0  0  0  0  0  0  0  0  0  0  0  0
  187.1880  178.2900  139.1830 O   0  0  0  0  0  0  0  0  0  0  0  0
  188.2950  177.6880  139.1680 C   0  0  0  0  0  0  0  0  0  0  0  0
  190.3260  177.5410  147.6580 C   0  0  0  0  0  0  0  0  0  0  0  0
  187.3380  177.9530  144.3330 C   0  0  0  0  0  0  0  0  0  0  0  0
  184.5800  178.4400  144.5390 C   0  0  0  0  0  3  0  0  0  0  0  0
  189.4780  177.8850  146.6030 C   0  0  0  0  0  3  0  0  0  0  0  0
  188.3470  177.4400  141.7140 C   0  0  0  0  0  0  0  0  0  0  0  0
  184.7900  178.4900  146.9120 F   0  0  0  0  0  0  0  0  0  0  0  0
  191.1010  175.9870  143.7200 C   0  0  0  0  0  2  0  0  0  0  0  0
  190.0950  178.0520  148.9270 O   0  0  0  0  0  1  0  0  0  0  0  0
  187.1380  177.9000  141.8740 N   0  0  0  0  0  0  0  0  0  0  0  0
  189.1030  176.9270  142.9120 C   0  0  1  0  0  3  0  0  0  0  0  0
  188.9000  177.2700  140.4020 N   0  0  0  0  0  2  0  0  0  0  0  0
  186.7370  178.1160  145.5900 C   0  0  0  0  0  3  0  0  0  0  0  0
  191.4070  176.6870  147.4350 C   0  0  0  0  0  3  0  0  0  0  0  0
  186.5410  178.0540  143.1720 C   0  0  0  0  0  0  0  0  0  0  0  0
  185.1690  178.2980  143.2800 C   0  0  0  0  0  3  0  0  0  0  0  0
  190.5390  176.8380  142.6720 N   0  0  0  0  0  2  0  0  0  0  0  0
  190.8120  176.5390  145.0910 C   0  0  0  0  0  0  0  0  0  0  0  0
  191.6510  176.1890  146.1530 C   0  0  0  0  0  3  0  0  0  0  0  0
  190.4100  176.7970  135.5300 C   0  0  0  0  0  0  0  0  0  0  0  0
  190.1490  176.6150  137.9240 C   0  0  0  0  0  3  0  0  0  0  0  0
  187.3280  178.7450  136.4720 C   0  0  0  0  0  1  0  0  0  0  0  0
  191.1090  176.4950  134.3700 O   0  0  0  0  0  1  0  0  0  0  0  0
  190.8540  176.3100  136.7590 C   0  0  0  0  0  3  0  0  0  0  0  0
  188.5460  177.8970  136.6280 C   0  0  0  0  0  0  0  0  0  0  0  0
  188.9890  177.4070  137.8850 C   0  0  0  0  0  0  0  0  0  0  0  0
  189.2610  177.5850  135.4670 C   0  0  0  0  0  3  0  0  0  0  0  0
  1 11  1  0  0  0  0
  2  7  1  1  0  0  0
  2  3  1  0  0  0  0
  3  9  1  0  0  0  0
  5  4  2  0  0  0  0
  5 16  1  0  0  0  0
  6 13  1  0  0  0  0
  7 17  2  0  0  0  0
  8  1  2  0  0  0  0
  9  6  2  0  0  0  0
 10 14  2  0  0  0  0
 12 22  1  0  0  0  0
 14 19  1  0  0  0  0
 15 10  1  6  0  0  0
 15  2  1  0  0  0  0
 16 10  1  0  0  0  0
 17  1  1  0  0  0  0
 18  6  1  0  0  0  0
 19 20  2  0  0  0  0
 19  7  1  0  0  0  0
 20  8  1  0  0  0  0
 21 15  1  0  0  0  0
 21 12  1  0  0  0  0
 22  3  2  0  0  0  0
 22 23  1  0  0  0  0
 23 18  2  0  0  0  0
 24 28  1  0  0  0  0
 26 29  1  0  0  0  0
 27 24  1  0  0  0  0
 28 25  2  0  0  0  0
 29 30  2  0  0  0  0
 30 25  1  0  0  0  0
 30  5  1  0  0  0  0
 31 24  2  0  0  0  0
 31 29  1  0  0  0  0
M  END
>  <MODEL>
1

>  <REMARK>
 VINA RESULT:     -11.3      0.000      0.000
  Name = 
  1 active torsions:
  status: ('A' for Active; 'I' for Inactive)
    1  A    between atoms: C_9  and  C_22
                            x       y       z     vdW  Elec       q    Type
                         _______ _______ _______ _____ _____    ______ ____

>  <TORSDO>
F 1

$$$$
=
 OpenBabel10272400253D

 31 35  0  0  1  0  0  0  0  0999 V2000
  185.6950  178.2350  144.5720 C   0  0  0  0  0  0  0  0  0  0  0  0
  189.4180  177.5910  143.8700 C   0  0  2  0  0  3  0  0  0  0  0  0
  189.9760  177.2450  145.2400 C   0  0  0  0  0  0  0  0  0  0  0  0
  188.9010  177.6240  138.6500 O   0  0  0  0  0  0  0  0  0  0  0  0
  189.9760  177.0300  138.9310 C   0  0  0  0  0  0  0  0  0  0  0  0
  190.0980  177.6380  147.6390 C   0  0  0  0  0  0  0  0  0  0  0  0
  187.9150  177.7390  143.7180 C   0  0  0  0  0  0  0  0  0  0  0  0
  185.1860  178.2240  143.2720 C   0  0  0  0  0  3  0  0  0  0  0  0
  189.5060  177.8840  146.3980 C   0  0  0  0  0  3  0  0  0  0  0  0
  189.4660  177.0060  141.4380 C   0  0  0  0  0  0  0  0  0  0  0  0
  184.8720  178.4830  145.6190 F   0  0  0  0  0  0  0  0  0  0  0  0
  191.6960  175.7510  144.1170 C   0  0  0  0  0  2  0  0  0  0  0  0
  189.6020  178.2570  148.7780 O   0  0  0  0  0  1  0  0  0  0  0  0
  188.2570  177.4700  141.2890 N   0  0  0  0  0  0  0  0  0  0  0  0
  189.9350  176.6040  142.8130 C   0  0  1  0  0  3  0  0  0  0  0  0
  190.2910  176.7250  140.2980 N   0  0  0  0  0  2  0  0  0  0  0  0
  187.0560  178.0080  144.7930 C   0  0  0  0  0  3  0  0  0  0  0  0
  191.1900  176.7750  147.7340 C   0  0  0  0  0  3  0  0  0  0  0  0
  187.3930  177.7330  142.4060 C   0  0  0  0  0  0  0  0  0  0  0  0
  186.0340  177.9770  142.1900 C   0  0  0  0  0  3  0  0  0  0  0  0
  191.3870  176.5040  142.9010 N   0  0  0  0  0  2  0  0  0  0  0  0
  191.1210  176.4190  145.3380 C   0  0  0  0  0  0  0  0  0  0  0  0
  191.7020  176.1690  146.5840 C   0  0  0  0  0  3  0  0  0  0  0  0
  192.6220  175.8830  135.7390 C   0  0  0  0  0  0  0  0  0  0  0  0
  190.4040  176.2760  136.6110 C   0  0  0  0  0  3  0  0  0  0  0  0
  193.0040  176.9950  139.3170 C   0  0  0  0  0  1  0  0  0  0  0  0
  193.4540  175.5100  134.6940 O   0  0  0  0  0  1  0  0  0  0  0  0
  191.2390  175.8990  135.5580 C   0  0  0  0  0  3  0  0  0  0  0  0
  192.3390  176.6230  138.0340 C   0  0  0  0  0  0  0  0  0  0  0  0
  190.9310  176.6430  137.8600 C   0  0  0  0  0  0  0  0  0  0  0  0
  193.1670  176.2440  136.9710 C   0  0  0  0  0  3  0  0  0  0  0  0
  1 17  1  0  0  0  0
  1 11  1  0  0  0  0
  2  7  1  1  0  0  0
  2  3  1  0  0  0  0
  3 22  2  0  0  0  0
  3  9  1  0  0  0  0
  4  5  2  0  0  0  0
  5 16  1  0  0  0  0
  6 18  1  0  0  0  0
  6 13  1  0  0  0  0
  7 17  2  0  0  0  0
  8  1  2  0  0  0  0
  9  6  2  0  0  0  0
 12 22  1  0  0  0  0
 14 10  2  0  0  0  0
 14 19  1  0  0  0  0
 15 10  1  6  0  0  0
 15 21  1  0  0  0  0
 15  2  1  0  0  0  0
 16 10  1  0  0  0  0
 19  7  1  0  0  0  0
 20 19  2  0  0  0  0
 20  8  1  0  0  0  0
 21 12  1  0  0  0  0
 22 23  1  0  0  0  0
 23 18  2  0  0  0  0
 24 31  1  0  0  0  0
 25 30  2  0  0  0  0
 27 24  1  0  0  0  0
 28 24  2  0  0  0  0
 28 25  1  0  0  0  0
 29 26  1  0  0  0  0
 30 29  1  0  0  0  0
 30  5  1  0  0  0  0
 31 29  2  0  0  0  0
M  END
>  <MODEL>
2

>  <REMARK>
 VINA RESULT:     -11.0      1.378      2.027
  Name = 
  1 active torsions:
  status: ('A' for Active; 'I' for Inactive)
    1  A    between atoms: C_9  and  C_22
                            x       y       z     vdW  Elec       q    Type
                         _______ _______ _______ _____ _____    ______ ____

>  <TORSDO>
F 1

$$$$
=
 OpenBabel10272400253D

 31 35  0  0  1  0  0  0  0  0999 V2000
  189.8060  177.5470  147.1050 C   0  0  0  0  0  0  0  0  0  0  0  0
  187.5500  177.4630  143.9950 C   0  0  2  0  0  3  0  0  0  0  0  0
  186.2560  178.0900  144.4870 C   0  0  0  0  0  0  0  0  0  0  0  0
  191.3870  176.0820  140.6960 O   0  0  0  0  0  0  0  0  0  0  0  0
  190.4490  176.5780  140.0160 C   0  0  0  0  0  0  0  0  0  0  0  0
  184.5450  178.3510  146.1990 C   0  0  0  0  0  0  0  0  0  0  0  0
  188.7580  177.4850  144.9140 C   0  0  0  0  0  0  0  0  0  0  0  0
  191.0470  177.2730  146.5260 C   0  0  0  0  0  3  0  0  0  0  0  0
  185.7880  177.8600  145.7900 C   0  0  0  0  0  3  0  0  0  0  0  0
  189.1720  177.3530  142.0940 C   0  0  0  0  0  0  0  0  0  0  0  0
  189.7060  177.7080  148.4460 F   0  0  0  0  0  0  0  0  0  0  0  0
  185.8410  178.9730  142.1420 C   0  0  0  0  0  2  0  0  0  0  0  0
  184.1100  178.1390  147.4990 O   0  0  0  0  0  1  0  0  0  0  0  0
  190.1330  177.0340  142.9140 N   0  0  0  0  0  0  0  0  0  0  0  0
  187.9460  178.0450  142.6300 C   0  0  1  0  0  3  0  0  0  0  0  0
  189.3350  177.1970  140.6770 N   0  0  0  0  0  2  0  0  0  0  0  0
  188.6650  177.6390  146.3050 C   0  0  0  0  0  3  0  0  0  0  0  0
  183.7400  179.0510  145.2980 C   0  0  0  0  0  3  0  0  0  0  0  0
  190.0160  177.2050  144.3360 C   0  0  0  0  0  0  0  0  0  0  0  0
  191.1510  177.0990  145.1440 C   0  0  0  0  0  3  0  0  0  0  0  0
  186.8140  177.9670  141.7140 N   0  0  0  0  0  2  0  0  0  0  0  0
  185.4070  178.7470  143.5660 C   0  0  0  0  0  0  0  0  0  0  0  0
  184.1690  179.2460  143.9840 C   0  0  0  0  0  3  0  0  0  0  0  0
  190.6200  176.3010  135.7270 C   0  0  0  0  0  0  0  0  0  0  0  0
  191.1790  175.4700  137.9250 C   0  0  0  0  0  3  0  0  0  0  0  0
  189.0700  178.6410  138.2380 C   0  0  0  0  0  1  0  0  0  0  0  0
  190.6890  176.1900  134.3460 O   0  0  0  0  0  1  0  0  0  0  0  0
  191.2500  175.3560  136.5350 C   0  0  0  0  0  3  0  0  0  0  0  0
  189.8410  177.4820  137.6990 C   0  0  0  0  0  0  0  0  0  0  0  0
  190.4780  176.5250  138.5320 C   0  0  0  0  0  0  0  0  0  0  0  0
  189.9190  177.3580  136.3080 C   0  0  0  0  0  3  0  0  0  0  0  0
  1 11  1  0  0  0  0
  2  3  1  1  0  0  0
  2  7  1  0  0  0  0
  3  9  1  0  0  0  0
  5 16  1  0  0  0  0
  5  4  2  0  0  0  0
  6 13  1  0  0  0  0
  7 17  1  0  0  0  0
  8  1  1  0  0  0  0
  9  6  2  0  0  0  0
 10 15  1  0  0  0  0
 10 14  2  0  0  0  0
 12 22  1  0  0  0  0
 14 19  1  0  0  0  0
 15 21  1  6  0  0  0
 15  2  1  0  0  0  0
 16 10  1  0  0  0  0
 17  1  2  0  0  0  0
 18  6  1  0  0  0  0
 19  7  2  0  0  0  0
 19 20  1  0  0  0  0
 20  8  2  0  0  0  0
 21 12  1  0  0  0  0
 22 23  1  0  0  0  0
 22  3  2  0  0  0  0
 23 18  2  0  0  0  0
 24 31  2  0  0  0  0
 24 28  1  0  0  0  0
 25 30  1  0  0  0  0
 27 24  1  0  0  0  0
 28 25  2  0  0  0  0
 29 26  1  0  0  0  0
 29 30  2  0  0  0  0
 30  5  1  0  0  0  0
 31 29  1  0  0  0  0
M  END
>  <MODEL>
3

>  <REMARK>
 VINA RESULT:     -10.5      1.980      4.235
  Name = 
  1 active torsions:
  status: ('A' for Active; 'I' for Inactive)
    1  A    between atoms: C_9  and  C_22
                            x       y       z     vdW  Elec       q    Type
                         _______ _______ _______ _____ _____    ______ ____

>  <TORSDO>
F 1

$$$$
=
 OpenBabel10272400253D

 31 35  0  0  1  0  0  0  0  0999 V2000
  187.3280  178.0160  136.1590 C   0  0  0  0  0  0  0  0  0  0  0  0
  189.6310  176.8790  139.0170 C   0  0  2  0  0  3  0  0  0  0  0  0
  190.9800  176.7210  138.3350 C   0  0  0  0  0  0  0  0  0  0  0  0
  186.1340  177.8190  142.8110 O   0  0  0  0  0  0  0  0  0  0  0  0
  187.2780  177.7770  143.3380 C   0  0  0  0  0  0  0  0  0  0  0  0
  192.3250  175.9910  136.4410 C   0  0  0  0  0  0  0  0  0  0  0  0
  188.4910  177.4950  138.2280 C   0  0  0  0  0  0  0  0  0  0  0  0
  186.2170  178.4500  136.8850 C   0  0  0  0  0  3  0  0  0  0  0  0
  191.0770  176.2340  137.0220 C   0  0  0  0  0  3  0  0  0  0  0  0
  188.4670  177.6980  141.0740 C   0  0  0  0  0  0  0  0  0  0  0  0
  187.3080  178.0530  134.8050 F   0  0  0  0  0  0  0  0  0  0  0  0
  192.1120  177.3410  140.5220 C   0  0  0  0  0  2  0  0  0  0  0  0
  192.4020  175.5370  135.1330 O   0  0  0  0  0  1  0  0  0  0  0  0
  187.3740  177.8980  140.3910 N   0  0  0  0  0  0  0  0  0  0  0  0
  189.7850  177.6300  140.3480 C   0  0  1  0  0  3  0  0  0  0  0  0
  188.4470  177.7010  142.5080 N   0  0  0  0  0  2  0  0  0  0  0  0
  188.4540  177.5280  136.8260 C   0  0  0  0  0  3  0  0  0  0  0  0
  193.4910  176.1990  137.1790 C   0  0  0  0  0  3  0  0  0  0  0  0
  187.3630  177.9320  138.9550 C   0  0  0  0  0  0  0  0  0  0  0  0
  186.2330  178.4050  138.2820 C   0  0  0  0  0  3  0  0  0  0  0  0
  190.8330  177.0050  141.1470 N   0  0  0  0  0  2  0  0  0  0  0  0
  192.1660  176.8710  139.0930 C   0  0  0  0  0  0  0  0  0  0  0  0
  193.4110  176.6360  138.5030 C   0  0  0  0  0  3  0  0  0  0  0  0
  187.8680  177.7830  147.5990 C   0  0  0  0  0  0  0  0  0  0  0  0
  188.6400  177.3250  145.3570 C   0  0  0  0  0  3  0  0  0  0  0  0
  185.1170  178.8000  145.2370 C   0  0  0  0  0  1  0  0  0  0  0  0
  188.0820  177.7750  148.9690 O   0  0  0  0  0  1  0  0  0  0  0  0
  188.8580  177.3160  146.7350 C   0  0  0  0  0  3  0  0  0  0  0  0
  186.4330  178.2730  145.7030 C   0  0  0  0  0  0  0  0  0  0  0  0
  187.4340  177.8000  144.8150 C   0  0  0  0  0  0  0  0  0  0  0  0
  186.6620  178.2590  147.0840 C   0  0  0  0  0  3  0  0  0  0  0  0
  1 17  2  0  0  0  0
  1  8  1  0  0  0  0
  2  7  1  6  0  0  0
  2 15  1  0  0  0  0
  3  2  1  0  0  0  0
  3 22  1  0  0  0  0
  4  5  2  0  0  0  0
  5 30  1  0  0  0  0
  6  9  1  0  0  0  0
  6 18  2  0  0  0  0
  7 19  2  0  0  0  0
  8 20  2  0  0  0  0
  9  3  2  0  0  0  0
 10 16  1  0  0  0  0
 11  1  1  0  0  0  0
 12 21  1  0  0  0  0
 13  6  1  0  0  0  0
 14 10  2  0  0  0  0
 15 10  1  1  0  0  0
 15 21  1  0  0  0  0
 16  5  1  0  0  0  0
 17  7  1  0  0  0  0
 18 23  1  0  0  0  0
 19 14  1  0  0  0  0
 20 19  1  0  0  0  0
 22 12  1  0  0  0  0
 23 22  2  0  0  0  0
 24 27  1  0  0  0  0
 25 28  1  0  0  0  0
 26 29  1  0  0  0  0
 28 24  2  0  0  0  0
 29 31  2  0  0  0  0
 30 25  2  0  0  0  0
 30 29  1  0  0  0  0
 31 24  1  0  0  0  0
M  END
>  <MODEL>
4

>  <REMARK>
 VINA RESULT:     -10.4      2.792      8.341
  Name = 
  1 active torsions:
  status: ('A' for Active; 'I' for Inactive)
    1  A    between atoms: C_9  and  C_22
                            x       y       z     vdW  Elec       q    Type
                         _______ _______ _______ _____ _____    ______ ____

>  <TORSDO>
F 1

$$$$
=
 OpenBabel10272400253D

 31 35  0  0  1  0  0  0  0  0999 V2000
  190.8290  177.2370  142.8780 C   0  0  0  0  0  0  0  0  0  0  0  0
  187.0850  177.7750  143.5540 C   0  0  2  0  0  3  0  0  0  0  0  0
  187.0310  178.0000  145.0560 C   0  0  0  0  0  0  0  0  0  0  0  0
  185.7630  178.1330  138.4910 O   0  0  0  0  0  0  0  0  0  0  0  0
  184.8430  178.6610  139.1710 C   0  0  0  0  0  0  0  0  0  0  0  0
  187.7530  177.4330  147.3110 C   0  0  0  0  0  0  0  0  0  0  0  0
  188.4440  177.7000  142.8830 C   0  0  0  0  0  0  0  0  0  0  0  0
  190.8560  177.3610  141.4870 C   0  0  0  0  0  3  0  0  0  0  0  0
  187.8820  177.3000  145.9260 C   0  0  0  0  0  3  0  0  0  0  0  0
  186.1890  178.5290  141.3440 C   0  0  0  0  0  0  0  0  0  0  0  0
  191.9670  176.9500  143.5540 F   0  0  0  0  0  0  0  0  0  0  0  0
  185.0070  179.4970  144.7180 C   0  0  0  0  0  2  0  0  0  0  0  0
  188.6210  176.7560  148.1550 O   0  0  0  0  0  1  0  0  0  0  0  0
  187.2780  178.1270  140.7500 N   0  0  0  0  0  0  0  0  0  0  0  0
  186.2190  178.8120  142.8230 C   0  0  1  0  0  3  0  0  0  0  0  0
  185.0170  178.8550  140.5840 N   0  0  0  0  0  2  0  0  0  0  0  0
  189.6260  177.3920  143.5720 C   0  0  0  0  0  3  0  0  0  0  0  0
  186.7480  178.2410  147.8440 C   0  0  0  0  0  3  0  0  0  0  0  0
  188.4790  177.8210  141.4770 C   0  0  0  0  0  0  0  0  0  0  0  0
  189.6820  177.6500  140.7870 C   0  0  0  0  0  3  0  0  0  0  0  0
  184.8860  178.8460  143.4140 N   0  0  0  0  0  2  0  0  0  0  0  0
  185.9790  178.7680  145.6080 C   0  0  0  0  0  0  0  0  0  0  0  0
  185.8620  178.9050  146.9940 C   0  0  0  0  0  3  0  0  0  0  0  0
  181.1690  180.0150  137.3900 C   0  0  0  0  0  0  0  0  0  0  0  0
  183.0650  180.3550  138.8470 C   0  0  0  0  0  3  0  0  0  0  0  0
  183.2900  176.9090  137.2120 C   0  0  0  0  0  1  0  0  0  0  0  0
  179.9860  180.4740  136.8290 O   0  0  0  0  0  1  0  0  0  0  0  0
  181.8750  180.8190  138.2840 C   0  0  0  0  0  3  0  0  0  0  0  0
  182.8440  178.2730  137.6190 C   0  0  0  0  0  0  0  0  0  0  0  0
  183.5710  179.0840  138.5300 C   0  0  0  0  0  0  0  0  0  0  0  0
  181.6520  178.7480  137.0600 C   0  0  0  0  0  3  0  0  0  0  0  0
  1 11  1  0  0  0  0
  1 17  1  0  0  0  0
  2  7  1  6  0  0  0
  2  3  1  0  0  0  0
  3 22  2  0  0  0  0
  3  9  1  0  0  0  0
  4  5  2  0  0  0  0
  5 16  1  0  0  0  0
  6 18  1  0  0  0  0
  6 13  1  0  0  0  0
  7 17  2  0  0  0  0
  8  1  2  0  0  0  0
  9  6  2  0  0  0  0
 12 22  1  0  0  0  0
 14 10  2  0  0  0  0
 14 19  1  0  0  0  0
 15 10  1  6  0  0  0
 15 21  1  0  0  0  0
 15  2  1  0  0  0  0
 16 10  1  0  0  0  0
 19  7  1  0  0  0  0
 20 19  2  0  0  0  0
 20  8  1  0  0  0  0
 21 12  1  0  0  0  0
 22 23  1  0  0  0  0
 23 18  2  0  0  0  0
 24 28  1  0  0  0  0
 26 29  1  0  0  0  0
 27 24  1  0  0  0  0
 28 25  2  0  0  0  0
 29 30  2  0  0  0  0
 30 25  1  0  0  0  0
 30  5  1  0  0  0  0
 31 24  2  0  0  0  0
 31 29  1  0  0  0  0
M  END
>  <MODEL>
5

>  <REMARK>
 VINA RESULT:     -10.4      3.564      5.749
  Name = 
  1 active torsions:
  status: ('A' for Active; 'I' for Inactive)
    1  A    between atoms: C_9  and  C_22
                            x       y       z     vdW  Elec       q    Type
                         _______ _______ _______ _____ _____    ______ ____

>  <TORSDO>
F 1

$$$$
=
 OpenBabel10272400253D

 31 35  0  0  1  0  0  0  0  0999 V2000
  186.7000  178.2090  147.2950 C   0  0  0  0  0  0  0  0  0  0  0  0
  189.1430  177.4970  144.4150 C   0  0  2  0  0  3  0  0  0  0  0  0
  190.2540  176.7090  145.0880 C   0  0  0  0  0  0  0  0  0  0  0  0
  185.8850  179.1420  140.6480 O   0  0  0  0  0  0  0  0  0  0  0  0
  186.7550  178.4040  140.1140 C   0  0  0  0  0  0  0  0  0  0  0  0
  191.7580  176.3500  146.9680 C   0  0  0  0  0  0  0  0  0  0  0  0
  187.8920  177.8090  145.2150 C   0  0  0  0  0  0  0  0  0  0  0  0
  185.5790  178.6330  146.5780 C   0  0  0  0  0  3  0  0  0  0  0  0
  190.6660  177.0070  146.3960 C   0  0  0  0  0  3  0  0  0  0  0  0
  187.7100  177.6680  142.3710 C   0  0  0  0  0  0  0  0  0  0  0  0
  186.6730  178.1980  148.6490 F   0  0  0  0  0  0  0  0  0  0  0  0
  190.6550  175.4840  142.8990 C   0  0  0  0  0  2  0  0  0  0  0  0
  192.1340  176.6370  148.2720 O   0  0  0  0  0  1  0  0  0  0  0  0
  186.7730  178.2560  143.0610 N   0  0  0  0  0  0  0  0  0  0  0  0
  188.7390  176.8340  143.0890 C   0  0  1  0  0  3  0  0  0  0  0  0
  187.6800  177.6760  140.9370 N   0  0  0  0  0  2  0  0  0  0  0  0
  187.8560  177.8120  146.6170 C   0  0  0  0  0  3  0  0  0  0  0  0
  192.4750  175.4100  146.2250 C   0  0  0  0  0  3  0  0  0  0  0  0
  186.7550  178.2410  144.4980 C   0  0  0  0  0  0  0  0  0  0  0  0
  185.6070  178.6520  145.1810 C   0  0  0  0  0  3  0  0  0  0  0  0
  189.9270  176.5910  142.2780 N   0  0  0  0  0  2  0  0  0  0  0  0
  191.0240  175.7990  144.3240 C   0  0  0  0  0  0  0  0  0  0  0  0
  192.1090  175.1380  144.9050 C   0  0  0  0  0  3  0  0  0  0  0  0
  186.8550  178.0070  135.8320 C   0  0  0  0  0  0  0  0  0  0  0  0
  185.6640  177.9690  137.9330 C   0  0  0  0  0  3  0  0  0  0  0  0
  189.3470  178.7830  138.5460 C   0  0  0  0  0  1  0  0  0  0  0  0
  186.8610  177.8750  134.4510 O   0  0  0  0  0  1  0  0  0  0  0  0
  185.6680  177.8340  136.5440 C   0  0  0  0  0  3  0  0  0  0  0  0
  188.0430  178.4520  137.9020 C   0  0  0  0  0  0  0  0  0  0  0  0
  186.8400  178.2780  138.6360 C   0  0  0  0  0  0  0  0  0  0  0  0
  188.0350  178.3150  136.5090 C   0  0  0  0  0  3  0  0  0  0  0  0
  1 11  1  0  0  0  0
  2  3  1  1  0  0  0
  2  7  1  0  0  0  0
  3  9  1  0  0  0  0
  5  4  2  0  0  0  0
  5 16  1  0  0  0  0
  6 13  1  0  0  0  0
  7 17  2  0  0  0  0
  8  1  2  0  0  0  0
  9  6  2  0  0  0  0
 10 14  2  0  0  0  0
 10 15  1  0  0  0  0
 12 22  1  0  0  0  0
 14 19  1  0  0  0  0
 15 21  1  6  0  0  0
 15  2  1  0  0  0  0
 16 10  1  0  0  0  0
 17  1  1  0  0  0  0
 18  6  1  0  0  0  0
 19 20  2  0  0  0  0
 19  7  1  0  0  0  0
 20  8  1  0  0  0  0
 21 12  1  0  0  0  0
 22 23  1  0  0  0  0
 22  3  2  0  0  0  0
 23 18  2  0  0  0  0
 24 31  2  0  0  0  0
 24 28  1  0  0  0  0
 25 30  1  0  0  0  0
 27 24  1  0  0  0  0
 28 25  2  0  0  0  0
 29 26  1  0  0  0  0
 29 30  2  0  0  0  0
 30  5  1  0  0  0  0
 31 29  1  0  0  0  0
M  END
>  <MODEL>
6

>  <REMARK>
 VINA RESULT:     -10.2      1.740      2.323
  Name = 
  1 active torsions:
  status: ('A' for Active; 'I' for Inactive)
    1  A    between atoms: C_9  and  C_22
                            x       y       z     vdW  Elec       q    Type
                         _______ _______ _______ _____ _____    ______ ____

>  <TORSDO>
F 1

$$$$
=
 OpenBabel10272400253D

 31 35  0  0  1  0  0  0  0  0999 V2000
  184.3690  178.7710  145.3590 C   0  0  0  0  0  0  0  0  0  0  0  0
  184.9550  178.2080  141.6030 C   0  0  2  0  0  3  0  0  0  0  0  0
  183.6970  178.7740  140.9660 C   0  0  0  0  0  0  0  0  0  0  0  0
  189.9860  176.8260  142.1380 O   0  0  0  0  0  0  0  0  0  0  0  0
  189.8050  177.1780  140.9410 C   0  0  0  0  0  0  0  0  0  0  0  0
  181.2800  179.0620  140.9410 C   0  0  0  0  0  0  0  0  0  0  0  0
  185.1660  178.4150  143.0910 C   0  0  0  0  0  0  0  0  0  0  0  0
  185.6550  178.5420  145.8540 C   0  0  0  0  0  3  0  0  0  0  0  0
  182.4440  178.6340  141.5840 C   0  0  0  0  0  3  0  0  0  0  0  0
  187.4440  178.0450  141.4130 C   0  0  0  0  0  0  0  0  0  0  0  0
  183.3550  179.0510  146.2130 F   0  0  0  0  0  0  0  0  0  0  0  0
  185.0630  179.3920  138.9160 C   0  0  0  0  0  2  0  0  0  0  0  0
  180.0530  178.9420  141.5780 O   0  0  0  0  0  1  0  0  0  0  0  0
  187.5450  177.8840  142.7030 N   0  0  0  0  0  0  0  0  0  0  0  0
  186.2040  178.6860  140.8470 C   0  0  1  0  0  3  0  0  0  0  0  0
  188.5550  177.7670  140.5490 N   0  0  0  0  0  2  0  0  0  0  0  0
  184.1230  178.6940  143.9860 C   0  0  0  0  0  3  0  0  0  0  0  0
  181.3500  179.6050  139.6570 C   0  0  0  0  0  3  0  0  0  0  0  0
  186.4630  178.1820  143.6000 C   0  0  0  0  0  0  0  0  0  0  0  0
  186.7000  178.2450  144.9760 C   0  0  0  0  0  3  0  0  0  0  0  0
  186.0430  178.4300  139.4200 N   0  0  0  0  0  2  0  0  0  0  0  0
  183.7490  179.2700  139.6420 C   0  0  0  0  0  0  0  0  0  0  0  0
  182.5820  179.7060  139.0080 C   0  0  0  0  0  3  0  0  0  0  0  0
  192.9910  176.6710  138.0960 C   0  0  0  0  0  0  0  0  0  0  0  0
  192.1920  177.2890  140.2900 C   0  0  0  0  0  3  0  0  0  0  0  0
  189.2590  176.1640  138.1140 C   0  0  0  0  0  1  0  0  0  0  0  0
  194.0350  176.5150  137.1960 O   0  0  0  0  0  1  0  0  0  0  0  0
  193.2450  177.1330  139.3870 C   0  0  0  0  0  3  0  0  0  0  0  0
  190.6230  176.5160  138.6070 C   0  0  0  0  0  0  0  0  0  0  0  0
  190.8700  176.9850  139.9230 C   0  0  0  0  0  0  0  0  0  0  0  0
  191.6850  176.3640  137.7100 C   0  0  0  0  0  3  0  0  0  0  0  0
  1  8  1  0  0  0  0
  1 11  1  0  0  0  0
  2  3  1  6  0  0  0
  2  7  1  0  0  0  0
  3  9  1  0  0  0  0
  5  4  2  0  0  0  0
  6 13  1  0  0  0  0
  6  9  2  0  0  0  0
  7 19  2  0  0  0  0
  7 17  1  0  0  0  0
 10 14  2  0  0  0  0
 12 21  1  0  0  0  0
 12 22  1  0  0  0  0
 14 19  1  0  0  0  0
 15 21  1  6  0  0  0
 15 10  1  0  0  0  0
 15  2  1  0  0  0  0
 16  5  1  0  0  0  0
 16 10  1  0  0  0  0
 17  1  2  0  0  0  0
 18  6  1  0  0  0  0
 19 20  1  0  0  0  0
 20  8  2  0  0  0  0
 22  3  2  0  0  0  0
 23 22  1  0  0  0  0
 23 18  2  0  0  0  0
 24 28  1  0  0  0  0
 26 29  1  0  0  0  0
 27 24  1  0  0  0  0
 28 25  2  0  0  0  0
 29 30  2  0  0  0  0
 30 25  1  0  0  0  0
 30  5  1  0  0  0  0
 31 24  2  0  0  0  0
 31 29  1  0  0  0  0
M  END
>  <MODEL>
7

>  <REMARK>
 VINA RESULT:     -10.1      3.017      5.995
  Name = 
  1 active torsions:
  status: ('A' for Active; 'I' for Inactive)
    1  A    between atoms: C_9  and  C_22
                            x       y       z     vdW  Elec       q    Type
                         _______ _______ _______ _____ _____    ______ ____

>  <TORSDO>
F 1

$$$$
=
 OpenBabel10272400253D

 31 35  0  0  1  0  0  0  0  0999 V2000
  185.9700  178.3980  146.4030 C   0  0  0  0  0  0  0  0  0  0  0  0
  185.5360  177.8940  142.6180 C   0  0  2  0  0  3  0  0  0  0  0  0
  184.1650  178.4890  142.3420 C   0  0  0  0  0  0  0  0  0  0  0  0
  190.5030  176.4300  141.7890 O   0  0  0  0  0  0  0  0  0  0  0  0
  190.0200  176.8050  140.6870 C   0  0  0  0  0  0  0  0  0  0  0  0
  181.8320  178.8130  142.9590 C   0  0  0  0  0  0  0  0  0  0  0  0
  186.1350  178.0710  144.0000 C   0  0  0  0  0  0  0  0  0  0  0  0
  187.3360  178.1420  146.5380 C   0  0  0  0  0  3  0  0  0  0  0  0
  183.1170  178.3570  143.2660 C   0  0  0  0  0  3  0  0  0  0  0  0
  187.8830  177.6980  141.7760 C   0  0  0  0  0  0  0  0  0  0  0  0
  185.2220  178.6780  147.4970 F   0  0  0  0  0  0  0  0  0  0  0  0
  184.9540  179.1230  140.0130 C   0  0  0  0  0  2  0  0  0  0  0  0
  180.8150  178.6990  143.8950 O   0  0  0  0  0  1  0  0  0  0  0  0
  188.3180  177.5130  142.9910 N   0  0  0  0  0  0  0  0  0  0  0  0
  186.5500  178.3670  141.5660 C   0  0  1  0  0  3  0  0  0  0  0  0
  188.7220  177.4200  140.6470 N   0  0  0  0  0  2  0  0  0  0  0  0
  185.3690  178.3490  145.1420 C   0  0  0  0  0  3  0  0  0  0  0  0
  181.5720  179.3770  141.7090 C   0  0  0  0  0  3  0  0  0  0  0  0
  187.5150  177.8100  144.1460 C   0  0  0  0  0  0  0  0  0  0  0  0
  188.1070  177.8450  145.4110 C   0  0  0  0  0  3  0  0  0  0  0  0
  186.0150  178.1390  140.2280 N   0  0  0  0  0  2  0  0  0  0  0  0
  183.8760  179.0080  141.0580 C   0  0  0  0  0  0  0  0  0  0  0  0
  182.5920  179.4720  140.7600 C   0  0  0  0  0  3  0  0  0  0  0  0
  192.0820  176.2000  136.9610 C   0  0  0  0  0  0  0  0  0  0  0  0
  190.0840  176.0990  138.3150 C   0  0  0  0  0  3  0  0  0  0  0  0
  192.9830  177.4790  140.3870 C   0  0  0  0  0  1  0  0  0  0  0  0
  192.7240  175.9970  135.7490 O   0  0  0  0  0  1  0  0  0  0  0  0
  190.7280  175.8930  137.0940 C   0  0  0  0  0  3  0  0  0  0  0  0
  192.1530  176.9250  139.2770 C   0  0  0  0  0  0  0  0  0  0  0  0
  190.7760  176.6150  139.4230 C   0  0  0  0  0  0  0  0  0  0  0  0
  192.7890  176.7150  138.0480 C   0  0  0  0  0  3  0  0  0  0  0  0
  1  8  1  0  0  0  0
  1 11  1  0  0  0  0
  2  3  1  1  0  0  0
  2  7  1  0  0  0  0
  3  9  1  0  0  0  0
  5  4  2  0  0  0  0
  6  9  2  0  0  0  0
  6 13  1  0  0  0  0
  7 19  2  0  0  0  0
  7 17  1  0  0  0  0
 10 14  2  0  0  0  0
 12 21  1  0  0  0  0
 12 22  1  0  0  0  0
 14 19  1  0  0  0  0
 15 21  1  6  0  0  0
 15 10  1  0  0  0  0
 15  2  1  0  0  0  0
 16  5  1  0  0  0  0
 16 10  1  0  0  0  0
 17  1  2  0  0  0  0
 18  6  1  0  0  0  0
 19 20  1  0  0  0  0
 20  8  2  0  0  0  0
 22  3  2  0  0  0  0
 23 22  1  0  0  0  0
 23 18  2  0  0  0  0
 24 28  2  0  0  0  0
 24 31  1  0  0  0  0
 25 30  2  0  0  0  0
 27 24  1  0  0  0  0
 28 25  1  0  0  0  0
 29 30  1  0  0  0  0
 29 26  1  0  0  0  0
 30  5  1  0  0  0  0
 31 29  2  0  0  0  0
M  END
>  <MODEL>
8

>  <REMARK>
 VINA RESULT:      -9.5      2.628      5.423
  Name = 
  1 active torsions:
  status: ('A' for Active; 'I' for Inactive)
    1  A    between atoms: C_9  and  C_22
                            x       y       z     vdW  Elec       q    Type
                         _______ _______ _______ _____ _____    ______ ____

>  <TORSDO>
F 1

$$$$
=
 OpenBabel10272400253D

 31 35  0  0  1  0  0  0  0  0999 V2000
  191.1610  176.8820  145.0970 C   0  0  0  0  0  0  0  0  0  0  0  0
  189.6650  177.8070  141.6810 C   0  0  2  0  0  3  0  0  0  0  0  0
  190.7360  177.3630  140.6990 C   0  0  0  0  0  0  0  0  0  0  0  0
  184.8980  178.9160  143.5670 O   0  0  0  0  0  0  0  0  0  0  0  0
  184.7860  178.6980  142.3310 C   0  0  0  0  0  0  0  0  0  0  0  0
  193.0770  177.1790  140.0590 C   0  0  0  0  0  0  0  0  0  0  0  0
  189.8270  177.4380  143.1440 C   0  0  0  0  0  0  0  0  0  0  0  0
  190.0330  177.0050  145.9110 C   0  0  0  0  0  3  0  0  0  0  0  0
  192.1000  177.4890  141.0070 C   0  0  0  0  0  3  0  0  0  0  0  0
  187.2030  177.8860  142.1180 C   0  0  0  0  0  0  0  0  0  0  0  0
  192.3570  176.5560  145.6440 F   0  0  0  0  0  0  0  0  0  0  0  0
  188.9190  176.9060  138.9850 C   0  0  0  0  0  2  0  0  0  0  0  0
  194.4210  177.2830  140.3890 O   0  0  0  0  0  1  0  0  0  0  0  0
  187.4180  177.9070  143.4040 N   0  0  0  0  0  0  0  0  0  0  0  0
  188.2760  177.3590  141.2010 C   0  0  1  0  0  3  0  0  0  0  0  0
  185.9100  178.2050  141.5860 N   0  0  0  0  0  2  0  0  0  0  0  0
  191.0620  177.1110  143.7230 C   0  0  0  0  0  3  0  0  0  0  0  0
  192.7030  176.7700  138.7780 C   0  0  0  0  0  3  0  0  0  0  0  0
  188.6920  177.5630  143.9740 C   0  0  0  0  0  0  0  0  0  0  0  0
  188.8000  177.3480  145.3500 C   0  0  0  0  0  3  0  0  0  0  0  0
  188.0780  177.7680  139.8150 N   0  0  0  0  0  2  0  0  0  0  0  0
  190.3680  177.0060  139.3810 C   0  0  0  0  0  0  0  0  0  0  0  0
  191.3510  176.6860  138.4390 C   0  0  0  0  0  3  0  0  0  0  0  0
  181.1430  179.4450  140.1690 C   0  0  0  0  0  0  0  0  0  0  0  0
  183.5410  179.1630  140.2410 C   0  0  0  0  0  3  0  0  0  0  0  0
  182.0850  178.7800  143.7530 C   0  0  0  0  0  1  0  0  0  0  0  0
  179.9820  179.6870  139.4490 O   0  0  0  0  0  1  0  0  0  0  0  0
  182.3740  179.4080  139.5150 C   0  0  0  0  0  3  0  0  0  0  0  0
  182.2430  178.9920  142.2850 C   0  0  0  0  0  0  0  0  0  0  0  0
  183.5010  178.9510  141.6290 C   0  0  0  0  0  0  0  0  0  0  0  0
  181.0790  179.2380  141.5470 C   0  0  0  0  0  3  0  0  0  0  0  0
  1 11  1  0  0  0  0
  1  8  1  0  0  0  0
  2  3  1  6  0  0  0
  2  7  1  0  0  0  0
  3  9  1  0  0  0  0
  5  4  2  0  0  0  0
  6 13  1  0  0  0  0
  6  9  2  0  0  0  0
  7 17  1  0  0  0  0
  7 19  2  0  0  0  0
 10 14  2  0  0  0  0
 12 22  1  0  0  0  0
 12 21  1  0  0  0  0
 14 19  1  0  0  0  0
 15 21  1  6  0  0  0
 15  2  1  0  0  0  0
 15 10  1  0  0  0  0
 16 10  1  0  0  0  0
 16  5  1  0  0  0  0
 17  1  2  0  0  0  0
 18  6  1  0  0  0  0
 19 20  1  0  0  0  0
 20  8  2  0  0  0  0
 22  3  2  0  0  0  0
 23 18  2  0  0  0  0
 23 22  1  0  0  0  0
 24 31  1  0  0  0  0
 25 30  2  0  0  0  0
 27 24  1  0  0  0  0
 28 24  2  0  0  0  0
 28 25  1  0  0  0  0
 29 26  1  0  0  0  0
 30 29  1  0  0  0  0
 30  5  1  0  0  0  0
 31 29  2  0  0  0  0
M  END
>  <MODEL>
9

>  <REMARK>
 VINA RESULT:      -9.4      3.375      6.763
  Name = 
  1 active torsions:
  status: ('A' for Active; 'I' for Inactive)
    1  A    between atoms: C_9  and  C_22
                            x       y       z     vdW  Elec       q    Type
                         _______ _______ _______ _____ _____    ______ ____

>  <TORSDO>
F 1

$$$$
