=
 OpenBabel10272414523D

 37 42  0  0  1  0  0  0  0  0999 V2000
  181.8710  178.3110  139.7030 C   0  0  0  0  0  2  0  0  0  0  0  0
  186.0140  178.6060  141.8810 C   0  0  1  0  0  3  0  0  0  0  0  0
  189.2950  177.9280  140.2270 O   0  0  0  0  0  0  0  0  0  0  0  0
  183.4150  178.7230  141.4330 C   0  0  2  0  0  3  0  0  0  0  0  0
  186.9360  177.9180  140.8990 C   0  0  2  0  0  3  0  0  0  0  0  0
  184.8540  179.1520  141.0310 C   0  0  2  0  0  3  0  0  0  0  0  0
  188.4060  177.9630  141.3290 C   0  0  1  0  0  3  0  0  0  0  0  0
  183.1950  178.3260  142.9040 C   0  0  0  0  0  2  0  0  0  0  0  0
  185.2020  178.8330  139.5740 C   0  0  1  0  0  3  0  0  0  0  0  0
  183.2320  180.1250  138.6280 C   0  0  0  0  0  2  0  0  0  0  0  0
  186.7470  177.3440  143.9110 C   0  0  0  0  0  2  0  0  0  0  0  0
  184.4580  178.3000  143.7570 C   0  0  0  0  0  2  0  0  0  0  0  0
  184.7490  179.9310  138.6200 C   0  0  0  0  0  2  0  0  0  0  0  0
  189.1580  176.7110  139.5150 C   0  0  0  0  0  2  0  0  0  0  0  0
  185.5810  177.6470  142.9810 C   0  0  1  0  0  3  0  0  0  0  0  0
  186.7030  178.6280  139.5680 C   0  0  2  0  0  3  0  0  0  0  0  0
  182.8810  177.6890  140.5530 N   0  0  0  0  0  2  0  0  0  0  0  0
  188.8110  176.9600  142.4330 C   0  0  2  0  0  3  0  0  0  0  0  0
  182.4800  178.8180  138.3990 C   0  0  0  0  0  2  0  0  0  0  0  0
  187.8280  176.5970  138.7260 C   0  0  1  0  0  3  0  0  0  0  0  0
  187.1670  177.8800  138.3770 N   0  0  0  0  0  0  0  0  0  0  0  0
  187.6810  176.3270  143.2610 C   0  0  0  0  0  2  0  0  0  0  0  0
  190.4250  178.7710  143.0310 C   0  0  0  0  0  3  0  0  0  0  0  0
  189.9100  177.4980  143.2940 C   0  0  0  0  0  0  0  0  0  0  0  0
  190.4340  176.7420  144.3530 C   0  0  0  0  0  3  0  0  0  0  0  0
  192.1130  176.3160  146.4650 Cl  0  0  0  0  0  0  0  0  0  0  0  0
  191.9730  178.5360  144.8790 C   0  0  0  0  0  3  0  0  0  0  0  0
  191.4630  177.2620  145.1440 C   0  0  0  0  0  0  0  0  0  0  0  0
  191.4540  179.2910  143.8220 C   0  0  0  0  0  3  0  0  0  0  0  0
  189.1660  174.9930  137.5450 O   0  0  0  0  0  1  0  0  0  0  0  0
  187.9140  175.6090  137.5610 C   0  0  1  0  0  3  0  0  0  0  0  0
  186.9080  174.6430  137.6430 O   0  0  0  0  0  0  0  0  0  0  0  0
  186.4740  174.4680  136.3280 C   0  0  0  0  0  1  0  0  0  0  0  0
  188.1100  178.7390  137.6520 C   0  0  0  0  0  2  0  0  0  0  0  0
  187.8620  178.7440  136.1450 C   0  0  2  0  0  3  0  0  0  0  0  0
  186.5120  178.1490  135.8120 C   0  0  0  0  0  1  0  0  0  0  0  0
  188.8690  178.0690  135.4530 O   0  0  0  0  0  1  0  0  0  0  0  0
  1 17  1  0  0  0  0
  2 15  1  0  0  0  0
  3  7  1  0  0  0  0
  4  8  1  0  0  0  0
  5  7  1  0  0  0  0
  5  2  1  0  0  0  0
  6  4  1  0  0  0  0
  6  2  1  0  0  0  0
  7 18  1  0  0  0  0
  8 12  1  0  0  0  0
  9  6  1  0  0  0  0
 13 10  1  0  0  0  0
 13  9  1  0  0  0  0
 14  3  1  0  0  0  0
 15 12  1  0  0  0  0
 15 11  1  0  0  0  0
 16  9  1  0  0  0  0
 16  5  1  0  0  0  0
 17  4  1  0  0  0  0
 18 22  1  0  0  0  0
 18 24  1  0  0  0  0
 19 10  1  0  0  0  0
 19  1  1  0  0  0  0
 20 14  1  0  0  0  0
 21 20  1  0  0  0  0
 21 16  1  0  0  0  0
 22 11  1  0  0  0  0
 23 24  2  0  0  0  0
 23 29  1  0  0  0  0
 24 25  1  0  0  0  0
 25 28  2  0  0  0  0
 27 28  1  0  0  0  0
 28 26  1  0  0  0  0
 29 27  2  0  0  0  0
 30 31  1  0  0  0  0
 31 32  1  0  0  0  0
 31 20  1  0  0  0  0
 33 32  1  0  0  0  0
 34 21  1  0  0  0  0
 35 34  1  0  0  0  0
 36 35  1  0  0  0  0
 37 35  1  0  0  0  0
M  END
>  <MODEL>
1

>  <REMARK>
 VINA RESULT:      -6.0      0.000      0.000
  Name = 
  5 active torsions:
  status: ('A' for Active; 'I' for Inactive)
    1  A    between atoms: C_1  and  C_5
    2  A    between atoms: C_1  and  N_36
    3  A    between atoms: C_6  and  C_31
    4  A    between atoms: O_11  and  C_26
    5  A    between atoms: C_26  and  C_33
                            x       y       z     vdW  Elec       q    Type
                         _______ _______ _______ _____ _____    ______ ____

>  <TORSDO>
F 5

$$$$
=
 OpenBabel10272414523D

 37 42  0  0  1  0  0  0  0  0999 V2000
  187.3540  172.0750  136.9200 C   0  0  0  0  0  2  0  0  0  0  0  0
  184.2920  175.6180  137.1870 C   0  0  1  0  0  3  0  0  0  0  0  0
  185.1960  179.0830  138.2520 O   0  0  0  0  0  0  0  0  0  0  0  0
  185.3050  173.2230  136.7330 C   0  0  2  0  0  3  0  0  0  0  0  0
  185.0710  176.6490  137.9720 C   0  0  2  0  0  3  0  0  0  0  0  0
  185.3550  174.7560  136.4840 C   0  0  2  0  0  3  0  0  0  0  0  0
  184.3200  177.9770  138.1200 C   0  0  1  0  0  3  0  0  0  0  0  0
  183.9400  172.6270  137.1210 C   0  0  0  0  0  2  0  0  0  0  0  0
  186.7100  175.3860  136.8230 C   0  0  1  0  0  3  0  0  0  0  0  0
  188.0170  173.8550  135.2770 C   0  0  0  0  0  2  0  0  0  0  0  0
  182.2060  175.7110  138.5620 C   0  0  0  0  0  2  0  0  0  0  0  0
  182.8270  173.6500  137.3200 C   0  0  0  0  0  2  0  0  0  0  0  0
  187.6920  175.2980  135.6630 C   0  0  0  0  0  2  0  0  0  0  0  0
  185.9720  178.9670  139.4300 C   0  0  0  0  0  2  0  0  0  0  0  0
  183.3600  174.8330  138.0990 C   0  0  1  0  0  3  0  0  0  0  0  0
  186.3870  176.8130  137.2180 C   0  0  2  0  0  3  0  0  0  0  0  0
  186.3270  172.7820  137.6770 N   0  0  0  0  0  2  0  0  0  0  0  0
  183.1990  177.9960  139.1830 C   0  0  2  0  0  3  0  0  0  0  0  0
  188.4650  173.0230  136.4750 C   0  0  0  0  0  2  0  0  0  0  0  0
  187.0440  177.8470  139.3620 C   0  0  1  0  0  3  0  0  0  0  0  0
  187.4760  177.4430  138.0000 N   0  0  0  0  0  0  0  0  0  0  0  0
  182.6740  176.6390  139.6790 C   0  0  0  0  0  2  0  0  0  0  0  0
  181.3170  179.5170  139.8060 C   0  0  0  0  0  3  0  0  0  0  0  0
  182.0910  178.9270  138.8020 C   0  0  0  0  0  0  0  0  0  0  0  0
  181.8140  179.2090  137.4560 C   0  0  0  0  0  3  0  0  0  0  0  0
  180.4320  180.4290  135.4420 Cl  0  0  0  0  0  0  0  0  0  0  0  0
  180.0030  180.6680  138.1290 C   0  0  0  0  0  3  0  0  0  0  0  0
  180.7730  180.0800  137.1220 C   0  0  0  0  0  0  0  0  0  0  0  0
  180.2750  180.3870  139.4710 C   0  0  0  0  0  3  0  0  0  0  0  0
  187.7120  178.4860  141.5760 O   0  0  0  0  0  1  0  0  0  0  0  0
  188.2010  178.0770  140.3350 C   0  0  1  0  0  3  0  0  0  0  0  0
  188.9730  176.9220  140.4850 O   0  0  0  0  0  0  0  0  0  0  0  0
  190.2200  177.3790  140.9110 C   0  0  0  0  0  1  0  0  0  0  0  0
  187.9320  178.6220  137.2570 C   0  0  0  0  0  2  0  0  0  0  0  0
  189.3320  178.4440  136.6720 C   0  0  2  0  0  3  0  0  0  0  0  0
  189.2670  178.0340  135.2170 C   0  0  0  0  0  1  0  0  0  0  0  0
  190.0830  177.5180  137.3990 O   0  0  0  0  0  1  0  0  0  0  0  0
  1 17  1  0  0  0  0
  2  5  1  0  0  0  0
  2 15  1  0  0  0  0
  3 14  1  0  0  0  0
  4  8  1  0  0  0  0
  4 17  1  0  0  0  0
  5  7  1  0  0  0  0
  6  4  1  0  0  0  0
  6  9  1  0  0  0  0
  6  2  1  0  0  0  0
  7  3  1  0  0  0  0
  7 18  1  0  0  0  0
  8 12  1  0  0  0  0
  9 16  1  0  0  0  0
 10 13  1  0  0  0  0
 10 19  1  0  0  0  0
 11 22  1  0  0  0  0
 12 15  1  0  0  0  0
 13  9  1  0  0  0  0
 15 11  1  0  0  0  0
 16  5  1  0  0  0  0
 16 21  1  0  0  0  0
 18 22  1  0  0  0  0
 19  1  1  0  0  0  0
 20 14  1  0  0  0  0
 20 31  1  0  0  0  0
 21 20  1  0  0  0  0
 24 18  1  0  0  0  0
 24 23  2  0  0  0  0
 25 24  1  0  0  0  0
 26 28  1  0  0  0  0
 27 29  2  0  0  0  0
 28 25  2  0  0  0  0
 28 27  1  0  0  0  0
 29 23  1  0  0  0  0
 31 32  1  0  0  0  0
 31 30  1  0  0  0  0
 32 33  1  0  0  0  0
 34 21  1  0  0  0  0
 35 34  1  0  0  0  0
 35 37  1  0  0  0  0
 36 35  1  0  0  0  0
M  END
>  <MODEL>
2

>  <REMARK>
 VINA RESULT:      -5.5      3.802      7.492
  Name = 
  5 active torsions:
  status: ('A' for Active; 'I' for Inactive)
    1  A    between atoms: C_1  and  C_5
    2  A    between atoms: C_1  and  N_36
    3  A    between atoms: C_6  and  C_31
    4  A    between atoms: O_11  and  C_26
    5  A    between atoms: C_26  and  C_33
                            x       y       z     vdW  Elec       q    Type
                         _______ _______ _______ _____ _____    ______ ____

>  <TORSDO>
F 5

$$$$
=
 OpenBabel10272414523D

 37 42  0  0  1  0  0  0  0  0999 V2000
  189.6300  177.4010  138.4430 C   0  0  0  0  0  2  0  0  0  0  0  0
  186.0010  175.1050  136.5560 C   0  0  1  0  0  3  0  0  0  0  0  0
  182.4250  175.8510  137.3370 O   0  0  0  0  0  0  0  0  0  0  0  0
  188.4740  175.8730  137.0730 C   0  0  2  0  0  3  0  0  0  0  0  0
  184.8560  175.5440  137.4400 C   0  0  2  0  0  3  0  0  0  0  0  0
  187.0310  176.2460  136.6310 C   0  0  2  0  0  3  0  0  0  0  0  0
  183.5010  175.0040  136.9720 C   0  0  1  0  0  3  0  0  0  0  0  0
  188.9230  174.4220  136.8210 C   0  0  0  0  0  2  0  0  0  0  0  0
  186.3930  177.3420  137.4900 C   0  0  1  0  0  3  0  0  0  0  0  0
  188.2650  179.0080  137.0790 C   0  0  0  0  0  2  0  0  0  0  0  0
  185.5420  172.6500  136.6710 C   0  0  0  0  0  2  0  0  0  0  0  0
  187.8410  173.5020  136.2660 C   0  0  0  0  0  2  0  0  0  0  0  0
  186.7620  178.7390  137.0060 C   0  0  0  0  0  2  0  0  0  0  0  0
  182.3170  175.9410  138.7460 C   0  0  0  0  0  2  0  0  0  0  0  0
  186.5400  173.7520  136.9970 C   0  0  1  0  0  3  0  0  0  0  0  0
  184.9040  177.0690  137.4280 C   0  0  2  0  0  3  0  0  0  0  0  0
  188.7410  176.2430  138.4580 N   0  0  0  0  0  2  0  0  0  0  0  0
  183.2150  173.5250  137.3150 C   0  0  2  0  0  3  0  0  0  0  0  0
  188.8400  178.7070  138.4600 C   0  0  0  0  0  2  0  0  0  0  0  0
  183.4640  176.7490  139.4080 C   0  0  1  0  0  3  0  0  0  0  0  0
  184.1640  177.7220  138.5310 N   0  0  0  0  0  0  0  0  0  0  0  0
  184.4160  172.6450  137.7000 C   0  0  0  0  0  2  0  0  0  0  0  0
  181.5900  173.6760  135.4230 C   0  0  0  0  0  3  0  0  0  0  0  0
  182.3460  172.8750  136.2840 C   0  0  0  0  0  0  0  0  0  0  0  0
  182.2760  171.4780  136.1740 C   0  0  0  0  0  3  0  0  0  0  0  0
  181.3720  169.1490  135.0720 Cl  0  0  0  0  0  0  0  0  0  0  0  0
  180.7030  171.6960  134.3460 C   0  0  0  0  0  3  0  0  0  0  0  0
  181.4560  170.8910  135.2050 C   0  0  0  0  0  0  0  0  0  0  0  0
  180.7700  173.0890  134.4540 C   0  0  0  0  0  3  0  0  0  0  0  0
  183.9560  178.3350  141.1400 O   0  0  0  0  0  1  0  0  0  0  0  0
  183.0760  177.3150  140.7740 C   0  0  1  0  0  3  0  0  0  0  0  0
  181.7650  177.7980  140.7680 O   0  0  0  0  0  0  0  0  0  0  0  0
  181.7410  178.7780  141.7600 C   0  0  0  0  0  1  0  0  0  0  0  0
  183.1860  178.6360  137.9310 C   0  0  0  0  0  2  0  0  0  0  0  0
  182.9740  179.9000  138.7620 C   0  0  2  0  0  3  0  0  0  0  0  0
  181.8820  180.7650  138.1710 C   0  0  0  0  0  1  0  0  0  0  0  0
  184.1520  180.6370  138.8940 O   0  0  0  0  0  1  0  0  0  0  0  0
  1 17  1  0  0  0  0
  1 19  1  0  0  0  0
  2  6  1  0  0  0  0
  2 15  1  0  0  0  0
  2  5  1  0  0  0  0
  3 14  1  0  0  0  0
  4 17  1  0  0  0  0
  6  4  1  0  0  0  0
  6  9  1  0  0  0  0
  7 18  1  0  0  0  0
  7  3  1  0  0  0  0
  7  5  1  0  0  0  0
  8  4  1  0  0  0  0
 10 19  1  0  0  0  0
 11 15  1  0  0  0  0
 11 22  1  0  0  0  0
 12  8  1  0  0  0  0
 12 15  1  0  0  0  0
 13 10  1  0  0  0  0
 13  9  1  0  0  0  0
 14 20  1  0  0  0  0
 16  5  1  0  0  0  0
 16  9  1  0  0  0  0
 16 21  1  0  0  0  0
 18 22  1  0  0  0  0
 20 31  1  0  0  0  0
 21 20  1  0  0  0  0
 23 24  1  0  0  0  0
 24 18  1  0  0  0  0
 25 24  2  0  0  0  0
 26 28  1  0  0  0  0
 27 29  1  0  0  0  0
 27 28  2  0  0  0  0
 28 25  1  0  0  0  0
 29 23  2  0  0  0  0
 31 30  1  0  0  0  0
 32 31  1  0  0  0  0
 32 33  1  0  0  0  0
 34 21  1  0  0  0  0
 34 35  1  0  0  0  0
 35 37  1  0  0  0  0
 36 35  1  0  0  0  0
M  END
>  <MODEL>
3

>  <REMARK>
 VINA RESULT:      -4.8      4.724      8.715
  Name = 
  5 active torsions:
  status: ('A' for Active; 'I' for Inactive)
    1  A    between atoms: C_1  and  C_5
    2  A    between atoms: C_1  and  N_36
    3  A    between atoms: C_6  and  C_31
    4  A    between atoms: O_11  and  C_26
    5  A    between atoms: C_26  and  C_33
                            x       y       z     vdW  Elec       q    Type
                         _______ _______ _______ _____ _____    ______ ____

>  <TORSDO>
F 5

$$$$
=
 OpenBabel10272414523D

 37 42  0  0  1  0  0  0  0  0999 V2000
  188.0780  175.5810  134.4530 C   0  0  0  0  0  2  0  0  0  0  0  0
  185.5320  176.7980  138.2000 C   0  0  1  0  0  3  0  0  0  0  0  0
  181.9500  175.8550  138.6860 O   0  0  0  0  0  0  0  0  0  0  0  0
  187.5800  176.5170  136.5560 C   0  0  2  0  0  3  0  0  0  0  0  0
  184.1270  176.4800  137.7430 C   0  0  2  0  0  3  0  0  0  0  0  0
  186.4440  175.8590  137.3900 C   0  0  2  0  0  3  0  0  0  0  0  0
  183.0800  176.6970  138.8400 C   0  0  1  0  0  3  0  0  0  0  0  0
  188.0900  177.8860  137.0390 C   0  0  0  0  0  2  0  0  0  0  0  0
  185.5130  174.9710  136.5580 C   0  0  1  0  0  3  0  0  0  0  0  0
  187.3910  173.5040  135.6840 C   0  0  0  0  0  2  0  0  0  0  0  0
  185.0630  179.1120  139.0200 C   0  0  0  0  0  2  0  0  0  0  0  0
  187.3280  178.4750  138.2210 C   0  0  0  0  0  2  0  0  0  0  0  0
  186.0490  173.5520  136.4140 C   0  0  0  0  0  2  0  0  0  0  0  0
  181.2770  176.1440  137.4740 C   0  0  0  0  0  2  0  0  0  0  0  0
  185.8420  178.2760  138.0150 C   0  0  1  0  0  3  0  0  0  0  0  0
  184.1780  175.0290  137.2740 C   0  0  2  0  0  3  0  0  0  0  0  0
  187.2590  176.5780  135.1350 N   0  0  0  0  0  2  0  0  0  0  0  0
  182.6770  178.1650  139.1000 C   0  0  2  0  0  3  0  0  0  0  0  0
  187.3510  174.2430  134.3500 C   0  0  0  0  0  2  0  0  0  0  0  0
  182.0540  175.6990  136.2080 C   0  0  1  0  0  3  0  0  0  0  0  0
  183.0530  174.6170  136.4040 N   0  0  0  0  0  0  0  0  0  0  0  0
  183.6140  179.2600  138.5630 C   0  0  0  0  0  2  0  0  0  0  0  0
  180.9550  178.5230  140.8750 C   0  0  0  0  0  3  0  0  0  0  0  0
  182.3040  178.3920  140.5310 C   0  0  0  0  0  0  0  0  0  0  0  0
  183.2870  178.4820  141.5290 C   0  0  0  0  0  3  0  0  0  0  0  0
  184.1450  178.8090  144.1000 Cl  0  0  0  0  0  0  0  0  0  0  0  0
  181.5670  178.8250  143.1980 C   0  0  0  0  0  3  0  0  0  0  0  0
  182.9170  178.6970  142.8600 C   0  0  0  0  0  0  0  0  0  0  0  0
  180.5860  178.7380  142.2060 C   0  0  0  0  0  3  0  0  0  0  0  0
  179.9830  174.8130  135.3820 O   0  0  0  0  0  1  0  0  0  0  0  0
  181.1430  175.4870  134.9980 C   0  0  1  0  0  3  0  0  0  0  0  0
  180.8110  176.7020  134.3950 O   0  0  0  0  0  0  0  0  0  0  0  0
  182.0050  177.4240  134.3650 C   0  0  0  0  0  1  0  0  0  0  0  0
  182.4070  173.4590  137.0310 C   0  0  0  0  0  2  0  0  0  0  0  0
  182.5030  172.1970  136.1750 C   0  0  2  0  0  3  0  0  0  0  0  0
  183.2570  171.1030  136.8980 C   0  0  0  0  0  1  0  0  0  0  0  0
  183.0970  172.4550  134.9380 O   0  0  0  0  0  1  0  0  0  0  0  0
  1 17  1  0  0  0  0
  3  7  1  0  0  0  0
  4  8  1  0  0  0  0
  4  6  1  0  0  0  0
  5  2  1  0  0  0  0
  5  7  1  0  0  0  0
  6  2  1  0  0  0  0
  7 18  1  0  0  0  0
  8 12  1  0  0  0  0
  9 16  1  0  0  0  0
  9  6  1  0  0  0  0
 10 13  1  0  0  0  0
 13  9  1  0  0  0  0
 14  3  1  0  0  0  0
 15  2  1  0  0  0  0
 15 12  1  0  0  0  0
 15 11  1  0  0  0  0
 16  5  1  0  0  0  0
 17  4  1  0  0  0  0
 18 24  1  0  0  0  0
 19  1  1  0  0  0  0
 19 10  1  0  0  0  0
 20 21  1  0  0  0  0
 20 14  1  0  0  0  0
 21 34  1  0  0  0  0
 21 16  1  0  0  0  0
 22 11  1  0  0  0  0
 22 18  1  0  0  0  0
 23 29  1  0  0  0  0
 24 23  2  0  0  0  0
 24 25  1  0  0  0  0
 25 28  2  0  0  0  0
 28 27  1  0  0  0  0
 28 26  1  0  0  0  0
 29 27  2  0  0  0  0
 31 30  1  0  0  0  0
 31 20  1  0  0  0  0
 32 31  1  0  0  0  0
 33 32  1  0  0  0  0
 35 36  1  0  0  0  0
 35 34  1  0  0  0  0
 37 35  1  0  0  0  0
M  END
>  <MODEL>
4

>  <REMARK>
 VINA RESULT:      -4.8      4.498      7.426
  Name = 
  5 active torsions:
  status: ('A' for Active; 'I' for Inactive)
    1  A    between atoms: C_1  and  C_5
    2  A    between atoms: C_1  and  N_36
    3  A    between atoms: C_6  and  C_31
    4  A    between atoms: O_11  and  C_26
    5  A    between atoms: C_26  and  C_33
                            x       y       z     vdW  Elec       q    Type
                         _______ _______ _______ _____ _____    ______ ____

>  <TORSDO>
F 5

$$$$
=
 OpenBabel10272414523D

 37 42  0  0  1  0  0  0  0  0999 V2000
  184.4830  179.8870  144.8450 C   0  0  0  0  0  2  0  0  0  0  0  0
  187.0270  177.5400  141.6790 C   0  0  1  0  0  3  0  0  0  0  0  0
  190.5840  176.5240  142.1970 O   0  0  0  0  0  0  0  0  0  0  0  0
  184.9860  178.7360  142.8520 C   0  0  2  0  0  3  0  0  0  0  0  0
  188.4290  177.6940  142.2240 C   0  0  2  0  0  3  0  0  0  0  0  0
  186.1020  177.6550  142.9030 C   0  0  2  0  0  3  0  0  0  0  0  0
  189.4720  176.9190  141.4130 C   0  0  1  0  0  3  0  0  0  0  0  0
  184.5020  179.1680  141.4560 C   0  0  0  0  0  2  0  0  0  0  0  0
  187.0190  177.7810  144.1230 C   0  0  1  0  0  3  0  0  0  0  0  0
  185.1160  177.6520  145.7980 C   0  0  0  0  0  2  0  0  0  0  0  0
  187.5400  178.2410  139.3350 C   0  0  0  0  0  2  0  0  0  0  0  0
  185.2680  178.5500  140.2920 C   0  0  0  0  0  2  0  0  0  0  0  0
  186.4540  177.0680  145.3450 C   0  0  0  0  0  2  0  0  0  0  0  0
  191.2730  177.6590  142.6920 C   0  0  0  0  0  2  0  0  0  0  0  0
  186.7510  178.5710  140.5930 C   0  0  1  0  0  3  0  0  0  0  0  0
  188.3490  177.2140  143.6700 C   0  0  2  0  0  3  0  0  0  0  0  0
  185.3190  179.9120  143.6490 N   0  0  0  0  0  2  0  0  0  0  0  0
  189.9040  177.5710  140.0810 C   0  0  2  0  0  3  0  0  0  0  0  0
  185.1810  179.1630  145.9940 C   0  0  0  0  0  2  0  0  0  0  0  0
  190.4950  178.4300  143.7900 C   0  0  1  0  0  3  0  0  0  0  0  0
  189.4720  177.6500  144.5320 N   0  0  0  0  0  0  0  0  0  0  0  0
  188.9950  178.6690  139.5060 C   0  0  0  0  0  2  0  0  0  0  0  0
  189.2630  175.9450  138.2960 C   0  0  0  0  0  3  0  0  0  0  0  0
  190.2710  176.5460  139.0550 C   0  0  0  0  0  0  0  0  0  0  0  0
  191.6090  176.1760  138.8500 C   0  0  0  0  0  3  0  0  0  0  0  0
  193.6000  174.7550  137.6360 Cl  0  0  0  0  0  0  0  0  0  0  0  0
  190.9190  174.6170  137.1310 C   0  0  0  0  0  3  0  0  0  0  0  0
  191.9310  175.2130  137.8880 C   0  0  0  0  0  0  0  0  0  0  0  0
  189.5850  174.9830  137.3340 C   0  0  0  0  0  3  0  0  0  0  0  0
  192.7440  178.9140  144.4700 O   0  0  0  0  0  1  0  0  0  0  0  0
  191.4100  179.2620  144.6890 C   0  0  1  0  0  3  0  0  0  0  0  0
  191.2320  180.6290  144.4660 O   0  0  0  0  0  0  0  0  0  0  0  0
  190.4040  180.7030  143.3460 C   0  0  0  0  0  1  0  0  0  0  0  0
  190.0880  176.4470  145.1020 C   0  0  0  0  0  2  0  0  0  0  0  0
  190.2800  176.5450  146.6150 C   0  0  2  0  0  3  0  0  0  0  0  0
  189.3570  177.5820  147.2150 C   0  0  0  0  0  1  0  0  0  0  0  0
  191.6060  176.8280  146.9510 O   0  0  0  0  0  1  0  0  0  0  0  0
  1 19  1  0  0  0  0
  2  5  1  0  0  0  0
  2  6  1  0  0  0  0
  3 14  1  0  0  0  0
  4  6  1  0  0  0  0
  4 17  1  0  0  0  0
  5 16  1  0  0  0  0
  6  9  1  0  0  0  0
  7  3  1  0  0  0  0
  7  5  1  0  0  0  0
  8  4  1  0  0  0  0
  9 13  1  0  0  0  0
 10 19  1  0  0  0  0
 11 22  1  0  0  0  0
 11 15  1  0  0  0  0
 12 15  1  0  0  0  0
 12  8  1  0  0  0  0
 13 10  1  0  0  0  0
 14 20  1  0  0  0  0
 15  2  1  0  0  0  0
 16  9  1  0  0  0  0
 16 21  1  0  0  0  0
 17  1  1  0  0  0  0
 18  7  1  0  0  0  0
 20 21  1  0  0  0  0
 20 31  1  0  0  0  0
 21 34  1  0  0  0  0
 22 18  1  0  0  0  0
 23 24  1  0  0  0  0
 24 18  1  0  0  0  0
 25 24  2  0  0  0  0
 26 28  1  0  0  0  0
 27 29  1  0  0  0  0
 27 28  2  0  0  0  0
 28 25  1  0  0  0  0
 29 23  2  0  0  0  0
 30 31  1  0  0  0  0
 32 31  1  0  0  0  0
 33 32  1  0  0  0  0
 34 35  1  0  0  0  0
 35 37  1  0  0  0  0
 35 36  1  0  0  0  0
M  END
>  <MODEL>
5

>  <REMARK>
 VINA RESULT:      -4.1      3.133      6.716
  Name = 
  5 active torsions:
  status: ('A' for Active; 'I' for Inactive)
    1  A    between atoms: C_1  and  C_5
    2  A    between atoms: C_1  and  N_36
    3  A    between atoms: C_6  and  C_31
    4  A    between atoms: O_11  and  C_26
    5  A    between atoms: C_26  and  C_33
                            x       y       z     vdW  Elec       q    Type
                         _______ _______ _______ _____ _____    ______ ____

>  <TORSDO>
F 5

$$$$
=
 OpenBabel10272414523D

 37 42  0  0  1  0  0  0  0  0999 V2000
  184.4730  179.8870  144.8420 C   0  0  0  0  0  2  0  0  0  0  0  0
  187.0150  177.5450  141.6710 C   0  0  1  0  0  3  0  0  0  0  0  0
  190.5740  176.5300  142.1860 O   0  0  0  0  0  0  0  0  0  0  0  0
  184.9750  178.7390  142.8470 C   0  0  2  0  0  3  0  0  0  0  0  0
  188.4170  177.6990  142.2150 C   0  0  2  0  0  3  0  0  0  0  0  0
  186.0910  177.6580  142.8960 C   0  0  2  0  0  3  0  0  0  0  0  0
  189.4600  176.9250  141.4030 C   0  0  1  0  0  3  0  0  0  0  0  0
  184.4890  179.1720  141.4520 C   0  0  0  0  0  2  0  0  0  0  0  0
  187.0090  177.7840  144.1160 C   0  0  1  0  0  3  0  0  0  0  0  0
  185.1070  177.6520  145.7920 C   0  0  0  0  0  2  0  0  0  0  0  0
  187.5260  178.2480  139.3280 C   0  0  0  0  0  2  0  0  0  0  0  0
  185.2550  178.5550  140.2870 C   0  0  0  0  0  2  0  0  0  0  0  0
  186.4450  177.0690  145.3370 C   0  0  0  0  0  2  0  0  0  0  0  0
  191.2620  177.6650  142.6800 C   0  0  0  0  0  2  0  0  0  0  0  0
  186.7380  178.5760  140.5870 C   0  0  1  0  0  3  0  0  0  0  0  0
  188.3390  177.2180  143.6610 C   0  0  2  0  0  3  0  0  0  0  0  0
  185.3070  179.9140  143.6450 N   0  0  0  0  0  2  0  0  0  0  0  0
  189.8910  177.5790  140.0710 C   0  0  2  0  0  3  0  0  0  0  0  0
  185.1720  179.1630  145.9890 C   0  0  0  0  0  2  0  0  0  0  0  0
  190.4840  178.4350  143.7800 C   0  0  1  0  0  3  0  0  0  0  0  0
  189.4630  177.6540  144.5220 N   0  0  0  0  0  0  0  0  0  0  0  0
  188.9800  178.6770  139.4970 C   0  0  0  0  0  2  0  0  0  0  0  0
  191.6070  176.2630  138.8190 C   0  0  0  0  0  3  0  0  0  0  0  0
  190.2580  176.5540  139.0440 C   0  0  0  0  0  0  0  0  0  0  0  0
  189.2710  175.8890  138.3020 C   0  0  0  0  0  3  0  0  0  0  0  0
  188.4010  174.1090  136.4230 Cl  0  0  0  0  0  0  0  0  0  0  0  0
  190.9850  174.6480  137.1260 C   0  0  0  0  0  3  0  0  0  0  0  0
  189.6350  174.9360  137.3460 C   0  0  0  0  0  0  0  0  0  0  0  0
  191.9710  175.3110  137.8630 C   0  0  0  0  0  3  0  0  0  0  0  0
  192.7330  178.9090  144.4710 O   0  0  0  0  0  1  0  0  0  0  0  0
  191.4000  179.2670  144.6790 C   0  0  1  0  0  3  0  0  0  0  0  0
  191.2320  180.6340  144.4460 O   0  0  0  0  0  0  0  0  0  0  0  0
  190.3770  180.7060  143.3460 C   0  0  0  0  0  1  0  0  0  0  0  0
  190.0800  176.4510  145.0910 C   0  0  0  0  0  2  0  0  0  0  0  0
  190.2650  176.5440  146.6050 C   0  0  2  0  0  3  0  0  0  0  0  0
  189.3520  177.5920  147.2020 C   0  0  0  0  0  1  0  0  0  0  0  0
  191.5920  176.8110  146.9480 O   0  0  0  0  0  1  0  0  0  0  0  0
  1 19  1  0  0  0  0
  2  5  1  0  0  0  0
  2  6  1  0  0  0  0
  3 14  1  0  0  0  0
  4  6  1  0  0  0  0
  4 17  1  0  0  0  0
  5 16  1  0  0  0  0
  6  9  1  0  0  0  0
  7  3  1  0  0  0  0
  7  5  1  0  0  0  0
  8  4  1  0  0  0  0
  9 13  1  0  0  0  0
 10 19  1  0  0  0  0
 11 22  1  0  0  0  0
 11 15  1  0  0  0  0
 12 15  1  0  0  0  0
 12  8  1  0  0  0  0
 13 10  1  0  0  0  0
 14 20  1  0  0  0  0
 15  2  1  0  0  0  0
 16  9  1  0  0  0  0
 16 21  1  0  0  0  0
 17  1  1  0  0  0  0
 18  7  1  0  0  0  0
 20 21  1  0  0  0  0
 20 31  1  0  0  0  0
 21 34  1  0  0  0  0
 22 18  1  0  0  0  0
 23 24  1  0  0  0  0
 24 18  1  0  0  0  0
 25 24  2  0  0  0  0
 26 28  1  0  0  0  0
 27 28  2  0  0  0  0
 27 29  1  0  0  0  0
 28 25  1  0  0  0  0
 29 23  2  0  0  0  0
 30 31  1  0  0  0  0
 32 31  1  0  0  0  0
 33 32  1  0  0  0  0
 34 35  1  0  0  0  0
 35 37  1  0  0  0  0
 35 36  1  0  0  0  0
M  END
>  <MODEL>
6

>  <REMARK>
 VINA RESULT:      -4.1      3.284      6.784
  Name = 
  5 active torsions:
  status: ('A' for Active; 'I' for Inactive)
    1  A    between atoms: C_1  and  C_5
    2  A    between atoms: C_1  and  N_36
    3  A    between atoms: C_6  and  C_31
    4  A    between atoms: O_11  and  C_26
    5  A    between atoms: C_26  and  C_33
                            x       y       z     vdW  Elec       q    Type
                         _______ _______ _______ _____ _____    ______ ____

>  <TORSDO>
F 5

$$$$
=
 OpenBabel10272414523D

 37 42  0  0  1  0  0  0  0  0999 V2000
  182.7700  178.7410  141.6650 C   0  0  0  0  0  2  0  0  0  0  0  0
  186.2860  178.1820  138.6110 C   0  0  1  0  0  3  0  0  0  0  0  0
  185.9830  176.2950  135.4010 O   0  0  0  0  0  0  0  0  0  0  0  0
  184.9170  178.9770  140.7240 C   0  0  2  0  0  3  0  0  0  0  0  0
  185.7490  177.0950  137.7090 C   0  0  2  0  0  3  0  0  0  0  0  0
  185.0420  178.8890  139.1770 C   0  0  2  0  0  3  0  0  0  0  0  0
  186.6820  176.7810  136.5340 C   0  0  1  0  0  3  0  0  0  0  0  0
  186.2270  178.9240  141.5310 C   0  0  0  0  0  2  0  0  0  0  0  0
  183.8320  178.2330  138.5030 C   0  0  1  0  0  3  0  0  0  0  0  0
  182.1600  179.8610  139.5020 C   0  0  0  0  0  2  0  0  0  0  0  0
  188.5130  177.1350  139.0480 C   0  0  0  0  0  2  0  0  0  0  0  0
  187.4810  178.6780  140.7000 C   0  0  0  0  0  2  0  0  0  0  0  0
  182.7170  179.2320  138.2250 C   0  0  0  0  0  2  0  0  0  0  0  0
  185.3420  175.0680  135.7000 C   0  0  0  0  0  2  0  0  0  0  0  0
  187.2070  177.6000  139.6740 C   0  0  1  0  0  3  0  0  0  0  0  0
  184.3860  177.5990  137.2430 C   0  0  2  0  0  3  0  0  0  0  0  0
  183.9650  178.0090  141.2580 N   0  0  0  0  0  2  0  0  0  0  0  0
  187.9130  175.9110  136.8710 C   0  0  2  0  0  3  0  0  0  0  0  0
  181.7500  178.8120  140.5320 C   0  0  0  0  0  2  0  0  0  0  0  0
  184.1310  175.2140  136.6570 C   0  0  1  0  0  3  0  0  0  0  0  0
  183.4910  176.5530  136.6970 N   0  0  0  0  0  0  0  0  0  0  0  0
  188.3080  175.7920  138.3520 C   0  0  0  0  0  2  0  0  0  0  0  0
  189.0200  177.3690  135.1710 C   0  0  0  0  0  3  0  0  0  0  0  0
  189.0820  176.2440  135.9990 C   0  0  0  0  0  0  0  0  0  0  0  0
  190.2340  175.4430  135.9960 C   0  0  0  0  0  3  0  0  0  0  0  0
  192.7480  174.7670  135.1710 Cl  0  0  0  0  0  0  0  0  0  0  0  0
  191.2480  176.8960  134.3470 C   0  0  0  0  0  3  0  0  0  0  0  0
  191.3140  175.7700  135.1720 C   0  0  0  0  0  0  0  0  0  0  0  0
  190.1010  177.6960  134.3460 C   0  0  0  0  0  3  0  0  0  0  0  0
  183.7640  172.9430  135.9750 O   0  0  0  0  0  1  0  0  0  0  0  0
  183.1370  174.0570  136.5350 C   0  0  1  0  0  3  0  0  0  0  0  0
  182.5930  173.7240  137.7770 O   0  0  0  0  0  0  0  0  0  0  0  0
  181.2610  173.4060  137.5090 C   0  0  0  0  0  1  0  0  0  0  0  0
  183.1100  176.9580  135.3400 C   0  0  0  0  0  2  0  0  0  0  0  0
  181.6030  177.1500  135.1830 C   0  0  2  0  0  3  0  0  0  0  0  0
  181.2530  178.6130  135.0250 C   0  0  0  0  0  1  0  0  0  0  0  0
  180.8970  176.6000  136.2550 O   0  0  0  0  0  1  0  0  0  0  0  0
  2  6  1  0  0  0  0
  2 15  1  0  0  0  0
  3 14  1  0  0  0  0
  3  7  1  0  0  0  0
  4 17  1  0  0  0  0
  4  8  1  0  0  0  0
  5  2  1  0  0  0  0
  6  4  1  0  0  0  0
  7 18  1  0  0  0  0
  7  5  1  0  0  0  0
  9  6  1  0  0  0  0
 10 19  1  0  0  0  0
 11 15  1  0  0  0  0
 12  8  1  0  0  0  0
 13  9  1  0  0  0  0
 13 10  1  0  0  0  0
 14 20  1  0  0  0  0
 15 12  1  0  0  0  0
 16  5  1  0  0  0  0
 16  9  1  0  0  0  0
 17  1  1  0  0  0  0
 18 22  1  0  0  0  0
 19  1  1  0  0  0  0
 20 21  1  0  0  0  0
 21 16  1  0  0  0  0
 22 11  1  0  0  0  0
 23 24  1  0  0  0  0
 24 18  1  0  0  0  0
 25 24  2  0  0  0  0
 26 28  1  0  0  0  0
 27 28  2  0  0  0  0
 28 25  1  0  0  0  0
 29 27  1  0  0  0  0
 29 23  2  0  0  0  0
 30 31  1  0  0  0  0
 31 20  1  0  0  0  0
 31 32  1  0  0  0  0
 33 32  1  0  0  0  0
 34 21  1  0  0  0  0
 35 34  1  0  0  0  0
 35 37  1  0  0  0  0
 36 35  1  0  0  0  0
M  END
>  <MODEL>
7

>  <REMARK>
 VINA RESULT:      -3.9      3.466      5.791
  Name = 
  5 active torsions:
  status: ('A' for Active; 'I' for Inactive)
    1  A    between atoms: C_1  and  C_5
    2  A    between atoms: C_1  and  N_36
    3  A    between atoms: C_6  and  C_31
    4  A    between atoms: O_11  and  C_26
    5  A    between atoms: C_26  and  C_33
                            x       y       z     vdW  Elec       q    Type
                         _______ _______ _______ _____ _____    ______ ____

>  <TORSDO>
F 5

$$$$
=
 OpenBabel10272414523D

 37 42  0  0  1  0  0  0  0  0999 V2000
  185.3740  178.5100  141.3740 C   0  0  0  0  0  2  0  0  0  0  0  0
  188.8470  177.4400  138.4090 C   0  0  1  0  0  3  0  0  0  0  0  0
  188.4960  175.0530  135.5570 O   0  0  0  0  0  0  0  0  0  0  0  0
  187.5080  178.5770  140.3800 C   0  0  2  0  0  3  0  0  0  0  0  0
  188.2950  176.2210  137.7040 C   0  0  2  0  0  3  0  0  0  0  0  0
  187.6130  178.2360  138.8670 C   0  0  2  0  0  3  0  0  0  0  0  0
  189.2110  175.7140  136.5850 C   0  0  1  0  0  3  0  0  0  0  0  0
  188.8290  178.6510  141.1670 C   0  0  0  0  0  2  0  0  0  0  0  0
  186.3920  177.4840  138.3250 C   0  0  1  0  0  3  0  0  0  0  0  0
  184.7380  179.2620  139.0650 C   0  0  0  0  0  2  0  0  0  0  0  0
  191.0770  176.4670  138.9830 C   0  0  0  0  0  2  0  0  0  0  0  0
  190.0720  178.2650  140.3720 C   0  0  0  0  0  2  0  0  0  0  0  0
  185.2760  178.4290  137.9010 C   0  0  0  0  0  2  0  0  0  0  0  0
  187.8560  173.8940  136.0610 C   0  0  0  0  0  2  0  0  0  0  0  0
  189.7800  177.0350  139.5410 C   0  0  1  0  0  3  0  0  0  0  0  0
  186.9270  176.6490  137.1800 C   0  0  2  0  0  3  0  0  0  0  0  0
  186.5610  177.7140  141.0770 N   0  0  0  0  0  2  0  0  0  0  0  0
  190.4450  174.9060  137.0450 C   0  0  2  0  0  3  0  0  0  0  0  0
  184.3390  178.3990  140.2580 C   0  0  0  0  0  2  0  0  0  0  0  0
  186.6580  174.2010  136.9970 C   0  0  1  0  0  3  0  0  0  0  0  0
  186.0220  175.5320  136.8240 N   0  0  0  0  0  0  0  0  0  0  0  0
  190.8590  175.0290  138.5210 C   0  0  0  0  0  2  0  0  0  0  0  0
  191.6060  176.1630  135.2250 C   0  0  0  0  0  3  0  0  0  0  0  0
  191.6030  175.0850  136.1150 C   0  0  0  0  0  0  0  0  0  0  0  0
  192.6800  174.1860  136.1200 C   0  0  0  0  0  3  0  0  0  0  0  0
  195.0920  173.2460  135.2500 Cl  0  0  0  0  0  0  0  0  0  0  0  0
  193.7500  175.4510  134.3540 C   0  0  0  0  0  3  0  0  0  0  0  0
  193.7510  174.3700  135.2410 C   0  0  0  0  0  0  0  0  0  0  0  0
  192.6770  176.3480  134.3460 C   0  0  0  0  0  3  0  0  0  0  0  0
  184.5410  173.4270  137.8200 O   0  0  0  0  0  1  0  0  0  0  0  0
  185.6600  173.0450  137.0780 C   0  0  1  0  0  3  0  0  0  0  0  0
  185.2660  172.6260  135.8050 O   0  0  0  0  0  0  0  0  0  0  0  0
  183.9370  172.2290  135.9550 C   0  0  0  0  0  1  0  0  0  0  0  0
  185.6250  175.7100  135.4230 C   0  0  0  0  0  2  0  0  0  0  0  0
  184.1200  175.9150  135.2600 C   0  0  2  0  0  3  0  0  0  0  0  0
  183.8210  177.2120  134.5400 C   0  0  0  0  0  1  0  0  0  0  0  0
  183.4570  175.8840  136.4890 O   0  0  0  0  0  1  0  0  0  0  0  0
  2  6  1  0  0  0  0
  2 15  1  0  0  0  0
  3 14  1  0  0  0  0
  3  7  1  0  0  0  0
  4 17  1  0  0  0  0
  4  8  1  0  0  0  0
  5  2  1  0  0  0  0
  6  4  1  0  0  0  0
  7 18  1  0  0  0  0
  7  5  1  0  0  0  0
  9  6  1  0  0  0  0
 10 19  1  0  0  0  0
 11 15  1  0  0  0  0
 12  8  1  0  0  0  0
 13  9  1  0  0  0  0
 13 10  1  0  0  0  0
 14 20  1  0  0  0  0
 15 12  1  0  0  0  0
 16  5  1  0  0  0  0
 16  9  1  0  0  0  0
 17  1  1  0  0  0  0
 18 22  1  0  0  0  0
 19  1  1  0  0  0  0
 20 31  1  0  0  0  0
 21 20  1  0  0  0  0
 21 16  1  0  0  0  0
 22 11  1  0  0  0  0
 23 24  1  0  0  0  0
 24 25  2  0  0  0  0
 24 18  1  0  0  0  0
 27 28  2  0  0  0  0
 28 26  1  0  0  0  0
 28 25  1  0  0  0  0
 29 27  1  0  0  0  0
 29 23  2  0  0  0  0
 31 30  1  0  0  0  0
 32 33  1  0  0  0  0
 32 31  1  0  0  0  0
 34 21  1  0  0  0  0
 35 34  1  0  0  0  0
 35 37  1  0  0  0  0
 36 35  1  0  0  0  0
M  END
>  <MODEL>
8

>  <REMARK>
 VINA RESULT:      -3.9      3.517      5.879
  Name = 
  5 active torsions:
  status: ('A' for Active; 'I' for Inactive)
    1  A    between atoms: C_1  and  C_5
    2  A    between atoms: C_1  and  N_36
    3  A    between atoms: C_6  and  C_31
    4  A    between atoms: O_11  and  C_26
    5  A    between atoms: C_26  and  C_33
                            x       y       z     vdW  Elec       q    Type
                         _______ _______ _______ _____ _____    ______ ____

>  <TORSDO>
F 5

$$$$
=
 OpenBabel10272414523D

 37 42  0  0  1  0  0  0  0  0999 V2000
  188.3410  177.2100  142.1480 C   0  0  0  0  0  2  0  0  0  0  0  0
  191.7620  177.1660  138.9390 C   0  0  1  0  0  3  0  0  0  0  0  0
  191.2850  176.0900  135.3940 O   0  0  0  0  0  0  0  0  0  0  0  0
  190.4820  177.5310  141.2200 C   0  0  2  0  0  3  0  0  0  0  0  0
  191.1420  176.3490  137.8290 C   0  0  2  0  0  3  0  0  0  0  0  0
  190.5750  177.7940  139.6900 C   0  0  2  0  0  3  0  0  0  0  0  0
  192.0330  176.2600  136.5850 C   0  0  1  0  0  3  0  0  0  0  0  0
  191.7990  177.2180  141.9510 C   0  0  0  0  0  2  0  0  0  0  0  0
  189.3150  177.3830  138.9220 C   0  0  1  0  0  3  0  0  0  0  0  0
  187.7670  178.8310  140.3180 C   0  0  0  0  0  2  0  0  0  0  0  0
  193.9250  175.9190  139.0550 C   0  0  0  0  0  2  0  0  0  0  0  0
  193.0220  177.0970  141.0480 C   0  0  0  0  0  2  0  0  0  0  0  0
  188.2610  178.4820  138.9140 C   0  0  0  0  0  2  0  0  0  0  0  0
  190.5730  174.8660  135.4230 C   0  0  0  0  0  2  0  0  0  0  0  0
  192.6620  176.3020  139.8110 C   0  0  1  0  0  3  0  0  0  0  0  0
  189.8060  177.0250  137.5340 C   0  0  2  0  0  3  0  0  0  0  0  0
  189.4790  176.5230  141.5470 N   0  0  0  0  0  2  0  0  0  0  0  0
  193.2120  175.2660  136.6770 C   0  0  2  0  0  3  0  0  0  0  0  0
  187.3090  177.5990  141.0930 C   0  0  0  0  0  2  0  0  0  0  0  0
  189.3900  174.8570  136.4260 C   0  0  1  0  0  3  0  0  0  0  0  0
  188.8370  176.1870  136.7910 N   0  0  0  0  0  0  0  0  0  0  0  0
  193.6240  174.7870  138.0780 C   0  0  0  0  0  2  0  0  0  0  0  0
  195.1100  174.7870  135.1230 C   0  0  0  0  0  3  0  0  0  0  0  0
  194.3850  175.7230  135.8680 C   0  0  0  0  0  0  0  0  0  0  0  0
  194.7700  177.0720  135.8500 C   0  0  0  0  0  3  0  0  0  0  0  0
  196.3480  179.1610  135.0720 Cl  0  0  0  0  0  0  0  0  0  0  0  0
  196.5910  176.5380  134.3470 C   0  0  0  0  0  3  0  0  0  0  0  0
  195.8710  177.4770  135.0900 C   0  0  0  0  0  0  0  0  0  0  0  0
  196.2110  175.1930  134.3630 C   0  0  0  0  0  3  0  0  0  0  0  0
  188.7800  172.9900  135.0480 O   0  0  0  0  0  1  0  0  0  0  0  0
  188.3230  173.8200  136.0730 C   0  0  1  0  0  3  0  0  0  0  0  0
  187.9750  173.0530  137.1870 O   0  0  0  0  0  0  0  0  0  0  0  0
  186.5900  173.1830  137.2910 C   0  0  0  0  0  1  0  0  0  0  0  0
  188.4610  176.9140  135.5740 C   0  0  0  0  0  2  0  0  0  0  0  0
  187.1430  177.6730  135.7260 C   0  0  2  0  0  3  0  0  0  0  0  0
  186.1010  176.8220  136.4190 C   0  0  0  0  0  1  0  0  0  0  0  0
  186.6580  178.1190  134.4950 O   0  0  0  0  0  1  0  0  0  0  0  0
  2  6  1  0  0  0  0
  2 15  1  0  0  0  0
  3 14  1  0  0  0  0
  3  7  1  0  0  0  0
  4 17  1  0  0  0  0
  4  8  1  0  0  0  0
  5  2  1  0  0  0  0
  6  4  1  0  0  0  0
  7 18  1  0  0  0  0
  7  5  1  0  0  0  0
  9  6  1  0  0  0  0
 10 19  1  0  0  0  0
 11 15  1  0  0  0  0
 12  8  1  0  0  0  0
 13  9  1  0  0  0  0
 13 10  1  0  0  0  0
 14 20  1  0  0  0  0
 15 12  1  0  0  0  0
 16  5  1  0  0  0  0
 16  9  1  0  0  0  0
 17  1  1  0  0  0  0
 18 22  1  0  0  0  0
 19  1  1  0  0  0  0
 20 21  1  0  0  0  0
 21 16  1  0  0  0  0
 22 11  1  0  0  0  0
 23 24  1  0  0  0  0
 24 18  1  0  0  0  0
 25 24  2  0  0  0  0
 26 28  1  0  0  0  0
 27 29  1  0  0  0  0
 27 28  2  0  0  0  0
 28 25  1  0  0  0  0
 29 23  2  0  0  0  0
 30 31  1  0  0  0  0
 31 20  1  0  0  0  0
 31 32  1  0  0  0  0
 32 33  1  0  0  0  0
 34 35  1  0  0  0  0
 34 21  1  0  0  0  0
 35 36  1  0  0  0  0
 37 35  1  0  0  0  0
M  END
>  <MODEL>
9

>  <REMARK>
 VINA RESULT:      -3.8      4.554      6.863
  Name = 
  5 active torsions:
  status: ('A' for Active; 'I' for Inactive)
    1  A    between atoms: C_1  and  C_5
    2  A    between atoms: C_1  and  N_36
    3  A    between atoms: C_6  and  C_31
    4  A    between atoms: O_11  and  C_26
    5  A    between atoms: C_26  and  C_33
                            x       y       z     vdW  Elec       q    Type
                         _______ _______ _______ _____ _____    ______ ____

>  <TORSDO>
F 5

$$$$
