=
 OpenBabel10272401203D

 55 62  0  0  1  0  0  0  0  0999 V2000
  191.6440  177.2920  140.5520 O   0  0  0  0  0  0  0  0  0  0  0  0
  188.2800  175.0810  136.3110 O   0  0  0  0  0  0  0  0  0  0  0  0
  190.0990  172.7840  137.2890 C   0  0  0  0  0  1  0  0  0  0  0  0
  186.4400  177.1160  136.9560 C   0  0  0  0  0  2  0  0  0  0  0  0
  186.8100  178.1080  134.6710 C   0  0  0  0  0  2  0  0  0  0  0  0
  192.5820  174.7870  135.0780 S   0  0  0  0  0  0  0  0  0  0  0  0
  194.0650  173.9820  134.3460 C   0  0  0  0  0  2  0  0  0  0  0  0
  194.2010  174.4540  137.2800 C   0  0  1  0  0  3  0  0  0  0  0  0
  195.2600  173.6290  136.5410 C   0  0  0  0  0  2  0  0  0  0  0  0
  191.7630  176.0770  138.0450 O   0  0  0  0  0  0  0  0  0  0  0  0
  184.5950  177.6420  135.4820 O   0  0  0  0  0  0  0  0  0  0  0  0
  185.4200  177.5570  134.3470 C   0  0  0  0  0  2  0  0  0  0  0  0
  194.7330  172.9630  135.2680 C   0  0  0  0  0  2  0  0  0  0  0  0
  188.0190  177.9570  140.8200 C   0  0  0  0  0  3  0  0  0  0  0  0
  192.7700  174.1660  136.7920 C   0  0  1  0  0  3  0  0  0  0  0  0
  188.7770  178.6980  138.6410 C   0  0  0  0  0  0  0  0  0  0  0  0
  192.7980  177.5130  139.7400 C   0  0  1  0  0  3  0  0  0  0  0  0
  190.0820  178.3130  138.9710 C   0  0  0  0  0  3  0  0  0  0  0  0
  193.6690  175.3180  139.5140 C   0  0  2  0  0  3  0  0  0  0  0  0
  194.0250  177.3450  140.6290 C   0  0  0  0  0  2  0  0  0  0  0  0
  187.8960  175.9440  135.2720 C   0  0  0  0  0  2  0  0  0  0  0  0
  194.3440  174.2610  138.7260 N   0  0  0  0  0  2  0  0  0  0  0  0
  189.6720  175.0110  136.2300 C   0  0  0  0  0  2  0  0  0  0  0  0
  190.2360  174.2880  137.4450 C   0  0  2  0  0  3  0  0  0  0  0  0
  189.3210  177.5520  141.1360 C   0  0  0  0  0  3  0  0  0  0  0  0
  185.0730  176.6850  136.3980 C   0  0  2  0  0  3  0  0  0  0  0  0
  187.4520  177.3110  135.8120 C   0  0  2  0  0  0  0  0  0  0  0  0
  190.3580  177.7260  140.2150 C   0  0  0  0  0  0  0  0  0  0  0  0
  191.6820  174.6940  137.7640 C   0  0  2  0  0  3  0  0  0  0  0  0
  192.9730  176.4180  138.7080 C   0  0  1  0  0  3  0  0  0  0  0  0
  188.7100  178.0610  136.2660 C   0  0  0  0  0  2  0  0  0  0  0  0
  194.5580  175.9870  140.4770 N   0  0  0  0  0  0  0  0  0  0  0  0
  188.4700  179.1900  137.2670 C   0  0  0  0  0  2  0  0  0  0  0  0
  187.7480  178.5250  139.5720 C   0  0  0  0  0  3  0  0  0  0  0  0
  195.9050  176.1540  139.9320 C   0  0  0  0  0  2  0  0  0  0  0  0
  196.9270  175.3860  140.7690 C   0  0  0  0  0  2  0  0  0  0  0  0
  197.6770  173.8220  138.9250 C   0  0  0  0  0  2  0  0  0  0  0  0
  199.7430  175.2640  138.3730 C   0  0  0  0  0  2  0  0  0  0  0  0
  198.1050  174.8460  139.9540 C   0  0  1  0  0  3  0  0  0  0  0  0
  198.8200  175.9180  139.2850 N   0  0  0  0  0  2  0  0  0  0  0  0
  198.9120  173.8460  137.6000 S   0  0  0  0  0  0  0  0  0  0  0  0
  184.0090  176.3600  137.4910 C   0  0  2  0  0  0  0  0  0  0  0  0
  184.1400  174.9040  137.9940 C   0  0  0  0  0  3  0  0  0  0  0  0
  185.0010  174.1570  137.1890 O   0  0  0  0  0  1  0  0  0  0  0  0
  182.9070  174.2590  138.0920 O   0  0  0  0  0  1  0  0  0  0  0  0
  182.5690  176.4890  136.9430 C   0  0  0  0  0  2  0  0  0  0  0  0
  182.4160  175.8610  135.7020 O   0  0  0  0  0  1  0  0  0  0  0  0
  184.1870  177.1880  138.6330 O   0  0  0  0  0  0  0  0  0  0  0  0
  183.8290  177.9440  141.8540 O   0  0  0  0  0  0  0  0  0  0  0  0
  183.0070  177.2540  139.4030 C   0  0  2  0  0  3  0  0  0  0  0  0
  182.5520  178.5970  139.6120 C   0  0  2  0  0  0  0  0  0  0  0  0
  183.3280  177.9360  140.7420 C   0  0  0  0  0  0  0  0  0  0  0  0
  181.0840  178.7670  139.9500 C   0  0  0  0  0  1  0  0  0  0  0  0
  183.2960  179.7710  138.9850 C   0  0  0  0  0  2  0  0  0  0  0  0
  184.5470  179.9100  139.5850 O   0  0  0  0  0  1  0  0  0  0  0  0
  7  6  1  0  0  0  0
  7 13  1  0  0  0  0
  8  9  1  6  0  0  0
  8 22  1  0  0  0  0
 11 26  1  0  0  0  0
 12  5  1  0  0  0  0
 12 11  1  0  0  0  0
 13  9  1  0  0  0  0
 14 25  1  0  0  0  0
 15  6  1  6  0  0  0
 15  8  1  0  0  0  0
 15 29  1  0  0  0  0
 16 18  2  0  0  0  0
 16 34  1  0  0  0  0
 17  1  1  0  0  0  0
 17 20  1  1  0  0  0
 18 28  1  0  0  0  0
 19 22  1  6  0  0  0
 19 32  1  0  0  0  0
 21 27  1  0  0  0  0
 21  2  1  0  0  0  0
 23  2  1  0  0  0  0
 23 24  1  0  0  0  0
 24  3  1  6  0  0  0
 24 29  1  0  0  0  0
 26  4  1  0  0  0  0
 26 42  1  1  0  0  0
 27  5  1  6  0  0  0
 27 31  1  0  0  0  0
 27  4  1  0  0  0  0
 28  1  1  0  0  0  0
 28 25  2  0  0  0  0
 29 10  1  6  0  0  0
 30 10  1  1  0  0  0
 30 19  1  0  0  0  0
 30 17  1  0  0  0  0
 31 33  1  0  0  0  0
 32 20  1  0  0  0  0
 33 16  1  0  0  0  0
 34 14  2  0  0  0  0
 35 32  1  0  0  0  0
 35 36  1  0  0  0  0
 37 39  1  0  0  0  0
 38 40  1  0  0  0  0
 39 36  1  6  0  0  0
 40 39  1  0  0  0  0
 41 38  1  0  0  0  0
 41 37  1  0  0  0  0
 42 46  1  6  0  0  0
 42 43  1  0  0  0  0
 42 48  1  0  0  0  0
 43 45  1  0  0  0  0
 44 43  1  0  0  0  0
 47 46  1  0  0  0  0
 50 48  1  6  0  0  0
 50 51  1  0  0  0  0
 50 52  1  0  0  0  0
 51 53  1  1  0  0  0
 51 52  1  0  0  0  0
 52 49  2  0  0  0  0
 54 55  1  0  0  0  0
 54 51  1  0  0  0  0
M  END
>  <MODEL>
1

>  <REMARK>
 VINA RESULT:      -1.8      0.000      0.000
  Name = 
  9 active torsions:
  status: ('A' for Active; 'I' for Inactive)
    1  A    between atoms: C_1  and  C_53
    2  A    between atoms: C_6  and  C_53
    3  A    between atoms: C_11  and  C_29
    4  A    between atoms: C_12  and  O_14
    5  A    between atoms: C_13  and  C_48
    6  A    between atoms: C_13  and  N_52
    7  A    between atoms: O_14  and  C_53
    8  A    between atoms: C_32  and  C_48
    9  A    between atoms: C_42  and  C_53
                            x       y       z     vdW  Elec       q    Type
                         _______ _______ _______ _____ _____    ______ ____

>  <TORSDO>
F 9

$$$$
=
 OpenBabel10272401203D

 55 62  0  0  1  0  0  0  0  0999 V2000
  189.5330  177.9770  140.0980 O   0  0  0  0  0  0  0  0  0  0  0  0
  191.3670  176.1290  134.8620 O   0  0  0  0  0  0  0  0  0  0  0  0
  189.4950  178.5310  134.3490 C   0  0  0  0  0  1  0  0  0  0  0  0
  193.6130  175.0900  136.2150 C   0  0  0  0  0  2  0  0  0  0  0  0
  192.8640  172.7720  135.5760 C   0  0  0  0  0  2  0  0  0  0  0  0
  186.9060  175.7330  135.0800 S   0  0  0  0  0  0  0  0  0  0  0  0
  185.1790  175.8490  134.4540 C   0  0  0  0  0  2  0  0  0  0  0  0
  185.8370  177.6870  136.6990 C   0  0  1  0  0  3  0  0  0  0  0  0
  184.5120  177.7800  135.9340 C   0  0  0  0  0  2  0  0  0  0  0  0
  188.6160  176.9720  137.6630 O   0  0  0  0  0  0  0  0  0  0  0  0
  195.1040  173.5230  135.1330 O   0  0  0  0  0  0  0  0  0  0  0  0
  194.0270  172.8090  134.5820 C   0  0  0  0  0  2  0  0  0  0  0  0
  184.6000  177.2620  134.4990 C   0  0  0  0  0  2  0  0  0  0  0  0
  193.1730  177.4630  139.7230 C   0  0  0  0  0  3  0  0  0  0  0  0
  187.0410  177.4220  135.7780 C   0  0  1  0  0  3  0  0  0  0  0  0
  192.0390  175.4200  139.0820 C   0  0  0  0  0  0  0  0  0  0  0  0
  188.2680  177.3150  140.0650 C   0  0  1  0  0  3  0  0  0  0  0  0
  190.8080  176.0160  139.3840 C   0  0  0  0  0  3  0  0  0  0  0  0
  187.0260  178.6990  138.5910 C   0  0  2  0  0  3  0  0  0  0  0  0
  187.2820  178.1680  140.8560 C   0  0  0  0  0  2  0  0  0  0  0  0
  191.6220  174.7560  134.7120 C   0  0  0  0  0  2  0  0  0  0  0  0
  186.0200  178.8860  137.5210 N   0  0  0  0  0  2  0  0  0  0  0  0
  190.0050  176.2160  135.1530 C   0  0  0  0  0  2  0  0  0  0  0  0
  189.6440  177.6360  135.5660 C   0  0  2  0  0  3  0  0  0  0  0  0
  191.9390  178.0620  140.0000 C   0  0  0  0  0  3  0  0  0  0  0  0
  194.7150  174.8760  135.1640 C   0  0  2  0  0  3  0  0  0  0  0  0
  192.3980  174.1940  135.9110 C   0  0  2  0  0  0  0  0  0  0  0  0
  190.7520  177.3440  139.8320 C   0  0  0  0  0  0  0  0  0  0  0  0
  188.4030  177.6980  136.4690 C   0  0  2  0  0  3  0  0  0  0  0  0
  187.6740  177.3140  138.6720 C   0  0  1  0  0  3  0  0  0  0  0  0
  191.4250  174.1080  137.0940 C   0  0  0  0  0  2  0  0  0  0  0  0
  186.5170  179.0140  139.9350 N   0  0  0  0  0  0  0  0  0  0  0  0
  192.0780  174.0590  138.4730 C   0  0  0  0  0  2  0  0  0  0  0  0
  193.2220  176.1450  139.2600 C   0  0  0  0  0  3  0  0  0  0  0  0
  185.1230  178.5990  140.0880 C   0  0  0  0  0  2  0  0  0  0  0  0
  184.8830  178.0090  141.4770 C   0  0  0  0  0  2  0  0  0  0  0  0
  182.4800  178.6980  141.8750 C   0  0  0  0  0  2  0  0  0  0  0  0
  182.8890  179.1280  144.3850 C   0  0  0  0  0  2  0  0  0  0  0  0
  183.9160  178.8320  142.3320 C   0  0  1  0  0  3  0  0  0  0  0  0
  184.0020  178.4620  143.7340 N   0  0  0  0  0  2  0  0  0  0  0  0
  181.4270  179.0340  143.3100 S   0  0  0  0  0  0  0  0  0  0  0  0
  195.9460  175.8210  135.3260 C   0  0  2  0  0  0  0  0  0  0  0  0
  195.5790  177.2890  135.0120 C   0  0  0  0  0  3  0  0  0  0  0  0
  196.7180  178.0850  134.8700 O   0  0  0  0  0  1  0  0  0  0  0  0
  194.7310  177.8450  135.9700 O   0  0  0  0  0  1  0  0  0  0  0  0
  197.0830  175.4500  134.3470 C   0  0  0  0  0  2  0  0  0  0  0  0
  198.3460  175.7750  134.8550 O   0  0  0  0  0  1  0  0  0  0  0  0
  196.4170  175.8120  136.6680 O   0  0  0  0  0  0  0  0  0  0  0  0
  198.5990  175.5290  139.1640 O   0  0  0  0  0  0  0  0  0  0  0  0
  197.4560  174.8720  136.8370 C   0  0  2  0  0  3  0  0  0  0  0  0
  197.1160  173.8260  137.7560 C   0  0  2  0  0  0  0  0  0  0  0  0
  197.9780  174.9660  138.2790 C   0  0  0  0  0  0  0  0  0  0  0  0
  197.8970  172.5340  137.6250 C   0  0  0  0  0  1  0  0  0  0  0  0
  195.7340  173.7800  138.3990 C   0  0  0  0  0  2  0  0  0  0  0  0
  195.4130  172.4640  138.7320 O   0  0  0  0  0  1  0  0  0  0  0  0
  2 23  1  0  0  0  0
  5 27  1  0  0  0  0
  7 13  1  0  0  0  0
  7  6  1  0  0  0  0
  8  9  1  6  0  0  0
  8 22  1  0  0  0  0
 11 26  1  0  0  0  0
 12 11  1  0  0  0  0
 12  5  1  0  0  0  0
 13  9  1  0  0  0  0
 14 25  1  0  0  0  0
 15  6  1  1  0  0  0
 15 29  1  0  0  0  0
 15  8  1  0  0  0  0
 16 34  1  0  0  0  0
 16 18  2  0  0  0  0
 17  1  1  0  0  0  0
 17 20  1  1  0  0  0
 18 28  1  0  0  0  0
 19 22  1  6  0  0  0
 19 30  1  0  0  0  0
 19 32  1  0  0  0  0
 21  2  1  0  0  0  0
 23 24  1  0  0  0  0
 24  3  1  6  0  0  0
 24 29  1  0  0  0  0
 26 42  1  1  0  0  0
 26  4  1  0  0  0  0
 27 21  1  6  0  0  0
 27  4  1  0  0  0  0
 27 31  1  0  0  0  0
 28 25  2  0  0  0  0
 28  1  1  0  0  0  0
 29 10  1  1  0  0  0
 30 10  1  6  0  0  0
 30 17  1  0  0  0  0
 31 33  1  0  0  0  0
 32 35  1  0  0  0  0
 32 20  1  0  0  0  0
 33 16  1  0  0  0  0
 34 14  2  0  0  0  0
 35 36  1  0  0  0  0
 37 39  1  0  0  0  0
 37 41  1  0  0  0  0
 39 36  1  6  0  0  0
 39 40  1  0  0  0  0
 40 38  1  0  0  0  0
 41 38  1  0  0  0  0
 42 46  1  6  0  0  0
 42 48  1  0  0  0  0
 43 42  1  0  0  0  0
 43 45  1  0  0  0  0
 44 43  1  0  0  0  0
 46 47  1  0  0  0  0
 50 48  1  1  0  0  0
 50 51  1  0  0  0  0
 50 52  1  0  0  0  0
 51 53  1  6  0  0  0
 51 52  1  0  0  0  0
 51 54  1  0  0  0  0
 52 49  2  0  0  0  0
 54 55  1  0  0  0  0
M  END
>  <MODEL>
2

>  <REMARK>
 VINA RESULT:      -1.4      4.072     10.564
  Name = 
  9 active torsions:
  status: ('A' for Active; 'I' for Inactive)
    1  A    between atoms: C_1  and  C_53
    2  A    between atoms: C_6  and  C_53
    3  A    between atoms: C_11  and  C_29
    4  A    between atoms: C_12  and  O_14
    5  A    between atoms: C_13  and  C_48
    6  A    between atoms: C_13  and  N_52
    7  A    between atoms: O_14  and  C_53
    8  A    between atoms: C_32  and  C_48
    9  A    between atoms: C_42  and  C_53
                            x       y       z     vdW  Elec       q    Type
                         _______ _______ _______ _____ _____    ______ ____

>  <TORSDO>
F 9

$$$$
=
 OpenBabel10272401203D

 55 62  0  0  1  0  0  0  0  0999 V2000
  190.6610  177.6590  139.8360 O   0  0  0  0  0  0  0  0  0  0  0  0
  186.7700  174.7900  136.5460 O   0  0  0  0  0  0  0  0  0  0  0  0
  188.5810  172.6510  137.8460 C   0  0  0  0  0  1  0  0  0  0  0  0
  185.0980  177.0350  136.8820 C   0  0  0  0  0  2  0  0  0  0  0  0
  185.2650  177.4680  134.4060 C   0  0  0  0  0  2  0  0  0  0  0  0
  190.8980  173.9450  135.0120 S   0  0  0  0  0  0  0  0  0  0  0  0
  192.2580  172.9000  134.3460 C   0  0  0  0  0  2  0  0  0  0  0  0
  192.7270  174.0020  137.0690 C   0  0  1  0  0  3  0  0  0  0  0  0
  193.6640  172.9650  136.4400 C   0  0  0  0  0  2  0  0  0  0  0  0
  190.4570  175.9130  137.6710 O   0  0  0  0  0  0  0  0  0  0  0  0
  183.1310  177.3410  135.5070 O   0  0  0  0  0  0  0  0  0  0  0  0
  183.8250  176.9520  134.3490 C   0  0  0  0  0  2  0  0  0  0  0  0
  192.9760  172.0700  135.4090 C   0  0  0  0  0  2  0  0  0  0  0  0
  187.1170  178.6060  140.2860 C   0  0  0  0  0  3  0  0  0  0  0  0
  191.2410  173.7090  136.7960 C   0  0  1  0  0  3  0  0  0  0  0  0
  187.6690  178.7930  137.9340 C   0  0  0  0  0  0  0  0  0  0  0  0
  191.7290  177.6170  138.8890 C   0  0  1  0  0  3  0  0  0  0  0  0
  188.9840  178.4050  138.2180 C   0  0  0  0  0  3  0  0  0  0  0  0
  192.4750  175.3740  139.0880 C   0  0  2  0  0  3  0  0  0  0  0  0
  193.0360  177.5690  139.6730 C   0  0  0  0  0  2  0  0  0  0  0  0
  186.3140  175.4240  135.3790 C   0  0  0  0  0  2  0  0  0  0  0  0
  193.0160  174.1260  138.5010 N   0  0  0  0  0  2  0  0  0  0  0  0
  188.1400  174.6110  136.3520 C   0  0  0  0  0  2  0  0  0  0  0  0
  188.7990  174.1400  137.6410 C   0  0  2  0  0  3  0  0  0  0  0  0
  188.4260  178.1960  140.5610 C   0  0  0  0  0  3  0  0  0  0  0  0
  183.6620  176.5820  136.5680 C   0  0  2  0  0  3  0  0  0  0  0  0
  185.9900  176.9030  135.6330 C   0  0  2  0  0  0  0  0  0  0  0  0
  189.3660  178.0920  139.5310 C   0  0  0  0  0  0  0  0  0  0  0  0
  190.2870  174.5110  137.7220 C   0  0  2  0  0  3  0  0  0  0  0  0
  191.7450  176.3120  138.1220 C   0  0  1  0  0  3  0  0  0  0  0  0
  187.3210  177.6500  135.7840 C   0  0  0  0  0  2  0  0  0  0  0  0
  193.4900  176.1800  139.7840 N   0  0  0  0  0  0  0  0  0  0  0  0
  187.2390  178.9860  136.5190 C   0  0  0  0  0  2  0  0  0  0  0  0
  186.7390  178.8990  138.9730 C   0  0  0  0  0  3  0  0  0  0  0  0
  194.7770  176.1320  139.0910 C   0  0  0  0  0  2  0  0  0  0  0  0
  195.9170  175.8990  140.0810 C   0  0  0  0  0  2  0  0  0  0  0  0
  196.3680  173.9510  138.5290 C   0  0  0  0  0  2  0  0  0  0  0  0
  198.9120  174.3780  138.5310 C   0  0  0  0  0  2  0  0  0  0  0  0
  196.9230  174.8410  139.6200 C   0  0  1  0  0  3  0  0  0  0  0  0
  198.1550  175.4500  139.1520 N   0  0  0  0  0  2  0  0  0  0  0  0
  197.7780  173.3210  137.5830 S   0  0  0  0  0  0  0  0  0  0  0  0
  182.7080  176.5790  137.8020 C   0  0  2  0  0  0  0  0  0  0  0  0
  182.0950  177.9760  138.0480 C   0  0  0  0  0  3  0  0  0  0  0  0
  182.1300  178.3230  139.4000 O   0  0  0  0  0  1  0  0  0  0  0  0
  180.7890  178.0800  137.5680 O   0  0  0  0  0  1  0  0  0  0  0  0
  183.4580  176.2120  139.1030 C   0  0  0  0  0  2  0  0  0  0  0  0
  182.5850  175.9850  140.1720 O   0  0  0  0  0  1  0  0  0  0  0  0
  181.6110  175.7000  137.5910 O   0  0  0  0  0  0  0  0  0  0  0  0
  180.3530  172.6220  137.7250 O   0  0  0  0  0  0  0  0  0  0  0  0
  182.0120  174.5450  136.8850 C   0  0  2  0  0  3  0  0  0  0  0  0
  181.1550  174.2460  135.7750 C   0  0  2  0  0  0  0  0  0  0  0  0
  180.9370  173.4610  137.0610 C   0  0  0  0  0  0  0  0  0  0  0  0
  181.7500  173.3890  134.6760 C   0  0  0  0  0  1  0  0  0  0  0  0
  179.9870  175.1640  135.4310 C   0  0  0  0  0  2  0  0  0  0  0  0
  180.4140  176.1630  134.5570 O   0  0  0  0  0  1  0  0  0  0  0  0
  7  6  1  0  0  0  0
  7 13  1  0  0  0  0
  8  9  1  1  0  0  0
  8 22  1  0  0  0  0
 11 26  1  0  0  0  0
 12  5  1  0  0  0  0
 12 11  1  0  0  0  0
 13  9  1  0  0  0  0
 14 25  1  0  0  0  0
 15  6  1  6  0  0  0
 15  8  1  0  0  0  0
 15 29  1  0  0  0  0
 16 18  2  0  0  0  0
 16 34  1  0  0  0  0
 17 20  1  1  0  0  0
 17  1  1  0  0  0  0
 18 28  1  0  0  0  0
 19 22  1  6  0  0  0
 19 32  1  0  0  0  0
 20 32  1  0  0  0  0
 21 27  1  0  0  0  0
 21  2  1  0  0  0  0
 23  2  1  0  0  0  0
 23 24  1  0  0  0  0
 24 29  1  0  0  0  0
 24  3  1  6  0  0  0
 26  4  1  0  0  0  0
 26 42  1  1  0  0  0
 27  5  1  6  0  0  0
 27 31  1  0  0  0  0
 27  4  1  0  0  0  0
 28  1  1  0  0  0  0
 28 25  2  0  0  0  0
 29 10  1  6  0  0  0
 30 10  1  1  0  0  0
 30 17  1  0  0  0  0
 30 19  1  0  0  0  0
 31 33  1  0  0  0  0
 33 16  1  0  0  0  0
 34 14  2  0  0  0  0
 35 32  1  0  0  0  0
 35 36  1  0  0  0  0
 37 39  1  0  0  0  0
 38 40  1  0  0  0  0
 39 36  1  6  0  0  0
 40 39  1  0  0  0  0
 41 37  1  0  0  0  0
 41 38  1  0  0  0  0
 42 43  1  0  0  0  0
 42 46  1  1  0  0  0
 43 44  1  0  0  0  0
 45 43  1  0  0  0  0
 46 47  1  0  0  0  0
 48 42  1  0  0  0  0
 50 52  1  0  0  0  0
 50 48  1  1  0  0  0
 51 53  1  6  0  0  0
 51 50  1  0  0  0  0
 51 52  1  0  0  0  0
 52 49  2  0  0  0  0
 54 51  1  0  0  0  0
 55 54  1  0  0  0  0
M  END
>  <MODEL>
3

>  <REMARK>
 VINA RESULT:      -0.2      1.725      2.997
  Name = 
  9 active torsions:
  status: ('A' for Active; 'I' for Inactive)
    1  A    between atoms: C_1  and  C_53
    2  A    between atoms: C_6  and  C_53
    3  A    between atoms: C_11  and  C_29
    4  A    between atoms: C_12  and  O_14
    5  A    between atoms: C_13  and  C_48
    6  A    between atoms: C_13  and  N_52
    7  A    between atoms: O_14  and  C_53
    8  A    between atoms: C_32  and  C_48
    9  A    between atoms: C_42  and  C_53
                            x       y       z     vdW  Elec       q    Type
                         _______ _______ _______ _____ _____    ______ ____

>  <TORSDO>
F 9

$$$$
=
 OpenBabel10272401203D

 55 62  0  0  1  0  0  0  0  0999 V2000
  190.4410  177.6870  139.5650 O   0  0  0  0  0  0  0  0  0  0  0  0
  186.4080  174.6630  136.6040 O   0  0  0  0  0  0  0  0  0  0  0  0
  188.2390  172.5890  137.9770 C   0  0  0  0  0  1  0  0  0  0  0  0
  184.7730  176.9470  136.8490 C   0  0  0  0  0  2  0  0  0  0  0  0
  184.8580  177.2160  134.3460 C   0  0  0  0  0  2  0  0  0  0  0  0
  190.4710  173.6660  134.9880 S   0  0  0  0  0  0  0  0  0  0  0  0
  191.7950  172.5620  134.3460 C   0  0  0  0  0  2  0  0  0  0  0  0
  192.3710  173.8310  136.9740 C   0  0  1  0  0  3  0  0  0  0  0  0
  193.2730  172.7440  136.3830 C   0  0  0  0  0  2  0  0  0  0  0  0
  190.1440  175.8070  137.5270 O   0  0  0  0  0  0  0  0  0  0  0  0
  182.7630  177.1890  135.5250 O   0  0  0  0  0  0  0  0  0  0  0  0
  183.4120  176.7160  134.3720 C   0  0  0  0  0  2  0  0  0  0  0  0
  192.5410  171.7930  135.4360 C   0  0  0  0  0  2  0  0  0  0  0  0
  186.9270  178.7080  140.0730 C   0  0  0  0  0  3  0  0  0  0  0  0
  190.8730  173.5410  136.7720 C   0  0  1  0  0  3  0  0  0  0  0  0
  187.3980  178.7350  137.6960 C   0  0  0  0  0  0  0  0  0  0  0  0
  191.4760  177.5700  138.5880 C   0  0  1  0  0  3  0  0  0  0  0  0
  188.7180  178.3490  137.9600 C   0  0  0  0  0  3  0  0  0  0  0  0
  192.2040  175.3350  138.9060 C   0  0  2  0  0  3  0  0  0  0  0  0
  192.8080  177.5560  139.3280 C   0  0  0  0  0  2  0  0  0  0  0  0
  185.9190  175.2250  135.4140 C   0  0  0  0  0  2  0  0  0  0  0  0
  192.7100  174.0440  138.3840 N   0  0  0  0  0  2  0  0  0  0  0  0
  187.7680  174.4540  136.3750 C   0  0  0  0  0  2  0  0  0  0  0  0
  188.4660  174.0580  137.6690 C   0  0  2  0  0  3  0  0  0  0  0  0
  188.2400  178.2990  140.3300 C   0  0  0  0  0  3  0  0  0  0  0  0
  183.3220  176.4930  136.6140 C   0  0  2  0  0  3  0  0  0  0  0  0
  185.6200  176.7220  135.5810 C   0  0  2  0  0  0  0  0  0  0  0  0
  189.1410  178.1160  139.2770 C   0  0  0  0  0  0  0  0  0  0  0  0
  189.9600  174.4140  137.6740 C   0  0  2  0  0  3  0  0  0  0  0  0
  191.4510  176.2170  137.9070 C   0  0  1  0  0  3  0  0  0  0  0  0
  186.9630  177.4600  135.6380 C   0  0  0  0  0  2  0  0  0  0  0  0
  193.2510  176.1710  139.5140 N   0  0  0  0  0  0  0  0  0  0  0  0
  186.9210  178.8420  136.2870 C   0  0  0  0  0  2  0  0  0  0  0  0
  186.5060  178.9200  138.7570 C   0  0  0  0  0  3  0  0  0  0  0  0
  194.5130  176.0610  138.7820 C   0  0  0  0  0  2  0  0  0  0  0  0
  195.0550  174.6340  138.8500 C   0  0  0  0  0  2  0  0  0  0  0  0
  196.7290  173.0960  137.7370 C   0  0  0  0  0  2  0  0  0  0  0  0
  197.9620  175.0560  136.6010 C   0  0  0  0  0  2  0  0  0  0  0  0
  196.4650  174.4870  138.2720 C   0  0  1  0  0  3  0  0  0  0  0  0
  196.7080  175.4530  137.2160 N   0  0  0  0  0  2  0  0  0  0  0  0
  198.0130  173.2450  136.4680 S   0  0  0  0  0  0  0  0  0  0  0  0
  182.4120  176.5830  137.8770 C   0  0  2  0  0  0  0  0  0  0  0  0
  182.9190  175.6590  139.0080 C   0  0  0  0  0  3  0  0  0  0  0  0
  183.5160  174.5040  138.5010 O   0  0  0  0  0  1  0  0  0  0  0  0
  181.9110  175.3130  139.9080 O   0  0  0  0  0  1  0  0  0  0  0  0
  180.9670  176.1240  137.5740 C   0  0  0  0  0  2  0  0  0  0  0  0
  180.9300  175.0490  136.6790 O   0  0  0  0  0  1  0  0  0  0  0  0
  182.4180  177.9000  138.4130 O   0  0  0  0  0  0  0  0  0  0  0  0
  184.0450  180.7060  139.1540 O   0  0  0  0  0  0  0  0  0  0  0  0
  183.5090  178.0890  139.2870 C   0  0  2  0  0  3  0  0  0  0  0  0
  183.1190  178.6400  140.5520 C   0  0  2  0  0  0  0  0  0  0  0  0
  183.7000  179.5960  139.5200 C   0  0  0  0  0  0  0  0  0  0  0  0
  184.0680  178.4050  141.7100 C   0  0  0  0  0  1  0  0  0  0  0  0
  181.6510  178.9120  140.8570 C   0  0  0  0  0  2  0  0  0  0  0  0
  181.1490  177.9100  141.6880 O   0  0  0  0  0  1  0  0  0  0  0  0
  5 12  1  0  0  0  0
  7  6  1  0  0  0  0
  7 13  1  0  0  0  0
  8  9  1  1  0  0  0
  8 22  1  0  0  0  0
 11 26  1  0  0  0  0
 12 11  1  0  0  0  0
 13  9  1  0  0  0  0
 14 25  1  0  0  0  0
 15  6  1  6  0  0  0
 15  8  1  0  0  0  0
 15 29  1  0  0  0  0
 16 18  2  0  0  0  0
 16 34  1  0  0  0  0
 17 20  1  1  0  0  0
 17  1  1  0  0  0  0
 18 28  1  0  0  0  0
 19 22  1  6  0  0  0
 19 32  1  0  0  0  0
 20 32  1  0  0  0  0
 21 27  1  0  0  0  0
 21  2  1  0  0  0  0
 23  2  1  0  0  0  0
 23 24  1  0  0  0  0
 24 29  1  0  0  0  0
 24  3  1  6  0  0  0
 26  4  1  0  0  0  0
 26 42  1  1  0  0  0
 27  5  1  6  0  0  0
 27 31  1  0  0  0  0
 27  4  1  0  0  0  0
 28  1  1  0  0  0  0
 28 25  2  0  0  0  0
 29 10  1  6  0  0  0
 30 10  1  1  0  0  0
 30 17  1  0  0  0  0
 30 19  1  0  0  0  0
 31 33  1  0  0  0  0
 33 16  1  0  0  0  0
 34 14  2  0  0  0  0
 35 36  1  0  0  0  0
 35 32  1  0  0  0  0
 37 39  1  0  0  0  0
 38 40  1  0  0  0  0
 39 36  1  6  0  0  0
 40 39  1  0  0  0  0
 41 38  1  0  0  0  0
 41 37  1  0  0  0  0
 42 46  1  6  0  0  0
 42 48  1  0  0  0  0
 42 43  1  0  0  0  0
 43 45  1  0  0  0  0
 44 43  1  0  0  0  0
 47 46  1  0  0  0  0
 49 52  2  0  0  0  0
 50 48  1  6  0  0  0
 50 52  1  0  0  0  0
 50 51  1  0  0  0  0
 51 54  1  0  0  0  0
 51 53  1  1  0  0  0
 52 51  1  0  0  0  0
 54 55  1  0  0  0  0
M  END
>  <MODEL>
4

>  <REMARK>
 VINA RESULT:       0.1      1.587      2.115
  Name = 
  9 active torsions:
  status: ('A' for Active; 'I' for Inactive)
    1  A    between atoms: C_1  and  C_53
    2  A    between atoms: C_6  and  C_53
    3  A    between atoms: C_11  and  C_29
    4  A    between atoms: C_12  and  O_14
    5  A    between atoms: C_13  and  C_48
    6  A    between atoms: C_13  and  N_52
    7  A    between atoms: O_14  and  C_53
    8  A    between atoms: C_32  and  C_48
    9  A    between atoms: C_42  and  C_53
                            x       y       z     vdW  Elec       q    Type
                         _______ _______ _______ _____ _____    ______ ____

>  <TORSDO>
F 9

$$$$
=
 OpenBabel10272401203D

 55 62  0  0  1  0  0  0  0  0999 V2000
  185.3080  177.9500  140.2530 O   0  0  0  0  0  0  0  0  0  0  0  0
  190.6810  175.7670  141.0030 O   0  0  0  0  0  0  0  0  0  0  0  0
  188.9350  174.6250  143.2800 C   0  0  0  0  0  1  0  0  0  0  0  0
  191.0390  176.1770  138.2360 C   0  0  0  0  0  2  0  0  0  0  0  0
  192.8200  177.8770  138.7680 C   0  0  0  0  0  2  0  0  0  0  0  0
  189.5790  178.2230  144.5900 S   0  0  0  0  0  0  0  0  0  0  0  0
  189.4690  178.6150  146.3840 C   0  0  0  0  0  2  0  0  0  0  0  0
  186.8640  178.1260  145.0340 C   0  0  1  0  0  3  0  0  0  0  0  0
  186.9740  178.2790  146.5540 C   0  0  0  0  0  2  0  0  0  0  0  0
  187.4220  177.8560  142.0700 O   0  0  0  0  0  0  0  0  0  0  0  0
  193.2390  176.0720  137.2350 O   0  0  0  0  0  0  0  0  0  0  0  0
  193.8040  176.8050  138.2930 C   0  0  0  0  0  2  0  0  0  0  0  0
  188.3420  177.8800  147.1080 C   0  0  0  0  0  2  0  0  0  0  0  0
  186.9000  176.4530  137.2740 C   0  0  0  0  0  3  0  0  0  0  0  0
  188.0090  177.2930  144.4310 C   0  0  1  0  0  3  0  0  0  0  0  0
  188.3950  178.1290  138.1820 C   0  0  0  0  0  0  0  0  0  0  0  0
  185.4270  178.9960  141.2180 C   0  0  1  0  0  3  0  0  0  0  0  0
  187.4550  178.4190  139.1780 C   0  0  0  0  0  3  0  0  0  0  0  0
  185.1970  177.8120  143.2600 C   0  0  2  0  0  3  0  0  0  0  0  0
  184.0420  179.2370  141.8080 C   0  0  0  0  0  2  0  0  0  0  0  0
  191.7670  176.5680  140.6140 C   0  0  0  0  0  2  0  0  0  0  0  0
  185.5440  177.5930  144.6840 N   0  0  0  0  0  2  0  0  0  0  0  0
  190.0510  176.4810  142.0230 C   0  0  0  0  0  2  0  0  0  0  0  0
  188.7220  175.8290  142.3790 C   0  0  2  0  0  3  0  0  0  0  0  0
  185.9740  176.7290  138.2850 C   0  0  0  0  0  3  0  0  0  0  0  0
  192.2130  175.2860  137.7950 C   0  0  2  0  0  3  0  0  0  0  0  0
  191.5160  177.2320  139.2520 C   0  0  2  0  0  0  0  0  0  0  0  0
  186.2460  177.7110  139.2430 C   0  0  0  0  0  0  0  0  0  0  0  0
  187.7140  176.8180  142.9840 C   0  0  2  0  0  3  0  0  0  0  0  0
  186.2370  178.5590  142.4210 C   0  0  1  0  0  3  0  0  0  0  0  0
  190.4840  178.3480  139.4620 C   0  0  0  0  0  2  0  0  0  0  0  0
  183.9130  178.5050  143.0720 N   0  0  0  0  0  0  0  0  0  0  0  0
  189.7340  178.7870  138.2070 C   0  0  0  0  0  2  0  0  0  0  0  0
  188.1110  177.1490  137.2260 C   0  0  0  0  0  3  0  0  0  0  0  0
  183.7040  179.5280  144.0970 C   0  0  0  0  0  2  0  0  0  0  0  0
  182.4730  179.2020  144.9420 C   0  0  0  0  0  2  0  0  0  0  0  0
  181.0330  180.1890  143.1090 C   0  0  0  0  0  2  0  0  0  0  0  0
  179.9880  177.9030  142.5300 C   0  0  0  0  0  2  0  0  0  0  0  0
  181.1850  179.0770  144.1250 C   0  0  1  0  0  3  0  0  0  0  0  0
  181.1140  177.7990  143.4400 N   0  0  0  0  0  2  0  0  0  0  0  0
  179.9820  179.5560  141.7760 S   0  0  0  0  0  0  0  0  0  0  0  0
  191.8070  174.1170  136.8460 C   0  0  2  0  0  0  0  0  0  0  0  0
  191.9020  174.5340  135.3600 C   0  0  0  0  0  3  0  0  0  0  0  0
  190.8660  175.3990  135.0010 O   0  0  0  0  0  1  0  0  0  0  0  0
  191.9210  173.4370  134.4970 O   0  0  0  0  0  1  0  0  0  0  0  0
  190.3410  173.6820  137.0690 C   0  0  0  0  0  2  0  0  0  0  0  0
  189.9680  172.6260  136.2310 O   0  0  0  0  0  1  0  0  0  0  0  0
  192.6880  173.0110  137.0000 O   0  0  0  0  0  0  0  0  0  0  0  0
  195.2880  172.3380  138.9640 O   0  0  0  0  0  0  0  0  0  0  0  0
  194.0340  173.4080  136.8580 C   0  0  2  0  0  3  0  0  0  0  0  0
  194.8700  172.3660  136.3370 C   0  0  2  0  0  0  0  0  0  0  0  0
  194.8950  172.5990  137.8410 C   0  0  0  0  0  0  0  0  0  0  0  0
  196.1580  172.8060  135.6690 C   0  0  0  0  0  1  0  0  0  0  0  0
  194.2730  171.0170  135.9510 C   0  0  0  0  0  2  0  0  0  0  0  0
  194.0440  170.2590  137.0990 O   0  0  0  0  0  1  0  0  0  0  0  0
  1 17  1  0  0  0  0
  2 23  1  0  0  0  0
  5 27  1  0  0  0  0
  6  7  1  0  0  0  0
  7 13  1  0  0  0  0
  8  9  1  1  0  0  0
  9 13  1  0  0  0  0
 11 26  1  0  0  0  0
 11 12  1  0  0  0  0
 12  5  1  0  0  0  0
 14 25  1  0  0  0  0
 15  6  1  6  0  0  0
 15  8  1  0  0  0  0
 16 33  1  0  0  0  0
 16 18  2  0  0  0  0
 17 20  1  1  0  0  0
 17 30  1  0  0  0  0
 18 28  1  0  0  0  0
 19 22  1  1  0  0  0
 20 32  1  0  0  0  0
 21  2  1  0  0  0  0
 22  8  1  0  0  0  0
 23 24  1  0  0  0  0
 24 29  1  0  0  0  0
 24  3  1  1  0  0  0
 25 28  2  0  0  0  0
 26 42  1  6  0  0  0
 26  4  1  0  0  0  0
 27  4  1  6  0  0  0
 27 31  1  0  0  0  0
 27 21  1  0  0  0  0
 28  1  1  0  0  0  0
 29 10  1  6  0  0  0
 29 15  1  0  0  0  0
 30 10  1  6  0  0  0
 30 19  1  0  0  0  0
 32 19  1  0  0  0  0
 32 35  1  0  0  0  0
 33 31  1  0  0  0  0
 34 14  2  0  0  0  0
 34 16  1  0  0  0  0
 35 36  1  0  0  0  0
 37 39  1  0  0  0  0
 38 40  1  0  0  0  0
 39 36  1  6  0  0  0
 40 39  1  0  0  0  0
 41 38  1  0  0  0  0
 41 37  1  0  0  0  0
 42 48  1  0  0  0  0
 42 46  1  1  0  0  0
 43 42  1  0  0  0  0
 44 43  1  0  0  0  0
 45 43  1  0  0  0  0
 47 46  1  0  0  0  0
 50 48  1  1  0  0  0
 50 52  1  0  0  0  0
 51 53  1  6  0  0  0
 51 50  1  0  0  0  0
 51 52  1  0  0  0  0
 52 49  2  0  0  0  0
 54 51  1  0  0  0  0
 54 55  1  0  0  0  0
M  END
>  <MODEL>
5

>  <REMARK>
 VINA RESULT:       0.6      4.651     10.695
  Name = 
  9 active torsions:
  status: ('A' for Active; 'I' for Inactive)
    1  A    between atoms: C_1  and  C_53
    2  A    between atoms: C_6  and  C_53
    3  A    between atoms: C_11  and  C_29
    4  A    between atoms: C_12  and  O_14
    5  A    between atoms: C_13  and  C_48
    6  A    between atoms: C_13  and  N_52
    7  A    between atoms: O_14  and  C_53
    8  A    between atoms: C_32  and  C_48
    9  A    between atoms: C_42  and  C_53
                            x       y       z     vdW  Elec       q    Type
                         _______ _______ _______ _____ _____    ______ ____

>  <TORSDO>
F 9

$$$$
=
 OpenBabel10272401203D

 55 62  0  0  1  0  0  0  0  0999 V2000
  189.8630  177.1730  137.3060 O   0  0  0  0  0  0  0  0  0  0  0  0
  184.5290  177.9590  139.5680 O   0  0  0  0  0  0  0  0  0  0  0  0
  186.4060  179.9420  141.0130 C   0  0  0  0  0  1  0  0  0  0  0  0
  183.5410  176.9410  137.1320 C   0  0  0  0  0  2  0  0  0  0  0  0
  182.6110  174.9680  138.3900 C   0  0  0  0  0  2  0  0  0  0  0  0
  187.3200  176.6270  142.8160 S   0  0  0  0  0  0  0  0  0  0  0  0
  188.0560  176.6340  144.5020 C   0  0  0  0  0  2  0  0  0  0  0  0
  189.8770  177.5220  142.3240 C   0  0  1  0  0  3  0  0  0  0  0  0
  190.2600  177.6440  143.8030 C   0  0  0  0  0  2  0  0  0  0  0  0
  188.4390  177.0550  139.7010 O   0  0  0  0  0  0  0  0  0  0  0  0
  181.2300  176.2640  136.9100 O   0  0  0  0  0  0  0  0  0  0  0  0
  181.2490  175.6270  138.1630 C   0  0  0  0  0  2  0  0  0  0  0  0
  189.0540  177.7670  144.7350 C   0  0  0  0  0  2  0  0  0  0  0  0
  187.1020  177.5880  134.8870 C   0  0  0  0  0  3  0  0  0  0  0  0
  188.4070  177.8900  142.0540 C   0  0  1  0  0  3  0  0  0  0  0  0
  186.5310  175.7850  136.4020 C   0  0  0  0  0  0  0  0  0  0  0  0
  190.3590  176.3400  138.3550 C   0  0  1  0  0  3  0  0  0  0  0  0
  187.7580  175.9530  137.0550 C   0  0  0  0  0  3  0  0  0  0  0  0
  190.7820  177.9160  140.0770 C   0  0  2  0  0  3  0  0  0  0  0  0
  191.8570  176.5930  138.4750 C   0  0  0  0  0  2  0  0  0  0  0  0
  183.6840  176.8400  139.6430 C   0  0  0  0  0  2  0  0  0  0  0  0
  190.8060  178.3070  141.5060 N   0  0  0  0  0  2  0  0  0  0  0  0
  185.6150  177.6500  140.3890 C   0  0  0  0  0  2  0  0  0  0  0  0
  186.7170  178.6870  140.2180 C   0  0  2  0  0  3  0  0  0  0  0  0
  188.3160  177.7680  135.5580 C   0  0  0  0  0  3  0  0  0  0  0  0
  182.0730  177.3860  137.0170 C   0  0  2  0  0  3  0  0  0  0  0  0
  183.7300  176.0150  138.3480 C   0  0  2  0  0  0  0  0  0  0  0  0
  188.6510  176.9540  136.6440 C   0  0  0  0  0  0  0  0  0  0  0  0
  188.1120  178.1360  140.5510 C   0  0  2  0  0  3  0  0  0  0  0  0
  189.8320  176.7720  139.7080 C   0  0  1  0  0  3  0  0  0  0  0  0
  185.0720  175.2750  138.3160 C   0  0  0  0  0  2  0  0  0  0  0  0
  192.1070  177.5640  139.5450 N   0  0  0  0  0  0  0  0  0  0  0  0
  185.5310  174.8140  136.9340 C   0  0  0  0  0  2  0  0  0  0  0  0
  186.2080  176.6010  135.3130 C   0  0  0  0  0  3  0  0  0  0  0  0
  192.9090  176.8520  140.5400 C   0  0  0  0  0  2  0  0  0  0  0  0
  194.3940  176.9220  140.1880 C   0  0  0  0  0  2  0  0  0  0  0  0
  194.7130  174.8900  138.7120 C   0  0  0  0  0  2  0  0  0  0  0  0
  197.0030  174.3340  139.7600 C   0  0  0  0  0  2  0  0  0  0  0  0
  195.0520  175.5480  140.0320 C   0  0  1  0  0  3  0  0  0  0  0  0
  196.4950  175.6340  140.1600 N   0  0  0  0  0  2  0  0  0  0  0  0
  196.0590  173.7420  138.3250 S   0  0  0  0  0  0  0  0  0  0  0  0
  181.8040  178.4140  135.8750 C   0  0  2  0  0  0  0  0  0  0  0  0
  180.4530  178.1430  135.1750 C   0  0  0  0  0  3  0  0  0  0  0  0
  180.5170  177.0150  134.3530 O   0  0  0  0  0  1  0  0  0  0  0  0
  180.0040  179.2380  134.4370 O   0  0  0  0  0  1  0  0  0  0  0  0
  182.8780  178.3310  134.7670 C   0  0  0  0  0  2  0  0  0  0  0  0
  183.3630  177.0290  134.5960 O   0  0  0  0  0  1  0  0  0  0  0  0
  181.7200  179.7360  136.3930 O   0  0  0  0  0  0  0  0  0  0  0  0
  183.4780  180.8210  139.0010 O   0  0  0  0  0  0  0  0  0  0  0  0
  181.3770  179.7250  137.7620 C   0  0  2  0  0  3  0  0  0  0  0  0
  180.9360  181.0040  138.2350 C   0  0  2  0  0  0  0  0  0  0  0  0
  182.3750  180.6050  138.5290 C   0  0  0  0  0  0  0  0  0  0  0  0
  180.0770  181.0020  139.4840 C   0  0  0  0  0  1  0  0  0  0  0  0
  180.8280  182.1870  137.2790 C   0  0  0  0  0  2  0  0  0  0  0  0
  181.6860  183.2070  137.6920 O   0  0  0  0  0  1  0  0  0  0  0  0
  1 17  1  0  0  0  0
  2 21  1  0  0  0  0
  2 23  1  0  0  0  0
  6  7  1  0  0  0  0
  7 13  1  0  0  0  0
  8  9  1  1  0  0  0
  9 13  1  0  0  0  0
 11 26  1  0  0  0  0
 11 12  1  0  0  0  0
 12  5  1  0  0  0  0
 14 34  2  0  0  0  0
 14 25  1  0  0  0  0
 15  8  1  0  0  0  0
 15  6  1  6  0  0  0
 16 33  1  0  0  0  0
 16 18  2  0  0  0  0
 17 20  1  1  0  0  0
 17 30  1  0  0  0  0
 19 22  1  1  0  0  0
 20 32  1  0  0  0  0
 22  8  1  0  0  0  0
 24 23  1  0  0  0  0
 24 29  1  0  0  0  0
 24  3  1  1  0  0  0
 25 28  2  0  0  0  0
 26 42  1  6  0  0  0
 26  4  1  0  0  0  0
 27  4  1  6  0  0  0
 27  5  1  0  0  0  0
 27 21  1  0  0  0  0
 28 18  1  0  0  0  0
 28  1  1  0  0  0  0
 29 10  1  6  0  0  0
 29 15  1  0  0  0  0
 30 10  1  6  0  0  0
 30 19  1  0  0  0  0
 31 27  1  0  0  0  0
 32 19  1  0  0  0  0
 32 35  1  0  0  0  0
 33 31  1  0  0  0  0
 34 16  1  0  0  0  0
 36 35  1  0  0  0  0
 37 39  1  0  0  0  0
 38 40  1  0  0  0  0
 39 40  1  0  0  0  0
 39 36  1  6  0  0  0
 41 37  1  0  0  0  0
 41 38  1  0  0  0  0
 42 46  1  6  0  0  0
 42 48  1  0  0  0  0
 43 42  1  0  0  0  0
 44 43  1  0  0  0  0
 45 43  1  0  0  0  0
 47 46  1  0  0  0  0
 50 48  1  6  0  0  0
 50 51  1  0  0  0  0
 50 52  1  0  0  0  0
 51 52  1  0  0  0  0
 51 53  1  1  0  0  0
 52 49  2  0  0  0  0
 54 55  1  0  0  0  0
 54 51  1  0  0  0  0
M  END
>  <MODEL>
6

>  <REMARK>
 VINA RESULT:       0.6      2.588      5.418
  Name = 
  9 active torsions:
  status: ('A' for Active; 'I' for Inactive)
    1  A    between atoms: C_1  and  C_53
    2  A    between atoms: C_6  and  C_53
    3  A    between atoms: C_11  and  C_29
    4  A    between atoms: C_12  and  O_14
    5  A    between atoms: C_13  and  C_48
    6  A    between atoms: C_13  and  N_52
    7  A    between atoms: O_14  and  C_53
    8  A    between atoms: C_32  and  C_48
    9  A    between atoms: C_42  and  C_53
                            x       y       z     vdW  Elec       q    Type
                         _______ _______ _______ _____ _____    ______ ____

>  <TORSDO>
F 9

$$$$
=
 OpenBabel10272401203D

 55 62  0  0  1  0  0  0  0  0999 V2000
  185.3510  177.9270  140.0370 O   0  0  0  0  0  0  0  0  0  0  0  0
  190.7610  175.7880  140.6290 O   0  0  0  0  0  0  0  0  0  0  0  0
  189.0980  174.6520  142.9710 C   0  0  0  0  0  1  0  0  0  0  0  0
  191.0270  176.1780  137.8500 C   0  0  0  0  0  2  0  0  0  0  0  0
  192.8110  177.8950  138.3100 C   0  0  0  0  0  2  0  0  0  0  0  0
  189.7580  178.2650  144.2310 S   0  0  0  0  0  0  0  0  0  0  0  0
  189.7030  178.6700  146.0250 C   0  0  0  0  0  2  0  0  0  0  0  0
  187.0590  178.1520  144.7630 C   0  0  1  0  0  3  0  0  0  0  0  0
  187.2180  178.3180  146.2780 C   0  0  0  0  0  2  0  0  0  0  0  0
  187.5230  177.8630  141.7850 O   0  0  0  0  0  0  0  0  0  0  0  0
  193.1940  176.0810  136.7790 O   0  0  0  0  0  0  0  0  0  0  0  0
  193.7870  176.8270  137.8110 C   0  0  0  0  0  2  0  0  0  0  0  0
  188.6060  177.9330  146.7910 C   0  0  0  0  0  2  0  0  0  0  0  0
  186.8570  176.4170  137.0190 C   0  0  0  0  0  3  0  0  0  0  0  0
  188.1900  177.3220  144.1310 C   0  0  1  0  0  3  0  0  0  0  0  0
  188.3680  178.1110  137.8660 C   0  0  0  0  0  0  0  0  0  0  0  0
  185.4930  178.9820  140.9900 C   0  0  1  0  0  3  0  0  0  0  0  0
  187.4590  178.4020  138.8900 C   0  0  0  0  0  3  0  0  0  0  0  0
  185.3380  177.8120  143.0480 C   0  0  2  0  0  3  0  0  0  0  0  0
  184.1270  179.2170  141.6220 C   0  0  0  0  0  2  0  0  0  0  0  0
  191.8280  176.5940  140.1990 C   0  0  0  0  0  2  0  0  0  0  0  0
  185.7330  177.6070  144.4610 N   0  0  0  0  0  2  0  0  0  0  0  0
  190.1590  176.5050  141.6640 C   0  0  0  0  0  2  0  0  0  0  0  0
  188.8470  175.8470  142.0670 C   0  0  2  0  0  3  0  0  0  0  0  0
  185.9620  176.6950  138.0590 C   0  0  0  0  0  3  0  0  0  0  0  0
  192.1920  175.2930  137.3770 C   0  0  2  0  0  3  0  0  0  0  0  0
  191.5280  177.2450  138.8410 C   0  0  2  0  0  0  0  0  0  0  0  0
  186.2570  177.6870  138.9990 C   0  0  0  0  0  0  0  0  0  0  0  0
  187.8520  176.8330  142.6970 C   0  0  2  0  0  3  0  0  0  0  0  0
  186.3450  178.5590  142.1690 C   0  0  1  0  0  3  0  0  0  0  0  0
  190.4960  178.3550  139.0760 C   0  0  0  0  0  2  0  0  0  0  0  0
  184.0440  178.4950  142.8950 N   0  0  0  0  0  0  0  0  0  0  0  0
  189.7020  178.7790  137.8430 C   0  0  0  0  0  2  0  0  0  0  0  0
  188.0610  177.1210  136.9270 C   0  0  0  0  0  3  0  0  0  0  0  0
  183.8600  179.5240  143.9190 C   0  0  0  0  0  2  0  0  0  0  0  0
  182.6980  179.1660  144.8430 C   0  0  0  0  0  2  0  0  0  0  0  0
  181.2080  180.0590  143.0020 C   0  0  0  0  0  2  0  0  0  0  0  0
  179.9820  177.8060  142.7310 C   0  0  0  0  0  2  0  0  0  0  0  0
  181.3540  179.0490  144.1200 C   0  0  1  0  0  3  0  0  0  0  0  0
  181.1560  177.7160  143.5810 N   0  0  0  0  0  2  0  0  0  0  0  0
  180.0350  179.3690  141.8070 S   0  0  0  0  0  0  0  0  0  0  0  0
  191.7650  174.1130  136.4510 C   0  0  2  0  0  0  0  0  0  0  0  0
  192.6740  172.8790  136.6470 C   0  0  0  0  0  3  0  0  0  0  0  0
  193.8980  173.2280  137.2220 O   0  0  0  0  0  1  0  0  0  0  0  0
  192.8930  172.1810  135.4590 O   0  0  0  0  0  1  0  0  0  0  0  0
  191.8820  174.4890  134.9560 C   0  0  0  0  0  2  0  0  0  0  0  0
  191.7550  175.8670  134.7450 O   0  0  0  0  0  1  0  0  0  0  0  0
  190.4450  173.6810  136.7570 O   0  0  0  0  0  0  0  0  0  0  0  0
  189.5770  171.0400  134.9290 O   0  0  0  0  0  0  0  0  0  0  0  0
  189.6440  173.6290  135.5970 C   0  0  2  0  0  3  0  0  0  0  0  0
  188.3070  173.1840  135.8630 C   0  0  2  0  0  0  0  0  0  0  0  0
  189.2890  172.1620  135.3060 C   0  0  0  0  0  0  0  0  0  0  0  0
  187.2520  173.5740  134.8470 C   0  0  0  0  0  1  0  0  0  0  0  0
  187.8660  172.8720  137.2880 C   0  0  0  0  0  2  0  0  0  0  0  0
  186.4880  172.6540  137.3180 O   0  0  0  0  0  1  0  0  0  0  0  0
  1 17  1  0  0  0  0
  2 23  1  0  0  0  0
  5 27  1  0  0  0  0
  6  7  1  0  0  0  0
  7 13  1  0  0  0  0
  8  9  1  1  0  0  0
  9 13  1  0  0  0  0
 11 26  1  0  0  0  0
 11 12  1  0  0  0  0
 12  5  1  0  0  0  0
 14 25  1  0  0  0  0
 15  6  1  6  0  0  0
 15  8  1  0  0  0  0
 16 18  2  0  0  0  0
 17 20  1  1  0  0  0
 17 30  1  0  0  0  0
 18 28  1  0  0  0  0
 19 22  1  1  0  0  0
 20 32  1  0  0  0  0
 21  2  1  0  0  0  0
 22  8  1  0  0  0  0
 23 24  1  0  0  0  0
 24 29  1  0  0  0  0
 24  3  1  1  0  0  0
 25 28  2  0  0  0  0
 26 42  1  6  0  0  0
 26  4  1  0  0  0  0
 27  4  1  6  0  0  0
 27 31  1  0  0  0  0
 27 21  1  0  0  0  0
 28  1  1  0  0  0  0
 29 10  1  6  0  0  0
 29 15  1  0  0  0  0
 30 10  1  6  0  0  0
 30 19  1  0  0  0  0
 32 19  1  0  0  0  0
 32 35  1  0  0  0  0
 33 16  1  0  0  0  0
 33 31  1  0  0  0  0
 34 14  2  0  0  0  0
 34 16  1  0  0  0  0
 35 36  1  0  0  0  0
 37 39  1  0  0  0  0
 38 40  1  0  0  0  0
 39 36  1  6  0  0  0
 40 39  1  0  0  0  0
 41 38  1  0  0  0  0
 41 37  1  0  0  0  0
 42 46  1  6  0  0  0
 42 43  1  0  0  0  0
 42 48  1  0  0  0  0
 43 44  1  0  0  0  0
 45 43  1  0  0  0  0
 47 46  1  0  0  0  0
 49 52  2  0  0  0  0
 50 51  1  0  0  0  0
 50 48  1  1  0  0  0
 51 53  1  6  0  0  0
 51 54  1  0  0  0  0
 52 50  1  0  0  0  0
 52 51  1  0  0  0  0
 54 55  1  0  0  0  0
M  END
>  <MODEL>
7

>  <REMARK>
 VINA RESULT:       0.9      4.523      9.970
  Name = 
  9 active torsions:
  status: ('A' for Active; 'I' for Inactive)
    1  A    between atoms: C_1  and  C_53
    2  A    between atoms: C_6  and  C_53
    3  A    between atoms: C_11  and  C_29
    4  A    between atoms: C_12  and  O_14
    5  A    between atoms: C_13  and  C_48
    6  A    between atoms: C_13  and  N_52
    7  A    between atoms: O_14  and  C_53
    8  A    between atoms: C_32  and  C_48
    9  A    between atoms: C_42  and  C_53
                            x       y       z     vdW  Elec       q    Type
                         _______ _______ _______ _____ _____    ______ ____

>  <TORSDO>
F 9

$$$$
=
 OpenBabel10272401203D

 55 62  0  0  1  0  0  0  0  0999 V2000
  188.3420  178.2230  140.1290 O   0  0  0  0  0  0  0  0  0  0  0  0
  189.8690  176.1260  134.8890 O   0  0  0  0  0  0  0  0  0  0  0  0
  188.0500  178.5680  134.3700 C   0  0  0  0  0  1  0  0  0  0  0  0
  192.1420  175.0650  136.1750 C   0  0  0  0  0  2  0  0  0  0  0  0
  191.2930  172.7500  135.6600 C   0  0  0  0  0  2  0  0  0  0  0  0
  185.4120  175.8850  135.3260 S   0  0  0  0  0  0  0  0  0  0  0  0
  183.6630  176.0340  134.7760 C   0  0  0  0  0  2  0  0  0  0  0  0
  184.4820  177.9310  136.9160 C   0  0  1  0  0  3  0  0  0  0  0  0
  183.1270  178.0390  136.2110 C   0  0  0  0  0  2  0  0  0  0  0  0
  187.2810  177.1610  137.7790 O   0  0  0  0  0  0  0  0  0  0  0  0
  193.5320  173.4110  135.0860 O   0  0  0  0  0  0  0  0  0  0  0  0
  192.4080  172.7130  134.6130 C   0  0  0  0  0  2  0  0  0  0  0  0
  183.1310  177.4660  134.7930 C   0  0  0  0  0  2  0  0  0  0  0  0
  191.9420  177.5770  139.6070 C   0  0  0  0  0  3  0  0  0  0  0  0
  185.6330  177.5920  135.9520 C   0  0  1  0  0  3  0  0  0  0  0  0
  190.7170  175.5510  139.0970 C   0  0  0  0  0  0  0  0  0  0  0  0
  187.0570  177.6030  140.1790 C   0  0  1  0  0  3  0  0  0  0  0  0
  189.5200  176.1960  139.4320 C   0  0  0  0  0  3  0  0  0  0  0  0
  185.7910  178.9720  138.7130 C   0  0  2  0  0  3  0  0  0  0  0  0
  186.1360  178.5150  140.9810 C   0  0  0  0  0  2  0  0  0  0  0  0
  190.0730  174.7410  134.7790 C   0  0  0  0  0  2  0  0  0  0  0  0
  184.7410  179.1520  137.6830 N   0  0  0  0  0  2  0  0  0  0  0  0
  188.5250  176.2680  135.2380 C   0  0  0  0  0  2  0  0  0  0  0  0
  188.2280  177.7140  135.6130 C   0  0  2  0  0  3  0  0  0  0  0  0
  190.7420  178.2260  139.9180 C   0  0  0  0  0  3  0  0  0  0  0  0
  193.1870  174.7760  135.0840 C   0  0  2  0  0  3  0  0  0  0  0  0
  190.8870  174.1980  135.9620 C   0  0  2  0  0  0  0  0  0  0  0  0
  189.5260  177.5410  139.8310 C   0  0  0  0  0  0  0  0  0  0  0  0
  187.0340  177.8490  136.5690 C   0  0  2  0  0  3  0  0  0  0  0  0
  186.3980  177.5700  138.8160 C   0  0  1  0  0  3  0  0  0  0  0  0
  189.9690  174.1870  137.1910 C   0  0  0  0  0  2  0  0  0  0  0  0
  185.3550  179.3520  140.0660 N   0  0  0  0  0  0  0  0  0  0  0  0
  190.6850  174.1670  138.5400 C   0  0  0  0  0  2  0  0  0  0  0  0
  191.9280  176.2420  139.1920 C   0  0  0  0  0  3  0  0  0  0  0  0
  183.9570  178.9880  140.2980 C   0  0  0  0  0  2  0  0  0  0  0  0
  183.8110  178.2110  141.6050 C   0  0  0  0  0  2  0  0  0  0  0  0
  182.0980  178.8300  143.3630 C   0  0  0  0  0  2  0  0  0  0  0  0
  180.1310  178.5780  141.7130 C   0  0  0  0  0  2  0  0  0  0  0  0
  182.3610  178.0760  142.0770 C   0  0  1  0  0  3  0  0  0  0  0  0
  181.4290  178.5330  141.0620 N   0  0  0  0  0  2  0  0  0  0  0  0
  180.3320  179.2310  143.3960 S   0  0  0  0  0  0  0  0  0  0  0  0
  194.4530  175.6850  135.1530 C   0  0  2  0  0  0  0  0  0  0  0  0
  194.7600  176.1190  136.6050 C   0  0  0  0  0  3  0  0  0  0  0  0
  194.4640  175.1060  137.5190 O   0  0  0  0  0  1  0  0  0  0  0  0
  194.0910  177.2900  136.9660 O   0  0  0  0  0  1  0  0  0  0  0  0
  194.2610  176.9930  134.3530 C   0  0  0  0  0  2  0  0  0  0  0  0
  195.3300  177.8800  134.5240 O   0  0  0  0  0  1  0  0  0  0  0  0
  195.6040  174.9850  134.7010 O   0  0  0  0  0  0  0  0  0  0  0  0
  197.2350  172.0870  134.5610 O   0  0  0  0  0  0  0  0  0  0  0  0
  196.1960  174.2470  135.7490 C   0  0  2  0  0  3  0  0  0  0  0  0
  197.6200  174.4070  135.8070 C   0  0  2  0  0  0  0  0  0  0  0  0
  197.0820  173.1480  135.1410 C   0  0  0  0  0  0  0  0  0  0  0  0
  198.2770  174.1110  137.1400 C   0  0  0  0  0  1  0  0  0  0  0  0
  198.3330  175.3390  134.8340 C   0  0  0  0  0  2  0  0  0  0  0  0
  199.4950  174.7280  134.3620 O   0  0  0  0  0  1  0  0  0  0  0  0
  1 17  1  0  0  0  0
  2 23  1  0  0  0  0
  5 27  1  0  0  0  0
  7 13  1  0  0  0  0
  7  6  1  0  0  0  0
  8  9  1  6  0  0  0
  8 22  1  0  0  0  0
 12 11  1  0  0  0  0
 12  5  1  0  0  0  0
 13  9  1  0  0  0  0
 14 25  1  0  0  0  0
 15  6  1  1  0  0  0
 15 29  1  0  0  0  0
 15  8  1  0  0  0  0
 16 34  1  0  0  0  0
 16 18  2  0  0  0  0
 17 20  1  1  0  0  0
 18 28  1  0  0  0  0
 19 22  1  6  0  0  0
 19 30  1  0  0  0  0
 19 32  1  0  0  0  0
 21  2  1  0  0  0  0
 23 24  1  0  0  0  0
 24  3  1  6  0  0  0
 24 29  1  0  0  0  0
 26 11  1  0  0  0  0
 26 42  1  1  0  0  0
 26  4  1  0  0  0  0
 27 21  1  6  0  0  0
 27  4  1  0  0  0  0
 27 31  1  0  0  0  0
 28 25  2  0  0  0  0
 28  1  1  0  0  0  0
 29 10  1  1  0  0  0
 30 10  1  6  0  0  0
 30 17  1  0  0  0  0
 31 33  1  0  0  0  0
 32 35  1  0  0  0  0
 32 20  1  0  0  0  0
 33 16  1  0  0  0  0
 34 14  2  0  0  0  0
 35 36  1  0  0  0  0
 37 41  1  0  0  0  0
 38 41  1  0  0  0  0
 39 36  1  6  0  0  0
 39 37  1  0  0  0  0
 40 38  1  0  0  0  0
 40 39  1  0  0  0  0
 42 46  1  6  0  0  0
 42 43  1  0  0  0  0
 43 45  1  0  0  0  0
 43 44  1  0  0  0  0
 46 47  1  0  0  0  0
 48 42  1  0  0  0  0
 49 52  2  0  0  0  0
 50 48  1  6  0  0  0
 50 51  1  0  0  0  0
 51 53  1  1  0  0  0
 52 50  1  0  0  0  0
 52 51  1  0  0  0  0
 54 51  1  0  0  0  0
 55 54  1  0  0  0  0
M  END
>  <MODEL>
8

>  <REMARK>
 VINA RESULT:       1.2      4.393     10.840
  Name = 
  9 active torsions:
  status: ('A' for Active; 'I' for Inactive)
    1  A    between atoms: C_1  and  C_53
    2  A    between atoms: C_6  and  C_53
    3  A    between atoms: C_11  and  C_29
    4  A    between atoms: C_12  and  O_14
    5  A    between atoms: C_13  and  C_48
    6  A    between atoms: C_13  and  N_52
    7  A    between atoms: O_14  and  C_53
    8  A    between atoms: C_32  and  C_48
    9  A    between atoms: C_42  and  C_53
                            x       y       z     vdW  Elec       q    Type
                         _______ _______ _______ _____ _____    ______ ____

>  <TORSDO>
F 9

$$$$
