=
 OpenBabel10272401563D

 28 31  0  0  1  0  0  0  0  0999 V2000
  185.2550  178.3740  142.9920 C   0  0  0  0  0  3  0  0  0  0  0  0
  189.6320  177.8610  147.2080 C   0  0  0  0  0  2  0  0  0  0  0  0
  184.8830  178.4110  145.3850 C   0  0  0  0  0  0  0  0  0  0  0  0
  187.0620  177.4960  144.5360 C   0  0  1  0  0  3  0  0  0  0  0  0
  183.1650  179.2130  143.8800 C   0  0  0  0  0  0  0  0  0  0  0  0
  185.7180  178.1290  144.2930 C   0  0  0  0  0  0  0  0  0  0  0  0
  186.8140  178.4160  146.9410 C   0  0  0  0  0  2  0  0  0  0  0  0
  183.6080  178.9480  145.1790 C   0  0  0  0  0  3  0  0  0  0  0  0
  189.9410  177.5830  144.8000 C   0  0  1  0  0  3  0  0  0  0  0  0
  187.9440  177.7920  143.4780 O   0  0  0  0  0  0  0  0  0  0  0  0
  185.3370  178.0720  146.7650 C   0  0  0  0  0  2  0  0  0  0  0  0
  189.0680  177.7710  146.0060 C   0  0  0  0  0  0  0  0  0  0  0  0
  181.9340  179.7390  143.6800 F   0  0  0  0  0  0  0  0  0  0  0  0
  183.9850  178.9210  142.7860 C   0  0  0  0  0  3  0  0  0  0  0  0
  187.6440  177.9210  145.8300 N   0  0  0  0  0  0  0  0  0  0  0  0
  189.0740  176.9820  143.6810 C   0  0  1  0  0  3  0  0  0  0  0  0
  189.8370  176.7610  142.3740 C   0  0  1  0  0  3  0  0  0  0  0  0
  190.0760  175.3990  142.1810 O   0  0  0  0  0  1  0  0  0  0  0  0
  189.0790  177.3100  141.2030 C   0  0  0  0  0  0  0  0  0  0  0  0
  189.7020  177.4520  139.9240 N   0  0  0  0  0  2  0  0  0  0  0  0
  187.8770  177.6610  141.3450 O   0  0  0  0  0  0  0  0  0  0  0  0
  191.5060  177.0440  138.1980 C   0  0  2  0  0  3  0  0  0  0  0  0
  192.1590  177.5560  140.6370 C   0  0  0  0  0  1  0  0  0  0  0  0
  191.0940  177.1000  139.6590 C   0  0  1  0  0  0  0  0  0  0  0  0
  190.4080  177.2390  137.3570 O   0  0  0  0  0  1  0  0  0  0  0  0
  191.3050  175.7590  139.0020 C   0  0  0  0  0  2  0  0  0  0  0  0
  191.6950  179.0050  144.0740 O   0  0  0  0  0  0  0  0  0  0  0  0
  190.5250  178.9120  144.4060 C   0  0  0  0  0  3  0  0  0  0  0  0
  1  6  1  0  0  0  0
  3 11  1  0  0  0  0
  4 10  1  6  0  0  0
  4 15  1  0  0  0  0
  5  8  2  0  0  0  0
  6  4  1  0  0  0  0
  6  3  2  0  0  0  0
  8  3  1  0  0  0  0
  9 28  1  6  0  0  0
  9 12  1  0  0  0  0
 10 16  1  0  0  0  0
 11  7  1  0  0  0  0
 12  2  2  0  0  0  0
 13  5  1  0  0  0  0
 14  1  2  0  0  0  0
 14  5  1  0  0  0  0
 15 12  1  0  0  0  0
 15  7  1  0  0  0  0
 16 17  1  6  0  0  0
 16  9  1  0  0  0  0
 17 18  1  6  0  0  0
 19 21  2  0  0  0  0
 19 17  1  0  0  0  0
 20 19  1  0  0  0  0
 22 25  1  6  0  0  0
 22 26  1  0  0  0  0
 22 24  1  0  0  0  0
 24 20  1  0  0  0  0
 24 23  1  1  0  0  0
 26 24  1  0  0  0  0
 27 28  2  0  0  0  0
M  END
>  <MODEL>
1

>  <REMARK>
 VINA RESULT:      -9.1      0.000      0.000
  Name = 
  4 active torsions:
  status: ('A' for Active; 'I' for Inactive)
    1  A    between atoms: C_1  and  C_2
    2  A    between atoms: C_1  and  C_27
    3  A    between atoms: N_3  and  C_11
    4  A    between atoms: C_16  and  C_21
                            x       y       z     vdW  Elec       q    Type
                         _______ _______ _______ _____ _____    ______ ____

>  <TORSDO>
F 4

$$$$
=
 OpenBabel10272401563D

 28 31  0  0  1  0  0  0  0  0999 V2000
  187.0660  177.7340  142.8090 C   0  0  0  0  0  3  0  0  0  0  0  0
  181.1490  179.1320  143.2870 C   0  0  0  0  0  2  0  0  0  0  0  0
  185.9250  178.2380  144.8870 C   0  0  0  0  0  0  0  0  0  0  0  0
  184.8260  178.9170  142.7330 C   0  0  1  0  0  3  0  0  0  0  0  0
  188.0810  177.1380  144.9250 C   0  0  0  0  0  0  0  0  0  0  0  0
  185.9540  178.2600  143.4840 C   0  0  0  0  0  0  0  0  0  0  0  0
  183.4670  178.5610  144.9050 C   0  0  0  0  0  2  0  0  0  0  0  0
  186.9880  177.6820  145.6050 C   0  0  0  0  0  3  0  0  0  0  0  0
  182.3780  178.8600  141.1930 C   0  0  1  0  0  3  0  0  0  0  0  0
  184.7220  178.3820  141.4350 O   0  0  0  0  0  0  0  0  0  0  0  0
  184.7860  178.8720  145.6100 C   0  0  0  0  0  2  0  0  0  0  0  0
  182.3250  178.9570  142.6890 C   0  0  0  0  0  0  0  0  0  0  0  0
  189.1080  176.5930  145.6200 F   0  0  0  0  0  0  0  0  0  0  0  0
  188.1230  177.1690  143.5280 C   0  0  0  0  0  3  0  0  0  0  0  0
  183.5370  178.7860  143.4520 N   0  0  0  0  0  0  0  0  0  0  0  0
  183.8100  179.2040  140.7510 C   0  0  1  0  0  3  0  0  0  0  0  0
  184.0160  179.1200  139.2380 C   0  0  1  0  0  3  0  0  0  0  0  0
  184.0620  180.4010  138.6850 O   0  0  0  0  0  1  0  0  0  0  0  0
  185.2770  178.3800  138.9010 C   0  0  0  0  0  0  0  0  0  0  0  0
  185.2470  177.2120  138.0790 N   0  0  0  0  0  2  0  0  0  0  0  0
  186.3790  178.7870  139.3550 O   0  0  0  0  0  0  0  0  0  0  0  0
  183.9430  176.5640  136.0100 C   0  0  2  0  0  3  0  0  0  0  0  0
  183.3210  175.5370  138.2890 C   0  0  0  0  0  1  0  0  0  0  0  0
  184.0210  176.6430  137.5240 C   0  0  1  0  0  0  0  0  0  0  0  0
  185.0510  177.1720  135.4150 O   0  0  0  0  0  1  0  0  0  0  0  0
  183.1420  177.6150  136.7780 C   0  0  0  0  0  2  0  0  0  0  0  0
  180.9080  177.2660  140.2330 O   0  0  0  0  0  0  0  0  0  0  0  0
  181.9810  177.4710  140.7770 C   0  0  0  0  0  3  0  0  0  0  0  0
  1  6  2  0  0  0  0
  1 14  1  0  0  0  0
  3  8  2  0  0  0  0
  3 11  1  0  0  0  0
  4 10  1  6  0  0  0
  4 15  1  0  0  0  0
  4  6  1  0  0  0  0
  5  8  1  0  0  0  0
  5 13  1  0  0  0  0
  6  3  1  0  0  0  0
  7 11  1  0  0  0  0
  9 28  1  1  0  0  0
  9 12  1  0  0  0  0
 12  2  2  0  0  0  0
 12 15  1  0  0  0  0
 14  5  2  0  0  0  0
 15  7  1  0  0  0  0
 16 17  1  6  0  0  0
 16  9  1  0  0  0  0
 16 10  1  0  0  0  0
 17 18  1  1  0  0  0
 19 17  1  0  0  0  0
 19 21  2  0  0  0  0
 20 19  1  0  0  0  0
 22 25  1  6  0  0  0
 22 26  1  0  0  0  0
 22 24  1  0  0  0  0
 24 20  1  0  0  0  0
 24 23  1  1  0  0  0
 26 24  1  0  0  0  0
 27 28  2  0  0  0  0
M  END
>  <MODEL>
2

>  <REMARK>
 VINA RESULT:      -9.0      4.055      6.463
  Name = 
  4 active torsions:
  status: ('A' for Active; 'I' for Inactive)
    1  A    between atoms: C_1  and  C_2
    2  A    between atoms: C_1  and  C_27
    3  A    between atoms: N_3  and  C_11
    4  A    between atoms: C_16  and  C_21
                            x       y       z     vdW  Elec       q    Type
                         _______ _______ _______ _____ _____    ______ ____

>  <TORSDO>
F 4

$$$$
=
 OpenBabel10272401563D

 28 31  0  0  1  0  0  0  0  0999 V2000
  187.1430  177.6470  143.6930 C   0  0  0  0  0  3  0  0  0  0  0  0
  181.4170  178.9720  142.0640 C   0  0  0  0  0  2  0  0  0  0  0  0
  185.4070  178.3860  145.2120 C   0  0  0  0  0  0  0  0  0  0  0  0
  185.0720  178.7640  142.7520 C   0  0  1  0  0  3  0  0  0  0  0  0
  187.4120  177.3440  146.0800 C   0  0  0  0  0  0  0  0  0  0  0  0
  185.8840  178.2300  143.9030 C   0  0  0  0  0  0  0  0  0  0  0  0
  183.0800  178.6590  144.3990 C   0  0  0  0  0  2  0  0  0  0  0  0
  186.1710  177.9470  146.2990 C   0  0  0  0  0  3  0  0  0  0  0  0
  183.2480  178.4620  140.5280 C   0  0  1  0  0  3  0  0  0  0  0  0
  185.3790  178.0660  141.5680 O   0  0  0  0  0  0  0  0  0  0  0  0
  184.1090  179.0840  145.4450 C   0  0  0  0  0  2  0  0  0  0  0  0
  182.7190  178.7470  141.9030 C   0  0  0  0  0  0  0  0  0  0  0  0
  188.1490  176.9130  147.1310 F   0  0  0  0  0  0  0  0  0  0  0  0
  187.9010  177.1980  144.7780 C   0  0  0  0  0  3  0  0  0  0  0  0
  183.6180  178.6980  143.0300 N   0  0  0  0  0  0  0  0  0  0  0  0
  184.7530  178.7770  140.5300 C   0  0  1  0  0  3  0  0  0  0  0  0
  185.4320  178.5050  139.1860 C   0  0  1  0  0  3  0  0  0  0  0  0
  185.1680  179.5460  138.2940 O   0  0  0  0  0  1  0  0  0  0  0  0
  186.9140  178.3450  139.3490 C   0  0  0  0  0  0  0  0  0  0  0  0
  187.7010  177.7150  138.3350 N   0  0  0  0  0  2  0  0  0  0  0  0
  187.4760  178.7610  140.3960 O   0  0  0  0  0  0  0  0  0  0  0  0
  188.1180  177.0050  135.9440 C   0  0  2  0  0  3  0  0  0  0  0  0
  186.0270  176.1550  137.1860 C   0  0  0  0  0  1  0  0  0  0  0  0
  187.1460  177.1750  137.0980 C   0  0  1  0  0  0  0  0  0  0  0  0
  189.3770  177.5180  136.2650 O   0  0  0  0  0  1  0  0  0  0  0  0
  187.0950  178.1410  135.9400 C   0  0  0  0  0  2  0  0  0  0  0  0
  182.0950  176.7270  139.3950 O   0  0  0  0  0  0  0  0  0  0  0  0
  182.9750  177.0240  140.1860 C   0  0  0  0  0  3  0  0  0  0  0  0
  1  6  2  0  0  0  0
  1 14  1  0  0  0  0
  3 11  1  0  0  0  0
  3  8  2  0  0  0  0
  4 10  1  6  0  0  0
  4 15  1  0  0  0  0
  4  6  1  0  0  0  0
  5  8  1  0  0  0  0
  5 13  1  0  0  0  0
  6  3  1  0  0  0  0
  7 11  1  0  0  0  0
  9 28  1  1  0  0  0
  9 16  1  0  0  0  0
  9 12  1  0  0  0  0
 12  2  2  0  0  0  0
 12 15  1  0  0  0  0
 14  5  2  0  0  0  0
 15  7  1  0  0  0  0
 16 17  1  6  0  0  0
 16 10  1  0  0  0  0
 17 18  1  6  0  0  0
 17 19  1  0  0  0  0
 19 21  2  0  0  0  0
 20 19  1  0  0  0  0
 22 25  1  1  0  0  0
 22 24  1  0  0  0  0
 24 23  1  1  0  0  0
 24 20  1  0  0  0  0
 26 22  1  0  0  0  0
 26 24  1  0  0  0  0
 27 28  2  0  0  0  0
M  END
>  <MODEL>
3

>  <REMARK>
 VINA RESULT:      -8.9      3.330      5.569
  Name = 
  4 active torsions:
  status: ('A' for Active; 'I' for Inactive)
    1  A    between atoms: C_1  and  C_2
    2  A    between atoms: C_1  and  C_27
    3  A    between atoms: N_3  and  C_11
    4  A    between atoms: C_16  and  C_21
                            x       y       z     vdW  Elec       q    Type
                         _______ _______ _______ _____ _____    ______ ____

>  <TORSDO>
F 4

$$$$
=
 OpenBabel10272401563D

 28 31  0  0  1  0  0  0  0  0999 V2000
  186.2300  178.7900  142.1750 C   0  0  0  0  0  3  0  0  0  0  0  0
  191.1520  176.2940  144.7710 C   0  0  0  0  0  2  0  0  0  0  0  0
  186.2650  177.7530  144.3640 C   0  0  0  0  0  0  0  0  0  0  0  0
  188.1520  177.2540  142.7830 C   0  0  1  0  0  3  0  0  0  0  0  0
  184.4280  179.2000  143.7390 C   0  0  0  0  0  0  0  0  0  0  0  0
  186.8690  177.9700  143.1160 C   0  0  0  0  0  0  0  0  0  0  0  0
  188.4130  176.9950  145.3430 C   0  0  0  0  0  2  0  0  0  0  0  0
  185.0460  178.3640  144.6730 C   0  0  0  0  0  3  0  0  0  0  0  0
  191.0250  177.1260  142.4770 C   0  0  1  0  0  3  0  0  0  0  0  0
  188.8750  177.9700  141.8090 O   0  0  0  0  0  0  0  0  0  0  0  0
  186.8970  176.8130  145.3340 C   0  0  0  0  0  2  0  0  0  0  0  0
  190.3910  176.7740  143.7900 C   0  0  0  0  0  0  0  0  0  0  0  0
  183.2510  179.7970  144.0400 F   0  0  0  0  0  0  0  0  0  0  0  0
  185.0170  179.4090  142.4880 C   0  0  0  0  0  3  0  0  0  0  0  0
  188.9850  177.0310  143.9870 N   0  0  0  0  0  0  0  0  0  0  0  0
  189.9210  177.1220  141.4070 C   0  0  1  0  0  3  0  0  0  0  0  0
  190.4260  177.4920  140.0110 C   0  0  1  0  0  3  0  0  0  0  0  0
  191.8100  177.6820  140.0340 O   0  0  0  0  0  1  0  0  0  0  0  0
  190.0790  176.4330  139.0090 C   0  0  0  0  0  0  0  0  0  0  0  0
  189.0680  176.6550  138.0230 N   0  0  0  0  0  2  0  0  0  0  0  0
  190.6790  175.3260  139.0370 O   0  0  0  0  0  0  0  0  0  0  0  0
  188.1870  178.4990  136.5330 C   0  0  2  0  0  3  0  0  0  0  0  0
  187.0980  178.0780  138.8300 C   0  0  0  0  0  1  0  0  0  0  0  0
  188.2960  177.8900  137.9200 C   0  0  1  0  0  0  0  0  0  0  0  0
  188.9630  177.7960  135.6100 O   0  0  0  0  0  1  0  0  0  0  0  0
  189.0990  179.1240  137.5890 C   0  0  0  0  0  2  0  0  0  0  0  0
  191.4130  179.2210  143.5180 O   0  0  0  0  0  0  0  0  0  0  0  0
  191.6870  178.4710  142.5960 C   0  0  0  0  0  3  0  0  0  0  0  0
  1 14  2  0  0  0  0
  1  6  1  0  0  0  0
  3  8  1  0  0  0  0
  3 11  1  0  0  0  0
  4 10  1  6  0  0  0
  4  6  1  0  0  0  0
  4 15  1  0  0  0  0
  5 13  1  0  0  0  0
  5  8  2  0  0  0  0
  6  3  2  0  0  0  0
  9 28  1  1  0  0  0
  9 12  1  0  0  0  0
 11  7  1  0  0  0  0
 12 15  1  0  0  0  0
 12  2  2  0  0  0  0
 14  5  1  0  0  0  0
 15  7  1  0  0  0  0
 16 17  1  6  0  0  0
 16 10  1  0  0  0  0
 16  9  1  0  0  0  0
 17 18  1  1  0  0  0
 19 21  2  0  0  0  0
 19 17  1  0  0  0  0
 20 19  1  0  0  0  0
 22 25  1  6  0  0  0
 22 26  1  0  0  0  0
 22 24  1  0  0  0  0
 24 20  1  0  0  0  0
 24 23  1  1  0  0  0
 26 24  1  0  0  0  0
 28 27  2  0  0  0  0
M  END
>  <MODEL>
4

>  <REMARK>
 VINA RESULT:      -8.8      1.981      2.727
  Name = 
  4 active torsions:
  status: ('A' for Active; 'I' for Inactive)
    1  A    between atoms: C_1  and  C_2
    2  A    between atoms: C_1  and  C_27
    3  A    between atoms: N_3  and  C_11
    4  A    between atoms: C_16  and  C_21
                            x       y       z     vdW  Elec       q    Type
                         _______ _______ _______ _____ _____    ______ ____

>  <TORSDO>
F 4

$$$$
=
 OpenBabel10272401563D

 28 31  0  0  1  0  0  0  0  0999 V2000
  187.7880  177.6420  142.4310 C   0  0  0  0  0  3  0  0  0  0  0  0
  182.6010  179.0610  139.5550 C   0  0  0  0  0  2  0  0  0  0  0  0
  185.7740  178.4330  143.5190 C   0  0  0  0  0  0  0  0  0  0  0  0
  186.0040  178.7880  141.0440 C   0  0  1  0  0  3  0  0  0  0  0  0
  187.5120  177.3620  144.8200 C   0  0  0  0  0  0  0  0  0  0  0  0
  186.5280  178.2520  142.3500 C   0  0  0  0  0  0  0  0  0  0  0  0
  183.6940  178.7420  142.2060 C   0  0  0  0  0  2  0  0  0  0  0  0
  186.2660  177.9920  144.7520 C   0  0  0  0  0  3  0  0  0  0  0  0
  184.7160  178.4960  138.4710 C   0  0  1  0  0  3  0  0  0  0  0  0
  186.5520  178.0710  139.9630 O   0  0  0  0  0  0  0  0  0  0  0  0
  184.4730  179.1590  143.4510 C   0  0  0  0  0  2  0  0  0  0  0  0
  183.9000  178.8070  139.6910 C   0  0  0  0  0  0  0  0  0  0  0  0
  187.9860  176.9290  146.0120 F   0  0  0  0  0  0  0  0  0  0  0  0
  188.2760  177.1920  143.6610 C   0  0  0  0  0  3  0  0  0  0  0  0
  184.5240  178.7550  140.9900 N   0  0  0  0  0  0  0  0  0  0  0  0
  186.1890  178.7810  138.8060 C   0  0  1  0  0  3  0  0  0  0  0  0
  187.1450  178.4810  137.6500 C   0  0  1  0  0  3  0  0  0  0  0  0
  187.0970  179.5080  136.7060 O   0  0  0  0  0  1  0  0  0  0  0  0
  188.5520  178.3110  138.1380 C   0  0  0  0  0  0  0  0  0  0  0  0
  189.3390  177.1870  137.7380 N   0  0  0  0  0  2  0  0  0  0  0  0
  189.0490  179.1640  138.9200 O   0  0  0  0  0  0  0  0  0  0  0  0
  189.8840  175.4720  135.9600 C   0  0  2  0  0  3  0  0  0  0  0  0
  187.7250  175.2380  137.3450 C   0  0  0  0  0  1  0  0  0  0  0  0
  188.8510  176.1290  136.8580 C   0  0  1  0  0  0  0  0  0  0  0  0
  191.1250  176.1010  136.0750 O   0  0  0  0  0  1  0  0  0  0  0  0
  188.8680  176.4580  135.3860 C   0  0  0  0  0  2  0  0  0  0  0  0
  183.9410  176.7720  137.0390 O   0  0  0  0  0  0  0  0  0  0  0  0
  184.4950  177.0590  138.0870 C   0  0  0  0  0  3  0  0  0  0  0  0
  1 14  1  0  0  0  0
  2 12  2  0  0  0  0
  3  8  2  0  0  0  0
  4 10  1  6  0  0  0
  4  6  1  0  0  0  0
  5 13  1  0  0  0  0
  6  1  2  0  0  0  0
  6  3  1  0  0  0  0
  7 11  1  0  0  0  0
  8  5  1  0  0  0  0
  9 28  1  1  0  0  0
  9 16  1  0  0  0  0
  9 12  1  0  0  0  0
 11  3  1  0  0  0  0
 12 15  1  0  0  0  0
 14  5  2  0  0  0  0
 15  4  1  0  0  0  0
 15  7  1  0  0  0  0
 16 17  1  6  0  0  0
 16 10  1  0  0  0  0
 17 18  1  6  0  0  0
 17 19  1  0  0  0  0
 19 21  2  0  0  0  0
 20 19  1  0  0  0  0
 22 25  1  1  0  0  0
 22 24  1  0  0  0  0
 24 23  1  1  0  0  0
 24 20  1  0  0  0  0
 26 22  1  0  0  0  0
 26 24  1  0  0  0  0
 27 28  2  0  0  0  0
M  END
>  <MODEL>
5

>  <REMARK>
 VINA RESULT:      -8.3      3.415      5.666
  Name = 
  4 active torsions:
  status: ('A' for Active; 'I' for Inactive)
    1  A    between atoms: C_1  and  C_2
    2  A    between atoms: C_1  and  C_27
    3  A    between atoms: N_3  and  C_11
    4  A    between atoms: C_16  and  C_21
                            x       y       z     vdW  Elec       q    Type
                         _______ _______ _______ _____ _____    ______ ____

>  <TORSDO>
F 4

$$$$
=
 OpenBabel10272401563D

 28 31  0  0  1  0  0  0  0  0999 V2000
  190.6000  176.4240  142.3180 C   0  0  0  0  0  3  0  0  0  0  0  0
  187.7310  178.0910  137.2010 C   0  0  0  0  0  2  0  0  0  0  0  0
  188.6440  177.8500  142.2290 C   0  0  0  0  0  0  0  0  0  0  0  0
  189.9700  177.5210  140.1220 C   0  0  1  0  0  3  0  0  0  0  0  0
  189.2910  176.8120  144.3180 C   0  0  0  0  0  0  0  0  0  0  0  0
  189.7250  177.2350  141.5800 C   0  0  0  0  0  0  0  0  0  0  0  0
  187.4840  178.2320  140.0710 C   0  0  0  0  0  2  0  0  0  0  0  0
  188.4300  177.6420  143.5960 C   0  0  0  0  0  3  0  0  0  0  0  0
  189.8390  176.8600  137.3100 C   0  0  1  0  0  3  0  0  0  0  0  0
  190.6810  176.4620  139.5260 O   0  0  0  0  0  0  0  0  0  0  0  0
  187.7620  178.7820  141.4680 C   0  0  0  0  0  2  0  0  0  0  0  0
  188.7210  177.6240  137.9570 C   0  0  0  0  0  0  0  0  0  0  0  0
  189.0810  176.6040  145.6390 F   0  0  0  0  0  0  0  0  0  0  0  0
  190.3790  176.2070  143.6810 C   0  0  0  0  0  3  0  0  0  0  0  0
  188.7070  177.7740  139.3920 N   0  0  0  0  0  0  0  0  0  0  0  0
  191.0540  176.9180  138.2510 C   0  0  1  0  0  3  0  0  0  0  0  0
  192.2680  176.1520  137.7230 C   0  0  1  0  0  3  0  0  0  0  0  0
  192.5460  176.5350  136.4090 O   0  0  0  0  0  1  0  0  0  0  0  0
  193.4740  176.3870  138.5820 C   0  0  0  0  0  0  0  0  0  0  0  0
  194.6590  175.6030  138.4170 N   0  0  0  0  0  2  0  0  0  0  0  0
  193.4450  177.2810  139.4680 O   0  0  0  0  0  0  0  0  0  0  0  0
  196.2030  174.1520  137.0370 C   0  0  2  0  0  3  0  0  0  0  0  0
  193.7770  173.3970  137.4630 C   0  0  0  0  0  1  0  0  0  0  0  0
  194.7880  174.5270  137.4390 C   0  0  1  0  0  0  0  0  0  0  0  0
  197.1370  175.0120  137.6170 O   0  0  0  0  0  1  0  0  0  0  0  0
  195.3070  174.9460  136.0860 C   0  0  0  0  0  2  0  0  0  0  0  0
  189.3700  174.9890  135.9310 O   0  0  0  0  0  0  0  0  0  0  0  0
  189.3880  175.4480  137.0610 C   0  0  0  0  0  3  0  0  0  0  0  0
  1 14  1  0  0  0  0
  2 12  2  0  0  0  0
  3  8  2  0  0  0  0
  4 10  1  6  0  0  0
  4  6  1  0  0  0  0
  5 13  1  0  0  0  0
  6  3  1  0  0  0  0
  6  1  2  0  0  0  0
  7 11  1  0  0  0  0
  8  5  1  0  0  0  0
  9 28  1  1  0  0  0
  9 12  1  0  0  0  0
  9 16  1  0  0  0  0
 11  3  1  0  0  0  0
 12 15  1  0  0  0  0
 14  5  2  0  0  0  0
 15  7  1  0  0  0  0
 15  4  1  0  0  0  0
 16 17  1  6  0  0  0
 16 10  1  0  0  0  0
 17 18  1  6  0  0  0
 17 19  1  0  0  0  0
 19 21  2  0  0  0  0
 20 19  1  0  0  0  0
 22 24  1  0  0  0  0
 22 25  1  1  0  0  0
 24 23  1  1  0  0  0
 24 20  1  0  0  0  0
 26 22  1  0  0  0  0
 26 24  1  0  0  0  0
 27 28  2  0  0  0  0
M  END
>  <MODEL>
6

>  <REMARK>
 VINA RESULT:      -8.1      3.583      6.493
  Name = 
  4 active torsions:
  status: ('A' for Active; 'I' for Inactive)
    1  A    between atoms: C_1  and  C_2
    2  A    between atoms: C_1  and  C_27
    3  A    between atoms: N_3  and  C_11
    4  A    between atoms: C_16  and  C_21
                            x       y       z     vdW  Elec       q    Type
                         _______ _______ _______ _____ _____    ______ ____

>  <TORSDO>
F 4

$$$$
=
 OpenBabel10272401563D

 28 31  0  0  1  0  0  0  0  0999 V2000
  185.8710  178.2560  143.9200 C   0  0  0  0  0  3  0  0  0  0  0  0
  188.4640  178.3020  138.4000 C   0  0  0  0  0  2  0  0  0  0  0  0
  184.7650  178.9390  141.8760 C   0  0  0  0  0  0  0  0  0  0  0  0
  187.2740  178.8320  141.8890 C   0  0  1  0  0  3  0  0  0  0  0  0
  183.4560  178.4130  143.8440 C   0  0  0  0  0  0  0  0  0  0  0  0
  185.9460  178.6460  142.5740 C   0  0  0  0  0  0  0  0  0  0  0  0
  185.9140  178.6740  139.6950 C   0  0  0  0  0  2  0  0  0  0  0  0
  183.5230  178.8260  142.5100 C   0  0  0  0  0  3  0  0  0  0  0  0
  189.6180  177.8550  140.5060 C   0  0  1  0  0  3  0  0  0  0  0  0
  188.2510  178.0060  142.4780 O   0  0  0  0  0  0  0  0  0  0  0  0
  184.8440  179.4370  140.4730 C   0  0  0  0  0  2  0  0  0  0  0  0
  188.4060  178.2750  139.7290 C   0  0  0  0  0  0  0  0  0  0  0  0
  182.2550  178.2970  144.4560 F   0  0  0  0  0  0  0  0  0  0  0  0
  184.6300  178.1330  144.5500 C   0  0  0  0  0  3  0  0  0  0  0  0
  187.1820  178.5710  140.4340 N   0  0  0  0  0  0  0  0  0  0  0  0
  189.4790  178.4150  141.9320 C   0  0  1  0  0  3  0  0  0  0  0  0
  190.6440  178.0370  142.8490 C   0  0  1  0  0  3  0  0  0  0  0  0
  191.8330  177.9770  142.1180 O   0  0  0  0  0  1  0  0  0  0  0  0
  190.7920  179.0200  143.9720 C   0  0  0  0  0  0  0  0  0  0  0  0
  190.8110  178.5840  145.3330 N   0  0  0  0  0  2  0  0  0  0  0  0
  190.8930  180.2490  143.7160 O   0  0  0  0  0  0  0  0  0  0  0  0
  189.2670  176.7160  146.0570 C   0  0  2  0  0  3  0  0  0  0  0  0
  191.6030  176.1580  145.1250 C   0  0  0  0  0  1  0  0  0  0  0  0
  190.6750  177.1880  145.7380 C   0  0  1  0  0  0  0  0  0  0  0  0
  188.3570  177.7730  146.0040 O   0  0  0  0  0  1  0  0  0  0  0  0
  190.2760  176.9720  147.1770 C   0  0  0  0  0  2  0  0  0  0  0  0
  190.5040  175.7820  139.7710 O   0  0  0  0  0  0  0  0  0  0  0  0
  189.7100  176.3540  140.4990 C   0  0  0  0  0  3  0  0  0  0  0  0
  1 14  1  0  0  0  0
  2 12  2  0  0  0  0
  3  8  2  0  0  0  0
  3  6  1  0  0  0  0
  4 10  1  1  0  0  0
  4  6  1  0  0  0  0
  5 13  1  0  0  0  0
  5 14  2  0  0  0  0
  6  1  2  0  0  0  0
  7 15  1  0  0  0  0
  7 11  1  0  0  0  0
  8  5  1  0  0  0  0
  9 28  1  1  0  0  0
  9 16  1  0  0  0  0
 11  3  1  0  0  0  0
 12 15  1  0  0  0  0
 12  9  1  0  0  0  0
 15  4  1  0  0  0  0
 16 10  1  0  0  0  0
 16 17  1  1  0  0  0
 17 18  1  6  0  0  0
 17 19  1  0  0  0  0
 19 20  1  0  0  0  0
 20 24  1  0  0  0  0
 21 19  2  0  0  0  0
 22 25  1  1  0  0  0
 22 26  1  0  0  0  0
 24 23  1  6  0  0  0
 24 22  1  0  0  0  0
 24 26  1  0  0  0  0
 27 28  2  0  0  0  0
M  END
>  <MODEL>
7

>  <REMARK>
 VINA RESULT:      -8.1      1.881      5.059
  Name = 
  4 active torsions:
  status: ('A' for Active; 'I' for Inactive)
    1  A    between atoms: C_1  and  C_2
    2  A    between atoms: C_1  and  C_27
    3  A    between atoms: N_3  and  C_11
    4  A    between atoms: C_16  and  C_21
                            x       y       z     vdW  Elec       q    Type
                         _______ _______ _______ _____ _____    ______ ____

>  <TORSDO>
F 4

$$$$
=
 OpenBabel10272401563D

 28 31  0  0  1  0  0  0  0  0999 V2000
  185.8530  177.9920  142.4670 C   0  0  0  0  0  3  0  0  0  0  0  0
  179.9830  178.2410  140.8310 C   0  0  0  0  0  2  0  0  0  0  0  0
  184.0740  178.9170  143.8270 C   0  0  0  0  0  0  0  0  0  0  0  0
  183.6510  178.6030  141.3720 C   0  0  1  0  0  3  0  0  0  0  0  0
  186.2020  178.3530  144.8360 C   0  0  0  0  0  0  0  0  0  0  0  0
  184.5410  178.4760  142.5800 C   0  0  0  0  0  0  0  0  0  0  0  0
  181.7170  178.7230  143.0850 C   0  0  0  0  0  2  0  0  0  0  0  0
  184.9040  178.8590  144.9520 C   0  0  0  0  0  3  0  0  0  0  0  0
  181.8290  177.5420  139.3910 C   0  0  1  0  0  3  0  0  0  0  0  0
  184.0120  177.6570  140.3930 O   0  0  0  0  0  0  0  0  0  0  0  0
  182.7110  179.5110  143.9350 C   0  0  0  0  0  2  0  0  0  0  0  0
  181.2990  178.1190  140.6710 C   0  0  0  0  0  0  0  0  0  0  0  0
  187.0040  178.2900  145.9250 F   0  0  0  0  0  0  0  0  0  0  0  0
  186.6790  177.9250  143.5930 C   0  0  0  0  0  3  0  0  0  0  0  0
  182.2200  178.4600  141.7270 N   0  0  0  0  0  0  0  0  0  0  0  0
  183.2890  178.0020  139.2390 C   0  0  1  0  0  3  0  0  0  0  0  0
  183.9680  177.4620  137.9790 C   0  0  1  0  0  3  0  0  0  0  0  0
  183.3170  177.9370  136.8390 O   0  0  0  0  0  1  0  0  0  0  0  0
  185.4150  177.8520  137.9320 C   0  0  0  0  0  0  0  0  0  0  0  0
  186.3700  177.0540  137.2280 N   0  0  0  0  0  2  0  0  0  0  0  0
  185.8010  178.8930  138.5270 O   0  0  0  0  0  0  0  0  0  0  0  0
  186.9520  175.4200  135.3880 C   0  0  2  0  0  3  0  0  0  0  0  0
  185.4140  174.6800  137.3180 C   0  0  0  0  0  1  0  0  0  0  0  0
  186.0320  175.8180  136.5290 C   0  0  1  0  0  0  0  0  0  0  0  0
  187.9140  176.4030  135.1490 O   0  0  0  0  0  1  0  0  0  0  0  0
  185.5630  175.9920  135.1060 C   0  0  0  0  0  2  0  0  0  0  0  0
  181.0060  175.4450  138.6530 O   0  0  0  0  0  0  0  0  0  0  0  0
  181.7150  176.0440  139.4440 C   0  0  0  0  0  3  0  0  0  0  0  0
  1  6  2  0  0  0  0
  1 14  1  0  0  0  0
  3 11  1  0  0  0  0
  3  8  2  0  0  0  0
  4 10  1  6  0  0  0
  4 15  1  0  0  0  0
  4  6  1  0  0  0  0
  5  8  1  0  0  0  0
  5 13  1  0  0  0  0
  6  3  1  0  0  0  0
  7 11  1  0  0  0  0
  9 28  1  1  0  0  0
  9 12  1  0  0  0  0
 12  2  2  0  0  0  0
 12 15  1  0  0  0  0
 14  5  2  0  0  0  0
 15  7  1  0  0  0  0
 16 17  1  6  0  0  0
 16  9  1  0  0  0  0
 16 10  1  0  0  0  0
 17 18  1  6  0  0  0
 19 17  1  0  0  0  0
 19 21  2  0  0  0  0
 20 19  1  0  0  0  0
 22 25  1  6  0  0  0
 22 24  1  0  0  0  0
 24 20  1  0  0  0  0
 24 23  1  1  0  0  0
 26 22  1  0  0  0  0
 26 24  1  0  0  0  0
 27 28  2  0  0  0  0
M  END
>  <MODEL>
8

>  <REMARK>
 VINA RESULT:      -7.9      4.370      6.652
  Name = 
  4 active torsions:
  status: ('A' for Active; 'I' for Inactive)
    1  A    between atoms: C_1  and  C_2
    2  A    between atoms: C_1  and  C_27
    3  A    between atoms: N_3  and  C_11
    4  A    between atoms: C_16  and  C_21
                            x       y       z     vdW  Elec       q    Type
                         _______ _______ _______ _____ _____    ______ ____

>  <TORSDO>
F 4

$$$$
=
 OpenBabel10272401563D

 28 31  0  0  1  0  0  0  0  0999 V2000
  185.5320  178.4050  142.4630 C   0  0  0  0  0  3  0  0  0  0  0  0
  181.8170  177.8150  137.6620 C   0  0  0  0  0  2  0  0  0  0  0  0
  183.1410  178.7940  142.5060 C   0  0  0  0  0  0  0  0  0  0  0  0
  184.2980  178.7540  140.2770 C   0  0  1  0  0  3  0  0  0  0  0  0
  184.3550  178.4890  144.5780 C   0  0  0  0  0  0  0  0  0  0  0  0
  184.3270  178.6230  141.7770 C   0  0  0  0  0  0  0  0  0  0  0  0
  181.7650  178.2830  140.5080 C   0  0  0  0  0  2  0  0  0  0  0  0
  183.1560  178.7310  143.9030 C   0  0  0  0  0  3  0  0  0  0  0  0
  184.2550  177.6680  137.5970 C   0  0  1  0  0  3  0  0  0  0  0  0
  185.3620  178.0350  139.6990 O   0  0  0  0  0  0  0  0  0  0  0  0
  181.8740  179.1110  141.7860 C   0  0  0  0  0  2  0  0  0  0  0  0
  182.9690  177.9550  138.3140 C   0  0  0  0  0  0  0  0  0  0  0  0
  184.3690  178.4210  145.9300 F   0  0  0  0  0  0  0  0  0  0  0  0
  185.5440  178.3310  143.8590 C   0  0  0  0  0  3  0  0  0  0  0  0
  183.0030  178.3070  139.7120 N   0  0  0  0  0  0  0  0  0  0  0  0
  185.3820  178.4010  138.3430 C   0  0  1  0  0  3  0  0  0  0  0  0
  186.7650  178.1740  137.7300 C   0  0  1  0  0  3  0  0  0  0  0  0
  187.1050  179.2420  136.8980 O   0  0  0  0  0  1  0  0  0  0  0  0
  187.8100  178.0100  138.7930 C   0  0  0  0  0  0  0  0  0  0  0  0
  188.8970  177.0960  138.6210 N   0  0  0  0  0  2  0  0  0  0  0  0
  187.7290  178.6790  139.8570 O   0  0  0  0  0  0  0  0  0  0  0  0
  190.5000  175.9230  137.0560 C   0  0  2  0  0  3  0  0  0  0  0  0
  188.0320  175.1890  137.1480 C   0  0  0  0  0  1  0  0  0  0  0  0
  189.0690  176.2560  137.4400 C   0  0  1  0  0  0  0  0  0  0  0  0
  191.4110  176.5980  137.8710 O   0  0  0  0  0  1  0  0  0  0  0  0
  189.6930  176.9400  136.2500 C   0  0  0  0  0  2  0  0  0  0  0  0
  184.5960  175.5930  136.5020 O   0  0  0  0  0  0  0  0  0  0  0  0
  184.4770  176.1820  137.5640 C   0  0  0  0  0  3  0  0  0  0  0  0
  1 14  1  0  0  0  0
  2 12  2  0  0  0  0
  3  8  2  0  0  0  0
  4 10  1  6  0  0  0
  4  6  1  0  0  0  0
  5 13  1  0  0  0  0
  6  1  2  0  0  0  0
  6  3  1  0  0  0  0
  7 11  1  0  0  0  0
  8  5  1  0  0  0  0
  9 28  1  1  0  0  0
  9 12  1  0  0  0  0
  9 16  1  0  0  0  0
 11  3  1  0  0  0  0
 12 15  1  0  0  0  0
 14  5  2  0  0  0  0
 15  4  1  0  0  0  0
 15  7  1  0  0  0  0
 16 17  1  6  0  0  0
 16 10  1  0  0  0  0
 17 18  1  6  0  0  0
 17 19  1  0  0  0  0
 19 21  2  0  0  0  0
 20 19  1  0  0  0  0
 22 24  1  0  0  0  0
 22 25  1  1  0  0  0
 24 23  1  6  0  0  0
 24 20  1  0  0  0  0
 26 22  1  0  0  0  0
 26 24  1  0  0  0  0
 27 28  2  0  0  0  0
M  END
>  <MODEL>
9

>  <REMARK>
 VINA RESULT:      -7.8      3.541      5.977
  Name = 
  4 active torsions:
  status: ('A' for Active; 'I' for Inactive)
    1  A    between atoms: C_1  and  C_2
    2  A    between atoms: C_1  and  C_27
    3  A    between atoms: N_3  and  C_11
    4  A    between atoms: C_16  and  C_21
                            x       y       z     vdW  Elec       q    Type
                         _______ _______ _______ _____ _____    ______ ____

>  <TORSDO>
F 4

$$$$
