=
 OpenBabel10272400323D

 31 35  0  0  1  0  0  0  0  0999 V2000
  185.2720  178.2240  144.3270 C   0  0  2  0  0  3  0  0  0  0  0  0
  188.9130  177.4590  143.3600 C   0  0  0  0  0  0  0  0  0  0  0  0
  189.5570  177.0880  144.6890 C   0  0  2  0  0  3  0  0  0  0  0  0
  189.1980  177.7210  147.1500 C   0  0  0  0  0  2  0  0  0  0  0  0
  187.5340  177.7490  143.2580 C   0  0  0  0  0  0  0  0  0  0  0  0
  184.6710  178.0140  142.9400 C   0  0  0  0  0  2  0  0  0  0  0  0
  189.3220  178.2120  145.7000 C   0  0  0  0  0  2  0  0  0  0  0  0
  189.1510  177.9370  140.9910 C   0  0  0  0  0  0  0  0  0  0  0  0
  185.3990  179.7000  144.6700 C   0  0  0  0  0  1  0  0  0  0  0  0
  191.4660  176.2350  143.3320 N   0  0  0  0  0  2  0  0  0  0  0  0
  189.9430  176.4910  147.4220 N   0  0  0  0  0  2  0  0  0  0  0  0
  187.8320  178.2500  140.9300 N   0  0  0  0  0  0  0  0  0  0  0  0
  189.7050  177.5040  142.2020 C   0  0  0  0  0  0  0  0  0  0  0  0
  186.6190  177.5150  144.4380 C   0  0  0  0  0  2  0  0  0  0  0  0
  191.3490  176.6870  147.0990 C   0  0  0  0  0  2  0  0  0  0  0  0
  187.0100  178.1480  142.0070 C   0  0  0  0  0  0  0  0  0  0  0  0
  185.5800  178.5800  141.8510 C   0  0  0  0  0  2  0  0  0  0  0  0
  191.0600  177.0620  142.2750 N   0  0  0  0  0  2  0  0  0  0  0  0
  191.0910  176.8820  144.5860 C   0  0  2  0  0  3  0  0  0  0  0  0
  191.6410  176.0530  145.7460 C   0  0  0  0  0  2  0  0  0  0  0  0
  189.9730  178.0010  139.7430 C   0  0  0  0  0  2  0  0  0  0  0  0
  188.9290  179.3910  138.1320 O   0  0  0  0  0  0  0  0  0  0  0  0
  189.0960  178.2140  138.5500 C   0  0  0  0  0  0  0  0  0  0  0  0
  187.2920  174.8290  136.6020 C   0  0  0  0  0  0  0  0  0  0  0  0
  189.2170  175.9500  137.5360 C   0  0  0  0  0  3  0  0  0  0  0  0
  186.1270  178.1600  137.9210 C   0  0  0  0  0  1  0  0  0  0  0  0
  186.5830  173.4410  135.8090 Cl  0  0  0  0  0  0  0  0  0  0  0  0
  188.6540  174.8410  136.9030 C   0  0  0  0  0  3  0  0  0  0  0  0
  187.0500  177.0410  137.5710 C   0  0  0  0  0  0  0  0  0  0  0  0
  188.4340  177.0640  137.8810 C   0  0  0  0  0  0  0  0  0  0  0  0
  186.4960  175.9250  136.9360 C   0  0  0  0  0  3  0  0  0  0  0  0
  1 14  1  0  0  0  0
  1  9  1  6  0  0  0
  2  3  1  0  0  0  0
  3  7  1  1  0  0  0
  4 11  1  0  0  0  0
  5  2  1  0  0  0  0
  5 14  1  0  0  0  0
  6  1  1  0  0  0  0
  7  4  1  0  0  0  0
  8 13  1  0  0  0  0
 10 19  1  0  0  0  0
 12  8  2  0  0  0  0
 12 16  1  0  0  0  0
 13 18  1  0  0  0  0
 13  2  2  0  0  0  0
 15 11  1  0  0  0  0
 16  5  2  0  0  0  0
 17 16  1  0  0  0  0
 17  6  1  0  0  0  0
 18 10  1  0  0  0  0
 19  3  1  0  0  0  0
 19 20  1  1  0  0  0
 20 15  1  0  0  0  0
 21  8  1  0  0  0  0
 22 23  2  0  0  0  0
 23 21  1  0  0  0  0
 24 28  2  0  0  0  0
 24 31  1  0  0  0  0
 25 30  2  0  0  0  0
 27 24  1  0  0  0  0
 28 25  1  0  0  0  0
 29 30  1  0  0  0  0
 29 26  1  0  0  0  0
 30 23  1  0  0  0  0
 31 29  2  0  0  0  0
M  END
>  <MODEL>
1

>  <REMARK>
 VINA RESULT:     -10.0      0.000      0.000
  Name = 
  3 active torsions:
  status: ('A' for Active; 'I' for Inactive)
    1  A    between atoms: C_9  and  C_22
    2  A    between atoms: C_9  and  C_23
    3  A    between atoms: C_15  and  C_23
                            x       y       z     vdW  Elec       q    Type
                         _______ _______ _______ _____ _____    ______ ____

>  <TORSDO>
F 3

$$$$
=
 OpenBabel10272400323D

 31 35  0  0  1  0  0  0  0  0999 V2000
  184.1780  178.4720  138.4820 C   0  0  2  0  0  3  0  0  0  0  0  0
  187.8980  177.5780  138.8650 C   0  0  0  0  0  0  0  0  0  0  0  0
  188.2620  177.0040  137.5020 C   0  0  2  0  0  3  0  0  0  0  0  0
  187.0240  175.7260  135.6520 C   0  0  0  0  0  2  0  0  0  0  0  0
  186.6130  178.1030  139.1310 C   0  0  0  0  0  0  0  0  0  0  0  0
  184.1220  179.4900  139.6170 C   0  0  0  0  0  2  0  0  0  0  0  0
  187.3000  175.8650  137.1570 C   0  0  0  0  0  2  0  0  0  0  0  0
  188.5210  178.0350  141.1670 C   0  0  0  0  0  0  0  0  0  0  0  0
  183.5500  177.1450  138.8810 C   0  0  0  0  0  1  0  0  0  0  0  0
  190.6350  177.2180  138.2330 N   0  0  0  0  0  2  0  0  0  0  0  0
  188.1300  176.1740  134.8060 N   0  0  0  0  0  2  0  0  0  0  0  0
  187.2670  178.4940  141.4070 N   0  0  0  0  0  0  0  0  0  0  0  0
  188.8660  177.6000  139.8810 C   0  0  0  0  0  0  0  0  0  0  0  0
  185.6160  178.2790  138.0080 C   0  0  0  0  0  2  0  0  0  0  0  0
  189.3380  175.4360  135.1440 C   0  0  0  0  0  2  0  0  0  0  0  0
  186.3210  178.5640  140.4340 C   0  0  0  0  0  0  0  0  0  0  0  0
  184.9430  179.0280  140.8180 C   0  0  0  0  0  2  0  0  0  0  0  0
  190.2040  177.2160  139.5680 N   0  0  0  0  0  2  0  0  0  0  0  0
  189.6970  176.4180  137.4510 C   0  0  2  0  0  3  0  0  0  0  0  0
  190.2250  176.3070  136.0220 C   0  0  0  0  0  2  0  0  0  0  0  0
  189.5300  178.0610  142.2710 C   0  0  0  0  0  2  0  0  0  0  0  0
  189.3520  175.7490  142.7570 O   0  0  0  0  0  0  0  0  0  0  0  0
  189.3020  176.9220  143.2130 C   0  0  0  0  0  0  0  0  0  0  0  0
  188.3620  177.6680  147.3440 C   0  0  0  0  0  0  0  0  0  0  0  0
  187.6960  177.4520  145.0320 C   0  0  0  0  0  3  0  0  0  0  0  0
  191.4480  176.8250  145.3570 C   0  0  0  0  0  1  0  0  0  0  0  0
  187.9530  177.9750  149.0170 Cl  0  0  0  0  0  0  0  0  0  0  0  0
  187.3680  177.6970  146.3660 C   0  0  0  0  0  3  0  0  0  0  0  0
  190.0220  177.1420  145.6530 C   0  0  0  0  0  0  0  0  0  0  0  0
  189.0180  177.1710  144.6510 C   0  0  0  0  0  0  0  0  0  0  0  0
  189.6810  177.3900  146.9870 C   0  0  0  0  0  3  0  0  0  0  0  0
  1  9  1  1  0  0  0
  1  6  1  0  0  0  0
  2  5  2  0  0  0  0
  2 13  1  0  0  0  0
  3  7  1  1  0  0  0
  3  2  1  0  0  0  0
  4  7  1  0  0  0  0
  5 16  1  0  0  0  0
  6 17  1  0  0  0  0
  8 12  1  0  0  0  0
  8 21  1  0  0  0  0
 10 18  1  0  0  0  0
 11 15  1  0  0  0  0
 11  4  1  0  0  0  0
 13  8  2  0  0  0  0
 14  1  1  0  0  0  0
 14  5  1  0  0  0  0
 15 20  1  0  0  0  0
 16 17  1  0  0  0  0
 16 12  2  0  0  0  0
 18 13  1  0  0  0  0
 19 20  1  6  0  0  0
 19  3  1  0  0  0  0
 19 10  1  0  0  0  0
 21 23  1  0  0  0  0
 22 23  2  0  0  0  0
 23 30  1  0  0  0  0
 24 27  1  0  0  0  0
 25 28  1  0  0  0  0
 26 29  1  0  0  0  0
 28 24  2  0  0  0  0
 29 31  2  0  0  0  0
 30 25  2  0  0  0  0
 30 29  1  0  0  0  0
 31 24  1  0  0  0  0
M  END
>  <MODEL>
2

>  <REMARK>
 VINA RESULT:      -9.9      3.388      7.674
  Name = 
  3 active torsions:
  status: ('A' for Active; 'I' for Inactive)
    1  A    between atoms: C_9  and  C_22
    2  A    between atoms: C_9  and  C_23
    3  A    between atoms: C_15  and  C_23
                            x       y       z     vdW  Elec       q    Type
                         _______ _______ _______ _____ _____    ______ ____

>  <TORSDO>
F 3

$$$$
=
 OpenBabel10272400323D

 31 35  0  0  1  0  0  0  0  0999 V2000
  187.1630  177.4280  136.5000 C   0  0  2  0  0  3  0  0  0  0  0  0
  190.4820  177.0110  138.3940 C   0  0  0  0  0  0  0  0  0  0  0  0
  191.4410  176.5220  137.3160 C   0  0  2  0  0  3  0  0  0  0  0  0
  191.2400  175.1410  135.1620 C   0  0  0  0  0  2  0  0  0  0  0  0
  189.1450  177.3590  138.0970 C   0  0  0  0  0  0  0  0  0  0  0  0
  186.5180  178.4020  137.4810 C   0  0  0  0  0  2  0  0  0  0  0  0
  190.8570  175.2780  136.6440 C   0  0  0  0  0  2  0  0  0  0  0  0
  190.0460  177.4870  140.7350 C   0  0  0  0  0  0  0  0  0  0  0  0
  186.6010  176.0220  136.6480 C   0  0  0  0  0  1  0  0  0  0  0  0
  193.2590  177.0210  138.9450 N   0  0  0  0  0  2  0  0  0  0  0  0
  192.5290  175.7480  134.8280 N   0  0  0  0  0  2  0  0  0  0  0  0
  188.7570  177.7760  140.4280 N   0  0  0  0  0  0  0  0  0  0  0  0
  190.9390  177.1320  139.7150 C   0  0  0  0  0  0  0  0  0  0  0  0
  188.6810  177.4330  136.6600 C   0  0  0  0  0  2  0  0  0  0  0  0
  193.5760  175.1630  135.6520 C   0  0  0  0  0  2  0  0  0  0  0  0
  188.2900  177.7470  139.1530 C   0  0  0  0  0  0  0  0  0  0  0  0
  186.8290  178.0200  138.9260 C   0  0  0  0  0  2  0  0  0  0  0  0
  192.3250  176.9310  139.9880 N   0  0  0  0  0  2  0  0  0  0  0  0
  192.8330  176.1270  137.8740 C   0  0  2  0  0  3  0  0  0  0  0  0
  193.9080  176.1200  136.7880 C   0  0  0  0  0  2  0  0  0  0  0  0
  190.5050  177.6160  142.1530 C   0  0  0  0  0  2  0  0  0  0  0  0
  190.1130  175.3940  142.8750 O   0  0  0  0  0  0  0  0  0  0  0  0
  189.8140  176.6090  143.0180 C   0  0  0  0  0  0  0  0  0  0  0  0
  186.7860  177.8460  145.8120 C   0  0  0  0  0  0  0  0  0  0  0  0
  187.4720  177.2100  143.5850 C   0  0  0  0  0  3  0  0  0  0  0  0
  190.4740  177.0890  145.9410 C   0  0  0  0  0  1  0  0  0  0  0  0
  185.5370  178.3490  146.9280 Cl  0  0  0  0  0  0  0  0  0  0  0  0
  186.4730  177.6110  144.4730 C   0  0  0  0  0  3  0  0  0  0  0  0
  189.1050  177.2760  145.3790 C   0  0  0  0  0  0  0  0  0  0  0  0
  188.7980  177.0350  144.0150 C   0  0  0  0  0  0  0  0  0  0  0  0
  188.0960  177.6770  146.2600 C   0  0  0  0  0  3  0  0  0  0  0  0
  1  9  1  1  0  0  0
  1 14  1  0  0  0  0
  1  6  1  0  0  0  0
  2 13  1  0  0  0  0
  3  7  1  1  0  0  0
  3 19  1  0  0  0  0
  3  2  1  0  0  0  0
  4  7  1  0  0  0  0
  5  2  2  0  0  0  0
  5 16  1  0  0  0  0
  6 17  1  0  0  0  0
  8 21  1  0  0  0  0
 10 18  1  0  0  0  0
 11  4  1  0  0  0  0
 11 15  1  0  0  0  0
 12  8  1  0  0  0  0
 13 18  1  0  0  0  0
 13  8  2  0  0  0  0
 14  5  1  0  0  0  0
 15 20  1  0  0  0  0
 16 12  2  0  0  0  0
 17 16  1  0  0  0  0
 19 20  1  6  0  0  0
 19 10  1  0  0  0  0
 21 23  1  0  0  0  0
 22 23  2  0  0  0  0
 23 30  1  0  0  0  0
 24 31  1  0  0  0  0
 24 27  1  0  0  0  0
 25 30  2  0  0  0  0
 25 28  1  0  0  0  0
 28 24  2  0  0  0  0
 29 26  1  0  0  0  0
 29 31  2  0  0  0  0
 30 29  1  0  0  0  0
M  END
>  <MODEL>
3

>  <REMARK>
 VINA RESULT:      -9.9      3.469      7.635
  Name = 
  3 active torsions:
  status: ('A' for Active; 'I' for Inactive)
    1  A    between atoms: C_9  and  C_22
    2  A    between atoms: C_9  and  C_23
    3  A    between atoms: C_15  and  C_23
                            x       y       z     vdW  Elec       q    Type
                         _______ _______ _______ _____ _____    ______ ____

>  <TORSDO>
F 3

$$$$
=
 OpenBabel10272400323D

 31 35  0  0  1  0  0  0  0  0999 V2000
  185.0860  178.3120  144.5460 C   0  0  2  0  0  3  0  0  0  0  0  0
  188.5290  177.6950  142.9500 C   0  0  0  0  0  0  0  0  0  0  0  0
  189.3780  177.2240  144.1230 C   0  0  2  0  0  3  0  0  0  0  0  0
  189.4150  177.6400  146.6550 C   0  0  0  0  0  2  0  0  0  0  0  0
  187.1490  177.9690  143.0950 C   0  0  0  0  0  0  0  0  0  0  0  0
  184.2720  178.2100  143.2600 C   0  0  0  0  0  2  0  0  0  0  0  0
  189.3040  178.2540  145.2510 C   0  0  0  0  0  2  0  0  0  0  0  0
  188.3820  178.3770  140.6240 C   0  0  0  0  0  0  0  0  0  0  0  0
  185.2610  179.7560  144.9920 C   0  0  0  0  0  1  0  0  0  0  0  0
  191.0480  176.5220  142.4110 N   0  0  0  0  0  2  0  0  0  0  0  0
  190.1980  176.4040  146.6980 N   0  0  0  0  0  2  0  0  0  0  0  0
  187.0690  178.6710  140.8010 N   0  0  0  0  0  0  0  0  0  0  0  0
  189.1250  177.8520  141.6900 C   0  0  0  0  0  0  0  0  0  0  0  0
  186.4360  177.6200  144.3810 C   0  0  0  0  0  2  0  0  0  0  0  0
  191.5340  176.6510  146.1730 C   0  0  0  0  0  2  0  0  0  0  0  0
  186.4310  178.4630  141.9820 C   0  0  0  0  0  0  0  0  0  0  0  0
  184.9920  178.8820  142.0940 C   0  0  0  0  0  2  0  0  0  0  0  0
  190.4750  177.4290  141.5080 N   0  0  0  0  0  2  0  0  0  0  0  0
  190.8760  177.0540  143.7600 C   0  0  2  0  0  3  0  0  0  0  0  0
  191.6080  176.1400  144.7410 C   0  0  0  0  0  2  0  0  0  0  0  0
  188.9950  178.5610  139.2720 C   0  0  0  0  0  2  0  0  0  0  0  0
  187.5290  176.9700  138.3030 O   0  0  0  0  0  0  0  0  0  0  0  0
  188.7190  177.3700  138.4080 C   0  0  0  0  0  0  0  0  0  0  0  0
  191.9600  175.3150  136.4650 C   0  0  0  0  0  0  0  0  0  0  0  0
  190.6970  175.8680  138.4480 C   0  0  0  0  0  3  0  0  0  0  0  0
  189.1560  177.5990  135.4140 C   0  0  0  0  0  1  0  0  0  0  0  0
  193.2850  174.4690  135.6980 Cl  0  0  0  0  0  0  0  0  0  0  0  0
  191.7550  175.1920  137.8390 C   0  0  0  0  0  3  0  0  0  0  0  0
  190.0410  176.7930  136.3020 C   0  0  0  0  0  0  0  0  0  0  0  0
  189.8250  176.6750  137.6990 C   0  0  0  0  0  0  0  0  0  0  0  0
  191.1050  176.1110  135.7020 C   0  0  0  0  0  3  0  0  0  0  0  0
  1  9  1  6  0  0  0
  2  5  1  0  0  0  0
  2  3  1  0  0  0  0
  3  7  1  1  0  0  0
  4 11  1  0  0  0  0
  5 14  1  0  0  0  0
  6  1  1  0  0  0  0
  7  4  1  0  0  0  0
  8 12  2  0  0  0  0
  8 13  1  0  0  0  0
 10 19  1  0  0  0  0
 12 16  1  0  0  0  0
 13  2  2  0  0  0  0
 14  1  1  0  0  0  0
 15 11  1  0  0  0  0
 16 17  1  0  0  0  0
 16  5  2  0  0  0  0
 17  6  1  0  0  0  0
 18 13  1  0  0  0  0
 18 10  1  0  0  0  0
 19  3  1  0  0  0  0
 19 20  1  1  0  0  0
 20 15  1  0  0  0  0
 21  8  1  0  0  0  0
 22 23  2  0  0  0  0
 23 21  1  0  0  0  0
 24 28  1  0  0  0  0
 26 29  1  0  0  0  0
 27 24  1  0  0  0  0
 28 25  2  0  0  0  0
 29 30  2  0  0  0  0
 30 23  1  0  0  0  0
 30 25  1  0  0  0  0
 31 29  1  0  0  0  0
 31 24  2  0  0  0  0
M  END
>  <MODEL>
4

>  <REMARK>
 VINA RESULT:      -9.7      1.825      2.229
  Name = 
  3 active torsions:
  status: ('A' for Active; 'I' for Inactive)
    1  A    between atoms: C_9  and  C_22
    2  A    between atoms: C_9  and  C_23
    3  A    between atoms: C_15  and  C_23
                            x       y       z     vdW  Elec       q    Type
                         _______ _______ _______ _____ _____    ______ ____

>  <TORSDO>
F 3

$$$$
=
 OpenBabel10272400323D

 31 35  0  0  1  0  0  0  0  0999 V2000
  185.5370  178.3640  146.7700 C   0  0  2  0  0  3  0  0  0  0  0  0
  187.8470  177.5490  143.8070 C   0  0  0  0  0  0  0  0  0  0  0  0
  189.1040  177.0150  144.4810 C   0  0  2  0  0  3  0  0  0  0  0  0
  190.3030  177.4060  146.7160 C   0  0  0  0  0  2  0  0  0  0  0  0
  186.7000  177.9070  144.5510 C   0  0  0  0  0  0  0  0  0  0  0  0
  184.2260  178.3250  145.9900 C   0  0  0  0  0  2  0  0  0  0  0  0
  189.6080  178.0380  145.5010 C   0  0  0  0  0  2  0  0  0  0  0  0
  186.7090  178.2590  141.7830 C   0  0  0  0  0  0  0  0  0  0  0  0
  185.9790  179.7910  147.0590 C   0  0  0  0  0  1  0  0  0  0  0  0
  189.7790  176.2260  142.2150 N   0  0  0  0  0  2  0  0  0  0  0  0
  190.9470  176.1240  146.4270 N   0  0  0  0  0  2  0  0  0  0  0  0
  185.6370  178.6320  142.5260 N   0  0  0  0  0  0  0  0  0  0  0  0
  187.8200  177.6800  142.4100 C   0  0  0  0  0  0  0  0  0  0  0  0
  186.6230  177.5910  146.0280 C   0  0  0  0  0  2  0  0  0  0  0  0
  191.9140  176.2920  145.3520 C   0  0  0  0  0  2  0  0  0  0  0  0
  185.5890  178.4540  143.8720 C   0  0  0  0  0  0  0  0  0  0  0  0
  184.3820  178.9610  144.6110 C   0  0  0  0  0  2  0  0  0  0  0  0
  188.9150  177.1750  141.6480 N   0  0  0  0  0  2  0  0  0  0  0  0
  190.2650  176.7560  143.4860 C   0  0  2  0  0  3  0  0  0  0  0  0
  191.3040  175.7890  144.0510 C   0  0  0  0  0  2  0  0  0  0  0  0
  186.6560  178.4160  140.2960 C   0  0  0  0  0  2  0  0  0  0  0  0
  184.8480  179.9150  139.9780 O   0  0  0  0  0  0  0  0  0  0  0  0
  185.2610  178.7310  139.8540 C   0  0  0  0  0  0  0  0  0  0  0  0
  182.6650  175.6580  138.3300 C   0  0  0  0  0  0  0  0  0  0  0  0
  183.3080  177.2110  140.0650 C   0  0  0  0  0  3  0  0  0  0  0  0
  185.6880  177.5360  137.0970 C   0  0  0  0  0  1  0  0  0  0  0  0
  181.5950  174.4100  137.7340 Cl  0  0  0  0  0  0  0  0  0  0  0  0
  182.4530  176.2150  139.5920 C   0  0  0  0  0  3  0  0  0  0  0  0
  184.5920  177.0980  138.0090 C   0  0  0  0  0  0  0  0  0  0  0  0
  184.3860  177.6700  139.2910 C   0  0  0  0  0  0  0  0  0  0  0  0
  183.7290  176.1010  137.5440 C   0  0  0  0  0  3  0  0  0  0  0  0
  1  9  1  6  0  0  0
  2  3  1  0  0  0  0
  2  5  1  0  0  0  0
  3  7  1  1  0  0  0
  5 14  1  0  0  0  0
  6  1  1  0  0  0  0
  7  4  1  0  0  0  0
  8 13  1  0  0  0  0
  8 12  2  0  0  0  0
 10 19  1  0  0  0  0
 11  4  1  0  0  0  0
 12 16  1  0  0  0  0
 13  2  2  0  0  0  0
 14  1  1  0  0  0  0
 15 11  1  0  0  0  0
 16  5  2  0  0  0  0
 16 17  1  0  0  0  0
 17  6  1  0  0  0  0
 18 10  1  0  0  0  0
 18 13  1  0  0  0  0
 19 20  1  1  0  0  0
 19  3  1  0  0  0  0
 20 15  1  0  0  0  0
 21  8  1  0  0  0  0
 23 22  2  0  0  0  0
 23 21  1  0  0  0  0
 24 28  1  0  0  0  0
 26 29  1  0  0  0  0
 27 24  1  0  0  0  0
 28 25  2  0  0  0  0
 29 30  2  0  0  0  0
 30 23  1  0  0  0  0
 30 25  1  0  0  0  0
 31 29  1  0  0  0  0
 31 24  2  0  0  0  0
M  END
>  <MODEL>
5

>  <REMARK>
 VINA RESULT:      -9.4      2.298      3.163
  Name = 
  3 active torsions:
  status: ('A' for Active; 'I' for Inactive)
    1  A    between atoms: C_9  and  C_22
    2  A    between atoms: C_9  and  C_23
    3  A    between atoms: C_15  and  C_23
                            x       y       z     vdW  Elec       q    Type
                         _______ _______ _______ _____ _____    ______ ____

>  <TORSDO>
F 3

$$$$
=
 OpenBabel10272400323D

 31 35  0  0  1  0  0  0  0  0999 V2000
  185.2190  178.1550  145.2010 C   0  0  2  0  0  3  0  0  0  0  0  0
  188.5800  177.6170  143.4130 C   0  0  0  0  0  0  0  0  0  0  0  0
  189.4840  177.0890  144.5190 C   0  0  2  0  0  3  0  0  0  0  0  0
  189.6420  177.3800  147.0640 C   0  0  0  0  0  2  0  0  0  0  0  0
  187.2100  177.8840  143.6370 C   0  0  0  0  0  0  0  0  0  0  0  0
  184.3440  178.1160  143.9510 C   0  0  0  0  0  2  0  0  0  0  0  0
  189.4650  178.0630  145.6990 C   0  0  0  0  0  2  0  0  0  0  0  0
  188.3240  178.4120  141.1330 C   0  0  0  0  0  0  0  0  0  0  0  0
  185.4180  179.5750  145.7070 C   0  0  0  0  0  1  0  0  0  0  0  0
  191.0680  176.4720  142.6980 N   0  0  0  0  0  2  0  0  0  0  0  0
  190.4240  176.1440  147.0090 N   0  0  0  0  0  2  0  0  0  0  0  0
  187.0220  178.6970  141.3870 N   0  0  0  0  0  0  0  0  0  0  0  0
  189.1160  177.8360  142.1350 C   0  0  0  0  0  0  0  0  0  0  0  0
  186.5580  177.4720  144.9370 C   0  0  0  0  0  2  0  0  0  0  0  0
  191.7330  176.4170  146.4340 C   0  0  0  0  0  2  0  0  0  0  0  0
  186.4410  178.4320  142.5850 C   0  0  0  0  0  0  0  0  0  0  0  0
  185.0100  178.8440  142.7860 C   0  0  0  0  0  2  0  0  0  0  0  0
  190.4550  177.4220  141.8680 N   0  0  0  0  0  2  0  0  0  0  0  0
  190.9620  176.9370  144.0770 C   0  0  2  0  0  3  0  0  0  0  0  0
  191.7370  175.9760  144.9760 C   0  0  0  0  0  2  0  0  0  0  0  0
  188.8720  178.6620  139.7640 C   0  0  0  0  0  2  0  0  0  0  0  0
  186.9410  178.2370  138.4560 O   0  0  0  0  0  0  0  0  0  0  0  0
  188.1120  177.8720  138.7460 C   0  0  0  0  0  0  0  0  0  0  0  0
  189.9920  174.4620  136.9160 C   0  0  0  0  0  0  0  0  0  0  0  0
  190.0900  176.4350  138.3070 C   0  0  0  0  0  3  0  0  0  0  0  0
  186.5300  175.9430  137.0170 C   0  0  0  0  0  1  0  0  0  0  0  0
  190.7790  173.0830  136.1840 Cl  0  0  0  0  0  0  0  0  0  0  0  0
  190.7210  175.3350  137.7230 C   0  0  0  0  0  3  0  0  0  0  0  0
  187.9900  175.7870  137.2770 C   0  0  0  0  0  0  0  0  0  0  0  0
  188.7230  176.6820  138.0980 C   0  0  0  0  0  0  0  0  0  0  0  0
  188.6330  174.6880  136.6970 C   0  0  0  0  0  3  0  0  0  0  0  0
  1  9  1  6  0  0  0
  2  5  1  0  0  0  0
  2  3  1  0  0  0  0
  3  7  1  1  0  0  0
  5 14  1  0  0  0  0
  6  1  1  0  0  0  0
  7  4  1  0  0  0  0
  8 12  2  0  0  0  0
  8 13  1  0  0  0  0
 10 19  1  0  0  0  0
 11  4  1  0  0  0  0
 12 16  1  0  0  0  0
 13  2  2  0  0  0  0
 14  1  1  0  0  0  0
 15 11  1  0  0  0  0
 16 17  1  0  0  0  0
 16  5  2  0  0  0  0
 17  6  1  0  0  0  0
 18 13  1  0  0  0  0
 18 10  1  0  0  0  0
 19  3  1  0  0  0  0
 19 20  1  1  0  0  0
 20 15  1  0  0  0  0
 21  8  1  0  0  0  0
 22 23  2  0  0  0  0
 23 21  1  0  0  0  0
 24 28  1  0  0  0  0
 26 29  1  0  0  0  0
 27 24  1  0  0  0  0
 28 25  2  0  0  0  0
 29 30  2  0  0  0  0
 30 25  1  0  0  0  0
 30 23  1  0  0  0  0
 31 24  2  0  0  0  0
 31 29  1  0  0  0  0
M  END
>  <MODEL>
6

>  <REMARK>
 VINA RESULT:      -9.4      1.234      1.471
  Name = 
  3 active torsions:
  status: ('A' for Active; 'I' for Inactive)
    1  A    between atoms: C_9  and  C_22
    2  A    between atoms: C_9  and  C_23
    3  A    between atoms: C_15  and  C_23
                            x       y       z     vdW  Elec       q    Type
                         _______ _______ _______ _____ _____    ______ ____

>  <TORSDO>
F 3

$$$$
=
 OpenBabel10272400323D

 31 35  0  0  1  0  0  0  0  0999 V2000
  185.3410  178.1720  144.5450 C   0  0  2  0  0  3  0  0  0  0  0  0
  188.9650  177.4720  143.4680 C   0  0  0  0  0  0  0  0  0  0  0  0
  189.6440  177.0650  144.7690 C   0  0  2  0  0  3  0  0  0  0  0  0
  189.3390  177.6180  147.2570 C   0  0  0  0  0  2  0  0  0  0  0  0
  187.5810  177.7520  143.4080 C   0  0  0  0  0  0  0  0  0  0  0  0
  184.7090  178.0000  143.1660 C   0  0  0  0  0  2  0  0  0  0  0  0
  189.4240  178.1550  145.8200 C   0  0  0  0  0  2  0  0  0  0  0  0
  189.1420  178.0260  141.1110 C   0  0  0  0  0  0  0  0  0  0  0  0
  185.4640  179.6380  144.9310 C   0  0  0  0  0  1  0  0  0  0  0  0
  191.5270  176.2730  143.3420 N   0  0  0  0  0  2  0  0  0  0  0  0
  190.1010  176.3870  147.4730 N   0  0  0  0  0  2  0  0  0  0  0  0
  187.8190  178.3280  141.0910 N   0  0  0  0  0  0  0  0  0  0  0  0
  189.7290  177.5600  142.2940 C   0  0  0  0  0  0  0  0  0  0  0  0
  186.6970  177.4730  144.6020 C   0  0  0  0  0  2  0  0  0  0  0  0
  191.4970  176.6060  147.1220 C   0  0  0  0  0  2  0  0  0  0  0  0
  187.0250  178.1840  142.1830 C   0  0  0  0  0  0  0  0  0  0  0  0
  185.5870  178.6080  142.0750 C   0  0  0  0  0  2  0  0  0  0  0  0
  191.0880  177.1290  142.3210 N   0  0  0  0  0  2  0  0  0  0  0  0
  191.1760  176.8770  144.6240 C   0  0  2  0  0  3  0  0  0  0  0  0
  191.7610  176.0180  145.7430 C   0  0  0  0  0  2  0  0  0  0  0  0
  189.9340  178.1370  139.8470 C   0  0  0  0  0  2  0  0  0  0  0  0
  190.2070  175.8730  139.2000 O   0  0  0  0  0  0  0  0  0  0  0  0
  189.6490  176.9740  138.9490 C   0  0  0  0  0  0  0  0  0  0  0  0
  186.9070  177.4190  135.6640 C   0  0  0  0  0  0  0  0  0  0  0  0
  187.4050  177.5080  138.0260 C   0  0  0  0  0  3  0  0  0  0  0  0
  190.5330  176.4910  136.0860 C   0  0  0  0  0  1  0  0  0  0  0  0
  185.7730  177.6060  134.3460 Cl  0  0  0  0  0  0  0  0  0  0  0  0
  186.4990  177.6580  136.9760 C   0  0  0  0  0  3  0  0  0  0  0  0
  189.1390  176.8790  136.4490 C   0  0  0  0  0  0  0  0  0  0  0  0
  188.7340  177.1190  137.7870 C   0  0  0  0  0  0  0  0  0  0  0  0
  188.2220  177.0330  135.4040 C   0  0  0  0  0  3  0  0  0  0  0  0
  1 14  1  0  0  0  0
  1  9  1  6  0  0  0
  2  3  1  0  0  0  0
  3  7  1  1  0  0  0
  4 11  1  0  0  0  0
  5  2  1  0  0  0  0
  5 14  1  0  0  0  0
  6  1  1  0  0  0  0
  7  4  1  0  0  0  0
  8 13  1  0  0  0  0
 10 19  1  0  0  0  0
 12  8  2  0  0  0  0
 12 16  1  0  0  0  0
 13 18  1  0  0  0  0
 13  2  2  0  0  0  0
 15 11  1  0  0  0  0
 16  5  2  0  0  0  0
 17 16  1  0  0  0  0
 17  6  1  0  0  0  0
 18 10  1  0  0  0  0
 19  3  1  0  0  0  0
 19 20  1  1  0  0  0
 20 15  1  0  0  0  0
 21  8  1  0  0  0  0
 23 22  2  0  0  0  0
 23 21  1  0  0  0  0
 24 28  1  0  0  0  0
 26 29  1  0  0  0  0
 27 24  1  0  0  0  0
 28 25  2  0  0  0  0
 29 30  2  0  0  0  0
 30 25  1  0  0  0  0
 30 23  1  0  0  0  0
 31 24  2  0  0  0  0
 31 29  1  0  0  0  0
M  END
>  <MODEL>
7

>  <REMARK>
 VINA RESULT:      -9.3      1.346      1.814
  Name = 
  3 active torsions:
  status: ('A' for Active; 'I' for Inactive)
    1  A    between atoms: C_9  and  C_22
    2  A    between atoms: C_9  and  C_23
    3  A    between atoms: C_15  and  C_23
                            x       y       z     vdW  Elec       q    Type
                         _______ _______ _______ _____ _____    ______ ____

>  <TORSDO>
F 3

$$$$
=
 OpenBabel10272400323D

 31 35  0  0  1  0  0  0  0  0999 V2000
  186.7270  177.3480  136.4810 C   0  0  2  0  0  3  0  0  0  0  0  0
  189.6740  177.2630  138.9490 C   0  0  0  0  0  0  0  0  0  0  0  0
  190.8000  176.6500  138.1270 C   0  0  2  0  0  3  0  0  0  0  0  0
  190.9650  174.9840  136.1820 C   0  0  0  0  0  2  0  0  0  0  0  0
  188.4070  177.5390  138.3850 C   0  0  0  0  0  0  0  0  0  0  0  0
  185.9280  178.4350  137.1960 C   0  0  0  0  0  2  0  0  0  0  0  0
  190.3360  175.3140  137.5440 C   0  0  0  0  0  2  0  0  0  0  0  0
  188.8470  178.0460  141.0940 C   0  0  0  0  0  0  0  0  0  0  0  0
  186.1440  175.9650  136.7250 C   0  0  0  0  0  1  0  0  0  0  0  0
  192.3160  177.4050  139.9560 N   0  0  0  0  0  2  0  0  0  0  0  0
  192.2940  175.5670  135.9900 N   0  0  0  0  0  2  0  0  0  0  0  0
  187.6290  178.2630  140.5360 N   0  0  0  0  0  0  0  0  0  0  0  0
  189.8990  177.5730  140.2990 C   0  0  0  0  0  0  0  0  0  0  0  0
  188.1950  177.4070  136.8940 C   0  0  0  0  0  2  0  0  0  0  0  0
  193.1840  175.1210  137.0520 C   0  0  0  0  0  2  0  0  0  0  0  0
  187.3860  178.0500  139.2170 C   0  0  0  0  0  0  0  0  0  0  0  0
  185.9870  178.2600  138.7110 C   0  0  0  0  0  2  0  0  0  0  0  0
  191.2170  177.4390  140.8270 N   0  0  0  0  0  2  0  0  0  0  0  0
  192.0760  176.3640  138.9610 C   0  0  2  0  0  3  0  0  0  0  0  0
  193.3200  176.2310  138.0850 C   0  0  0  0  0  2  0  0  0  0  0  0
  189.0570  178.3770  142.5370 C   0  0  0  0  0  2  0  0  0  0  0  0
  187.9430  176.3530  143.0630 O   0  0  0  0  0  0  0  0  0  0  0  0
  188.8530  177.1620  143.3860 C   0  0  0  0  0  0  0  0  0  0  0  0
  191.3910  176.4230  146.7800 C   0  0  0  0  0  0  0  0  0  0  0  0
  191.0030  176.4380  144.3950 C   0  0  0  0  0  3  0  0  0  0  0  0
  187.8920  177.6980  146.2150 C   0  0  0  0  0  1  0  0  0  0  0  0
  192.4430  176.1140  148.1420 Cl  0  0  0  0  0  0  0  0  0  0  0  0
  191.8440  176.1910  145.4810 C   0  0  0  0  0  3  0  0  0  0  0  0
  189.2480  177.1560  145.9090 C   0  0  0  0  0  0  0  0  0  0  0  0
  189.6990  176.9220  144.5840 C   0  0  0  0  0  0  0  0  0  0  0  0
  190.0990  176.9050  146.9900 C   0  0  0  0  0  3  0  0  0  0  0  0
  1  9  1  1  0  0  0
  1 14  1  0  0  0  0
  1  6  1  0  0  0  0
  2 13  1  0  0  0  0
  3  7  1  1  0  0  0
  3  2  1  0  0  0  0
  3 19  1  0  0  0  0
  4  7  1  0  0  0  0
  5  2  2  0  0  0  0
  5 16  1  0  0  0  0
  6 17  1  0  0  0  0
  8 21  1  0  0  0  0
 10 18  1  0  0  0  0
 11  4  1  0  0  0  0
 11 15  1  0  0  0  0
 12  8  1  0  0  0  0
 13 18  1  0  0  0  0
 13  8  2  0  0  0  0
 14  5  1  0  0  0  0
 15 20  1  0  0  0  0
 16 12  2  0  0  0  0
 17 16  1  0  0  0  0
 19 20  1  6  0  0  0
 19 10  1  0  0  0  0
 21 23  1  0  0  0  0
 22 23  2  0  0  0  0
 23 30  1  0  0  0  0
 24 31  1  0  0  0  0
 24 27  1  0  0  0  0
 25 30  2  0  0  0  0
 25 28  1  0  0  0  0
 28 24  2  0  0  0  0
 29 26  1  0  0  0  0
 29 31  2  0  0  0  0
 30 29  1  0  0  0  0
M  END
>  <MODEL>
8

>  <REMARK>
 VINA RESULT:      -9.3      3.427      7.486
  Name = 
  3 active torsions:
  status: ('A' for Active; 'I' for Inactive)
    1  A    between atoms: C_9  and  C_22
    2  A    between atoms: C_9  and  C_23
    3  A    between atoms: C_15  and  C_23
                            x       y       z     vdW  Elec       q    Type
                         _______ _______ _______ _____ _____    ______ ____

>  <TORSDO>
F 3

$$$$
=
 OpenBabel10272400323D

 31 35  0  0  1  0  0  0  0  0999 V2000
  190.9970  177.7100  144.7290 C   0  0  2  0  0  3  0  0  0  0  0  0
  187.7490  178.2340  142.7400 C   0  0  0  0  0  0  0  0  0  0  0  0
  186.7230  178.5430  143.8220 C   0  0  2  0  0  3  0  0  0  0  0  0
  186.3950  177.9050  146.2860 C   0  0  0  0  0  2  0  0  0  0  0  0
  189.1160  178.0400  143.0460 C   0  0  0  0  0  0  0  0  0  0  0  0
  191.9590  177.9780  143.5750 C   0  0  0  0  0  2  0  0  0  0  0  0
  186.7320  177.4250  144.8670 C   0  0  0  0  0  2  0  0  0  0  0  0
  188.2430  177.7700  140.4090 C   0  0  0  0  0  0  0  0  0  0  0  0
  190.8790  176.2240  145.0330 C   0  0  0  0  0  1  0  0  0  0  0  0
  185.2350  179.2790  141.9630 N   0  0  0  0  0  2  0  0  0  0  0  0
  185.5200  179.0770  146.3210 N   0  0  0  0  0  2  0  0  0  0  0  0
  189.5420  177.5500  140.7360 N   0  0  0  0  0  0  0  0  0  0  0  0
  187.3320  178.1480  141.4030 C   0  0  0  0  0  0  0  0  0  0  0  0
  189.6300  178.3220  144.4390 C   0  0  0  0  0  2  0  0  0  0  0  0
  184.2850  178.7880  145.6050 C   0  0  0  0  0  2  0  0  0  0  0  0
  190.0060  177.6950  142.0040 C   0  0  0  0  0  0  0  0  0  0  0  0
  191.4470  177.3650  142.2740 C   0  0  0  0  0  2  0  0  0  0  0  0
  185.9880  178.4950  141.0760 N   0  0  0  0  0  2  0  0  0  0  0  0
  185.2750  178.6430  143.2770 C   0  0  2  0  0  3  0  0  0  0  0  0
  184.3550  179.4170  144.2200 C   0  0  0  0  0  2  0  0  0  0  0  0
  187.8240  177.6650  138.9760 C   0  0  0  0  0  2  0  0  0  0  0  0
  188.9820  179.5380  138.1000 O   0  0  0  0  0  0  0  0  0  0  0  0
  188.8540  178.2850  138.0850 C   0  0  0  0  0  0  0  0  0  0  0  0
  191.3850  175.8350  135.6160 C   0  0  0  0  0  0  0  0  0  0  0  0
  190.8930  176.9130  137.7210 C   0  0  0  0  0  3  0  0  0  0  0  0
  188.1000  177.6340  135.2180 C   0  0  0  0  0  1  0  0  0  0  0  0
  192.4320  174.8360  134.6330 Cl  0  0  0  0  0  0  0  0  0  0  0  0
  191.7290  176.1160  136.9380 C   0  0  0  0  0  3  0  0  0  0  0  0
  189.3580  177.1480  135.8550 C   0  0  0  0  0  0  0  0  0  0  0  0
  189.6990  177.4410  137.2010 C   0  0  0  0  0  0  0  0  0  0  0  0
  190.2040  176.3470  135.0800 C   0  0  0  0  0  3  0  0  0  0  0  0
  1  9  1  6  0  0  0
  2  5  1  0  0  0  0
  2  3  1  0  0  0  0
  3  7  1  1  0  0  0
  4 11  1  0  0  0  0
  5 14  1  0  0  0  0
  6  1  1  0  0  0  0
  7  4  1  0  0  0  0
  8 12  2  0  0  0  0
  8 13  1  0  0  0  0
 10 19  1  0  0  0  0
 12 16  1  0  0  0  0
 13  2  2  0  0  0  0
 14  1  1  0  0  0  0
 15 11  1  0  0  0  0
 16 17  1  0  0  0  0
 16  5  2  0  0  0  0
 17  6  1  0  0  0  0
 18 13  1  0  0  0  0
 18 10  1  0  0  0  0
 19  3  1  0  0  0  0
 19 20  1  1  0  0  0
 20 15  1  0  0  0  0
 21  8  1  0  0  0  0
 23 22  2  0  0  0  0
 23 21  1  0  0  0  0
 24 28  1  0  0  0  0
 26 29  1  0  0  0  0
 27 24  1  0  0  0  0
 28 25  2  0  0  0  0
 29 30  2  0  0  0  0
 30 25  1  0  0  0  0
 30 23  1  0  0  0  0
 31 24  2  0  0  0  0
 31 29  1  0  0  0  0
M  END
>  <MODEL>
9

>  <REMARK>
 VINA RESULT:      -9.2      2.220      4.445
  Name = 
  3 active torsions:
  status: ('A' for Active; 'I' for Inactive)
    1  A    between atoms: C_9  and  C_22
    2  A    between atoms: C_9  and  C_23
    3  A    between atoms: C_15  and  C_23
                            x       y       z     vdW  Elec       q    Type
                         _______ _______ _______ _____ _____    ______ ____

>  <TORSDO>
F 3

$$$$
