=
 OpenBabel10262423493D

 34 40  0  0  1  0  0  0  0  0999 V2000
  186.8760  178.2050  146.3430 C   0  0  0  0  0  0  0  0  0  0  0  0
  188.5800  177.0190  145.0470 C   0  0  0  0  0  0  0  0  0  0  0  0
  186.7000  178.1340  143.9220 C   0  0  0  0  0  0  0  0  0  0  0  0
  186.7870  178.5740  141.3930 C   0  0  1  0  0  3  0  0  0  0  0  0
  188.8250  177.2940  147.4480 C   0  0  0  0  0  3  0  0  0  0  0  0
  189.3000  176.8060  146.2260 C   0  0  0  0  0  3  0  0  0  0  0  0
  188.3510  177.2050  142.3570 C   0  0  0  0  0  0  0  0  0  0  0  0
  187.3800  177.7670  145.0960 C   0  0  0  0  0  0  0  0  0  0  0  0
  187.3810  177.8100  140.2910 N   0  0  0  0  0  2  0  0  0  0  0  0
  187.6080  177.9770  147.5100 C   0  0  0  0  0  3  0  0  0  0  0  0
  185.4490  178.7790  143.9820 C   0  0  0  0  0  0  0  0  0  0  0  0
  185.6590  178.8910  146.4060 C   0  0  0  0  0  3  0  0  0  0  0  0
  189.0860  176.1010  143.5700 S   0  0  0  0  0  0  0  0  0  0  0  0
  185.2660  178.4600  141.4320 C   0  0  0  0  0  2  0  0  0  0  0  0
  184.7130  179.1600  142.6950 C   0  0  1  0  0  3  0  0  0  0  0  0
  188.5320  177.1060  140.8830 C   0  0  1  0  0  3  0  0  0  0  0  0
  187.3240  177.9630  142.6160 C   0  0  0  0  0  0  0  0  0  0  0  0
  184.9460  179.1670  145.2350 C   0  0  0  0  0  3  0  0  0  0  0  0
  181.0750  178.5300  141.7450 C   0  0  0  0  0  0  0  0  0  0  0  0
  180.4680  178.5250  143.0050 C   0  0  0  0  0  3  0  0  0  0  0  0
  183.2320  178.9440  142.7890 C   0  0  0  0  0  0  0  0  0  0  0  0
  181.2400  178.7370  144.1570 C   0  0  0  0  0  3  0  0  0  0  0  0
  182.4540  178.7400  141.6340 C   0  0  0  0  0  3  0  0  0  0  0  0
  182.6190  178.9470  144.0500 C   0  0  0  0  0  3  0  0  0  0  0  0
  180.3280  178.3230  140.6270 F   0  0  0  0  0  0  0  0  0  0  0  0
  189.8220  177.7970  140.4670 C   0  0  0  0  0  2  0  0  0  0  0  0
  190.7910  176.8070  140.0180 N   0  0  0  0  0  2  0  0  0  0  0  0
  189.3730  177.1730  137.4270 C   0  0  0  0  0  1  0  0  0  0  0  0
  191.4580  177.3600  138.8460 C   0  0  2  0  0  3  0  0  0  0  0  0
  190.8380  176.8050  137.5570 C   0  0  1  0  0  3  0  0  0  0  0  0
  192.4530  174.8350  137.8430 C   0  0  0  0  0  2  0  0  0  0  0  0
  193.4380  176.0070  137.9040 C   0  0  0  0  0  2  0  0  0  0  0  0
  192.9680  177.0570  138.9260 C   0  0  0  0  0  2  0  0  0  0  0  0
  191.0340  175.2890  137.4380 C   0  0  0  0  0  2  0  0  0  0  0  0
  1 12  1  0  0  0  0
  1 10  2  0  0  0  0
  2  8  2  0  0  0  0
  2  6  1  0  0  0  0
  3 11  2  0  0  0  0
  3  8  1  0  0  0  0
  4 14  1  1  0  0  0
  4 17  1  0  0  0  0
  5 10  1  0  0  0  0
  6  5  2  0  0  0  0
  7 17  2  0  0  0  0
  7 13  1  0  0  0  0
  8  1  1  0  0  0  0
  9 16  1  0  0  0  0
  9  4  1  0  0  0  0
 11 18  1  0  0  0  0
 13  2  1  0  0  0  0
 14 15  1  0  0  0  0
 15 21  1  1  0  0  0
 15 11  1  0  0  0  0
 16 26  1  1  0  0  0
 16  7  1  0  0  0  0
 17  3  1  0  0  0  0
 18 12  2  0  0  0  0
 19 20  1  0  0  0  0
 20 22  2  0  0  0  0
 21 24  2  0  0  0  0
 23 19  2  0  0  0  0
 23 21  1  0  0  0  0
 24 22  1  0  0  0  0
 25 19  1  0  0  0  0
 27 26  1  0  0  0  0
 29 33  1  0  0  0  0
 29 27  1  1  0  0  0
 30 28  1  1  0  0  0
 30 29  1  0  0  0  0
 31 32  1  0  0  0  0
 32 33  1  0  0  0  0
 34 30  1  0  0  0  0
 34 31  1  0  0  0  0
M  END
>  <MODEL>
1

>  <REMARK>
 VINA RESULT:     -10.0      0.000      0.000
  Name = 
  4 active torsions:
  status: ('A' for Active; 'I' for Inactive)
    1  A    between atoms: N_3  and  C_13
    2  A    between atoms: N_3  and  C_17
    3  A    between atoms: C_12  and  C_28
    4  A    between atoms: C_17  and  C_29
                            x       y       z     vdW  Elec       q    Type
                         _______ _______ _______ _____ _____    ______ ____

>  <TORSDO>
F 4

$$$$
=
 OpenBabel10262423493D

 34 40  0  0  1  0  0  0  0  0999 V2000
  185.4860  178.1700  142.9310 C   0  0  0  0  0  0  0  0  0  0  0  0
  186.6420  178.5380  140.8060 C   0  0  0  0  0  0  0  0  0  0  0  0
  187.8170  177.5280  142.7140 C   0  0  0  0  0  0  0  0  0  0  0  0
  190.0600  176.3260  142.3600 C   0  0  1  0  0  3  0  0  0  0  0  0
  184.2610  178.9690  141.0050 C   0  0  0  0  0  3  0  0  0  0  0  0
  185.4330  178.9550  140.2420 C   0  0  0  0  0  3  0  0  0  0  0  0
  189.1710  177.5850  140.6640 C   0  0  0  0  0  0  0  0  0  0  0  0
  186.6630  178.0960  142.1490 C   0  0  0  0  0  0  0  0  0  0  0  0
  191.1660  176.5810  141.4310 N   0  0  0  0  0  2  0  0  0  0  0  0
  184.2890  178.5950  142.3500 C   0  0  0  0  0  3  0  0  0  0  0  0
  187.8660  177.1950  144.0820 C   0  0  0  0  0  0  0  0  0  0  0  0
  185.5130  177.7930  144.2770 C   0  0  0  0  0  3  0  0  0  0  0  0
  188.1600  178.8380  139.8650 S   0  0  0  0  0  0  0  0  0  0  0  0
  190.3860  176.7470  143.7890 C   0  0  0  0  0  2  0  0  0  0  0  0
  189.1370  176.5920  144.6870 C   0  0  1  0  0  3  0  0  0  0  0  0
  190.5420  177.1890  140.2420 C   0  0  1  0  0  3  0  0  0  0  0  0
  188.9530  177.1630  141.8760 C   0  0  0  0  0  0  0  0  0  0  0  0
  186.6960  177.3190  144.8510 C   0  0  0  0  0  3  0  0  0  0  0  0
  188.7290  178.2460  148.0970 C   0  0  0  0  0  0  0  0  0  0  0  0
  190.0080  178.0660  148.6340 C   0  0  0  0  0  3  0  0  0  0  0  0
  189.4290  177.1160  146.0610 C   0  0  0  0  0  0  0  0  0  0  0  0
  191.0000  177.4190  147.8840 C   0  0  0  0  0  3  0  0  0  0  0  0
  188.4380  177.7740  146.8130 C   0  0  0  0  0  3  0  0  0  0  0  0
  190.7130  176.9450  146.6000 C   0  0  0  0  0  3  0  0  0  0  0  0
  187.7650  178.8730  148.8250 F   0  0  0  0  0  0  0  0  0  0  0  0
  190.4700  176.1620  139.1220 C   0  0  0  0  0  2  0  0  0  0  0  0
  190.2470  176.8320  137.8490 N   0  0  0  0  0  2  0  0  0  0  0  0
  191.0030  176.1070  135.0630 C   0  0  0  0  0  1  0  0  0  0  0  0
  189.4260  175.9450  137.0350 C   0  0  2  0  0  3  0  0  0  0  0  0
  189.5760  176.2830  135.5450 C   0  0  1  0  0  3  0  0  0  0  0  0
  187.7310  178.0180  135.9390 C   0  0  0  0  0  2  0  0  0  0  0  0
  187.0450  176.7610  136.4850 C   0  0  0  0  0  2  0  0  0  0  0  0
  187.9580  176.0410  137.4930 C   0  0  0  0  0  2  0  0  0  0  0  0
  189.0620  177.6910  135.2260 C   0  0  0  0  0  2  0  0  0  0  0  0
  1 12  1  0  0  0  0
  2  8  1  0  0  0  0
  3 11  2  0  0  0  0
  4 14  1  1  0  0  0
  5 10  2  0  0  0  0
  6  2  2  0  0  0  0
  6  5  1  0  0  0  0
  7 17  2  0  0  0  0
  8  3  1  0  0  0  0
  8  1  2  0  0  0  0
  9  4  1  0  0  0  0
 10  1  1  0  0  0  0
 11 15  1  0  0  0  0
 11 18  1  0  0  0  0
 12 18  2  0  0  0  0
 13  7  1  0  0  0  0
 13  2  1  0  0  0  0
 14 15  1  0  0  0  0
 15 21  1  1  0  0  0
 16 26  1  6  0  0  0
 16  7  1  0  0  0  0
 16  9  1  0  0  0  0
 17  4  1  0  0  0  0
 17  3  1  0  0  0  0
 19 20  1  0  0  0  0
 19 25  1  0  0  0  0
 21 24  2  0  0  0  0
 21 23  1  0  0  0  0
 22 20  2  0  0  0  0
 23 19  2  0  0  0  0
 24 22  1  0  0  0  0
 27 26  1  0  0  0  0
 29 33  1  0  0  0  0
 29 27  1  1  0  0  0
 30 28  1  1  0  0  0
 30 29  1  0  0  0  0
 31 32  1  0  0  0  0
 32 33  1  0  0  0  0
 34 30  1  0  0  0  0
 34 31  1  0  0  0  0
M  END
>  <MODEL>
2

>  <REMARK>
 VINA RESULT:      -9.8      2.812      5.858
  Name = 
  4 active torsions:
  status: ('A' for Active; 'I' for Inactive)
    1  A    between atoms: N_3  and  C_13
    2  A    between atoms: N_3  and  C_17
    3  A    between atoms: C_12  and  C_28
    4  A    between atoms: C_17  and  C_29
                            x       y       z     vdW  Elec       q    Type
                         _______ _______ _______ _____ _____    ______ ____

>  <TORSDO>
F 4

$$$$
=
 OpenBabel10262423493D

 34 40  0  0  1  0  0  0  0  0999 V2000
  186.1170  178.4780  138.6410 C   0  0  0  0  0  0  0  0  0  0  0  0
  186.4410  178.4240  141.0660 C   0  0  0  0  0  0  0  0  0  0  0  0
  188.2580  177.7720  139.5440 C   0  0  0  0  0  0  0  0  0  0  0  0
  190.6670  177.5830  140.4140 C   0  0  1  0  0  3  0  0  0  0  0  0
  184.3940  179.3190  140.1160 C   0  0  0  0  0  3  0  0  0  0  0  0
  185.1770  178.9970  141.2290 C   0  0  0  0  0  3  0  0  0  0  0  0
  188.9400  177.8110  141.9040 C   0  0  0  0  0  0  0  0  0  0  0  0
  186.9390  178.2050  139.7600 C   0  0  0  0  0  0  0  0  0  0  0  0
  191.2030  177.1640  141.7130 N   0  0  0  0  0  2  0  0  0  0  0  0
  184.8540  179.0450  138.8260 C   0  0  0  0  0  3  0  0  0  0  0  0
  188.7110  177.4470  138.2500 C   0  0  0  0  0  0  0  0  0  0  0  0
  186.5780  178.2060  137.3490 C   0  0  0  0  0  3  0  0  0  0  0  0
  187.2590  177.7510  142.5360 S   0  0  0  0  0  0  0  0  0  0  0  0
  190.8590  176.5260  139.3320 C   0  0  0  0  0  2  0  0  0  0  0  0
  190.1460  176.9620  138.0310 C   0  0  1  0  0  3  0  0  0  0  0  0
  190.1680  177.5260  142.6970 C   0  0  1  0  0  3  0  0  0  0  0  0
  189.2250  177.7580  140.6340 C   0  0  0  0  0  0  0  0  0  0  0  0
  187.8610  177.6850  137.1560 C   0  0  0  0  0  3  0  0  0  0  0  0
  189.6560  173.6430  136.2210 C   0  0  0  0  0  0  0  0  0  0  0  0
  190.4190  173.8540  135.0680 C   0  0  0  0  0  3  0  0  0  0  0  0
  190.2380  175.8690  137.0090 C   0  0  0  0  0  0  0  0  0  0  0  0
  191.0990  175.0670  134.8870 C   0  0  0  0  0  3  0  0  0  0  0  0
  189.5650  174.6460  137.1920 C   0  0  0  0  0  3  0  0  0  0  0  0
  191.0100  176.0730  135.8560 C   0  0  0  0  0  3  0  0  0  0  0  0
  188.9950  172.4660  136.3960 F   0  0  0  0  0  0  0  0  0  0  0  0
  190.6000  178.7710  143.4580 C   0  0  0  0  0  2  0  0  0  0  0  0
  190.3590  178.5890  144.8820 N   0  0  0  0  0  2  0  0  0  0  0  0
  187.8460  177.4720  146.0200 C   0  0  0  0  0  1  0  0  0  0  0  0
  190.1850  177.1600  145.1090 C   0  0  2  0  0  3  0  0  0  0  0  0
  189.2290  176.9100  146.2840 C   0  0  1  0  0  3  0  0  0  0  0  0
  191.2980  177.1390  147.7800 C   0  0  0  0  0  2  0  0  0  0  0  0
  191.7840  176.0610  146.8040 C   0  0  0  0  0  2  0  0  0  0  0  0
  191.5620  176.5090  145.3490 C   0  0  0  0  0  2  0  0  0  0  0  0
  189.7960  177.4480  147.6030 C   0  0  0  0  0  2  0  0  0  0  0  0
  1 10  2  0  0  0  0
  1  8  1  0  0  0  0
  2  6  1  0  0  0  0
  2 13  1  0  0  0  0
  3  8  1  0  0  0  0
  3 17  1  0  0  0  0
  4 14  1  6  0  0  0
  4 17  1  0  0  0  0
  4  9  1  0  0  0  0
  5  6  2  0  0  0  0
  7 13  1  0  0  0  0
  7 16  1  0  0  0  0
  8  2  2  0  0  0  0
  9 16  1  0  0  0  0
 10  5  1  0  0  0  0
 11  3  2  0  0  0  0
 12  1  1  0  0  0  0
 15 21  1  6  0  0  0
 15 11  1  0  0  0  0
 15 14  1  0  0  0  0
 16 26  1  6  0  0  0
 17  7  2  0  0  0  0
 18 12  2  0  0  0  0
 18 11  1  0  0  0  0
 19 25  1  0  0  0  0
 19 23  1  0  0  0  0
 20 19  2  0  0  0  0
 21 23  2  0  0  0  0
 22 20  1  0  0  0  0
 22 24  2  0  0  0  0
 24 21  1  0  0  0  0
 26 27  1  0  0  0  0
 29 27  1  1  0  0  0
 29 33  1  0  0  0  0
 29 30  1  0  0  0  0
 30 28  1  6  0  0  0
 30 34  1  0  0  0  0
 32 31  1  0  0  0  0
 33 32  1  0  0  0  0
 34 31  1  0  0  0  0
M  END
>  <MODEL>
3

>  <REMARK>
 VINA RESULT:      -9.7      3.060      8.102
  Name = 
  4 active torsions:
  status: ('A' for Active; 'I' for Inactive)
    1  A    between atoms: N_3  and  C_13
    2  A    between atoms: N_3  and  C_17
    3  A    between atoms: C_12  and  C_28
    4  A    between atoms: C_17  and  C_29
                            x       y       z     vdW  Elec       q    Type
                         _______ _______ _______ _____ _____    ______ ____

>  <TORSDO>
F 4

$$$$
=
 OpenBabel10262423493D

 34 40  0  0  1  0  0  0  0  0999 V2000
  185.1250  178.8370  141.7560 C   0  0  0  0  0  0  0  0  0  0  0  0
  186.5360  177.6470  143.3630 C   0  0  0  0  0  0  0  0  0  0  0  0
  187.2470  177.9100  141.0240 C   0  0  0  0  0  0  0  0  0  0  0  0
  189.6880  177.4680  140.3600 C   0  0  1  0  0  3  0  0  0  0  0  0
  184.5100  178.7680  144.0940 C   0  0  0  0  0  3  0  0  0  0  0  0
  185.6420  177.9970  144.3780 C   0  0  0  0  0  3  0  0  0  0  0  0
  188.9530  176.8530  142.4420 C   0  0  0  0  0  0  0  0  0  0  0  0
  186.3030  178.1090  142.0460 C   0  0  0  0  0  0  0  0  0  0  0  0
  190.6770  176.5100  140.8640 N   0  0  0  0  0  2  0  0  0  0  0  0
  184.2410  179.1720  142.7840 C   0  0  0  0  0  3  0  0  0  0  0  0
  186.9600  178.2720  139.6930 C   0  0  0  0  0  0  0  0  0  0  0  0
  184.8570  179.2440  140.4450 C   0  0  0  0  0  3  0  0  0  0  0  0
  187.7960  176.4010  143.7390 S   0  0  0  0  0  0  0  0  0  0  0  0
  189.1310  177.0710  138.9960 C   0  0  0  0  0  2  0  0  0  0  0  0
  187.9920  178.0350  138.5870 C   0  0  1  0  0  3  0  0  0  0  0  0
  190.3240  176.2960  142.2790 C   0  0  1  0  0  3  0  0  0  0  0  0
  188.5890  177.4320  141.3330 C   0  0  0  0  0  0  0  0  0  0  0  0
  185.7630  178.9550  139.4200 C   0  0  0  0  0  3  0  0  0  0  0  0
  186.2520  175.8670  135.9790 C   0  0  0  0  0  0  0  0  0  0  0  0
  186.1980  176.7480  134.8940 C   0  0  0  0  0  3  0  0  0  0  0  0
  187.3700  177.5720  137.3040 C   0  0  0  0  0  0  0  0  0  0  0  0
  186.7350  178.0380  135.0100 C   0  0  0  0  0  3  0  0  0  0  0  0
  186.8380  176.2750  137.1820 C   0  0  0  0  0  3  0  0  0  0  0  0
  187.3210  178.4500  136.2120 C   0  0  0  0  0  3  0  0  0  0  0  0
  185.7290  174.6150  135.8690 F   0  0  0  0  0  0  0  0  0  0  0  0
  191.3040  177.0470  143.1690 C   0  0  0  0  0  2  0  0  0  0  0  0
  191.4410  176.3590  144.4440 N   0  0  0  0  0  2  0  0  0  0  0  0
  192.5460  175.7610  147.1430 C   0  0  0  0  0  1  0  0  0  0  0  0
  191.5550  177.3840  145.4740 C   0  0  2  0  0  3  0  0  0  0  0  0
  191.4400  176.7630  146.8730 C   0  0  1  0  0  3  0  0  0  0  0  0
  188.9060  177.0080  146.5740 C   0  0  0  0  0  2  0  0  0  0  0  0
  189.3550  178.4460  146.2910 C   0  0  0  0  0  2  0  0  0  0  0  0
  190.4810  178.4650  145.2420 C   0  0  0  0  0  2  0  0  0  0  0  0
  190.0620  176.1320  147.1030 C   0  0  0  0  0  2  0  0  0  0  0  0
  1  8  1  0  0  0  0
  1 10  2  0  0  0  0
  2 13  1  0  0  0  0
  2  6  1  0  0  0  0
  3 17  1  0  0  0  0
  3  8  1  0  0  0  0
  4 14  1  6  0  0  0
  4  9  1  0  0  0  0
  4 17  1  0  0  0  0
  5  6  2  0  0  0  0
  7 13  1  0  0  0  0
  8  2  2  0  0  0  0
  9 16  1  0  0  0  0
 10  5  1  0  0  0  0
 11  3  2  0  0  0  0
 12  1  1  0  0  0  0
 15 21  1  6  0  0  0
 15 14  1  0  0  0  0
 15 11  1  0  0  0  0
 16  7  1  0  0  0  0
 16 26  1  1  0  0  0
 17  7  2  0  0  0  0
 18 11  1  0  0  0  0
 18 12  2  0  0  0  0
 19 23  1  0  0  0  0
 20 22  1  0  0  0  0
 20 19  2  0  0  0  0
 22 24  2  0  0  0  0
 23 21  2  0  0  0  0
 24 21  1  0  0  0  0
 25 19  1  0  0  0  0
 26 27  1  0  0  0  0
 29 27  1  6  0  0  0
 29 30  1  0  0  0  0
 30 34  1  0  0  0  0
 30 28  1  6  0  0  0
 31 34  1  0  0  0  0
 32 31  1  0  0  0  0
 33 29  1  0  0  0  0
 33 32  1  0  0  0  0
M  END
>  <MODEL>
4

>  <REMARK>
 VINA RESULT:      -9.7      2.592      6.507
  Name = 
  4 active torsions:
  status: ('A' for Active; 'I' for Inactive)
    1  A    between atoms: N_3  and  C_13
    2  A    between atoms: N_3  and  C_17
    3  A    between atoms: C_12  and  C_28
    4  A    between atoms: C_17  and  C_29
                            x       y       z     vdW  Elec       q    Type
                         _______ _______ _______ _____ _____    ______ ____

>  <TORSDO>
F 4

$$$$
=
 OpenBabel10262423493D

 34 40  0  0  1  0  0  0  0  0999 V2000
  184.2390  178.7900  141.6470 C   0  0  0  0  0  0  0  0  0  0  0  0
  185.6130  178.1760  143.5770 C   0  0  0  0  0  0  0  0  0  0  0  0
  186.6030  178.3320  141.3320 C   0  0  0  0  0  0  0  0  0  0  0  0
  189.1540  178.4270  141.0500 C   0  0  1  0  0  3  0  0  0  0  0  0
  183.2980  178.8430  143.8740 C   0  0  0  0  0  3  0  0  0  0  0  0
  184.5160  178.4120  144.4090 C   0  0  0  0  0  3  0  0  0  0  0  0
  188.2610  177.8970  143.0930 C   0  0  0  0  0  0  0  0  0  0  0  0
  185.4910  178.4110  142.1880 C   0  0  0  0  0  0  0  0  0  0  0  0
  190.2430  177.8050  141.8120 N   0  0  0  0  0  2  0  0  0  0  0  0
  183.1530  179.0150  142.4950 C   0  0  0  0  0  3  0  0  0  0  0  0
  186.4540  178.4550  139.9370 C   0  0  0  0  0  0  0  0  0  0  0  0
  184.0950  178.9640  140.2670 C   0  0  0  0  0  3  0  0  0  0  0  0
  187.0470  177.3290  144.2890 S   0  0  0  0  0  0  0  0  0  0  0  0
  188.9210  177.7510  139.7030 C   0  0  0  0  0  2  0  0  0  0  0  0
  187.6730  178.3520  139.0160 C   0  0  1  0  0  3  0  0  0  0  0  0
  189.7300  177.6770  143.1870 C   0  0  1  0  0  3  0  0  0  0  0  0
  187.9530  178.2360  141.8740 C   0  0  0  0  0  0  0  0  0  0  0  0
  185.1910  178.7880  139.4180 C   0  0  0  0  0  3  0  0  0  0  0  0
  187.0820  175.5210  136.5320 C   0  0  0  0  0  0  0  0  0  0  0  0
  186.8090  176.2440  135.3660 C   0  0  0  0  0  3  0  0  0  0  0  0
  187.3800  177.6060  137.7490 C   0  0  0  0  0  0  0  0  0  0  0  0
  186.8290  177.6460  135.3870 C   0  0  0  0  0  3  0  0  0  0  0  0
  187.3680  176.1980  137.7220 C   0  0  0  0  0  3  0  0  0  0  0  0
  187.1140  178.3260  136.5760 C   0  0  0  0  0  3  0  0  0  0  0  0
  187.0620  174.1610  136.5130 F   0  0  0  0  0  0  0  0  0  0  0  0
  190.3640  178.7420  144.0700 C   0  0  0  0  0  2  0  0  0  0  0  0
  191.1890  178.1140  145.0900 N   0  0  0  0  0  2  0  0  0  0  0  0
  188.9930  177.8020  147.0750 C   0  0  0  0  0  1  0  0  0  0  0  0
  190.5950  176.8160  145.3840 C   0  0  2  0  0  3  0  0  0  0  0  0
  190.0770  176.7710  146.8280 C   0  0  1  0  0  3  0  0  0  0  0  0
  192.4630  176.0910  147.4710 C   0  0  0  0  0  2  0  0  0  0  0  0
  192.1590  175.0380  146.4010 C   0  0  0  0  0  2  0  0  0  0  0  0
  191.6320  175.7070  145.1180 C   0  0  0  0  0  2  0  0  0  0  0  0
  191.2140  176.9180  147.8460 C   0  0  0  0  0  2  0  0  0  0  0  0
  1  8  1  0  0  0  0
  1 10  2  0  0  0  0
  2 13  1  0  0  0  0
  2  6  1  0  0  0  0
  3 17  1  0  0  0  0
  3  8  1  0  0  0  0
  4 14  1  6  0  0  0
  4  9  1  0  0  0  0
  4 17  1  0  0  0  0
  5  6  2  0  0  0  0
  7 16  1  0  0  0  0
  7 13  1  0  0  0  0
  8  2  2  0  0  0  0
  9 16  1  0  0  0  0
 10  5  1  0  0  0  0
 11  3  2  0  0  0  0
 12  1  1  0  0  0  0
 15 21  1  6  0  0  0
 15 14  1  0  0  0  0
 15 11  1  0  0  0  0
 16 26  1  1  0  0  0
 17  7  2  0  0  0  0
 18 11  1  0  0  0  0
 18 12  2  0  0  0  0
 19 23  1  0  0  0  0
 20 22  1  0  0  0  0
 20 19  2  0  0  0  0
 22 24  2  0  0  0  0
 23 21  2  0  0  0  0
 24 21  1  0  0  0  0
 25 19  1  0  0  0  0
 26 27  1  0  0  0  0
 29 27  1  1  0  0  0
 29 30  1  0  0  0  0
 30 28  1  6  0  0  0
 30 34  1  0  0  0  0
 31 34  1  0  0  0  0
 32 31  1  0  0  0  0
 33 29  1  0  0  0  0
 33 32  1  0  0  0  0
M  END
>  <MODEL>
5

>  <REMARK>
 VINA RESULT:      -9.5      2.752      6.562
  Name = 
  4 active torsions:
  status: ('A' for Active; 'I' for Inactive)
    1  A    between atoms: N_3  and  C_13
    2  A    between atoms: N_3  and  C_17
    3  A    between atoms: C_12  and  C_28
    4  A    between atoms: C_17  and  C_29
                            x       y       z     vdW  Elec       q    Type
                         _______ _______ _______ _____ _____    ______ ____

>  <TORSDO>
F 4

$$$$
=
 OpenBabel10262423493D

 34 40  0  0  1  0  0  0  0  0999 V2000
  185.5380  178.0890  143.1900 C   0  0  0  0  0  0  0  0  0  0  0  0
  186.6060  178.4830  141.0240 C   0  0  0  0  0  0  0  0  0  0  0  0
  187.8670  177.4770  142.8790 C   0  0  0  0  0  0  0  0  0  0  0  0
  190.1080  176.3050  142.4300 C   0  0  1  0  0  3  0  0  0  0  0  0
  184.2300  178.8840  141.3180 C   0  0  0  0  0  3  0  0  0  0  0  0
  185.3720  178.8890  140.5100 C   0  0  0  0  0  3  0  0  0  0  0  0
  189.1390  177.5630  140.7780 C   0  0  0  0  0  0  0  0  0  0  0  0
  186.6850  178.0340  142.3630 C   0  0  0  0  0  0  0  0  0  0  0  0
  191.1740  176.5780  141.4610 N   0  0  0  0  0  2  0  0  0  0  0  0
  184.3150  178.5030  142.6590 C   0  0  0  0  0  3  0  0  0  0  0  0
  187.9730  177.1370  144.2420 C   0  0  0  0  0  0  0  0  0  0  0  0
  185.6220  177.7040  144.5320 C   0  0  0  0  0  3  0  0  0  0  0  0
  188.0840  178.8080  140.0270 S   0  0  0  0  0  0  0  0  0  0  0  0
  190.4850  176.7210  143.8490 C   0  0  0  0  0  2  0  0  0  0  0  0
  189.2730  176.5460  144.7930 C   0  0  1  0  0  3  0  0  0  0  0  0
  190.4980  177.1860  140.3010 C   0  0  1  0  0  3  0  0  0  0  0  0
  188.9740  177.1310  141.9960 C   0  0  0  0  0  0  0  0  0  0  0  0
  186.8330  177.2420  145.0560 C   0  0  0  0  0  3  0  0  0  0  0  0
  191.1570  177.2870  148.0230 C   0  0  0  0  0  0  0  0  0  0  0  0
  190.2190  178.0700  148.7040 C   0  0  0  0  0  3  0  0  0  0  0  0
  189.6130  177.0650  146.1580 C   0  0  0  0  0  0  0  0  0  0  0  0
  188.9760  178.3450  148.1180 C   0  0  0  0  0  3  0  0  0  0  0  0
  190.8560  176.7830  146.7530 C   0  0  0  0  0  3  0  0  0  0  0  0
  188.6720  177.8440  146.8480 C   0  0  0  0  0  3  0  0  0  0  0  0
  192.3650  177.0210  148.5910 F   0  0  0  0  0  0  0  0  0  0  0  0
  190.3940  176.1640  139.1780 C   0  0  0  0  0  2  0  0  0  0  0  0
  191.6460  176.1130  138.4380 N   0  0  0  0  0  2  0  0  0  0  0  0
  194.2120  174.8670  137.5870 C   0  0  0  0  0  1  0  0  0  0  0  0
  191.6880  174.8280  137.7520 C   0  0  2  0  0  3  0  0  0  0  0  0
  192.9080  174.7480  136.8230 C   0  0  1  0  0  3  0  0  0  0  0  0
  191.4260  175.9010  135.0780 C   0  0  0  0  0  2  0  0  0  0  0  0
  190.5330  174.7130  135.4520 C   0  0  0  0  0  2  0  0  0  0  0  0
  190.3710  174.6180  136.9790 C   0  0  0  0  0  2  0  0  0  0  0  0
  192.8360  175.7870  135.6990 C   0  0  0  0  0  2  0  0  0  0  0  0
  1 12  1  0  0  0  0
  2  8  1  0  0  0  0
  3 11  2  0  0  0  0
  4 14  1  1  0  0  0
  5 10  2  0  0  0  0
  6  2  2  0  0  0  0
  6  5  1  0  0  0  0
  7 17  2  0  0  0  0
  8  3  1  0  0  0  0
  8  1  2  0  0  0  0
  9  4  1  0  0  0  0
 10  1  1  0  0  0  0
 11 15  1  0  0  0  0
 11 18  1  0  0  0  0
 12 18  2  0  0  0  0
 13  7  1  0  0  0  0
 13  2  1  0  0  0  0
 14 15  1  0  0  0  0
 15 21  1  1  0  0  0
 16 26  1  6  0  0  0
 16  7  1  0  0  0  0
 16  9  1  0  0  0  0
 17  4  1  0  0  0  0
 17  3  1  0  0  0  0
 19 25  1  0  0  0  0
 19 20  1  0  0  0  0
 21 23  1  0  0  0  0
 21 24  2  0  0  0  0
 22 20  2  0  0  0  0
 23 19  2  0  0  0  0
 24 22  1  0  0  0  0
 27 26  1  0  0  0  0
 29 27  1  6  0  0  0
 30 28  1  1  0  0  0
 30 29  1  0  0  0  0
 31 32  1  0  0  0  0
 31 34  1  0  0  0  0
 32 33  1  0  0  0  0
 33 29  1  0  0  0  0
 34 30  1  0  0  0  0
M  END
>  <MODEL>
6

>  <REMARK>
 VINA RESULT:      -9.4      3.163      5.966
  Name = 
  4 active torsions:
  status: ('A' for Active; 'I' for Inactive)
    1  A    between atoms: N_3  and  C_13
    2  A    between atoms: N_3  and  C_17
    3  A    between atoms: C_12  and  C_28
    4  A    between atoms: C_17  and  C_29
                            x       y       z     vdW  Elec       q    Type
                         _______ _______ _______ _____ _____    ______ ____

>  <TORSDO>
F 4

$$$$
=
 OpenBabel10262423493D

 34 40  0  0  1  0  0  0  0  0999 V2000
  185.3360  177.0650  135.8540 C   0  0  0  0  0  0  0  0  0  0  0  0
  187.6240  177.5490  136.5730 C   0  0  0  0  0  0  0  0  0  0  0  0
  185.7260  177.9430  138.0840 C   0  0  0  0  0  0  0  0  0  0  0  0
  186.1280  178.3090  140.5940 C   0  0  1  0  0  3  0  0  0  0  0  0
  187.2040  176.4770  134.4350 C   0  0  0  0  0  3  0  0  0  0  0  0
  188.0960  176.9990  135.3780 C   0  0  0  0  0  3  0  0  0  0  0  0
  187.9060  178.3290  139.1490 C   0  0  0  0  0  0  0  0  0  0  0  0
  186.2350  177.5400  136.8380 C   0  0  0  0  0  0  0  0  0  0  0  0
  187.2250  178.9570  141.3210 N   0  0  0  0  0  2  0  0  0  0  0  0
  185.8270  176.5250  134.6640 C   0  0  0  0  0  3  0  0  0  0  0  0
  184.3370  178.0400  138.3030 C   0  0  0  0  0  0  0  0  0  0  0  0
  183.9570  177.1100  136.0830 C   0  0  0  0  0  3  0  0  0  0  0  0
  188.7950  178.4800  137.5950 S   0  0  0  0  0  0  0  0  0  0  0  0
  184.8630  179.1620  140.5620 C   0  0  0  0  0  2  0  0  0  0  0  0
  183.7970  178.4950  139.6610 C   0  0  1  0  0  3  0  0  0  0  0  0
  188.4170  178.7620  140.4780 C   0  0  1  0  0  3  0  0  0  0  0  0
  186.6170  178.1600  139.2170 C   0  0  0  0  0  0  0  0  0  0  0  0
  183.4610  177.6030  137.2940 C   0  0  0  0  0  3  0  0  0  0  0  0
  181.5470  181.4260  138.7220 C   0  0  0  0  0  0  0  0  0  0  0  0
  180.3410  181.0340  139.3130 C   0  0  0  0  0  3  0  0  0  0  0  0
  182.6020  179.3920  139.5380 C   0  0  0  0  0  0  0  0  0  0  0  0
  180.2650  179.8270  140.0220 C   0  0  0  0  0  3  0  0  0  0  0  0
  182.6770  180.6080  138.8340 C   0  0  0  0  0  3  0  0  0  0  0  0
  181.3930  179.0070  140.1360 C   0  0  0  0  0  3  0  0  0  0  0  0
  181.6210  182.5960  138.0320 F   0  0  0  0  0  0  0  0  0  0  0  0
  189.2970  177.6760  141.0810 C   0  0  0  0  0  2  0  0  0  0  0  0
  189.5680  177.9780  142.4790 N   0  0  0  0  0  2  0  0  0  0  0  0
  187.4700  177.4110  144.5140 C   0  0  0  0  0  1  0  0  0  0  0  0
  189.5220  176.7160  143.2070 C   0  0  2  0  0  3  0  0  0  0  0  0
  188.9000  176.9140  144.5970 C   0  0  1  0  0  3  0  0  0  0  0  0
  191.2630  177.5460  145.3640 C   0  0  0  0  0  2  0  0  0  0  0  0
  191.5410  176.1840  144.7170 C   0  0  0  0  0  2  0  0  0  0  0  0
  190.9430  176.1270  143.3000 C   0  0  0  0  0  2  0  0  0  0  0  0
  189.7510  177.8390  145.4740 C   0  0  0  0  0  2  0  0  0  0  0  0
  1 12  2  0  0  0  0
  1  8  1  0  0  0  0
  2  8  1  0  0  0  0
  2 13  1  0  0  0  0
  3 11  1  0  0  0  0
  3 17  1  0  0  0  0
  4 14  1  6  0  0  0
  4  9  1  0  0  0  0
  5 10  2  0  0  0  0
  5  6  1  0  0  0  0
  6  2  2  0  0  0  0
  7 17  2  0  0  0  0
  7 16  1  0  0  0  0
  8  3  2  0  0  0  0
 10  1  1  0  0  0  0
 11 15  1  0  0  0  0
 12 18  1  0  0  0  0
 13  7  1  0  0  0  0
 15 21  1  6  0  0  0
 15 14  1  0  0  0  0
 16 26  1  1  0  0  0
 16  9  1  0  0  0  0
 17  4  1  0  0  0  0
 18 11  2  0  0  0  0
 19 23  2  0  0  0  0
 19 20  1  0  0  0  0
 20 22  2  0  0  0  0
 21 24  2  0  0  0  0
 22 24  1  0  0  0  0
 23 21  1  0  0  0  0
 25 19  1  0  0  0  0
 26 27  1  0  0  0  0
 29 27  1  1  0  0  0
 29 33  1  0  0  0  0
 29 30  1  0  0  0  0
 30 28  1  6  0  0  0
 30 34  1  0  0  0  0
 31 34  1  0  0  0  0
 32 31  1  0  0  0  0
 33 32  1  0  0  0  0
M  END
>  <MODEL>
7

>  <REMARK>
 VINA RESULT:      -9.1      3.112      6.701
  Name = 
  4 active torsions:
  status: ('A' for Active; 'I' for Inactive)
    1  A    between atoms: N_3  and  C_13
    2  A    between atoms: N_3  and  C_17
    3  A    between atoms: C_12  and  C_28
    4  A    between atoms: C_17  and  C_29
                            x       y       z     vdW  Elec       q    Type
                         _______ _______ _______ _____ _____    ______ ____

>  <TORSDO>
F 4

$$$$
=
 OpenBabel10262423493D

 34 40  0  0  1  0  0  0  0  0999 V2000
  187.0740  177.7620  137.5090 C   0  0  0  0  0  0  0  0  0  0  0  0
  188.0770  178.2550  139.6860 C   0  0  0  0  0  0  0  0  0  0  0  0
  185.6360  178.2840  139.3950 C   0  0  0  0  0  0  0  0  0  0  0  0
  184.0910  178.2550  141.4460 C   0  0  1  0  0  3  0  0  0  0  0  0
  189.4600  177.5270  137.8280 C   0  0  0  0  0  3  0  0  0  0  0  0
  189.3320  177.9390  139.1580 C   0  0  0  0  0  3  0  0  0  0  0  0
  186.3370  178.6160  141.7260 C   0  0  0  0  0  0  0  0  0  0  0  0
  186.9300  178.1220  138.8690 C   0  0  0  0  0  0  0  0  0  0  0  0
  184.2370  178.8380  142.7840 N   0  0  0  0  0  2  0  0  0  0  0  0
  188.3370  177.4560  136.9990 C   0  0  0  0  0  3  0  0  0  0  0  0
  184.5050  178.2610  138.5550 C   0  0  0  0  0  0  0  0  0  0  0  0
  185.9510  177.6880  136.6800 C   0  0  0  0  0  3  0  0  0  0  0  0
  188.0220  179.0730  141.3010 S   0  0  0  0  0  0  0  0  0  0  0  0
  183.1030  179.0250  140.5760 C   0  0  0  0  0  2  0  0  0  0  0  0
  183.1040  178.4540  139.1390 C   0  0  1  0  0  3  0  0  0  0  0  0
  185.6870  178.8550  143.0440 C   0  0  1  0  0  3  0  0  0  0  0  0
  185.4220  178.3630  140.8340 C   0  0  0  0  0  0  0  0  0  0  0  0
  184.6770  177.9460  137.1960 C   0  0  0  0  0  3  0  0  0  0  0  0
  181.2600  181.4330  137.6350 C   0  0  0  0  0  0  0  0  0  0  0  0
  180.5720  180.8170  136.5840 C   0  0  0  0  0  3  0  0  0  0  0  0
  182.2200  179.2870  138.2600 C   0  0  0  0  0  0  0  0  0  0  0  0
  180.7000  179.4360  136.3750 C   0  0  0  0  0  3  0  0  0  0  0  0
  182.0810  180.6720  138.4740 C   0  0  0  0  0  3  0  0  0  0  0  0
  181.5220  178.6720  137.2110 C   0  0  0  0  0  3  0  0  0  0  0  0
  181.1370  182.7730  137.8390 F   0  0  0  0  0  0  0  0  0  0  0  0
  186.0450  177.7380  144.0140 C   0  0  0  0  0  2  0  0  0  0  0  0
  187.2030  178.1230  144.8080 N   0  0  0  0  0  2  0  0  0  0  0  0
  188.8210  177.7510  147.2780 C   0  0  0  0  0  1  0  0  0  0  0  0
  187.9830  176.9150  145.0420 C   0  0  2  0  0  3  0  0  0  0  0  0
  189.2110  177.2230  145.9120 C   0  0  1  0  0  3  0  0  0  0  0  0
  190.3830  177.8410  143.7180 C   0  0  0  0  0  2  0  0  0  0  0  0
  189.8870  176.4320  143.3740 C   0  0  0  0  0  2  0  0  0  0  0  0
  188.3870  176.2950  143.6900 C   0  0  0  0  0  2  0  0  0  0  0  0
  190.1790  178.1820  145.2100 C   0  0  0  0  0  2  0  0  0  0  0  0
  1  8  1  0  0  0  0
  2 13  1  0  0  0  0
  3 17  1  0  0  0  0
  4 14  1  6  0  0  0
  4  9  1  0  0  0  0
  5  6  2  0  0  0  0
  6  2  1  0  0  0  0
  7 16  1  0  0  0  0
  8  3  1  0  0  0  0
  8  2  2  0  0  0  0
  9 16  1  0  0  0  0
 10  1  2  0  0  0  0
 10  5  1  0  0  0  0
 11 15  1  0  0  0  0
 11  3  2  0  0  0  0
 12 18  2  0  0  0  0
 12  1  1  0  0  0  0
 13  7  1  0  0  0  0
 15 21  1  6  0  0  0
 15 14  1  0  0  0  0
 16 26  1  1  0  0  0
 17  4  1  0  0  0  0
 17  7  2  0  0  0  0
 18 11  1  0  0  0  0
 19 25  1  0  0  0  0
 19 23  1  0  0  0  0
 20 19  2  0  0  0  0
 21 23  2  0  0  0  0
 22 20  1  0  0  0  0
 22 24  2  0  0  0  0
 24 21  1  0  0  0  0
 26 27  1  0  0  0  0
 29 27  1  6  0  0  0
 29 30  1  0  0  0  0
 30 28  1  1  0  0  0
 31 34  1  0  0  0  0
 32 33  1  0  0  0  0
 32 31  1  0  0  0  0
 33 29  1  0  0  0  0
 34 30  1  0  0  0  0
M  END
>  <MODEL>
8

>  <REMARK>
 VINA RESULT:      -9.0      2.997      6.515
  Name = 
  4 active torsions:
  status: ('A' for Active; 'I' for Inactive)
    1  A    between atoms: N_3  and  C_13
    2  A    between atoms: N_3  and  C_17
    3  A    between atoms: C_12  and  C_28
    4  A    between atoms: C_17  and  C_29
                            x       y       z     vdW  Elec       q    Type
                         _______ _______ _______ _____ _____    ______ ____

>  <TORSDO>
F 4

$$$$
=
 OpenBabel10262423493D

 34 40  0  0  1  0  0  0  0  0999 V2000
  187.6050  177.9180  137.6060 C   0  0  0  0  0  0  0  0  0  0  0  0
  187.3770  178.0070  140.0410 C   0  0  0  0  0  0  0  0  0  0  0  0
  189.5370  177.4580  139.0040 C   0  0  0  0  0  0  0  0  0  0  0  0
  191.6950  177.5370  140.3940 C   0  0  1  0  0  3  0  0  0  0  0  0
  185.5310  178.6620  138.6060 C   0  0  0  0  0  3  0  0  0  0  0  0
  186.0670  178.4660  139.8830 C   0  0  0  0  0  3  0  0  0  0  0  0
  189.6640  177.6700  141.4480 C   0  0  0  0  0  0  0  0  0  0  0  0
  188.1720  177.7750  138.8950 C   0  0  0  0  0  0  0  0  0  0  0  0
  191.9570  177.2310  141.8040 N   0  0  0  0  0  2  0  0  0  0  0  0
  186.2910  178.3720  137.4700 C   0  0  0  0  0  3  0  0  0  0  0  0
  190.2940  177.1180  137.8660 C   0  0  0  0  0  0  0  0  0  0  0  0
  188.3650  177.6310  136.4690 C   0  0  0  0  0  3  0  0  0  0  0  0
  187.8940  177.4830  141.6960 S   0  0  0  0  0  0  0  0  0  0  0  0
  192.2110  176.4540  139.4530 C   0  0  0  0  0  2  0  0  0  0  0  0
  191.7760  176.7600  138.0010 C   0  0  1  0  0  3  0  0  0  0  0  0
  190.7000  177.5390  142.5090 C   0  0  1  0  0  3  0  0  0  0  0  0
  190.2310  177.5860  140.2790 C   0  0  0  0  0  0  0  0  0  0  0  0
  189.6970  177.2240  136.5980 C   0  0  0  0  0  3  0  0  0  0  0  0
  193.5530  174.7460  135.2950 C   0  0  0  0  0  0  0  0  0  0  0  0
  192.9370  173.5000  135.4440 C   0  0  0  0  0  3  0  0  0  0  0  0
  192.1850  175.6340  137.1000 C   0  0  0  0  0  0  0  0  0  0  0  0
  191.9400  173.3200  136.4140 C   0  0  0  0  0  3  0  0  0  0  0  0
  193.1790  175.8130  136.1190 C   0  0  0  0  0  3  0  0  0  0  0  0
  191.5640  174.3850  137.2400 C   0  0  0  0  0  3  0  0  0  0  0  0
  194.5220  174.9210  134.3560 F   0  0  0  0  0  0  0  0  0  0  0  0
  190.8470  178.8530  143.2630 C   0  0  0  0  0  2  0  0  0  0  0  0
  190.5190  178.6580  144.6670 N   0  0  0  0  0  2  0  0  0  0  0  0
  187.8360  177.5050  145.2480 C   0  0  0  0  0  1  0  0  0  0  0  0
  190.3220  177.2280  144.8680 C   0  0  2  0  0  3  0  0  0  0  0  0
  189.1380  176.9700  145.8110 C   0  0  1  0  0  3  0  0  0  0  0  0
  190.8310  177.2460  147.7160 C   0  0  0  0  0  2  0  0  0  0  0  0
  191.5330  176.1700  146.8810 C   0  0  0  0  0  2  0  0  0  0  0  0
  191.6230  176.6030  145.4060 C   0  0  0  0  0  2  0  0  0  0  0  0
  189.3970  177.5280  147.2150 C   0  0  0  0  0  2  0  0  0  0  0  0
  1  8  1  0  0  0  0
  2 13  1  0  0  0  0
  3 17  1  0  0  0  0
  4 14  1  6  0  0  0
  4  9  1  0  0  0  0
  5  6  2  0  0  0  0
  6  2  1  0  0  0  0
  7 13  1  0  0  0  0
  7 16  1  0  0  0  0
  8  3  1  0  0  0  0
  8  2  2  0  0  0  0
  9 16  1  0  0  0  0
 10  1  2  0  0  0  0
 10  5  1  0  0  0  0
 11 15  1  0  0  0  0
 11  3  2  0  0  0  0
 12 18  2  0  0  0  0
 12  1  1  0  0  0  0
 15 21  1  6  0  0  0
 15 14  1  0  0  0  0
 16 26  1  6  0  0  0
 17  4  1  0  0  0  0
 17  7  2  0  0  0  0
 18 11  1  0  0  0  0
 19 20  2  0  0  0  0
 19 23  1  0  0  0  0
 20 22  1  0  0  0  0
 21 24  1  0  0  0  0
 22 24  2  0  0  0  0
 23 21  2  0  0  0  0
 25 19  1  0  0  0  0
 26 27  1  0  0  0  0
 29 27  1  1  0  0  0
 29 33  1  0  0  0  0
 29 30  1  0  0  0  0
 30 28  1  6  0  0  0
 30 34  1  0  0  0  0
 32 31  1  0  0  0  0
 33 32  1  0  0  0  0
 34 31  1  0  0  0  0
M  END
>  <MODEL>
9

>  <REMARK>
 VINA RESULT:      -8.9      3.971      9.051
  Name = 
  4 active torsions:
  status: ('A' for Active; 'I' for Inactive)
    1  A    between atoms: N_3  and  C_13
    2  A    between atoms: N_3  and  C_17
    3  A    between atoms: C_12  and  C_28
    4  A    between atoms: C_17  and  C_29
                            x       y       z     vdW  Elec       q    Type
                         _______ _______ _______ _____ _____    ______ ____

>  <TORSDO>
F 4

$$$$
