=
 OpenBabel10272400413D

 25 28  0  0  1  0  0  0  0  0999 V2000
  185.1940  178.3640  144.2410 C   0  0  0  0  0  0  0  0  0  0  0  0
  186.3660  177.9620  144.9040 C   0  0  0  0  0  0  0  0  0  0  0  0
  184.1140  178.7830  146.3300 N   0  0  0  0  0  0  0  0  0  0  0  0
  184.9730  178.3950  142.8350 N   0  0  0  0  0  0  0  0  0  0  0  0
  190.0530  177.8180  144.2180 N   0  0  0  0  0  2  0  0  0  0  0  0
  184.0610  178.5120  140.1600 C   0  0  0  0  0  2  0  0  0  0  0  0
  185.2290  178.3950  147.0080 C   0  0  0  0  0  3  0  0  0  0  0  0
  183.6380  178.8160  142.5620 C   0  0  0  0  0  0  0  0  0  0  0  0
  183.1920  178.9360  141.3120 C   0  0  0  0  0  3  0  0  0  0  0  0
  187.6150  177.5020  147.0420 C   0  0  2  0  0  3  0  0  0  0  0  0
  187.8040  178.1790  148.3900 C   0  0  0  0  0  1  0  0  0  0  0  0
  187.5600  177.4250  144.1640 C   0  0  0  0  0  2  0  0  0  0  0  0
  185.5450  178.7230  140.4750 C   0  0  0  0  0  2  0  0  0  0  0  0
  184.0930  178.7790  144.9740 C   0  0  0  0  0  0  0  0  0  0  0  0
  182.6610  179.2590  144.0030 S   0  0  0  0  0  0  0  0  0  0  0  0
  188.8210  177.7010  146.2360 N   0  0  0  0  0  0  0  0  0  0  0  0
  185.9100  178.0090  141.7780 C   0  0  0  0  0  2  0  0  0  0  0  0
  188.8290  177.6530  144.9350 C   0  0  0  0  0  0  0  0  0  0  0  0
  186.3850  177.9960  146.3140 C   0  0  0  0  0  0  0  0  0  0  0  0
  191.2460  177.9580  144.8580 O   0  0  0  0  0  0  0  0  0  0  0  0
  191.8650  176.6910  144.8710 C   0  0  2  0  0  3  0  0  0  0  0  0
  191.2140  175.7830  144.0470 F   0  0  0  0  0  0  0  0  0  0  0  0
  192.0260  176.1580  146.2630 C   0  0  0  0  0  0  0  0  0  0  0  0
  191.8330  176.8890  147.2210 O   0  0  0  0  0  0  0  0  0  0  0  0
  192.3990  174.8670  146.4660 F   0  0  0  0  0  0  0  0  0  0  0  0
  1  2  2  0  0  0  0
  1 14  1  0  0  0  0
  2 19  1  0  0  0  0
  3  7  1  0  0  0  0
  4  1  1  0  0  0  0
  5 20  1  0  0  0  0
  5 18  1  0  0  0  0
  6 13  1  0  0  0  0
  6  9  1  0  0  0  0
  8  4  1  0  0  0  0
  8 15  1  0  0  0  0
  9  8  2  0  0  0  0
 10 11  1  1  0  0  0
 12  2  1  0  0  0  0
 12 18  1  0  0  0  0
 13 17  1  0  0  0  0
 14  3  2  0  0  0  0
 15 14  1  0  0  0  0
 16 10  1  0  0  0  0
 17  4  1  0  0  0  0
 18 16  2  0  0  0  0
 19  7  2  0  0  0  0
 19 10  1  0  0  0  0
 20 21  1  0  0  0  0
 21 22  1  6  0  0  0
 21 23  1  0  0  0  0
 23 25  1  0  0  0  0
 23 24  2  0  0  0  0
M  END
>  <MODEL>
1

>  <REMARK>
 VINA RESULT:      -9.3      0.000      0.000
  Name = 
  3 active torsions:
  status: ('A' for Active; 'I' for Inactive)
    1  A    between atoms: C_2  and  C_21
    2  A    between atoms: N_6  and  O_15
    3  A    between atoms: O_15  and  C_21
                            x       y       z     vdW  Elec       q    Type
                         _______ _______ _______ _____ _____    ______ ____

>  <TORSDO>
F 3

$$$$
=
 OpenBabel10272400413D

 25 28  0  0  1  0  0  0  0  0999 V2000
  186.9250  177.8190  144.8830 C   0  0  0  0  0  0  0  0  0  0  0  0
  188.0570  177.2760  144.2520 C   0  0  0  0  0  0  0  0  0  0  0  0
  188.0400  177.7820  146.9950 N   0  0  0  0  0  0  0  0  0  0  0  0
  185.6830  178.1540  144.2720 N   0  0  0  0  0  0  0  0  0  0  0  0
  189.6150  177.2650  140.8370 N   0  0  0  0  0  2  0  0  0  0  0  0
  183.0470  178.8520  143.5210 C   0  0  0  0  0  2  0  0  0  0  0  0
  189.1540  177.2510  146.4210 C   0  0  0  0  0  3  0  0  0  0  0  0
  184.7700  178.6320  145.2590 C   0  0  0  0  0  0  0  0  0  0  0  0
  183.5390  179.0220  144.9320 C   0  0  0  0  0  3  0  0  0  0  0  0
  190.3990  176.3590  144.3840 C   0  0  2  0  0  3  0  0  0  0  0  0
  191.7030  176.7270  145.0730 C   0  0  0  0  0  1  0  0  0  0  0  0
  188.0610  176.9060  142.7940 C   0  0  0  0  0  2  0  0  0  0  0  0
  184.1920  178.9820  142.5120 C   0  0  0  0  0  2  0  0  0  0  0  0
  186.9470  178.0720  146.2450 C   0  0  0  0  0  0  0  0  0  0  0  0
  185.4330  178.7580  146.9240 S   0  0  0  0  0  0  0  0  0  0  0  0
  190.4890  176.7210  142.9680 N   0  0  0  0  0  0  0  0  0  0  0  0
  185.3130  178.0010  142.8650 C   0  0  0  0  0  2  0  0  0  0  0  0
  189.4490  176.9560  142.2220 C   0  0  0  0  0  0  0  0  0  0  0  0
  189.1970  177.0050  145.0360 C   0  0  0  0  0  0  0  0  0  0  0  0
  190.8380  177.2570  140.2410 O   0  0  0  0  0  0  0  0  0  0  0  0
  190.6240  177.2920  138.8470 C   0  0  2  0  0  3  0  0  0  0  0  0
  189.7310  178.2900  138.4810 F   0  0  0  0  0  0  0  0  0  0  0  0
  190.2150  175.9560  138.3070 C   0  0  0  0  0  0  0  0  0  0  0  0
  191.0040  175.0260  138.3200 O   0  0  0  0  0  0  0  0  0  0  0  0
  188.9710  175.7760  137.7900 F   0  0  0  0  0  0  0  0  0  0  0  0
  1 14  1  0  0  0  0
  2  1  2  0  0  0  0
  2 19  1  0  0  0  0
  4  1  1  0  0  0  0
  4  8  1  0  0  0  0
  5 18  1  0  0  0  0
  6  9  1  0  0  0  0
  7  3  1  0  0  0  0
  8 15  1  0  0  0  0
  9  8  2  0  0  0  0
 10 19  1  0  0  0  0
 10 11  1  1  0  0  0
 12  2  1  0  0  0  0
 13 17  1  0  0  0  0
 13  6  1  0  0  0  0
 14 15  1  0  0  0  0
 14  3  2  0  0  0  0
 16 10  1  0  0  0  0
 17  4  1  0  0  0  0
 18 12  1  0  0  0  0
 18 16  2  0  0  0  0
 19  7  2  0  0  0  0
 20  5  1  0  0  0  0
 21 22  1  1  0  0  0
 21 20  1  0  0  0  0
 23 24  2  0  0  0  0
 23 21  1  0  0  0  0
 25 23  1  0  0  0  0
M  END
>  <MODEL>
2

>  <REMARK>
 VINA RESULT:      -9.1      3.331      4.656
  Name = 
  3 active torsions:
  status: ('A' for Active; 'I' for Inactive)
    1  A    between atoms: C_2  and  C_21
    2  A    between atoms: N_6  and  O_15
    3  A    between atoms: O_15  and  C_21
                            x       y       z     vdW  Elec       q    Type
                         _______ _______ _______ _____ _____    ______ ____

>  <TORSDO>
F 3

$$$$
=
 OpenBabel10272400413D

 25 28  0  0  1  0  0  0  0  0999 V2000
  189.3620  177.3930  144.0750 C   0  0  0  0  0  0  0  0  0  0  0  0
  188.6910  177.5320  142.8470 C   0  0  0  0  0  0  0  0  0  0  0  0
  191.4420  177.0740  142.9440 N   0  0  0  0  0  0  0  0  0  0  0  0
  188.7850  177.4370  145.3750 N   0  0  0  0  0  0  0  0  0  0  0  0
  185.5970  179.1950  141.5280 N   0  0  0  0  0  2  0  0  0  0  0  0
  188.0680  177.3440  148.1110 C   0  0  0  0  0  2  0  0  0  0  0  0
  190.8270  177.1970  141.7350 C   0  0  0  0  0  3  0  0  0  0  0  0
  189.7890  177.2050  146.3620 C   0  0  0  0  0  0  0  0  0  0  0  0
  189.4980  177.2090  147.6610 C   0  0  0  0  0  3  0  0  0  0  0  0
  188.7280  177.5290  140.3290 C   0  0  2  0  0  3  0  0  0  0  0  0
  189.6070  178.0960  139.2270 C   0  0  0  0  0  1  0  0  0  0  0  0
  187.1980  177.6840  142.7640 C   0  0  0  0  0  2  0  0  0  0  0  0
  187.2550  178.1980  147.1330 C   0  0  0  0  0  2  0  0  0  0  0  0
  190.7310  177.1780  144.0950 C   0  0  0  0  0  0  0  0  0  0  0  0
  191.4590  177.0110  145.7270 S   0  0  0  0  0  0  0  0  0  0  0  0
  187.5130  178.3400  140.4340 N   0  0  0  0  0  0  0  0  0  0  0  0
  187.3740  177.6290  145.7170 C   0  0  0  0  0  2  0  0  0  0  0  0
  186.7920  178.4140  141.5150 C   0  0  0  0  0  0  0  0  0  0  0  0
  189.4450  177.4490  141.6580 C   0  0  0  0  0  0  0  0  0  0  0  0
  185.1370  179.8230  140.4120 O   0  0  0  0  0  0  0  0  0  0  0  0
  184.0300  179.0840  139.9430 C   0  0  2  0  0  3  0  0  0  0  0  0
  183.6410  178.0990  140.8410 F   0  0  0  0  0  0  0  0  0  0  0  0
  184.2680  178.5230  138.5740 C   0  0  0  0  0  0  0  0  0  0  0  0
  183.3610  177.9640  137.9790 O   0  0  0  0  0  0  0  0  0  0  0  0
  185.4920  178.6220  137.9940 F   0  0  0  0  0  0  0  0  0  0  0  0
  1 14  1  0  0  0  0
  1  4  1  0  0  0  0
  2  1  2  0  0  0  0
  3 14  2  0  0  0  0
  4 17  1  0  0  0  0
  4  8  1  0  0  0  0
  7  3  1  0  0  0  0
  8  9  2  0  0  0  0
  9  6  1  0  0  0  0
 10 11  1  6  0  0  0
 10 16  1  0  0  0  0
 10 19  1  0  0  0  0
 12  2  1  0  0  0  0
 13  6  1  0  0  0  0
 14 15  1  0  0  0  0
 15  8  1  0  0  0  0
 16 18  2  0  0  0  0
 17 13  1  0  0  0  0
 18  5  1  0  0  0  0
 18 12  1  0  0  0  0
 19  7  2  0  0  0  0
 19  2  1  0  0  0  0
 20  5  1  0  0  0  0
 21 20  1  0  0  0  0
 21 22  1  1  0  0  0
 23 21  1  0  0  0  0
 24 23  2  0  0  0  0
 25 23  1  0  0  0  0
M  END
>  <MODEL>
3

>  <REMARK>
 VINA RESULT:      -9.0      4.570      7.708
  Name = 
  3 active torsions:
  status: ('A' for Active; 'I' for Inactive)
    1  A    between atoms: C_2  and  C_21
    2  A    between atoms: N_6  and  O_15
    3  A    between atoms: O_15  and  C_21
                            x       y       z     vdW  Elec       q    Type
                         _______ _______ _______ _____ _____    ______ ____

>  <TORSDO>
F 3

$$$$
=
 OpenBabel10272400413D

 25 28  0  0  1  0  0  0  0  0999 V2000
  187.7690  177.7210  144.5930 C   0  0  0  0  0  0  0  0  0  0  0  0
  188.4400  177.5220  143.3750 C   0  0  0  0  0  0  0  0  0  0  0  0
  189.7360  177.1320  145.8140 N   0  0  0  0  0  0  0  0  0  0  0  0
  186.4100  178.1060  144.7690 N   0  0  0  0  0  0  0  0  0  0  0  0
  188.2220  178.7440  139.8330 N   0  0  0  0  0  2  0  0  0  0  0  0
  183.7760  178.7380  145.5870 C   0  0  0  0  0  2  0  0  0  0  0  0
  190.4180  176.9230  144.6550 C   0  0  0  0  0  3  0  0  0  0  0  0
  186.0940  178.1540  146.1600 C   0  0  0  0  0  0  0  0  0  0  0  0
  184.8800  178.5020  146.5820 C   0  0  0  0  0  3  0  0  0  0  0  0
  190.5110  176.8480  142.1100 C   0  0  2  0  0  3  0  0  0  0  0  0
  192.0060  177.1090  142.1990 C   0  0  0  0  0  1  0  0  0  0  0  0
  187.7410  177.6320  142.0480 C   0  0  0  0  0  2  0  0  0  0  0  0
  184.3250  179.2930  144.2690 C   0  0  0  0  0  2  0  0  0  0  0  0
  188.4400  177.5320  145.7920 C   0  0  0  0  0  0  0  0  0  0  0  0
  187.4640  177.8140  147.2710 S   0  0  0  0  0  0  0  0  0  0  0  0
  189.9530  177.6460  141.0160 N   0  0  0  0  0  0  0  0  0  0  0  0
  185.4170  178.3680  143.7260 C   0  0  0  0  0  2  0  0  0  0  0  0
  188.7010  177.9990  140.9530 C   0  0  0  0  0  0  0  0  0  0  0  0
  189.7950  177.1320  143.4110 C   0  0  0  0  0  0  0  0  0  0  0  0
  189.0220  179.0470  138.7760 O   0  0  0  0  0  0  0  0  0  0  0  0
  188.5920  178.2620  137.6860 C   0  0  2  0  0  3  0  0  0  0  0  0
  187.4140  177.5810  137.9670 F   0  0  0  0  0  0  0  0  0  0  0  0
  189.6650  177.3360  137.2010 C   0  0  0  0  0  0  0  0  0  0  0  0
  189.4800  176.6590  136.2030 O   0  0  0  0  0  0  0  0  0  0  0  0
  190.8420  177.2360  137.8720 F   0  0  0  0  0  0  0  0  0  0  0  0
  1  4  1  0  0  0  0
  1 14  1  0  0  0  0
  2 19  1  0  0  0  0
  2  1  2  0  0  0  0
  4  8  1  0  0  0  0
  5 18  1  0  0  0  0
  6  9  1  0  0  0  0
  7  3  1  0  0  0  0
  8  9  2  0  0  0  0
  8 15  1  0  0  0  0
 10 11  1  1  0  0  0
 10 19  1  0  0  0  0
 12  2  1  0  0  0  0
 13  6  1  0  0  0  0
 14  3  2  0  0  0  0
 14 15  1  0  0  0  0
 16 10  1  0  0  0  0
 17 13  1  0  0  0  0
 17  4  1  0  0  0  0
 18 16  2  0  0  0  0
 18 12  1  0  0  0  0
 19  7  2  0  0  0  0
 20  5  1  0  0  0  0
 21 22  1  1  0  0  0
 21 20  1  0  0  0  0
 23 21  1  0  0  0  0
 23 25  1  0  0  0  0
 24 23  2  0  0  0  0
M  END
>  <MODEL>
4

>  <REMARK>
 VINA RESULT:      -8.9      3.883      5.968
  Name = 
  3 active torsions:
  status: ('A' for Active; 'I' for Inactive)
    1  A    between atoms: C_2  and  C_21
    2  A    between atoms: N_6  and  O_15
    3  A    between atoms: O_15  and  C_21
                            x       y       z     vdW  Elec       q    Type
                         _______ _______ _______ _____ _____    ______ ____

>  <TORSDO>
F 3

$$$$
=
 OpenBabel10272400413D

 25 28  0  0  1  0  0  0  0  0999 V2000
  186.3020  178.1000  144.8520 C   0  0  0  0  0  0  0  0  0  0  0  0
  185.2670  178.4350  143.9630 C   0  0  0  0  0  0  0  0  0  0  0  0
  184.8570  178.4470  146.7220 N   0  0  0  0  0  0  0  0  0  0  0  0
  187.6390  177.7470  144.5140 N   0  0  0  0  0  0  0  0  0  0  0  0
  184.2870  177.7050  140.4140 N   0  0  0  0  0  2  0  0  0  0  0  0
  190.3890  177.1110  144.3220 C   0  0  0  0  0  2  0  0  0  0  0  0
  183.8310  178.7830  145.8930 C   0  0  0  0  0  3  0  0  0  0  0  0
  188.3990  177.5260  145.7020 C   0  0  0  0  0  0  0  0  0  0  0  0
  189.6810  177.1710  145.6480 C   0  0  0  0  0  3  0  0  0  0  0  0
  182.8990  179.1930  143.5580 C   0  0  2  0  0  3  0  0  0  0  0  0
  181.5160  178.8660  144.0980 C   0  0  0  0  0  1  0  0  0  0  0  0
  185.4850  178.5290  142.4780 C   0  0  0  0  0  2  0  0  0  0  0  0
  189.4290  176.7170  143.1950 C   0  0  0  0  0  2  0  0  0  0  0  0
  186.0690  178.1030  146.2180 C   0  0  0  0  0  0  0  0  0  0  0  0
  187.4780  177.6630  147.2390 S   0  0  0  0  0  0  0  0  0  0  0  0
  183.0560  178.5700  142.2420 N   0  0  0  0  0  0  0  0  0  0  0  0
  188.2280  177.6640  143.1770 C   0  0  0  0  0  2  0  0  0  0  0  0
  184.2120  178.2760  141.7220 C   0  0  0  0  0  0  0  0  0  0  0  0
  184.0040  178.7650  144.4970 C   0  0  0  0  0  0  0  0  0  0  0  0
  183.1780  177.5150  139.6500 O   0  0  0  0  0  0  0  0  0  0  0  0
  183.3110  178.3360  138.5100 C   0  0  2  0  0  3  0  0  0  0  0  0
  184.4990  178.1000  137.8320 F   0  0  0  0  0  0  0  0  0  0  0  0
  183.1390  179.7880  138.8380 C   0  0  0  0  0  0  0  0  0  0  0  0
  184.1080  180.5290  138.8470 O   0  0  0  0  0  0  0  0  0  0  0  0
  181.9110  180.2840  139.1400 F   0  0  0  0  0  0  0  0  0  0  0  0
  1 14  1  0  0  0  0
  2 19  1  0  0  0  0
  2  1  2  0  0  0  0
  4  1  1  0  0  0  0
  4  8  1  0  0  0  0
  5 18  1  0  0  0  0
  6  9  1  0  0  0  0
  7  3  1  0  0  0  0
  8 15  1  0  0  0  0
  9  8  2  0  0  0  0
 10 11  1  1  0  0  0
 10 19  1  0  0  0  0
 12  2  1  0  0  0  0
 13  6  1  0  0  0  0
 14  3  2  0  0  0  0
 14 15  1  0  0  0  0
 16 10  1  0  0  0  0
 17 13  1  0  0  0  0
 17  4  1  0  0  0  0
 18 16  2  0  0  0  0
 18 12  1  0  0  0  0
 19  7  2  0  0  0  0
 20  5  1  0  0  0  0
 21 22  1  1  0  0  0
 21 23  1  0  0  0  0
 21 20  1  0  0  0  0
 23 24  2  0  0  0  0
 23 25  1  0  0  0  0
M  END
>  <MODEL>
5

>  <REMARK>
 VINA RESULT:      -8.4      4.676      7.146
  Name = 
  3 active torsions:
  status: ('A' for Active; 'I' for Inactive)
    1  A    between atoms: C_2  and  C_21
    2  A    between atoms: N_6  and  O_15
    3  A    between atoms: O_15  and  C_21
                            x       y       z     vdW  Elec       q    Type
                         _______ _______ _______ _____ _____    ______ ____

>  <TORSDO>
F 3

$$$$
=
 OpenBabel10272400413D

 25 28  0  0  1  0  0  0  0  0999 V2000
  188.1770  177.6460  145.0630 C   0  0  0  0  0  0  0  0  0  0  0  0
  187.7690  178.0410  143.7770 C   0  0  0  0  0  0  0  0  0  0  0  0
  185.9760  178.0180  145.9140 N   0  0  0  0  0  0  0  0  0  0  0  0
  189.4830  177.2430  145.4610 N   0  0  0  0  0  0  0  0  0  0  0  0
  188.7730  177.4180  140.2150 N   0  0  0  0  0  2  0  0  0  0  0  0
  191.9090  176.4960  146.7100 C   0  0  0  0  0  2  0  0  0  0  0  0
  185.5450  178.4130  144.6840 C   0  0  0  0  0  3  0  0  0  0  0  0
  189.5020  176.9680  146.8610 C   0  0  0  0  0  0  0  0  0  0  0  0
  190.6130  176.5610  147.4710 C   0  0  0  0  0  3  0  0  0  0  0  0
  185.9850  178.9050  142.2240 C   0  0  2  0  0  3  0  0  0  0  0  0
  184.5160  178.6260  141.9490 C   0  0  0  0  0  1  0  0  0  0  0  0
  188.7350  178.1530  142.6300 C   0  0  0  0  0  2  0  0  0  0  0  0
  191.6710  176.1630  145.2330 C   0  0  0  0  0  2  0  0  0  0  0  0
  187.2620  177.6330  146.1050 C   0  0  0  0  0  0  0  0  0  0  0  0
  187.9170  177.1150  147.6940 S   0  0  0  0  0  0  0  0  0  0  0  0
  186.7910  178.3000  141.1610 N   0  0  0  0  0  0  0  0  0  0  0  0
  190.6820  177.1600  144.6250 C   0  0  0  0  0  2  0  0  0  0  0  0
  188.0410  177.9680  141.3110 C   0  0  0  0  0  0  0  0  0  0  0  0
  186.4220  178.4140  143.5850 C   0  0  0  0  0  0  0  0  0  0  0  0
  188.2250  177.2900  138.9770 O   0  0  0  0  0  0  0  0  0  0  0  0
  189.2750  177.3940  138.0410 C   0  0  2  0  0  3  0  0  0  0  0  0
  190.5210  177.4040  138.6530 F   0  0  0  0  0  0  0  0  0  0  0  0
  189.0990  178.5660  137.1240 C   0  0  0  0  0  0  0  0  0  0  0  0
  188.9820  179.6890  137.5860 O   0  0  0  0  0  0  0  0  0  0  0  0
  189.0560  178.3840  135.7780 F   0  0  0  0  0  0  0  0  0  0  0  0
  1  4  1  0  0  0  0
  1 14  1  0  0  0  0
  2  1  2  0  0  0  0
  3 14  2  0  0  0  0
  4  8  1  0  0  0  0
  5 18  1  0  0  0  0
  6  9  1  0  0  0  0
  7  3  1  0  0  0  0
  8  9  2  0  0  0  0
  8 15  1  0  0  0  0
 10 11  1  6  0  0  0
 10 19  1  0  0  0  0
 12  2  1  0  0  0  0
 13  6  1  0  0  0  0
 14 15  1  0  0  0  0
 16 18  2  0  0  0  0
 16 10  1  0  0  0  0
 17 13  1  0  0  0  0
 17  4  1  0  0  0  0
 18 12  1  0  0  0  0
 19  2  1  0  0  0  0
 19  7  2  0  0  0  0
 20  5  1  0  0  0  0
 21 22  1  1  0  0  0
 21 20  1  0  0  0  0
 23 24  2  0  0  0  0
 23 21  1  0  0  0  0
 25 23  1  0  0  0  0
M  END
>  <MODEL>
6

>  <REMARK>
 VINA RESULT:      -8.4      3.812      6.635
  Name = 
  3 active torsions:
  status: ('A' for Active; 'I' for Inactive)
    1  A    between atoms: C_2  and  C_21
    2  A    between atoms: N_6  and  O_15
    3  A    between atoms: O_15  and  C_21
                            x       y       z     vdW  Elec       q    Type
                         _______ _______ _______ _____ _____    ______ ____

>  <TORSDO>
F 3

$$$$
=
 OpenBabel10272400413D

 25 28  0  0  1  0  0  0  0  0999 V2000
  186.3690  178.2590  141.3590 C   0  0  0  0  0  0  0  0  0  0  0  0
  186.7000  177.9450  142.6880 C   0  0  0  0  0  0  0  0  0  0  0  0
  184.1840  178.9550  142.0310 N   0  0  0  0  0  0  0  0  0  0  0  0
  187.1960  178.1040  140.2110 N   0  0  0  0  0  0  0  0  0  0  0  0
  189.7830  177.7030  144.8150 N   0  0  0  0  0  2  0  0  0  0  0  0
  188.4250  177.8690  137.6740 C   0  0  0  0  0  2  0  0  0  0  0  0
  184.4660  178.6570  143.3290 C   0  0  0  0  0  3  0  0  0  0  0  0
  186.4780  178.4890  139.0390 C   0  0  0  0  0  0  0  0  0  0  0  0
  187.0440  178.4440  137.8350 C   0  0  0  0  0  3  0  0  0  0  0  0
  186.0520  177.7700  145.1150 C   0  0  2  0  0  3  0  0  0  0  0  0
  185.3100  178.6190  146.1350 C   0  0  0  0  0  1  0  0  0  0  0  0
  188.0130  177.3120  143.0580 C   0  0  0  0  0  2  0  0  0  0  0  0
  189.2790  178.1150  138.9210 C   0  0  0  0  0  2  0  0  0  0  0  0
  185.1150  178.7710  141.0620 C   0  0  0  0  0  0  0  0  0  0  0  0
  184.8210  179.1220  139.3260 S   0  0  0  0  0  0  0  0  0  0  0  0
  187.4900  177.8570  145.3780 N   0  0  0  0  0  0  0  0  0  0  0  0
  188.5610  177.5790  140.1610 C   0  0  0  0  0  2  0  0  0  0  0  0
  188.3980  177.6380  144.4720 C   0  0  0  0  0  0  0  0  0  0  0  0
  185.7330  178.1660  143.6910 C   0  0  0  0  0  0  0  0  0  0  0  0
  190.1980  177.9230  146.0910 O   0  0  0  0  0  0  0  0  0  0  0  0
  190.2790  176.6670  146.7280 C   0  0  2  0  0  3  0  0  0  0  0  0
  189.3140  176.5180  147.7150 F   0  0  0  0  0  0  0  0  0  0  0  0
  191.6550  176.3900  147.2520 C   0  0  0  0  0  0  0  0  0  0  0  0
  192.1300  177.1010  148.1220 O   0  0  0  0  0  0  0  0  0  0  0  0
  192.3840  175.3560  146.7560 F   0  0  0  0  0  0  0  0  0  0  0  0
  1  2  1  0  0  0  0
  2 12  1  0  0  0  0
  2 19  2  0  0  0  0
  3  7  2  0  0  0  0
  4  1  1  0  0  0  0
  5 20  1  0  0  0  0
  6  9  1  0  0  0  0
  6 13  1  0  0  0  0
  7 19  1  0  0  0  0
  8 15  1  0  0  0  0
  8  4  1  0  0  0  0
  9  8  2  0  0  0  0
 10 16  1  0  0  0  0
 10 11  1  1  0  0  0
 12 18  1  0  0  0  0
 13 17  1  0  0  0  0
 14  1  2  0  0  0  0
 14  3  1  0  0  0  0
 15 14  1  0  0  0  0
 17  4  1  0  0  0  0
 18  5  1  0  0  0  0
 18 16  2  0  0  0  0
 19 10  1  0  0  0  0
 20 21  1  0  0  0  0
 21 23  1  0  0  0  0
 21 22  1  1  0  0  0
 23 24  2  0  0  0  0
 25 23  1  0  0  0  0
M  END
>  <MODEL>
7

>  <REMARK>
 VINA RESULT:      -8.1      2.266      3.229
  Name = 
  3 active torsions:
  status: ('A' for Active; 'I' for Inactive)
    1  A    between atoms: C_2  and  C_21
    2  A    between atoms: N_6  and  O_15
    3  A    between atoms: O_15  and  C_21
                            x       y       z     vdW  Elec       q    Type
                         _______ _______ _______ _____ _____    ______ ____

>  <TORSDO>
F 3

$$$$
=
 OpenBabel10272400413D

 25 28  0  0  1  0  0  0  0  0999 V2000
  186.3570  178.3240  144.2580 C   0  0  0  0  0  0  0  0  0  0  0  0
  186.4670  178.5200  142.8710 C   0  0  0  0  0  0  0  0  0  0  0  0
  184.0000  178.7010  144.1610 N   0  0  0  0  0  0  0  0  0  0  0  0
  187.4140  178.0420  145.1690 N   0  0  0  0  0  0  0  0  0  0  0  0
  188.7370  177.4710  140.0730 N   0  0  0  0  0  2  0  0  0  0  0  0
  189.1850  177.5890  147.3280 C   0  0  0  0  0  2  0  0  0  0  0  0
  184.0670  178.9030  142.8170 C   0  0  0  0  0  3  0  0  0  0  0  0
  186.9020  177.9610  146.4990 C   0  0  0  0  0  0  0  0  0  0  0  0
  187.6980  177.6940  147.5320 C   0  0  0  0  0  3  0  0  0  0  0  0
  185.4060  179.0790  140.6560 C   0  0  2  0  0  3  0  0  0  0  0  0
  184.1480  178.6950  139.8950 C   0  0  0  0  0  1  0  0  0  0  0  0
  187.7950  178.5230  142.1650 C   0  0  0  0  0  2  0  0  0  0  0  0
  189.5200  177.0490  145.9350 C   0  0  0  0  0  2  0  0  0  0  0  0
  185.1170  178.4070  144.8730 C   0  0  0  0  0  0  0  0  0  0  0  0
  185.1210  178.1420  146.6480 S   0  0  0  0  0  0  0  0  0  0  0  0
  186.5500  178.3760  140.0710 N   0  0  0  0  0  0  0  0  0  0  0  0
  188.8390  177.9050  144.8650 C   0  0  0  0  0  2  0  0  0  0  0  0
  187.6480  178.1270  140.7240 C   0  0  0  0  0  0  0  0  0  0  0  0
  185.2950  178.7980  142.1380 C   0  0  0  0  0  0  0  0  0  0  0  0
  188.6950  177.1500  138.7510 O   0  0  0  0  0  0  0  0  0  0  0  0
  189.9830  177.3810  138.2240 C   0  0  2  0  0  3  0  0  0  0  0  0
  189.9820  177.4020  136.8350 F   0  0  0  0  0  0  0  0  0  0  0  0
  190.9940  176.4140  138.7620 C   0  0  0  0  0  0  0  0  0  0  0  0
  190.9240  175.2330  138.4680 O   0  0  0  0  0  0  0  0  0  0  0  0
  191.9840  176.8450  139.5880 F   0  0  0  0  0  0  0  0  0  0  0  0
  1 14  1  0  0  0  0
  1  4  1  0  0  0  0
  2  1  2  0  0  0  0
  3 14  2  0  0  0  0
  4  8  1  0  0  0  0
  5 18  1  0  0  0  0
  6  9  1  0  0  0  0
  7  3  1  0  0  0  0
  8 15  1  0  0  0  0
  8  9  2  0  0  0  0
 10 11  1  6  0  0  0
 10 19  1  0  0  0  0
 12  2  1  0  0  0  0
 13  6  1  0  0  0  0
 14 15  1  0  0  0  0
 16 10  1  0  0  0  0
 16 18  2  0  0  0  0
 17  4  1  0  0  0  0
 17 13  1  0  0  0  0
 18 12  1  0  0  0  0
 19  7  2  0  0  0  0
 19  2  1  0  0  0  0
 20  5  1  0  0  0  0
 21 22  1  6  0  0  0
 21 20  1  0  0  0  0
 21 23  1  0  0  0  0
 23 25  1  0  0  0  0
 24 23  2  0  0  0  0
M  END
>  <MODEL>
8

>  <REMARK>
 VINA RESULT:      -8.1      3.474      5.890
  Name = 
  3 active torsions:
  status: ('A' for Active; 'I' for Inactive)
    1  A    between atoms: C_2  and  C_21
    2  A    between atoms: N_6  and  O_15
    3  A    between atoms: O_15  and  C_21
                            x       y       z     vdW  Elec       q    Type
                         _______ _______ _______ _____ _____    ______ ____

>  <TORSDO>
F 3

$$$$
=
 OpenBabel10272400413D

 25 28  0  0  1  0  0  0  0  0999 V2000
  184.5330  178.4080  143.7980 C   0  0  0  0  0  0  0  0  0  0  0  0
  185.8520  178.0170  144.0860 C   0  0  0  0  0  0  0  0  0  0  0  0
  184.0730  178.6970  146.1240 N   0  0  0  0  0  0  0  0  0  0  0  0
  183.9270  178.4950  142.5130 N   0  0  0  0  0  0  0  0  0  0  0  0
  189.2010  178.0290  142.3930 N   0  0  0  0  0  2  0  0  0  0  0  0
  182.2990  178.7010  140.2080 C   0  0  0  0  0  2  0  0  0  0  0  0
  185.3410  178.3170  146.4430 C   0  0  0  0  0  3  0  0  0  0  0  0
  182.5600  178.8820  142.6450 C   0  0  0  0  0  0  0  0  0  0  0  0
  181.7800  179.0430  141.5780 C   0  0  0  0  0  3  0  0  0  0  0  0
  187.6580  177.5040  145.7640 C   0  0  2  0  0  3  0  0  0  0  0  0
  188.2040  178.1260  147.0390 C   0  0  0  0  0  1  0  0  0  0  0  0
  186.8010  177.5540  143.0150 C   0  0  0  0  0  2  0  0  0  0  0  0
  183.8080  178.9470  140.1070 C   0  0  0  0  0  2  0  0  0  0  0  0
  183.6730  178.7530  144.8290 C   0  0  0  0  0  0  0  0  0  0  0  0
  182.0180  179.2270  144.3230 S   0  0  0  0  0  0  0  0  0  0  0  0
  188.5860  177.7800  144.6650 N   0  0  0  0  0  0  0  0  0  0  0  0
  184.5370  178.1880  141.2180 C   0  0  0  0  0  2  0  0  0  0  0  0
  188.2300  177.7910  143.4130 C   0  0  0  0  0  0  0  0  0  0  0  0
  186.2650  177.9880  145.4340 C   0  0  0  0  0  0  0  0  0  0  0  0
  190.5220  178.1810  142.6800 O   0  0  0  0  0  0  0  0  0  0  0  0
  191.2100  177.1170  142.0600 C   0  0  2  0  0  3  0  0  0  0  0  0
  192.2680  176.6580  142.8350 F   0  0  0  0  0  0  0  0  0  0  0  0
  191.6510  177.4650  140.6710 C   0  0  0  0  0  0  0  0  0  0  0  0
  192.8390  177.4870  140.3960 O   0  0  0  0  0  0  0  0  0  0  0  0
  190.7340  177.7680  139.7150 F   0  0  0  0  0  0  0  0  0  0  0  0
  1  2  2  0  0  0  0
  1 14  1  0  0  0  0
  2 19  1  0  0  0  0
  3  7  1  0  0  0  0
  4  8  1  0  0  0  0
  4  1  1  0  0  0  0
  5 20  1  0  0  0  0
  5 18  1  0  0  0  0
  6  9  1  0  0  0  0
  8 15  1  0  0  0  0
  9  8  2  0  0  0  0
 10 11  1  1  0  0  0
 12 18  1  0  0  0  0
 12  2  1  0  0  0  0
 13  6  1  0  0  0  0
 13 17  1  0  0  0  0
 14  3  2  0  0  0  0
 15 14  1  0  0  0  0
 16 10  1  0  0  0  0
 17  4  1  0  0  0  0
 18 16  2  0  0  0  0
 19 10  1  0  0  0  0
 19  7  2  0  0  0  0
 21 20  1  0  0  0  0
 21 22  1  1  0  0  0
 23 21  1  0  0  0  0
 24 23  2  0  0  0  0
 25 23  1  0  0  0  0
M  END
>  <MODEL>
9

>  <REMARK>
 VINA RESULT:      -8.0      2.038      2.730
  Name = 
  3 active torsions:
  status: ('A' for Active; 'I' for Inactive)
    1  A    between atoms: C_2  and  C_21
    2  A    between atoms: N_6  and  O_15
    3  A    between atoms: O_15  and  C_21
                            x       y       z     vdW  Elec       q    Type
                         _______ _______ _______ _____ _____    ______ ____

>  <TORSDO>
F 3

$$$$
