=
 OpenBabel10272413463D

 30 32  0  0  1  0  0  0  0  0999 V2000
  188.3830  176.7310  138.0890 C   0  0  2  0  0  3  0  0  0  0  0  0
  189.0040  176.2630  136.7450 C   0  0  1  0  0  3  0  0  0  0  0  0
  186.8440  175.6360  135.5400 C   0  0  1  0  0  3  0  0  0  0  0  0
  187.7300  178.1510  138.1010 C   0  0  1  0  0  0  0  0  0  0  0  0
  188.6660  179.1090  137.7060 O   0  0  0  0  0  1  0  0  0  0  0  0
  189.3370  176.4720  139.2820 C   0  0  2  0  0  3  0  0  0  0  0  0
  185.5630  176.3980  135.9290 C   0  0  2  0  0  3  0  0  0  0  0  0
  188.7320  176.8890  140.6200 C   0  0  0  0  0  2  0  0  0  0  0  0
  188.4840  173.7990  136.1220 C   0  0  0  0  0  2  0  0  0  0  0  0
  189.4310  174.7820  136.8300 C   0  0  0  0  0  2  0  0  0  0  0  0
  186.2060  173.2390  135.3670 C   0  0  0  0  0  1  0  0  0  0  0  0
  186.5310  174.1620  137.6200 C   0  0  0  0  0  1  0  0  0  0  0  0
  188.1070  176.5170  135.5270 C   0  0  2  0  0  3  0  0  0  0  0  0
  186.5260  178.2480  137.1610 C   0  0  0  0  0  2  0  0  0  0  0  0
  185.1200  177.3330  134.8020 C   0  0  0  0  0  1  0  0  0  0  0  0
  185.6720  177.0610  137.2450 N   0  0  0  0  0  0  0  0  0  0  0  0
  187.2110  178.5040  139.5010 C   0  0  0  0  0  2  0  0  0  0  0  0
  187.0170  174.2310  136.1770 C   0  0  0  0  0  0  0  0  0  0  0  0
  188.8220  176.3110  134.3460 O   0  0  0  0  0  1  0  0  0  0  0  0
  188.2750  178.3400  140.5760 C   0  0  0  0  0  2  0  0  0  0  0  0
  191.7290  176.1970  138.8460 N   0  0  0  0  0  0  0  0  0  0  0  0
  190.7370  176.9900  139.0980 C   0  0  0  0  0  3  0  0  0  0  0  0
  193.7130  177.2310  139.6400 N   0  0  0  0  0  2  0  0  0  0  0  0
  193.7340  176.4930  137.3530 C   0  0  0  0  0  1  0  0  0  0  0  0
  193.0690  176.6660  138.6710 C   0  0  0  0  0  0  0  0  0  0  0  0
  184.3470  177.5030  137.6740 C   0  0  0  0  0  2  0  0  0  0  0  0
  183.4000  176.3220  137.8840 C   0  0  1  0  0  3  0  0  0  0  0  0
  182.9590  176.2270  139.3320 C   0  0  0  0  0  1  0  0  0  0  0  0
  182.2380  176.4220  137.0150 N   0  0  0  0  0  2  0  0  0  0  0  0
  182.0110  177.8350  136.7640 C   0  0  0  0  0  1  0  0  0  0  0  0
  1  4  1  0  0  0  0
  1  6  1  0  0  0  0
  2 10  1  0  0  0  0
  2  1  1  0  0  0  0
  3  7  1  0  0  0  0
  3 18  1  0  0  0  0
  4 17  1  0  0  0  0
  5  4  1  0  0  0  0
  6  8  1  0  0  0  0
  7 16  1  0  0  0  0
  9 18  1  0  0  0  0
  9 10  1  0  0  0  0
 11 18  1  0  0  0  0
 13  3  1  0  0  0  0
 13  2  1  0  0  0  0
 14 16  1  0  0  0  0
 14  4  1  0  0  0  0
 15  7  1  0  0  0  0
 16 26  1  0  0  0  0
 17 20  1  0  0  0  0
 18 12  1  0  0  0  0
 19 13  1  0  0  0  0
 20  8  1  0  0  0  0
 21 22  2  0  0  0  0
 22  6  1  0  0  0  0
 24 25  1  0  0  0  0
 25 21  1  0  0  0  0
 25 23  2  0  0  0  0
 26 27  1  0  0  0  0
 27 28  1  0  0  0  0
 29 27  1  0  0  0  0
 30 29  1  0  0  0  0
M  END
>  <MODEL>
1

>  <REMARK>
 VINA RESULT:      -4.4      0.000      0.000
  Name = 
  5 active torsions:
  status: ('A' for Active; 'I' for Inactive)
    1  A    between atoms: C_7  and  C_10
    2  A    between atoms: C_7  and  N_15
    3  A    between atoms: C_8  and  C_12
    4  A    between atoms: N_9  and  C_21
    5  A    between atoms: C_10  and  N_25
                            x       y       z     vdW  Elec       q    Type
                         _______ _______ _______ _____ _____    ______ ____

>  <TORSDO>
F 5

$$$$
=
 OpenBabel10272413463D

 30 32  0  0  1  0  0  0  0  0999 V2000
  183.9240  176.8110  137.0440 C   0  0  2  0  0  3  0  0  0  0  0  0
  184.0340  177.4600  138.4500 C   0  0  1  0  0  3  0  0  0  0  0  0
  181.5860  177.2600  139.1400 C   0  0  1  0  0  3  0  0  0  0  0  0
  183.8330  175.2520  136.9980 C   0  0  1  0  0  0  0  0  0  0  0  0
  184.9360  174.6900  137.6430 O   0  0  0  0  0  1  0  0  0  0  0  0
  184.9600  177.4040  136.0560 C   0  0  2  0  0  3  0  0  0  0  0  0
  180.7720  176.0920  138.5510 C   0  0  2  0  0  3  0  0  0  0  0  0
  184.8460  176.8090  134.6560 C   0  0  0  0  0  2  0  0  0  0  0  0
  182.5580  179.5680  138.7780 C   0  0  0  0  0  2  0  0  0  0  0  0
  183.9200  178.9960  138.3500 C   0  0  0  0  0  2  0  0  0  0  0  0
  180.1230  179.2660  139.0090 C   0  0  0  0  0  1  0  0  0  0  0  0
  181.2320  178.5400  136.9410 C   0  0  0  0  0  1  0  0  0  0  0  0
  183.0440  176.8910  139.4730 C   0  0  2  0  0  3  0  0  0  0  0  0
  182.5660  174.7200  137.6770 C   0  0  0  0  0  2  0  0  0  0  0  0
  180.4540  175.0510  139.6270 C   0  0  0  0  0  1  0  0  0  0  0  0
  181.3900  175.5230  137.3360 N   0  0  0  0  0  0  0  0  0  0  0  0
  183.7870  174.7470  135.5510 C   0  0  0  0  0  2  0  0  0  0  0  0
  181.3860  178.6390  138.4550 C   0  0  0  0  0  0  0  0  0  0  0  0
  183.3670  177.3310  140.7580 O   0  0  0  0  0  1  0  0  0  0  0  0
  184.9300  175.2900  134.7070 C   0  0  0  0  0  2  0  0  0  0  0  0
  187.1220  178.4770  136.4620 N   0  0  0  0  0  0  0  0  0  0  0  0
  186.3770  177.4220  136.5590 C   0  0  0  0  0  3  0  0  0  0  0  0
  188.9320  179.5500  137.5600 N   0  0  0  0  0  2  0  0  0  0  0  0
  189.3610  177.3500  136.6930 C   0  0  0  0  0  1  0  0  0  0  0  0
  188.4730  178.5170  136.9300 C   0  0  0  0  0  0  0  0  0  0  0  0
  180.4310  174.6380  136.6770 C   0  0  0  0  0  2  0  0  0  0  0  0
  180.9020  173.1840  136.6950 C   0  0  1  0  0  3  0  0  0  0  0  0
  179.9820  172.3240  137.5410 C   0  0  0  0  0  1  0  0  0  0  0  0
  180.9870  172.6450  135.3460 N   0  0  0  0  0  2  0  0  0  0  0  0
  181.9040  171.5190  135.3910 C   0  0  0  0  0  1  0  0  0  0  0  0
  1  2  1  0  0  0  0
  2 13  1  0  0  0  0
  3 13  1  0  0  0  0
  4  1  1  0  0  0  0
  4  5  1  0  0  0  0
  4 14  1  0  0  0  0
  6 22  1  0  0  0  0
  6  1  1  0  0  0  0
  7  3  1  0  0  0  0
  7 15  1  0  0  0  0
  8 20  1  0  0  0  0
  8  6  1  0  0  0  0
 10  2  1  0  0  0  0
 10  9  1  0  0  0  0
 12 18  1  0  0  0  0
 13 19  1  0  0  0  0
 16 14  1  0  0  0  0
 16  7  1  0  0  0  0
 17  4  1  0  0  0  0
 18  9  1  0  0  0  0
 18 11  1  0  0  0  0
 18  3  1  0  0  0  0
 20 17  1  0  0  0  0
 21 22  2  0  0  0  0
 21 25  1  0  0  0  0
 24 25  1  0  0  0  0
 25 23  2  0  0  0  0
 26 27  1  0  0  0  0
 26 16  1  0  0  0  0
 27 28  1  0  0  0  0
 29 30  1  0  0  0  0
 29 27  1  0  0  0  0
M  END
>  <MODEL>
2

>  <REMARK>
 VINA RESULT:      -4.3      3.039      6.208
  Name = 
  5 active torsions:
  status: ('A' for Active; 'I' for Inactive)
    1  A    between atoms: C_7  and  C_10
    2  A    between atoms: C_7  and  N_15
    3  A    between atoms: C_8  and  C_12
    4  A    between atoms: N_9  and  C_21
    5  A    between atoms: C_10  and  N_25
                            x       y       z     vdW  Elec       q    Type
                         _______ _______ _______ _____ _____    ______ ____

>  <TORSDO>
F 5

$$$$
=
 OpenBabel10272413463D

 30 32  0  0  1  0  0  0  0  0999 V2000
  185.8630  176.5900  136.7090 C   0  0  2  0  0  3  0  0  0  0  0  0
  186.3060  178.0090  137.1590 C   0  0  1  0  0  3  0  0  0  0  0  0
  188.8020  177.7810  136.6820 C   0  0  1  0  0  3  0  0  0  0  0  0
  185.7490  176.3470  135.1700 C   0  0  1  0  0  0  0  0  0  0  0  0
  184.8660  177.2700  134.6050 O   0  0  0  0  0  1  0  0  0  0  0  0
  184.6340  176.0930  137.5120 C   0  0  2  0  0  3  0  0  0  0  0  0
  189.2290  176.8240  135.5530 C   0  0  2  0  0  3  0  0  0  0  0  0
  184.2020  174.6840  137.1140 C   0  0  0  0  0  2  0  0  0  0  0  0
  188.0440  178.0310  139.0840 C   0  0  0  0  0  2  0  0  0  0  0  0
  186.5610  178.0420  138.6810 C   0  0  0  0  0  2  0  0  0  0  0  0
  190.3630  177.3700  138.5730 C   0  0  0  0  0  1  0  0  0  0  0  0
  188.5490  175.7480  138.2320 C   0  0  0  0  0  1  0  0  0  0  0  0
  187.5070  178.5570  136.3790 C   0  0  2  0  0  3  0  0  0  0  0  0
  187.0970  176.4830  134.4560 C   0  0  0  0  0  2  0  0  0  0  0  0
  189.7630  177.6040  134.3490 C   0  0  0  0  0  1  0  0  0  0  0  0
  188.1780  175.8440  135.2090 N   0  0  0  0  0  0  0  0  0  0  0  0
  185.2480  174.9280  134.8740 C   0  0  0  0  0  2  0  0  0  0  0  0
  188.9230  177.2220  138.1260 C   0  0  0  0  0  0  0  0  0  0  0  0
  187.6860  179.9140  136.6540 O   0  0  0  0  0  1  0  0  0  0  0  0
  183.9610  174.5970  135.6150 C   0  0  0  0  0  2  0  0  0  0  0  0
  183.0450  177.5410  138.6820 N   0  0  0  0  0  0  0  0  0  0  0  0
  183.4790  177.0550  137.5630 C   0  0  0  0  0  3  0  0  0  0  0  0
  180.7290  178.0290  138.8590 N   0  0  0  0  0  2  0  0  0  0  0  0
  182.2110  179.9150  138.7200 C   0  0  0  0  0  1  0  0  0  0  0  0
  181.9470  178.4540  138.7560 C   0  0  0  0  0  0  0  0  0  0  0  0
  188.7490  174.8030  134.3590 C   0  0  0  0  0  2  0  0  0  0  0  0
  188.9540  173.4980  135.1270 C   0  0  1  0  0  3  0  0  0  0  0  0
  190.2880  173.4930  135.8500 C   0  0  0  0  0  1  0  0  0  0  0  0
  187.8730  173.2730  136.0750 N   0  0  0  0  0  2  0  0  0  0  0  0
  187.3840  171.9230  135.8560 C   0  0  0  0  0  1  0  0  0  0  0  0
  1  2  1  0  0  0  0
  1  6  1  0  0  0  0
  2 10  1  0  0  0  0
  3 18  1  0  0  0  0
  4  1  1  0  0  0  0
  5  4  1  0  0  0  0
  6 22  1  0  0  0  0
  7  3  1  0  0  0  0
  8  6  1  0  0  0  0
 10  9  1  0  0  0  0
 13 19  1  0  0  0  0
 13  3  1  0  0  0  0
 13  2  1  0  0  0  0
 14  4  1  0  0  0  0
 14 16  1  0  0  0  0
 15  7  1  0  0  0  0
 16  7  1  0  0  0  0
 17  4  1  0  0  0  0
 17 20  1  0  0  0  0
 18 12  1  0  0  0  0
 18 11  1  0  0  0  0
 18  9  1  0  0  0  0
 20  8  1  0  0  0  0
 21 25  1  0  0  0  0
 22 21  2  0  0  0  0
 24 25  1  0  0  0  0
 25 23  2  0  0  0  0
 26 27  1  0  0  0  0
 26 16  1  0  0  0  0
 27 28  1  0  0  0  0
 27 29  1  0  0  0  0
 30 29  1  0  0  0  0
M  END
>  <MODEL>
3

>  <REMARK>
 VINA RESULT:      -4.0      2.451      6.507
  Name = 
  5 active torsions:
  status: ('A' for Active; 'I' for Inactive)
    1  A    between atoms: C_7  and  C_10
    2  A    between atoms: C_7  and  N_15
    3  A    between atoms: C_8  and  C_12
    4  A    between atoms: N_9  and  C_21
    5  A    between atoms: C_10  and  N_25
                            x       y       z     vdW  Elec       q    Type
                         _______ _______ _______ _____ _____    ______ ____

>  <TORSDO>
F 5

$$$$
=
 OpenBabel10272413463D

 30 32  0  0  1  0  0  0  0  0999 V2000
  186.7350  176.5640  136.9870 C   0  0  2  0  0  3  0  0  0  0  0  0
  185.7770  175.5550  137.6760 C   0  0  1  0  0  3  0  0  0  0  0  0
  186.0550  173.6130  136.0440 C   0  0  1  0  0  3  0  0  0  0  0  0
  188.2660  176.3380  137.2080 C   0  0  1  0  0  0  0  0  0  0  0  0
  188.5560  176.3360  138.5740 O   0  0  0  0  0  1  0  0  0  0  0  0
  186.2830  178.0290  137.2120 C   0  0  2  0  0  3  0  0  0  0  0  0
  187.4010  173.4900  135.3030 C   0  0  2  0  0  3  0  0  0  0  0  0
  187.1880  179.0380  136.5120 C   0  0  0  0  0  2  0  0  0  0  0  0
  183.8050  174.7620  136.1890 C   0  0  0  0  0  2  0  0  0  0  0  0
  184.3220  175.7840  137.2140 C   0  0  0  0  0  2  0  0  0  0  0  0
  184.2840  173.1910  134.3510 C   0  0  0  0  0  1  0  0  0  0  0  0
  185.3470  175.4050  134.3460 C   0  0  0  0  0  1  0  0  0  0  0  0
  186.1940  174.0890  137.5020 C   0  0  2  0  0  3  0  0  0  0  0  0
  188.7510  175.0100  136.6200 C   0  0  0  0  0  2  0  0  0  0  0  0
  188.1970  172.2870  135.8120 C   0  0  0  0  0  1  0  0  0  0  0  0
  188.1660  174.7540  135.3010 N   0  0  0  0  0  0  0  0  0  0  0  0
  189.0880  177.4360  136.5230 C   0  0  0  0  0  2  0  0  0  0  0  0
  184.8940  174.2560  135.2390 C   0  0  0  0  0  0  0  0  0  0  0  0
  185.4450  173.2680  138.3470 O   0  0  0  0  0  1  0  0  0  0  0  0
  188.6400  178.8350  136.9210 C   0  0  0  0  0  2  0  0  0  0  0  0
  186.9530  178.4150  139.5340 N   0  0  0  0  0  0  0  0  0  0  0  0
  186.0120  178.3960  138.6450 C   0  0  0  0  0  3  0  0  0  0  0  0
  187.6800  178.7440  141.7700 N   0  0  0  0  0  2  0  0  0  0  0  0
  185.3500  179.1400  141.3340 C   0  0  0  0  0  1  0  0  0  0  0  0
  186.7190  178.7570  140.9030 C   0  0  0  0  0  0  0  0  0  0  0  0
  189.2670  174.6480  134.3460 C   0  0  0  0  0  2  0  0  0  0  0  0
  190.6190  174.5490  135.0520 C   0  0  1  0  0  3  0  0  0  0  0  0
  191.3680  173.3020  134.6230 C   0  0  0  0  0  1  0  0  0  0  0  0
  191.4300  175.7300  134.7970 N   0  0  0  0  0  2  0  0  0  0  0  0
  192.4790  175.7550  135.8020 C   0  0  0  0  0  1  0  0  0  0  0  0
  1  4  1  0  0  0  0
  1  6  1  0  0  0  0
  1  2  1  0  0  0  0
  3 13  1  0  0  0  0
  4  5  1  0  0  0  0
  6 22  1  0  0  0  0
  7 15  1  0  0  0  0
  7  3  1  0  0  0  0
  8 20  1  0  0  0  0
  8  6  1  0  0  0  0
  9 10  1  0  0  0  0
 10  2  1  0  0  0  0
 11 18  1  0  0  0  0
 12 18  1  0  0  0  0
 13  2  1  0  0  0  0
 13 19  1  0  0  0  0
 14  4  1  0  0  0  0
 16  7  1  0  0  0  0
 16 14  1  0  0  0  0
 17 20  1  0  0  0  0
 17  4  1  0  0  0  0
 18  3  1  0  0  0  0
 18  9  1  0  0  0  0
 21 25  1  0  0  0  0
 22 21  2  0  0  0  0
 25 24  1  0  0  0  0
 25 23  2  0  0  0  0
 26 27  1  0  0  0  0
 26 16  1  0  0  0  0
 28 27  1  0  0  0  0
 29 27  1  0  0  0  0
 29 30  1  0  0  0  0
M  END
>  <MODEL>
4

>  <REMARK>
 VINA RESULT:      -3.4      2.575      5.644
  Name = 
  5 active torsions:
  status: ('A' for Active; 'I' for Inactive)
    1  A    between atoms: C_7  and  C_10
    2  A    between atoms: C_7  and  N_15
    3  A    between atoms: C_8  and  C_12
    4  A    between atoms: N_9  and  C_21
    5  A    between atoms: C_10  and  N_25
                            x       y       z     vdW  Elec       q    Type
                         _______ _______ _______ _____ _____    ______ ____

>  <TORSDO>
F 5

$$$$
=
 OpenBabel10272413463D

 30 32  0  0  1  0  0  0  0  0999 V2000
  188.5310  177.7610  142.5450 C   0  0  2  0  0  3  0  0  0  0  0  0
  189.8270  176.9480  142.2790 C   0  0  1  0  0  3  0  0  0  0  0  0
  191.0330  177.4550  144.4700 C   0  0  1  0  0  3  0  0  0  0  0  0
  187.4810  177.1110  143.5040 C   0  0  1  0  0  0  0  0  0  0  0  0
  187.1070  175.8550  143.0210 O   0  0  0  0  0  1  0  0  0  0  0  0
  187.9190  178.3100  141.2320 C   0  0  2  0  0  3  0  0  0  0  0  0
  190.1670  177.7290  145.7140 C   0  0  2  0  0  3  0  0  0  0  0  0
  186.6640  179.1450  141.4710 C   0  0  0  0  0  2  0  0  0  0  0  0
  192.0040  178.3580  142.3140 C   0  0  0  0  0  2  0  0  0  0  0  0
  190.8430  177.7920  141.4800 C   0  0  0  0  0  2  0  0  0  0  0  0
  192.8440  179.1590  144.4890 C   0  0  0  0  0  1  0  0  0  0  0  0
  190.6240  179.8780  143.7210 C   0  0  0  0  0  1  0  0  0  0  0  0
  190.4600  176.3630  143.5470 C   0  0  2  0  0  3  0  0  0  0  0  0
  188.0220  176.9300  144.9250 C   0  0  0  0  0  2  0  0  0  0  0  0
  190.2680  176.5760  146.7150 C   0  0  0  0  0  1  0  0  0  0  0  0
  188.7790  178.1010  145.3720 N   0  0  0  0  0  0  0  0  0  0  0  0
  186.2320  177.9920  143.6290 C   0  0  0  0  0  2  0  0  0  0  0  0
  191.6010  178.7080  143.7490 C   0  0  0  0  0  0  0  0  0  0  0  0
  191.4590  175.4470  143.2130 O   0  0  0  0  0  1  0  0  0  0  0  0
  185.6400  178.3610  142.2770 C   0  0  0  0  0  2  0  0  0  0  0  0
  188.1910  177.4730  138.9480 N   0  0  0  0  0  0  0  0  0  0  0  0
  187.7310  177.2880  140.1440 C   0  0  0  0  0  3  0  0  0  0  0  0
  186.8680  176.3300  137.3430 N   0  0  0  0  0  2  0  0  0  0  0  0
  189.1940  175.7320  137.4310 C   0  0  0  0  0  1  0  0  0  0  0  0
  188.0220  176.5170  137.8970 C   0  0  0  0  0  0  0  0  0  0  0  0
  188.1140  178.6270  146.5610 C   0  0  0  0  0  2  0  0  0  0  0  0
  187.1460  177.6090  147.1620 C   0  0  1  0  0  3  0  0  0  0  0  0
  187.5140  177.2880  148.5980 C   0  0  0  0  0  1  0  0  0  0  0  0
  185.7740  178.0880  147.0950 N   0  0  0  0  0  2  0  0  0  0  0  0
  185.8290  179.5370  147.0000 C   0  0  0  0  0  1  0  0  0  0  0  0
  1  4  1  0  0  0  0
  2  1  1  0  0  0  0
  2 13  1  0  0  0  0
  3  7  1  0  0  0  0
  4 17  1  0  0  0  0
  4 14  1  0  0  0  0
  5  4  1  0  0  0  0
  6  8  1  0  0  0  0
  6  1  1  0  0  0  0
  7 15  1  0  0  0  0
  8 20  1  0  0  0  0
  9 18  1  0  0  0  0
 10  2  1  0  0  0  0
 10  9  1  0  0  0  0
 12 18  1  0  0  0  0
 13  3  1  0  0  0  0
 14 16  1  0  0  0  0
 16  7  1  0  0  0  0
 16 26  1  0  0  0  0
 18  3  1  0  0  0  0
 18 11  1  0  0  0  0
 19 13  1  0  0  0  0
 20 17  1  0  0  0  0
 21 22  2  0  0  0  0
 22  6  1  0  0  0  0
 23 25  2  0  0  0  0
 24 25  1  0  0  0  0
 25 21  1  0  0  0  0
 26 27  1  0  0  0  0
 27 28  1  0  0  0  0
 29 27  1  0  0  0  0
 30 29  1  0  0  0  0
M  END
>  <MODEL>
5

>  <REMARK>
 VINA RESULT:      -2.8      4.886      8.117
  Name = 
  5 active torsions:
  status: ('A' for Active; 'I' for Inactive)
    1  A    between atoms: C_7  and  C_10
    2  A    between atoms: C_7  and  N_15
    3  A    between atoms: C_8  and  C_12
    4  A    between atoms: N_9  and  C_21
    5  A    between atoms: C_10  and  N_25
                            x       y       z     vdW  Elec       q    Type
                         _______ _______ _______ _____ _____    ______ ____

>  <TORSDO>
F 5

$$$$
=
 OpenBabel10272413463D

 30 32  0  0  1  0  0  0  0  0999 V2000
  188.7100  176.9890  138.7730 C   0  0  2  0  0  3  0  0  0  0  0  0
  189.9320  176.6410  137.8800 C   0  0  1  0  0  3  0  0  0  0  0  0
  188.6660  176.0180  135.7530 C   0  0  1  0  0  3  0  0  0  0  0  0
  188.0390  178.3790  138.5290 C   0  0  1  0  0  0  0  0  0  0  0  0
  188.9820  179.3970  138.6790 O   0  0  0  0  0  1  0  0  0  0  0  0
  188.9860  176.6830  140.2670 C   0  0  2  0  0  3  0  0  0  0  0  0
  187.3080  176.7030  135.5050 C   0  0  2  0  0  3  0  0  0  0  0  0
  187.7860  176.9820  141.1600 C   0  0  0  0  0  2  0  0  0  0  0  0
  189.9430  174.2080  136.9770 C   0  0  0  0  0  2  0  0  0  0  0  0
  190.3640  175.1740  138.0970 C   0  0  0  0  0  2  0  0  0  0  0  0
  188.3530  173.6180  135.1890 C   0  0  0  0  0  1  0  0  0  0  0  0
  187.4910  174.3910  137.3550 C   0  0  0  0  0  1  0  0  0  0  0  0
  189.7180  176.9450  136.3920 C   0  0  2  0  0  3  0  0  0  0  0  0
  187.4320  178.4970  137.1270 C   0  0  0  0  0  2  0  0  0  0  0  0
  187.4010  177.6970  134.3460 C   0  0  0  0  0  1  0  0  0  0  0  0
  186.7260  177.2750  136.7360 N   0  0  0  0  0  0  0  0  0  0  0  0
  186.8870  178.6130  139.5150 C   0  0  0  0  0  2  0  0  0  0  0  0
  188.6050  174.5790  136.3320 C   0  0  0  0  0  0  0  0  0  0  0  0
  190.9250  176.8510  135.6980 O   0  0  0  0  0  1  0  0  0  0  0  0
  187.3090  178.4130  140.9630 C   0  0  0  0  0  2  0  0  0  0  0  0
  190.4610  177.4150  142.0780 N   0  0  0  0  0  0  0  0  0  0  0  0
  190.2630  177.2650  140.8070 C   0  0  0  0  0  3  0  0  0  0  0  0
  192.8030  177.7990  142.0210 N   0  0  0  0  0  2  0  0  0  0  0  0
  191.6080  178.7570  143.8720 C   0  0  0  0  0  1  0  0  0  0  0  0
  191.6660  177.9680  142.6140 C   0  0  0  0  0  0  0  0  0  0  0  0
  185.3320  177.6350  136.4870 C   0  0  0  0  0  2  0  0  0  0  0  0
  184.3730  176.7780  137.3130 C   0  0  1  0  0  3  0  0  0  0  0  0
  183.5390  177.6380  138.2450 C   0  0  0  0  0  1  0  0  0  0  0  0
  183.5050  175.9880  136.4540 N   0  0  0  0  0  2  0  0  0  0  0  0
  183.7520  174.5900  136.7630 C   0  0  0  0  0  1  0  0  0  0  0  0
  1  6  1  0  0  0  0
  2 10  1  0  0  0  0
  2  1  1  0  0  0  0
  3 18  1  0  0  0  0
  3 13  1  0  0  0  0
  4  5  1  0  0  0  0
  4  1  1  0  0  0  0
  4 17  1  0  0  0  0
  6 22  1  0  0  0  0
  6  8  1  0  0  0  0
  7  3  1  0  0  0  0
  7 16  1  0  0  0  0
  9 10  1  0  0  0  0
 11 18  1  0  0  0  0
 13  2  1  0  0  0  0
 14  4  1  0  0  0  0
 15  7  1  0  0  0  0
 16 14  1  0  0  0  0
 17 20  1  0  0  0  0
 18  9  1  0  0  0  0
 18 12  1  0  0  0  0
 19 13  1  0  0  0  0
 20  8  1  0  0  0  0
 21 25  1  0  0  0  0
 22 21  2  0  0  0  0
 23 25  2  0  0  0  0
 25 24  1  0  0  0  0
 26 16  1  0  0  0  0
 26 27  1  0  0  0  0
 27 28  1  0  0  0  0
 29 30  1  0  0  0  0
 29 27  1  0  0  0  0
M  END
>  <MODEL>
6

>  <REMARK>
 VINA RESULT:      -2.8      1.790      2.344
  Name = 
  5 active torsions:
  status: ('A' for Active; 'I' for Inactive)
    1  A    between atoms: C_7  and  C_10
    2  A    between atoms: C_7  and  N_15
    3  A    between atoms: C_8  and  C_12
    4  A    between atoms: N_9  and  C_21
    5  A    between atoms: C_10  and  N_25
                            x       y       z     vdW  Elec       q    Type
                         _______ _______ _______ _____ _____    ______ ____

>  <TORSDO>
F 5

$$$$
=
 OpenBabel10272413463D

 30 32  0  0  1  0  0  0  0  0999 V2000
  188.0250  178.0640  142.6780 C   0  0  2  0  0  3  0  0  0  0  0  0
  189.0890  177.0260  142.2300 C   0  0  1  0  0  3  0  0  0  0  0  0
  190.6240  177.1720  144.2630 C   0  0  1  0  0  3  0  0  0  0  0  0
  186.9870  177.5850  143.7440 C   0  0  1  0  0  0  0  0  0  0  0  0
  186.3120  176.4540  143.2780 O   0  0  0  0  0  1  0  0  0  0  0  0
  187.3860  178.7900  141.4680 C   0  0  2  0  0  3  0  0  0  0  0  0
  189.9840  177.5470  145.6140 C   0  0  2  0  0  3  0  0  0  0  0  0
  186.3630  179.8420  141.8850 C   0  0  0  0  0  2  0  0  0  0  0  0
  191.4950  177.9760  142.0270 C   0  0  0  0  0  2  0  0  0  0  0  0
  190.1530  177.6930  141.3320 C   0  0  0  0  0  2  0  0  0  0  0  0
  192.7300  178.4820  144.0990 C   0  0  0  0  0  1  0  0  0  0  0  0
  190.6270  179.6630  143.6370 C   0  0  0  0  0  1  0  0  0  0  0  0
  189.7370  176.2630  143.3910 C   0  0  2  0  0  3  0  0  0  0  0  0
  187.6430  177.2280  145.0800 C   0  0  0  0  0  2  0  0  0  0  0  0
  189.9680  176.3470  146.5630 C   0  0  0  0  0  1  0  0  0  0  0  0
  188.6690  178.2030  145.4590 N   0  0  0  0  0  0  0  0  0  0  0  0
  185.9650  178.6880  144.0490 C   0  0  0  0  0  2  0  0  0  0  0  0
  191.3430  178.3240  143.5110 C   0  0  0  0  0  0  0  0  0  0  0  0
  190.4830  175.1870  142.9090 O   0  0  0  0  0  1  0  0  0  0  0  0
  185.3040  179.2350  142.7930 C   0  0  0  0  0  2  0  0  0  0  0  0
  186.8310  178.2520  139.1450 N   0  0  0  0  0  0  0  0  0  0  0  0
  186.8680  177.8830  140.3860 C   0  0  0  0  0  3  0  0  0  0  0  0
  187.1250  176.5910  137.4760 N   0  0  0  0  0  2  0  0  0  0  0  0
  184.9020  177.4690  137.7300 C   0  0  0  0  0  1  0  0  0  0  0  0
  186.3400  177.4090  138.1000 C   0  0  0  0  0  0  0  0  0  0  0  0
  188.2690  178.7870  146.7370 C   0  0  0  0  0  2  0  0  0  0  0  0
  187.1020  178.0250  147.3640 C   0  0  1  0  0  3  0  0  0  0  0  0
  187.4790  177.4800  148.7290 C   0  0  0  0  0  1  0  0  0  0  0  0
  185.9230  178.8700  147.4740 N   0  0  0  0  0  2  0  0  0  0  0  0
  184.7780  178.0600  147.0960 C   0  0  0  0  0  1  0  0  0  0  0  0
  1  4  1  0  0  0  0
  2  1  1  0  0  0  0
  2 13  1  0  0  0  0
  3  7  1  0  0  0  0
  4 17  1  0  0  0  0
  4 14  1  0  0  0  0
  5  4  1  0  0  0  0
  6  8  1  0  0  0  0
  6  1  1  0  0  0  0
  7 15  1  0  0  0  0
  8 20  1  0  0  0  0
  9 18  1  0  0  0  0
 10  9  1  0  0  0  0
 10  2  1  0  0  0  0
 13  3  1  0  0  0  0
 14 16  1  0  0  0  0
 16  7  1  0  0  0  0
 16 26  1  0  0  0  0
 18 12  1  0  0  0  0
 18 11  1  0  0  0  0
 18  3  1  0  0  0  0
 19 13  1  0  0  0  0
 20 17  1  0  0  0  0
 21 22  2  0  0  0  0
 22  6  1  0  0  0  0
 23 25  2  0  0  0  0
 24 25  1  0  0  0  0
 25 21  1  0  0  0  0
 26 27  1  0  0  0  0
 27 29  1  0  0  0  0
 27 28  1  0  0  0  0
 30 29  1  0  0  0  0
M  END
>  <MODEL>
7

>  <REMARK>
 VINA RESULT:      -2.6      4.915      8.246
  Name = 
  5 active torsions:
  status: ('A' for Active; 'I' for Inactive)
    1  A    between atoms: C_7  and  C_10
    2  A    between atoms: C_7  and  N_15
    3  A    between atoms: C_8  and  C_12
    4  A    between atoms: N_9  and  C_21
    5  A    between atoms: C_10  and  N_25
                            x       y       z     vdW  Elec       q    Type
                         _______ _______ _______ _____ _____    ______ ____

>  <TORSDO>
F 5

$$$$
=
 OpenBabel10272413463D

 30 32  0  0  1  0  0  0  0  0999 V2000
  189.5590  177.6420  140.1600 C   0  0  2  0  0  3  0  0  0  0  0  0
  190.2850  176.6400  141.0980 C   0  0  1  0  0  3  0  0  0  0  0  0
  189.2020  177.3470  143.2980 C   0  0  1  0  0  3  0  0  0  0  0  0
  188.0850  177.2970  139.7750 C   0  0  1  0  0  0  0  0  0  0  0  0
  188.0290  176.0360  139.1780 O   0  0  0  0  0  1  0  0  0  0  0  0
  190.4430  178.0390  138.9510 C   0  0  2  0  0  3  0  0  0  0  0  0
  187.7780  177.9310  143.2370 C   0  0  2  0  0  3  0  0  0  0  0  0
  189.7660  179.0530  138.0340 C   0  0  0  0  0  2  0  0  0  0  0  0
  191.6810  177.7510  142.9820 C   0  0  0  0  0  2  0  0  0  0  0  0
  191.6500  177.2040  141.5450 C   0  0  0  0  0  2  0  0  0  0  0  0
  190.4820  178.7880  144.8690 C   0  0  0  0  0  1  0  0  0  0  0  0
  190.1130  179.6440  142.5960 C   0  0  0  0  0  1  0  0  0  0  0  0
  189.4420  176.1980  142.3010 C   0  0  2  0  0  3  0  0  0  0  0  0
  187.1500  177.2880  140.9880 C   0  0  0  0  0  2  0  0  0  0  0  0
  186.7620  176.9560  143.8370 C   0  0  0  0  0  1  0  0  0  0  0  0
  187.4170  178.4130  141.8880 N   0  0  0  0  0  0  0  0  0  0  0  0
  187.5140  178.3380  138.8020 C   0  0  0  0  0  2  0  0  0  0  0  0
  190.3550  178.3810  143.4150 C   0  0  0  0  0  0  0  0  0  0  0  0
  190.0490  175.1200  142.9490 O   0  0  0  0  0  1  0  0  0  0  0  0
  188.4030  178.5480  137.5860 C   0  0  0  0  0  2  0  0  0  0  0  0
  192.3130  176.6850  138.1380 N   0  0  0  0  0  0  0  0  0  0  0  0
  191.0350  176.8820  138.1920 C   0  0  0  0  0  3  0  0  0  0  0  0
  194.0610  175.7080  136.8630 N   0  0  0  0  0  2  0  0  0  0  0  0
  192.1600  174.3090  137.3180 C   0  0  0  0  0  1  0  0  0  0  0  0
  192.8980  175.5950  137.4200 C   0  0  0  0  0  0  0  0  0  0  0  0
  186.1940  179.2080  141.9710 C   0  0  0  0  0  2  0  0  0  0  0  0
  185.0850  178.6290  141.0940 C   0  0  1  0  0  3  0  0  0  0  0  0
  183.8480  178.3180  141.9150 C   0  0  0  0  0  1  0  0  0  0  0  0
  184.7470  179.5380  140.0100 N   0  0  0  0  0  2  0  0  0  0  0  0
  183.7890  178.8540  139.1590 C   0  0  0  0  0  1  0  0  0  0  0  0
  1  2  1  0  0  0  0
  2 10  1  0  0  0  0
  2 13  1  0  0  0  0
  3 18  1  0  0  0  0
  4  1  1  0  0  0  0
  4 14  1  0  0  0  0
  5  4  1  0  0  0  0
  6  1  1  0  0  0  0
  7  3  1  0  0  0  0
  7 15  1  0  0  0  0
  8  6  1  0  0  0  0
  9 18  1  0  0  0  0
 10  9  1  0  0  0  0
 12 18  1  0  0  0  0
 13 19  1  0  0  0  0
 13  3  1  0  0  0  0
 14 16  1  0  0  0  0
 16 26  1  0  0  0  0
 16  7  1  0  0  0  0
 17  4  1  0  0  0  0
 18 11  1  0  0  0  0
 20  8  1  0  0  0  0
 20 17  1  0  0  0  0
 21 22  2  0  0  0  0
 22  6  1  0  0  0  0
 23 25  2  0  0  0  0
 24 25  1  0  0  0  0
 25 21  1  0  0  0  0
 27 28  1  0  0  0  0
 27 26  1  0  0  0  0
 29 27  1  0  0  0  0
 30 29  1  0  0  0  0
M  END
>  <MODEL>
8

>  <REMARK>
 VINA RESULT:      -2.5      3.139      5.643
  Name = 
  5 active torsions:
  status: ('A' for Active; 'I' for Inactive)
    1  A    between atoms: C_7  and  C_10
    2  A    between atoms: C_7  and  N_15
    3  A    between atoms: C_8  and  C_12
    4  A    between atoms: N_9  and  C_21
    5  A    between atoms: C_10  and  N_25
                            x       y       z     vdW  Elec       q    Type
                         _______ _______ _______ _____ _____    ______ ____

>  <TORSDO>
F 5

$$$$
=
 OpenBabel10272413463D

 30 32  0  0  1  0  0  0  0  0999 V2000
  188.4310  177.4030  140.5700 C   0  0  2  0  0  3  0  0  0  0  0  0
  189.5310  177.8950  139.5910 C   0  0  1  0  0  3  0  0  0  0  0  0
  188.2140  177.6700  137.4170 C   0  0  1  0  0  3  0  0  0  0  0  0
  187.2990  178.4220  140.9190 C   0  0  1  0  0  0  0  0  0  0  0  0
  187.8530  179.5890  141.4490 O   0  0  0  0  0  1  0  0  0  0  0  0
  189.0400  176.7000  141.8090 C   0  0  2  0  0  3  0  0  0  0  0  0
  186.6840  177.8310  137.4900 C   0  0  2  0  0  3  0  0  0  0  0  0
  187.9770  176.1730  142.7690 C   0  0  0  0  0  2  0  0  0  0  0  0
  190.2140  176.1620  137.7840 C   0  0  0  0  0  2  0  0  0  0  0  0
  190.4630  176.7320  139.1910 C   0  0  0  0  0  2  0  0  0  0  0  0
  188.6420  175.7170  135.9380 C   0  0  0  0  0  1  0  0  0  0  0  0
  187.9440  175.2550  138.2480 C   0  0  0  0  0  1  0  0  0  0  0  0
  188.9810  178.6200  138.3560 C   0  0  2  0  0  3  0  0  0  0  0  0
  186.4630  178.8080  139.6950 C   0  0  0  0  0  2  0  0  0  0  0  0
  186.2390  179.1370  136.8280 C   0  0  0  0  0  1  0  0  0  0  0  0
  186.1560  177.6460  138.8570 N   0  0  0  0  0  0  0  0  0  0  0  0
  186.3180  177.8250  141.9360 C   0  0  0  0  0  2  0  0  0  0  0  0
  188.7410  176.2100  137.3680 C   0  0  0  0  0  0  0  0  0  0  0  0
  190.0150  179.2490  137.6610 O   0  0  0  0  0  1  0  0  0  0  0  0
  187.0190  177.2830  143.1730 C   0  0  0  0  0  2  0  0  0  0  0  0
  190.2890  177.3970  143.7950 N   0  0  0  0  0  0  0  0  0  0  0  0
  190.1170  177.4780  142.5140 C   0  0  0  0  0  3  0  0  0  0  0  0
  191.9820  177.5890  145.4480 N   0  0  0  0  0  2  0  0  0  0  0  0
  191.5840  179.5340  144.0940 C   0  0  0  0  0  1  0  0  0  0  0  0
  191.3030  178.1300  144.4880 C   0  0  0  0  0  0  0  0  0  0  0  0
  184.7020  177.5180  138.8000 C   0  0  0  0  0  2  0  0  0  0  0  0
  184.0100  178.5560  139.6820 C   0  0  1  0  0  3  0  0  0  0  0  0
  183.2770  179.5850  138.8420 C   0  0  0  0  0  1  0  0  0  0  0  0
  183.0860  177.9220  140.6100 N   0  0  0  0  0  2  0  0  0  0  0  0
  182.5720  176.7300  139.9570 C   0  0  0  0  0  1  0  0  0  0  0  0
  1  4  1  0  0  0  0
  1  6  1  0  0  0  0
  2  1  1  0  0  0  0
  3  7  1  0  0  0  0
  3 13  1  0  0  0  0
  4  5  1  0  0  0  0
  4 17  1  0  0  0  0
  6 22  1  0  0  0  0
  6  8  1  0  0  0  0
  7 16  1  0  0  0  0
  8 20  1  0  0  0  0
  9 10  1  0  0  0  0
 10  2  1  0  0  0  0
 11 18  1  0  0  0  0
 13  2  1  0  0  0  0
 14  4  1  0  0  0  0
 15  7  1  0  0  0  0
 16 14  1  0  0  0  0
 17 20  1  0  0  0  0
 18  3  1  0  0  0  0
 18  9  1  0  0  0  0
 18 12  1  0  0  0  0
 19 13  1  0  0  0  0
 21 25  1  0  0  0  0
 22 21  2  0  0  0  0
 24 25  1  0  0  0  0
 25 23  2  0  0  0  0
 26 16  1  0  0  0  0
 26 27  1  0  0  0  0
 27 29  1  0  0  0  0
 28 27  1  0  0  0  0
 30 29  1  0  0  0  0
M  END
>  <MODEL>
9

>  <REMARK>
 VINA RESULT:      -1.5      2.622      3.690
  Name = 
  5 active torsions:
  status: ('A' for Active; 'I' for Inactive)
    1  A    between atoms: C_7  and  C_10
    2  A    between atoms: C_7  and  N_15
    3  A    between atoms: C_8  and  C_12
    4  A    between atoms: N_9  and  C_21
    5  A    between atoms: C_10  and  N_25
                            x       y       z     vdW  Elec       q    Type
                         _______ _______ _______ _____ _____    ______ ____

>  <TORSDO>
F 5

$$$$
