=
 OpenBabel10272400453D

 25 28  0  0  1  0  0  0  0  0999 V2000
  188.3690  177.6010  144.5260 C   0  0  0  0  0  0  0  0  0  0  0  0
  187.0680  177.8980  145.1290 N   0  0  0  0  0  0  0  0  0  0  0  0
  187.9180  177.7800  147.4180 C   0  0  0  0  0  3  0  0  0  0  0  0
  185.9160  178.2500  144.5370 C   0  0  0  0  0  0  0  0  0  0  0  0
  183.3780  179.0480  143.7730 C   0  0  0  0  0  3  0  0  0  0  0  0
  189.0940  177.4300  146.9910 N   0  0  0  0  0  0  0  0  0  0  0  0
  184.9730  178.5500  145.4900 C   0  0  0  0  0  0  0  0  0  0  0  0
  183.6860  178.9540  145.1420 C   0  0  0  0  0  3  0  0  0  0  0  0
  190.6040  176.7880  145.2200 C   0  0  2  0  0  3  0  0  0  0  0  0
  191.8640  176.4920  146.4080 Cl  0  0  0  0  0  0  0  0  0  0  0  0
  188.2460  176.2060  143.3620 S   0  0  0  0  0  0  0  0  0  0  0  0
  184.3500  178.7480  142.7950 C   0  0  0  0  0  3  0  0  0  0  0  0
  186.8450  178.0110  146.4540 C   0  0  0  0  0  0  0  0  0  0  0  0
  185.5410  178.4100  146.7450 C   0  0  0  0  0  3  0  0  0  0  0  0
  190.9220  176.5330  143.8000 C   0  0  0  0  0  3  0  0  0  0  0  0
  185.6430  178.3450  143.1730 C   0  0  0  0  0  3  0  0  0  0  0  0
  189.9800  176.3610  142.8680 C   0  0  0  0  0  0  0  0  0  0  0  0
  189.3990  177.2520  145.5920 C   0  0  0  0  0  0  0  0  0  0  0  0
  190.3910  176.2550  141.5000 N   0  0  0  0  0  2  0  0  0  0  0  0
  189.9880  177.0920  140.4090 C   0  0  0  0  0  0  0  0  0  0  0  0
  189.2550  178.0990  140.5890 O   0  0  0  0  0  0  0  0  0  0  0  0
  190.4400  176.7560  139.0290 C   0  0  0  0  0  2  0  0  0  0  0  0
  189.3910  177.1340  138.0410 C   0  0  0  0  0  0  0  0  0  0  0  0
  188.2070  176.4120  137.9740 O   0  0  0  0  0  1  0  0  0  0  0  0
  189.5650  178.1260  137.2870 O   0  0  0  0  0  0  0  0  0  0  0  0
  1  2  1  0  0  0  0
  1 18  2  0  0  0  0
  2 13  1  0  0  0  0
  4  2  1  0  0  0  0
  4  7  1  0  0  0  0
  5  8  1  0  0  0  0
  6  3  2  0  0  0  0
  7 14  1  0  0  0  0
  8  7  2  0  0  0  0
  9 18  1  0  0  0  0
  9 10  1  6  0  0  0
 11  1  1  0  0  0  0
 12 16  1  0  0  0  0
 12  5  2  0  0  0  0
 13 14  2  0  0  0  0
 13  3  1  0  0  0  0
 15  9  1  0  0  0  0
 16  4  2  0  0  0  0
 17 11  1  0  0  0  0
 17 15  2  0  0  0  0
 18  6  1  0  0  0  0
 19 17  1  0  0  0  0
 20 21  2  0  0  0  0
 20 19  1  0  0  0  0
 22 20  1  0  0  0  0
 23 22  1  0  0  0  0
 24 23  1  0  0  0  0
 25 23  2  0  0  0  0
M  END
>  <MODEL>
1

>  <REMARK>
 VINA RESULT:     -10.0      0.000      0.000
  Name = 
  3 active torsions:
  status: ('A' for Active; 'I' for Inactive)
    1  A    between atoms: C_2  and  C_21
    2  A    between atoms: N_6  and  C_23
    3  A    between atoms: C_15  and  C_21
                            x       y       z     vdW  Elec       q    Type
                         _______ _______ _______ _____ _____    ______ ____

>  <TORSDO>
F 3

$$$$
=
 OpenBabel10272400453D

 25 28  0  0  1  0  0  0  0  0999 V2000
  185.6810  177.9570  143.9950 C   0  0  0  0  0  0  0  0  0  0  0  0
  186.6670  177.9980  145.0770 N   0  0  0  0  0  0  0  0  0  0  0  0
  185.0400  178.7070  146.7570 C   0  0  0  0  0  3  0  0  0  0  0  0
  187.9520  177.6110  145.0710 C   0  0  0  0  0  0  0  0  0  0  0  0
  190.5860  176.8980  145.5410 C   0  0  0  0  0  3  0  0  0  0  0  0
  184.1050  178.7840  145.8580 N   0  0  0  0  0  0  0  0  0  0  0  0
  188.4770  177.7150  146.3360 C   0  0  0  0  0  0  0  0  0  0  0  0
  189.7990  177.3660  146.6090 C   0  0  0  0  0  3  0  0  0  0  0  0
  183.3550  178.6960  143.5640 C   0  0  2  0  0  3  0  0  0  0  0  0
  181.7510  179.1980  144.0740 Cl  0  0  0  0  0  0  0  0  0  0  0  0
  186.2350  178.9420  142.5680 S   0  0  0  0  0  0  0  0  0  0  0  0
  190.0410  176.7830  144.2440 C   0  0  0  0  0  3  0  0  0  0  0  0
  186.3890  178.3140  146.3570 C   0  0  0  0  0  0  0  0  0  0  0  0
  187.4910  178.1640  147.1980 C   0  0  0  0  0  3  0  0  0  0  0  0
  183.5820  178.4750  142.1210 C   0  0  0  0  0  3  0  0  0  0  0  0
  188.7050  177.1390  143.9950 C   0  0  0  0  0  3  0  0  0  0  0  0
  184.8010  178.4600  141.5750 C   0  0  0  0  0  0  0  0  0  0  0  0
  184.3360  178.4980  144.4620 C   0  0  0  0  0  0  0  0  0  0  0  0
  184.9210  178.1030  140.1930 N   0  0  0  0  0  2  0  0  0  0  0  0
  184.6740  178.9430  139.0580 C   0  0  0  0  0  0  0  0  0  0  0  0
  184.3900  180.1620  139.1930 O   0  0  0  0  0  0  0  0  0  0  0  0
  184.7460  178.3580  137.6910 C   0  0  0  0  0  2  0  0  0  0  0  0
  186.1490  177.9750  137.3690 C   0  0  0  0  0  0  0  0  0  0  0  0
  187.1250  178.9550  137.2430 O   0  0  0  0  0  1  0  0  0  0  0  0
  186.4570  176.7620  137.2430 O   0  0  0  0  0  0  0  0  0  0  0  0
  1 18  2  0  0  0  0
  1  2  1  0  0  0  0
  2 13  1  0  0  0  0
  4  2  1  0  0  0  0
  4  7  1  0  0  0  0
  5  8  1  0  0  0  0
  6  3  2  0  0  0  0
  7  8  2  0  0  0  0
  7 14  1  0  0  0  0
  9 10  1  1  0  0  0
  9 18  1  0  0  0  0
 11  1  1  0  0  0  0
 12  5  2  0  0  0  0
 13  3  1  0  0  0  0
 13 14  2  0  0  0  0
 15  9  1  0  0  0  0
 16 12  1  0  0  0  0
 16  4  2  0  0  0  0
 17 15  2  0  0  0  0
 17 11  1  0  0  0  0
 18  6  1  0  0  0  0
 19 17  1  0  0  0  0
 20 21  2  0  0  0  0
 20 19  1  0  0  0  0
 22 20  1  0  0  0  0
 23 22  1  0  0  0  0
 24 23  1  0  0  0  0
 25 23  2  0  0  0  0
M  END
>  <MODEL>
2

>  <REMARK>
 VINA RESULT:      -8.6      3.263      5.270
  Name = 
  3 active torsions:
  status: ('A' for Active; 'I' for Inactive)
    1  A    between atoms: C_2  and  C_21
    2  A    between atoms: N_6  and  C_23
    3  A    between atoms: C_15  and  C_21
                            x       y       z     vdW  Elec       q    Type
                         _______ _______ _______ _____ _____    ______ ____

>  <TORSDO>
F 3

$$$$
=
 OpenBabel10272400453D

 25 28  0  0  1  0  0  0  0  0999 V2000
  185.4760  178.1930  143.0060 C   0  0  0  0  0  0  0  0  0  0  0  0
  185.6960  178.2760  144.4520 N   0  0  0  0  0  0  0  0  0  0  0  0
  183.3570  178.7880  144.9440 C   0  0  0  0  0  3  0  0  0  0  0  0
  186.8000  177.9960  145.1620 C   0  0  0  0  0  0  0  0  0  0  0  0
  188.7900  177.4850  147.0170 C   0  0  0  0  0  3  0  0  0  0  0  0
  183.0690  178.8210  143.6770 N   0  0  0  0  0  0  0  0  0  0  0  0
  186.5300  178.0970  146.5040 C   0  0  0  0  0  0  0  0  0  0  0  0
  187.5070  177.8490  147.4660 C   0  0  0  0  0  3  0  0  0  0  0  0
  183.7180  178.7540  141.3520 C   0  0  2  0  0  3  0  0  0  0  0  0
  182.0610  179.1040  140.8850 Cl  0  0  0  0  0  0  0  0  0  0  0  0
  186.6360  179.2710  142.1070 S   0  0  0  0  0  0  0  0  0  0  0  0
  189.0620  177.3730  145.6370 C   0  0  0  0  0  3  0  0  0  0  0  0
  184.7320  178.5220  145.3610 C   0  0  0  0  0  0  0  0  0  0  0  0
  185.1970  178.4330  146.6720 C   0  0  0  0  0  3  0  0  0  0  0  0
  184.7200  178.6040  140.2780 C   0  0  0  0  0  3  0  0  0  0  0  0
  188.0580  177.6270  144.6870 C   0  0  0  0  0  3  0  0  0  0  0  0
  186.0340  178.7090  140.4950 C   0  0  0  0  0  0  0  0  0  0  0  0
  184.0550  178.6050  142.6450 C   0  0  0  0  0  0  0  0  0  0  0  0
  186.9260  178.4130  139.4140 N   0  0  0  0  0  2  0  0  0  0  0  0
  188.2330  177.8330  139.5040 C   0  0  0  0  0  0  0  0  0  0  0  0
  188.7020  177.4400  140.6030 O   0  0  0  0  0  0  0  0  0  0  0  0
  189.0580  177.7030  138.2700 C   0  0  0  0  0  2  0  0  0  0  0  0
  188.6310  178.7110  137.2590 C   0  0  0  0  0  0  0  0  0  0  0  0
  187.8180  178.3310  136.2000 O   0  0  0  0  0  0  0  0  0  0  0  0
  188.9820  179.9130  137.3830 O   0  0  0  0  0  1  0  0  0  0  0  0
  1  2  1  0  0  0  0
  2  4  1  0  0  0  0
  2 13  1  0  0  0  0
  3 13  1  0  0  0  0
  4  7  1  0  0  0  0
  5  8  1  0  0  0  0
  6  3  2  0  0  0  0
  7 14  1  0  0  0  0
  7  8  2  0  0  0  0
  9 10  1  6  0  0  0
  9 18  1  0  0  0  0
 11  1  1  0  0  0  0
 12  5  2  0  0  0  0
 13 14  2  0  0  0  0
 15 17  2  0  0  0  0
 15  9  1  0  0  0  0
 16  4  2  0  0  0  0
 16 12  1  0  0  0  0
 17 11  1  0  0  0  0
 18  1  2  0  0  0  0
 18  6  1  0  0  0  0
 19 20  1  0  0  0  0
 19 17  1  0  0  0  0
 20 21  2  0  0  0  0
 22 20  1  0  0  0  0
 23 25  1  0  0  0  0
 23 22  1  0  0  0  0
 24 23  2  0  0  0  0
M  END
>  <MODEL>
3

>  <REMARK>
 VINA RESULT:      -8.6      3.044      4.833
  Name = 
  3 active torsions:
  status: ('A' for Active; 'I' for Inactive)
    1  A    between atoms: C_2  and  C_21
    2  A    between atoms: N_6  and  C_23
    3  A    between atoms: C_15  and  C_21
                            x       y       z     vdW  Elec       q    Type
                         _______ _______ _______ _____ _____    ______ ____

>  <TORSDO>
F 3

$$$$
=
 OpenBabel10272400453D

 25 28  0  0  1  0  0  0  0  0999 V2000
  186.4130  178.0780  142.7410 C   0  0  0  0  0  0  0  0  0  0  0  0
  186.3750  178.2870  144.1900 N   0  0  0  0  0  0  0  0  0  0  0  0
  184.1420  179.2810  144.1530 C   0  0  0  0  0  3  0  0  0  0  0  0
  187.2470  177.8920  145.1300 C   0  0  0  0  0  0  0  0  0  0  0  0
  188.7120  177.2400  147.3870 C   0  0  0  0  0  3  0  0  0  0  0  0
  184.1060  179.2170  142.8560 N   0  0  0  0  0  0  0  0  0  0  0  0
  186.7620  178.1990  146.3770 C   0  0  0  0  0  0  0  0  0  0  0  0
  187.4720  177.8870  147.5350 C   0  0  0  0  0  3  0  0  0  0  0  0
  185.1430  178.7580  140.7240 C   0  0  2  0  0  3  0  0  0  0  0  0
  183.7090  179.3540  139.9030 Cl  0  0  0  0  0  0  0  0  0  0  0  0
  187.9150  178.8070  142.0150 S   0  0  0  0  0  0  0  0  0  0  0  0
  189.2060  176.9180  146.1040 C   0  0  0  0  0  3  0  0  0  0  0  0
  185.3310  178.8140  144.8610 C   0  0  0  0  0  0  0  0  0  0  0  0
  185.5180  178.7950  146.2430 C   0  0  0  0  0  3  0  0  0  0  0  0
  186.2730  178.2990  139.8920 C   0  0  0  0  0  3  0  0  0  0  0  0
  188.4680  177.2410  144.9520 C   0  0  0  0  0  3  0  0  0  0  0  0
  187.5180  178.1810  140.3640 C   0  0  0  0  0  0  0  0  0  0  0  0
  185.1980  178.7020  142.0660 C   0  0  0  0  0  0  0  0  0  0  0  0
  188.5130  177.6000  139.5140 N   0  0  0  0  0  2  0  0  0  0  0  0
  189.1830  178.2250  138.4120 C   0  0  0  0  0  0  0  0  0  0  0  0
  188.9960  179.4380  138.1330 O   0  0  0  0  0  0  0  0  0  0  0  0
  190.1130  177.4180  137.5730 C   0  0  0  0  0  2  0  0  0  0  0  0
  190.8680  176.4560  138.4240 C   0  0  0  0  0  0  0  0  0  0  0  0
  191.8250  176.9190  139.3160 O   0  0  0  0  0  1  0  0  0  0  0  0
  190.6140  175.2250  138.3580 O   0  0  0  0  0  0  0  0  0  0  0  0
  1  2  1  0  0  0  0
  2 13  1  0  0  0  0
  2  4  1  0  0  0  0
  3 13  1  0  0  0  0
  4  7  1  0  0  0  0
  5  8  1  0  0  0  0
  6  3  2  0  0  0  0
  7  8  2  0  0  0  0
  9 10  1  6  0  0  0
  9 18  1  0  0  0  0
 11  1  1  0  0  0  0
 12  5  2  0  0  0  0
 13 14  2  0  0  0  0
 14  7  1  0  0  0  0
 15 17  2  0  0  0  0
 15  9  1  0  0  0  0
 16  4  2  0  0  0  0
 16 12  1  0  0  0  0
 17 11  1  0  0  0  0
 18  1  2  0  0  0  0
 18  6  1  0  0  0  0
 19 17  1  0  0  0  0
 20 19  1  0  0  0  0
 21 20  2  0  0  0  0
 22 20  1  0  0  0  0
 22 23  1  0  0  0  0
 23 24  1  0  0  0  0
 25 23  2  0  0  0  0
M  END
>  <MODEL>
4

>  <REMARK>
 VINA RESULT:      -8.6      2.868      4.610
  Name = 
  3 active torsions:
  status: ('A' for Active; 'I' for Inactive)
    1  A    between atoms: C_2  and  C_21
    2  A    between atoms: N_6  and  C_23
    3  A    between atoms: C_15  and  C_21
                            x       y       z     vdW  Elec       q    Type
                         _______ _______ _______ _____ _____    ______ ____

>  <TORSDO>
F 3

$$$$
=
 OpenBabel10272400453D

 25 28  0  0  1  0  0  0  0  0999 V2000
  187.7470  177.5860  143.8670 C   0  0  0  0  0  0  0  0  0  0  0  0
  188.3720  177.4560  145.1850 N   0  0  0  0  0  0  0  0  0  0  0  0
  186.3210  178.0110  146.3940 C   0  0  0  0  0  3  0  0  0  0  0  0
  189.6020  177.0260  145.5050 C   0  0  0  0  0  0  0  0  0  0  0  0
  191.9820  176.1630  146.6280 C   0  0  0  0  0  3  0  0  0  0  0  0
  185.6930  178.2330  145.2790 N   0  0  0  0  0  0  0  0  0  0  0  0
  189.7320  176.9530  146.8700 C   0  0  0  0  0  0  0  0  0  0  0  0
  190.9150  176.5240  147.4700 C   0  0  0  0  0  3  0  0  0  0  0  0
  185.6510  178.4570  142.8750 C   0  0  2  0  0  3  0  0  0  0  0  0
  183.9670  178.9510  142.9550 Cl  0  0  0  0  0  0  0  0  0  0  0  0
  188.6970  178.7180  142.8040 S   0  0  0  0  0  0  0  0  0  0  0  0
  191.8430  176.2300  145.2250 C   0  0  0  0  0  3  0  0  0  0  0  0
  187.7290  177.6210  146.3580 C   0  0  0  0  0  0  0  0  0  0  0  0
  188.5350  177.3280  147.4570 C   0  0  0  0  0  3  0  0  0  0  0  0
  186.2920  178.4080  141.5450 C   0  0  0  0  0  3  0  0  0  0  0  0
  190.6390  176.6630  144.6450 C   0  0  0  0  0  3  0  0  0  0  0  0
  187.6190  178.4160  141.3820 C   0  0  0  0  0  0  0  0  0  0  0  0
  186.3240  178.1140  143.9860 C   0  0  0  0  0  0  0  0  0  0  0  0
  188.1400  178.2290  140.0610 N   0  0  0  0  0  2  0  0  0  0  0  0
  189.2910  177.4630  139.6850 C   0  0  0  0  0  0  0  0  0  0  0  0
  189.9330  176.7860  140.5300 O   0  0  0  0  0  0  0  0  0  0  0  0
  189.7430  177.4770  138.2660 C   0  0  0  0  0  2  0  0  0  0  0  0
  188.8100  178.2910  137.4380 C   0  0  0  0  0  0  0  0  0  0  0  0
  188.9820  179.6660  137.3460 O   0  0  0  0  0  1  0  0  0  0  0  0
  187.8850  177.7300  136.7970 O   0  0  0  0  0  0  0  0  0  0  0  0
  1 18  2  0  0  0  0
  1  2  1  0  0  0  0
  2  4  1  0  0  0  0
  2 13  1  0  0  0  0
  4  7  1  0  0  0  0
  5  8  1  0  0  0  0
  6  3  2  0  0  0  0
  7 14  1  0  0  0  0
  7  8  2  0  0  0  0
  9 10  1  6  0  0  0
  9 18  1  0  0  0  0
 11  1  1  0  0  0  0
 12  5  2  0  0  0  0
 13  3  1  0  0  0  0
 13 14  2  0  0  0  0
 15  9  1  0  0  0  0
 16 12  1  0  0  0  0
 16  4  2  0  0  0  0
 17 15  2  0  0  0  0
 17 11  1  0  0  0  0
 18  6  1  0  0  0  0
 19 17  1  0  0  0  0
 20 19  1  0  0  0  0
 20 21  2  0  0  0  0
 22 20  1  0  0  0  0
 23 22  1  0  0  0  0
 24 23  1  0  0  0  0
 25 23  2  0  0  0  0
M  END
>  <MODEL>
5

>  <REMARK>
 VINA RESULT:      -8.5      2.393      4.631
  Name = 
  3 active torsions:
  status: ('A' for Active; 'I' for Inactive)
    1  A    between atoms: C_2  and  C_21
    2  A    between atoms: N_6  and  C_23
    3  A    between atoms: C_15  and  C_21
                            x       y       z     vdW  Elec       q    Type
                         _______ _______ _______ _____ _____    ______ ____

>  <TORSDO>
F 3

$$$$
=
 OpenBabel10272400453D

 25 28  0  0  1  0  0  0  0  0999 V2000
  187.8070  177.6650  143.3050 C   0  0  0  0  0  0  0  0  0  0  0  0
  188.1840  177.6380  144.7190 N   0  0  0  0  0  0  0  0  0  0  0  0
  185.9390  178.2170  145.4970 C   0  0  0  0  0  3  0  0  0  0  0  0
  189.3410  177.2620  145.2850 C   0  0  0  0  0  0  0  0  0  0  0  0
  191.4890  176.5380  146.8750 C   0  0  0  0  0  3  0  0  0  0  0  0
  185.5210  178.3490  144.2740 N   0  0  0  0  0  0  0  0  0  0  0  0
  189.2220  177.2820  146.6530 C   0  0  0  0  0  0  0  0  0  0  0  0
  190.2820  176.9250  147.4840 C   0  0  0  0  0  3  0  0  0  0  0  0
  185.9130  178.4150  141.8920 C   0  0  2  0  0  3  0  0  0  0  0  0
  184.2360  178.8680  141.6340 Cl  0  0  0  0  0  0  0  0  0  0  0  0
  188.9170  178.7510  142.3540 S   0  0  0  0  0  0  0  0  0  0  0  0
  191.6070  176.5100  145.4680 C   0  0  0  0  0  3  0  0  0  0  0  0
  187.3350  177.8630  145.7430 C   0  0  0  0  0  0  0  0  0  0  0  0
  187.9320  177.6630  146.9870 C   0  0  0  0  0  3  0  0  0  0  0  0
  186.7860  178.2960  140.7070 C   0  0  0  0  0  3  0  0  0  0  0  0
  190.5210  176.8720  144.6520 C   0  0  0  0  0  3  0  0  0  0  0  0
  188.1200  178.3280  140.7860 C   0  0  0  0  0  0  0  0  0  0  0  0
  186.3780  178.1620  143.1280 C   0  0  0  0  0  0  0  0  0  0  0  0
  188.8750  178.0690  139.5960 N   0  0  0  0  0  2  0  0  0  0  0  0
  189.8640  177.0500  139.4030 C   0  0  0  0  0  0  0  0  0  0  0  0
  190.1090  176.1960  140.2950 O   0  0  0  0  0  0  0  0  0  0  0  0
  190.6250  177.0080  138.1240 C   0  0  0  0  0  2  0  0  0  0  0  0
  191.7870  176.0830  138.2480 C   0  0  0  0  0  0  0  0  0  0  0  0
  191.6060  174.7160  138.0910 O   0  0  0  0  0  0  0  0  0  0  0  0
  192.9370  176.5450  138.4640 O   0  0  0  0  0  1  0  0  0  0  0  0
  1  2  1  0  0  0  0
  2  4  1  0  0  0  0
  2 13  1  0  0  0  0
  3 13  1  0  0  0  0
  4  7  1  0  0  0  0
  5  8  1  0  0  0  0
  6  3  2  0  0  0  0
  7 14  1  0  0  0  0
  7  8  2  0  0  0  0
  9 10  1  6  0  0  0
  9 18  1  0  0  0  0
 11  1  1  0  0  0  0
 12  5  2  0  0  0  0
 13 14  2  0  0  0  0
 15 17  2  0  0  0  0
 15  9  1  0  0  0  0
 16  4  2  0  0  0  0
 16 12  1  0  0  0  0
 17 11  1  0  0  0  0
 18  1  2  0  0  0  0
 18  6  1  0  0  0  0
 19 17  1  0  0  0  0
 20 19  1  0  0  0  0
 20 21  2  0  0  0  0
 22 23  1  0  0  0  0
 22 20  1  0  0  0  0
 23 25  1  0  0  0  0
 24 23  2  0  0  0  0
M  END
>  <MODEL>
6

>  <REMARK>
 VINA RESULT:      -8.5      2.656      4.653
  Name = 
  3 active torsions:
  status: ('A' for Active; 'I' for Inactive)
    1  A    between atoms: C_2  and  C_21
    2  A    between atoms: N_6  and  C_23
    3  A    between atoms: C_15  and  C_21
                            x       y       z     vdW  Elec       q    Type
                         _______ _______ _______ _____ _____    ______ ____

>  <TORSDO>
F 3

$$$$
=
 OpenBabel10272400453D

 25 28  0  0  1  0  0  0  0  0999 V2000
  186.3460  177.6830  143.6400 C   0  0  0  0  0  0  0  0  0  0  0  0
  187.6000  177.6180  144.3940 N   0  0  0  0  0  0  0  0  0  0  0  0
  186.5810  178.4100  146.4710 C   0  0  0  0  0  3  0  0  0  0  0  0
  188.7930  177.1320  144.0210 C   0  0  0  0  0  0  0  0  0  0  0  0
  191.3840  176.2030  143.7190 C   0  0  0  0  0  3  0  0  0  0  0  0
  185.4390  178.5830  145.8760 N   0  0  0  0  0  0  0  0  0  0  0  0
  189.6630  177.1620  145.0830 C   0  0  0  0  0  0  0  0  0  0  0  0
  190.9740  176.7040  144.9670 C   0  0  0  0  0  3  0  0  0  0  0  0
  184.0630  178.6120  143.8920 C   0  0  2  0  0  3  0  0  0  0  0  0
  182.7170  179.2260  144.8400 Cl  0  0  0  0  0  0  0  0  0  0  0  0
  186.5510  178.6570  142.1150 S   0  0  0  0  0  0  0  0  0  0  0  0
  190.4850  176.1640  142.6310 C   0  0  0  0  0  3  0  0  0  0  0  0
  187.7240  177.9230  145.7020 C   0  0  0  0  0  0  0  0  0  0  0  0
  189.0030  177.6660  146.1920 C   0  0  0  0  0  3  0  0  0  0  0  0
  183.8510  178.4110  142.4440 C   0  0  0  0  0  3  0  0  0  0  0  0
  189.1670  176.6300  142.7750 C   0  0  0  0  0  3  0  0  0  0  0  0
  184.8590  178.3140  141.5730 C   0  0  0  0  0  0  0  0  0  0  0  0
  185.2390  178.3150  144.4720 C   0  0  0  0  0  0  0  0  0  0  0  0
  184.5510  177.9840  140.2130 N   0  0  0  0  0  2  0  0  0  0  0  0
  184.3340  178.8960  139.1290 C   0  0  0  0  0  0  0  0  0  0  0  0
  184.4830  180.1370  139.2760 O   0  0  0  0  0  0  0  0  0  0  0  0
  183.9130  178.3640  137.8040 C   0  0  0  0  0  2  0  0  0  0  0  0
  185.0220  177.5830  137.1890 C   0  0  0  0  0  0  0  0  0  0  0  0
  186.3310  178.0330  137.2940 O   0  0  0  0  0  1  0  0  0  0  0  0
  184.7770  176.4970  136.6010 O   0  0  0  0  0  0  0  0  0  0  0  0
  1  2  1  0  0  0  0
  1 18  2  0  0  0  0
  2 13  1  0  0  0  0
  4  2  1  0  0  0  0
  4  7  1  0  0  0  0
  5  8  1  0  0  0  0
  6  3  2  0  0  0  0
  7 14  1  0  0  0  0
  8  7  2  0  0  0  0
  9 18  1  0  0  0  0
  9 10  1  1  0  0  0
 11  1  1  0  0  0  0
 12 16  1  0  0  0  0
 12  5  2  0  0  0  0
 13 14  2  0  0  0  0
 13  3  1  0  0  0  0
 15  9  1  0  0  0  0
 16  4  2  0  0  0  0
 17 11  1  0  0  0  0
 17 15  2  0  0  0  0
 18  6  1  0  0  0  0
 19 17  1  0  0  0  0
 20 21  2  0  0  0  0
 20 19  1  0  0  0  0
 22 20  1  0  0  0  0
 23 24  1  0  0  0  0
 23 22  1  0  0  0  0
 25 23  2  0  0  0  0
M  END
>  <MODEL>
7

>  <REMARK>
 VINA RESULT:      -8.3      3.202      5.387
  Name = 
  3 active torsions:
  status: ('A' for Active; 'I' for Inactive)
    1  A    between atoms: C_2  and  C_21
    2  A    between atoms: N_6  and  C_23
    3  A    between atoms: C_15  and  C_21
                            x       y       z     vdW  Elec       q    Type
                         _______ _______ _______ _____ _____    ______ ____

>  <TORSDO>
F 3

$$$$
=
 OpenBabel10272400453D

 25 28  0  0  1  0  0  0  0  0999 V2000
  189.0220  177.9960  143.3400 C   0  0  0  0  0  0  0  0  0  0  0  0
  189.4370  177.5530  144.6730 N   0  0  0  0  0  0  0  0  0  0  0  0
  191.6310  176.7850  143.9140 C   0  0  0  0  0  3  0  0  0  0  0  0
  188.8160  177.7060  145.8520 C   0  0  0  0  0  0  0  0  0  0  0  0
  187.9460  177.8380  148.4770 C   0  0  0  0  0  3  0  0  0  0  0  0
  191.3320  177.0670  142.6810 N   0  0  0  0  0  0  0  0  0  0  0  0
  189.6170  177.2410  146.8660 C   0  0  0  0  0  0  0  0  0  0  0  0
  189.2110  177.2910  148.1990 C   0  0  0  0  0  3  0  0  0  0  0  0
  189.7660  177.7790  140.9860 C   0  0  2  0  0  3  0  0  0  0  0  0
  190.9700  177.4600  139.7470 Cl  0  0  0  0  0  0  0  0  0  0  0  0
  187.4200  177.2650  142.8790 S   0  0  0  0  0  0  0  0  0  0  0  0
  187.1280  178.3230  147.4340 C   0  0  0  0  0  3  0  0  0  0  0  0
  190.6410  177.0190  144.9620 C   0  0  0  0  0  0  0  0  0  0  0  0
  190.8110  176.7910  146.3270 C   0  0  0  0  0  3  0  0  0  0  0  0
  188.4410  178.2660  140.5520 C   0  0  0  0  0  3  0  0  0  0  0  0
  187.5620  178.2640  146.0990 C   0  0  0  0  0  3  0  0  0  0  0  0
  187.3540  178.1900  141.3250 C   0  0  0  0  0  0  0  0  0  0  0  0
  190.0520  177.6060  142.2880 C   0  0  0  0  0  0  0  0  0  0  0  0
  186.1490  178.8130  140.8630 N   0  0  0  0  0  2  0  0  0  0  0  0
  184.8160  178.5720  141.3310 C   0  0  0  0  0  0  0  0  0  0  0  0
  184.5900  177.8020  142.3010 O   0  0  0  0  0  0  0  0  0  0  0  0
  183.6740  179.2400  140.6480 C   0  0  0  0  0  2  0  0  0  0  0  0
  184.0060  179.4890  139.2170 C   0  0  0  0  0  0  0  0  0  0  0  0
  183.9960  178.4390  138.3090 O   0  0  0  0  0  0  0  0  0  0  0  0
  184.2630  180.6570  138.8250 O   0  0  0  0  0  1  0  0  0  0  0  0
  1  2  1  0  0  0  0
  2 13  1  0  0  0  0
  2  4  1  0  0  0  0
  3 13  1  0  0  0  0
  4 16  2  0  0  0  0
  4  7  1  0  0  0  0
  6  3  2  0  0  0  0
  7  8  2  0  0  0  0
  8  5  1  0  0  0  0
  9 10  1  1  0  0  0
  9 18  1  0  0  0  0
 11  1  1  0  0  0  0
 12  5  2  0  0  0  0
 13 14  2  0  0  0  0
 14  7  1  0  0  0  0
 15  9  1  0  0  0  0
 15 17  2  0  0  0  0
 16 12  1  0  0  0  0
 17 11  1  0  0  0  0
 18  6  1  0  0  0  0
 18  1  2  0  0  0  0
 19 17  1  0  0  0  0
 19 20  1  0  0  0  0
 20 21  2  0  0  0  0
 22 20  1  0  0  0  0
 23 22  1  0  0  0  0
 24 23  2  0  0  0  0
 25 23  1  0  0  0  0
M  END
>  <MODEL>
8

>  <REMARK>
 VINA RESULT:      -8.2      2.891      4.946
  Name = 
  3 active torsions:
  status: ('A' for Active; 'I' for Inactive)
    1  A    between atoms: C_2  and  C_21
    2  A    between atoms: N_6  and  C_23
    3  A    between atoms: C_15  and  C_21
                            x       y       z     vdW  Elec       q    Type
                         _______ _______ _______ _____ _____    ______ ____

>  <TORSDO>
F 3

$$$$
=
 OpenBabel10272400453D

 25 28  0  0  1  0  0  0  0  0999 V2000
  189.3810  177.9950  143.2810 C   0  0  0  0  0  0  0  0  0  0  0  0
  189.2110  177.7320  144.7110 N   0  0  0  0  0  0  0  0  0  0  0  0
  191.5520  177.1080  145.0430 C   0  0  0  0  0  3  0  0  0  0  0  0
  188.1420  177.9420  145.4940 C   0  0  0  0  0  0  0  0  0  0  0  0
  186.2340  178.2550  147.4760 C   0  0  0  0  0  3  0  0  0  0  0  0
  191.7920  177.2330  143.7720 N   0  0  0  0  0  0  0  0  0  0  0  0
  188.4560  177.6640  146.8010 C   0  0  0  0  0  0  0  0  0  0  0  0
  187.5210  177.8080  147.8240 C   0  0  0  0  0  3  0  0  0  0  0  0
  191.0630  177.6120  141.5010 C   0  0  2  0  0  3  0  0  0  0  0  0
  192.6920  177.2880  140.9290 Cl  0  0  0  0  0  0  0  0  0  0  0  0
  188.1610  177.0680  142.2970 S   0  0  0  0  0  0  0  0  0  0  0  0
  185.9150  178.5490  146.1330 C   0  0  0  0  0  3  0  0  0  0  0  0
  190.2000  177.3490  145.5440 C   0  0  0  0  0  0  0  0  0  0  0  0
  189.7850  177.2790  146.8720 C   0  0  0  0  0  3  0  0  0  0  0  0
  190.0280  177.9210  140.4950 C   0  0  0  0  0  3  0  0  0  0  0  0
  186.8770  178.3980  145.1200 C   0  0  0  0  0  3  0  0  0  0  0  0
  188.7200  177.8190  140.7480 C   0  0  0  0  0  0  0  0  0  0  0  0
  190.7770  177.6020  142.8150 C   0  0  0  0  0  0  0  0  0  0  0  0
  187.7980  178.2710  139.7490 N   0  0  0  0  0  2  0  0  0  0  0  0
  187.5420  177.6710  138.4730 C   0  0  0  0  0  0  0  0  0  0  0  0
  188.0840  176.5850  138.1370 O   0  0  0  0  0  0  0  0  0  0  0  0
  186.6230  178.3520  137.5200 C   0  0  0  0  0  2  0  0  0  0  0  0
  185.2470  178.4140  138.0880 C   0  0  0  0  0  0  0  0  0  0  0  0
  184.8560  179.5110  138.8440 O   0  0  0  0  0  1  0  0  0  0  0  0
  184.4290  177.4870  137.8570 O   0  0  0  0  0  0  0  0  0  0  0  0
  1  2  1  0  0  0  0
  2  4  1  0  0  0  0
  2 13  1  0  0  0  0
  3 13  1  0  0  0  0
  4  7  1  0  0  0  0
  5  8  1  0  0  0  0
  6  3  2  0  0  0  0
  7 14  1  0  0  0  0
  7  8  2  0  0  0  0
  9 10  1  1  0  0  0
  9 18  1  0  0  0  0
 11  1  1  0  0  0  0
 12  5  2  0  0  0  0
 13 14  2  0  0  0  0
 15 17  2  0  0  0  0
 15  9  1  0  0  0  0
 16  4  2  0  0  0  0
 16 12  1  0  0  0  0
 17 11  1  0  0  0  0
 18  1  2  0  0  0  0
 18  6  1  0  0  0  0
 19 17  1  0  0  0  0
 20 19  1  0  0  0  0
 21 20  2  0  0  0  0
 22 23  1  0  0  0  0
 22 20  1  0  0  0  0
 23 24  1  0  0  0  0
 25 23  2  0  0  0  0
M  END
>  <MODEL>
9

>  <REMARK>
 VINA RESULT:      -8.2      2.433      3.803
  Name = 
  3 active torsions:
  status: ('A' for Active; 'I' for Inactive)
    1  A    between atoms: C_2  and  C_21
    2  A    between atoms: N_6  and  C_23
    3  A    between atoms: C_15  and  C_21
                            x       y       z     vdW  Elec       q    Type
                         _______ _______ _______ _____ _____    ______ ____

>  <TORSDO>
F 3

$$$$
