=
 OpenBabel10272413393D

 32 32  0  0  1  0  0  0  0  0999 V2000
  186.9310  178.1390  141.6050 C   0  0  2  0  0  3  0  0  0  0  0  0
  185.6790  179.0380  141.7400 C   0  0  2  0  0  3  0  0  0  0  0  0
  184.4170  178.6060  145.1460 C   0  0  0  0  0  3  0  0  0  0  0  0
  184.4710  178.5420  143.8450 C   0  0  0  0  0  0  0  0  0  0  0  0
  184.5260  178.4780  142.5410 C   0  0  0  0  0  3  0  0  0  0  0  0
  185.5100  179.2160  145.8930 C   0  0  0  0  0  3  0  0  0  0  0  0
  185.8800  178.7100  147.0590 C   0  0  0  0  0  2  0  0  0  0  0  0
  185.2550  179.6200  140.5230 O   0  0  0  0  0  0  0  0  0  0  0  0
  184.1270  178.9230  140.0580 C   0  0  0  0  0  1  0  0  0  0  0  0
  187.4870  177.6840  142.9630 C   0  0  0  0  0  2  0  0  0  0  0  0
  188.4370  176.4900  142.8730 C   0  0  1  0  0  3  0  0  0  0  0  0
  189.2100  176.6030  141.7150 O   0  0  0  0  0  0  0  0  0  0  0  0
  190.5070  176.2890  142.1200 C   0  0  0  0  0  1  0  0  0  0  0  0
  189.2780  176.4440  143.9880 O   0  0  0  0  0  0  0  0  0  0  0  0
  188.5430  177.0560  145.0070 C   0  0  0  0  0  2  0  0  0  0  0  0
  190.8950  177.7260  145.4020 C   0  0  0  0  0  2  0  0  0  0  0  0
  189.5180  177.1470  147.3030 C   0  0  1  0  0  3  0  0  0  0  0  0
  190.8950  176.5960  147.3620 C   0  0  0  0  0  3  0  0  0  0  0  0
  191.6020  176.9120  146.3490 N   0  0  0  0  0  0  0  0  0  0  0  0
  189.3480  178.1900  148.3890 C   0  0  0  0  0  1  0  0  0  0  0  0
  189.4700  177.8220  145.9360 C   0  0  2  0  0  3  0  0  0  0  0  0
  188.0150  178.8120  140.7720 C   0  0  0  0  0  2  0  0  0  0  0  0
  187.8380  178.5040  139.4210 O   0  0  0  0  0  0  0  0  0  0  0  0
  189.1190  178.5760  138.8690 C   0  0  0  0  0  2  0  0  0  0  0  0
  189.3350  177.4190  137.9110 C   0  0  2  0  0  3  0  0  0  0  0  0
  188.0410  176.6440  137.7640 C   0  0  0  0  0  1  0  0  0  0  0  0
  190.3810  176.5450  138.4230 N   0  0  0  0  0  2  0  0  0  0  0  0
  191.3900  175.9770  137.5860 C   0  0  0  0  0  0  0  0  0  0  0  0
  191.4250  176.2520  136.3550 O   0  0  0  0  0  0  0  0  0  0  0  0
  192.3370  175.1210  138.1500 O   0  0  0  0  0  0  0  0  0  0  0  0
  193.1180  174.2410  137.3560 C   0  0  0  0  0  2  0  0  0  0  0  0
  194.5240  174.1720  137.9130 C   0  0  0  0  0  1  0  0  0  0  0  0
  1 22  1  1  0  0  0
  1  2  1  0  0  0  0
  1 10  1  0  0  0  0
  2  5  1  6  0  0  0
  3  6  1  0  0  0  0
  4  3  2  0  0  0  0
  5  4  2  0  0  0  0
  6  7  2  0  0  0  0
  8  2  1  0  0  0  0
  9  8  1  0  0  0  0
 11 10  1  1  0  0  0
 11 14  1  0  0  0  0
 12 13  1  0  0  0  0
 12 11  1  0  0  0  0
 14 15  1  0  0  0  0
 16 21  1  0  0  0  0
 16 19  1  0  0  0  0
 17 18  1  0  0  0  0
 17 20  1  1  0  0  0
 19 18  2  0  0  0  0
 21 15  1  6  0  0  0
 21 17  1  0  0  0  0
 23 22  1  0  0  0  0
 24 23  1  0  0  0  0
 25 26  1  1  0  0  0
 25 27  1  0  0  0  0
 25 24  1  0  0  0  0
 28 30  1  0  0  0  0
 28 27  1  0  0  0  0
 29 28  2  0  0  0  0
 31 32  1  0  0  0  0
 31 30  1  0  0  0  0
M  END
>  <MODEL>
1

>  <REMARK>
 VINA RESULT:      -6.6      0.000      0.000
  Name = 
  17 active torsions:
  status: ('A' for Active; 'I' for Inactive)
    1  A    between atoms: C_1  and  O_20
    2  A    between atoms: C_2  and  C_9
    3  A    between atoms: C_2  and  O_23
    4  A    between atoms: O_3  and  C_14
    5  A    between atoms: C_4  and  C_5
    6  A    between atoms: O_6  and  C_31
    7  A    between atoms: C_8  and  O_23
    8  A    between atoms: C_8  and  C_28
    9  A    between atoms: C_9  and  N_10
   10  A    between atoms: C_13  and  C_28
   11  A    between atoms: C_13  and  C_31
   12  A    between atoms: C_14  and  C_26
   13  A    between atoms: C_14  and  C_28
   14  A    between atoms: O_16  and  C_27
   15  A    between atoms: O_16  and  C_31
   16  A    between atoms: C_19  and  O_20
   17  A    between atoms: C_27  and  C_32
                            x       y       z     vdW  Elec       q    Type
                         _______ _______ _______ _____ _____    ______ ____

>  <TORSDO>
F 17

$$$$
=
 OpenBabel10272413393D

 32 32  0  0  1  0  0  0  0  0999 V2000
  187.4820  177.8930  141.3200 C   0  0  2  0  0  3  0  0  0  0  0  0
  186.2790  178.7840  141.7120 C   0  0  2  0  0  3  0  0  0  0  0  0
  184.7780  178.3760  145.0230 C   0  0  0  0  0  3  0  0  0  0  0  0
  184.9630  178.2420  143.7400 C   0  0  0  0  0  0  0  0  0  0  0  0
  185.1490  178.1070  142.4530 C   0  0  0  0  0  3  0  0  0  0  0  0
  185.6970  179.1880  145.8110 C   0  0  0  0  0  3  0  0  0  0  0  0
  185.9720  178.8530  147.0620 C   0  0  0  0  0  2  0  0  0  0  0  0
  185.8140  179.6160  140.6680 O   0  0  0  0  0  0  0  0  0  0  0  0
  184.5990  179.1020  140.1870 C   0  0  0  0  0  1  0  0  0  0  0  0
  188.5580  177.8300  142.4140 C   0  0  0  0  0  2  0  0  0  0  0  0
  189.0630  176.4160  142.7020 C   0  0  1  0  0  3  0  0  0  0  0  0
  190.0540  176.0820  141.7760 O   0  0  0  0  0  0  0  0  0  0  0  0
  190.9790  177.1230  141.8540 C   0  0  0  0  0  1  0  0  0  0  0  0
  189.5900  176.3360  143.9940 O   0  0  0  0  0  0  0  0  0  0  0  0
  188.7600  177.1540  144.7640 C   0  0  0  0  0  2  0  0  0  0  0  0
  191.0400  177.8430  145.4430 C   0  0  0  0  0  2  0  0  0  0  0  0
  189.5080  177.0680  147.1430 C   0  0  1  0  0  3  0  0  0  0  0  0
  190.8900  176.5470  147.2910 C   0  0  0  0  0  3  0  0  0  0  0  0
  191.6800  176.9670  146.3820 N   0  0  0  0  0  0  0  0  0  0  0  0
  189.2010  178.0080  148.2920 C   0  0  0  0  0  1  0  0  0  0  0  0
  189.5680  177.8590  145.8410 C   0  0  2  0  0  3  0  0  0  0  0  0
  188.0850  178.3240  139.9890 C   0  0  0  0  0  2  0  0  0  0  0  0
  188.1900  177.2240  139.1340 O   0  0  0  0  0  0  0  0  0  0  0  0
  189.4070  177.4010  138.4720 C   0  0  0  0  0  2  0  0  0  0  0  0
  189.5700  176.3430  137.3970 C   0  0  2  0  0  3  0  0  0  0  0  0
  190.1220  176.9890  136.1410 C   0  0  0  0  0  1  0  0  0  0  0  0
  188.2820  175.7280  137.1120 N   0  0  0  0  0  2  0  0  0  0  0  0
  188.1280  174.3220  136.9010 C   0  0  0  0  0  0  0  0  0  0  0  0
  189.1230  173.5520  136.9930 O   0  0  0  0  0  0  0  0  0  0  0  0
  186.8630  173.8160  136.5990 O   0  0  0  0  0  0  0  0  0  0  0  0
  186.3290  172.6860  137.2700 C   0  0  0  0  0  2  0  0  0  0  0  0
  184.9240  172.9950  137.7400 C   0  0  0  0  0  1  0  0  0  0  0  0
  1 22  1  6  0  0  0
  1  2  1  0  0  0  0
  1 10  1  0  0  0  0
  2  5  1  6  0  0  0
  3  6  1  0  0  0  0
  4  3  2  0  0  0  0
  5  4  2  0  0  0  0
  6  7  2  0  0  0  0
  8  2  1  0  0  0  0
  9  8  1  0  0  0  0
 11 10  1  6  0  0  0
 11 14  1  0  0  0  0
 12 13  1  0  0  0  0
 12 11  1  0  0  0  0
 14 15  1  0  0  0  0
 16 21  1  0  0  0  0
 16 19  1  0  0  0  0
 17 18  1  0  0  0  0
 17 20  1  1  0  0  0
 19 18  2  0  0  0  0
 21 15  1  6  0  0  0
 21 17  1  0  0  0  0
 23 22  1  0  0  0  0
 24 23  1  0  0  0  0
 25 26  1  6  0  0  0
 25 24  1  0  0  0  0
 27 25  1  0  0  0  0
 28 29  2  0  0  0  0
 28 27  1  0  0  0  0
 30 28  1  0  0  0  0
 30 31  1  0  0  0  0
 31 32  1  0  0  0  0
M  END
>  <MODEL>
2

>  <REMARK>
 VINA RESULT:      -6.6      1.853      2.679
  Name = 
  17 active torsions:
  status: ('A' for Active; 'I' for Inactive)
    1  A    between atoms: C_1  and  O_20
    2  A    between atoms: C_2  and  C_9
    3  A    between atoms: C_2  and  O_23
    4  A    between atoms: O_3  and  C_14
    5  A    between atoms: C_4  and  C_5
    6  A    between atoms: O_6  and  C_31
    7  A    between atoms: C_8  and  O_23
    8  A    between atoms: C_8  and  C_28
    9  A    between atoms: C_9  and  N_10
   10  A    between atoms: C_13  and  C_28
   11  A    between atoms: C_13  and  C_31
   12  A    between atoms: C_14  and  C_26
   13  A    between atoms: C_14  and  C_28
   14  A    between atoms: O_16  and  C_27
   15  A    between atoms: O_16  and  C_31
   16  A    between atoms: C_19  and  O_20
   17  A    between atoms: C_27  and  C_32
                            x       y       z     vdW  Elec       q    Type
                         _______ _______ _______ _____ _____    ______ ____

>  <TORSDO>
F 17

$$$$
=
 OpenBabel10272413393D

 32 32  0  0  1  0  0  0  0  0999 V2000
  188.0550  177.7600  143.6410 C   0  0  2  0  0  3  0  0  0  0  0  0
  189.2910  177.8870  144.5640 C   0  0  2  0  0  3  0  0  0  0  0  0
  190.6930  176.6220  147.6960 C   0  0  0  0  0  3  0  0  0  0  0  0
  189.8670  177.2060  146.8750 C   0  0  0  0  0  0  0  0  0  0  0  0
  189.0390  177.7910  146.0500 C   0  0  0  0  0  3  0  0  0  0  0  0
  191.9110  176.0020  147.1880 C   0  0  0  0  0  3  0  0  0  0  0  0
  192.8560  175.6100  148.0280 C   0  0  0  0  0  2  0  0  0  0  0  0
  190.1480  178.9610  144.2320 O   0  0  0  0  0  0  0  0  0  0  0  0
  191.4490  178.4610  144.0510 C   0  0  0  0  0  1  0  0  0  0  0  0
  186.8230  177.2000  144.3690 C   0  0  0  0  0  2  0  0  0  0  0  0
  185.6600  178.1880  144.4630 C   0  0  1  0  0  3  0  0  0  0  0  0
  185.8940  179.0780  145.5120 O   0  0  0  0  0  0  0  0  0  0  0  0
  185.3680  178.4470  146.6390 C   0  0  0  0  0  1  0  0  0  0  0  0
  185.5240  178.9020  143.2690 O   0  0  0  0  0  0  0  0  0  0  0  0
  184.2780  178.5170  142.7700 C   0  0  0  0  0  2  0  0  0  0  0  0
  185.3670  178.9690  140.5910 C   0  0  0  0  0  2  0  0  0  0  0  0
  183.0790  178.1870  140.6050 C   0  0  1  0  0  3  0  0  0  0  0  0
  183.3410  179.2800  139.6340 C   0  0  0  0  0  3  0  0  0  0  0  0
  184.5520  179.6770  139.6460 N   0  0  0  0  0  0  0  0  0  0  0  0
  182.7700  176.9090  139.8510 C   0  0  0  0  0  1  0  0  0  0  0  0
  184.4120  178.0400  141.3330 C   0  0  2  0  0  3  0  0  0  0  0  0
  188.3690  176.9400  142.3960 C   0  0  0  0  0  2  0  0  0  0  0  0
  188.5200  177.7850  141.2940 O   0  0  0  0  0  0  0  0  0  0  0  0
  189.8620  177.6580  140.9290 C   0  0  0  0  0  2  0  0  0  0  0  0
  189.9740  177.4480  139.4300 C   0  0  2  0  0  3  0  0  0  0  0  0
  188.6720  177.8570  138.7710 C   0  0  0  0  0  1  0  0  0  0  0  0
  190.2530  176.0470  139.1500 N   0  0  0  0  0  2  0  0  0  0  0  0
  191.0480  175.6270  138.0390 C   0  0  0  0  0  0  0  0  0  0  0  0
  191.5720  176.4810  137.2720 O   0  0  0  0  0  0  0  0  0  0  0  0
  191.2400  174.2620  137.8190 O   0  0  0  0  0  0  0  0  0  0  0  0
  191.1020  173.6840  136.5300 C   0  0  0  0  0  2  0  0  0  0  0  0
  192.4440  173.1640  136.0630 C   0  0  0  0  0  1  0  0  0  0  0  0
  1 22  1  6  0  0  0
  1 10  1  0  0  0  0
  1  2  1  0  0  0  0
  2  5  1  1  0  0  0
  4  3  2  0  0  0  0
  5  4  2  0  0  0  0
  6  3  1  0  0  0  0
  6  7  2  0  0  0  0
  8  2  1  0  0  0  0
  9  8  1  0  0  0  0
 11 10  1  6  0  0  0
 11 12  1  0  0  0  0
 12 13  1  0  0  0  0
 14 11  1  0  0  0  0
 15 14  1  0  0  0  0
 16 21  1  0  0  0  0
 17 20  1  6  0  0  0
 17 21  1  0  0  0  0
 18 19  2  0  0  0  0
 18 17  1  0  0  0  0
 19 16  1  0  0  0  0
 21 15  1  1  0  0  0
 23 22  1  0  0  0  0
 24 23  1  0  0  0  0
 25 26  1  6  0  0  0
 25 24  1  0  0  0  0
 27 25  1  0  0  0  0
 28 27  1  0  0  0  0
 29 28  2  0  0  0  0
 30 28  1  0  0  0  0
 31 30  1  0  0  0  0
 32 31  1  0  0  0  0
M  END
>  <MODEL>
3

>  <REMARK>
 VINA RESULT:      -6.5      2.034      5.835
  Name = 
  17 active torsions:
  status: ('A' for Active; 'I' for Inactive)
    1  A    between atoms: C_1  and  O_20
    2  A    between atoms: C_2  and  C_9
    3  A    between atoms: C_2  and  O_23
    4  A    between atoms: O_3  and  C_14
    5  A    between atoms: C_4  and  C_5
    6  A    between atoms: O_6  and  C_31
    7  A    between atoms: C_8  and  O_23
    8  A    between atoms: C_8  and  C_28
    9  A    between atoms: C_9  and  N_10
   10  A    between atoms: C_13  and  C_28
   11  A    between atoms: C_13  and  C_31
   12  A    between atoms: C_14  and  C_26
   13  A    between atoms: C_14  and  C_28
   14  A    between atoms: O_16  and  C_27
   15  A    between atoms: O_16  and  C_31
   16  A    between atoms: C_19  and  O_20
   17  A    between atoms: C_27  and  C_32
                            x       y       z     vdW  Elec       q    Type
                         _______ _______ _______ _____ _____    ______ ____

>  <TORSDO>
F 17

$$$$
=
 OpenBabel10272413393D

 32 32  0  0  1  0  0  0  0  0999 V2000
  187.7690  177.8380  143.9880 C   0  0  2  0  0  3  0  0  0  0  0  0
  188.9030  177.6840  145.0300 C   0  0  2  0  0  3  0  0  0  0  0  0
  192.0430  176.1400  146.0960 C   0  0  0  0  0  3  0  0  0  0  0  0
  191.1340  176.6440  145.3100 C   0  0  0  0  0  0  0  0  0  0  0  0
  190.2220  177.1500  144.5220 C   0  0  0  0  0  3  0  0  0  0  0  0
  191.8190  176.0980  147.5370 C   0  0  0  0  0  3  0  0  0  0  0  0
  192.7900  175.7080  148.3470 C   0  0  0  0  0  2  0  0  0  0  0  0
  188.4980  177.0610  146.2330 O   0  0  0  0  0  0  0  0  0  0  0  0
  188.6460  177.9770  147.2880 C   0  0  0  0  0  1  0  0  0  0  0  0
  186.4220  177.2980  144.4910 C   0  0  0  0  0  2  0  0  0  0  0  0
  185.3380  178.3680  144.6230 C   0  0  1  0  0  3  0  0  0  0  0  0
  185.6250  179.1810  145.7210 O   0  0  0  0  0  0  0  0  0  0  0  0
  185.1200  178.4860  146.8200 C   0  0  0  0  0  1  0  0  0  0  0  0
  185.2770  179.1520  143.4680 O   0  0  0  0  0  0  0  0  0  0  0  0
  184.0690  178.7960  142.8650 C   0  0  0  0  0  2  0  0  0  0  0  0
  185.3550  179.0410  140.7610 C   0  0  0  0  0  2  0  0  0  0  0  0
  183.0640  178.2790  140.6390 C   0  0  1  0  0  3  0  0  0  0  0  0
  183.4280  179.2770  139.6010 C   0  0  0  0  0  3  0  0  0  0  0  0
  184.6390  179.6660  139.6870 N   0  0  0  0  0  0  0  0  0  0  0  0
  182.8050  176.9400  139.9780 C   0  0  0  0  0  1  0  0  0  0  0  0
  184.3240  178.1890  141.4940 C   0  0  2  0  0  3  0  0  0  0  0  0
  188.1450  177.2040  142.6550 C   0  0  0  0  0  2  0  0  0  0  0  0
  188.4060  178.2000  141.7100 O   0  0  0  0  0  0  0  0  0  0  0  0
  189.7090  177.9470  141.2770 C   0  0  0  0  0  2  0  0  0  0  0  0
  189.6810  177.2600  139.9230 C   0  0  2  0  0  3  0  0  0  0  0  0
  191.0730  176.7670  139.5840 C   0  0  0  0  0  1  0  0  0  0  0  0
  189.2260  178.1970  138.9060 N   0  0  0  0  0  2  0  0  0  0  0  0
  187.9880  178.0370  138.2090 C   0  0  0  0  0  0  0  0  0  0  0  0
  187.2200  177.0760  138.4890 O   0  0  0  0  0  0  0  0  0  0  0  0
  187.6400  178.9610  137.2230 O   0  0  0  0  0  0  0  0  0  0  0  0
  187.3110  178.5590  135.9020 C   0  0  0  0  0  2  0  0  0  0  0  0
  188.4230  177.6970  135.3450 C   0  0  0  0  0  1  0  0  0  0  0  0
  1 22  1  6  0  0  0
  1 10  1  0  0  0  0
  1  2  1  0  0  0  0
  2  5  1  6  0  0  0
  2  8  1  0  0  0  0
  3  6  1  0  0  0  0
  4  3  2  0  0  0  0
  5  4  2  0  0  0  0
  6  7  2  0  0  0  0
  8  9  1  0  0  0  0
 11 10  1  6  0  0  0
 11 12  1  0  0  0  0
 12 13  1  0  0  0  0
 14 11  1  0  0  0  0
 15 14  1  0  0  0  0
 16 21  1  0  0  0  0
 17 20  1  6  0  0  0
 17 21  1  0  0  0  0
 18 19  2  0  0  0  0
 18 17  1  0  0  0  0
 19 16  1  0  0  0  0
 21 15  1  1  0  0  0
 23 22  1  0  0  0  0
 24 23  1  0  0  0  0
 25 26  1  6  0  0  0
 25 24  1  0  0  0  0
 27 25  1  0  0  0  0
 28 29  2  0  0  0  0
 28 27  1  0  0  0  0
 30 28  1  0  0  0  0
 31 30  1  0  0  0  0
 32 31  1  0  0  0  0
M  END
>  <MODEL>
4

>  <REMARK>
 VINA RESULT:      -6.4      2.598      6.453
  Name = 
  17 active torsions:
  status: ('A' for Active; 'I' for Inactive)
    1  A    between atoms: C_1  and  O_20
    2  A    between atoms: C_2  and  C_9
    3  A    between atoms: C_2  and  O_23
    4  A    between atoms: O_3  and  C_14
    5  A    between atoms: C_4  and  C_5
    6  A    between atoms: O_6  and  C_31
    7  A    between atoms: C_8  and  O_23
    8  A    between atoms: C_8  and  C_28
    9  A    between atoms: C_9  and  N_10
   10  A    between atoms: C_13  and  C_28
   11  A    between atoms: C_13  and  C_31
   12  A    between atoms: C_14  and  C_26
   13  A    between atoms: C_14  and  C_28
   14  A    between atoms: O_16  and  C_27
   15  A    between atoms: O_16  and  C_31
   16  A    between atoms: C_19  and  O_20
   17  A    between atoms: C_27  and  C_32
                            x       y       z     vdW  Elec       q    Type
                         _______ _______ _______ _____ _____    ______ ____

>  <TORSDO>
F 17

$$$$
=
 OpenBabel10272413393D

 32 32  0  0  1  0  0  0  0  0999 V2000
  188.8890  177.2350  142.7760 C   0  0  2  0  0  3  0  0  0  0  0  0
  189.6770  177.8100  143.9770 C   0  0  2  0  0  3  0  0  0  0  0  0
  190.0670  177.0840  147.5400 C   0  0  0  0  0  3  0  0  0  0  0  0
  189.5120  177.4650  146.4240 C   0  0  0  0  0  0  0  0  0  0  0  0
  188.9560  177.8460  145.3050 C   0  0  0  0  0  3  0  0  0  0  0  0
  191.4330  176.5730  147.5390 C   0  0  0  0  0  3  0  0  0  0  0  0
  191.9490  176.0610  146.4330 C   0  0  0  0  0  2  0  0  0  0  0  0
  190.3470  179.0230  143.6970 O   0  0  0  0  0  0  0  0  0  0  0  0
  191.7200  178.8470  143.9400 C   0  0  0  0  0  1  0  0  0  0  0  0
  188.9590  178.1340  141.5320 C   0  0  0  0  0  2  0  0  0  0  0  0
  189.8930  177.6090  140.4420 C   0  0  1  0  0  3  0  0  0  0  0  0
  190.9330  176.8890  141.0340 O   0  0  0  0  0  0  0  0  0  0  0  0
  192.0980  177.4520  140.5120 C   0  0  0  0  0  1  0  0  0  0  0  0
  189.2000  176.7800  139.5570 O   0  0  0  0  0  0  0  0  0  0  0  0
  188.2650  177.6200  138.9470 C   0  0  0  0  0  2  0  0  0  0  0  0
  188.6770  175.8040  137.3130 C   0  0  0  0  0  2  0  0  0  0  0  0
  188.2530  178.0360  136.4860 C   0  0  1  0  0  3  0  0  0  0  0  0
  189.3490  177.3260  135.7800 C   0  0  0  0  0  3  0  0  0  0  0  0
  189.5570  176.1530  136.2340 N   0  0  0  0  0  0  0  0  0  0  0  0
  187.0840  178.2230  135.5390 C   0  0  0  0  0  1  0  0  0  0  0  0
  187.8610  177.0620  137.5930 C   0  0  2  0  0  3  0  0  0  0  0  0
  187.4420  176.9340  143.1480 C   0  0  0  0  0  2  0  0  0  0  0  0
  186.5920  177.8690  142.5510 O   0  0  0  0  0  0  0  0  0  0  0  0
  185.6160  178.1280  143.5150 C   0  0  0  0  0  2  0  0  0  0  0  0
  184.4550  178.8770  142.8880 C   0  0  2  0  0  3  0  0  0  0  0  0
  183.3330  178.9970  143.9000 C   0  0  0  0  0  1  0  0  0  0  0  0
  183.9860  178.1600  141.7110 N   0  0  0  0  0  2  0  0  0  0  0  0
  184.1820  178.6480  140.3810 C   0  0  0  0  0  0  0  0  0  0  0  0
  184.8130  179.7220  140.1840 O   0  0  0  0  0  0  0  0  0  0  0  0
  183.6700  177.9170  139.3080 O   0  0  0  0  0  0  0  0  0  0  0  0
  184.3230  177.8800  138.0480 C   0  0  0  0  0  2  0  0  0  0  0  0
  184.0710  176.5420  137.3870 C   0  0  0  0  0  1  0  0  0  0  0  0
  1 10  1  6  0  0  0
  1 22  1  0  0  0  0
  1  2  1  0  0  0  0
  2  5  1  1  0  0  0
  4  3  2  0  0  0  0
  5  4  2  0  0  0  0
  6  3  1  0  0  0  0
  7  6  2  0  0  0  0
  8  9  1  0  0  0  0
  8  2  1  0  0  0  0
 11 12  1  0  0  0  0
 11 10  1  1  0  0  0
 13 12  1  0  0  0  0
 14 11  1  0  0  0  0
 15 14  1  0  0  0  0
 16 21  1  0  0  0  0
 17 20  1  6  0  0  0
 17 21  1  0  0  0  0
 18 19  2  0  0  0  0
 18 17  1  0  0  0  0
 19 16  1  0  0  0  0
 21 15  1  1  0  0  0
 23 22  1  0  0  0  0
 23 24  1  0  0  0  0
 25 24  1  0  0  0  0
 25 26  1  1  0  0  0
 27 25  1  0  0  0  0
 28 27  1  0  0  0  0
 29 28  2  0  0  0  0
 30 28  1  0  0  0  0
 31 30  1  0  0  0  0
 32 31  1  0  0  0  0
M  END
>  <MODEL>
5

>  <REMARK>
 VINA RESULT:      -6.3      2.706      7.379
  Name = 
  17 active torsions:
  status: ('A' for Active; 'I' for Inactive)
    1  A    between atoms: C_1  and  O_20
    2  A    between atoms: C_2  and  C_9
    3  A    between atoms: C_2  and  O_23
    4  A    between atoms: O_3  and  C_14
    5  A    between atoms: C_4  and  C_5
    6  A    between atoms: O_6  and  C_31
    7  A    between atoms: C_8  and  O_23
    8  A    between atoms: C_8  and  C_28
    9  A    between atoms: C_9  and  N_10
   10  A    between atoms: C_13  and  C_28
   11  A    between atoms: C_13  and  C_31
   12  A    between atoms: C_14  and  C_26
   13  A    between atoms: C_14  and  C_28
   14  A    between atoms: O_16  and  C_27
   15  A    between atoms: O_16  and  C_31
   16  A    between atoms: C_19  and  O_20
   17  A    between atoms: C_27  and  C_32
                            x       y       z     vdW  Elec       q    Type
                         _______ _______ _______ _____ _____    ______ ____

>  <TORSDO>
F 17

$$$$
=
 OpenBabel10272413393D

 32 32  0  0  1  0  0  0  0  0999 V2000
  188.8570  177.3210  142.6120 C   0  0  2  0  0  3  0  0  0  0  0  0
  189.6370  177.6160  143.9160 C   0  0  2  0  0  3  0  0  0  0  0  0
  190.0600  176.8690  147.4710 C   0  0  0  0  0  3  0  0  0  0  0  0
  189.4710  177.1520  146.3440 C   0  0  0  0  0  0  0  0  0  0  0  0
  188.8820  177.4360  145.2120 C   0  0  0  0  0  3  0  0  0  0  0  0
  191.5060  176.6870  147.5140 C   0  0  0  0  0  3  0  0  0  0  0  0
  192.0750  175.7270  146.8030 C   0  0  0  0  0  2  0  0  0  0  0  0
  190.3720  178.8240  143.8850 O   0  0  0  0  0  0  0  0  0  0  0  0
  191.7420  178.5210  143.9570 C   0  0  0  0  0  1  0  0  0  0  0  0
  189.0120  178.4310  141.5620 C   0  0  0  0  0  2  0  0  0  0  0  0
  189.0370  177.9190  140.1210 C   0  0  1  0  0  3  0  0  0  0  0  0
  188.1640  178.6840  139.3450 O   0  0  0  0  0  0  0  0  0  0  0  0
  187.3660  177.7510  138.6840 C   0  0  0  0  0  1  0  0  0  0  0  0
  190.3270  178.0050  139.5910 O   0  0  0  0  0  0  0  0  0  0  0  0
  190.7530  176.6800  139.4860 C   0  0  0  0  0  2  0  0  0  0  0  0
  190.0090  175.2870  137.5770 C   0  0  0  0  0  2  0  0  0  0  0  0
  192.3790  175.6360  137.9050 C   0  0  1  0  0  3  0  0  0  0  0  0
  192.0150  174.2410  137.5480 C   0  0  0  0  0  3  0  0  0  0  0  0
  190.7610  174.0800  137.3830 N   0  0  0  0  0  0  0  0  0  0  0  0
  193.1610  176.2580  136.7650 C   0  0  0  0  0  1  0  0  0  0  0  0
  191.0260  176.3290  138.0320 C   0  0  2  0  0  3  0  0  0  0  0  0
  187.3870  177.0390  142.8920 C   0  0  0  0  0  2  0  0  0  0  0  0
  186.6140  178.1520  142.5510 O   0  0  0  0  0  0  0  0  0  0  0  0
  185.5520  178.1390  143.4570 C   0  0  0  0  0  2  0  0  0  0  0  0
  184.4710  179.1030  143.0020 C   0  0  2  0  0  3  0  0  0  0  0  0
  183.5520  179.4080  144.1680 C   0  0  0  0  0  1  0  0  0  0  0  0
  183.7100  178.5080  141.9130 N   0  0  0  0  0  2  0  0  0  0  0  0
  183.9260  178.8530  140.5430 C   0  0  0  0  0  0  0  0  0  0  0  0
  184.8290  179.6770  140.2290 O   0  0  0  0  0  0  0  0  0  0  0  0
  183.1290  178.2630  139.5610 O   0  0  0  0  0  0  0  0  0  0  0  0
  183.3470  176.9320  139.1190 C   0  0  0  0  0  2  0  0  0  0  0  0
  182.1290  176.0900  139.4330 C   0  0  0  0  0  1  0  0  0  0  0  0
  1 10  1  6  0  0  0
  1 22  1  0  0  0  0
  1  2  1  0  0  0  0
  2  5  1  1  0  0  0
  3  6  1  0  0  0  0
  4  3  2  0  0  0  0
  5  4  2  0  0  0  0
  7  6  2  0  0  0  0
  8  2  1  0  0  0  0
  8  9  1  0  0  0  0
 11 10  1  1  0  0  0
 12 11  1  0  0  0  0
 13 12  1  0  0  0  0
 14 11  1  0  0  0  0
 15 14  1  0  0  0  0
 16 21  1  0  0  0  0
 17 20  1  6  0  0  0
 17 21  1  0  0  0  0
 18 17  1  0  0  0  0
 19 18  2  0  0  0  0
 19 16  1  0  0  0  0
 21 15  1  1  0  0  0
 23 22  1  0  0  0  0
 23 24  1  0  0  0  0
 25 24  1  0  0  0  0
 25 26  1  1  0  0  0
 27 25  1  0  0  0  0
 28 27  1  0  0  0  0
 29 28  2  0  0  0  0
 30 28  1  0  0  0  0
 31 32  1  0  0  0  0
 31 30  1  0  0  0  0
M  END
>  <MODEL>
6

>  <REMARK>
 VINA RESULT:      -6.3      2.491      7.416
  Name = 
  17 active torsions:
  status: ('A' for Active; 'I' for Inactive)
    1  A    between atoms: C_1  and  O_20
    2  A    between atoms: C_2  and  C_9
    3  A    between atoms: C_2  and  O_23
    4  A    between atoms: O_3  and  C_14
    5  A    between atoms: C_4  and  C_5
    6  A    between atoms: O_6  and  C_31
    7  A    between atoms: C_8  and  O_23
    8  A    between atoms: C_8  and  C_28
    9  A    between atoms: C_9  and  N_10
   10  A    between atoms: C_13  and  C_28
   11  A    between atoms: C_13  and  C_31
   12  A    between atoms: C_14  and  C_26
   13  A    between atoms: C_14  and  C_28
   14  A    between atoms: O_16  and  C_27
   15  A    between atoms: O_16  and  C_31
   16  A    between atoms: C_19  and  O_20
   17  A    between atoms: C_27  and  C_32
                            x       y       z     vdW  Elec       q    Type
                         _______ _______ _______ _____ _____    ______ ____

>  <TORSDO>
F 17

$$$$
=
 OpenBabel10272413393D

 32 32  0  0  1  0  0  0  0  0999 V2000
  185.6600  178.2300  142.8750 C   0  0  2  0  0  3  0  0  0  0  0  0
  185.3410  178.8870  144.2400 C   0  0  2  0  0  3  0  0  0  0  0  0
  186.8140  177.6690  147.3580 C   0  0  0  0  0  3  0  0  0  0  0  0
  185.9610  177.8110  146.3830 C   0  0  0  0  0  0  0  0  0  0  0  0
  185.1070  177.9530  145.4040 C   0  0  0  0  0  3  0  0  0  0  0  0
  188.0680  178.4120  147.3450 C   0  0  0  0  0  3  0  0  0  0  0  0
  188.9570  178.2320  148.3100 C   0  0  0  0  0  2  0  0  0  0  0  0
  184.3710  179.9140  144.1710 O   0  0  0  0  0  0  0  0  0  0  0  0
  183.1220  179.3800  144.5310 C   0  0  0  0  0  1  0  0  0  0  0  0
  187.1610  178.2340  142.5490 C   0  0  0  0  0  2  0  0  0  0  0  0
  187.8540  176.8970  142.8140 C   0  0  1  0  0  3  0  0  0  0  0  0
  188.8390  176.6890  141.8460 O   0  0  0  0  0  0  0  0  0  0  0  0
  188.7690  177.8100  141.0190 C   0  0  0  0  0  1  0  0  0  0  0  0
  188.4400  176.8900  144.0820 O   0  0  0  0  0  0  0  0  0  0  0  0
  189.0240  178.1520  144.2070 C   0  0  0  0  0  2  0  0  0  0  0  0
  191.3630  178.3360  143.4100 C   0  0  0  0  0  2  0  0  0  0  0  0
  190.8000  176.5670  144.9590 C   0  0  1  0  0  3  0  0  0  0  0  0
  191.6940  176.1420  143.8520 C   0  0  0  0  0  3  0  0  0  0  0  0
  191.9750  177.0900  143.0470 N   0  0  0  0  0  0  0  0  0  0  0  0
  191.5620  176.5130  146.2680 C   0  0  0  0  0  1  0  0  0  0  0  0
  190.4820  178.0190  144.6150 C   0  0  2  0  0  3  0  0  0  0  0  0
  184.8570  178.8660  141.7480 C   0  0  0  0  0  2  0  0  0  0  0  0
  185.6530  178.9880  140.6060 O   0  0  0  0  0  0  0  0  0  0  0  0
  184.7470  179.1780  139.5600 C   0  0  0  0  0  2  0  0  0  0  0  0
  185.2980  178.5720  138.2820 C   0  0  2  0  0  3  0  0  0  0  0  0
  184.6010  177.2530  138.0150 C   0  0  0  0  0  1  0  0  0  0  0  0
  186.7310  178.3570  138.4170 N   0  0  0  0  0  2  0  0  0  0  0  0
  187.6270  178.4010  137.3040 C   0  0  0  0  0  0  0  0  0  0  0  0
  187.1930  178.6690  136.1490 O   0  0  0  0  0  0  0  0  0  0  0  0
  188.9830  178.1500  137.5130 O   0  0  0  0  0  0  0  0  0  0  0  0
  189.7290  177.2990  136.6550 C   0  0  0  0  0  2  0  0  0  0  0  0
  189.8280  175.9210  137.2720 C   0  0  0  0  0  1  0  0  0  0  0  0
  1 22  1  6  0  0  0
  1  2  1  0  0  0  0
  2  5  1  1  0  0  0
  4  3  2  0  0  0  0
  5  4  2  0  0  0  0
  6  3  1  0  0  0  0
  6  7  2  0  0  0  0
  8  2  1  0  0  0  0
  8  9  1  0  0  0  0
 10  1  1  0  0  0  0
 11 10  1  6  0  0  0
 11 14  1  0  0  0  0
 12 11  1  0  0  0  0
 13 12  1  0  0  0  0
 14 15  1  0  0  0  0
 16 21  1  0  0  0  0
 17 20  1  1  0  0  0
 18 17  1  0  0  0  0
 19 16  1  0  0  0  0
 19 18  2  0  0  0  0
 21 15  1  6  0  0  0
 21 17  1  0  0  0  0
 23 22  1  0  0  0  0
 24 23  1  0  0  0  0
 25 26  1  1  0  0  0
 25 27  1  0  0  0  0
 25 24  1  0  0  0  0
 28 30  1  0  0  0  0
 28 27  1  0  0  0  0
 29 28  2  0  0  0  0
 31 32  1  0  0  0  0
 31 30  1  0  0  0  0
M  END
>  <MODEL>
7

>  <REMARK>
 VINA RESULT:      -6.0      2.118      3.320
  Name = 
  17 active torsions:
  status: ('A' for Active; 'I' for Inactive)
    1  A    between atoms: C_1  and  O_20
    2  A    between atoms: C_2  and  C_9
    3  A    between atoms: C_2  and  O_23
    4  A    between atoms: O_3  and  C_14
    5  A    between atoms: C_4  and  C_5
    6  A    between atoms: O_6  and  C_31
    7  A    between atoms: C_8  and  O_23
    8  A    between atoms: C_8  and  C_28
    9  A    between atoms: C_9  and  N_10
   10  A    between atoms: C_13  and  C_28
   11  A    between atoms: C_13  and  C_31
   12  A    between atoms: C_14  and  C_26
   13  A    between atoms: C_14  and  C_28
   14  A    between atoms: O_16  and  C_27
   15  A    between atoms: O_16  and  C_31
   16  A    between atoms: C_19  and  O_20
   17  A    between atoms: C_27  and  C_32
                            x       y       z     vdW  Elec       q    Type
                         _______ _______ _______ _____ _____    ______ ____

>  <TORSDO>
F 17

$$$$
=
 OpenBabel10272413393D

 32 32  0  0  1  0  0  0  0  0999 V2000
  185.6170  178.0570  142.4570 C   0  0  2  0  0  3  0  0  0  0  0  0
  184.3620  178.9490  142.6070 C   0  0  2  0  0  3  0  0  0  0  0  0
  180.9550  178.8020  143.9280 C   0  0  0  0  0  3  0  0  0  0  0  0
  182.2570  178.7950  143.9040 C   0  0  0  0  0  0  0  0  0  0  0  0
  183.5640  178.7880  143.8790 C   0  0  0  0  0  3  0  0  0  0  0  0
  180.2030  178.9960  142.6930 C   0  0  0  0  0  3  0  0  0  0  0  0
  180.1330  178.0230  141.7990 C   0  0  0  0  0  2  0  0  0  0  0  0
  183.5390  178.9810  141.4570 O   0  0  0  0  0  0  0  0  0  0  0  0
  183.6780  177.7650  140.7680 C   0  0  0  0  0  1  0  0  0  0  0  0
  185.9550  177.2840  143.7410 C   0  0  0  0  0  2  0  0  0  0  0  0
  187.2430  177.7480  144.4200 C   0  0  1  0  0  3  0  0  0  0  0  0
  186.9230  178.4790  145.5660 O   0  0  0  0  0  0  0  0  0  0  0  0
  186.0650  177.6510  146.2880 C   0  0  0  0  0  1  0  0  0  0  0  0
  188.0350  176.6530  144.7750 O   0  0  0  0  0  0  0  0  0  0  0  0
  189.3250  177.0060  144.3720 C   0  0  0  0  0  2  0  0  0  0  0  0
  191.5730  177.4410  145.3180 C   0  0  0  0  0  2  0  0  0  0  0  0
  189.7560  176.9350  146.8300 C   0  0  1  0  0  3  0  0  0  0  0  0
  191.0320  176.2560  147.1680 C   0  0  0  0  0  3  0  0  0  0  0  0
  191.9750  176.5350  146.3560 N   0  0  0  0  0  0  0  0  0  0  0  0
  189.4300  177.9550  147.9020 C   0  0  0  0  0  1  0  0  0  0  0  0
  190.0770  177.6540  145.5230 C   0  0  2  0  0  3  0  0  0  0  0  0
  186.8190  178.8590  141.9740 C   0  0  0  0  0  2  0  0  0  0  0  0
  187.3080  178.3170  140.7830 O   0  0  0  0  0  0  0  0  0  0  0  0
  188.6920  178.4850  140.8560 C   0  0  0  0  0  2  0  0  0  0  0  0
  189.3870  177.4440  139.9980 C   0  0  2  0  0  3  0  0  0  0  0  0
  190.7600  177.1600  140.5720 C   0  0  0  0  0  1  0  0  0  0  0  0
  189.5120  177.9370  138.6330 N   0  0  0  0  0  2  0  0  0  0  0  0
  188.6810  177.4750  137.5670 C   0  0  0  0  0  0  0  0  0  0  0  0
  187.7690  176.6320  137.7900 O   0  0  0  0  0  0  0  0  0  0  0  0
  188.8890  177.9720  136.2800 O   0  0  0  0  0  0  0  0  0  0  0  0
  188.3310  177.3440  135.1350 C   0  0  0  0  0  2  0  0  0  0  0  0
  187.0420  178.0410  134.7550 C   0  0  0  0  0  1  0  0  0  0  0  0
  1 22  1  1  0  0  0
  1  2  1  0  0  0  0
  1 10  1  0  0  0  0
  2  5  1  1  0  0  0
  4  3  2  0  0  0  0
  5  4  2  0  0  0  0
  6  3  1  0  0  0  0
  7  6  2  0  0  0  0
  8  2  1  0  0  0  0
  9  8  1  0  0  0  0
 11 10  1  1  0  0  0
 11 14  1  0  0  0  0
 11 12  1  0  0  0  0
 12 13  1  0  0  0  0
 15 14  1  0  0  0  0
 16 21  1  0  0  0  0
 16 19  1  0  0  0  0
 17 18  1  0  0  0  0
 17 20  1  1  0  0  0
 19 18  2  0  0  0  0
 21 15  1  6  0  0  0
 21 17  1  0  0  0  0
 23 24  1  0  0  0  0
 23 22  1  0  0  0  0
 25 26  1  1  0  0  0
 25 24  1  0  0  0  0
 27 25  1  0  0  0  0
 28 29  2  0  0  0  0
 28 27  1  0  0  0  0
 30 28  1  0  0  0  0
 31 30  1  0  0  0  0
 32 31  1  0  0  0  0
M  END
>  <MODEL>
8

>  <REMARK>
 VINA RESULT:      -5.9      2.126      3.568
  Name = 
  17 active torsions:
  status: ('A' for Active; 'I' for Inactive)
    1  A    between atoms: C_1  and  O_20
    2  A    between atoms: C_2  and  C_9
    3  A    between atoms: C_2  and  O_23
    4  A    between atoms: O_3  and  C_14
    5  A    between atoms: C_4  and  C_5
    6  A    between atoms: O_6  and  C_31
    7  A    between atoms: C_8  and  O_23
    8  A    between atoms: C_8  and  C_28
    9  A    between atoms: C_9  and  N_10
   10  A    between atoms: C_13  and  C_28
   11  A    between atoms: C_13  and  C_31
   12  A    between atoms: C_14  and  C_26
   13  A    between atoms: C_14  and  C_28
   14  A    between atoms: O_16  and  C_27
   15  A    between atoms: O_16  and  C_31
   16  A    between atoms: C_19  and  O_20
   17  A    between atoms: C_27  and  C_32
                            x       y       z     vdW  Elec       q    Type
                         _______ _______ _______ _____ _____    ______ ____

>  <TORSDO>
F 17

$$$$
=
 OpenBabel10272413393D

 32 32  0  0  1  0  0  0  0  0999 V2000
  184.7160  178.9880  141.9350 C   0  0  2  0  0  3  0  0  0  0  0  0
  184.1510  178.4450  143.2690 C   0  0  2  0  0  3  0  0  0  0  0  0
  180.5320  178.9640  143.1620 C   0  0  0  0  0  3  0  0  0  0  0  0
  181.7750  179.0970  143.5290 C   0  0  0  0  0  0  0  0  0  0  0  0
  183.0230  179.2300  143.8960 C   0  0  0  0  0  3  0  0  0  0  0  0
  180.1830  178.0440  142.0860 C   0  0  0  0  0  3  0  0  0  0  0  0
  180.7100  178.2020  140.8810 C   0  0  0  0  0  2  0  0  0  0  0  0
  185.1440  178.0860  144.2100 O   0  0  0  0  0  0  0  0  0  0  0  0
  184.9110  178.7890  145.4030 C   0  0  0  0  0  1  0  0  0  0  0  0
  184.3910  178.0820  140.7370 C   0  0  0  0  0  2  0  0  0  0  0  0
  184.3720  178.8150  139.3960 C   0  0  1  0  0  3  0  0  0  0  0  0
  183.9820  180.1400  139.6000 O   0  0  0  0  0  0  0  0  0  0  0  0
  182.8200  180.2900  138.8430 C   0  0  0  0  0  1  0  0  0  0  0  0
  185.6370  178.7900  138.8030 O   0  0  0  0  0  0  0  0  0  0  0  0
  185.5640  177.7600  137.8620 C   0  0  0  0  0  2  0  0  0  0  0  0
  186.9550  176.3620  136.3640 C   0  0  0  0  0  2  0  0  0  0  0  0
  188.0570  177.8760  137.8920 C   0  0  1  0  0  3  0  0  0  0  0  0
  188.6940  176.5380  137.8010 C   0  0  0  0  0  3  0  0  0  0  0  0
  188.0940  175.7560  136.9910 N   0  0  0  0  0  0  0  0  0  0  0  0
  188.9880  178.9160  137.3000 C   0  0  0  0  0  1  0  0  0  0  0  0
  186.8210  177.7370  137.0090 C   0  0  2  0  0  3  0  0  0  0  0  0
  186.2140  179.2490  142.0270 C   0  0  0  0  0  2  0  0  0  0  0  0
  186.9160  178.0460  141.9110 O   0  0  0  0  0  0  0  0  0  0  0  0
  188.1270  178.3970  141.3110 C   0  0  0  0  0  2  0  0  0  0  0  0
  189.2820  178.0340  142.2260 C   0  0  2  0  0  3  0  0  0  0  0  0
  190.2070  177.0740  141.5060 C   0  0  0  0  0  1  0  0  0  0  0  0
  188.7720  177.4140  143.4400 N   0  0  0  0  0  2  0  0  0  0  0  0
  189.3580  177.6360  144.7250 C   0  0  0  0  0  0  0  0  0  0  0  0
  190.3360  178.4220  144.8510 O   0  0  0  0  0  0  0  0  0  0  0  0
  188.8300  176.9750  145.8350 O   0  0  0  0  0  0  0  0  0  0  0  0
  188.0680  177.6570  146.8200 C   0  0  0  0  0  2  0  0  0  0  0  0
  188.8900  177.8040  148.0820 C   0  0  0  0  0  1  0  0  0  0  0  0
  1 10  1  6  0  0  0
  1 22  1  0  0  0  0
  1  2  1  0  0  0  0
  2  5  1  1  0  0  0
  2  8  1  0  0  0  0
  3  4  2  0  0  0  0
  4  5  2  0  0  0  0
  6  3  1  0  0  0  0
  7  6  2  0  0  0  0
  8  9  1  0  0  0  0
 11 12  1  0  0  0  0
 11 10  1  1  0  0  0
 13 12  1  0  0  0  0
 14 11  1  0  0  0  0
 15 14  1  0  0  0  0
 16 19  1  0  0  0  0
 16 21  1  0  0  0  0
 17 20  1  6  0  0  0
 18 17  1  0  0  0  0
 19 18  2  0  0  0  0
 21 15  1  1  0  0  0
 21 17  1  0  0  0  0
 23 22  1  0  0  0  0
 24 23  1  0  0  0  0
 24 25  1  0  0  0  0
 25 26  1  6  0  0  0
 25 27  1  0  0  0  0
 27 28  1  0  0  0  0
 28 29  2  0  0  0  0
 28 30  1  0  0  0  0
 30 31  1  0  0  0  0
 31 32  1  0  0  0  0
M  END
>  <MODEL>
9

>  <REMARK>
 VINA RESULT:      -5.8      2.789      7.184
  Name = 
  17 active torsions:
  status: ('A' for Active; 'I' for Inactive)
    1  A    between atoms: C_1  and  O_20
    2  A    between atoms: C_2  and  C_9
    3  A    between atoms: C_2  and  O_23
    4  A    between atoms: O_3  and  C_14
    5  A    between atoms: C_4  and  C_5
    6  A    between atoms: O_6  and  C_31
    7  A    between atoms: C_8  and  O_23
    8  A    between atoms: C_8  and  C_28
    9  A    between atoms: C_9  and  N_10
   10  A    between atoms: C_13  and  C_28
   11  A    between atoms: C_13  and  C_31
   12  A    between atoms: C_14  and  C_26
   13  A    between atoms: C_14  and  C_28
   14  A    between atoms: O_16  and  C_27
   15  A    between atoms: O_16  and  C_31
   16  A    between atoms: C_19  and  O_20
   17  A    between atoms: C_27  and  C_32
                            x       y       z     vdW  Elec       q    Type
                         _______ _______ _______ _____ _____    ______ ____

>  <TORSDO>
F 17

$$$$
