=
 OpenBabel10272414373D

 43 48  0  0  1  0  0  0  0  0999 V2000
  188.0480  176.8340  137.8890 C   0  0  2  0  0  3  0  0  0  0  0  0
  192.8400  174.4480  135.5340 C   0  0  0  0  0  0  0  0  0  0  0  0
  191.7870  176.9740  139.6310 C   0  0  2  0  0  3  0  0  0  0  0  0
  189.3310  177.0200  140.2140 C   0  0  2  0  0  3  0  0  0  0  0  0
  191.5210  173.8570  137.3520 C   0  0  0  0  0  2  0  0  0  0  0  0
  193.5020  175.5840  136.3050 C   0  0  0  0  0  2  0  0  0  0  0  0
  192.5580  174.5970  134.3460 O   0  0  0  0  0  0  0  0  0  0  0  0
  192.0960  176.2990  138.3090 C   0  0  2  0  0  3  0  0  0  0  0  0
  192.3490  173.2840  136.2700 C   0  0  0  0  0  2  0  0  0  0  0  0
  192.5120  176.6190  136.8730 C   0  0  0  0  0  2  0  0  0  0  0  0
  190.5480  177.8310  139.7350 C   0  0  2  0  0  3  0  0  0  0  0  0
  190.9670  177.3030  138.3700 C   0  0  1  0  0  3  0  0  0  0  0  0
  189.2730  174.4890  137.3500 C   0  0  0  0  0  2  0  0  0  0  0  0
  188.2300  175.6420  137.2200 C   0  0  0  0  0  2  0  0  0  0  0  0
  188.2530  177.1460  139.2670 O   0  0  0  0  0  0  0  0  0  0  0  0
  190.1830  173.3450  137.3420 O   0  0  0  0  0  0  0  0  0  0  0  0
  184.6100  178.6190  138.0160 C   0  0  0  0  0  2  0  0  0  0  0  0
  183.8670  177.7370  137.0370 C   0  0  1  0  0  3  0  0  0  0  0  0
  186.0810  176.6790  136.2760 C   0  0  0  0  0  2  0  0  0  0  0  0
  185.9170  177.9700  138.4390 C   0  0  0  0  0  2  0  0  0  0  0  0
  186.8880  177.5800  137.2650 C   0  0  1  0  0  3  0  0  0  0  0  0
  184.6960  177.2610  135.8490 C   0  0  0  0  0  2  0  0  0  0  0  0
  181.7540  177.0700  138.1140 C   0  0  0  0  0  1  0  0  0  0  0  0
  183.1620  176.5900  137.7210 C   0  0  0  0  0  2  0  0  0  0  0  0
  188.8550  177.5100  141.6380 C   0  0  1  0  0  3  0  0  0  0  0  0
  187.5140  178.1460  141.7720 C   0  0  0  0  0  1  0  0  0  0  0  0
  189.2940  176.8170  142.8960 C   0  0  0  0  0  2  0  0  0  0  0  0
  189.8520  177.7270  143.9470 C   0  0  2  0  0  3  0  0  0  0  0  0
  191.1390  178.3730  143.5630 C   0  0  0  0  0  1  0  0  0  0  0  0
  190.0390  176.9630  145.2590 C   0  0  0  0  0  2  0  0  0  0  0  0
  189.0280  177.5660  146.2670 C   0  0  2  0  0  3  0  0  0  0  0  0
  187.1950  178.4510  148.7010 C   0  0  0  0  0  3  0  0  0  0  0  0
  185.6990  178.8620  145.4710 C   0  0  0  0  0  0  0  0  0  0  0  0
  186.6900  178.5290  146.1910 C   0  0  0  0  0  0  0  0  0  0  0  0
  189.4380  177.6920  147.7620 C   0  0  0  0  0  2  0  0  0  0  0  0
  187.6050  177.4490  145.7460 C   0  0  0  0  0  2  0  0  0  0  0  0
  184.5710  179.2400  144.7860 C   0  0  0  0  0  3  0  0  0  0  0  0
  186.8750  179.2860  147.4890 C   0  0  0  0  0  2  0  0  0  0  0  0
  188.3380  177.7420  148.8010 C   0  0  0  0  0  3  0  0  0  0  0  0
  183.8910  178.4710  143.6580 C   0  0  0  0  0  2  0  0  0  0  0  0
  183.9470  177.6810  141.2410 C   0  0  0  0  0  2  0  0  0  0  0  0
  184.1180  178.8460  142.2000 C   0  0  0  0  0  3  0  0  0  0  0  0
  182.8040  178.6290  141.4380 C   0  0  0  0  0  2  0  0  0  0  0  0
  1 14  1  1  0  0  0
  1 15  1  0  0  0  0
  2  9  1  0  0  0  0
  2  6  1  0  0  0  0
  3 11  1  0  0  0  0
  4 25  1  0  0  0  0
  6 10  1  0  0  0  0
  7  2  2  0  0  0  0
  8 12  1  0  0  0  0
  8  3  1  0  0  0  0
  9  5  1  0  0  0  0
 10  8  1  0  0  0  0
 11  4  1  0  0  0  0
 12  3  1  0  0  0  0
 12 11  1  0  0  0  0
 14 13  1  0  0  0  0
 15  4  1  0  0  0  0
 16 13  1  0  0  0  0
 16  5  1  0  0  0  0
 17 20  1  0  0  0  0
 18 24  1  0  0  0  0
 18 17  1  0  0  0  0
 19 21  1  0  0  0  0
 21  1  1  0  0  0  0
 21 20  1  0  0  0  0
 22 19  1  0  0  0  0
 22 18  1  0  0  0  0
 24 23  1  0  0  0  0
 25 26  1  0  0  0  0
 25 27  1  0  0  0  0
 27 28  1  0  0  0  0
 28 30  1  0  0  0  0
 29 28  1  0  0  0  0
 30 31  1  0  0  0  0
 31 35  1  0  0  0  0
 32 39  2  0  0  0  0
 33 34  2  0  0  0  0
 34 38  1  0  0  0  0
 35 39  1  0  0  0  0
 36 34  1  0  0  0  0
 36 31  1  0  0  0  0
 37 33  2  0  0  0  0
 38 32  1  0  0  0  0
 40 37  1  0  0  0  0
 41 43  1  0  0  0  0
 41 42  1  0  0  0  0
 42 40  1  0  0  0  0
 43 42  1  0  0  0  0
M  END
>  <MODEL>
1

>  <REMARK>
 VINA RESULT:      -8.8      0.000      0.000
  Name = 
  9 active torsions:
  status: ('A' for Active; 'I' for Inactive)
    1  A    between atoms: C_1  and  C_35
    2  A    between atoms: C_2  and  C_6
    3  A    between atoms: C_2  and  C_13
    4  A    between atoms: C_3  and  C_4
    5  A    between atoms: C_3  and  C_12
    6  A    between atoms: C_6  and  C_12
    7  A    between atoms: C_19  and  C_37
    8  A    between atoms: C_29  and  C_36
    9  A    between atoms: C_36  and  C_40
                            x       y       z     vdW  Elec       q    Type
                         _______ _______ _______ _____ _____    ______ ____

>  <TORSDO>
F 9

$$$$
=
 OpenBabel10272414373D

 43 48  0  0  1  0  0  0  0  0999 V2000
  187.7880  177.6960  138.1670 C   0  0  2  0  0  3  0  0  0  0  0  0
  191.1690  173.7500  135.4840 C   0  0  0  0  0  0  0  0  0  0  0  0
  186.3270  174.4690  136.0470 C   0  0  2  0  0  3  0  0  0  0  0  0
  185.7070  176.8100  136.7620 C   0  0  2  0  0  3  0  0  0  0  0  0
  189.8130  175.4590  134.6880 C   0  0  0  0  0  2  0  0  0  0  0  0
  189.9710  172.8580  135.7890 C   0  0  0  0  0  2  0  0  0  0  0  0
  192.1280  173.7720  136.2540 O   0  0  0  0  0  0  0  0  0  0  0  0
  187.8210  174.2160  135.9900 C   0  0  2  0  0  3  0  0  0  0  0  0
  191.0660  174.7280  134.4030 C   0  0  0  0  0  2  0  0  0  0  0  0
  188.9400  173.4950  136.7420 C   0  0  0  0  0  2  0  0  0  0  0  0
  185.7800  175.3260  137.1640 C   0  0  2  0  0  3  0  0  0  0  0  0
  187.2450  174.9130  137.2020 C   0  0  1  0  0  3  0  0  0  0  0  0
  189.4310  177.3100  136.0590 C   0  0  0  0  0  2  0  0  0  0  0  0
  188.9530  177.8440  137.4450 C   0  0  0  0  0  2  0  0  0  0  0  0
  186.4370  177.6120  137.7090 O   0  0  0  0  0  0  0  0  0  0  0  0
  190.0210  176.8720  134.7950 O   0  0  0  0  0  0  0  0  0  0  0  0
  189.3310  178.1620  141.6910 C   0  0  0  0  0  2  0  0  0  0  0  0
  188.0610  178.0490  142.5060 C   0  0  1  0  0  3  0  0  0  0  0  0
  186.6470  178.2710  140.3720 C   0  0  0  0  0  2  0  0  0  0  0  0
  189.1010  177.6870  140.2670 C   0  0  0  0  0  2  0  0  0  0  0  0
  187.9340  178.4050  139.4950 C   0  0  1  0  0  3  0  0  0  0  0  0
  186.8320  178.6860  141.8650 C   0  0  0  0  0  2  0  0  0  0  0  0
  189.1410  175.9590  143.2390 C   0  0  0  0  0  1  0  0  0  0  0  0
  187.7880  176.6300  142.9450 C   0  0  0  0  0  2  0  0  0  0  0  0
  184.2070  177.2980  136.6890 C   0  0  1  0  0  3  0  0  0  0  0  0
  183.5980  177.5650  135.3550 C   0  0  0  0  0  1  0  0  0  0  0  0
  183.1910  176.8770  137.7130 C   0  0  0  0  0  2  0  0  0  0  0  0
  182.9330  177.8890  138.7870 C   0  0  2  0  0  3  0  0  0  0  0  0
  183.5760  179.2110  138.5370 C   0  0  0  0  0  1  0  0  0  0  0  0
  183.3930  177.3480  140.1410 C   0  0  0  0  0  2  0  0  0  0  0  0
  182.5460  178.0740  141.2170 C   0  0  2  0  0  3  0  0  0  0  0  0
  180.6100  179.8570  142.9900 C   0  0  0  0  0  3  0  0  0  0  0  0
  183.5070  178.6280  144.7050 C   0  0  0  0  0  0  0  0  0  0  0  0
  182.7950  178.6970  143.6560 C   0  0  0  0  0  0  0  0  0  0  0  0
  181.1310  178.5960  140.8380 C   0  0  0  0  0  2  0  0  0  0  0  0
  183.4320  178.6350  142.3170 C   0  0  0  0  0  2  0  0  0  0  0  0
  184.2060  178.6260  145.8870 C   0  0  0  0  0  3  0  0  0  0  0  0
  181.3000  178.8340  143.8540 C   0  0  0  0  0  2  0  0  0  0  0  0
  180.5520  179.7370  141.6470 C   0  0  0  0  0  3  0  0  0  0  0  0
  185.7040  178.8590  146.0570 C   0  0  0  0  0  2  0  0  0  0  0  0
  188.0680  177.9510  146.2890 C   0  0  0  0  0  2  0  0  0  0  0  0
  186.6040  177.7900  146.6610 C   0  0  0  0  0  3  0  0  0  0  0  0
  187.5950  178.4760  147.6090 C   0  0  0  0  0  2  0  0  0  0  0  0
  1 14  1  6  0  0  0
  1 21  1  0  0  0  0
  2  6  1  0  0  0  0
  2  7  2  0  0  0  0
  3 11  1  0  0  0  0
  3 12  1  0  0  0  0
  4 11  1  0  0  0  0
  4 15  1  0  0  0  0
  5 16  1  0  0  0  0
  6 10  1  0  0  0  0
  8  3  1  0  0  0  0
  8 10  1  0  0  0  0
  8 12  1  0  0  0  0
  9  5  1  0  0  0  0
  9  2  1  0  0  0  0
 11 12  1  0  0  0  0
 13 14  1  0  0  0  0
 15  1  1  0  0  0  0
 16 13  1  0  0  0  0
 17 18  1  0  0  0  0
 18 24  1  0  0  0  0
 19 22  1  0  0  0  0
 20 17  1  0  0  0  0
 21 20  1  0  0  0  0
 21 19  1  0  0  0  0
 22 18  1  0  0  0  0
 24 23  1  0  0  0  0
 25  4  1  0  0  0  0
 25 27  1  0  0  0  0
 26 25  1  0  0  0  0
 27 28  1  0  0  0  0
 28 30  1  0  0  0  0
 29 28  1  0  0  0  0
 30 31  1  0  0  0  0
 31 36  1  0  0  0  0
 32 38  1  0  0  0  0
 33 37  2  0  0  0  0
 34 38  1  0  0  0  0
 34 33  2  0  0  0  0
 35 31  1  0  0  0  0
 35 39  1  0  0  0  0
 36 34  1  0  0  0  0
 37 40  1  0  0  0  0
 39 32  2  0  0  0  0
 40 42  1  0  0  0  0
 41 42  1  0  0  0  0
 41 43  1  0  0  0  0
 42 43  1  0  0  0  0
M  END
>  <MODEL>
2

>  <REMARK>
 VINA RESULT:      -8.4      1.709      6.072
  Name = 
  9 active torsions:
  status: ('A' for Active; 'I' for Inactive)
    1  A    between atoms: C_1  and  C_35
    2  A    between atoms: C_2  and  C_6
    3  A    between atoms: C_2  and  C_13
    4  A    between atoms: C_3  and  C_4
    5  A    between atoms: C_3  and  C_12
    6  A    between atoms: C_6  and  C_12
    7  A    between atoms: C_19  and  C_37
    8  A    between atoms: C_29  and  C_36
    9  A    between atoms: C_36  and  C_40
                            x       y       z     vdW  Elec       q    Type
                         _______ _______ _______ _____ _____    ______ ____

>  <TORSDO>
F 9

$$$$
=
 OpenBabel10272414373D

 43 48  0  0  1  0  0  0  0  0999 V2000
  191.1710  176.8230  138.9570 C   0  0  2  0  0  3  0  0  0  0  0  0
  195.8680  173.7440  137.3290 C   0  0  0  0  0  0  0  0  0  0  0  0
  191.0810  173.7810  136.1680 C   0  0  2  0  0  3  0  0  0  0  0  0
  189.8760  175.9020  136.8210 C   0  0  2  0  0  3  0  0  0  0  0  0
  194.6080  175.3730  136.2560 C   0  0  0  0  0  2  0  0  0  0  0  0
  194.8030  172.6790  137.0980 C   0  0  0  0  0  2  0  0  0  0  0  0
  196.4870  173.7710  138.3920 O   0  0  0  0  0  0  0  0  0  0  0  0
  192.5230  173.7220  136.6320 C   0  0  2  0  0  3  0  0  0  0  0  0
  195.9840  174.8480  136.3780 C   0  0  0  0  0  2  0  0  0  0  0  0
  193.4180  173.0420  137.6690 C   0  0  0  0  0  2  0  0  0  0  0  0
  190.0490  174.3960  137.0850 C   0  0  2  0  0  3  0  0  0  0  0  0
  191.4590  174.1630  137.6120 C   0  0  1  0  0  3  0  0  0  0  0  0
  193.4780  176.9460  137.5600 C   0  0  0  0  0  2  0  0  0  0  0  0
  192.4720  177.2140  138.7220 C   0  0  0  0  0  2  0  0  0  0  0  0
  190.0930  176.6430  138.0370 O   0  0  0  0  0  0  0  0  0  0  0  0
  194.5300  176.7700  136.5590 O   0  0  0  0  0  0  0  0  0  0  0  0
  191.7920  177.8300  142.6480 C   0  0  0  0  0  2  0  0  0  0  0  0
  190.8160  176.8790  143.3040 C   0  0  1  0  0  3  0  0  0  0  0  0
  189.7510  176.3630  141.0230 C   0  0  0  0  0  2  0  0  0  0  0  0
  192.0250  177.4450  141.1970 C   0  0  0  0  0  2  0  0  0  0  0  0
  190.7330  177.3460  140.3070 C   0  0  1  0  0  3  0  0  0  0  0  0
  189.5160  176.6670  142.5360 C   0  0  0  0  0  2  0  0  0  0  0  0
  191.9000  175.6610  145.1510 C   0  0  0  0  0  1  0  0  0  0  0  0
  191.4620  175.5660  143.6800 C   0  0  0  0  0  2  0  0  0  0  0  0
  188.4330  176.2100  136.2560 C   0  0  1  0  0  3  0  0  0  0  0  0
  188.0420  175.6500  134.9320 C   0  0  0  0  0  1  0  0  0  0  0  0
  187.2570  176.4110  137.1680 C   0  0  0  0  0  2  0  0  0  0  0  0
  186.9450  177.8440  137.4760 C   0  0  2  0  0  3  0  0  0  0  0  0
  187.5090  178.8090  136.4890 C   0  0  0  0  0  1  0  0  0  0  0  0
  187.4420  178.2010  138.8770 C   0  0  0  0  0  2  0  0  0  0  0  0
  186.1820  178.3590  139.7650 C   0  0  2  0  0  3  0  0  0  0  0  0
  183.4460  179.0670  141.2080 C   0  0  0  0  0  3  0  0  0  0  0  0
  186.0180  177.8510  143.3860 C   0  0  0  0  0  0  0  0  0  0  0  0
  185.6110  178.1470  142.2210 C   0  0  0  0  0  0  0  0  0  0  0  0
  184.8270  178.7250  139.0950 C   0  0  0  0  0  2  0  0  0  0  0  0
  186.5660  178.6570  141.2050 C   0  0  0  0  0  2  0  0  0  0  0  0
  186.3610  177.5680  144.6860 C   0  0  0  0  0  3  0  0  0  0  0  0
  184.1370  177.9480  141.9410 C   0  0  0  0  0  2  0  0  0  0  0  0
  183.7720  179.4030  139.9430 C   0  0  0  0  0  3  0  0  0  0  0  0
  187.6420  177.9850  145.4000 C   0  0  0  0  0  2  0  0  0  0  0  0
  189.5680  177.6310  147.0230 C   0  0  0  0  0  2  0  0  0  0  0  0
  188.1900  177.1800  146.5690 C   0  0  0  0  0  3  0  0  0  0  0  0
  188.3650  178.1260  147.7640 C   0  0  0  0  0  2  0  0  0  0  0  0
  1 14  1  6  0  0  0
  1 21  1  0  0  0  0
  2  7  2  0  0  0  0
  3  8  1  0  0  0  0
  3 11  1  0  0  0  0
  3 12  1  0  0  0  0
  4 11  1  0  0  0  0
  4 15  1  0  0  0  0
  5  9  1  0  0  0  0
  5 16  1  0  0  0  0
  6  2  1  0  0  0  0
  6 10  1  0  0  0  0
  8 12  1  0  0  0  0
  8 10  1  0  0  0  0
  9  2  1  0  0  0  0
 11 12  1  0  0  0  0
 13 14  1  0  0  0  0
 15  1  1  0  0  0  0
 16 13  1  0  0  0  0
 17 18  1  0  0  0  0
 18 24  1  0  0  0  0
 19 22  1  0  0  0  0
 20 17  1  0  0  0  0
 21 19  1  0  0  0  0
 21 20  1  0  0  0  0
 22 18  1  0  0  0  0
 24 23  1  0  0  0  0
 25  4  1  0  0  0  0
 25 27  1  0  0  0  0
 26 25  1  0  0  0  0
 27 28  1  0  0  0  0
 28 30  1  0  0  0  0
 29 28  1  0  0  0  0
 30 31  1  0  0  0  0
 31 36  1  0  0  0  0
 32 38  1  0  0  0  0
 33 37  2  0  0  0  0
 34 33  2  0  0  0  0
 35 31  1  0  0  0  0
 35 39  1  0  0  0  0
 36 34  1  0  0  0  0
 37 40  1  0  0  0  0
 38 34  1  0  0  0  0
 39 32  2  0  0  0  0
 40 42  1  0  0  0  0
 41 43  1  0  0  0  0
 42 41  1  0  0  0  0
 42 43  1  0  0  0  0
M  END
>  <MODEL>
3

>  <REMARK>
 VINA RESULT:      -8.0      1.833      6.384
  Name = 
  9 active torsions:
  status: ('A' for Active; 'I' for Inactive)
    1  A    between atoms: C_1  and  C_35
    2  A    between atoms: C_2  and  C_6
    3  A    between atoms: C_2  and  C_13
    4  A    between atoms: C_3  and  C_4
    5  A    between atoms: C_3  and  C_12
    6  A    between atoms: C_6  and  C_12
    7  A    between atoms: C_19  and  C_37
    8  A    between atoms: C_29  and  C_36
    9  A    between atoms: C_36  and  C_40
                            x       y       z     vdW  Elec       q    Type
                         _______ _______ _______ _____ _____    ______ ____

>  <TORSDO>
F 9

$$$$
=
 OpenBabel10272414373D

 43 48  0  0  1  0  0  0  0  0999 V2000
  190.1780  176.3850  139.2400 C   0  0  2  0  0  3  0  0  0  0  0  0
  195.2100  173.9080  137.5850 C   0  0  0  0  0  0  0  0  0  0  0  0
  190.6510  174.2390  135.7460 C   0  0  2  0  0  3  0  0  0  0  0  0
  189.2610  176.0880  136.7590 C   0  0  2  0  0  3  0  0  0  0  0  0
  194.0440  175.7630  136.8170 C   0  0  0  0  0  2  0  0  0  0  0  0
  194.2430  172.9430  136.9090 C   0  0  0  0  0  2  0  0  0  0  0  0
  195.6610  173.6420  138.6980 O   0  0  0  0  0  0  0  0  0  0  0  0
  192.0090  174.0620  136.3960 C   0  0  2  0  0  3  0  0  0  0  0  0
  195.4110  175.2330  137.0030 C   0  0  0  0  0  2  0  0  0  0  0  0
  192.7730  173.1250  137.3330 C   0  0  0  0  0  2  0  0  0  0  0  0
  189.4660  174.5680  136.6240 C   0  0  2  0  0  3  0  0  0  0  0  0
  190.7920  174.2060  137.2800 C   0  0  1  0  0  3  0  0  0  0  0  0
  192.6580  176.9060  138.3080 C   0  0  0  0  0  2  0  0  0  0  0  0
  191.4780  176.8340  139.3270 C   0  0  0  0  0  2  0  0  0  0  0  0
  189.2590  176.4620  138.1500 O   0  0  0  0  0  0  0  0  0  0  0  0
  193.8540  177.0210  137.4750 O   0  0  0  0  0  0  0  0  0  0  0  0
  188.5460  178.3950  142.1250 C   0  0  0  0  0  2  0  0  0  0  0  0
  189.5100  178.0200  143.2290 C   0  0  1  0  0  3  0  0  0  0  0  0
  190.5060  176.1630  141.7580 C   0  0  0  0  0  2  0  0  0  0  0  0
  189.1120  178.0200  140.7660 C   0  0  0  0  0  2  0  0  0  0  0  0
  189.5190  176.5100  140.5960 C   0  0  1  0  0  3  0  0  0  0  0  0
  190.0090  176.5800  143.1780 C   0  0  0  0  0  2  0  0  0  0  0  0
  191.7610  178.3330  144.1790 C   0  0  0  0  0  1  0  0  0  0  0  0
  190.6510  179.0020  143.3510 C   0  0  0  0  0  2  0  0  0  0  0  0
  187.9040  176.5320  136.0820 C   0  0  1  0  0  3  0  0  0  0  0  0
  187.6390  176.1370  134.6700 C   0  0  0  0  0  1  0  0  0  0  0  0
  186.6440  176.7010  136.8810 C   0  0  0  0  0  2  0  0  0  0  0  0
  186.3400  178.1140  137.2750 C   0  0  2  0  0  3  0  0  0  0  0  0
  187.2200  179.1240  136.6200 C   0  0  0  0  0  1  0  0  0  0  0  0
  186.4330  178.2670  138.7940 C   0  0  0  0  0  2  0  0  0  0  0  0
  184.9900  178.5200  139.3000 C   0  0  2  0  0  3  0  0  0  0  0  0
  181.9820  179.3530  139.8760 C   0  0  0  0  0  3  0  0  0  0  0  0
  183.9120  178.5850  142.7970 C   0  0  0  0  0  0  0  0  0  0  0  0
  183.8150  178.6800  141.5350 C   0  0  0  0  0  0  0  0  0  0  0  0
  183.8510  178.7290  138.2610 C   0  0  0  0  0  2  0  0  0  0  0  0
  184.9990  179.0550  140.7220 C   0  0  0  0  0  2  0  0  0  0  0  0
  183.9130  178.5220  144.1690 C   0  0  0  0  0  3  0  0  0  0  0  0
  182.4580  178.3880  140.9300 C   0  0  0  0  0  2  0  0  0  0  0  0
  182.6210  179.4970  138.6960 C   0  0  0  0  0  3  0  0  0  0  0  0
  184.9750  179.0910  145.1040 C   0  0  0  0  0  2  0  0  0  0  0  0
  186.5710  177.1640  145.5570 C   0  0  0  0  0  2  0  0  0  0  0  0
  185.6520  178.2170  146.1500 C   0  0  0  0  0  3  0  0  0  0  0  0
  187.1660  178.4430  146.0580 C   0  0  0  0  0  2  0  0  0  0  0  0
  1 14  1  6  0  0  0
  1 21  1  0  0  0  0
  2  7  2  0  0  0  0
  3  8  1  0  0  0  0
  3 11  1  0  0  0  0
  3 12  1  0  0  0  0
  4 15  1  0  0  0  0
  5  9  1  0  0  0  0
  5 16  1  0  0  0  0
  6 10  1  0  0  0  0
  6  2  1  0  0  0  0
  8 12  1  0  0  0  0
  8 10  1  0  0  0  0
  9  2  1  0  0  0  0
 11  4  1  0  0  0  0
 11 12  1  0  0  0  0
 13 14  1  0  0  0  0
 15  1  1  0  0  0  0
 16 13  1  0  0  0  0
 17 18  1  0  0  0  0
 18 24  1  0  0  0  0
 19 22  1  0  0  0  0
 20 17  1  0  0  0  0
 21 20  1  0  0  0  0
 21 19  1  0  0  0  0
 22 18  1  0  0  0  0
 24 23  1  0  0  0  0
 25  4  1  0  0  0  0
 25 27  1  0  0  0  0
 26 25  1  0  0  0  0
 27 28  1  0  0  0  0
 28 30  1  0  0  0  0
 29 28  1  0  0  0  0
 30 31  1  0  0  0  0
 31 36  1  0  0  0  0
 32 38  1  0  0  0  0
 33 37  2  0  0  0  0
 34 33  2  0  0  0  0
 35 39  1  0  0  0  0
 35 31  1  0  0  0  0
 36 34  1  0  0  0  0
 37 40  1  0  0  0  0
 38 34  1  0  0  0  0
 39 32  2  0  0  0  0
 40 42  1  0  0  0  0
 41 43  1  0  0  0  0
 41 42  1  0  0  0  0
 43 42  1  0  0  0  0
M  END
>  <MODEL>
4

>  <REMARK>
 VINA RESULT:      -8.0      1.646      6.292
  Name = 
  9 active torsions:
  status: ('A' for Active; 'I' for Inactive)
    1  A    between atoms: C_1  and  C_35
    2  A    between atoms: C_2  and  C_6
    3  A    between atoms: C_2  and  C_13
    4  A    between atoms: C_3  and  C_4
    5  A    between atoms: C_3  and  C_12
    6  A    between atoms: C_6  and  C_12
    7  A    between atoms: C_19  and  C_37
    8  A    between atoms: C_29  and  C_36
    9  A    between atoms: C_36  and  C_40
                            x       y       z     vdW  Elec       q    Type
                         _______ _______ _______ _____ _____    ______ ____

>  <TORSDO>
F 9

$$$$
=
 OpenBabel10272414373D

 43 48  0  0  1  0  0  0  0  0999 V2000
  190.2510  176.5720  139.9220 C   0  0  2  0  0  3  0  0  0  0  0  0
  194.4860  173.8730  136.9260 C   0  0  0  0  0  0  0  0  0  0  0  0
  189.8570  175.2940  136.0170 C   0  0  2  0  0  3  0  0  0  0  0  0
  188.9710  177.0210  137.6320 C   0  0  2  0  0  3  0  0  0  0  0  0
  193.5810  176.0070  136.7910 C   0  0  0  0  0  2  0  0  0  0  0  0
  193.2800  173.2500  136.2320 C   0  0  0  0  0  2  0  0  0  0  0  0
  195.0270  173.2820  137.8590 O   0  0  0  0  0  0  0  0  0  0  0  0
  191.2360  174.7700  136.3680 C   0  0  2  0  0  3  0  0  0  0  0  0
  194.8430  175.2570  136.6190 C   0  0  0  0  0  2  0  0  0  0  0  0
  191.9360  173.5340  136.9330 C   0  0  0  0  0  2  0  0  0  0  0  0
  188.8800  175.5670  137.1360 C   0  0  2  0  0  3  0  0  0  0  0  0
  190.1940  174.8690  137.4590 C   0  0  1  0  0  3  0  0  0  0  0  0
  192.6370  176.9410  138.7120 C   0  0  0  0  0  2  0  0  0  0  0  0
  191.6110  176.7940  139.8780 C   0  0  0  0  0  2  0  0  0  0  0  0
  189.2230  177.0430  139.0490 O   0  0  0  0  0  0  0  0  0  0  0  0
  193.7110  177.0810  137.7300 O   0  0  0  0  0  0  0  0  0  0  0  0
  188.5290  177.8930  143.1330 C   0  0  0  0  0  2  0  0  0  0  0  0
  189.7260  177.8560  144.0570 C   0  0  1  0  0  3  0  0  0  0  0  0
  191.0320  176.4540  142.3450 C   0  0  0  0  0  2  0  0  0  0  0  0
  188.9630  177.7400  141.6850 C   0  0  0  0  0  2  0  0  0  0  0  0
  189.8140  176.4570  141.3660 C   0  0  1  0  0  3  0  0  0  0  0  0
  190.6590  176.6680  143.8460 C   0  0  0  0  0  2  0  0  0  0  0  0
  191.9820  178.8390  144.1580 C   0  0  0  0  0  1  0  0  0  0  0  0
  190.4810  179.1630  144.0690 C   0  0  0  0  0  2  0  0  0  0  0  0
  187.6390  177.8070  137.3110 C   0  0  1  0  0  3  0  0  0  0  0  0
  187.7290  179.1560  136.6830 C   0  0  0  0  0  1  0  0  0  0  0  0
  186.3670  177.0900  136.9580 C   0  0  0  0  0  2  0  0  0  0  0  0
  185.2420  177.3050  137.9230 C   0  0  2  0  0  3  0  0  0  0  0  0
  184.1100  176.3500  137.7510 C   0  0  0  0  0  1  0  0  0  0  0  0
  184.7190  178.7380  137.8100 C   0  0  0  0  0  2  0  0  0  0  0  0
  183.5220  178.8480  138.7880 C   0  0  2  0  0  3  0  0  0  0  0  0
  180.8530  179.4190  140.4070 C   0  0  0  0  0  3  0  0  0  0  0  0
  183.6850  178.5750  142.4340 C   0  0  0  0  0  0  0  0  0  0  0  0
  183.1640  178.7570  141.2910 C   0  0  0  0  0  0  0  0  0  0  0  0
  182.0920  179.0520  138.2110 C   0  0  0  0  0  2  0  0  0  0  0  0
  183.9880  179.2750  140.1700 C   0  0  0  0  0  2  0  0  0  0  0  0
  184.1510  178.4110  143.7150 C   0  0  0  0  0  3  0  0  0  0  0  0
  181.6960  178.4150  141.1470 C   0  0  0  0  0  2  0  0  0  0  0  0
  181.0490  179.6950  139.1010 C   0  0  0  0  0  3  0  0  0  0  0  0
  185.4420  178.9820  144.2940 C   0  0  0  0  0  2  0  0  0  0  0  0
  184.9730  178.0900  146.6280 C   0  0  0  0  0  2  0  0  0  0  0  0
  185.6100  179.1860  145.7930 C   0  0  0  0  0  3  0  0  0  0  0  0
  186.4420  178.0220  146.3460 C   0  0  0  0  0  2  0  0  0  0  0  0
  1 14  1  1  0  0  0
  1 21  1  0  0  0  0
  2  7  2  0  0  0  0
  3  8  1  0  0  0  0
  3 11  1  0  0  0  0
  3 12  1  0  0  0  0
  4 15  1  0  0  0  0
  5 16  1  0  0  0  0
  6  2  1  0  0  0  0
  6 10  1  0  0  0  0
  8 10  1  0  0  0  0
  8 12  1  0  0  0  0
  9  5  1  0  0  0  0
  9  2  1  0  0  0  0
 11 12  1  0  0  0  0
 11  4  1  0  0  0  0
 13 14  1  0  0  0  0
 15  1  1  0  0  0  0
 16 13  1  0  0  0  0
 17 18  1  0  0  0  0
 18 24  1  0  0  0  0
 19 22  1  0  0  0  0
 20 17  1  0  0  0  0
 21 20  1  0  0  0  0
 21 19  1  0  0  0  0
 22 18  1  0  0  0  0
 24 23  1  0  0  0  0
 25  4  1  0  0  0  0
 26 25  1  0  0  0  0
 27 25  1  0  0  0  0
 27 28  1  0  0  0  0
 29 28  1  0  0  0  0
 30 28  1  0  0  0  0
 30 31  1  0  0  0  0
 31 36  1  0  0  0  0
 32 38  1  0  0  0  0
 33 37  2  0  0  0  0
 34 33  2  0  0  0  0
 35 31  1  0  0  0  0
 35 39  1  0  0  0  0
 36 34  1  0  0  0  0
 37 40  1  0  0  0  0
 38 34  1  0  0  0  0
 39 32  2  0  0  0  0
 40 42  1  0  0  0  0
 42 43  1  0  0  0  0
 42 41  1  0  0  0  0
 43 41  1  0  0  0  0
M  END
>  <MODEL>
5

>  <REMARK>
 VINA RESULT:      -7.5      1.637      6.544
  Name = 
  9 active torsions:
  status: ('A' for Active; 'I' for Inactive)
    1  A    between atoms: C_1  and  C_35
    2  A    between atoms: C_2  and  C_6
    3  A    between atoms: C_2  and  C_13
    4  A    between atoms: C_3  and  C_4
    5  A    between atoms: C_3  and  C_12
    6  A    between atoms: C_6  and  C_12
    7  A    between atoms: C_19  and  C_37
    8  A    between atoms: C_29  and  C_36
    9  A    between atoms: C_36  and  C_40
                            x       y       z     vdW  Elec       q    Type
                         _______ _______ _______ _____ _____    ______ ____

>  <TORSDO>
F 9

$$$$
=
 OpenBabel10272414373D

 43 48  0  0  1  0  0  0  0  0999 V2000
  184.8840  178.0320  138.0680 C   0  0  2  0  0  3  0  0  0  0  0  0
  182.3100  173.7520  135.0270 C   0  0  0  0  0  0  0  0  0  0  0  0
  181.8440  175.6620  139.5440 C   0  0  2  0  0  3  0  0  0  0  0  0
  182.8700  177.9550  139.8070 C   0  0  2  0  0  3  0  0  0  0  0  0
  181.5950  175.8600  135.6870 C   0  0  0  0  0  2  0  0  0  0  0  0
  182.1260  173.1820  136.4290 C   0  0  0  0  0  2  0  0  0  0  0  0
  183.2730  173.4020  134.3460 O   0  0  0  0  0  0  0  0  0  0  0  0
  182.0920  175.0260  138.1910 C   0  0  2  0  0  3  0  0  0  0  0  0
  181.4680  174.8670  134.6000 C   0  0  0  0  0  2  0  0  0  0  0  0
  182.9190  173.9280  137.5200 C   0  0  0  0  0  2  0  0  0  0  0  0
  182.9540  176.4640  140.1820 C   0  0  2  0  0  3  0  0  0  0  0  0
  183.2510  175.6700  138.9170 C   0  0  1  0  0  3  0  0  0  0  0  0
  183.1950  177.5260  136.0230 C   0  0  0  0  0  2  0  0  0  0  0  0
  184.5080  177.9630  136.7430 C   0  0  0  0  0  2  0  0  0  0  0  0
  184.1110  178.3840  139.2160 O   0  0  0  0  0  0  0  0  0  0  0  0
  182.0440  177.1330  135.2110 O   0  0  0  0  0  0  0  0  0  0  0  0
  188.5510  178.1390  136.8170 C   0  0  0  0  0  2  0  0  0  0  0  0
  189.2210  177.5660  138.0460 C   0  0  1  0  0  3  0  0  0  0  0  0
  187.0540  177.8680  139.3940 C   0  0  0  0  0  2  0  0  0  0  0  0
  187.0490  177.9170  136.8700 C   0  0  0  0  0  2  0  0  0  0  0  0
  186.3280  178.4760  138.1510 C   0  0  1  0  0  3  0  0  0  0  0  0
  188.6090  178.0080  139.3720 C   0  0  0  0  0  2  0  0  0  0  0  0
  190.8660  175.7320  138.0450 C   0  0  0  0  0  1  0  0  0  0  0  0
  189.3660  176.0650  137.9720 C   0  0  0  0  0  2  0  0  0  0  0  0
  182.5470  178.8350  141.0780 C   0  0  1  0  0  3  0  0  0  0  0  0
  181.2760  179.6130  141.1140 C   0  0  0  0  0  1  0  0  0  0  0  0
  183.0240  178.4450  142.4480 C   0  0  0  0  0  2  0  0  0  0  0  0
  184.4330  178.8490  142.7560 C   0  0  2  0  0  3  0  0  0  0  0  0
  185.1120  179.5660  141.6390 C   0  0  0  0  0  1  0  0  0  0  0  0
  185.2580  177.6230  143.1480 C   0  0  0  0  0  2  0  0  0  0  0  0
  185.8210  177.9050  144.5640 C   0  0  2  0  0  3  0  0  0  0  0  0
  186.6000  178.8970  147.4760 C   0  0  0  0  0  3  0  0  0  0  0  0
  189.2510  177.2850  145.6820 C   0  0  0  0  0  0  0  0  0  0  0  0
  188.0440  177.6740  145.7490 C   0  0  0  0  0  0  0  0  0  0  0  0
  184.8680  178.4630  145.6580 C   0  0  0  0  0  2  0  0  0  0  0  0
  187.3280  178.0970  144.5200 C   0  0  0  0  0  2  0  0  0  0  0  0
  190.5720  176.9120  145.7090 C   0  0  0  0  0  3  0  0  0  0  0  0
  187.4020  177.6730  147.1200 C   0  0  0  0  0  2  0  0  0  0  0  0
  185.4780  179.2370  146.8080 C   0  0  0  0  0  3  0  0  0  0  0  0
  191.6030  177.1380  144.6080 C   0  0  0  0  0  2  0  0  0  0  0  0
  190.4410  176.8950  142.3590 C   0  0  0  0  0  2  0  0  0  0  0  0
  191.5260  176.3810  143.2890 C   0  0  0  0  0  3  0  0  0  0  0  0
  191.8500  177.3600  142.1540 C   0  0  0  0  0  2  0  0  0  0  0  0
  1 14  1  6  0  0  0
  1 21  1  0  0  0  0
  1 15  1  0  0  0  0
  2  6  1  0  0  0  0
  3 11  1  0  0  0  0
  4 11  1  0  0  0  0
  4 25  1  0  0  0  0
  6 10  1  0  0  0  0
  7  2  2  0  0  0  0
  8 12  1  0  0  0  0
  8  3  1  0  0  0  0
  9  2  1  0  0  0  0
  9  5  1  0  0  0  0
 10  8  1  0  0  0  0
 12  3  1  0  0  0  0
 12 11  1  0  0  0  0
 13 14  1  0  0  0  0
 15  4  1  0  0  0  0
 16  5  1  0  0  0  0
 16 13  1  0  0  0  0
 17 20  1  0  0  0  0
 17 18  1  0  0  0  0
 18 22  1  0  0  0  0
 20 21  1  0  0  0  0
 21 19  1  0  0  0  0
 22 19  1  0  0  0  0
 24 23  1  0  0  0  0
 24 18  1  0  0  0  0
 25 26  1  0  0  0  0
 25 27  1  0  0  0  0
 27 28  1  0  0  0  0
 28 30  1  0  0  0  0
 29 28  1  0  0  0  0
 30 31  1  0  0  0  0
 31 35  1  0  0  0  0
 33 37  2  0  0  0  0
 33 34  2  0  0  0  0
 34 38  1  0  0  0  0
 35 39  1  0  0  0  0
 36 31  1  0  0  0  0
 36 34  1  0  0  0  0
 38 32  1  0  0  0  0
 39 32  2  0  0  0  0
 40 37  1  0  0  0  0
 41 42  1  0  0  0  0
 42 40  1  0  0  0  0
 43 41  1  0  0  0  0
 43 42  1  0  0  0  0
M  END
>  <MODEL>
6

>  <REMARK>
 VINA RESULT:      -7.2      2.543      6.870
  Name = 
  9 active torsions:
  status: ('A' for Active; 'I' for Inactive)
    1  A    between atoms: C_1  and  C_35
    2  A    between atoms: C_2  and  C_6
    3  A    between atoms: C_2  and  C_13
    4  A    between atoms: C_3  and  C_4
    5  A    between atoms: C_3  and  C_12
    6  A    between atoms: C_6  and  C_12
    7  A    between atoms: C_19  and  C_37
    8  A    between atoms: C_29  and  C_36
    9  A    between atoms: C_36  and  C_40
                            x       y       z     vdW  Elec       q    Type
                         _______ _______ _______ _____ _____    ______ ____

>  <TORSDO>
F 9

$$$$
=
 OpenBabel10272414373D

 43 48  0  0  1  0  0  0  0  0999 V2000
  184.5190  177.1980  137.5640 C   0  0  2  0  0  3  0  0  0  0  0  0
  184.5650  171.9520  134.9820 C   0  0  0  0  0  0  0  0  0  0  0  0
  187.9590  175.2010  136.4640 C   0  0  2  0  0  3  0  0  0  0  0  0
  187.1050  176.9030  138.1220 C   0  0  2  0  0  3  0  0  0  0  0  0
  185.1210  172.6540  137.1240 C   0  0  0  0  0  2  0  0  0  0  0  0
  185.8580  172.5090  134.3970 C   0  0  0  0  0  2  0  0  0  0  0  0
  183.5150  172.0470  134.3470 O   0  0  0  0  0  0  0  0  0  0  0  0
  186.8870  174.2780  135.9190 C   0  0  2  0  0  3  0  0  0  0  0  0
  184.5490  171.5150  136.3760 C   0  0  0  0  0  2  0  0  0  0  0  0
  186.0670  174.0140  134.6550 C   0  0  0  0  0  2  0  0  0  0  0  0
  187.6160  176.6550  136.6910 C   0  0  2  0  0  3  0  0  0  0  0  0
  186.6110  175.7640  135.9740 C   0  0  1  0  0  3  0  0  0  0  0  0
  184.0840  174.5650  137.9750 C   0  0  0  0  0  2  0  0  0  0  0  0
  183.7470  176.0770  137.7810 C   0  0  0  0  0  2  0  0  0  0  0  0
  185.8090  177.5300  138.0780 O   0  0  0  0  0  0  0  0  0  0  0  0
  184.2430  173.1230  138.1550 O   0  0  0  0  0  0  0  0  0  0  0  0
  182.5170  180.2490  138.8720 C   0  0  0  0  0  2  0  0  0  0  0  0
  181.1390  179.8190  138.4220 C   0  0  1  0  0  3  0  0  0  0  0  0
  182.1690  177.9760  136.9570 C   0  0  0  0  0  2  0  0  0  0  0  0
  183.4940  179.0890  138.7940 C   0  0  0  0  0  2  0  0  0  0  0  0
  183.6110  178.3960  137.3870 C   0  0  1  0  0  3  0  0  0  0  0  0
  181.1000  179.1090  137.0720 C   0  0  0  0  0  2  0  0  0  0  0  0
  180.5050  179.8250  140.8020 C   0  0  0  0  0  1  0  0  0  0  0  0
  180.4070  179.0360  139.4850 C   0  0  0  0  0  2  0  0  0  0  0  0
  188.1140  177.8130  138.9280 C   0  0  1  0  0  3  0  0  0  0  0  0
  189.4080  178.1920  138.2940 C   0  0  0  0  0  1  0  0  0  0  0  0
  187.6340  178.8350  139.9180 C   0  0  0  0  0  2  0  0  0  0  0  0
  187.5270  178.3370  141.3270 C   0  0  2  0  0  3  0  0  0  0  0  0
  188.3790  177.1470  141.6110 C   0  0  0  0  0  1  0  0  0  0  0  0
  186.0710  178.0110  141.6600 C   0  0  0  0  0  2  0  0  0  0  0  0
  185.9380  178.1120  143.2010 C   0  0  2  0  0  3  0  0  0  0  0  0
  185.3080  178.7350  146.2480 C   0  0  0  0  0  3  0  0  0  0  0  0
  188.5420  177.3130  145.6460 C   0  0  0  0  0  0  0  0  0  0  0  0
  187.4150  177.7090  145.2140 C   0  0  0  0  0  0  0  0  0  0  0  0
  184.5780  178.5480  143.8140 C   0  0  0  0  0  2  0  0  0  0  0  0
  187.3000  178.2870  143.8520 C   0  0  0  0  0  2  0  0  0  0  0  0
  189.7290  176.9210  146.2130 C   0  0  0  0  0  3  0  0  0  0  0  0
  186.2330  177.5510  146.1470 C   0  0  0  0  0  2  0  0  0  0  0  0
  184.5840  179.1690  145.1950 C   0  0  0  0  0  3  0  0  0  0  0  0
  191.1310  177.2620  145.7180 C   0  0  0  0  0  2  0  0  0  0  0  0
  190.7420  178.9220  143.8300 C   0  0  0  0  0  2  0  0  0  0  0  0
  191.3860  177.6150  144.2590 C   0  0  0  0  0  3  0  0  0  0  0  0
  192.1890  178.9200  144.2140 C   0  0  0  0  0  2  0  0  0  0  0  0
  1 14  1  1  0  0  0
  1 15  1  0  0  0  0
  2  9  1  0  0  0  0
  3 11  1  0  0  0  0
  4 25  1  0  0  0  0
  5 16  1  0  0  0  0
  6 10  1  0  0  0  0
  6  2  1  0  0  0  0
  7  2  2  0  0  0  0
  8 12  1  0  0  0  0
  8  3  1  0  0  0  0
  9  5  1  0  0  0  0
 10  8  1  0  0  0  0
 11  4  1  0  0  0  0
 12  3  1  0  0  0  0
 12 11  1  0  0  0  0
 13 16  1  0  0  0  0
 14 13  1  0  0  0  0
 15  4  1  0  0  0  0
 18 17  1  0  0  0  0
 18 24  1  0  0  0  0
 19 22  1  0  0  0  0
 19 21  1  0  0  0  0
 20 17  1  0  0  0  0
 21  1  1  0  0  0  0
 21 20  1  0  0  0  0
 22 18  1  0  0  0  0
 24 23  1  0  0  0  0
 25 27  1  0  0  0  0
 26 25  1  0  0  0  0
 27 28  1  0  0  0  0
 28 29  1  0  0  0  0
 28 30  1  0  0  0  0
 30 31  1  0  0  0  0
 31 35  1  0  0  0  0
 31 36  1  0  0  0  0
 33 37  2  0  0  0  0
 34 33  2  0  0  0  0
 34 38  1  0  0  0  0
 35 39  1  0  0  0  0
 36 34  1  0  0  0  0
 38 32  1  0  0  0  0
 39 32  2  0  0  0  0
 40 37  1  0  0  0  0
 41 43  1  0  0  0  0
 41 42  1  0  0  0  0
 42 40  1  0  0  0  0
 43 42  1  0  0  0  0
M  END
>  <MODEL>
7

>  <REMARK>
 VINA RESULT:      -6.9      2.704      5.378
  Name = 
  9 active torsions:
  status: ('A' for Active; 'I' for Inactive)
    1  A    between atoms: C_1  and  C_35
    2  A    between atoms: C_2  and  C_6
    3  A    between atoms: C_2  and  C_13
    4  A    between atoms: C_3  and  C_4
    5  A    between atoms: C_3  and  C_12
    6  A    between atoms: C_6  and  C_12
    7  A    between atoms: C_19  and  C_37
    8  A    between atoms: C_29  and  C_36
    9  A    between atoms: C_36  and  C_40
                            x       y       z     vdW  Elec       q    Type
                         _______ _______ _______ _____ _____    ______ ____

>  <TORSDO>
F 9

$$$$
=
 OpenBabel10272414373D

 43 48  0  0  1  0  0  0  0  0999 V2000
  190.0210  176.7300  140.1690 C   0  0  2  0  0  3  0  0  0  0  0  0
  194.0770  173.8690  137.0770 C   0  0  0  0  0  0  0  0  0  0  0  0
  189.5430  175.5990  136.2280 C   0  0  2  0  0  3  0  0  0  0  0  0
  188.7670  177.3270  137.8970 C   0  0  2  0  0  3  0  0  0  0  0  0
  193.3050  176.0580  137.0110 C   0  0  0  0  0  2  0  0  0  0  0  0
  192.8330  173.3430  136.3690 C   0  0  0  0  0  2  0  0  0  0  0  0
  194.5820  173.2180  137.9900 O   0  0  0  0  0  0  0  0  0  0  0  0
  190.8870  174.9810  136.5580 C   0  0  2  0  0  3  0  0  0  0  0  0
  194.5180  175.2370  136.8120 C   0  0  0  0  0  2  0  0  0  0  0  0
  191.5110  173.6870  137.0830 C   0  0  0  0  0  2  0  0  0  0  0  0
  188.5860  175.8970  137.3580 C   0  0  2  0  0  3  0  0  0  0  0  0
  189.8550  175.1100  137.6550 C   0  0  1  0  0  3  0  0  0  0  0  0
  192.4230  176.9880  138.9620 C   0  0  0  0  0  2  0  0  0  0  0  0
  191.3920  176.8690  140.1280 C   0  0  0  0  0  2  0  0  0  0  0  0
  189.0230  177.2900  139.3140 O   0  0  0  0  0  0  0  0  0  0  0  0
  193.5020  177.0930  137.9820 O   0  0  0  0  0  0  0  0  0  0  0  0
  189.1200  178.1570  143.6580 C   0  0  0  0  0  2  0  0  0  0  0  0
  190.1570  177.4170  144.4740 C   0  0  1  0  0  3  0  0  0  0  0  0
  190.6510  175.8690  142.4830 C   0  0  0  0  0  2  0  0  0  0  0  0
  189.4330  178.0580  142.1750 C   0  0  0  0  0  2  0  0  0  0  0  0
  189.5790  176.5980  141.6100 C   0  0  1  0  0  3  0  0  0  0  0  0
  190.4210  175.9840  144.0230 C   0  0  0  0  0  2  0  0  0  0  0  0
  191.1600  179.6470  144.1700 C   0  0  0  0  0  1  0  0  0  0  0  0
  191.4390  178.2020  144.6170 C   0  0  0  0  0  2  0  0  0  0  0  0
  187.4860  178.2030  137.6060 C   0  0  1  0  0  3  0  0  0  0  0  0
  187.5920  179.3450  136.6540 C   0  0  0  0  0  1  0  0  0  0  0  0
  186.1040  177.6160  137.6500 C   0  0  0  0  0  2  0  0  0  0  0  0
  185.2340  178.1480  138.7470 C   0  0  2  0  0  3  0  0  0  0  0  0
  184.2250  179.1440  138.2860 C   0  0  0  0  0  1  0  0  0  0  0  0
  186.0970  178.7710  139.8460 C   0  0  0  0  0  2  0  0  0  0  0  0
  185.2280  178.7930  141.1290 C   0  0  2  0  0  3  0  0  0  0  0  0
  183.9250  178.7100  144.0210 C   0  0  0  0  0  3  0  0  0  0  0  0
  181.6710  177.9590  141.3380 C   0  0  0  0  0  0  0  0  0  0  0  0
  182.8270  178.2900  141.7450 C   0  0  0  0  0  0  0  0  0  0  0  0
  185.8730  179.2470  142.4690 C   0  0  0  0  0  2  0  0  0  0  0  0
  184.0320  177.8660  140.9910 C   0  0  0  0  0  2  0  0  0  0  0  0
  180.3900  177.5910  141.0050 C   0  0  0  0  0  3  0  0  0  0  0  0
  182.8930  179.1260  143.0060 C   0  0  0  0  0  2  0  0  0  0  0  0
  185.2470  178.7640  143.7610 C   0  0  0  0  0  3  0  0  0  0  0  0
  179.9840  176.4850  140.0370 C   0  0  0  0  0  2  0  0  0  0  0  0
  181.7180  176.0140  138.2370 C   0  0  0  0  0  2  0  0  0  0  0  0
  180.3390  176.5630  138.5580 C   0  0  0  0  0  3  0  0  0  0  0  0
  180.5240  175.1340  138.0320 C   0  0  0  0  0  2  0  0  0  0  0  0
  1 14  1  1  0  0  0
  1 21  1  0  0  0  0
  2  7  2  0  0  0  0
  3  8  1  0  0  0  0
  3 11  1  0  0  0  0
  3 12  1  0  0  0  0
  4 15  1  0  0  0  0
  5 16  1  0  0  0  0
  6  2  1  0  0  0  0
  6 10  1  0  0  0  0
  8 10  1  0  0  0  0
  8 12  1  0  0  0  0
  9  5  1  0  0  0  0
  9  2  1  0  0  0  0
 11 12  1  0  0  0  0
 11  4  1  0  0  0  0
 13 14  1  0  0  0  0
 15  1  1  0  0  0  0
 16 13  1  0  0  0  0
 17 18  1  0  0  0  0
 18 24  1  0  0  0  0
 19 22  1  0  0  0  0
 20 17  1  0  0  0  0
 21 20  1  0  0  0  0
 21 19  1  0  0  0  0
 22 18  1  0  0  0  0
 23 24  1  0  0  0  0
 25 27  1  0  0  0  0
 25  4  1  0  0  0  0
 26 25  1  0  0  0  0
 27 28  1  0  0  0  0
 28 30  1  0  0  0  0
 29 28  1  0  0  0  0
 30 31  1  0  0  0  0
 31 35  1  0  0  0  0
 33 34  2  0  0  0  0
 34 38  1  0  0  0  0
 35 39  1  0  0  0  0
 36 31  1  0  0  0  0
 36 34  1  0  0  0  0
 37 33  2  0  0  0  0
 38 32  1  0  0  0  0
 39 32  2  0  0  0  0
 40 37  1  0  0  0  0
 41 42  1  0  0  0  0
 42 40  1  0  0  0  0
 43 41  1  0  0  0  0
 43 42  1  0  0  0  0
M  END
>  <MODEL>
8

>  <REMARK>
 VINA RESULT:      -6.8      2.064      5.886
  Name = 
  9 active torsions:
  status: ('A' for Active; 'I' for Inactive)
    1  A    between atoms: C_1  and  C_35
    2  A    between atoms: C_2  and  C_6
    3  A    between atoms: C_2  and  C_13
    4  A    between atoms: C_3  and  C_4
    5  A    between atoms: C_3  and  C_12
    6  A    between atoms: C_6  and  C_12
    7  A    between atoms: C_19  and  C_37
    8  A    between atoms: C_29  and  C_36
    9  A    between atoms: C_36  and  C_40
                            x       y       z     vdW  Elec       q    Type
                         _______ _______ _______ _____ _____    ______ ____

>  <TORSDO>
F 9

$$$$
=
 OpenBabel10272414373D

 43 48  0  0  1  0  0  0  0  0999 V2000
  184.6270  176.9980  137.4510 C   0  0  2  0  0  3  0  0  0  0  0  0
  183.8130  171.6930  135.1290 C   0  0  0  0  0  0  0  0  0  0  0  0
  187.6750  174.6260  135.9940 C   0  0  2  0  0  3  0  0  0  0  0  0
  187.2250  176.4600  137.6710 C   0  0  2  0  0  3  0  0  0  0  0  0
  184.7230  172.4040  137.1440 C   0  0  0  0  0  2  0  0  0  0  0  0
  185.0600  172.0960  134.3520 C   0  0  0  0  0  2  0  0  0  0  0  0
  182.7000  171.8740  134.6370 O   0  0  0  0  0  0  0  0  0  0  0  0
  186.4550  173.8000  135.6400 C   0  0  2  0  0  3  0  0  0  0  0  0
  183.9470  171.3050  136.5320 C   0  0  0  0  0  2  0  0  0  0  0  0
  185.4470  173.5800  134.5100 C   0  0  0  0  0  2  0  0  0  0  0  0
  187.5080  176.1140  136.1980 C   0  0  2  0  0  3  0  0  0  0  0  0
  186.3330  175.3070  135.6630 C   0  0  1  0  0  3  0  0  0  0  0  0
  184.0020  174.4370  138.0370 C   0  0  0  0  0  2  0  0  0  0  0  0
  183.7890  175.9680  137.8200 C   0  0  0  0  0  2  0  0  0  0  0  0
  186.0020  177.2130  137.7730 O   0  0  0  0  0  0  0  0  0  0  0  0
  184.0440  172.9930  138.2590 O   0  0  0  0  0  0  0  0  0  0  0  0
  182.8830  180.1280  138.9280 C   0  0  0  0  0  2  0  0  0  0  0  0
  181.4750  179.8410  138.4560 C   0  0  1  0  0  3  0  0  0  0  0  0
  182.3530  178.0020  136.8900 C   0  0  0  0  0  2  0  0  0  0  0  0
  183.7600  178.8970  138.7850 C   0  0  0  0  0  2  0  0  0  0  0  0
  183.8240  178.2750  137.3420 C   0  0  1  0  0  3  0  0  0  0  0  0
  181.3820  179.2120  137.0700 C   0  0  0  0  0  2  0  0  0  0  0  0
  181.4590  179.0820  140.8000 C   0  0  0  0  0  1  0  0  0  0  0  0
  180.6770  179.0630  139.4760 C   0  0  0  0  0  2  0  0  0  0  0  0
  188.4180  177.2870  138.2930 C   0  0  1  0  0  3  0  0  0  0  0  0
  189.7110  177.3560  137.5540 C   0  0  0  0  0  1  0  0  0  0  0  0
  188.1750  178.4990  139.1460 C   0  0  0  0  0  2  0  0  0  0  0  0
  188.0060  178.2100  140.6060 C   0  0  2  0  0  3  0  0  0  0  0  0
  186.6170  178.4220  141.1050 C   0  0  0  0  0  1  0  0  0  0  0  0
  188.9760  179.0620  141.4260 C   0  0  0  0  0  2  0  0  0  0  0  0
  189.6880  178.0970  142.4080 C   0  0  2  0  0  3  0  0  0  0  0  0
  191.2230  175.7990  143.9680 C   0  0  0  0  0  3  0  0  0  0  0  0
  188.9140  177.6800  145.9610 C   0  0  0  0  0  0  0  0  0  0  0  0
  189.4910  177.4670  144.8500 C   0  0  0  0  0  0  0  0  0  0  0  0
  190.8750  177.2360  141.8930 C   0  0  0  0  0  2  0  0  0  0  0  0
  188.7820  177.7460  143.5770 C   0  0  0  0  0  2  0  0  0  0  0  0
  188.3440  177.8210  147.2030 C   0  0  0  0  0  3  0  0  0  0  0  0
  190.9060  176.9330  144.9070 C   0  0  0  0  0  2  0  0  0  0  0  0
  191.1970  175.9520  142.6280 C   0  0  0  0  0  3  0  0  0  0  0  0
  186.8580  177.9840  147.5070 C   0  0  0  0  0  2  0  0  0  0  0  0
  185.6300  178.4980  145.3400 C   0  0  0  0  0  2  0  0  0  0  0  0
  186.0000  178.9740  146.7340 C   0  0  0  0  0  3  0  0  0  0  0  0
  184.6430  178.3170  146.4510 C   0  0  0  0  0  2  0  0  0  0  0  0
  1 15  1  0  0  0  0
  1 14  1  1  0  0  0
  2  9  1  0  0  0  0
  3 11  1  0  0  0  0
  4 15  1  0  0  0  0
  4 25  1  0  0  0  0
  5 16  1  0  0  0  0
  6 10  1  0  0  0  0
  6  2  1  0  0  0  0
  7  2  2  0  0  0  0
  8 12  1  0  0  0  0
  8  3  1  0  0  0  0
  9  5  1  0  0  0  0
 10  8  1  0  0  0  0
 11  4  1  0  0  0  0
 12  3  1  0  0  0  0
 12 11  1  0  0  0  0
 13 16  1  0  0  0  0
 14 13  1  0  0  0  0
 18 17  1  0  0  0  0
 18 24  1  0  0  0  0
 19 22  1  0  0  0  0
 19 21  1  0  0  0  0
 20 17  1  0  0  0  0
 21  1  1  0  0  0  0
 21 20  1  0  0  0  0
 22 18  1  0  0  0  0
 24 23  1  0  0  0  0
 25 27  1  0  0  0  0
 26 25  1  0  0  0  0
 27 28  1  0  0  0  0
 28 29  1  0  0  0  0
 28 30  1  0  0  0  0
 30 31  1  0  0  0  0
 31 36  1  0  0  0  0
 32 38  1  0  0  0  0
 33 37  2  0  0  0  0
 34 38  1  0  0  0  0
 34 33  2  0  0  0  0
 35 31  1  0  0  0  0
 35 39  1  0  0  0  0
 36 34  1  0  0  0  0
 37 40  1  0  0  0  0
 39 32  2  0  0  0  0
 41 43  1  0  0  0  0
 41 42  1  0  0  0  0
 42 40  1  0  0  0  0
 43 42  1  0  0  0  0
M  END
>  <MODEL>
9

>  <REMARK>
 VINA RESULT:      -6.8      2.740      5.404
  Name = 
  9 active torsions:
  status: ('A' for Active; 'I' for Inactive)
    1  A    between atoms: C_1  and  C_35
    2  A    between atoms: C_2  and  C_6
    3  A    between atoms: C_2  and  C_13
    4  A    between atoms: C_3  and  C_4
    5  A    between atoms: C_3  and  C_12
    6  A    between atoms: C_6  and  C_12
    7  A    between atoms: C_19  and  C_37
    8  A    between atoms: C_29  and  C_36
    9  A    between atoms: C_36  and  C_40
                            x       y       z     vdW  Elec       q    Type
                         _______ _______ _______ _____ _____    ______ ____

>  <TORSDO>
F 9

$$$$
