=
 OpenBabel10272401123D

 27 31  0  0  1  0  0  0  0  0999 V2000
  185.7660  178.5580  141.5020 N   0  0  0  0  0  2  0  0  0  0  0  0
  185.6200  178.6450  144.0110 C   0  0  0  0  0  0  0  0  0  0  0  0
  187.3960  177.0710  143.4150 N   0  0  0  0  0  2  0  0  0  0  0  0
  186.9100  178.7490  147.9690 C   0  0  0  0  0  3  0  0  0  0  0  0
  188.3810  177.9920  149.6850 F   0  0  0  0  0  0  0  0  0  0  0  0
  185.0410  179.4460  144.9520 N   0  0  0  0  0  0  0  0  0  0  0  0
  188.6210  177.1020  147.4870 C   0  0  0  0  0  3  0  0  0  0  0  0
  191.4780  177.1650  140.1640 Cl  0  0  0  0  0  0  0  0  0  0  0  0
  188.2040  177.0520  146.1540 C   0  0  0  0  0  3  0  0  0  0  0  0
  189.8070  177.4970  140.5670 C   0  0  0  0  0  0  0  0  0  0  0  0
  187.1330  177.8490  145.7200 C   0  0  0  0  0  0  0  0  0  0  0  0
  185.0190  178.5450  142.7010 N   0  0  0  0  0  0  0  0  0  0  0  0
  187.9740  177.9470  148.3930 C   0  0  0  0  0  0  0  0  0  0  0  0
  186.4890  178.7020  146.6370 C   0  0  0  0  0  0  0  0  0  0  0  0
  187.1540  178.2700  141.2860 C   0  0  0  0  0  0  0  0  0  0  0  0
  186.7000  177.8370  144.3880 C   0  0  0  0  0  0  0  0  0  0  0  0
  189.1990  176.8820  141.7940 C   0  0  0  0  0  2  0  0  0  0  0  0
  185.4640  179.4810  146.2170 N   0  0  0  0  0  0  0  0  0  0  0  0
  189.0540  178.2160  139.7310 C   0  0  0  0  0  3  0  0  0  0  0  0
  187.6480  178.5110  140.0650 C   0  0  0  0  0  3  0  0  0  0  0  0
  188.0940  177.7790  142.3650 C   0  0  2  0  0  3  0  0  0  0  0  0
  180.7820  178.6960  142.3400 C   0  0  0  0  0  3  0  0  0  0  0  0
  183.5820  178.5740  142.5740 C   0  0  0  0  0  0  0  0  0  0  0  0
  182.9610  178.4370  141.3200 C   0  0  0  0  0  3  0  0  0  0  0  0
  181.5690  178.4940  141.2050 C   0  0  0  0  0  3  0  0  0  0  0  0
  181.3860  178.8460  143.5910 C   0  0  0  0  0  3  0  0  0  0  0  0
  182.7770  178.7890  143.7060 C   0  0  0  0  0  3  0  0  0  0  0  0
  1 12  1  0  0  0  0
  2 16  2  0  0  0  0
  2  6  1  0  0  0  0
  3 16  1  0  0  0  0
  4 13  1  0  0  0  0
  6 18  2  0  0  0  0
  7 13  2  0  0  0  0
  8 10  1  0  0  0  0
  9  7  1  0  0  0  0
 10 17  1  0  0  0  0
 11  9  2  0  0  0  0
 11 14  1  0  0  0  0
 12  2  1  0  0  0  0
 13  5  1  0  0  0  0
 14  4  2  0  0  0  0
 15  1  1  0  0  0  0
 15 21  1  0  0  0  0
 16 11  1  0  0  0  0
 18 14  1  0  0  0  0
 19 20  1  0  0  0  0
 19 10  2  0  0  0  0
 20 15  2  0  0  0  0
 21 17  1  6  0  0  0
 21  3  1  0  0  0  0
 22 26  1  0  0  0  0
 23 12  1  0  0  0  0
 23 27  1  0  0  0  0
 24 23  2  0  0  0  0
 25 24  1  0  0  0  0
 25 22  2  0  0  0  0
 26 27  2  0  0  0  0
M  END
>  <MODEL>
1

>  <REMARK>
 VINA RESULT:     -10.2      0.000      0.000
  Name = 
  1 active torsions:
  status: ('A' for Active; 'I' for Inactive)
    1  A    between atoms: C_9  and  N_15
                            x       y       z     vdW  Elec       q    Type
                         _______ _______ _______ _____ _____    ______ ____

>  <TORSDO>
F 1

$$$$
=
 OpenBabel10272401123D

 27 31  0  0  1  0  0  0  0  0999 V2000
  186.4790  178.5750  139.9210 N   0  0  0  0  0  2  0  0  0  0  0  0
  185.7070  178.7210  142.3100 C   0  0  0  0  0  0  0  0  0  0  0  0
  187.5800  177.1490  142.2190 N   0  0  0  0  0  2  0  0  0  0  0  0
  185.9610  178.9310  146.4610 C   0  0  0  0  0  3  0  0  0  0  0  0
  186.9560  178.2290  148.5100 F   0  0  0  0  0  0  0  0  0  0  0  0
  184.9080  179.5390  143.0540 N   0  0  0  0  0  0  0  0  0  0  0  0
  187.7420  177.2880  146.4660 C   0  0  0  0  0  3  0  0  0  0  0  0
  192.3480  177.2030  140.0960 Cl  0  0  0  0  0  0  0  0  0  0  0  0
  187.6740  177.2040  145.0730 C   0  0  0  0  0  3  0  0  0  0  0  0
  190.6280  177.5290  140.0580 C   0  0  0  0  0  0  0  0  0  0  0  0
  186.7440  177.9800  144.3640 C   0  0  0  0  0  0  0  0  0  0  0  0
  185.4550  178.5840  140.8940 N   0  0  0  0  0  0  0  0  0  0  0  0
  186.8870  178.1490  147.1600 C   0  0  0  0  0  0  0  0  0  0  0  0
  185.8890  178.8480  145.0680 C   0  0  0  0  0  0  0  0  0  0  0  0
  187.8780  178.2950  140.0680 C   0  0  0  0  0  0  0  0  0  0  0  0
  186.6600  177.9320  142.9670 C   0  0  0  0  0  0  0  0  0  0  0  0
  189.7330  176.9380  141.1080 C   0  0  0  0  0  2  0  0  0  0  0  0
  185.0000  179.6080  144.3840 N   0  0  0  0  0  0  0  0  0  0  0  0
  190.1070  178.2200  139.0420 C   0  0  0  0  0  3  0  0  0  0  0  0
  188.6620  178.5110  139.0040 C   0  0  0  0  0  3  0  0  0  0  0  0
  188.5180  177.8380  141.3610 C   0  0  2  0  0  3  0  0  0  0  0  0
  181.4670  178.6000  139.4090 C   0  0  0  0  0  3  0  0  0  0  0  0
  184.0950  178.5970  140.4100 C   0  0  0  0  0  0  0  0  0  0  0  0
  183.1590  177.6470  140.8540 C   0  0  0  0  0  3  0  0  0  0  0  0
  181.8520  177.6510  140.3590 C   0  0  0  0  0  3  0  0  0  0  0  0
  182.3900  179.5430  138.9510 C   0  0  0  0  0  3  0  0  0  0  0  0
  183.6970  179.5380  139.4460 C   0  0  0  0  0  3  0  0  0  0  0  0
  1 15  1  0  0  0  0
  1 12  1  0  0  0  0
  2 16  2  0  0  0  0
  2  6  1  0  0  0  0
  3 16  1  0  0  0  0
  4 13  1  0  0  0  0
  6 18  2  0  0  0  0
  7 13  2  0  0  0  0
  9  7  1  0  0  0  0
 10  8  1  0  0  0  0
 10 17  1  0  0  0  0
 11 14  1  0  0  0  0
 11  9  2  0  0  0  0
 12  2  1  0  0  0  0
 13  5  1  0  0  0  0
 14  4  2  0  0  0  0
 15 21  1  0  0  0  0
 16 11  1  0  0  0  0
 18 14  1  0  0  0  0
 19 10  2  0  0  0  0
 20 19  1  0  0  0  0
 20 15  2  0  0  0  0
 21 17  1  6  0  0  0
 21  3  1  0  0  0  0
 22 25  1  0  0  0  0
 23 24  1  0  0  0  0
 23 12  1  0  0  0  0
 25 24  2  0  0  0  0
 26 22  2  0  0  0  0
 26 27  1  0  0  0  0
 27 23  2  0  0  0  0
M  END
>  <MODEL>
2

>  <REMARK>
 VINA RESULT:      -9.8      1.486      1.982
  Name = 
  1 active torsions:
  status: ('A' for Active; 'I' for Inactive)
    1  A    between atoms: C_9  and  N_15
                            x       y       z     vdW  Elec       q    Type
                         _______ _______ _______ _____ _____    ______ ____

>  <TORSDO>
F 1

$$$$
=
 OpenBabel10272401123D

 27 31  0  0  1  0  0  0  0  0999 V2000
  187.4490  178.3210  142.0130 N   0  0  0  0  0  2  0  0  0  0  0  0
  188.4150  177.7770  144.2700 C   0  0  0  0  0  0  0  0  0  0  0  0
  189.4240  176.2620  142.6360 N   0  0  0  0  0  2  0  0  0  0  0  0
  191.2720  176.7560  147.1220 C   0  0  0  0  0  3  0  0  0  0  0  0
  193.1620  175.4640  147.7850 F   0  0  0  0  0  0  0  0  0  0  0  0
  188.4600  178.3570  145.5040 N   0  0  0  0  0  0  0  0  0  0  0  0
  192.2590  175.1480  145.6020 C   0  0  0  0  0  3  0  0  0  0  0  0
  191.6490  176.8370  137.9490 Cl  0  0  0  0  0  0  0  0  0  0  0  0
  191.3100  175.4760  144.6310 C   0  0  0  0  0  3  0  0  0  0  0  0
  190.4110  177.1950  139.1330 C   0  0  0  0  0  0  0  0  0  0  0  0
  190.3310  176.4450  144.9010 C   0  0  0  0  0  0  0  0  0  0  0  0
  187.3030  178.0660  143.3940 N   0  0  0  0  0  0  0  0  0  0  0  0
  192.2400  175.7850  146.8460 C   0  0  0  0  0  0  0  0  0  0  0  0
  190.3200  177.0870  146.1540 C   0  0  0  0  0  0  0  0  0  0  0  0
  188.5260  177.9820  141.1290 C   0  0  0  0  0  0  0  0  0  0  0  0
  189.3750  176.8100  143.9450 C   0  0  0  0  0  0  0  0  0  0  0  0
  190.2840  176.3420  140.3620 C   0  0  0  0  0  2  0  0  0  0  0  0
  189.3840  178.0320  146.4110 N   0  0  0  0  0  0  0  0  0  0  0  0
  189.5250  178.1650  138.8940 C   0  0  0  0  0  3  0  0  0  0  0  0
  188.4840  178.4840  139.8890 C   0  0  0  0  0  3  0  0  0  0  0  0
  189.7260  177.1530  141.5370 C   0  0  2  0  0  3  0  0  0  0  0  0
  183.4360  178.6640  145.0690 C   0  0  0  0  0  3  0  0  0  0  0  0
  185.9850  178.2490  143.9550 C   0  0  0  0  0  0  0  0  0  0  0  0
  184.8680  178.4630  143.1280 C   0  0  0  0  0  3  0  0  0  0  0  0
  183.6010  178.6650  143.6820 C   0  0  0  0  0  3  0  0  0  0  0  0
  184.5390  178.4630  145.9030 C   0  0  0  0  0  3  0  0  0  0  0  0
  185.8060  178.2610  145.3490 C   0  0  0  0  0  3  0  0  0  0  0  0
  1 12  1  0  0  0  0
  2  6  1  0  0  0  0
  3 16  1  0  0  0  0
  6 18  2  0  0  0  0
  7 13  2  0  0  0  0
  8 10  1  0  0  0  0
  9 11  2  0  0  0  0
  9  7  1  0  0  0  0
 10 17  1  0  0  0  0
 11 14  1  0  0  0  0
 12 23  1  0  0  0  0
 12  2  1  0  0  0  0
 13  4  1  0  0  0  0
 13  5  1  0  0  0  0
 14 18  1  0  0  0  0
 14  4  2  0  0  0  0
 15 21  1  0  0  0  0
 15  1  1  0  0  0  0
 16  2  2  0  0  0  0
 16 11  1  0  0  0  0
 19 10  2  0  0  0  0
 19 20  1  0  0  0  0
 20 15  2  0  0  0  0
 21 17  1  6  0  0  0
 21  3  1  0  0  0  0
 22 26  1  0  0  0  0
 23 27  1  0  0  0  0
 24 25  1  0  0  0  0
 24 23  2  0  0  0  0
 25 22  2  0  0  0  0
 27 26  2  0  0  0  0
M  END
>  <MODEL>
3

>  <REMARK>
 VINA RESULT:      -9.8      2.457      3.305
  Name = 
  1 active torsions:
  status: ('A' for Active; 'I' for Inactive)
    1  A    between atoms: C_9  and  N_15
                            x       y       z     vdW  Elec       q    Type
                         _______ _______ _______ _____ _____    ______ ____

>  <TORSDO>
F 1

$$$$
=
 OpenBabel10272401123D

 27 31  0  0  1  0  0  0  0  0999 V2000
  187.5540  178.3030  140.8100 N   0  0  0  0  0  2  0  0  0  0  0  0
  188.3960  177.8170  143.1300 C   0  0  0  0  0  0  0  0  0  0  0  0
  189.4370  176.2160  141.6010 N   0  0  0  0  0  2  0  0  0  0  0  0
  191.0860  176.8270  146.1500 C   0  0  0  0  0  3  0  0  0  0  0  0
  192.9040  175.5100  146.9500 F   0  0  0  0  0  0  0  0  0  0  0  0
  188.4000  178.4420  144.3430 N   0  0  0  0  0  0  0  0  0  0  0  0
  192.0970  175.1370  144.7380 C   0  0  0  0  0  3  0  0  0  0  0  0
  191.8960  176.5550  137.0090 Cl  0  0  0  0  0  0  0  0  0  0  0  0
  191.2040  175.4550  143.7110 C   0  0  0  0  0  3  0  0  0  0  0  0
  190.6140  176.9910  138.1190 C   0  0  0  0  0  0  0  0  0  0  0  0
  190.2410  176.4590  143.8990 C   0  0  0  0  0  0  0  0  0  0  0  0
  187.3350  178.1040  142.1910 N   0  0  0  0  0  0  0  0  0  0  0  0
  192.0370  175.8210  145.9560 C   0  0  0  0  0  0  0  0  0  0  0  0
  190.1900  177.1470  145.1260 C   0  0  0  0  0  0  0  0  0  0  0  0
  188.6610  177.9020  139.9920 C   0  0  0  0  0  0  0  0  0  0  0  0
  189.3420  176.8140  142.8860 C   0  0  0  0  0  0  0  0  0  0  0  0
  190.4050  176.1870  139.3690 C   0  0  0  0  0  2  0  0  0  0  0  0
  189.2710  178.1260  145.3040 N   0  0  0  0  0  0  0  0  0  0  0  0
  189.7690  177.9740  137.8020 C   0  0  0  0  0  3  0  0  0  0  0  0
  188.6920  178.3580  138.7340 C   0  0  0  0  0  3  0  0  0  0  0  0
  189.8160  177.0570  140.4860 C   0  0  2  0  0  3  0  0  0  0  0  0
  183.3750  178.7500  143.6080 C   0  0  0  0  0  3  0  0  0  0  0  0
  185.9980  178.3420  142.6810 C   0  0  0  0  0  0  0  0  0  0  0  0
  185.6880  178.1890  144.0440 C   0  0  0  0  0  3  0  0  0  0  0  0
  184.3850  178.3960  144.5040 C   0  0  0  0  0  3  0  0  0  0  0  0
  183.6670  178.8950  142.2490 C   0  0  0  0  0  3  0  0  0  0  0  0
  184.9700  178.6880  141.7890 C   0  0  0  0  0  3  0  0  0  0  0  0
  1 12  1  0  0  0  0
  2  6  1  0  0  0  0
  3 16  1  0  0  0  0
  6 18  2  0  0  0  0
  7 13  2  0  0  0  0
  8 10  1  0  0  0  0
  9 11  2  0  0  0  0
  9  7  1  0  0  0  0
 10 17  1  0  0  0  0
 11 14  1  0  0  0  0
 12 23  1  0  0  0  0
 12  2  1  0  0  0  0
 13  4  1  0  0  0  0
 13  5  1  0  0  0  0
 14 18  1  0  0  0  0
 14  4  2  0  0  0  0
 15 21  1  0  0  0  0
 15  1  1  0  0  0  0
 16  2  2  0  0  0  0
 16 11  1  0  0  0  0
 19 10  2  0  0  0  0
 19 20  1  0  0  0  0
 20 15  2  0  0  0  0
 21 17  1  6  0  0  0
 21  3  1  0  0  0  0
 22 25  1  0  0  0  0
 23 24  1  0  0  0  0
 24 25  2  0  0  0  0
 26 22  2  0  0  0  0
 27 26  1  0  0  0  0
 27 23  2  0  0  0  0
M  END
>  <MODEL>
4

>  <REMARK>
 VINA RESULT:      -9.1      2.505      3.516
  Name = 
  1 active torsions:
  status: ('A' for Active; 'I' for Inactive)
    1  A    between atoms: C_9  and  N_15
                            x       y       z     vdW  Elec       q    Type
                         _______ _______ _______ _____ _____    ______ ____

>  <TORSDO>
F 1

$$$$
=
 OpenBabel10272401123D

 27 31  0  0  1  0  0  0  0  0999 V2000
  188.6250  177.8050  146.0500 N   0  0  0  0  0  2  0  0  0  0  0  0
  190.2150  177.5030  144.1250 C   0  0  0  0  0  0  0  0  0  0  0  0
  187.9800  176.8650  143.3610 N   0  0  0  0  0  2  0  0  0  0  0  0
  191.6280  177.6050  140.2090 C   0  0  0  0  0  3  0  0  0  0  0  0
  191.2720  177.2880  137.8740 F   0  0  0  0  0  0  0  0  0  0  0  0
  191.4900  177.8760  143.8140 N   0  0  0  0  0  0  0  0  0  0  0  0
  189.4760  176.8600  139.3810 C   0  0  0  0  0  3  0  0  0  0  0  0
  183.2280  179.0060  143.6420 Cl  0  0  0  0  0  0  0  0  0  0  0  0
  188.9820  176.8200  140.6870 C   0  0  0  0  0  3  0  0  0  0  0  0
  184.7840  178.5850  144.3270 C   0  0  0  0  0  0  0  0  0  0  0  0
  189.8100  177.1680  141.7660 C   0  0  0  0  0  0  0  0  0  0  0  0
  189.8450  177.3400  145.5120 N   0  0  0  0  0  0  0  0  0  0  0  0
  190.7970  177.2510  139.1420 C   0  0  0  0  0  0  0  0  0  0  0  0
  191.1380  177.5650  141.5180 C   0  0  0  0  0  0  0  0  0  0  0  0
  187.3960  178.1290  145.3840 C   0  0  0  0  0  0  0  0  0  0  0  0
  189.3430  177.1550  143.0850 C   0  0  0  0  0  0  0  0  0  0  0  0
  185.6830  177.6260  143.6020 C   0  0  0  0  0  2  0  0  0  0  0  0
  191.9340  177.9150  142.5560 N   0  0  0  0  0  0  0  0  0  0  0  0
  185.1230  179.0420  145.5340 C   0  0  0  0  0  3  0  0  0  0  0  0
  186.4340  178.7030  146.1170 C   0  0  0  0  0  3  0  0  0  0  0  0
  187.1560  177.9220  143.9040 C   0  0  2  0  0  3  0  0  0  0  0  0
  192.7320  175.7880  148.2270 C   0  0  0  0  0  3  0  0  0  0  0  0
  190.8080  176.8060  146.4460 C   0  0  0  0  0  0  0  0  0  0  0  0
  190.9970  177.3950  147.7080 C   0  0  0  0  0  3  0  0  0  0  0  0
  191.9510  176.8860  148.5940 C   0  0  0  0  0  3  0  0  0  0  0  0
  192.5620  175.2000  146.9710 C   0  0  0  0  0  3  0  0  0  0  0  0
  191.6080  175.7090  146.0850 C   0  0  0  0  0  3  0  0  0  0  0  0
  2 12  1  0  0  0  0
  3 21  1  0  0  0  0
  4 14  1  0  0  0  0
  5 13  1  0  0  0  0
  6  2  1  0  0  0  0
  7  9  2  0  0  0  0
  8 10  1  0  0  0  0
  9 11  1  0  0  0  0
 10 19  2  0  0  0  0
 11 16  1  0  0  0  0
 12  1  1  0  0  0  0
 12 23  1  0  0  0  0
 13  7  1  0  0  0  0
 13  4  2  0  0  0  0
 14 11  2  0  0  0  0
 14 18  1  0  0  0  0
 15  1  1  0  0  0  0
 15 20  2  0  0  0  0
 16  3  1  0  0  0  0
 16  2  2  0  0  0  0
 17 10  1  0  0  0  0
 18  6  2  0  0  0  0
 19 20  1  0  0  0  0
 21 17  1  1  0  0  0
 21 15  1  0  0  0  0
 22 25  1  0  0  0  0
 23 24  1  0  0  0  0
 24 25  2  0  0  0  0
 26 22  2  0  0  0  0
 27 23  2  0  0  0  0
 27 26  1  0  0  0  0
M  END
>  <MODEL>
5

>  <REMARK>
 VINA RESULT:      -9.1      3.837      7.962
  Name = 
  1 active torsions:
  status: ('A' for Active; 'I' for Inactive)
    1  A    between atoms: C_9  and  N_15
                            x       y       z     vdW  Elec       q    Type
                         _______ _______ _______ _____ _____    ______ ____

>  <TORSDO>
F 1

$$$$
=
 OpenBabel10272401123D

 27 31  0  0  1  0  0  0  0  0999 V2000
  188.1000  177.3250  141.8850 N   0  0  0  0  0  2  0  0  0  0  0  0
  190.1060  176.5250  143.1730 C   0  0  0  0  0  0  0  0  0  0  0  0
  188.9090  178.1360  144.5710 N   0  0  0  0  0  2  0  0  0  0  0  0
  192.3660  175.2380  146.4250 C   0  0  0  0  0  3  0  0  0  0  0  0
  192.9660  175.4130  148.7250 F   0  0  0  0  0  0  0  0  0  0  0  0
  191.0130  175.5090  143.0810 N   0  0  0  0  0  0  0  0  0  0  0  0
  191.3100  176.8890  147.8510 C   0  0  0  0  0  3  0  0  0  0  0  0
  183.9280  178.8280  145.9710 Cl  0  0  0  0  0  0  0  0  0  0  0  0
  190.5410  177.3350  146.7720 C   0  0  0  0  0  3  0  0  0  0  0  0
  185.1730  178.4570  144.7970 C   0  0  0  0  0  0  0  0  0  0  0  0
  190.6840  176.7380  145.5100 C   0  0  0  0  0  0  0  0  0  0  0  0
  189.4760  177.0200  141.9700 N   0  0  0  0  0  0  0  0  0  0  0  0
  192.2220  175.8430  147.6780 C   0  0  0  0  0  0  0  0  0  0  0  0
  191.6000  175.6820  145.3440 C   0  0  0  0  0  0  0  0  0  0  0  0
  187.1590  177.6100  142.9290 C   0  0  0  0  0  0  0  0  0  0  0  0
  189.9180  177.1490  144.4120 C   0  0  0  0  0  0  0  0  0  0  0  0
  186.6140  178.7150  145.1310 C   0  0  0  0  0  2  0  0  0  0  0  0
  191.7280  175.0960  144.1290 N   0  0  0  0  0  0  0  0  0  0  0  0
  184.8310  178.0380  143.5770 C   0  0  0  0  0  3  0  0  0  0  0  0
  185.8700  177.7120  142.5830 C   0  0  0  0  0  3  0  0  0  0  0  0
  187.5310  177.7340  144.3910 C   0  0  2  0  0  3  0  0  0  0  0  0
  191.7430  177.1460  138.3710 C   0  0  0  0  0  3  0  0  0  0  0  0
  190.2360  177.0830  140.7440 C   0  0  0  0  0  0  0  0  0  0  0  0
  189.6160  176.8930  139.4970 C   0  0  0  0  0  3  0  0  0  0  0  0
  190.3650  176.9290  138.3180 C   0  0  0  0  0  3  0  0  0  0  0  0
  192.3740  177.3240  139.6050 C   0  0  0  0  0  3  0  0  0  0  0  0
  191.6250  177.2880  140.7840 C   0  0  0  0  0  3  0  0  0  0  0  0
  1 12  1  0  0  0  0
  1 15  1  0  0  0  0
  2 16  1  0  0  0  0
  4 13  2  0  0  0  0
  6  2  2  0  0  0  0
  6 18  1  0  0  0  0
  9  7  2  0  0  0  0
 10 17  1  0  0  0  0
 10  8  1  0  0  0  0
 11  9  1  0  0  0  0
 12  2  1  0  0  0  0
 13  7  1  0  0  0  0
 13  5  1  0  0  0  0
 14 11  1  0  0  0  0
 14  4  1  0  0  0  0
 15 21  1  0  0  0  0
 16  3  1  0  0  0  0
 16 11  2  0  0  0  0
 18 14  2  0  0  0  0
 19 10  2  0  0  0  0
 20 15  2  0  0  0  0
 20 19  1  0  0  0  0
 21  3  1  0  0  0  0
 21 17  1  6  0  0  0
 22 26  1  0  0  0  0
 23 27  1  0  0  0  0
 23 12  1  0  0  0  0
 24 23  2  0  0  0  0
 25 22  2  0  0  0  0
 25 24  1  0  0  0  0
 26 27  2  0  0  0  0
M  END
>  <MODEL>
6

>  <REMARK>
 VINA RESULT:      -8.9      3.265      6.406
  Name = 
  1 active torsions:
  status: ('A' for Active; 'I' for Inactive)
    1  A    between atoms: C_9  and  N_15
                            x       y       z     vdW  Elec       q    Type
                         _______ _______ _______ _____ _____    ______ ____

>  <TORSDO>
F 1

$$$$
=
 OpenBabel10272401123D

 27 31  0  0  1  0  0  0  0  0999 V2000
  188.3150  177.4180  142.8770 N   0  0  0  0  0  2  0  0  0  0  0  0
  185.9020  178.0730  142.6060 C   0  0  0  0  0  0  0  0  0  0  0  0
  187.1560  179.0380  140.7410 N   0  0  0  0  0  2  0  0  0  0  0  0
  182.2830  178.8430  140.6960 C   0  0  0  0  0  3  0  0  0  0  0  0
  181.0680  179.7530  138.8590 F   0  0  0  0  0  0  0  0  0  0  0  0
  184.7000  177.6980  143.1320 N   0  0  0  0  0  0  0  0  0  0  0  0
  183.4450  179.9220  138.8630 C   0  0  0  0  0  3  0  0  0  0  0  0
  190.6730  177.2390  137.3290 Cl  0  0  0  0  0  0  0  0  0  0  0  0
  184.6700  179.6720  139.4880 C   0  0  0  0  0  3  0  0  0  0  0  0
  189.9960  177.3650  138.9390 C   0  0  0  0  0  0  0  0  0  0  0  0
  184.7100  179.0100  140.7240 C   0  0  0  0  0  0  0  0  0  0  0  0
  187.1000  177.9130  143.3990 N   0  0  0  0  0  0  0  0  0  0  0  0
  182.2530  179.5090  139.4670 C   0  0  0  0  0  0  0  0  0  0  0  0
  183.5070  178.5920  141.3240 C   0  0  0  0  0  0  0  0  0  0  0  0
  188.7700  177.3570  141.5170 C   0  0  0  0  0  0  0  0  0  0  0  0
  185.9200  178.7290  141.3690 C   0  0  0  0  0  0  0  0  0  0  0  0
  188.9550  178.4080  139.2310 C   0  0  0  0  0  2  0  0  0  0  0  0
  183.5440  177.9400  142.5110 N   0  0  0  0  0  0  0  0  0  0  0  0
  190.4750  176.6010  139.9220 C   0  0  0  0  0  3  0  0  0  0  0  0
  189.9060  176.6900  141.2790 C   0  0  0  0  0  3  0  0  0  0  0  0
  188.0110  177.9410  140.3450 C   0  0  2  0  0  3  0  0  0  0  0  0
  186.8820  178.5060  147.6070 C   0  0  0  0  0  3  0  0  0  0  0  0
  187.0420  178.1290  144.8250 C   0  0  0  0  0  0  0  0  0  0  0  0
  188.0530  177.6430  145.6730 C   0  0  0  0  0  3  0  0  0  0  0  0
  187.9740  177.8340  147.0550 C   0  0  0  0  0  3  0  0  0  0  0  0
  185.8650  178.9850  146.7770 C   0  0  0  0  0  3  0  0  0  0  0  0
  185.9440  178.7930  145.3950 C   0  0  0  0  0  3  0  0  0  0  0  0
  1 12  1  0  0  0  0
  2  6  1  0  0  0  0
  2 12  1  0  0  0  0
  3 16  1  0  0  0  0
  4 14  1  0  0  0  0
  5 13  1  0  0  0  0
  7 13  1  0  0  0  0
  7  9  2  0  0  0  0
  8 10  1  0  0  0  0
  9 11  1  0  0  0  0
 10 17  1  0  0  0  0
 10 19  2  0  0  0  0
 11 14  2  0  0  0  0
 11 16  1  0  0  0  0
 12 23  1  0  0  0  0
 13  4  2  0  0  0  0
 14 18  1  0  0  0  0
 15  1  1  0  0  0  0
 16  2  2  0  0  0  0
 18  6  2  0  0  0  0
 19 20  1  0  0  0  0
 20 15  2  0  0  0  0
 21 17  1  6  0  0  0
 21  3  1  0  0  0  0
 21 15  1  0  0  0  0
 23 27  2  0  0  0  0
 23 24  1  0  0  0  0
 24 25  2  0  0  0  0
 25 22  1  0  0  0  0
 26 22  2  0  0  0  0
 27 26  1  0  0  0  0
M  END
>  <MODEL>
7

>  <REMARK>
 VINA RESULT:      -8.8      2.999      5.961
  Name = 
  1 active torsions:
  status: ('A' for Active; 'I' for Inactive)
    1  A    between atoms: C_9  and  N_15
                            x       y       z     vdW  Elec       q    Type
                         _______ _______ _______ _____ _____    ______ ____

>  <TORSDO>
F 1

$$$$
=
 OpenBabel10272401123D

 27 31  0  0  1  0  0  0  0  0999 V2000
  185.1480  178.1770  141.0230 N   0  0  0  0  0  2  0  0  0  0  0  0
  186.8820  177.7480  142.7930 C   0  0  0  0  0  0  0  0  0  0  0  0
  185.2010  179.2540  143.7370 N   0  0  0  0  0  2  0  0  0  0  0  0
  188.4630  176.9910  146.5700 C   0  0  0  0  0  3  0  0  0  0  0  0
  188.4840  177.3860  148.9200 F   0  0  0  0  0  0  0  0  0  0  0  0
  187.9040  176.8680  142.9980 N   0  0  0  0  0  0  0  0  0  0  0  0
  186.9080  178.5570  147.5690 C   0  0  0  0  0  3  0  0  0  0  0  0
  179.9850  179.3150  143.9240 Cl  0  0  0  0  0  0  0  0  0  0  0  0
  186.3620  178.8250  146.3110 C   0  0  0  0  0  3  0  0  0  0  0  0
  181.5050  179.0550  143.0950 C   0  0  0  0  0  0  0  0  0  0  0  0
  186.8680  178.1800  145.1710 C   0  0  0  0  0  0  0  0  0  0  0  0
  186.4930  178.0760  141.4410 N   0  0  0  0  0  0  0  0  0  0  0  0
  187.9570  177.6430  147.6990 C   0  0  0  0  0  0  0  0  0  0  0  0
  187.9210  177.2570  145.3090 C   0  0  0  0  0  0  0  0  0  0  0  0
  183.9620  178.3880  141.8020 C   0  0  0  0  0  0  0  0  0  0  0  0
  186.3340  178.4120  143.8980 C   0  0  0  0  0  0  0  0  0  0  0  0
  182.7850  179.5340  143.7170 C   0  0  0  0  0  2  0  0  0  0  0  0
  188.4010  176.6230  144.2120 N   0  0  0  0  0  0  0  0  0  0  0  0
  181.5110  178.5200  141.8720 C   0  0  0  0  0  3  0  0  0  0  0  0
  182.7860  178.2860  141.1690 C   0  0  0  0  0  3  0  0  0  0  0  0
  183.9640  178.6510  143.2920 C   0  0  2  0  0  3  0  0  0  0  0  0
  189.4840  178.2960  138.4210 C   0  0  0  0  0  3  0  0  0  0  0  0
  187.5040  178.1730  140.4140 C   0  0  0  0  0  0  0  0  0  0  0  0
  187.1520  178.3660  139.0670 C   0  0  0  0  0  3  0  0  0  0  0  0
  188.1370  178.4310  138.0770 C   0  0  0  0  0  3  0  0  0  0  0  0
  189.8460  178.0920  139.7550 C   0  0  0  0  0  3  0  0  0  0  0  0
  188.8610  178.0270  140.7440 C   0  0  0  0  0  3  0  0  0  0  0  0
  1 12  1  0  0  0  0
  1 15  1  0  0  0  0
  2  6  2  0  0  0  0
  2 16  1  0  0  0  0
  3 16  1  0  0  0  0
  4 13  2  0  0  0  0
  6 18  1  0  0  0  0
  7 13  1  0  0  0  0
  9  7  2  0  0  0  0
 10 17  1  0  0  0  0
 10  8  1  0  0  0  0
 11 14  1  0  0  0  0
 11  9  1  0  0  0  0
 12  2  1  0  0  0  0
 13  5  1  0  0  0  0
 14  4  1  0  0  0  0
 15 21  1  0  0  0  0
 16 11  2  0  0  0  0
 18 14  2  0  0  0  0
 19 10  2  0  0  0  0
 20 15  2  0  0  0  0
 20 19  1  0  0  0  0
 21 17  1  6  0  0  0
 21  3  1  0  0  0  0
 22 26  1  0  0  0  0
 23 27  1  0  0  0  0
 23 12  1  0  0  0  0
 24 23  2  0  0  0  0
 25 22  2  0  0  0  0
 25 24  1  0  0  0  0
 26 27  2  0  0  0  0
M  END
>  <MODEL>
8

>  <REMARK>
 VINA RESULT:      -8.7      2.553      5.450
  Name = 
  1 active torsions:
  status: ('A' for Active; 'I' for Inactive)
    1  A    between atoms: C_9  and  N_15
                            x       y       z     vdW  Elec       q    Type
                         _______ _______ _______ _____ _____    ______ ____

>  <TORSDO>
F 1

$$$$
=
 OpenBabel10272401123D

 27 31  0  0  1  0  0  0  0  0999 V2000
  190.0650  177.6270  141.8180 N   0  0  0  0  0  2  0  0  0  0  0  0
  187.6340  178.2700  141.7680 C   0  0  0  0  0  0  0  0  0  0  0  0
  188.0110  176.9120  143.7670 N   0  0  0  0  0  2  0  0  0  0  0  0
  183.9190  179.5010  143.1880 C   0  0  0  0  0  3  0  0  0  0  0  0
  182.2050  179.4140  144.8430 F   0  0  0  0  0  0  0  0  0  0  0  0
  186.8500  179.1620  141.0960 N   0  0  0  0  0  0  0  0  0  0  0  0
  184.1640  178.0890  145.1420 C   0  0  0  0  0  3  0  0  0  0  0  0
  191.5290  176.9130  147.6240 Cl  0  0  0  0  0  0  0  0  0  0  0  0
  185.4140  177.6640  144.6840 C   0  0  0  0  0  3  0  0  0  0  0  0
  191.0730  177.0520  145.9390 C   0  0  0  0  0  0  0  0  0  0  0  0
  185.9230  178.1510  143.4700 C   0  0  0  0  0  0  0  0  0  0  0  0
  188.8350  177.7720  141.1380 N   0  0  0  0  0  0  0  0  0  0  0  0
  183.4170  179.0050  144.3960 C   0  0  0  0  0  0  0  0  0  0  0  0
  185.1680  179.0770  142.7260 C   0  0  0  0  0  0  0  0  0  0  0  0
  190.3260  177.5270  143.2240 C   0  0  0  0  0  0  0  0  0  0  0  0
  187.1780  177.7590  142.9890 C   0  0  0  0  0  0  0  0  0  0  0  0
  189.6940  176.6490  145.5040 C   0  0  0  0  0  2  0  0  0  0  0  0
  185.6640  179.5590  141.5610 N   0  0  0  0  0  0  0  0  0  0  0  0
  191.9820  177.4230  145.0340 C   0  0  0  0  0  3  0  0  0  0  0  0
  191.6070  177.5550  143.6140 C   0  0  0  0  0  3  0  0  0  0  0  0
  189.2460  177.4610  144.2830 C   0  0  2  0  0  3  0  0  0  0  0  0
  188.8710  177.0100  136.9510 C   0  0  0  0  0  3  0  0  0  0  0  0
  188.8450  177.5350  139.7140 C   0  0  0  0  0  0  0  0  0  0  0  0
  187.6690  177.6470  138.9530 C   0  0  0  0  0  3  0  0  0  0  0  0
  187.6830  177.3900  137.5790 C   0  0  0  0  0  3  0  0  0  0  0  0
  190.0450  176.8840  137.6980 C   0  0  0  0  0  3  0  0  0  0  0  0
  190.0310  177.1410  139.0720 C   0  0  0  0  0  3  0  0  0  0  0  0
  1 15  1  0  0  0  0
  2 16  1  0  0  0  0
  3 21  1  0  0  0  0
  4 13  2  0  0  0  0
  6 18  1  0  0  0  0
  6  2  2  0  0  0  0
  9  7  2  0  0  0  0
 10  8  1  0  0  0  0
 11  9  1  0  0  0  0
 12  2  1  0  0  0  0
 12  1  1  0  0  0  0
 13  5  1  0  0  0  0
 13  7  1  0  0  0  0
 14  4  1  0  0  0  0
 14 11  1  0  0  0  0
 15 20  2  0  0  0  0
 15 21  1  0  0  0  0
 16 11  2  0  0  0  0
 16  3  1  0  0  0  0
 17 10  1  0  0  0  0
 18 14  2  0  0  0  0
 19 10  2  0  0  0  0
 20 19  1  0  0  0  0
 21 17  1  1  0  0  0
 22 25  2  0  0  0  0
 22 26  1  0  0  0  0
 23 12  1  0  0  0  0
 24 23  2  0  0  0  0
 25 24  1  0  0  0  0
 26 27  2  0  0  0  0
 27 23  1  0  0  0  0
M  END
>  <MODEL>
9

>  <REMARK>
 VINA RESULT:      -8.7      3.016      5.691
  Name = 
  1 active torsions:
  status: ('A' for Active; 'I' for Inactive)
    1  A    between atoms: C_9  and  N_15
                            x       y       z     vdW  Elec       q    Type
                         _______ _______ _______ _____ _____    ______ ____

>  <TORSDO>
F 1

$$$$
