=
 OpenBabel10272400423D

 25 27  0  0  0  0  0  0  0  0999 V2000
  185.6660  178.4390  145.3210 C   0  0  0  0  0  0  0  0  0  0  0  0
  185.9110  178.4010  143.9340 C   0  0  0  0  0  0  0  0  0  0  0  0
  183.3860  178.9560  144.8870 C   0  0  0  0  0  3  0  0  0  0  0  0
  183.6060  178.9240  143.5480 N   0  0  0  0  0  0  0  0  0  0  0  0
  185.0940  178.6350  141.6770 C   0  0  0  0  0  0  0  0  0  0  0  0
  184.0080  178.8970  140.6910 C   0  0  0  0  0  1  0  0  0  0  0  0
  187.1500  178.1560  143.4310 N   0  0  0  0  0  0  0  0  0  0  0  0
  184.4040  178.7170  145.7540 N   0  0  0  0  0  0  0  0  0  0  0  0
  186.3510  178.3830  141.2270 N   0  0  0  0  0  0  0  0  0  0  0  0
  187.3730  178.1410  142.0900 C   0  0  0  0  0  0  0  0  0  0  0  0
  184.8440  178.6550  143.0550 C   0  0  0  0  0  0  0  0  0  0  0  0
  186.7310  178.1770  146.3220 C   0  0  0  0  0  0  0  0  0  0  0  0
  188.7130  177.6340  148.2060 C   0  0  0  0  0  3  0  0  0  0  0  0
  186.7990  178.8810  147.5430 C   0  0  0  0  0  0  0  0  0  0  0  0
  187.7810  178.5940  148.4400 N   0  0  0  0  0  0  0  0  0  0  0  0
  188.6840  176.9080  147.0170 C   0  0  0  0  0  3  0  0  0  0  0  0
  185.8730  179.9220  147.8430 N   0  0  0  0  0  1  0  0  0  0  0  0
  187.6890  177.1830  146.0790 C   0  0  0  0  0  3  0  0  0  0  0  0
  188.7460  177.8910  141.5670 C   0  0  0  0  0  2  0  0  0  0  0  0
  189.5130  177.0140  142.5130 C   0  0  0  0  0  0  0  0  0  0  0  0
  189.0820  175.8930  142.7450 O   0  0  0  0  0  0  0  0  0  0  0  0
  191.9010  177.5110  142.0880 C   0  0  0  0  0  1  0  0  0  0  0  0
  190.7050  178.8370  143.7840 C   0  0  0  0  0  1  0  0  0  0  0  0
  191.2250  176.4730  144.2230 C   0  0  0  0  0  1  0  0  0  0  0  0
  190.8150  177.4600  143.1460 C   0  0  0  0  0  0  0  0  0  0  0  0
  1  8  1  0  0  0  0
  1 12  1  0  0  0  0
  2  1  2  0  0  0  0
  3  8  2  0  0  0  0
  4  3  1  0  0  0  0
  5 11  1  0  0  0  0
  6  5  1  0  0  0  0
  7  2  1  0  0  0  0
  9  5  2  0  0  0  0
  9 10  1  0  0  0  0
 10  7  2  0  0  0  0
 11  4  2  0  0  0  0
 11  2  1  0  0  0  0
 12 14  1  0  0  0  0
 13 15  1  0  0  0  0
 14 17  1  0  0  0  0
 14 15  2  0  0  0  0
 16 13  2  0  0  0  0
 18 12  2  0  0  0  0
 18 16  1  0  0  0  0
 19 10  1  0  0  0  0
 19 20  1  0  0  0  0
 20 21  2  0  0  0  0
 20 25  1  0  0  0  0
 22 25  1  0  0  0  0
 25 23  1  0  0  0  0
 25 24  1  0  0  0  0
M  END
>  <MODEL>
1

>  <REMARK>
 VINA RESULT:      -8.2      0.000      0.000
  Name = 
  4 active torsions:
  status: ('A' for Active; 'I' for Inactive)
    1  A    between atoms: C_1  and  C_5
    2  A    between atoms: C_6  and  C_15
    3  A    between atoms: C_6  and  C_23
    4  A    between atoms: C_15  and  C_21
                            x       y       z     vdW  Elec       q    Type
                         _______ _______ _______ _____ _____    ______ ____

>  <TORSDO>
F 4

$$$$
=
 OpenBabel10272400423D

 25 27  0  0  0  0  0  0  0  0999 V2000
  183.8090  178.4450  142.5720 C   0  0  0  0  0  0  0  0  0  0  0  0
  184.8910  178.1810  143.4350 C   0  0  0  0  0  0  0  0  0  0  0  0
  182.6130  179.4010  144.3910 C   0  0  0  0  0  3  0  0  0  0  0  0
  183.6470  179.1520  145.2350 N   0  0  0  0  0  0  0  0  0  0  0  0
  185.8480  178.2680  145.6470 C   0  0  0  0  0  0  0  0  0  0  0  0
  185.7940  178.6300  147.0910 C   0  0  0  0  0  1  0  0  0  0  0  0
  186.0180  177.5560  143.0010 N   0  0  0  0  0  0  0  0  0  0  0  0
  182.7000  179.0500  143.0810 N   0  0  0  0  0  0  0  0  0  0  0  0
  186.9530  177.6440  145.1610 N   0  0  0  0  0  0  0  0  0  0  0  0
  187.0450  177.2920  143.8510 C   0  0  0  0  0  0  0  0  0  0  0  0
  184.7790  178.5480  144.7870 C   0  0  0  0  0  0  0  0  0  0  0  0
  183.8430  178.0960  141.1290 C   0  0  0  0  0  0  0  0  0  0  0  0
  183.9200  177.3890  138.4330 C   0  0  0  0  0  3  0  0  0  0  0  0
  184.7610  178.6910  140.2370 C   0  0  0  0  0  0  0  0  0  0  0  0
  184.7700  178.3260  138.9260 N   0  0  0  0  0  0  0  0  0  0  0  0
  182.9980  176.7700  139.2760 C   0  0  0  0  0  3  0  0  0  0  0  0
  185.6630  179.7020  140.6780 N   0  0  0  0  0  1  0  0  0  0  0  0
  182.9660  177.1260  140.6240 C   0  0  0  0  0  3  0  0  0  0  0  0
  188.2610  176.5870  143.3540 C   0  0  0  0  0  2  0  0  0  0  0  0
  189.4170  177.5410  143.2660 C   0  0  0  0  0  0  0  0  0  0  0  0
  189.3240  178.4980  142.5110 O   0  0  0  0  0  0  0  0  0  0  0  0
  191.5180  178.6220  144.0040 C   0  0  0  0  0  1  0  0  0  0  0  0
  190.3370  177.1440  145.5800 C   0  0  0  0  0  1  0  0  0  0  0  0
  191.4630  176.1850  143.6150 C   0  0  0  0  0  1  0  0  0  0  0  0
  190.6620  177.3740  144.1120 C   0  0  0  0  0  0  0  0  0  0  0  0
  1  8  2  0  0  0  0
  1  2  1  0  0  0  0
  2 11  2  0  0  0  0
  3  4  2  0  0  0  0
  5  6  1  0  0  0  0
  7  2  1  0  0  0  0
  7 10  2  0  0  0  0
  8  3  1  0  0  0  0
  9  5  2  0  0  0  0
 10  9  1  0  0  0  0
 11  4  1  0  0  0  0
 11  5  1  0  0  0  0
 12  1  1  0  0  0  0
 13 15  2  0  0  0  0
 13 16  1  0  0  0  0
 14 17  1  0  0  0  0
 14 12  2  0  0  0  0
 15 14  1  0  0  0  0
 16 18  2  0  0  0  0
 18 12  1  0  0  0  0
 19 10  1  0  0  0  0
 20 19  1  0  0  0  0
 20 25  1  0  0  0  0
 21 20  2  0  0  0  0
 22 25  1  0  0  0  0
 24 25  1  0  0  0  0
 25 23  1  0  0  0  0
M  END
>  <MODEL>
2

>  <REMARK>
 VINA RESULT:      -8.2      1.795      5.079
  Name = 
  4 active torsions:
  status: ('A' for Active; 'I' for Inactive)
    1  A    between atoms: C_1  and  C_5
    2  A    between atoms: C_6  and  C_15
    3  A    between atoms: C_6  and  C_23
    4  A    between atoms: C_15  and  C_21
                            x       y       z     vdW  Elec       q    Type
                         _______ _______ _______ _____ _____    ______ ____

>  <TORSDO>
F 4

$$$$
=
 OpenBabel10272400423D

 25 27  0  0  0  0  0  0  0  0999 V2000
  190.2290  177.0190  138.3330 C   0  0  0  0  0  0  0  0  0  0  0  0
  189.6070  177.1270  139.5930 C   0  0  0  0  0  0  0  0  0  0  0  0
  188.6880  178.6020  137.4540 C   0  0  0  0  0  3  0  0  0  0  0  0
  188.0770  178.7160  138.6610 N   0  0  0  0  0  0  0  0  0  0  0  0
  187.8810  178.0880  140.9770 C   0  0  0  0  0  0  0  0  0  0  0  0
  186.7140  178.9900  141.1900 C   0  0  0  0  0  1  0  0  0  0  0  0
  190.0180  176.3940  140.6610 N   0  0  0  0  0  0  0  0  0  0  0  0
  189.7460  177.7640  137.3000 N   0  0  0  0  0  0  0  0  0  0  0  0
  188.3350  177.3340  142.0130 N   0  0  0  0  0  0  0  0  0  0  0  0
  189.3940  176.4960  141.8640 C   0  0  0  0  0  0  0  0  0  0  0  0
  188.5100  177.9960  139.7290 C   0  0  0  0  0  0  0  0  0  0  0  0
  191.3960  176.1300  138.0990 C   0  0  0  0  0  0  0  0  0  0  0  0
  193.6040  174.4980  137.6200 C   0  0  0  0  0  3  0  0  0  0  0  0
  191.2460  174.8090  137.6260 C   0  0  0  0  0  0  0  0  0  0  0  0
  192.3450  174.0370  137.4060 N   0  0  0  0  0  0  0  0  0  0  0  0
  193.8030  175.7980  138.0820 C   0  0  0  0  0  3  0  0  0  0  0  0
  189.9540  174.2500  137.4070 N   0  0  0  0  0  1  0  0  0  0  0  0
  192.6950  176.6100  138.3170 C   0  0  0  0  0  3  0  0  0  0  0  0
  189.8530  175.6650  143.0130 C   0  0  0  0  0  2  0  0  0  0  0  0
  190.8870  176.4040  143.8110 C   0  0  0  0  0  0  0  0  0  0  0  0
  192.0590  176.3040  143.4770 O   0  0  0  0  0  0  0  0  0  0  0  0
  190.6720  178.7490  144.5750 C   0  0  0  0  0  1  0  0  0  0  0  0
  189.0830  177.0780  145.4380 C   0  0  0  0  0  1  0  0  0  0  0  0
  191.4350  177.0100  146.1520 C   0  0  0  0  0  1  0  0  0  0  0  0
  190.5160  177.2950  144.9790 C   0  0  0  0  0  0  0  0  0  0  0  0
  1  2  1  0  0  0  0
  2 11  2  0  0  0  0
  2  7  1  0  0  0  0
  3  4  2  0  0  0  0
  4 11  1  0  0  0  0
  5  6  1  0  0  0  0
  5  9  2  0  0  0  0
  7 10  2  0  0  0  0
  8  3  1  0  0  0  0
  8  1  2  0  0  0  0
 10  9  1  0  0  0  0
 10 19  1  0  0  0  0
 11  5  1  0  0  0  0
 12 18  1  0  0  0  0
 12  1  1  0  0  0  0
 13 16  1  0  0  0  0
 14 12  2  0  0  0  0
 15 13  2  0  0  0  0
 15 14  1  0  0  0  0
 16 18  2  0  0  0  0
 17 14  1  0  0  0  0
 19 20  1  0  0  0  0
 20 25  1  0  0  0  0
 21 20  2  0  0  0  0
 22 25  1  0  0  0  0
 25 23  1  0  0  0  0
 25 24  1  0  0  0  0
M  END
>  <MODEL>
3

>  <REMARK>
 VINA RESULT:      -8.2      3.758      7.326
  Name = 
  4 active torsions:
  status: ('A' for Active; 'I' for Inactive)
    1  A    between atoms: C_1  and  C_5
    2  A    between atoms: C_6  and  C_15
    3  A    between atoms: C_6  and  C_23
    4  A    between atoms: C_15  and  C_21
                            x       y       z     vdW  Elec       q    Type
                         _______ _______ _______ _____ _____    ______ ____

>  <TORSDO>
F 4

$$$$
=
 OpenBabel10272400423D

 25 27  0  0  0  0  0  0  0  0999 V2000
  185.6300  178.5210  142.3240 C   0  0  0  0  0  0  0  0  0  0  0  0
  186.7950  178.3030  141.5620 C   0  0  0  0  0  0  0  0  0  0  0  0
  184.4150  178.9300  140.3220 C   0  0  0  0  0  3  0  0  0  0  0  0
  185.5280  178.7240  139.5740 N   0  0  0  0  0  0  0  0  0  0  0  0
  187.8770  178.2180  139.4080 C   0  0  0  0  0  0  0  0  0  0  0  0
  187.8610  178.3250  137.9220 C   0  0  0  0  0  1  0  0  0  0  0  0
  187.9900  178.0180  142.1430 N   0  0  0  0  0  0  0  0  0  0  0  0
  184.4720  178.8290  141.6760 N   0  0  0  0  0  0  0  0  0  0  0  0
  189.0460  177.9330  140.0400 N   0  0  0  0  0  0  0  0  0  0  0  0
  189.1080  177.8290  141.3930 C   0  0  0  0  0  0  0  0  0  0  0  0
  186.7140  178.4170  140.1630 C   0  0  0  0  0  0  0  0  0  0  0  0
  185.6220  178.4160  143.8060 C   0  0  0  0  0  0  0  0  0  0  0  0
  185.5900  178.1650  146.5830 C   0  0  0  0  0  3  0  0  0  0  0  0
  184.7540  179.1900  144.6060 C   0  0  0  0  0  0  0  0  0  0  0  0
  184.7660  179.0460  145.9590 N   0  0  0  0  0  0  0  0  0  0  0  0
  186.4620  177.3750  145.8350 C   0  0  0  0  0  3  0  0  0  0  0  0
  183.8820  180.1540  144.0220 N   0  0  0  0  0  1  0  0  0  0  0  0
  186.4720  177.5030  144.4470 C   0  0  0  0  0  3  0  0  0  0  0  0
  190.4100  177.5390  142.0580 C   0  0  0  0  0  2  0  0  0  0  0  0
  190.1800  176.9360  143.4140 C   0  0  0  0  0  0  0  0  0  0  0  0
  189.4740  175.9410  143.4950 O   0  0  0  0  0  0  0  0  0  0  0  0
  189.7550  177.9860  145.6150 C   0  0  0  0  0  1  0  0  0  0  0  0
  191.6740  176.4590  145.3890 C   0  0  0  0  0  1  0  0  0  0  0  0
  191.7280  178.6610  144.2940 C   0  0  0  0  0  1  0  0  0  0  0  0
  190.8290  177.4960  144.6630 C   0  0  0  0  0  0  0  0  0  0  0  0
  1 12  1  0  0  0  0
  2  7  1  0  0  0  0
  2  1  2  0  0  0  0
  3  8  2  0  0  0  0
  4 11  2  0  0  0  0
  4  3  1  0  0  0  0
  5  9  2  0  0  0  0
  5 11  1  0  0  0  0
  6  5  1  0  0  0  0
  8  1  1  0  0  0  0
  9 10  1  0  0  0  0
 10 19  1  0  0  0  0
 10  7  2  0  0  0  0
 11  2  1  0  0  0  0
 12 18  2  0  0  0  0
 12 14  1  0  0  0  0
 14 15  2  0  0  0  0
 15 13  1  0  0  0  0
 16 13  2  0  0  0  0
 17 14  1  0  0  0  0
 18 16  1  0  0  0  0
 19 20  1  0  0  0  0
 20 21  2  0  0  0  0
 20 25  1  0  0  0  0
 24 25  1  0  0  0  0
 25 23  1  0  0  0  0
 25 22  1  0  0  0  0
M  END
>  <MODEL>
4

>  <REMARK>
 VINA RESULT:      -7.9      1.596      3.182
  Name = 
  4 active torsions:
  status: ('A' for Active; 'I' for Inactive)
    1  A    between atoms: C_1  and  C_5
    2  A    between atoms: C_6  and  C_15
    3  A    between atoms: C_6  and  C_23
    4  A    between atoms: C_15  and  C_21
                            x       y       z     vdW  Elec       q    Type
                         _______ _______ _______ _____ _____    ______ ____

>  <TORSDO>
F 4

$$$$
=
 OpenBabel10272400423D

 25 27  0  0  0  0  0  0  0  0999 V2000
  189.5370  177.3640  141.3190 C   0  0  0  0  0  0  0  0  0  0  0  0
  188.4170  177.8120  140.5900 C   0  0  0  0  0  0  0  0  0  0  0  0
  190.5000  176.5430  139.3060 C   0  0  0  0  0  3  0  0  0  0  0  0
  189.4270  176.9670  138.5900 N   0  0  0  0  0  0  0  0  0  0  0  0
  187.2650  178.0210  138.4820 C   0  0  0  0  0  0  0  0  0  0  0  0
  187.1690  177.8200  137.0080 C   0  0  0  0  0  1  0  0  0  0  0  0
  187.3620  178.4170  141.1960 N   0  0  0  0  0  0  0  0  0  0  0  0
  190.5470  176.7410  140.6500 N   0  0  0  0  0  0  0  0  0  0  0  0
  186.2380  178.6240  139.1370 N   0  0  0  0  0  0  0  0  0  0  0  0
  186.2810  178.8260  140.4800 C   0  0  0  0  0  0  0  0  0  0  0  0
  188.3880  177.5920  139.2020 C   0  0  0  0  0  0  0  0  0  0  0  0
  189.6560  177.5580  142.7870 C   0  0  0  0  0  0  0  0  0  0  0  0
  189.9340  177.9120  145.5380 C   0  0  0  0  0  3  0  0  0  0  0  0
  189.0060  176.7090  143.7090 C   0  0  0  0  0  0  0  0  0  0  0  0
  189.1590  176.9110  145.0450 N   0  0  0  0  0  0  0  0  0  0  0  0
  190.6010  178.7720  144.6680 C   0  0  0  0  0  3  0  0  0  0  0  0
  188.1530  175.6570  143.2630 N   0  0  0  0  0  1  0  0  0  0  0  0
  190.4600  178.5890  143.2930 C   0  0  0  0  0  3  0  0  0  0  0  0
  185.1290  179.4680  141.1730 C   0  0  0  0  0  2  0  0  0  0  0  0
  184.5420  178.5300  142.1880 C   0  0  0  0  0  0  0  0  0  0  0  0
  184.0460  177.4840  141.7930 O   0  0  0  0  0  0  0  0  0  0  0  0
  185.0270  180.2560  143.8940 C   0  0  0  0  0  1  0  0  0  0  0  0
  183.2360  178.6280  144.3420 C   0  0  0  0  0  1  0  0  0  0  0  0
  185.5830  177.8940  144.3460 C   0  0  0  0  0  1  0  0  0  0  0  0
  184.5880  178.8210  143.6740 C   0  0  0  0  0  0  0  0  0  0  0  0
  1 12  1  0  0  0  0
  2  7  1  0  0  0  0
  2  1  2  0  0  0  0
  3  8  2  0  0  0  0
  4 11  2  0  0  0  0
  4  3  1  0  0  0  0
  5  9  2  0  0  0  0
  5 11  1  0  0  0  0
  6  5  1  0  0  0  0
  8  1  1  0  0  0  0
  9 10  1  0  0  0  0
 10 19  1  0  0  0  0
 10  7  2  0  0  0  0
 11  2  1  0  0  0  0
 12 18  2  0  0  0  0
 12 14  1  0  0  0  0
 14 15  2  0  0  0  0
 15 13  1  0  0  0  0
 16 13  2  0  0  0  0
 17 14  1  0  0  0  0
 18 16  1  0  0  0  0
 19 20  1  0  0  0  0
 20 25  1  0  0  0  0
 21 20  2  0  0  0  0
 25 22  1  0  0  0  0
 25 23  1  0  0  0  0
 25 24  1  0  0  0  0
M  END
>  <MODEL>
5

>  <REMARK>
 VINA RESULT:      -7.9      2.713      5.498
  Name = 
  4 active torsions:
  status: ('A' for Active; 'I' for Inactive)
    1  A    between atoms: C_1  and  C_5
    2  A    between atoms: C_6  and  C_15
    3  A    between atoms: C_6  and  C_23
    4  A    between atoms: C_15  and  C_21
                            x       y       z     vdW  Elec       q    Type
                         _______ _______ _______ _____ _____    ______ ____

>  <TORSDO>
F 4

$$$$
=
 OpenBabel10272400423D

 25 27  0  0  0  0  0  0  0  0999 V2000
  188.6210  177.6530  143.5040 C   0  0  0  0  0  0  0  0  0  0  0  0
  187.2610  177.8590  143.8090 C   0  0  0  0  0  0  0  0  0  0  0  0
  189.1420  177.7670  145.8210 C   0  0  0  0  0  3  0  0  0  0  0  0
  187.8360  177.9690  146.1310 N   0  0  0  0  0  0  0  0  0  0  0  0
  185.5410  178.2450  145.4560 C   0  0  0  0  0  0  0  0  0  0  0  0
  185.0810  178.4250  146.8620 C   0  0  0  0  0  1  0  0  0  0  0  0
  186.3120  177.9370  142.8400 N   0  0  0  0  0  0  0  0  0  0  0  0
  189.5220  177.6130  144.5260 N   0  0  0  0  0  0  0  0  0  0  0  0
  184.6320  178.3110  144.4470 N   0  0  0  0  0  0  0  0  0  0  0  0
  185.0070  178.1550  143.1500 C   0  0  0  0  0  0  0  0  0  0  0  0
  186.8910  178.0210  145.1560 C   0  0  0  0  0  0  0  0  0  0  0  0
  189.1010  177.4670  142.1110 C   0  0  0  0  0  0  0  0  0  0  0  0
  189.9490  177.1110  139.4790 C   0  0  0  0  0  3  0  0  0  0  0  0
  189.9530  176.4010  141.7490 C   0  0  0  0  0  0  0  0  0  0  0  0
  190.3520  176.2580  140.4560 N   0  0  0  0  0  0  0  0  0  0  0  0
  189.1040  178.1750  139.7860 C   0  0  0  0  0  3  0  0  0  0  0  0
  190.4380  175.4850  142.7270 N   0  0  0  0  0  1  0  0  0  0  0  0
  188.6810  178.3470  141.1040 C   0  0  0  0  0  3  0  0  0  0  0  0
  183.9900  178.2560  142.0650 C   0  0  0  0  0  2  0  0  0  0  0  0
  184.5780  178.9350  140.8620 C   0  0  0  0  0  0  0  0  0  0  0  0
  185.4800  179.7430  141.0330 O   0  0  0  0  0  0  0  0  0  0  0  0
  183.3220  179.7850  138.9050 C   0  0  0  0  0  1  0  0  0  0  0  0
  185.2820  178.3470  138.5130 C   0  0  0  0  0  1  0  0  0  0  0  0
  183.2330  177.3840  139.4720 C   0  0  0  0  0  1  0  0  0  0  0  0
  184.1180  178.6160  139.4540 C   0  0  0  0  0  0  0  0  0  0  0  0
  1  2  2  0  0  0  0
  1  8  1  0  0  0  0
  2 11  1  0  0  0  0
  3  4  1  0  0  0  0
  5  6  1  0  0  0  0
  7 10  2  0  0  0  0
  7  2  1  0  0  0  0
  8  3  2  0  0  0  0
  9  5  2  0  0  0  0
 10  9  1  0  0  0  0
 11  5  1  0  0  0  0
 11  4  2  0  0  0  0
 12  1  1  0  0  0  0
 13 16  2  0  0  0  0
 13 15  1  0  0  0  0
 14 12  1  0  0  0  0
 14 17  1  0  0  0  0
 15 14  2  0  0  0  0
 16 18  1  0  0  0  0
 18 12  2  0  0  0  0
 19 10  1  0  0  0  0
 20 21  2  0  0  0  0
 20 19  1  0  0  0  0
 22 25  1  0  0  0  0
 23 25  1  0  0  0  0
 25 24  1  0  0  0  0
 25 20  1  0  0  0  0
M  END
>  <MODEL>
6

>  <REMARK>
 VINA RESULT:      -7.8      2.265      6.138
  Name = 
  4 active torsions:
  status: ('A' for Active; 'I' for Inactive)
    1  A    between atoms: C_1  and  C_5
    2  A    between atoms: C_6  and  C_15
    3  A    between atoms: C_6  and  C_23
    4  A    between atoms: C_15  and  C_21
                            x       y       z     vdW  Elec       q    Type
                         _______ _______ _______ _____ _____    ______ ____

>  <TORSDO>
F 4

$$$$
=
 OpenBabel10272400423D

 25 27  0  0  0  0  0  0  0  0999 V2000
  187.7220  177.9040  144.5770 C   0  0  0  0  0  0  0  0  0  0  0  0
  186.6120  178.2060  143.7650 C   0  0  0  0  0  0  0  0  0  0  0  0
  186.3290  178.0290  146.5000 C   0  0  0  0  0  3  0  0  0  0  0  0
  185.2500  178.3220  145.7310 N   0  0  0  0  0  0  0  0  0  0  0  0
  184.2670  178.7360  143.5720 C   0  0  0  0  0  0  0  0  0  0  0  0
  182.9180  178.9720  144.1590 C   0  0  0  0  0  1  0  0  0  0  0  0
  186.7220  178.3260  142.4150 N   0  0  0  0  0  0  0  0  0  0  0  0
  187.5440  177.8250  145.9260 N   0  0  0  0  0  0  0  0  0  0  0  0
  184.4320  178.8410  142.2270 N   0  0  0  0  0  0  0  0  0  0  0  0
  185.6440  178.6360  141.6480 C   0  0  0  0  0  0  0  0  0  0  0  0
  185.3660  178.4170  144.3800 C   0  0  0  0  0  0  0  0  0  0  0  0
  189.0750  177.6600  144.0130 C   0  0  0  0  0  0  0  0  0  0  0  0
  191.6070  177.2480  142.9210 C   0  0  0  0  0  3  0  0  0  0  0  0
  189.3790  176.4950  143.2770 C   0  0  0  0  0  0  0  0  0  0  0  0
  190.6260  176.3220  142.7610 N   0  0  0  0  0  0  0  0  0  0  0  0
  191.3530  178.4170  143.6360 C   0  0  0  0  0  3  0  0  0  0  0  0
  188.4080  175.4680  143.0940 N   0  0  0  0  0  1  0  0  0  0  0  0
  190.0840  178.6190  144.1770 C   0  0  0  0  0  3  0  0  0  0  0  0
  185.7980  178.7830  140.1720 C   0  0  0  0  0  2  0  0  0  0  0  0
  184.4790  179.1240  139.5420 C   0  0  0  0  0  0  0  0  0  0  0  0
  184.1050  180.2880  139.5710 O   0  0  0  0  0  0  0  0  0  0  0  0
  184.4970  177.2890  137.8800 C   0  0  0  0  0  1  0  0  0  0  0  0
  182.9840  177.1120  139.8150 C   0  0  0  0  0  1  0  0  0  0  0  0
  182.5280  178.7670  138.0540 C   0  0  0  0  0  1  0  0  0  0  0  0
  183.6310  178.0830  138.8390 C   0  0  0  0  0  0  0  0  0  0  0  0
  1  8  1  0  0  0  0
  2 11  1  0  0  0  0
  2  1  2  0  0  0  0
  4  3  1  0  0  0  0
  5  6  1  0  0  0  0
  5 11  1  0  0  0  0
  7  2  1  0  0  0  0
  8  3  2  0  0  0  0
  9  5  2  0  0  0  0
 10  9  1  0  0  0  0
 10  7  2  0  0  0  0
 11  4  2  0  0  0  0
 12 18  1  0  0  0  0
 12  1  1  0  0  0  0
 13 16  1  0  0  0  0
 14 12  2  0  0  0  0
 15 13  2  0  0  0  0
 15 14  1  0  0  0  0
 16 18  2  0  0  0  0
 17 14  1  0  0  0  0
 19 10  1  0  0  0  0
 20 21  2  0  0  0  0
 20 19  1  0  0  0  0
 22 25  1  0  0  0  0
 24 25  1  0  0  0  0
 25 20  1  0  0  0  0
 25 23  1  0  0  0  0
M  END
>  <MODEL>
7

>  <REMARK>
 VINA RESULT:      -7.7      2.323      5.347
  Name = 
  4 active torsions:
  status: ('A' for Active; 'I' for Inactive)
    1  A    between atoms: C_1  and  C_5
    2  A    between atoms: C_6  and  C_15
    3  A    between atoms: C_6  and  C_23
    4  A    between atoms: C_15  and  C_21
                            x       y       z     vdW  Elec       q    Type
                         _______ _______ _______ _____ _____    ______ ____

>  <TORSDO>
F 4

$$$$
=
 OpenBabel10272400423D

 25 27  0  0  0  0  0  0  0  0999 V2000
  189.8460  177.8470  142.8050 C   0  0  0  0  0  0  0  0  0  0  0  0
  189.2660  177.6380  144.0720 C   0  0  0  0  0  0  0  0  0  0  0  0
  191.9920  177.9530  143.8230 C   0  0  0  0  0  3  0  0  0  0  0  0
  191.4480  177.7550  145.0510 N   0  0  0  0  0  0  0  0  0  0  0  0
  189.5250  177.4110  146.4590 C   0  0  0  0  0  0  0  0  0  0  0  0
  190.3570  177.3610  147.6940 C   0  0  0  0  0  1  0  0  0  0  0  0
  187.9230  177.5060  144.2320 N   0  0  0  0  0  0  0  0  0  0  0  0
  191.1980  177.9990  142.7220 N   0  0  0  0  0  0  0  0  0  0  0  0
  188.1760  177.2820  146.5630 N   0  0  0  0  0  0  0  0  0  0  0  0
  187.3770  177.3240  145.4640 C   0  0  0  0  0  0  0  0  0  0  0  0
  190.1060  177.6000  145.1980 C   0  0  0  0  0  0  0  0  0  0  0  0
  189.0370  177.8970  141.5610 C   0  0  0  0  0  0  0  0  0  0  0  0
  187.4740  177.9670  139.2530 C   0  0  0  0  0  3  0  0  0  0  0  0
  189.3980  177.1730  140.4040 C   0  0  0  0  0  0  0  0  0  0  0  0
  188.6150  177.2320  139.2930 N   0  0  0  0  0  0  0  0  0  0  0  0
  187.0730  178.6940  140.3720 C   0  0  0  0  0  3  0  0  0  0  0  0
  190.5970  176.4040  140.3640 N   0  0  0  0  0  1  0  0  0  0  0  0
  187.8570  178.6540  141.5240 C   0  0  0  0  0  3  0  0  0  0  0  0
  185.8990  177.2030  145.6130 C   0  0  0  0  0  2  0  0  0  0  0  0
  185.2520  178.5530  145.5070 C   0  0  0  0  0  0  0  0  0  0  0  0
  185.4460  179.3620  146.4040 O   0  0  0  0  0  0  0  0  0  0  0  0
  184.7450  180.3740  143.9090 C   0  0  0  0  0  1  0  0  0  0  0  0
  184.6520  178.0460  143.1120 C   0  0  0  0  0  1  0  0  0  0  0  0
  182.9400  178.8730  144.6720 C   0  0  0  0  0  1  0  0  0  0  0  0
  184.4110  178.9500  144.3110 C   0  0  0  0  0  0  0  0  0  0  0  0
  1  2  1  0  0  0  0
  2  7  1  0  0  0  0
  2 11  2  0  0  0  0
  3  4  2  0  0  0  0
  4 11  1  0  0  0  0
  5  9  2  0  0  0  0
  5  6  1  0  0  0  0
  7 10  2  0  0  0  0
  8  1  2  0  0  0  0
  8  3  1  0  0  0  0
 10 19  1  0  0  0  0
 10  9  1  0  0  0  0
 11  5  1  0  0  0  0
 12  1  1  0  0  0  0
 13 15  2  0  0  0  0
 13 16  1  0  0  0  0
 14 12  2  0  0  0  0
 15 14  1  0  0  0  0
 16 18  2  0  0  0  0
 17 14  1  0  0  0  0
 18 12  1  0  0  0  0
 20 19  1  0  0  0  0
 20 21  2  0  0  0  0
 22 25  1  0  0  0  0
 23 25  1  0  0  0  0
 25 24  1  0  0  0  0
 25 20  1  0  0  0  0
M  END
>  <MODEL>
8

>  <REMARK>
 VINA RESULT:      -7.7      2.466      6.876
  Name = 
  4 active torsions:
  status: ('A' for Active; 'I' for Inactive)
    1  A    between atoms: C_1  and  C_5
    2  A    between atoms: C_6  and  C_15
    3  A    between atoms: C_6  and  C_23
    4  A    between atoms: C_15  and  C_21
                            x       y       z     vdW  Elec       q    Type
                         _______ _______ _______ _____ _____    ______ ____

>  <TORSDO>
F 4

$$$$
=
 OpenBabel10272400423D

 25 27  0  0  0  0  0  0  0  0999 V2000
  188.9520  177.3980  143.0400 C   0  0  0  0  0  0  0  0  0  0  0  0
  188.2300  177.8170  141.9050 C   0  0  0  0  0  0  0  0  0  0  0  0
  190.7820  176.8130  141.6390 C   0  0  0  0  0  3  0  0  0  0  0  0
  190.0980  177.2120  140.5360 N   0  0  0  0  0  0  0  0  0  0  0  0
  188.1110  178.1070  139.5140 C   0  0  0  0  0  0  0  0  0  0  0  0
  188.6950  178.0170  138.1460 C   0  0  0  0  0  1  0  0  0  0  0  0
  186.9590  178.2920  141.9990 N   0  0  0  0  0  0  0  0  0  0  0  0
  190.2110  176.9070  142.8690 N   0  0  0  0  0  0  0  0  0  0  0  0
  186.8440  178.5780  139.6640 N   0  0  0  0  0  0  0  0  0  0  0  0
  186.2700  178.6750  140.8920 C   0  0  0  0  0  0  0  0  0  0  0  0
  188.8370  177.7070  140.6430 C   0  0  0  0  0  0  0  0  0  0  0  0
  188.3910  177.4830  144.4130 C   0  0  0  0  0  0  0  0  0  0  0  0
  187.3060  177.6860  146.9730 C   0  0  0  0  0  3  0  0  0  0  0  0
  189.1980  177.7720  145.5340 C   0  0  0  0  0  0  0  0  0  0  0  0
  188.6380  177.8600  146.7710 N   0  0  0  0  0  0  0  0  0  0  0  0
  186.4680  177.4040  145.8960 C   0  0  0  0  0  3  0  0  0  0  0  0
  190.6070  177.9380  145.4010 N   0  0  0  0  0  1  0  0  0  0  0  0
  187.0150  177.3060  144.6170 C   0  0  0  0  0  3  0  0  0  0  0  0
  184.8710  179.1730  141.0210 C   0  0  0  0  0  2  0  0  0  0  0  0
  184.2390  179.3110  139.6660 C   0  0  0  0  0  0  0  0  0  0  0  0
  184.4580  180.3280  139.0250 O   0  0  0  0  0  0  0  0  0  0  0  0
  182.1390  178.8280  138.4480 C   0  0  0  0  0  1  0  0  0  0  0  0
  184.1190  177.4400  137.9810 C   0  0  0  0  0  1  0  0  0  0  0  0
  182.9670  177.2380  140.1440 C   0  0  0  0  0  1  0  0  0  0  0  0
  183.3840  178.2160  139.0630 C   0  0  0  0  0  0  0  0  0  0  0  0
  1 12  1  0  0  0  0
  2  7  1  0  0  0  0
  2  1  2  0  0  0  0
  3  8  2  0  0  0  0
  4 11  2  0  0  0  0
  4  3  1  0  0  0  0
  5  9  2  0  0  0  0
  5 11  1  0  0  0  0
  6  5  1  0  0  0  0
  8  1  1  0  0  0  0
  9 10  1  0  0  0  0
 10 19  1  0  0  0  0
 10  7  2  0  0  0  0
 11  2  1  0  0  0  0
 12 18  2  0  0  0  0
 12 14  1  0  0  0  0
 14 15  2  0  0  0  0
 15 13  1  0  0  0  0
 16 13  2  0  0  0  0
 17 14  1  0  0  0  0
 18 16  1  0  0  0  0
 20 19  1  0  0  0  0
 21 20  2  0  0  0  0
 22 25  1  0  0  0  0
 23 25  1  0  0  0  0
 25 20  1  0  0  0  0
 25 24  1  0  0  0  0
M  END
>  <MODEL>
9

>  <REMARK>
 VINA RESULT:      -7.7      2.580      5.646
  Name = 
  4 active torsions:
  status: ('A' for Active; 'I' for Inactive)
    1  A    between atoms: C_1  and  C_5
    2  A    between atoms: C_6  and  C_15
    3  A    between atoms: C_6  and  C_23
    4  A    between atoms: C_15  and  C_21
                            x       y       z     vdW  Elec       q    Type
                         _______ _______ _______ _____ _____    ______ ____

>  <TORSDO>
F 4

$$$$
