=
 OpenBabel10272401343D

 55 61  0  0  1  0  0  0  0  0999 V2000
  186.4720  178.2880  141.8400 C   0  0  0  0  0  0  0  0  0  0  0  0
  184.1040  178.6710  138.4940 C   0  0  0  0  0  2  0  0  0  0  0  0
  186.4380  178.2940  136.6330 O   0  0  0  0  0  1  0  0  0  0  0  0
  189.5430  177.2800  136.8220 C   0  0  0  0  0  3  0  0  0  0  0  0
  190.4620  176.6880  136.0610 C   0  0  0  0  0  3  0  0  0  0  0  0
  190.4530  176.1120  138.8430 C   0  0  2  0  0  3  0  0  0  0  0  0
  191.7500  176.0070  138.0440 C   0  0  0  0  0  2  0  0  0  0  0  0
  187.8020  178.6950  138.4180 O   0  0  0  0  0  0  0  0  0  0  0  0
  191.4750  175.9260  136.6480 O   0  0  0  0  0  0  0  0  0  0  0  0
  185.2060  179.2660  143.7080 C   0  0  0  0  0  3  0  0  0  0  0  0
  189.5550  177.1190  138.2500 N   0  0  0  0  0  0  0  0  0  0  0  0
  182.8090  178.4830  142.4920 C   0  0  0  0  0  0  0  0  0  0  0  0
  187.4970  178.0880  141.2380 C   0  0  0  0  0  0  0  0  0  0  0  0
  184.0340  178.1530  141.9080 C   0  0  0  0  0  3  0  0  0  0  0  0
  189.5480  176.7200  141.0930 C   0  0  2  0  0  3  0  0  0  0  0  0
  183.1260  179.5350  139.2680 C   0  0  0  0  0  2  0  0  0  0  0  0
  190.8070  176.4830  140.2740 C   0  0  0  0  0  2  0  0  0  0  0  0
  185.4950  179.2680  138.5940 C   0  0  0  0  0  2  0  0  0  0  0  0
  186.5190  178.3000  138.0260 C   0  0  1  0  0  3  0  0  0  0  0  0
  183.9820  179.5870  144.3030 C   0  0  0  0  0  3  0  0  0  0  0  0
  181.7990  178.8090  139.4070 C   0  0  1  0  0  3  0  0  0  0  0  0
  185.2310  178.5480  142.5080 C   0  0  0  0  0  0  0  0  0  0  0  0
  188.3750  177.5580  139.0110 C   0  0  1  0  0  3  0  0  0  0  0  0
  188.7340  177.8630  140.4740 C   0  0  1  0  0  3  0  0  0  0  0  0
  181.1530  179.1420  140.7510 C   0  0  0  0  0  2  0  0  0  0  0  0
  181.5330  178.1140  141.8120 C   0  0  0  0  0  2  0  0  0  0  0  0
  182.7840  179.2030  143.6920 C   0  0  0  0  0  3  0  0  0  0  0  0
  189.1490  176.6260  143.5060 C   0  0  0  0  0  3  0  0  0  0  0  0
  191.0110  177.0520  145.1120 C   0  0  2  0  0  3  0  0  0  0  0  0
  191.1610  177.6650  142.7750 O   0  0  0  0  0  0  0  0  0  0  0  0
  191.5380  178.0600  144.0950 C   0  0  0  0  0  2  0  0  0  0  0  0
  189.4980  176.9370  144.9320 C   0  0  0  0  0  2  0  0  0  0  0  0
  189.9410  177.0230  142.5060 C   0  0  0  0  0  0  0  0  0  0  0  0
  191.3290  177.5200  146.5210 C   0  0  0  0  0  3  0  0  0  0  0  0
  191.7200  176.3300  147.3750 C   0  0  0  0  0  2  0  0  0  0  0  0
  190.3300  176.9170  147.4890 C   0  0  0  0  0  2  0  0  0  0  0  0
  179.9840  180.1740  138.5390 O   0  0  0  0  0  1  0  0  0  0  0  0
  180.8880  179.1560  138.2230 C   0  0  2  0  0  3  0  0  0  0  0  0
  180.1810  177.9320  137.6390 C   0  0  0  0  0  2  0  0  0  0  0  0
  180.8490  176.6100  138.0220 C   0  0  1  0  0  3  0  0  0  0  0  0
  180.0580  175.9270  138.9500 O   0  0  0  0  0  1  0  0  0  0  0  0
  183.5970  176.8220  134.5960 N   0  0  0  0  0  0  0  0  0  0  0  0
  181.9440  172.6850  135.6170 O   0  0  0  0  0  1  0  0  0  0  0  0
  181.1780  175.7440  136.7830 C   0  0  1  0  0  0  0  0  0  0  0  0
  183.2380  174.9860  137.8870 O   0  0  0  0  0  1  0  0  0  0  0  0
  182.1690  174.5830  137.0780 C   0  0  2  0  0  3  0  0  0  0  0  0
  182.8680  177.0430  135.8220 C   0  0  0  0  0  2  0  0  0  0  0  0
  184.1350  173.6880  135.5830 C   0  0  1  0  0  3  0  0  0  0  0  0
  184.5090  175.9180  134.4670 C   0  0  0  0  0  3  0  0  0  0  0  0
  182.6230  173.8930  135.7770 C   0  0  1  0  0  3  0  0  0  0  0  0
  179.9890  175.1350  136.4170 F   0  0  0  0  0  0  0  0  0  0  0  0
  184.9230  175.0030  135.5850 C   0  0  0  0  0  2  0  0  0  0  0  0
  181.5580  176.5540  135.6780 O   0  0  0  0  0  0  0  0  0  0  0  0
  184.6550  172.7830  136.5800 N   0  0  0  0  0  0  0  0  0  0  0  0
  185.9190  172.6170  136.7200 C   0  0  0  0  0  2  0  0  0  0  0  0
  1 22  1  0  0  0  0
  2 18  1  0  0  0  0
  2 16  1  0  0  0  0
  4 11  1  0  0  0  0
  5  9  1  0  0  0  0
  5  4  2  0  0  0  0
  6  7  1  6  0  0  0
  6 17  1  0  0  0  0
  9  7  1  0  0  0  0
 10 20  1  0  0  0  0
 11  6  1  0  0  0  0
 11 23  1  0  0  0  0
 12 27  1  0  0  0  0
 13  1  3  0  0  0  0
 14 12  2  0  0  0  0
 14 22  1  0  0  0  0
 15 33  1  1  0  0  0
 16 21  1  0  0  0  0
 17 15  1  0  0  0  0
 19  3  1  6  0  0  0
 19  8  1  0  0  0  0
 19 18  1  0  0  0  0
 21 38  1  6  0  0  0
 21 25  1  0  0  0  0
 22 10  2  0  0  0  0
 23  8  1  6  0  0  0
 23 24  1  0  0  0  0
 24 15  1  0  0  0  0
 24 13  1  1  0  0  0
 25 26  1  0  0  0  0
 26 12  1  0  0  0  0
 27 20  2  0  0  0  0
 28 32  1  0  0  0  0
 29 34  1  1  0  0  0
 30 31  1  0  0  0  0
 31 29  1  0  0  0  0
 32 29  1  0  0  0  0
 33 30  1  0  0  0  0
 33 28  2  0  0  0  0
 34 35  1  0  0  0  0
 34 36  1  0  0  0  0
 35 36  1  0  0  0  0
 38 37  1  1  0  0  0
 39 40  1  0  0  0  0
 39 38  1  0  0  0  0
 40 41  1  1  0  0  0
 42 47  1  0  0  0  0
 44 51  1  6  0  0  0
 44 46  1  0  0  0  0
 44 40  1  0  0  0  0
 46 45  1  6  0  0  0
 48 52  1  0  0  0  0
 48 50  1  0  0  0  0
 48 54  1  1  0  0  0
 49 42  2  0  0  0  0
 49 52  1  0  0  0  0
 50 43  1  1  0  0  0
 50 46  1  0  0  0  0
 53 47  1  0  0  0  0
 53 44  1  0  0  0  0
 54 55  2  0  0  0  0
M  END
>  <MODEL>
1

>  <REMARK>
 VINA RESULT:      -9.8      0.000      0.000
  Name = 
  7 active torsions:
  status: ('A' for Active; 'I' for Inactive)
    1  A    between atoms: C_6  and  C_20
    2  A    between atoms: C_8  and  C_22
    3  A    between atoms: C_8  and  C_43
    4  A    between atoms: C_10  and  C_32
    5  A    between atoms: N_11  and  C_29
    6  A    between atoms: C_20  and  C_22
    7  A    between atoms: C_33  and  C_52
                            x       y       z     vdW  Elec       q    Type
                         _______ _______ _______ _____ _____    ______ ____

>  <TORSDO>
F 7

$$$$
=
 OpenBabel10272401343D

 55 61  0  0  1  0  0  0  0  0999 V2000
  185.5900  178.2940  141.9360 C   0  0  0  0  0  0  0  0  0  0  0  0
  184.0610  178.3310  138.1140 C   0  0  0  0  0  2  0  0  0  0  0  0
  186.7950  178.1540  136.8720 O   0  0  0  0  0  1  0  0  0  0  0  0
  189.8490  177.4810  137.8350 C   0  0  0  0  0  3  0  0  0  0  0  0
  190.9750  176.9700  137.3420 C   0  0  0  0  0  3  0  0  0  0  0  0
  190.3610  176.4720  140.0700 C   0  0  2  0  0  3  0  0  0  0  0  0
  191.8150  176.4840  139.6030 C   0  0  0  0  0  2  0  0  0  0  0  0
  187.6500  178.7460  138.9040 O   0  0  0  0  0  0  0  0  0  0  0  0
  191.8890  176.3370  138.1880 O   0  0  0  0  0  0  0  0  0  0  0  0
  183.8270  179.1840  143.4030 C   0  0  0  0  0  3  0  0  0  0  0  0
  189.5370  177.3620  139.2330 N   0  0  0  0  0  0  0  0  0  0  0  0
  181.8760  178.1160  141.7020 C   0  0  0  0  0  0  0  0  0  0  0  0
  186.7420  178.1890  141.6020 C   0  0  0  0  0  0  0  0  0  0  0  0
  183.2300  177.9030  141.4390 C   0  0  0  0  0  3  0  0  0  0  0  0
  188.8920  177.0430  142.0120 C   0  0  2  0  0  3  0  0  0  0  0  0
  182.8470  179.1080  138.5910 C   0  0  0  0  0  2  0  0  0  0  0  0
  190.3270  176.9190  141.5230 C   0  0  0  0  0  2  0  0  0  0  0  0
  185.3220  179.0760  138.5060 C   0  0  0  0  0  2  0  0  0  0  0  0
  186.5410  178.2070  138.2440 C   0  0  1  0  0  3  0  0  0  0  0  0
  182.4710  179.3890  143.6780 C   0  0  0  0  0  3  0  0  0  0  0  0
  181.6020  178.2480  138.4540 C   0  0  1  0  0  3  0  0  0  0  0  0
  184.2060  178.4390  142.2810 C   0  0  0  0  0  0  0  0  0  0  0  0
  188.1730  177.6930  139.6720 C   0  0  1  0  0  3  0  0  0  0  0  0
  188.1410  178.0750  141.1610 C   0  0  1  0  0  3  0  0  0  0  0  0
  180.6260  178.5480  139.5900 C   0  0  0  0  0  2  0  0  0  0  0  0
  180.8400  177.5960  140.7630 C   0  0  0  0  0  2  0  0  0  0  0  0
  181.4960  178.8620  142.8240 C   0  0  0  0  0  3  0  0  0  0  0  0
  187.7580  177.4440  144.1440 C   0  0  0  0  0  3  0  0  0  0  0  0
  189.0600  177.5270  146.2710 C   0  0  2  0  0  3  0  0  0  0  0  0
  190.1240  177.7000  144.1030 O   0  0  0  0  0  0  0  0  0  0  0  0
  190.1830  178.1600  145.4550 C   0  0  0  0  0  2  0  0  0  0  0  0
  187.7310  177.8490  145.5880 C   0  0  0  0  0  2  0  0  0  0  0  0
  188.9060  177.4250  143.4590 C   0  0  0  0  0  0  0  0  0  0  0  0
  189.0640  178.0860  147.6830 C   0  0  0  0  0  3  0  0  0  0  0  0
  188.2880  177.1590  148.5980 C   0  0  0  0  0  2  0  0  0  0  0  0
  187.6450  178.4320  148.0910 C   0  0  0  0  0  2  0  0  0  0  0  0
  179.9820  179.4530  137.0980 O   0  0  0  0  0  1  0  0  0  0  0  0
  180.9700  178.4640  137.0730 C   0  0  2  0  0  3  0  0  0  0  0  0
  180.4560  177.1660  136.4460 C   0  0  0  0  0  2  0  0  0  0  0  0
  181.5530  176.3570  135.7520 C   0  0  1  0  0  3  0  0  0  0  0  0
  182.6290  177.1890  135.4310 O   0  0  0  0  0  1  0  0  0  0  0  0
  180.9670  172.0010  135.6170 N   0  0  0  0  0  0  0  0  0  0  0  0
  184.5350  173.4930  138.0530 O   0  0  0  0  0  1  0  0  0  0  0  0
  181.9900  175.1320  136.5910 C   0  0  1  0  0  0  0  0  0  0  0  0
  183.6450  174.5680  134.8630 O   0  0  0  0  0  1  0  0  0  0  0  0
  183.4150  174.6140  136.2440 C   0  0  2  0  0  3  0  0  0  0  0  0
  180.9850  173.4200  135.3550 C   0  0  0  0  0  2  0  0  0  0  0  0
  184.2610  172.1330  136.0830 C   0  0  1  0  0  3  0  0  0  0  0  0
  181.9910  171.2360  135.4470 C   0  0  0  0  0  3  0  0  0  0  0  0
  183.7090  173.2770  136.9500 C   0  0  1  0  0  3  0  0  0  0  0  0
  182.0620  175.5740  137.9010 F   0  0  0  0  0  0  0  0  0  0  0  0
  183.3160  171.7360  134.9430 C   0  0  0  0  0  2  0  0  0  0  0  0
  180.9930  174.1180  136.5750 O   0  0  0  0  0  0  0  0  0  0  0  0
  185.5650  172.4730  135.5660 N   0  0  0  0  0  0  0  0  0  0  0  0
  185.8730  172.2250  134.3460 C   0  0  0  0  0  2  0  0  0  0  0  0
  1 22  1  0  0  0  0
  2 18  1  0  0  0  0
  2 16  1  0  0  0  0
  4 11  1  0  0  0  0
  5  4  2  0  0  0  0
  5  9  1  0  0  0  0
  6  7  1  6  0  0  0
  6 17  1  0  0  0  0
  9  7  1  0  0  0  0
 10 20  1  0  0  0  0
 11 23  1  0  0  0  0
 11  6  1  0  0  0  0
 12 27  1  0  0  0  0
 13  1  3  0  0  0  0
 14 12  2  0  0  0  0
 14 22  1  0  0  0  0
 15 33  1  1  0  0  0
 17 15  1  0  0  0  0
 19  3  1  6  0  0  0
 19 18  1  0  0  0  0
 19  8  1  0  0  0  0
 21 38  1  6  0  0  0
 21 16  1  0  0  0  0
 21 25  1  0  0  0  0
 22 10  2  0  0  0  0
 23  8  1  6  0  0  0
 23 24  1  0  0  0  0
 24 13  1  1  0  0  0
 24 15  1  0  0  0  0
 25 26  1  0  0  0  0
 26 12  1  0  0  0  0
 27 20  2  0  0  0  0
 28 32  1  0  0  0  0
 29 34  1  1  0  0  0
 30 31  1  0  0  0  0
 31 29  1  0  0  0  0
 32 29  1  0  0  0  0
 33 30  1  0  0  0  0
 33 28  2  0  0  0  0
 34 36  1  0  0  0  0
 34 35  1  0  0  0  0
 36 35  1  0  0  0  0
 38 37  1  1  0  0  0
 39 38  1  0  0  0  0
 40 41  1  1  0  0  0
 40 39  1  0  0  0  0
 40 44  1  0  0  0  0
 44 51  1  1  0  0  0
 46 45  1  6  0  0  0
 46 44  1  0  0  0  0
 46 50  1  0  0  0  0
 47 42  1  0  0  0  0
 47 53  1  0  0  0  0
 48 54  1  6  0  0  0
 48 50  1  0  0  0  0
 49 42  2  0  0  0  0
 50 43  1  1  0  0  0
 52 49  1  0  0  0  0
 52 48  1  0  0  0  0
 53 44  1  0  0  0  0
 55 54  2  0  0  0  0
M  END
>  <MODEL>
2

>  <REMARK>
 VINA RESULT:      -9.0      1.549      2.191
  Name = 
  7 active torsions:
  status: ('A' for Active; 'I' for Inactive)
    1  A    between atoms: C_6  and  C_20
    2  A    between atoms: C_8  and  C_22
    3  A    between atoms: C_8  and  C_43
    4  A    between atoms: C_10  and  C_32
    5  A    between atoms: N_11  and  C_29
    6  A    between atoms: C_20  and  C_22
    7  A    between atoms: C_33  and  C_52
                            x       y       z     vdW  Elec       q    Type
                         _______ _______ _______ _____ _____    ______ ____

>  <TORSDO>
F 7

$$$$
=
 OpenBabel10272401343D

 55 61  0  0  1  0  0  0  0  0999 V2000
  187.2470  177.7590  140.3540 C   0  0  0  0  0  0  0  0  0  0  0  0
  190.9510  176.6570  138.9330 C   0  0  0  0  0  2  0  0  0  0  0  0
  192.2240  176.9390  141.6440 O   0  0  0  0  0  1  0  0  0  0  0  0
  191.2520  177.2640  144.7510 C   0  0  0  0  0  3  0  0  0  0  0  0
  191.6740  176.9680  145.9790 C   0  0  0  0  0  3  0  0  0  0  0  0
  188.8820  176.8760  145.4630 C   0  0  2  0  0  3  0  0  0  0  0  0
  189.3900  177.1640  146.8750 C   0  0  0  0  0  2  0  0  0  0  0  0
  190.3760  178.1140  142.2840 O   0  0  0  0  0  0  0  0  0  0  0  0
  190.7520  176.7650  147.0090 O   0  0  0  0  0  0  0  0  0  0  0  0
  185.9230  178.4420  138.3970 C   0  0  0  0  0  3  0  0  0  0  0  0
  189.8480  177.3460  144.4550 N   0  0  0  0  0  0  0  0  0  0  0  0
  187.3180  176.6030  136.8120 C   0  0  0  0  0  0  0  0  0  0  0  0
  187.5920  177.8850  141.5010 C   0  0  0  0  0  0  0  0  0  0  0  0
  187.5800  176.6920  138.1810 C   0  0  0  0  0  3  0  0  0  0  0  0
  187.0400  177.4250  143.8640 C   0  0  2  0  0  3  0  0  0  0  0  0
  190.5920  177.1790  137.5540 C   0  0  0  0  0  2  0  0  0  0  0  0
  187.5430  177.5750  145.2910 C   0  0  0  0  0  2  0  0  0  0  0  0
  190.7530  177.7590  139.9560 C   0  0  0  0  0  2  0  0  0  0  0  0
  190.8820  177.1930  141.3600 C   0  0  1  0  0  3  0  0  0  0  0  0
  185.6470  178.3470  137.0290 C   0  0  0  0  0  3  0  0  0  0  0  0
  190.5190  176.0220  136.5710 C   0  0  1  0  0  3  0  0  0  0  0  0
  186.8910  177.6130  138.9730 C   0  0  0  0  0  0  0  0  0  0  0  0
  189.4360  177.4000  143.0440 C   0  0  1  0  0  3  0  0  0  0  0  0
  188.0490  178.0460  142.8900 C   0  0  1  0  0  3  0  0  0  0  0  0
  189.4300  176.2810  135.5310 C   0  0  0  0  0  2  0  0  0  0  0  0
  188.1030  175.6630  135.9600 C   0  0  0  0  0  2  0  0  0  0  0  0
  186.3500  177.4330  136.2350 C   0  0  0  0  0  3  0  0  0  0  0  0
  185.0090  177.9720  142.6120 C   0  0  0  0  0  3  0  0  0  0  0  0
  182.9600  178.7500  143.8060 C   0  0  2  0  0  3  0  0  0  0  0  0
  185.1380  178.7300  144.8640 O   0  0  0  0  0  0  0  0  0  0  0  0
  183.9030  179.4440  144.7860 C   0  0  0  0  0  2  0  0  0  0  0  0
  183.6710  178.6330  142.4580 C   0  0  0  0  0  2  0  0  0  0  0  0
  185.6950  178.0740  143.7550 C   0  0  0  0  0  0  0  0  0  0  0  0
  181.6850  179.5590  143.6490 C   0  0  0  0  0  3  0  0  0  0  0  0
  180.4840  178.6410  143.7600 C   0  0  0  0  0  2  0  0  0  0  0  0
  180.9540  179.1090  142.4000 C   0  0  0  0  0  2  0  0  0  0  0  0
  191.7920  175.1810  134.6780 O   0  0  0  0  0  1  0  0  0  0  0  0
  191.8930  175.7960  135.9300 C   0  0  2  0  0  3  0  0  0  0  0  0
  192.8620  175.0500  136.8500 C   0  0  0  0  0  2  0  0  0  0  0  0
  194.3260  175.1960  136.4280 C   0  0  1  0  0  3  0  0  0  0  0  0
  194.5910  176.5230  136.0770 O   0  0  0  0  0  1  0  0  0  0  0  0
  196.4720  171.4520  137.2730 N   0  0  0  0  0  0  0  0  0  0  0  0
  198.1110  175.2250  139.2680 O   0  0  0  0  0  1  0  0  0  0  0  0
  195.2970  174.6700  137.5120 C   0  0  1  0  0  0  0  0  0  0  0  0
  197.1610  174.9240  135.9310 O   0  0  0  0  0  1  0  0  0  0  0  0
  196.7790  175.0740  137.2690 C   0  0  2  0  0  3  0  0  0  0  0  0
  195.6740  172.5100  136.7010 C   0  0  0  0  0  2  0  0  0  0  0  0
  198.9490  173.6450  137.6520 C   0  0  1  0  0  3  0  0  0  0  0  0
  197.7620  171.4540  137.2630 C   0  0  0  0  0  3  0  0  0  0  0  0
  197.7210  174.3510  138.2510 C   0  0  1  0  0  3  0  0  0  0  0  0
  194.9280  175.2980  138.6900 F   0  0  0  0  0  0  0  0  0  0  0  0
  198.5780  172.5530  136.6420 C   0  0  0  0  0  2  0  0  0  0  0  0
  195.1130  173.2790  137.7360 O   0  0  0  0  0  0  0  0  0  0  0  0
  199.8450  174.6050  137.0550 N   0  0  0  0  0  0  0  0  0  0  0  0
  200.2260  174.4800  135.8370 C   0  0  0  0  0  2  0  0  0  0  0  0
  1 13  3  0  0  0  0
  2 18  1  0  0  0  0
  4  5  2  0  0  0  0
  5  9  1  0  0  0  0
  6 17  1  6  0  0  0
  6  7  1  0  0  0  0
  7  9  1  0  0  0  0
 10 22  1  0  0  0  0
 11  4  1  0  0  0  0
 11  6  1  0  0  0  0
 12 14  1  0  0  0  0
 14 22  2  0  0  0  0
 15 33  1  1  0  0  0
 15 17  1  0  0  0  0
 16  2  1  0  0  0  0
 18 19  1  0  0  0  0
 19  3  1  1  0  0  0
 19  8  1  0  0  0  0
 20 10  2  0  0  0  0
 21 38  1  6  0  0  0
 21 16  1  0  0  0  0
 22  1  1  0  0  0  0
 23  8  1  6  0  0  0
 23 11  1  0  0  0  0
 24 13  1  6  0  0  0
 24 23  1  0  0  0  0
 24 15  1  0  0  0  0
 25 26  1  0  0  0  0
 25 21  1  0  0  0  0
 26 12  1  0  0  0  0
 27 12  2  0  0  0  0
 27 20  1  0  0  0  0
 28 33  2  0  0  0  0
 29 34  1  6  0  0  0
 29 31  1  0  0  0  0
 31 30  1  0  0  0  0
 32 28  1  0  0  0  0
 32 29  1  0  0  0  0
 33 30  1  0  0  0  0
 34 35  1  0  0  0  0
 36 34  1  0  0  0  0
 36 35  1  0  0  0  0
 38 37  1  6  0  0  0
 38 39  1  0  0  0  0
 40 41  1  1  0  0  0
 40 39  1  0  0  0  0
 40 44  1  0  0  0  0
 44 53  1  0  0  0  0
 44 51  1  1  0  0  0
 46 45  1  6  0  0  0
 46 44  1  0  0  0  0
 46 50  1  0  0  0  0
 47 42  1  0  0  0  0
 47 53  1  0  0  0  0
 48 54  1  6  0  0  0
 48 50  1  0  0  0  0
 49 42  2  0  0  0  0
 50 43  1  1  0  0  0
 52 49  1  0  0  0  0
 52 48  1  0  0  0  0
 55 54  2  0  0  0  0
M  END
>  <MODEL>
3

>  <REMARK>
 VINA RESULT:      -8.7      4.781     10.309
  Name = 
  7 active torsions:
  status: ('A' for Active; 'I' for Inactive)
    1  A    between atoms: C_6  and  C_20
    2  A    between atoms: C_8  and  C_22
    3  A    between atoms: C_8  and  C_43
    4  A    between atoms: C_10  and  C_32
    5  A    between atoms: N_11  and  C_29
    6  A    between atoms: C_20  and  C_22
    7  A    between atoms: C_33  and  C_52
                            x       y       z     vdW  Elec       q    Type
                         _______ _______ _______ _____ _____    ______ ____

>  <TORSDO>
F 7

$$$$
=
 OpenBabel10272401343D

 55 61  0  0  1  0  0  0  0  0999 V2000
  185.7210  178.0190  138.0630 C   0  0  0  0  0  0  0  0  0  0  0  0
  189.3740  177.1890  139.7710 C   0  0  0  0  0  2  0  0  0  0  0  0
  188.4940  178.1920  142.4670 O   0  0  0  0  0  1  0  0  0  0  0  0
  185.6920  179.0000  143.9510 C   0  0  0  0  0  3  0  0  0  0  0  0
  185.1650  179.0230  145.1730 C   0  0  0  0  0  3  0  0  0  0  0  0
  183.4500  178.4320  142.9860 C   0  0  2  0  0  3  0  0  0  0  0  0
  182.8830  179.0700  144.2530 C   0  0  0  0  0  2  0  0  0  0  0  0
  186.7380  179.1990  141.4120 O   0  0  0  0  0  0  0  0  0  0  0  0
  183.7830  178.9040  145.3450 O   0  0  0  0  0  0  0  0  0  0  0  0
  186.0870  178.0960  135.6320 C   0  0  0  0  0  3  0  0  0  0  0  0
  184.8590  178.8200  142.7930 N   0  0  0  0  0  0  0  0  0  0  0  0
  188.1240  176.1910  135.8800 C   0  0  0  0  0  0  0  0  0  0  0  0
  185.2060  178.4230  139.0740 C   0  0  0  0  0  0  0  0  0  0  0  0
  187.3970  176.5920  137.0030 C   0  0  0  0  0  3  0  0  0  0  0  0
  183.1890  178.3780  140.4990 C   0  0  2  0  0  3  0  0  0  0  0  0
  190.0580  177.3630  138.4280 C   0  0  0  0  0  2  0  0  0  0  0  0
  182.6020  178.8850  141.8080 C   0  0  0  0  0  2  0  0  0  0  0  0
  188.5740  178.4350  140.0960 C   0  0  0  0  0  2  0  0  0  0  0  0
  187.7030  178.1910  141.3170 C   0  0  1  0  0  3  0  0  0  0  0  0
  186.8040  177.6870  134.5030 C   0  0  0  0  0  3  0  0  0  0  0  0
  190.6280  176.0320  137.9660 C   0  0  1  0  0  3  0  0  0  0  0  0
  186.3850  177.5470  136.8840 C   0  0  0  0  0  0  0  0  0  0  0  0
  185.5080  178.5280  141.5060 C   0  0  1  0  0  3  0  0  0  0  0  0
  184.6110  178.9250  140.3230 C   0  0  1  0  0  3  0  0  0  0  0  0
  190.5350  175.9180  136.4450 C   0  0  0  0  0  2  0  0  0  0  0  0
  189.2470  175.2180  136.0250 C   0  0  0  0  0  2  0  0  0  0  0  0
  187.8270  176.7400  134.6280 C   0  0  0  0  0  3  0  0  0  0  0  0
  181.9830  180.0860  139.2280 C   0  0  0  0  0  3  0  0  0  0  0  0
  181.1500  179.5960  136.9270 C   0  0  2  0  0  3  0  0  0  0  0  0
  181.8360  177.8420  138.4490 O   0  0  0  0  0  0  0  0  0  0  0  0
  180.9060  178.1710  137.4150 C   0  0  0  0  0  2  0  0  0  0  0  0
  181.0650  180.5360  138.1290 C   0  0  0  0  0  2  0  0  0  0  0  0
  182.2930  178.7950  139.3750 C   0  0  0  0  0  0  0  0  0  0  0  0
  180.1040  179.9800  135.8970 C   0  0  0  0  0  3  0  0  0  0  0  0
  180.7590  180.1290  134.5380 C   0  0  0  0  0  2  0  0  0  0  0  0
  180.4170  181.3590  135.3500 C   0  0  0  0  0  2  0  0  0  0  0  0
  192.4360  176.9240  139.3240 O   0  0  0  0  0  1  0  0  0  0  0  0
  192.0660  175.8780  138.4740 C   0  0  2  0  0  3  0  0  0  0  0  0
  193.0780  175.6840  137.3420 C   0  0  0  0  0  2  0  0  0  0  0  0
  193.7420  174.3060  137.3570 C   0  0  1  0  0  3  0  0  0  0  0  0
  192.8100  173.3240  137.0090 O   0  0  0  0  0  1  0  0  0  0  0  0
  198.0190  175.2280  137.7910 N   0  0  0  0  0  0  0  0  0  0  0  0
  196.8840  172.4380  134.3520 O   0  0  0  0  0  1  0  0  0  0  0  0
  195.0040  174.2590  136.4630 C   0  0  1  0  0  0  0  0  0  0  0  0
  195.7260  172.2200  137.6290 O   0  0  0  0  0  1  0  0  0  0  0  0
  195.6580  172.8500  136.3810 C   0  0  2  0  0  3  0  0  0  0  0  0
  196.6080  174.9990  137.9930 C   0  0  0  0  0  2  0  0  0  0  0  0
  198.2100  172.2300  136.3540 C   0  0  1  0  0  3  0  0  0  0  0  0
  198.8810  174.2760  137.6680 C   0  0  0  0  0  3  0  0  0  0  0  0
  197.0180  172.9100  135.6590 C   0  0  1  0  0  3  0  0  0  0  0  0
  194.5700  174.5440  135.1790 F   0  0  0  0  0  0  0  0  0  0  0  0
  198.5130  172.8210  137.7360 C   0  0  0  0  0  2  0  0  0  0  0  0
  195.9150  175.2940  136.8070 O   0  0  0  0  0  0  0  0  0  0  0  0
  197.9990  170.8060  136.4450 N   0  0  0  0  0  0  0  0  0  0  0  0
  198.5940  170.1100  137.3430 C   0  0  0  0  0  2  0  0  0  0  0  0
  1 13  3  0  0  0  0
  2 18  1  0  0  0  0
  4  5  2  0  0  0  0
  5  9  1  0  0  0  0
  6 17  1  6  0  0  0
  6  7  1  0  0  0  0
  7  9  1  0  0  0  0
 10 22  1  0  0  0  0
 11  6  1  0  0  0  0
 11  4  1  0  0  0  0
 12 26  1  0  0  0  0
 12 14  1  0  0  0  0
 15 33  1  6  0  0  0
 15 17  1  0  0  0  0
 16  2  1  0  0  0  0
 18 19  1  0  0  0  0
 19  8  1  0  0  0  0
 19  3  1  1  0  0  0
 20 27  1  0  0  0  0
 20 10  2  0  0  0  0
 21 16  1  0  0  0  0
 21 38  1  6  0  0  0
 22 14  2  0  0  0  0
 22  1  1  0  0  0  0
 23  8  1  6  0  0  0
 23 11  1  0  0  0  0
 24 13  1  6  0  0  0
 24 15  1  0  0  0  0
 24 23  1  0  0  0  0
 25 21  1  0  0  0  0
 26 25  1  0  0  0  0
 27 12  2  0  0  0  0
 28 33  2  0  0  0  0
 29 34  1  6  0  0  0
 29 31  1  0  0  0  0
 29 32  1  0  0  0  0
 30 33  1  0  0  0  0
 31 30  1  0  0  0  0
 32 28  1  0  0  0  0
 35 36  1  0  0  0  0
 35 34  1  0  0  0  0
 36 34  1  0  0  0  0
 38 37  1  6  0  0  0
 39 40  1  0  0  0  0
 39 38  1  0  0  0  0
 40 41  1  6  0  0  0
 42 47  1  0  0  0  0
 44 51  1  6  0  0  0
 44 53  1  0  0  0  0
 44 40  1  0  0  0  0
 46 44  1  0  0  0  0
 46 45  1  1  0  0  0
 48 54  1  1  0  0  0
 48 52  1  0  0  0  0
 49 52  1  0  0  0  0
 49 42  2  0  0  0  0
 50 43  1  6  0  0  0
 50 48  1  0  0  0  0
 50 46  1  0  0  0  0
 53 47  1  0  0  0  0
 54 55  2  0  0  0  0
M  END
>  <MODEL>
4

>  <REMARK>
 VINA RESULT:      -8.3      4.520     11.102
  Name = 
  7 active torsions:
  status: ('A' for Active; 'I' for Inactive)
    1  A    between atoms: C_6  and  C_20
    2  A    between atoms: C_8  and  C_22
    3  A    between atoms: C_8  and  C_43
    4  A    between atoms: C_10  and  C_32
    5  A    between atoms: N_11  and  C_29
    6  A    between atoms: C_20  and  C_22
    7  A    between atoms: C_33  and  C_52
                            x       y       z     vdW  Elec       q    Type
                         _______ _______ _______ _____ _____    ______ ____

>  <TORSDO>
F 7

$$$$
=
 OpenBabel10272401343D

 55 61  0  0  1  0  0  0  0  0999 V2000
  187.1880  177.7490  138.7650 C   0  0  0  0  0  0  0  0  0  0  0  0
  190.9830  176.4360  139.6700 C   0  0  0  0  0  2  0  0  0  0  0  0
  190.7040  177.2010  142.5660 O   0  0  0  0  0  1  0  0  0  0  0  0
  188.3080  178.0640  144.6200 C   0  0  0  0  0  3  0  0  0  0  0  0
  188.0120  177.9930  145.9160 C   0  0  0  0  0  3  0  0  0  0  0  0
  185.8840  177.7940  144.0440 C   0  0  2  0  0  3  0  0  0  0  0  0
  185.6200  178.3300  145.4500 C   0  0  0  0  0  2  0  0  0  0  0  0
  188.9000  178.4600  141.9600 O   0  0  0  0  0  0  0  0  0  0  0  0
  186.6790  177.9700  146.3320 O   0  0  0  0  0  0  0  0  0  0  0  0
  187.1200  178.0660  136.3280 C   0  0  0  0  0  3  0  0  0  0  0  0
  187.2680  178.0840  143.6270 N   0  0  0  0  0  0  0  0  0  0  0  0
  188.9650  175.9850  136.0060 C   0  0  0  0  0  0  0  0  0  0  0  0
  186.9050  178.0780  139.8890 C   0  0  0  0  0  0  0  0  0  0  0  0
  188.4940  176.3170  137.2790 C   0  0  0  0  0  3  0  0  0  0  0  0
  185.1800  178.0400  141.6570 C   0  0  2  0  0  3  0  0  0  0  0  0
  191.4310  176.7030  138.2450 C   0  0  0  0  0  2  0  0  0  0  0  0
  184.8900  178.4430  143.0950 C   0  0  0  0  0  2  0  0  0  0  0  0
  190.3850  177.7000  140.2570 C   0  0  0  0  0  2  0  0  0  0  0  0
  189.7250  177.3920  141.5900 C   0  0  1  0  0  3  0  0  0  0  0  0
  187.5790  177.7300  135.0500 C   0  0  0  0  0  3  0  0  0  0  0  0
  191.7720  175.3900  137.5600 C   0  0  1  0  0  3  0  0  0  0  0  0
  187.5800  177.3590  137.4430 C   0  0  0  0  0  0  0  0  0  0  0  0
  187.6450  177.8850  142.2190 C   0  0  1  0  0  3  0  0  0  0  0  0
  186.5960  178.4850  141.2690 C   0  0  1  0  0  3  0  0  0  0  0  0
  191.3990  175.4550  136.0800 C   0  0  0  0  0  2  0  0  0  0  0  0
  189.9920  174.9140  135.8450 C   0  0  0  0  0  2  0  0  0  0  0  0
  188.5070  176.6940  134.8900 C   0  0  0  0  0  3  0  0  0  0  0  0
  182.8560  178.3490  140.9550 C   0  0  0  0  0  3  0  0  0  0  0  0
  182.2210  180.2810  139.5070 C   0  0  2  0  0  3  0  0  0  0  0  0
  184.5220  179.5800  139.7820 O   0  0  0  0  0  0  0  0  0  0  0  0
  183.5870  180.1200  138.8460 C   0  0  0  0  0  2  0  0  0  0  0  0
  181.7940  178.9220  140.0630 C   0  0  0  0  0  2  0  0  0  0  0  0
  184.1450  178.6510  140.7650 C   0  0  0  0  0  0  0  0  0  0  0  0
  181.2040  180.7640  138.4890 C   0  0  0  0  0  3  0  0  0  0  0  0
  181.0120  182.2610  138.6360 C   0  0  0  0  0  2  0  0  0  0  0  0
  179.9870  181.3080  139.2120 C   0  0  0  0  0  2  0  0  0  0  0  0
  193.9400  176.1130  138.3900 O   0  0  0  0  0  1  0  0  0  0  0  0
  193.2550  175.0620  137.7710 C   0  0  2  0  0  3  0  0  0  0  0  0
  193.9520  174.6100  136.4870 C   0  0  0  0  0  2  0  0  0  0  0  0
  194.5470  173.2050  136.5870 C   0  0  1  0  0  3  0  0  0  0  0  0
  193.6090  172.2580  136.1650 O   0  0  0  0  0  1  0  0  0  0  0  0
  198.5410  175.0340  136.7950 N   0  0  0  0  0  0  0  0  0  0  0  0
  198.2550  171.0280  134.6110 O   0  0  0  0  0  1  0  0  0  0  0  0
  195.8860  173.0850  135.8200 C   0  0  1  0  0  0  0  0  0  0  0  0
  196.8140  171.7860  137.6890 O   0  0  0  0  0  1  0  0  0  0  0  0
  196.7720  171.8970  136.2940 C   0  0  2  0  0  3  0  0  0  0  0  0
  197.1750  174.6240  137.0180 C   0  0  0  0  0  2  0  0  0  0  0  0
  199.3800  171.8180  136.5900 C   0  0  1  0  0  3  0  0  0  0  0  0
  199.5580  174.2880  137.0670 C   0  0  0  0  0  3  0  0  0  0  0  0
  198.1710  171.9550  135.6500 C   0  0  1  0  0  3  0  0  0  0  0  0
  195.5480  172.7980  134.5080 F   0  0  0  0  0  0  0  0  0  0  0  0
  199.4330  172.9130  137.6620 C   0  0  0  0  0  2  0  0  0  0  0  0
  196.5700  174.3300  135.7840 O   0  0  0  0  0  0  0  0  0  0  0  0
  199.4030  170.5100  137.2000 N   0  0  0  0  0  0  0  0  0  0  0  0
  200.1490  169.5790  136.7320 C   0  0  0  0  0  2  0  0  0  0  0  0
  1 13  3  0  0  0  0
  2 18  1  0  0  0  0
  4  5  2  0  0  0  0
  5  9  1  0  0  0  0
  6 17  1  6  0  0  0
  6  7  1  0  0  0  0
  7  9  1  0  0  0  0
 10 22  1  0  0  0  0
 11  6  1  0  0  0  0
 11  4  1  0  0  0  0
 12 14  1  0  0  0  0
 14 22  2  0  0  0  0
 15 33  1  6  0  0  0
 15 17  1  0  0  0  0
 16  2  1  0  0  0  0
 18 19  1  0  0  0  0
 19  8  1  0  0  0  0
 19  3  1  1  0  0  0
 20 10  2  0  0  0  0
 21 38  1  6  0  0  0
 21 16  1  0  0  0  0
 22  1  1  0  0  0  0
 23  8  1  1  0  0  0
 23 11  1  0  0  0  0
 24 13  1  6  0  0  0
 24 15  1  0  0  0  0
 24 23  1  0  0  0  0
 25 21  1  0  0  0  0
 26 12  1  0  0  0  0
 26 25  1  0  0  0  0
 27 20  1  0  0  0  0
 27 12  2  0  0  0  0
 29 34  1  6  0  0  0
 29 32  1  0  0  0  0
 30 33  1  0  0  0  0
 31 29  1  0  0  0  0
 31 30  1  0  0  0  0
 32 28  1  0  0  0  0
 33 28  2  0  0  0  0
 34 35  1  0  0  0  0
 34 36  1  0  0  0  0
 35 36  1  0  0  0  0
 38 37  1  6  0  0  0
 39 40  1  0  0  0  0
 39 38  1  0  0  0  0
 40 41  1  6  0  0  0
 42 47  1  0  0  0  0
 42 49  2  0  0  0  0
 44 51  1  6  0  0  0
 44 46  1  0  0  0  0
 44 40  1  0  0  0  0
 46 45  1  1  0  0  0
 48 54  1  1  0  0  0
 48 52  1  0  0  0  0
 49 52  1  0  0  0  0
 50 43  1  6  0  0  0
 50 46  1  0  0  0  0
 50 48  1  0  0  0  0
 53 44  1  0  0  0  0
 53 47  1  0  0  0  0
 55 54  2  0  0  0  0
M  END
>  <MODEL>
5

>  <REMARK>
 VINA RESULT:      -7.7      4.956     11.182
  Name = 
  7 active torsions:
  status: ('A' for Active; 'I' for Inactive)
    1  A    between atoms: C_6  and  C_20
    2  A    between atoms: C_8  and  C_22
    3  A    between atoms: C_8  and  C_43
    4  A    between atoms: C_10  and  C_32
    5  A    between atoms: N_11  and  C_29
    6  A    between atoms: C_20  and  C_22
    7  A    between atoms: C_33  and  C_52
                            x       y       z     vdW  Elec       q    Type
                         _______ _______ _______ _____ _____    ______ ____

>  <TORSDO>
F 7

$$$$
=
 OpenBabel10272401343D

 55 61  0  0  1  0  0  0  0  0999 V2000
  185.3080  174.1120  136.5440 C   0  0  0  0  0  0  0  0  0  0  0  0
  187.9280  176.9540  137.9610 C   0  0  0  0  0  2  0  0  0  0  0  0
  185.6960  178.7870  138.8030 O   0  0  0  0  0  1  0  0  0  0  0  0
  182.4560  178.6180  139.2240 C   0  0  0  0  0  3  0  0  0  0  0  0
  181.5020  179.1800  139.9630 C   0  0  0  0  0  3  0  0  0  0  0  0
  181.2200  176.4390  139.2710 C   0  0  2  0  0  3  0  0  0  0  0  0
  179.9820  177.2910  139.5430 C   0  0  0  0  0  2  0  0  0  0  0  0
  184.3060  177.5370  137.4940 O   0  0  0  0  0  0  0  0  0  0  0  0
  180.3330  178.4740  140.2560 O   0  0  0  0  0  0  0  0  0  0  0  0
  186.5960  172.6690  135.0250 C   0  0  0  0  0  3  0  0  0  0  0  0
  182.3190  177.2700  138.7450 N   0  0  0  0  0  0  0  0  0  0  0  0
  188.8960  173.1070  136.5610 C   0  0  0  0  0  0  0  0  0  0  0  0
  184.3080  174.7090  136.8510 C   0  0  0  0  0  0  0  0  0  0  0  0
  187.6750  173.6610  136.9500 C   0  0  0  0  0  3  0  0  0  0  0  0
  182.0630  174.5480  137.8680 C   0  0  2  0  0  3  0  0  0  0  0  0
  188.9880  176.4860  136.9810 C   0  0  0  0  0  2  0  0  0  0  0  0
  180.8400  175.3570  138.2720 C   0  0  0  0  0  2  0  0  0  0  0  0
  186.6610  177.3030  137.2050 C   0  0  0  0  0  2  0  0  0  0  0  0
  185.5240  177.5490  138.1820 C   0  0  1  0  0  3  0  0  0  0  0  0
  187.8140  172.1010  134.6380 C   0  0  0  0  0  3  0  0  0  0  0  0
  190.1550  175.8760  137.7400 C   0  0  1  0  0  3  0  0  0  0  0  0
  186.5280  173.4510  136.1830 C   0  0  0  0  0  0  0  0  0  0  0  0
  183.5030  176.6080  138.1770 C   0  0  1  0  0  3  0  0  0  0  0  0
  183.1050  175.4700  137.2230 C   0  0  1  0  0  3  0  0  0  0  0  0
  190.7560  174.7200  136.9420 C   0  0  0  0  0  2  0  0  0  0  0  0
  190.1310  173.3890  137.3490 C   0  0  0  0  0  2  0  0  0  0  0  0
  188.9660  172.3260  135.4010 C   0  0  0  0  0  3  0  0  0  0  0  0
  182.3260  172.3160  136.8980 C   0  0  0  0  0  3  0  0  0  0  0  0
  180.4430  171.2480  135.6560 C   0  0  2  0  0  3  0  0  0  0  0  0
  180.4800  173.6190  136.1500 O   0  0  0  0  0  0  0  0  0  0  0  0
  180.0820  172.6520  135.1760 C   0  0  0  0  0  2  0  0  0  0  0  0
  181.9410  171.2150  135.9550 C   0  0  0  0  0  2  0  0  0  0  0  0
  181.6350  173.4600  136.9340 C   0  0  0  0  0  0  0  0  0  0  0  0
  180.1070  170.2290  134.5830 C   0  0  0  0  0  3  0  0  0  0  0  0
  179.9820  168.8540  135.2110 C   0  0  0  0  0  2  0  0  0  0  0  0
  181.2430  169.2310  134.4640 C   0  0  0  0  0  2  0  0  0  0  0  0
  192.2150  177.0040  137.1110 O   0  0  0  0  0  1  0  0  0  0  0  0
  191.1900  176.9610  138.0620 C   0  0  2  0  0  3  0  0  0  0  0  0
  191.7420  176.8510  139.4840 C   0  0  0  0  0  2  0  0  0  0  0  0
  190.9470  177.6690  140.5030 C   0  0  1  0  0  3  0  0  0  0  0  0
  189.8930  178.3310  139.8660 O   0  0  0  0  0  1  0  0  0  0  0  0
  191.7020  177.4470  144.8300 N   0  0  0  0  0  0  0  0  0  0  0  0
  187.8280  175.5280  143.3450 O   0  0  0  0  0  1  0  0  0  0  0  0
  190.4620  176.8050  141.6920 C   0  0  1  0  0  0  0  0  0  0  0  0
  189.0360  178.6640  142.4330 O   0  0  0  0  0  1  0  0  0  0  0  0
  189.1060  177.2730  142.2910 C   0  0  2  0  0  3  0  0  0  0  0  0
  191.6630  177.8040  143.4310 C   0  0  0  0  0  2  0  0  0  0  0  0
  188.3740  177.3610  144.8120 C   0  0  1  0  0  3  0  0  0  0  0  0
  190.7320  177.6790  145.6480 C   0  0  0  0  0  3  0  0  0  0  0  0
  188.7820  176.5160  143.5940 C   0  0  1  0  0  3  0  0  0  0  0  0
  190.2250  175.5430  141.1720 F   0  0  0  0  0  0  0  0  0  0  0  0
  189.4570  178.3600  145.2380 C   0  0  0  0  0  2  0  0  0  0  0  0
  191.4900  176.6420  142.6600 O   0  0  0  0  0  0  0  0  0  0  0  0
  187.1260  178.0410  144.5620 N   0  0  0  0  0  0  0  0  0  0  0  0
  186.1800  178.0170  145.4270 C   0  0  0  0  0  2  0  0  0  0  0  0
  1 13  3  0  0  0  0
  4  5  2  0  0  0  0
  5  9  1  0  0  0  0
  6 17  1  6  0  0  0
  6  7  1  0  0  0  0
  7  9  1  0  0  0  0
  8 19  1  0  0  0  0
 10 22  1  0  0  0  0
 11  4  1  0  0  0  0
 11  6  1  0  0  0  0
 12 14  1  0  0  0  0
 12 26  1  0  0  0  0
 15 33  1  6  0  0  0
 15 17  1  0  0  0  0
 16 21  1  0  0  0  0
 16  2  1  0  0  0  0
 18  2  1  0  0  0  0
 18 19  1  0  0  0  0
 19  3  1  6  0  0  0
 20 10  2  0  0  0  0
 20 27  1  0  0  0  0
 21 38  1  6  0  0  0
 22  1  1  0  0  0  0
 22 14  2  0  0  0  0
 23  8  1  6  0  0  0
 23 11  1  0  0  0  0
 24 13  1  1  0  0  0
 24 15  1  0  0  0  0
 24 23  1  0  0  0  0
 25 26  1  0  0  0  0
 25 21  1  0  0  0  0
 27 12  2  0  0  0  0
 28 33  2  0  0  0  0
 29 34  1  6  0  0  0
 29 32  1  0  0  0  0
 30 33  1  0  0  0  0
 31 29  1  0  0  0  0
 31 30  1  0  0  0  0
 32 28  1  0  0  0  0
 34 35  1  0  0  0  0
 36 34  1  0  0  0  0
 36 35  1  0  0  0  0
 38 37  1  6  0  0  0
 38 39  1  0  0  0  0
 39 40  1  0  0  0  0
 40 41  1  6  0  0  0
 40 44  1  0  0  0  0
 42 49  2  0  0  0  0
 44 51  1  6  0  0  0
 44 46  1  0  0  0  0
 44 53  1  0  0  0  0
 46 45  1  1  0  0  0
 46 50  1  0  0  0  0
 47 42  1  0  0  0  0
 48 54  1  6  0  0  0
 48 52  1  0  0  0  0
 50 43  1  6  0  0  0
 50 48  1  0  0  0  0
 52 49  1  0  0  0  0
 53 47  1  0  0  0  0
 54 55  2  0  0  0  0
M  END
>  <MODEL>
6

>  <REMARK>
 VINA RESULT:      -6.8      3.010     10.709
  Name = 
  7 active torsions:
  status: ('A' for Active; 'I' for Inactive)
    1  A    between atoms: C_6  and  C_20
    2  A    between atoms: C_8  and  C_22
    3  A    between atoms: C_8  and  C_43
    4  A    between atoms: C_10  and  C_32
    5  A    between atoms: N_11  and  C_29
    6  A    between atoms: C_20  and  C_22
    7  A    between atoms: C_33  and  C_52
                            x       y       z     vdW  Elec       q    Type
                         _______ _______ _______ _____ _____    ______ ____

>  <TORSDO>
F 7

$$$$
