=
 OpenBabel10272414443D

 43 47  0  0  1  0  0  0  0  0999 V2000
  183.3540  178.0760  138.5380 C   0  0  0  0  0  0  0  0  0  0  0  0
  184.0030  177.1100  137.8720 C   0  0  0  0  0  3  0  0  0  0  0  0
  186.3130  177.0670  135.6000 C   0  0  0  0  0  2  0  0  0  0  0  0
  185.6170  174.5570  137.2390 C   0  0  2  0  0  3  0  0  0  0  0  0
  184.4420  173.7310  137.8370 C   0  0  1  0  0  3  0  0  0  0  0  0
  186.7060  175.6490  135.2800 C   0  0  0  0  0  0  0  0  0  0  0  0
  187.6350  175.4510  134.3460 C   0  0  0  0  0  2  0  0  0  0  0  0
  182.9290  175.3430  136.4010 C   0  0  2  0  0  3  0  0  0  0  0  0
  185.8880  174.4690  135.7450 C   0  0  1  0  0  3  0  0  0  0  0  0
  185.0820  177.4770  134.8490 C   0  0  0  0  0  3  0  0  0  0  0  0
  183.0480  174.3400  137.5630 C   0  0  1  0  0  3  0  0  0  0  0  0
  186.6910  173.6270  136.7220 C   0  0  0  0  0  2  0  0  0  0  0  0
  182.6710  177.3800  134.4150 C   0  0  0  0  0  2  0  0  0  0  0  0
  183.8540  177.2760  135.3330 C   0  0  0  0  0  0  0  0  0  0  0  0
  181.3830  176.9560  135.1480 C   0  0  0  0  0  2  0  0  0  0  0  0
  183.6590  176.5910  136.5730 N   0  0  0  0  0  0  0  0  0  0  0  0
  181.5020  175.6110  135.9070 C   0  0  0  0  0  2  0  0  0  0  0  0
  183.3840  172.9230  137.0680 C   0  0  1  0  0  3  0  0  0  0  0  0
  183.6240  172.7550  135.5660 C   0  0  0  0  0  2  0  0  0  0  0  0
  183.7820  171.2850  135.2130 C   0  0  0  0  0  2  0  0  0  0  0  0
  185.9350  170.2760  135.4360 O   0  0  0  0  0  1  0  0  0  0  0  0
  185.1310  171.0160  134.5680 C   0  0  0  0  0  2  0  0  0  0  0  0
  183.9250  178.5110  139.8520 C   0  0  0  0  0  2  0  0  0  0  0  0
  187.6500  178.4310  141.0170 C   0  0  0  0  0  0  0  0  0  0  0  0
  188.2730  178.2170  139.6960 C   0  0  0  0  0  0  0  0  0  0  0  0
  190.0170  178.1090  139.5350 Cl  0  0  0  0  0  0  0  0  0  0  0  0
  186.0470  178.1950  138.6870 C   0  0  0  0  0  3  0  0  0  0  0  0
  186.1550  178.4930  141.1600 C   0  0  0  0  0  2  0  0  0  0  0  0
  185.4120  178.3690  139.8530 C   0  0  0  0  0  0  0  0  0  0  0  0
  188.3690  178.5560  142.0430 O   0  0  0  0  0  0  0  0  0  0  0  0
  187.5140  178.1060  138.6080 C   0  0  0  0  0  3  0  0  0  0  0  0
  182.0430  178.6490  138.0720 C   0  0  1  0  0  3  0  0  0  0  0  0
  180.8750  177.9260  138.7510 C   0  0  1  0  0  3  0  0  0  0  0  0
  181.2620  176.7110  139.3360 O   0  0  0  0  0  1  0  0  0  0  0  0
  180.1530  178.7490  139.6430 O   0  0  0  0  0  0  0  0  0  0  0  0
  180.2980  178.2490  140.9470 C   0  0  0  0  0  2  0  0  0  0  0  0
  180.9750  179.2890  141.8150 C   0  0  0  0  0  2  0  0  0  0  0  0
  181.0450  178.7840  143.2410 C   0  0  0  0  0  2  0  0  0  0  0  0
  179.9820  177.9110  143.4760 O   0  0  0  0  0  1  0  0  0  0  0  0
  181.9810  180.0510  138.3140 O   0  0  0  0  0  0  0  0  0  0  0  0
  180.8800  182.2180  137.9680 N   0  0  0  0  0  1  0  0  0  0  0  0
  181.2280  180.9120  137.5160 C   0  0  0  0  0  0  0  0  0  0  0  0
  180.8580  180.5330  136.3750 O   0  0  0  0  0  0  0  0  0  0  0  0
  1 23  1  0  0  0  0
  2  1  2  0  0  0  0
  4 12  1  1  0  0  0
  4  5  1  0  0  0  0
  6  3  1  0  0  0  0
  6  9  1  0  0  0  0
  7  6  2  0  0  0  0
  8 16  1  0  0  0  0
  8 11  1  0  0  0  0
  9 12  1  0  0  0  0
  9  4  1  0  0  0  0
 10 14  2  0  0  0  0
 10  3  1  0  0  0  0
 11  5  1  0  0  0  0
 13 15  1  0  0  0  0
 13 14  1  0  0  0  0
 14 16  1  0  0  0  0
 15 17  1  0  0  0  0
 16  2  1  0  0  0  0
 17  8  1  0  0  0  0
 18 11  1  0  0  0  0
 18  5  1  0  0  0  0
 19 18  1  0  0  0  0
 20 19  1  0  0  0  0
 22 20  1  0  0  0  0
 22 21  1  0  0  0  0
 23 29  1  0  0  0  0
 24 28  1  0  0  0  0
 24 30  2  0  0  0  0
 25 24  1  0  0  0  0
 26 25  1  0  0  0  0
 27 29  2  0  0  0  0
 29 28  1  0  0  0  0
 31 27  1  0  0  0  0
 31 25  2  0  0  0  0
 32 40  1  0  0  0  0
 32  1  1  0  0  0  0
 32 33  1  0  0  0  0
 33 34  1  0  0  0  0
 33 35  1  0  0  0  0
 35 36  1  0  0  0  0
 36 37  1  0  0  0  0
 37 38  1  0  0  0  0
 38 39  1  0  0  0  0
 42 41  1  0  0  0  0
 42 40  1  0  0  0  0
 43 42  2  0  0  0  0
M  END
>  <MODEL>
1

>  <REMARK>
 VINA RESULT:      -4.5      0.000      0.000
  Name = 
  14 active torsions:
  status: ('A' for Active; 'I' for Inactive)
    1  A    between atoms: C_1  and  C_34
    2  A    between atoms: C_1  and  C_35
    3  A    between atoms: C_5  and  C_18
    4  A    between atoms: C_5  and  C_23
    5  A    between atoms: C_8  and  C_21
    6  A    between atoms: C_8  and  O_30
    7  A    between atoms: C_8  and  C_34
    8  A    between atoms: C_10  and  C_41
    9  A    between atoms: C_10  and  C_42
   10  A    between atoms: O_16  and  C_21
   11  A    between atoms: O_16  and  C_23
   12  A    between atoms: C_22  and  C_42
   13  A    between atoms: O_30  and  C_33
   14  A    between atoms: N_36  and  C_38
                            x       y       z     vdW  Elec       q    Type
                         _______ _______ _______ _____ _____    ______ ____

>  <TORSDO>
F 14

$$$$
=
 OpenBabel10272414443D

 43 47  0  0  1  0  0  0  0  0999 V2000
  190.8770  175.8670  138.5170 C   0  0  0  0  0  0  0  0  0  0  0  0
  189.6920  176.1080  137.9380 C   0  0  0  0  0  3  0  0  0  0  0  0
  188.9210  173.1040  136.9980 C   0  0  0  0  0  2  0  0  0  0  0  0
  186.7590  175.2040  137.6220 C   0  0  2  0  0  3  0  0  0  0  0  0
  186.3720  176.7010  137.4500 C   0  0  1  0  0  3  0  0  0  0  0  0
  187.4640  173.0310  136.6220 C   0  0  0  0  0  0  0  0  0  0  0  0
  186.9850  171.8650  136.1920 C   0  0  0  0  0  2  0  0  0  0  0  0
  188.4490  176.7750  135.8280 C   0  0  2  0  0  3  0  0  0  0  0  0
  186.6260  174.2710  136.4270 C   0  0  1  0  0  3  0  0  0  0  0  0
  189.7530  173.6300  135.8670 C   0  0  0  0  0  3  0  0  0  0  0  0
  187.4330  177.5370  136.6980 C   0  0  1  0  0  3  0  0  0  0  0  0
  185.5300  174.3340  137.4770 C   0  0  0  0  0  2  0  0  0  0  0  0
  190.5080  175.4250  134.3790 C   0  0  0  0  0  2  0  0  0  0  0  0
  189.9740  174.9340  135.6930 C   0  0  0  0  0  0  0  0  0  0  0  0
  190.5340  176.9660  134.3520 C   0  0  0  0  0  2  0  0  0  0  0  0
  189.3620  175.9010  136.5510 N   0  0  0  0  0  0  0  0  0  0  0  0
  189.2090  177.6280  134.8050 C   0  0  0  0  0  2  0  0  0  0  0  0
  186.0030  177.4250  136.1440 C   0  0  1  0  0  3  0  0  0  0  0  0
  185.8070  176.5370  134.9140 C   0  0  0  0  0  2  0  0  0  0  0  0
  184.3290  176.2650  134.6830 C   0  0  0  0  0  2  0  0  0  0  0  0
  182.1270  176.9840  135.2640 O   0  0  0  0  0  1  0  0  0  0  0  0
  183.4680  177.3690  135.2740 C   0  0  0  0  0  2  0  0  0  0  0  0
  190.9820  176.0910  139.9940 C   0  0  0  0  0  2  0  0  0  0  0  0
  187.9690  177.3070  142.1570 C   0  0  0  0  0  0  0  0  0  0  0  0
  187.4930  178.3800  141.2610 C   0  0  0  0  0  0  0  0  0  0  0  0
  186.0830  179.3370  141.6790 Cl  0  0  0  0  0  0  0  0  0  0  0  0
  189.3150  177.8540  139.7200 C   0  0  0  0  0  3  0  0  0  0  0  0
  189.1950  176.5070  141.8140 C   0  0  0  0  0  2  0  0  0  0  0  0
  189.8140  176.8800  140.4900 C   0  0  0  0  0  0  0  0  0  0  0  0
  187.3530  177.0560  143.2270 O   0  0  0  0  0  0  0  0  0  0  0  0
  188.1320  178.6310  140.1200 C   0  0  0  0  0  3  0  0  0  0  0  0
  192.1050  175.4890  137.7340 C   0  0  1  0  0  3  0  0  0  0  0  0
  192.8740  176.7460  137.3120 C   0  0  1  0  0  3  0  0  0  0  0  0
  193.7840  177.1730  138.2910 O   0  0  0  0  0  1  0  0  0  0  0  0
  193.4680  176.6330  136.0360 O   0  0  0  0  0  0  0  0  0  0  0  0
  194.8260  176.9780  136.1290 C   0  0  0  0  0  2  0  0  0  0  0  0
  195.6150  176.2060  135.0930 C   0  0  0  0  0  2  0  0  0  0  0  0
  196.5710  175.2620  135.7920 C   0  0  0  0  0  2  0  0  0  0  0  0
  197.6990  175.9700  136.2100 O   0  0  0  0  0  1  0  0  0  0  0  0
  192.9410  174.6110  138.4830 O   0  0  0  0  0  0  0  0  0  0  0  0
  193.6210  173.1950  136.5950 N   0  0  0  0  0  1  0  0  0  0  0  0
  193.8750  173.7730  137.8730 C   0  0  0  0  0  0  0  0  0  0  0  0
  194.9620  173.5300  138.4570 O   0  0  0  0  0  0  0  0  0  0  0  0
  1 23  1  0  0  0  0
  2  1  2  0  0  0  0
  4 12  1  1  0  0  0
  5  4  1  0  0  0  0
  6  3  1  0  0  0  0
  7  6  2  0  0  0  0
  8 16  1  0  0  0  0
  8 11  1  0  0  0  0
  9  6  1  0  0  0  0
  9 12  1  0  0  0  0
  9  4  1  0  0  0  0
 10  3  1  0  0  0  0
 11  5  1  0  0  0  0
 13 14  1  0  0  0  0
 14 10  2  0  0  0  0
 14 16  1  0  0  0  0
 15 13  1  0  0  0  0
 15 17  1  0  0  0  0
 16  2  1  0  0  0  0
 17  8  1  0  0  0  0
 18 11  1  0  0  0  0
 18  5  1  0  0  0  0
 19 18  1  0  0  0  0
 20 19  1  0  0  0  0
 20 22  1  0  0  0  0
 21 22  1  0  0  0  0
 23 29  1  0  0  0  0
 24 30  2  0  0  0  0
 25 26  1  0  0  0  0
 25 24  1  0  0  0  0
 27 31  1  0  0  0  0
 27 29  2  0  0  0  0
 28 24  1  0  0  0  0
 29 28  1  0  0  0  0
 31 25  2  0  0  0  0
 32 40  1  0  0  0  0
 32  1  1  0  0  0  0
 33 32  1  0  0  0  0
 33 34  1  0  0  0  0
 35 36  1  0  0  0  0
 35 33  1  0  0  0  0
 37 38  1  0  0  0  0
 37 36  1  0  0  0  0
 38 39  1  0  0  0  0
 41 42  1  0  0  0  0
 42 43  2  0  0  0  0
 42 40  1  0  0  0  0
M  END
>  <MODEL>
2

>  <REMARK>
 VINA RESULT:      -4.0      4.794      9.052
  Name = 
  14 active torsions:
  status: ('A' for Active; 'I' for Inactive)
    1  A    between atoms: C_1  and  C_34
    2  A    between atoms: C_1  and  C_35
    3  A    between atoms: C_5  and  C_18
    4  A    between atoms: C_5  and  C_23
    5  A    between atoms: C_8  and  C_21
    6  A    between atoms: C_8  and  O_30
    7  A    between atoms: C_8  and  C_34
    8  A    between atoms: C_10  and  C_41
    9  A    between atoms: C_10  and  C_42
   10  A    between atoms: O_16  and  C_21
   11  A    between atoms: O_16  and  C_23
   12  A    between atoms: C_22  and  C_42
   13  A    between atoms: O_30  and  C_33
   14  A    between atoms: N_36  and  C_38
                            x       y       z     vdW  Elec       q    Type
                         _______ _______ _______ _____ _____    ______ ____

>  <TORSDO>
F 14

$$$$
=
 OpenBabel10272414443D

 43 47  0  0  1  0  0  0  0  0999 V2000
  184.5930  178.1830  138.6010 C   0  0  0  0  0  0  0  0  0  0  0  0
  185.4530  177.5060  137.8260 C   0  0  0  0  0  3  0  0  0  0  0  0
  187.7950  177.6810  135.5930 C   0  0  0  0  0  2  0  0  0  0  0  0
  187.3000  175.1110  137.2130 C   0  0  2  0  0  3  0  0  0  0  0  0
  186.1940  174.1800  137.7880 C   0  0  1  0  0  3  0  0  0  0  0  0
  188.3200  176.3050  135.2760 C   0  0  0  0  0  0  0  0  0  0  0  0
  189.2780  176.1960  134.3570 C   0  0  0  0  0  2  0  0  0  0  0  0
  184.5670  175.6560  136.3310 C   0  0  2  0  0  3  0  0  0  0  0  0
  187.6030  175.0540  135.7230 C   0  0  1  0  0  3  0  0  0  0  0  0
  186.5450  177.9820  134.8230 C   0  0  0  0  0  3  0  0  0  0  0  0
  184.7560  174.6630  137.4920 C   0  0  1  0  0  3  0  0  0  0  0  0
  188.4620  174.2830  136.7110 C   0  0  0  0  0  2  0  0  0  0  0  0
  184.1610  177.6720  134.3480 C   0  0  0  0  0  2  0  0  0  0  0  0
  185.3330  177.6700  135.2850 C   0  0  0  0  0  0  0  0  0  0  0  0
  182.9040  177.1300  135.0570 C   0  0  0  0  0  2  0  0  0  0  0  0
  185.1790  176.9640  136.5190 N   0  0  0  0  0  0  0  0  0  0  0  0
  183.1300  175.7980  135.8140 C   0  0  0  0  0  2  0  0  0  0  0  0
  185.2260  173.2840  136.9980 C   0  0  1  0  0  3  0  0  0  0  0  0
  185.5050  173.1460  135.5000 C   0  0  0  0  0  2  0  0  0  0  0  0
  184.6100  172.0800  134.8870 C   0  0  0  0  0  2  0  0  0  0  0  0
  183.5500  170.3170  136.1000 O   0  0  0  0  0  1  0  0  0  0  0  0
  183.4930  171.6870  135.8390 C   0  0  0  0  0  2  0  0  0  0  0  0
  185.1100  178.7170  139.9010 C   0  0  0  0  0  2  0  0  0  0  0  0
  188.4780  177.6880  141.5840 C   0  0  0  0  0  0  0  0  0  0  0  0
  189.3270  177.7170  140.3770 C   0  0  0  0  0  0  0  0  0  0  0  0
  191.0400  177.3510  140.4780 Cl  0  0  0  0  0  0  0  0  0  0  0  0
  187.3700  178.3460  139.0560 C   0  0  0  0  0  3  0  0  0  0  0  0
  187.0040  177.9710  141.4930 C   0  0  0  0  0  2  0  0  0  0  0  0
  186.5360  178.3210  140.1030 C   0  0  0  0  0  0  0  0  0  0  0  0
  188.9820  177.4160  142.7060 O   0  0  0  0  0  0  0  0  0  0  0  0
  188.7990  178.0250  139.1940 C   0  0  0  0  0  3  0  0  0  0  0  0
  183.1340  178.3280  138.2660 C   0  0  1  0  0  3  0  0  0  0  0  0
  182.3310  177.1730  138.8720 C   0  0  1  0  0  3  0  0  0  0  0  0
  183.0090  176.5420  139.9260 O   0  0  0  0  0  1  0  0  0  0  0  0
  181.0100  177.5340  139.2200 O   0  0  0  0  0  0  0  0  0  0  0  0
  180.2170  176.3770  139.2750 C   0  0  0  0  0  2  0  0  0  0  0  0
  180.1440  175.7480  137.9000 C   0  0  0  0  0  2  0  0  0  0  0  0
  180.0840  174.2420  138.0390 C   0  0  0  0  0  2  0  0  0  0  0  0
  179.9820  173.6630  136.7730 O   0  0  0  0  0  1  0  0  0  0  0  0
  182.6290  179.5840  138.7090 O   0  0  0  0  0  0  0  0  0  0  0  0
  181.1950  179.8670  136.7350 N   0  0  0  0  0  1  0  0  0  0  0  0
  181.8260  180.3910  137.9000 C   0  0  0  0  0  0  0  0  0  0  0  0
  181.6500  181.5970  138.2110 O   0  0  0  0  0  0  0  0  0  0  0  0
  1 23  1  0  0  0  0
  2  1  2  0  0  0  0
  4 12  1  1  0  0  0
  4  5  1  0  0  0  0
  6  3  1  0  0  0  0
  6  9  1  0  0  0  0
  7  6  2  0  0  0  0
  8 16  1  0  0  0  0
  8 11  1  0  0  0  0
  9 12  1  0  0  0  0
  9  4  1  0  0  0  0
 10 14  2  0  0  0  0
 10  3  1  0  0  0  0
 11  5  1  0  0  0  0
 13 15  1  0  0  0  0
 13 14  1  0  0  0  0
 14 16  1  0  0  0  0
 15 17  1  0  0  0  0
 16  2  1  0  0  0  0
 17  8  1  0  0  0  0
 18 11  1  0  0  0  0
 18  5  1  0  0  0  0
 19 18  1  0  0  0  0
 20 19  1  0  0  0  0
 20 22  1  0  0  0  0
 22 21  1  0  0  0  0
 23 29  1  0  0  0  0
 24 30  2  0  0  0  0
 25 26  1  0  0  0  0
 25 24  1  0  0  0  0
 27 31  1  0  0  0  0
 27 29  2  0  0  0  0
 28 24  1  0  0  0  0
 29 28  1  0  0  0  0
 31 25  2  0  0  0  0
 32  1  1  0  0  0  0
 32 40  1  0  0  0  0
 32 33  1  0  0  0  0
 33 35  1  0  0  0  0
 33 34  1  0  0  0  0
 35 36  1  0  0  0  0
 37 38  1  0  0  0  0
 37 36  1  0  0  0  0
 39 38  1  0  0  0  0
 41 42  1  0  0  0  0
 42 43  2  0  0  0  0
 42 40  1  0  0  0  0
M  END
>  <MODEL>
3

>  <REMARK>
 VINA RESULT:      -4.0      1.756      2.420
  Name = 
  14 active torsions:
  status: ('A' for Active; 'I' for Inactive)
    1  A    between atoms: C_1  and  C_34
    2  A    between atoms: C_1  and  C_35
    3  A    between atoms: C_5  and  C_18
    4  A    between atoms: C_5  and  C_23
    5  A    between atoms: C_8  and  C_21
    6  A    between atoms: C_8  and  O_30
    7  A    between atoms: C_8  and  C_34
    8  A    between atoms: C_10  and  C_41
    9  A    between atoms: C_10  and  C_42
   10  A    between atoms: O_16  and  C_21
   11  A    between atoms: O_16  and  C_23
   12  A    between atoms: C_22  and  C_42
   13  A    between atoms: O_30  and  C_33
   14  A    between atoms: N_36  and  C_38
                            x       y       z     vdW  Elec       q    Type
                         _______ _______ _______ _____ _____    ______ ____

>  <TORSDO>
F 14

$$$$
=
 OpenBabel10272414443D

 43 47  0  0  1  0  0  0  0  0999 V2000
  185.1790  178.0990  138.5710 C   0  0  0  0  0  0  0  0  0  0  0  0
  186.0840  177.4420  137.8310 C   0  0  0  0  0  3  0  0  0  0  0  0
  188.4030  178.0370  135.6460 C   0  0  0  0  0  2  0  0  0  0  0  0
  188.2260  175.3390  137.1170 C   0  0  2  0  0  3  0  0  0  0  0  0
  187.2440  174.2440  137.6240 C   0  0  1  0  0  3  0  0  0  0  0  0
  189.1010  176.7580  135.2630 C   0  0  0  0  0  0  0  0  0  0  0  0
  190.0730  176.8220  134.3540 C   0  0  0  0  0  2  0  0  0  0  0  0
  185.4530  175.5810  136.2250 C   0  0  2  0  0  3  0  0  0  0  0  0
  188.5460  175.4030  135.6310 C   0  0  1  0  0  3  0  0  0  0  0  0
  187.1300  178.2190  134.8750 C   0  0  0  0  0  3  0  0  0  0  0  0
  185.7580  174.5560  137.3330 C   0  0  1  0  0  3  0  0  0  0  0  0
  189.4880  174.6940  136.5890 C   0  0  0  0  0  2  0  0  0  0  0  0
  184.8090  177.6350  134.3470 C   0  0  0  0  0  2  0  0  0  0  0  0
  185.9640  177.7300  135.3010 C   0  0  0  0  0  0  0  0  0  0  0  0
  183.6250  176.9000  135.0080 C   0  0  0  0  0  2  0  0  0  0  0  0
  185.8920  176.9430  136.4930 N   0  0  0  0  0  0  0  0  0  0  0  0
  184.0140  175.5670  135.6950 C   0  0  0  0  0  2  0  0  0  0  0  0
  186.4030  173.2780  136.7730 C   0  0  1  0  0  3  0  0  0  0  0  0
  186.7100  173.2590  135.2750 C   0  0  0  0  0  2  0  0  0  0  0  0
  187.3340  171.9310  134.8750 C   0  0  0  0  0  2  0  0  0  0  0  0
  185.4430  170.5460  134.4210 O   0  0  0  0  0  1  0  0  0  0  0  0
  186.4770  170.7620  135.3310 C   0  0  0  0  0  2  0  0  0  0  0  0
  185.6140  178.5890  139.9170 C   0  0  0  0  0  2  0  0  0  0  0  0
  189.4100  177.8950  139.3330 C   0  0  0  0  0  0  0  0  0  0  0  0
  189.7600  177.4970  140.7100 C   0  0  0  0  0  0  0  0  0  0  0  0
  191.3990  177.0200  141.1160 Cl  0  0  0  0  0  0  0  0  0  0  0  0
  187.4390  177.8800  141.3750 C   0  0  0  0  0  3  0  0  0  0  0  0
  188.0130  178.3330  138.9910 C   0  0  0  0  0  2  0  0  0  0  0  0
  187.0530  178.2700  140.1540 C   0  0  0  0  0  0  0  0  0  0  0  0
  190.2860  177.8790  138.4270 O   0  0  0  0  0  0  0  0  0  0  0  0
  188.8290  177.4940  141.6630 C   0  0  0  0  0  3  0  0  0  0  0  0
  183.7440  178.2620  138.1490 C   0  0  1  0  0  3  0  0  0  0  0  0
  182.8360  177.3590  138.9890 C   0  0  1  0  0  3  0  0  0  0  0  0
  182.7430  176.0590  138.4690 O   0  0  0  0  0  1  0  0  0  0  0  0
  183.1580  177.3690  140.3640 O   0  0  0  0  0  0  0  0  0  0  0  0
  182.0310  177.7750  141.0960 C   0  0  0  0  0  2  0  0  0  0  0  0
  182.3670  179.0180  141.8930 C   0  0  0  0  0  2  0  0  0  0  0  0
  183.1620  178.6270  143.1210 C   0  0  0  0  0  2  0  0  0  0  0  0
  184.3900  179.2880  143.1080 O   0  0  0  0  0  1  0  0  0  0  0  0
  183.3340  179.6230  138.2430 O   0  0  0  0  0  0  0  0  0  0  0  0
  181.1840  179.5250  137.0610 N   0  0  0  0  0  1  0  0  0  0  0  0
  181.9970  180.0070  138.1270 C   0  0  0  0  0  0  0  0  0  0  0  0
  181.5000  180.7840  138.9820 O   0  0  0  0  0  0  0  0  0  0  0  0
  1 23  1  0  0  0  0
  2  1  2  0  0  0  0
  4 12  1  1  0  0  0
  4  5  1  0  0  0  0
  6  9  1  0  0  0  0
  6  3  1  0  0  0  0
  7  6  2  0  0  0  0
  8 16  1  0  0  0  0
  8 11  1  0  0  0  0
  9 12  1  0  0  0  0
  9  4  1  0  0  0  0
 10 14  2  0  0  0  0
 10  3  1  0  0  0  0
 11  5  1  0  0  0  0
 13 15  1  0  0  0  0
 13 14  1  0  0  0  0
 14 16  1  0  0  0  0
 15 17  1  0  0  0  0
 16  2  1  0  0  0  0
 17  8  1  0  0  0  0
 18 11  1  0  0  0  0
 18  5  1  0  0  0  0
 19 18  1  0  0  0  0
 20 19  1  0  0  0  0
 20 22  1  0  0  0  0
 21 22  1  0  0  0  0
 23 29  1  0  0  0  0
 24 25  1  0  0  0  0
 25 26  1  0  0  0  0
 25 31  2  0  0  0  0
 27 31  1  0  0  0  0
 28 24  1  0  0  0  0
 28 29  1  0  0  0  0
 29 27  2  0  0  0  0
 30 24  2  0  0  0  0
 32 40  1  0  0  0  0
 32  1  1  0  0  0  0
 32 33  1  0  0  0  0
 33 35  1  0  0  0  0
 34 33  1  0  0  0  0
 35 36  1  0  0  0  0
 36 37  1  0  0  0  0
 37 38  1  0  0  0  0
 39 38  1  0  0  0  0
 41 42  1  0  0  0  0
 42 40  1  0  0  0  0
 42 43  2  0  0  0  0
M  END
>  <MODEL>
4

>  <REMARK>
 VINA RESULT:      -3.8      1.924      2.556
  Name = 
  14 active torsions:
  status: ('A' for Active; 'I' for Inactive)
    1  A    between atoms: C_1  and  C_34
    2  A    between atoms: C_1  and  C_35
    3  A    between atoms: C_5  and  C_18
    4  A    between atoms: C_5  and  C_23
    5  A    between atoms: C_8  and  C_21
    6  A    between atoms: C_8  and  O_30
    7  A    between atoms: C_8  and  C_34
    8  A    between atoms: C_10  and  C_41
    9  A    between atoms: C_10  and  C_42
   10  A    between atoms: O_16  and  C_21
   11  A    between atoms: O_16  and  C_23
   12  A    between atoms: C_22  and  C_42
   13  A    between atoms: O_30  and  C_33
   14  A    between atoms: N_36  and  C_38
                            x       y       z     vdW  Elec       q    Type
                         _______ _______ _______ _____ _____    ______ ____

>  <TORSDO>
F 14

$$$$
=
 OpenBabel10272414443D

 43 47  0  0  1  0  0  0  0  0999 V2000
  187.1090  174.6860  136.9210 C   0  0  0  0  0  0  0  0  0  0  0  0
  185.9270  175.2850  137.1210 C   0  0  0  0  0  3  0  0  0  0  0  0
  183.7450  175.3390  134.7250 C   0  0  0  0  0  2  0  0  0  0  0  0
  182.9320  175.8000  137.6580 C   0  0  2  0  0  3  0  0  0  0  0  0
  183.3460  176.5040  138.9820 C   0  0  1  0  0  3  0  0  0  0  0  0
  182.4440  175.9180  135.2150 C   0  0  0  0  0  0  0  0  0  0  0  0
  181.4410  176.0310  134.3460 C   0  0  0  0  0  2  0  0  0  0  0  0
  185.1640  177.6790  137.4770 C   0  0  2  0  0  3  0  0  0  0  0  0
  182.3380  176.6400  136.5370 C   0  0  1  0  0  3  0  0  0  0  0  0
  184.7170  176.4160  134.3470 C   0  0  0  0  0  3  0  0  0  0  0  0
  184.6750  177.2870  138.8840 C   0  0  1  0  0  3  0  0  0  0  0  0
  181.4310  175.8710  137.4820 C   0  0  0  0  0  2  0  0  0  0  0  0
  186.2550  178.2430  134.8980 C   0  0  0  0  0  2  0  0  0  0  0  0
  185.5600  176.9550  135.2300 C   0  0  0  0  0  0  0  0  0  0  0  0
  187.0490  178.7550  136.1170 C   0  0  0  0  0  2  0  0  0  0  0  0
  185.5240  176.5690  136.6070 N   0  0  0  0  0  0  0  0  0  0  0  0
  186.2380  178.7730  137.4360 C   0  0  0  0  0  2  0  0  0  0  0  0
  183.3760  178.0150  139.2650 C   0  0  1  0  0  3  0  0  0  0  0  0
  182.7490  178.9130  138.1970 C   0  0  0  0  0  2  0  0  0  0  0  0
  182.5700  180.3270  138.7280 C   0  0  0  0  0  2  0  0  0  0  0  0
  180.5500  181.4510  138.1260 O   0  0  0  0  0  1  0  0  0  0  0  0
  181.1170  180.6020  139.0780 C   0  0  0  0  0  2  0  0  0  0  0  0
  187.2940  173.3150  137.4950 C   0  0  0  0  0  2  0  0  0  0  0  0
  186.0990  170.4310  135.1520 C   0  0  0  0  0  0  0  0  0  0  0  0
  184.6470  170.5780  135.3700 C   0  0  0  0  0  0  0  0  0  0  0  0
  183.5060  169.5350  134.5410 Cl  0  0  0  0  0  0  0  0  0  0  0  0
  185.0990  172.4130  136.9200 C   0  0  0  0  0  3  0  0  0  0  0  0
  187.0790  171.3040  135.8860 C   0  0  0  0  0  2  0  0  0  0  0  0
  186.4290  172.3270  136.7850 C   0  0  0  0  0  0  0  0  0  0  0  0
  186.5340  169.5630  134.3490 O   0  0  0  0  0  0  0  0  0  0  0  0
  184.1860  171.5090  136.2030 C   0  0  0  0  0  3  0  0  0  0  0  0
  188.2670  175.3700  136.2470 C   0  0  1  0  0  3  0  0  0  0  0  0
  189.1260  176.1060  137.2810 C   0  0  1  0  0  3  0  0  0  0  0  0
  189.8490  177.1690  136.7200 O   0  0  0  0  0  1  0  0  0  0  0  0
  188.4040  176.4930  138.4310 O   0  0  0  0  0  0  0  0  0  0  0  0
  189.1870  177.3780  139.1890 C   0  0  0  0  0  2  0  0  0  0  0  0
  190.0970  176.5900  140.1060 C   0  0  0  0  0  2  0  0  0  0  0  0
  190.5670  177.4830  141.2350 C   0  0  0  0  0  2  0  0  0  0  0  0
  190.9350  176.6940  142.3260 O   0  0  0  0  0  1  0  0  0  0  0  0
  189.0520  174.4410  135.5050 O   0  0  0  0  0  0  0  0  0  0  0  0
  191.4900  174.3040  135.2450 N   0  0  0  0  0  1  0  0  0  0  0  0
  190.2940  173.9900  135.9540 C   0  0  0  0  0  0  0  0  0  0  0  0
  190.3600  173.3040  137.0050 O   0  0  0  0  0  0  0  0  0  0  0  0
  1  2  2  0  0  0  0
  1 23  1  0  0  0  0
  3  6  1  0  0  0  0
  4 12  1  1  0  0  0
  4  5  1  0  0  0  0
  5 18  1  0  0  0  0
  6  9  1  0  0  0  0
  7  6  2  0  0  0  0
  8 11  1  0  0  0  0
  9 12  1  0  0  0  0
  9  4  1  0  0  0  0
 10  3  1  0  0  0  0
 10 14  2  0  0  0  0
 11  5  1  0  0  0  0
 11 18  1  0  0  0  0
 13 14  1  0  0  0  0
 13 15  1  0  0  0  0
 14 16  1  0  0  0  0
 15 17  1  0  0  0  0
 16  2  1  0  0  0  0
 16  8  1  0  0  0  0
 17  8  1  0  0  0  0
 19 20  1  0  0  0  0
 19 18  1  0  0  0  0
 20 22  1  0  0  0  0
 21 22  1  0  0  0  0
 24 25  1  0  0  0  0
 24 28  1  0  0  0  0
 25 31  2  0  0  0  0
 26 25  1  0  0  0  0
 28 29  1  0  0  0  0
 29 27  2  0  0  0  0
 29 23  1  0  0  0  0
 30 24  2  0  0  0  0
 31 27  1  0  0  0  0
 32  1  1  0  0  0  0
 32 33  1  0  0  0  0
 33 35  1  0  0  0  0
 34 33  1  0  0  0  0
 35 36  1  0  0  0  0
 36 37  1  0  0  0  0
 37 38  1  0  0  0  0
 38 39  1  0  0  0  0
 40 42  1  0  0  0  0
 40 32  1  0  0  0  0
 41 42  1  0  0  0  0
 42 43  2  0  0  0  0
M  END
>  <MODEL>
5

>  <REMARK>
 VINA RESULT:      -3.7      3.158      7.955
  Name = 
  14 active torsions:
  status: ('A' for Active; 'I' for Inactive)
    1  A    between atoms: C_1  and  C_34
    2  A    between atoms: C_1  and  C_35
    3  A    between atoms: C_5  and  C_18
    4  A    between atoms: C_5  and  C_23
    5  A    between atoms: C_8  and  C_21
    6  A    between atoms: C_8  and  O_30
    7  A    between atoms: C_8  and  C_34
    8  A    between atoms: C_10  and  C_41
    9  A    between atoms: C_10  and  C_42
   10  A    between atoms: O_16  and  C_21
   11  A    between atoms: O_16  and  C_23
   12  A    between atoms: C_22  and  C_42
   13  A    between atoms: O_30  and  C_33
   14  A    between atoms: N_36  and  C_38
                            x       y       z     vdW  Elec       q    Type
                         _______ _______ _______ _____ _____    ______ ____

>  <TORSDO>
F 14

$$$$
=
 OpenBabel10272414443D

 43 47  0  0  1  0  0  0  0  0999 V2000
  185.0790  177.9880  138.6040 C   0  0  0  0  0  0  0  0  0  0  0  0
  186.0390  177.4200  137.8600 C   0  0  0  0  0  3  0  0  0  0  0  0
  188.3860  178.0890  135.7280 C   0  0  0  0  0  2  0  0  0  0  0  0
  188.2630  175.3860  137.1960 C   0  0  2  0  0  3  0  0  0  0  0  0
  187.3050  174.2610  137.6810 C   0  0  1  0  0  3  0  0  0  0  0  0
  189.1330  176.8330  135.3610 C   0  0  0  0  0  0  0  0  0  0  0  0
  190.1230  176.9290  134.4740 C   0  0  0  0  0  2  0  0  0  0  0  0
  185.5050  175.5400  136.2420 C   0  0  2  0  0  3  0  0  0  0  0  0
  188.6140  175.4620  135.7170 C   0  0  1  0  0  3  0  0  0  0  0  0
  187.1260  178.2300  134.9280 C   0  0  0  0  0  3  0  0  0  0  0  0
  185.8170  174.5260  137.3570 C   0  0  1  0  0  3  0  0  0  0  0  0
  189.5570  174.7820  136.6960 C   0  0  0  0  0  2  0  0  0  0  0  0
  184.8370  177.5730  134.3490 C   0  0  0  0  0  2  0  0  0  0  0  0
  185.9670  177.7050  135.3290 C   0  0  0  0  0  0  0  0  0  0  0  0
  183.6630  176.8000  134.9830 C   0  0  0  0  0  2  0  0  0  0  0  0
  185.8930  176.9150  136.5190 N   0  0  0  0  0  0  0  0  0  0  0  0
  184.0790  175.4810  135.6800 C   0  0  0  0  0  2  0  0  0  0  0  0
  186.5150  173.2680  136.8120 C   0  0  1  0  0  3  0  0  0  0  0  0
  186.8560  173.2600  135.3210 C   0  0  0  0  0  2  0  0  0  0  0  0
  187.8870  172.1850  135.0160 C   0  0  0  0  0  2  0  0  0  0  0  0
  187.6350  169.9590  135.8440 O   0  0  0  0  0  1  0  0  0  0  0  0
  187.2280  170.8280  134.8320 C   0  0  0  0  0  2  0  0  0  0  0  0
  185.4680  178.5050  139.9550 C   0  0  0  0  0  2  0  0  0  0  0  0
  189.3040  178.0390  139.4070 C   0  0  0  0  0  0  0  0  0  0  0  0
  189.6670  177.6830  140.7930 C   0  0  0  0  0  0  0  0  0  0  0  0
  191.3290  177.3140  141.2180 Cl  0  0  0  0  0  0  0  0  0  0  0  0
  187.3220  177.9310  141.4360 C   0  0  0  0  0  3  0  0  0  0  0  0
  187.8850  178.3850  139.0500 C   0  0  0  0  0  2  0  0  0  0  0  0
  186.9220  178.2790  140.2060 C   0  0  0  0  0  0  0  0  0  0  0  0
  190.1860  178.0630  138.5090 O   0  0  0  0  0  0  0  0  0  0  0  0
  188.7310  177.6370  141.7400 C   0  0  0  0  0  3  0  0  0  0  0  0
  183.6360  178.0260  138.1820 C   0  0  1  0  0  3  0  0  0  0  0  0
  182.8640  176.8650  138.8190 C   0  0  1  0  0  3  0  0  0  0  0  0
  182.5710  177.0940  140.1720 O   0  0  0  0  0  1  0  0  0  0  0  0
  181.7250  176.4800  138.0780 O   0  0  0  0  0  0  0  0  0  0  0  0
  181.5110  175.1030  138.2470 C   0  0  0  0  0  2  0  0  0  0  0  0
  180.9030  174.5280  136.9860 C   0  0  0  0  0  2  0  0  0  0  0  0
  180.5850  173.0640  137.2050 C   0  0  0  0  0  2  0  0  0  0  0  0
  181.7720  172.3300  137.2290 O   0  0  0  0  0  1  0  0  0  0  0  0
  183.0370  179.2750  138.5120 O   0  0  0  0  0  0  0  0  0  0  0  0
  181.2680  180.9560  138.2360 N   0  0  0  0  0  1  0  0  0  0  0  0
  181.9880  179.8180  137.7690 C   0  0  0  0  0  0  0  0  0  0  0  0
  181.6790  179.3000  136.6650 O   0  0  0  0  0  0  0  0  0  0  0  0
  1 23  1  0  0  0  0
  2  1  2  0  0  0  0
  4 12  1  1  0  0  0
  4  5  1  0  0  0  0
  6  9  1  0  0  0  0
  6  3  1  0  0  0  0
  7  6  2  0  0  0  0
  8 16  1  0  0  0  0
  8 11  1  0  0  0  0
  9 12  1  0  0  0  0
  9  4  1  0  0  0  0
 10 14  2  0  0  0  0
 10  3  1  0  0  0  0
 11  5  1  0  0  0  0
 13 15  1  0  0  0  0
 13 14  1  0  0  0  0
 14 16  1  0  0  0  0
 15 17  1  0  0  0  0
 16  2  1  0  0  0  0
 17  8  1  0  0  0  0
 18 11  1  0  0  0  0
 18  5  1  0  0  0  0
 19 18  1  0  0  0  0
 20 19  1  0  0  0  0
 22 20  1  0  0  0  0
 22 21  1  0  0  0  0
 23 29  1  0  0  0  0
 24 25  1  0  0  0  0
 25 26  1  0  0  0  0
 25 31  2  0  0  0  0
 27 31  1  0  0  0  0
 28 24  1  0  0  0  0
 28 29  1  0  0  0  0
 29 27  2  0  0  0  0
 30 24  2  0  0  0  0
 32 40  1  0  0  0  0
 32  1  1  0  0  0  0
 32 33  1  0  0  0  0
 33 34  1  0  0  0  0
 35 36  1  0  0  0  0
 35 33  1  0  0  0  0
 37 38  1  0  0  0  0
 37 36  1  0  0  0  0
 38 39  1  0  0  0  0
 42 41  1  0  0  0  0
 42 40  1  0  0  0  0
 43 42  2  0  0  0  0
M  END
>  <MODEL>
6

>  <REMARK>
 VINA RESULT:      -3.6      2.134      3.246
  Name = 
  14 active torsions:
  status: ('A' for Active; 'I' for Inactive)
    1  A    between atoms: C_1  and  C_34
    2  A    between atoms: C_1  and  C_35
    3  A    between atoms: C_5  and  C_18
    4  A    between atoms: C_5  and  C_23
    5  A    between atoms: C_8  and  C_21
    6  A    between atoms: C_8  and  O_30
    7  A    between atoms: C_8  and  C_34
    8  A    between atoms: C_10  and  C_41
    9  A    between atoms: C_10  and  C_42
   10  A    between atoms: O_16  and  C_21
   11  A    between atoms: O_16  and  C_23
   12  A    between atoms: C_22  and  C_42
   13  A    between atoms: O_30  and  C_33
   14  A    between atoms: N_36  and  C_38
                            x       y       z     vdW  Elec       q    Type
                         _______ _______ _______ _____ _____    ______ ____

>  <TORSDO>
F 14

$$$$
=
 OpenBabel10272414443D

 43 47  0  0  1  0  0  0  0  0999 V2000
  186.1950  178.0410  138.7130 C   0  0  0  0  0  0  0  0  0  0  0  0
  187.0610  177.4810  137.8570 C   0  0  0  0  0  3  0  0  0  0  0  0
  189.4490  177.6720  135.6740 C   0  0  0  0  0  2  0  0  0  0  0  0
  188.7610  175.0240  137.0850 C   0  0  2  0  0  3  0  0  0  0  0  0
  187.5880  174.1260  137.5720 C   0  0  1  0  0  3  0  0  0  0  0  0
  189.8890  176.2920  135.2580 C   0  0  0  0  0  0  0  0  0  0  0  0
  190.8550  176.1910  134.3460 C   0  0  0  0  0  2  0  0  0  0  0  0
  186.0850  175.8120  136.2130 C   0  0  2  0  0  3  0  0  0  0  0  0
  189.0860  175.0610  135.5980 C   0  0  1  0  0  3  0  0  0  0  0  0
  188.2340  178.1110  134.9140 C   0  0  0  0  0  3  0  0  0  0  0  0
  186.1890  174.7230  137.2960 C   0  0  1  0  0  3  0  0  0  0  0  0
  189.8760  174.1620  136.5350 C   0  0  0  0  0  2  0  0  0  0  0  0
  185.8440  177.9950  134.3860 C   0  0  0  0  0  2  0  0  0  0  0  0
  186.9960  177.8450  135.3350 C   0  0  0  0  0  0  0  0  0  0  0  0
  184.5420  177.4840  135.0360 C   0  0  0  0  0  2  0  0  0  0  0  0
  186.7760  177.0590  136.5090 N   0  0  0  0  0  0  0  0  0  0  0  0
  184.6690  176.0860  135.6900 C   0  0  0  0  0  2  0  0  0  0  0  0
  186.5770  173.3580  136.7040 C   0  0  1  0  0  3  0  0  0  0  0  0
  186.8740  173.3160  135.2030 C   0  0  0  0  0  2  0  0  0  0  0  0
  187.1280  171.8860  134.7500 C   0  0  0  0  0  2  0  0  0  0  0  0
  187.9330  169.7520  135.4560 O   0  0  0  0  0  1  0  0  0  0  0  0
  187.8860  171.1010  135.8070 C   0  0  0  0  0  2  0  0  0  0  0  0
  186.7230  178.4660  140.0490 C   0  0  0  0  0  2  0  0  0  0  0  0
  190.0870  177.2470  141.6080 C   0  0  0  0  0  0  0  0  0  0  0  0
  190.9410  177.4250  140.4170 C   0  0  0  0  0  0  0  0  0  0  0  0
  192.6550  177.0530  140.4790 Cl  0  0  0  0  0  0  0  0  0  0  0  0
  188.9870  178.2060  139.1740 C   0  0  0  0  0  3  0  0  0  0  0  0
  188.6130  177.5370  141.5460 C   0  0  0  0  0  2  0  0  0  0  0  0
  188.1490  178.0520  140.2060 C   0  0  0  0  0  0  0  0  0  0  0  0
  190.5870  176.8410  142.6900 O   0  0  0  0  0  0  0  0  0  0  0  0
  190.4170  177.8740  139.2780 C   0  0  0  0  0  3  0  0  0  0  0  0
  184.7230  178.1570  138.4260 C   0  0  1  0  0  3  0  0  0  0  0  0
  183.9430  177.0890  139.2000 C   0  0  1  0  0  3  0  0  0  0  0  0
  183.5490  177.5300  140.4720 O   0  0  0  0  0  1  0  0  0  0  0  0
  182.8720  176.5380  138.4640 O   0  0  0  0  0  0  0  0  0  0  0  0
  182.7390  175.1790  138.7930 C   0  0  0  0  0  2  0  0  0  0  0  0
  182.2050  174.4200  137.5980 C   0  0  0  0  0  2  0  0  0  0  0  0
  180.6980  174.5590  137.5480 C   0  0  0  0  0  2  0  0  0  0  0  0
  180.1800  174.4620  138.8400 O   0  0  0  0  0  1  0  0  0  0  0  0
  184.2410  179.4610  138.7350 O   0  0  0  0  0  0  0  0  0  0  0  0
  182.3140  180.8860  139.2710 N   0  0  0  0  0  1  0  0  0  0  0  0
  182.9150  179.8360  138.5160 C   0  0  0  0  0  0  0  0  0  0  0  0
  182.2420  179.2450  137.6330 O   0  0  0  0  0  0  0  0  0  0  0  0
  1 23  1  0  0  0  0
  2  1  2  0  0  0  0
  4 12  1  1  0  0  0
  4  5  1  0  0  0  0
  6  9  1  0  0  0  0
  6  3  1  0  0  0  0
  7  6  2  0  0  0  0
  8 16  1  0  0  0  0
  8 11  1  0  0  0  0
  9 12  1  0  0  0  0
  9  4  1  0  0  0  0
 10 14  2  0  0  0  0
 10  3  1  0  0  0  0
 11  5  1  0  0  0  0
 13 15  1  0  0  0  0
 13 14  1  0  0  0  0
 14 16  1  0  0  0  0
 15 17  1  0  0  0  0
 16  2  1  0  0  0  0
 17  8  1  0  0  0  0
 18 11  1  0  0  0  0
 18  5  1  0  0  0  0
 19 18  1  0  0  0  0
 20 19  1  0  0  0  0
 20 22  1  0  0  0  0
 21 22  1  0  0  0  0
 23 29  1  0  0  0  0
 24 30  2  0  0  0  0
 25 26  1  0  0  0  0
 25 24  1  0  0  0  0
 27 31  1  0  0  0  0
 27 29  2  0  0  0  0
 28 24  1  0  0  0  0
 29 28  1  0  0  0  0
 31 25  2  0  0  0  0
 32  1  1  0  0  0  0
 32 40  1  0  0  0  0
 32 33  1  0  0  0  0
 33 34  1  0  0  0  0
 35 36  1  0  0  0  0
 35 33  1  0  0  0  0
 37 36  1  0  0  0  0
 38 37  1  0  0  0  0
 38 39  1  0  0  0  0
 42 40  1  0  0  0  0
 42 41  1  0  0  0  0
 43 42  2  0  0  0  0
M  END
>  <MODEL>
7

>  <REMARK>
 VINA RESULT:      -3.6      2.298      3.409
  Name = 
  14 active torsions:
  status: ('A' for Active; 'I' for Inactive)
    1  A    between atoms: C_1  and  C_34
    2  A    between atoms: C_1  and  C_35
    3  A    between atoms: C_5  and  C_18
    4  A    between atoms: C_5  and  C_23
    5  A    between atoms: C_8  and  C_21
    6  A    between atoms: C_8  and  O_30
    7  A    between atoms: C_8  and  C_34
    8  A    between atoms: C_10  and  C_41
    9  A    between atoms: C_10  and  C_42
   10  A    between atoms: O_16  and  C_21
   11  A    between atoms: O_16  and  C_23
   12  A    between atoms: C_22  and  C_42
   13  A    between atoms: O_30  and  C_33
   14  A    between atoms: N_36  and  C_38
                            x       y       z     vdW  Elec       q    Type
                         _______ _______ _______ _____ _____    ______ ____

>  <TORSDO>
F 14

$$$$
=
 OpenBabel10272414443D

 43 47  0  0  1  0  0  0  0  0999 V2000
  191.9790  176.7940  137.9720 C   0  0  0  0  0  0  0  0  0  0  0  0
  193.0120  175.9840  137.6980 C   0  0  0  0  0  3  0  0  0  0  0  0
  195.0380  176.8930  135.3370 C   0  0  0  0  0  2  0  0  0  0  0  0
  195.8720  174.8470  137.4800 C   0  0  2  0  0  3  0  0  0  0  0  0
  195.3880  173.6180  138.3020 C   0  0  1  0  0  3  0  0  0  0  0  0
  196.2230  175.9650  135.2790 C   0  0  0  0  0  0  0  0  0  0  0  0
  197.1480  176.1870  134.3460 C   0  0  0  0  0  2  0  0  0  0  0  0
  193.3150  173.6820  136.6740 C   0  0  2  0  0  3  0  0  0  0  0  0
  196.2450  174.6490  136.0180 C   0  0  1  0  0  3  0  0  0  0  0  0
  193.8620  176.3260  134.6000 C   0  0  0  0  0  3  0  0  0  0  0  0
  193.9300  173.2020  138.0010 C   0  0  1  0  0  3  0  0  0  0  0  0
  197.3230  174.6680  137.0890 C   0  0  0  0  0  2  0  0  0  0  0  0
  192.0270  174.7220  134.3460 C   0  0  0  0  0  2  0  0  0  0  0  0
  192.9700  175.5290  135.1900 C   0  0  0  0  0  0  0  0  0  0  0  0
  191.2030  173.7630  135.2280 C   0  0  0  0  0  2  0  0  0  0  0  0
  193.1390  175.1220  136.5500 N   0  0  0  0  0  0  0  0  0  0  0  0
  192.0500  172.9390  136.2280 C   0  0  0  0  0  2  0  0  0  0  0  0
  195.0810  172.2060  137.7760 C   0  0  1  0  0  3  0  0  0  0  0  0
  195.4770  171.9270  136.3240 C   0  0  0  0  0  2  0  0  0  0  0  0
  195.0890  170.5110  135.9290 C   0  0  0  0  0  2  0  0  0  0  0  0
  194.8070  168.7750  137.5440 O   0  0  0  0  0  1  0  0  0  0  0  0
  195.7660  169.4860  136.8240 C   0  0  0  0  0  2  0  0  0  0  0  0
  192.0850  177.6590  139.1900 C   0  0  0  0  0  2  0  0  0  0  0  0
  188.6730  177.7320  141.0840 C   0  0  0  0  0  0  0  0  0  0  0  0
  189.0080  176.7650  142.1480 C   0  0  0  0  0  0  0  0  0  0  0  0
  187.8400  176.3620  143.3930 Cl  0  0  0  0  0  0  0  0  0  0  0  0
  191.2250  176.4940  141.1570 C   0  0  0  0  0  3  0  0  0  0  0  0
  189.6620  178.0550  140.0000 C   0  0  0  0  0  2  0  0  0  0  0  0
  190.9860  177.3470  140.1530 C   0  0  0  0  0  0  0  0  0  0  0  0
  187.5450  178.2940  141.0720 O   0  0  0  0  0  0  0  0  0  0  0  0
  190.2070  176.1870  142.1740 C   0  0  0  0  0  3  0  0  0  0  0  0
  190.7020  176.7850  137.1760 C   0  0  1  0  0  3  0  0  0  0  0  0
  189.9390  175.4770  137.4080 C   0  0  1  0  0  3  0  0  0  0  0  0
  190.4730  174.7240  138.4640 O   0  0  0  0  0  1  0  0  0  0  0  0
  188.5440  175.6590  137.5260 O   0  0  0  0  0  0  0  0  0  0  0  0
  187.8890  174.5150  137.0420 C   0  0  0  0  0  2  0  0  0  0  0  0
  187.3400  174.7950  135.6590 C   0  0  0  0  0  2  0  0  0  0  0  0
  186.4620  173.6400  135.2250 C   0  0  0  0  0  2  0  0  0  0  0  0
  186.5790  172.5980  136.1450 O   0  0  0  0  0  1  0  0  0  0  0  0
  189.8900  177.9100  137.4980 O   0  0  0  0  0  0  0  0  0  0  0  0
  189.0390  178.1070  135.2030 N   0  0  0  0  0  1  0  0  0  0  0  0
  189.0080  178.4790  136.5780 C   0  0  0  0  0  0  0  0  0  0  0  0
  188.1660  179.3270  136.9710 O   0  0  0  0  0  0  0  0  0  0  0  0
  1 23  1  0  0  0  0
  2  1  2  0  0  0  0
  4 12  1  1  0  0  0
  4  5  1  0  0  0  0
  6  3  1  0  0  0  0
  6  9  1  0  0  0  0
  7  6  2  0  0  0  0
  8 11  1  0  0  0  0
  9 12  1  0  0  0  0
  9  4  1  0  0  0  0
 10 14  2  0  0  0  0
 10  3  1  0  0  0  0
 11  5  1  0  0  0  0
 13 14  1  0  0  0  0
 13 15  1  0  0  0  0
 14 16  1  0  0  0  0
 15 17  1  0  0  0  0
 16  8  1  0  0  0  0
 16  2  1  0  0  0  0
 17  8  1  0  0  0  0
 18 11  1  0  0  0  0
 18  5  1  0  0  0  0
 19 18  1  0  0  0  0
 20 19  1  0  0  0  0
 20 22  1  0  0  0  0
 22 21  1  0  0  0  0
 23 29  1  0  0  0  0
 24 25  1  0  0  0  0
 25 31  2  0  0  0  0
 25 26  1  0  0  0  0
 27 31  1  0  0  0  0
 28 29  1  0  0  0  0
 28 24  1  0  0  0  0
 29 27  2  0  0  0  0
 30 24  2  0  0  0  0
 32 33  1  0  0  0  0
 32 40  1  0  0  0  0
 32  1  1  0  0  0  0
 33 35  1  0  0  0  0
 33 34  1  0  0  0  0
 36 35  1  0  0  0  0
 37 36  1  0  0  0  0
 38 37  1  0  0  0  0
 38 39  1  0  0  0  0
 41 42  1  0  0  0  0
 42 43  2  0  0  0  0
 42 40  1  0  0  0  0
M  END
>  <MODEL>
8

>  <REMARK>
 VINA RESULT:      -3.5      6.124      9.084
  Name = 
  14 active torsions:
  status: ('A' for Active; 'I' for Inactive)
    1  A    between atoms: C_1  and  C_34
    2  A    between atoms: C_1  and  C_35
    3  A    between atoms: C_5  and  C_18
    4  A    between atoms: C_5  and  C_23
    5  A    between atoms: C_8  and  C_21
    6  A    between atoms: C_8  and  O_30
    7  A    between atoms: C_8  and  C_34
    8  A    between atoms: C_10  and  C_41
    9  A    between atoms: C_10  and  C_42
   10  A    between atoms: O_16  and  C_21
   11  A    between atoms: O_16  and  C_23
   12  A    between atoms: C_22  and  C_42
   13  A    between atoms: O_30  and  C_33
   14  A    between atoms: N_36  and  C_38
                            x       y       z     vdW  Elec       q    Type
                         _______ _______ _______ _____ _____    ______ ____

>  <TORSDO>
F 14

$$$$
=
 OpenBabel10272414443D

 43 47  0  0  1  0  0  0  0  0999 V2000
  185.7450  175.9600  137.3870 C   0  0  0  0  0  0  0  0  0  0  0  0
  184.4950  176.0070  137.8720 C   0  0  0  0  0  3  0  0  0  0  0  0
  182.6430  177.5850  135.7320 C   0  0  0  0  0  2  0  0  0  0  0  0
  181.4390  175.5980  137.7520 C   0  0  2  0  0  3  0  0  0  0  0  0
  181.5000  175.1150  139.2300 C   0  0  1  0  0  3  0  0  0  0  0  0
  181.1880  177.4470  136.0980 C   0  0  0  0  0  0  0  0  0  0  0  0
  180.2870  178.0570  135.3280 C   0  0  0  0  0  2  0  0  0  0  0  0
  183.0530  177.2170  139.5740 C   0  0  2  0  0  3  0  0  0  0  0  0
  180.7480  176.9180  137.4410 C   0  0  1  0  0  3  0  0  0  0  0  0
  183.3020  178.6830  136.5110 C   0  0  0  0  0  3  0  0  0  0  0  0
  182.5560  175.8520  140.0840 C   0  0  1  0  0  3  0  0  0  0  0  0
  180.0060  175.6040  137.2690 C   0  0  0  0  0  2  0  0  0  0  0  0
  184.1950  179.6410  138.5820 C   0  0  0  0  0  2  0  0  0  0  0  0
  183.8640  178.4710  137.7020 C   0  0  0  0  0  0  0  0  0  0  0  0
  184.6830  179.1540  139.9620 C   0  0  0  0  0  2  0  0  0  0  0  0
  183.7990  177.1850  138.3240 N   0  0  0  0  0  0  0  0  0  0  0  0
  183.7720  178.0860  140.6140 C   0  0  0  0  0  2  0  0  0  0  0  0
  181.0710  175.8940  140.4840 C   0  0  1  0  0  3  0  0  0  0  0  0
  180.3280  177.2080  140.2400 C   0  0  0  0  0  2  0  0  0  0  0  0
  179.9850  177.8800  141.5610 C   0  0  0  0  0  2  0  0  0  0  0  0
  180.2290  179.8520  140.2360 O   0  0  0  0  0  1  0  0  0  0  0  0
  180.3430  179.3560  141.5350 C   0  0  0  0  0  2  0  0  0  0  0  0
  186.2510  174.6340  136.9110 C   0  0  0  0  0  2  0  0  0  0  0  0
  183.2580  172.1320  136.7690 C   0  0  0  0  0  0  0  0  0  0  0  0
  183.0850  172.1030  135.3040 C   0  0  0  0  0  0  0  0  0  0  0  0
  181.8510  171.0960  134.5670 Cl  0  0  0  0  0  0  0  0  0  0  0  0
  184.9220  173.7010  135.0880 C   0  0  0  0  0  3  0  0  0  0  0  0
  184.2950  173.0180  137.4020 C   0  0  0  0  0  2  0  0  0  0  0  0
  185.1250  173.7920  136.4080 C   0  0  0  0  0  0  0  0  0  0  0  0
  182.5300  171.4170  137.5070 O   0  0  0  0  0  0  0  0  0  0  0  0
  183.8680  172.8440  134.5220 C   0  0  0  0  0  3  0  0  0  0  0  0
  186.6710  177.1460  137.4050 C   0  0  1  0  0  3  0  0  0  0  0  0
  187.7310  176.9770  138.5000 C   0  0  1  0  0  3  0  0  0  0  0  0
  188.9840  176.6190  137.9820 O   0  0  0  0  0  1  0  0  0  0  0  0
  187.8040  178.0810  139.3780 O   0  0  0  0  0  0  0  0  0  0  0  0
  188.2540  177.6390  140.6330 C   0  0  0  0  0  2  0  0  0  0  0  0
  187.9790  178.7050  141.6720 C   0  0  0  0  0  2  0  0  0  0  0  0
  187.8980  178.0630  143.0410 C   0  0  0  0  0  2  0  0  0  0  0  0
  189.1720  178.0220  143.6100 O   0  0  0  0  0  1  0  0  0  0  0  0
  187.2820  177.3380  136.1330 O   0  0  0  0  0  0  0  0  0  0  0  0
  186.8000  179.3380  134.7920 N   0  0  0  0  0  1  0  0  0  0  0  0
  186.6160  177.9530  135.0720 C   0  0  0  0  0  0  0  0  0  0  0  0
  185.8480  177.2710  134.3460 O   0  0  0  0  0  0  0  0  0  0  0  0
  1 32  1  0  0  0  0
  1  2  2  0  0  0  0
  2 16  1  0  0  0  0
  3  6  1  0  0  0  0
  3 10  1  0  0  0  0
  4 12  1  6  0  0  0
  4  5  1  0  0  0  0
  5 11  1  0  0  0  0
  5 18  1  0  0  0  0
  6  9  1  0  0  0  0
  7  6  2  0  0  0  0
  8 11  1  0  0  0  0
  8 17  1  0  0  0  0
  9  4  1  0  0  0  0
 10 14  2  0  0  0  0
 11 18  1  0  0  0  0
 12  9  1  0  0  0  0
 13 15  1  0  0  0  0
 14 16  1  0  0  0  0
 14 13  1  0  0  0  0
 15 17  1  0  0  0  0
 16  8  1  0  0  0  0
 19 18  1  0  0  0  0
 19 20  1  0  0  0  0
 21 22  1  0  0  0  0
 22 20  1  0  0  0  0
 23  1  1  0  0  0  0
 24 28  1  0  0  0  0
 24 30  2  0  0  0  0
 25 24  1  0  0  0  0
 26 25  1  0  0  0  0
 27 29  2  0  0  0  0
 29 23  1  0  0  0  0
 29 28  1  0  0  0  0
 31 27  1  0  0  0  0
 31 25  2  0  0  0  0
 32 33  1  0  0  0  0
 33 35  1  0  0  0  0
 34 33  1  0  0  0  0
 35 36  1  0  0  0  0
 36 37  1  0  0  0  0
 37 38  1  0  0  0  0
 38 39  1  0  0  0  0
 40 32  1  0  0  0  0
 41 42  1  0  0  0  0
 42 40  1  0  0  0  0
 43 42  2  0  0  0  0
M  END
>  <MODEL>
9

>  <REMARK>
 VINA RESULT:      -3.2      2.906      6.928
  Name = 
  14 active torsions:
  status: ('A' for Active; 'I' for Inactive)
    1  A    between atoms: C_1  and  C_34
    2  A    between atoms: C_1  and  C_35
    3  A    between atoms: C_5  and  C_18
    4  A    between atoms: C_5  and  C_23
    5  A    between atoms: C_8  and  C_21
    6  A    between atoms: C_8  and  O_30
    7  A    between atoms: C_8  and  C_34
    8  A    between atoms: C_10  and  C_41
    9  A    between atoms: C_10  and  C_42
   10  A    between atoms: O_16  and  C_21
   11  A    between atoms: O_16  and  C_23
   12  A    between atoms: C_22  and  C_42
   13  A    between atoms: O_30  and  C_33
   14  A    between atoms: N_36  and  C_38
                            x       y       z     vdW  Elec       q    Type
                         _______ _______ _______ _____ _____    ______ ____

>  <TORSDO>
F 14

$$$$
