=
 OpenBabel10272401503D

 28 33  0  0  1  0  0  0  0  0999 V2000
  186.9630  177.6420  145.5750 C   0  0  0  0  0  0  0  0  0  0  0  0
  188.3680  177.1780  145.7950 C   0  0  1  0  0  3  0  0  0  0  0  0
  188.4320  176.9180  143.2590 C   0  0  1  0  0  3  0  0  0  0  0  0
  186.9070  178.1300  139.3990 C   0  0  0  0  0  3  0  0  0  0  0  0
  183.0260  179.2620  145.1920 C   0  0  0  0  0  1  0  0  0  0  0  0
  190.6320  177.9950  145.4190 C   0  0  2  0  0  3  0  0  0  0  0  0
  188.9450  176.4300  144.6010 C   0  0  1  0  0  3  0  0  0  0  0  0
  189.4900  178.5270  147.5580 C   0  0  0  0  0  1  0  0  0  0  0  0
  189.8650  177.3310  139.9780 C   0  0  0  0  0  3  0  0  0  0  0  0
  186.7570  177.9450  141.8370 C   0  0  0  0  0  0  0  0  0  0  0  0
  189.3040  178.3450  146.0640 C   0  0  2  0  0  3  0  0  0  0  0  0
  188.9390  178.5490  137.9670 C   0  0  0  0  0  0  0  0  0  0  0  0
  187.5070  177.7940  140.7090 C   0  0  1  0  0  3  0  0  0  0  0  0
  189.1350  176.3770  142.0460 C   0  0  0  0  0  2  0  0  0  0  0  0
  189.9290  178.0550  138.7050 C   0  0  0  0  0  3  0  0  0  0  0  0
  185.1800  178.4450  144.1380 C   0  0  0  0  0  0  0  0  0  0  0  0
  187.2510  177.5810  143.1300 C   0  0  0  0  0  0  0  0  0  0  0  0
  188.8570  177.2000  140.8370 C   0  0  0  0  0  0  0  0  0  0  0  0
  184.9100  178.4200  146.5160 N   0  0  0  0  0  0  0  0  0  0  0  0
  184.6910  178.7430  142.8660 C   0  0  0  0  0  3  0  0  0  0  0  0
  184.4040  178.6950  145.2860 C   0  0  0  0  0  0  0  0  0  0  0  0
  190.9990  179.0620  144.4070 C   0  0  0  0  0  1  0  0  0  0  0  0
  189.3130  179.2040  136.6860 C   0  0  0  0  0  1  0  0  0  0  0  0
  187.5070  178.4360  138.2540 C   0  0  0  0  0  3  0  0  0  0  0  0
  185.4710  178.5090  141.7420 C   0  0  0  0  0  3  0  0  0  0  0  0
  186.1580  177.9150  146.6820 C   0  0  0  0  0  3  0  0  0  0  0  0
  186.4740  177.8910  144.2790 C   0  0  0  0  0  0  0  0  0  0  0  0
  190.4430  176.6640  144.7120 C   0  0  0  0  0  2  0  0  0  0  0  0
  1 26  1  0  0  0  0
  2  1  1  6  0  0  0
  2 11  1  0  0  0  0
  3 14  1  6  0  0  0
  3  7  1  0  0  0  0
  5 21  1  0  0  0  0
  6 22  1  6  0  0  0
  6 11  1  0  0  0  0
  7 28  1  6  0  0  0
  7  2  1  0  0  0  0
  9 18  2  0  0  0  0
 10 17  2  0  0  0  0
 11  8  1  1  0  0  0
 12 24  1  0  0  0  0
 12 15  2  0  0  0  0
 13  4  1  6  0  0  0
 13 18  1  0  0  0  0
 13 10  1  0  0  0  0
 15  9  1  0  0  0  0
 16 27  1  0  0  0  0
 16 21  2  0  0  0  0
 17  3  1  0  0  0  0
 17 27  1  0  0  0  0
 18 14  1  0  0  0  0
 19 26  2  0  0  0  0
 20 16  1  0  0  0  0
 21 19  1  0  0  0  0
 23 12  1  0  0  0  0
 24  4  2  0  0  0  0
 25 10  1  0  0  0  0
 25 20  2  0  0  0  0
 27  1  2  0  0  0  0
 28  6  1  0  0  0  0
M  END
>  <MODEL>
1

>  <REMARK>
 VINA RESULT:      -9.2      0.000      0.000
  Name = 
  0 active torsions:
  status: ('A' for Active; 'I' for Inactive)
                            x       y       z     vdW  Elec       q    Type
                         _______ _______ _______ _____ _____    ______ ____

>  <TORSDO>
F 0

$$$$
=
 OpenBabel10272401503D

 28 33  0  0  1  0  0  0  0  0999 V2000
  182.9270  178.7950  141.9560 C   0  0  0  0  0  0  0  0  0  0  0  0
  182.3240  178.7370  140.5890 C   0  0  1  0  0  3  0  0  0  0  0  0
  184.7400  178.7650  139.7750 C   0  0  1  0  0  3  0  0  0  0  0  0
  188.9000  177.8970  140.5760 C   0  0  0  0  0  3  0  0  0  0  0  0
  184.4010  178.6740  145.9670 C   0  0  0  0  0  1  0  0  0  0  0  0
  182.0970  177.1350  138.7670 C   0  0  2  0  0  3  0  0  0  0  0  0
  183.2980  179.1360  139.4880 C   0  0  1  0  0  3  0  0  0  0  0  0
  180.3600  177.2120  140.5400 C   0  0  0  0  0  1  0  0  0  0  0  0
  187.5230  177.6190  137.7920 C   0  0  0  0  0  3  0  0  0  0  0  0
  186.5890  178.3050  141.2780 C   0  0  0  0  0  0  0  0  0  0  0  0
  181.8430  177.3350  140.2510 C   0  0  2  0  0  3  0  0  0  0  0  0
  189.7410  176.6690  138.5410 C   0  0  0  0  0  0  0  0  0  0  0  0
  187.4680  178.0920  140.2590 C   0  0  1  0  0  3  0  0  0  0  0  0
  185.7040  178.9240  138.6330 C   0  0  0  0  0  2  0  0  0  0  0  0
  188.7510  176.8270  137.6690 C   0  0  0  0  0  3  0  0  0  0  0  0
  184.8130  178.5800  143.4690 C   0  0  0  0  0  0  0  0  0  0  0  0
  185.2020  178.5640  141.0400 C   0  0  0  0  0  0  0  0  0  0  0  0
  186.9640  178.1680  138.8680 C   0  0  0  0  0  0  0  0  0  0  0  0
  182.5960  178.8790  144.3200 N   0  0  0  0  0  0  0  0  0  0  0  0
  186.1770  178.3840  143.6830 C   0  0  0  0  0  3  0  0  0  0  0  0
  183.9230  178.7140  144.5520 C   0  0  0  0  0  0  0  0  0  0  0  0
  183.0000  175.9340  138.5670 C   0  0  0  0  0  1  0  0  0  0  0  0
  190.8900  175.8290  138.1130 C   0  0  0  0  0  1  0  0  0  0  0  0
  189.8480  177.3100  139.8540 C   0  0  0  0  0  3  0  0  0  0  0  0
  187.0420  178.2360  142.6080 C   0  0  0  0  0  3  0  0  0  0  0  0
  182.0860  178.9130  143.0630 C   0  0  0  0  0  3  0  0  0  0  0  0
  184.3130  178.6410  142.1460 C   0  0  0  0  0  0  0  0  0  0  0  0
  182.7930  178.3880  138.2640 C   0  0  0  0  0  2  0  0  0  0  0  0
  1 27  2  0  0  0  0
  1 26  1  0  0  0  0
  2  1  1  1  0  0  0
  3 14  1  1  0  0  0
  3 17  1  0  0  0  0
  6 22  1  1  0  0  0
  6 11  1  0  0  0  0
  7 28  1  6  0  0  0
  7  3  1  0  0  0  0
  7  2  1  0  0  0  0
  9 18  2  0  0  0  0
 10 25  1  0  0  0  0
 11  8  1  6  0  0  0
 11  2  1  0  0  0  0
 12 24  1  0  0  0  0
 13  4  1  6  0  0  0
 13 10  1  0  0  0  0
 14 18  1  0  0  0  0
 15  9  1  0  0  0  0
 15 12  2  0  0  0  0
 16 20  1  0  0  0  0
 16 21  2  0  0  0  0
 17 10  2  0  0  0  0
 17 27  1  0  0  0  0
 18 13  1  0  0  0  0
 19 21  1  0  0  0  0
 21  5  1  0  0  0  0
 23 12  1  0  0  0  0
 24  4  2  0  0  0  0
 25 20  2  0  0  0  0
 26 19  2  0  0  0  0
 27 16  1  0  0  0  0
 28  6  1  0  0  0  0
M  END
>  <MODEL>
2

>  <REMARK>
 VINA RESULT:      -8.7      2.468      5.683
  Name = 
  0 active torsions:
  status: ('A' for Active; 'I' for Inactive)
                            x       y       z     vdW  Elec       q    Type
                         _______ _______ _______ _____ _____    ______ ____

>  <TORSDO>
F 0

$$$$
=
 OpenBabel10272401503D

 28 33  0  0  1  0  0  0  0  0999 V2000
  184.4340  178.5060  138.8360 C   0  0  0  0  0  0  0  0  0  0  0  0
  185.2960  178.2890  137.6330 C   0  0  1  0  0  3  0  0  0  0  0  0
  187.2300  178.3870  139.2920 C   0  0  1  0  0  3  0  0  0  0  0  0
  188.6270  177.8440  143.3490 C   0  0  0  0  0  3  0  0  0  0  0  0
  181.7380  178.8380  142.1370 C   0  0  0  0  0  1  0  0  0  0  0  0
  186.6670  176.5180  136.6750 C   0  0  2  0  0  3  0  0  0  0  0  0
  186.7580  178.6430  137.8740 C   0  0  1  0  0  3  0  0  0  0  0  0
  184.2620  176.6510  136.0730 C   0  0  0  0  0  1  0  0  0  0  0  0
  190.3000  177.2330  140.7880 C   0  0  0  0  0  3  0  0  0  0  0  0
  186.8630  178.1760  141.6810 C   0  0  0  0  0  0  0  0  0  0  0  0
  185.2740  176.8360  137.1870 C   0  0  2  0  0  3  0  0  0  0  0  0
  190.7450  176.4880  143.1610 C   0  0  0  0  0  0  0  0  0  0  0  0
  188.1770  177.9230  141.9410 C   0  0  0  0  0  0  0  0  0  0  0  0
  188.7110  178.4980  139.5260 C   0  0  0  0  0  2  0  0  0  0  0  0
  190.9950  176.5080  141.8560 C   0  0  0  0  0  3  0  0  0  0  0  0
  184.0890  178.5420  141.2380 C   0  0  0  0  0  0  0  0  0  0  0  0
  186.3710  178.3290  140.3460 C   0  0  0  0  0  0  0  0  0  0  0  0
  189.1170  177.8430  140.7990 C   0  0  0  0  0  0  0  0  0  0  0  0
  182.2390  178.7850  139.7380 N   0  0  0  0  0  0  0  0  0  0  0  0
  184.5920  178.4480  142.5350 C   0  0  0  0  0  3  0  0  0  0  0  0
  182.7110  178.7210  141.0100 C   0  0  0  0  0  0  0  0  0  0  0  0
  187.2430  175.3590  137.4660 C   0  0  0  0  0  1  0  0  0  0  0  0
  191.6590  175.6830  144.0130 C   0  0  0  0  0  1  0  0  0  0  0  0
  189.7030  177.2510  143.8540 C   0  0  0  0  0  2  0  0  0  0  0  0
  185.9500  178.2550  142.7480 C   0  0  0  0  0  3  0  0  0  0  0  0
  183.0590  178.6740  138.6620 C   0  0  0  0  0  3  0  0  0  0  0  0
  184.9710  178.4530  140.1350 C   0  0  0  0  0  0  0  0  0  0  0  0
  187.5140  177.7590  136.8950 C   0  0  0  0  0  2  0  0  0  0  0  0
  1 27  1  0  0  0  0
  2  7  1  0  0  0  0
  2  1  1  1  0  0  0
  3 14  1  1  0  0  0
  3 17  1  0  0  0  0
  4 24  1  0  0  0  0
  6 28  1  0  0  0  0
  6 11  1  0  0  0  0
  6 22  1  1  0  0  0
  7 28  1  6  0  0  0
  7  3  1  0  0  0  0
  9 18  2  0  0  0  0
  9 15  1  0  0  0  0
 10 13  1  0  0  0  0
 10 25  1  0  0  0  0
 11  8  1  6  0  0  0
 11  2  1  0  0  0  0
 12 24  1  0  0  0  0
 12 23  1  0  0  0  0
 13  4  2  0  0  0  0
 14 18  1  0  0  0  0
 15 12  2  0  0  0  0
 16 20  1  0  0  0  0
 17 10  2  0  0  0  0
 18 13  1  0  0  0  0
 19 21  2  0  0  0  0
 20 25  2  0  0  0  0
 21 16  1  0  0  0  0
 21  5  1  0  0  0  0
 26  1  2  0  0  0  0
 26 19  1  0  0  0  0
 27 17  1  0  0  0  0
 27 16  2  0  0  0  0
M  END
>  <MODEL>
3

>  <REMARK>
 VINA RESULT:      -8.1      2.460      6.255
  Name = 
  0 active torsions:
  status: ('A' for Active; 'I' for Inactive)
                            x       y       z     vdW  Elec       q    Type
                         _______ _______ _______ _____ _____    ______ ____

>  <TORSDO>
F 0

$$$$
=
 OpenBabel10272401503D

 28 33  0  0  1  0  0  0  0  0999 V2000
  185.7620  178.7100  144.5210 C   0  0  0  0  0  0  0  0  0  0  0  0
  184.7930  179.2560  143.5200 C   0  0  1  0  0  3  0  0  0  0  0  0
  186.6780  178.8880  141.8420 C   0  0  1  0  0  3  0  0  0  0  0  0
  190.2570  176.7230  140.7490 C   0  0  0  0  0  3  0  0  0  0  0  0
  188.2370  176.9290  147.5150 C   0  0  0  0  0  1  0  0  0  0  0  0
  183.4490  178.4400  141.6590 C   0  0  2  0  0  3  0  0  0  0  0  0
  185.4590  179.7060  142.2260 C   0  0  1  0  0  3  0  0  0  0  0  0
  182.4920  178.4140  143.9500 C   0  0  0  0  0  1  0  0  0  0  0  0
  188.0950  177.7270  138.7380 C   0  0  0  0  0  3  0  0  0  0  0  0
  188.5920  177.4940  142.3710 C   0  0  0  0  0  0  0  0  0  0  0  0
  183.7520  178.2180  143.1300 C   0  0  2  0  0  3  0  0  0  0  0  0
  189.9230  176.0260  138.3490 C   0  0  0  0  0  0  0  0  0  0  0  0
  188.9740  177.3870  141.0670 C   0  0  1  0  0  3  0  0  0  0  0  0
  187.2330  179.1360  140.4680 C   0  0  0  0  0  2  0  0  0  0  0  0
  188.8450  176.7150  137.9880 C   0  0  0  0  0  3  0  0  0  0  0  0
  187.8010  177.5270  145.0920 C   0  0  0  0  0  0  0  0  0  0  0  0
  187.3950  178.1790  142.7550 C   0  0  0  0  0  0  0  0  0  0  0  0
  188.1350  178.0340  140.0330 C   0  0  0  0  0  0  0  0  0  0  0  0
  186.2240  178.1250  146.7900 N   0  0  0  0  0  0  0  0  0  0  0  0
  188.9930  176.9120  144.7080 C   0  0  0  0  0  3  0  0  0  0  0  0
  187.4000  177.5430  146.4420 C   0  0  0  0  0  0  0  0  0  0  0  0
  183.7400  177.1680  140.8870 C   0  0  0  0  0  1  0  0  0  0  0  0
  190.4940  175.0890  137.3460 C   0  0  0  0  0  1  0  0  0  0  0  0
  190.6540  176.1630  139.6110 C   0  0  0  0  0  3  0  0  0  0  0  0
  189.3700  176.8870  143.3720 C   0  0  0  0  0  3  0  0  0  0  0  0
  185.4050  178.6930  145.8690 C   0  0  0  0  0  3  0  0  0  0  0  0
  186.9810  178.1370  144.1140 C   0  0  0  0  0  0  0  0  0  0  0  0
  184.3660  179.5510  141.1790 C   0  0  0  0  0  2  0  0  0  0  0  0
  1 26  1  0  0  0  0
  2  1  1  1  0  0  0
  3 14  1  1  0  0  0
  3  7  1  0  0  0  0
  3 17  1  0  0  0  0
  6 22  1  6  0  0  0
  6 11  1  0  0  0  0
  7 28  1  6  0  0  0
  7  2  1  0  0  0  0
  9 18  2  0  0  0  0
 10 17  2  0  0  0  0
 10 25  1  0  0  0  0
 11  2  1  0  0  0  0
 11  8  1  1  0  0  0
 12 24  1  0  0  0  0
 13  4  1  1  0  0  0
 13 10  1  0  0  0  0
 15 12  2  0  0  0  0
 15  9  1  0  0  0  0
 16 21  2  0  0  0  0
 17 27  1  0  0  0  0
 18 14  1  0  0  0  0
 18 13  1  0  0  0  0
 20 16  1  0  0  0  0
 21 19  1  0  0  0  0
 21  5  1  0  0  0  0
 23 12  1  0  0  0  0
 24  4  2  0  0  0  0
 25 20  2  0  0  0  0
 26 19  2  0  0  0  0
 27  1  2  0  0  0  0
 27 16  1  0  0  0  0
 28  6  1  0  0  0  0
M  END
>  <MODEL>
4

>  <REMARK>
 VINA RESULT:      -8.0      1.442      4.449
  Name = 
  0 active torsions:
  status: ('A' for Active; 'I' for Inactive)
                            x       y       z     vdW  Elec       q    Type
                         _______ _______ _______ _____ _____    ______ ____

>  <TORSDO>
F 0

$$$$
=
 OpenBabel10272401503D

 28 33  0  0  1  0  0  0  0  0999 V2000
  190.5660  177.3760  140.5340 C   0  0  0  0  0  0  0  0  0  0  0  0
  190.3960  177.6290  141.9980 C   0  0  1  0  0  3  0  0  0  0  0  0
  188.0930  178.5070  141.3420 C   0  0  1  0  0  3  0  0  0  0  0  0
  184.7990  178.4560  138.5410 C   0  0  0  0  0  3  0  0  0  0  0  0
  191.1920  176.2990  136.4450 C   0  0  0  0  0  1  0  0  0  0  0  0
  189.1280  176.7130  143.8660 C   0  0  2  0  0  3  0  0  0  0  0  0
  189.2580  178.5920  142.3110 C   0  0  1  0  0  3  0  0  0  0  0  0
  191.3690  175.7790  143.3460 C   0  0  0  0  0  1  0  0  0  0  0  0
  184.5110  178.7880  141.6280 C   0  0  0  0  0  3  0  0  0  0  0  0
  187.1320  178.0380  139.1650 C   0  0  0  0  0  0  0  0  0  0  0  0
  190.0930  176.3450  142.7540 C   0  0  2  0  0  3  0  0  0  0  0  0
  182.7190  178.2090  139.9440 C   0  0  0  0  0  0  0  0  0  0  0  0
  185.8750  178.3920  139.5550 C   0  0  1  0  0  3  0  0  0  0  0  0
  186.8530  179.2620  141.7310 C   0  0  0  0  0  2  0  0  0  0  0  0
  183.1700  178.4030  141.1790 C   0  0  0  0  0  3  0  0  0  0  0  0
  189.6720  177.1370  138.2910 C   0  0  0  0  0  0  0  0  0  0  0  0
  188.2320  178.0180  140.0800 C   0  0  0  0  0  0  0  0  0  0  0  0
  185.6650  178.7990  140.9640 C   0  0  0  0  0  0  0  0  0  0  0  0
  191.9560  176.5930  138.7560 N   0  0  0  0  0  0  0  0  0  0  0  0
  188.6030  177.2170  137.3980 C   0  0  0  0  0  3  0  0  0  0  0  0
  190.9360  176.6860  137.8640 C   0  0  0  0  0  0  0  0  0  0  0  0
  187.8560  175.9020  143.7210 C   0  0  0  0  0  1  0  0  0  0  0  0
  181.2820  177.8620  139.7960 C   0  0  0  0  0  1  0  0  0  0  0  0
  183.4830  178.3880  138.7060 C   0  0  0  0  0  3  0  0  0  0  0  0
  187.3570  177.6460  137.8330 C   0  0  0  0  0  3  0  0  0  0  0  0
  191.7970  176.9160  140.0650 C   0  0  0  0  0  3  0  0  0  0  0  0
  189.4840  177.5080  139.6430 C   0  0  0  0  0  0  0  0  0  0  0  0
  188.8130  178.1910  143.7090 C   0  0  0  0  0  2  0  0  0  0  0  0
  2  1  1  6  0  0  0
  2  7  1  0  0  0  0
  2 11  1  0  0  0  0
  3 14  1  6  0  0  0
  3  7  1  0  0  0  0
  4 24  2  0  0  0  0
  5 21  1  0  0  0  0
  6 22  1  6  0  0  0
  7 28  1  1  0  0  0
 10 13  1  0  0  0  0
 10 17  2  0  0  0  0
 11  8  1  1  0  0  0
 11  6  1  0  0  0  0
 12 15  2  0  0  0  0
 13  4  1  6  0  0  0
 13 18  1  0  0  0  0
 15  9  1  0  0  0  0
 16 27  1  0  0  0  0
 17  3  1  0  0  0  0
 18  9  2  0  0  0  0
 18 14  1  0  0  0  0
 19 26  2  0  0  0  0
 20 25  2  0  0  0  0
 20 16  1  0  0  0  0
 21 16  2  0  0  0  0
 21 19  1  0  0  0  0
 23 12  1  0  0  0  0
 24 12  1  0  0  0  0
 25 10  1  0  0  0  0
 26  1  1  0  0  0  0
 27 17  1  0  0  0  0
 27  1  2  0  0  0  0
 28  6  1  0  0  0  0
M  END
>  <MODEL>
5

>  <REMARK>
 VINA RESULT:      -7.9      2.928      6.042
  Name = 
  0 active torsions:
  status: ('A' for Active; 'I' for Inactive)
                            x       y       z     vdW  Elec       q    Type
                         _______ _______ _______ _____ _____    ______ ____

>  <TORSDO>
F 0

$$$$
=
 OpenBabel10272401503D

 28 33  0  0  1  0  0  0  0  0999 V2000
  188.2170  177.9790  139.3010 C   0  0  0  0  0  0  0  0  0  0  0  0
  188.9070  178.1760  140.6130 C   0  0  1  0  0  3  0  0  0  0  0  0
  186.6260  178.9710  141.4280 C   0  0  1  0  0  3  0  0  0  0  0  0
  182.3240  178.8650  140.9960 C   0  0  0  0  0  3  0  0  0  0  0  0
  186.4230  177.0670  135.5300 C   0  0  0  0  0  1  0  0  0  0  0  0
  188.9460  177.1430  142.8190 C   0  0  2  0  0  3  0  0  0  0  0  0
  188.1330  179.0750  141.5670 C   0  0  1  0  0  3  0  0  0  0  0  0
  190.5080  176.3270  141.0700 C   0  0  0  0  0  1  0  0  0  0  0  0
  183.8400  179.0820  143.7130 C   0  0  0  0  0  3  0  0  0  0  0  0
  184.6040  178.5320  140.1610 C   0  0  0  0  0  0  0  0  0  0  0  0
  189.1120  176.8550  141.3380 C   0  0  2  0  0  3  0  0  0  0  0  0
  181.4180  178.4790  143.3170 C   0  0  0  0  0  0  0  0  0  0  0  0
  183.7870  178.8160  141.2150 C   0  0  0  0  0  0  0  0  0  0  0  0
  185.8150  179.6560  142.4920 C   0  0  0  0  0  2  0  0  0  0  0  0
  182.4890  178.6520  144.0850 C   0  0  0  0  0  3  0  0  0  0  0  0
  186.2100  177.7750  137.9530 C   0  0  0  0  0  0  0  0  0  0  0  0
  186.0290  178.5300  140.2870 C   0  0  0  0  0  0  0  0  0  0  0  0
  184.4090  179.1660  142.5120 C   0  0  0  0  0  0  0  0  0  0  0  0
  188.3620  177.3190  137.0100 N   0  0  0  0  0  0  0  0  0  0  0  0
  184.8220  177.8360  137.8320 C   0  0  0  0  0  3  0  0  0  0  0  0
  187.0140  177.3950  136.8610 C   0  0  0  0  0  0  0  0  0  0  0  0
  187.8320  176.2800  143.3800 C   0  0  0  0  0  1  0  0  0  0  0  0
  180.1590  178.0730  143.9930 C   0  0  0  0  0  1  0  0  0  0  0  0
  181.3380  178.7320  141.8760 C   0  0  0  0  0  2  0  0  0  0  0  0
  184.0370  178.1940  138.9190 C   0  0  0  0  0  3  0  0  0  0  0  0
  188.9700  177.5900  138.1920 C   0  0  0  0  0  3  0  0  0  0  0  0
  186.8190  178.0920  139.1900 C   0  0  0  0  0  0  0  0  0  0  0  0
  188.5710  178.6090  142.9470 C   0  0  0  0  0  2  0  0  0  0  0  0
  2  1  1  6  0  0  0
  2 11  1  0  0  0  0
  2  7  1  0  0  0  0
  3  7  1  0  0  0  0
  3 14  1  6  0  0  0
  4 13  2  0  0  0  0
  4 24  1  0  0  0  0
  5 21  1  0  0  0  0
  6 28  1  0  0  0  0
  6 22  1  6  0  0  0
  7 28  1  1  0  0  0
  9 15  1  0  0  0  0
 10 17  1  0  0  0  0
 10 13  1  0  0  0  0
 11  8  1  1  0  0  0
 11  6  1  0  0  0  0
 12 23  1  0  0  0  0
 12 15  2  0  0  0  0
 13 18  1  0  0  0  0
 14 18  1  0  0  0  0
 16 27  1  0  0  0  0
 17  3  1  0  0  0  0
 18  9  2  0  0  0  0
 19 26  1  0  0  0  0
 20 16  2  0  0  0  0
 20 25  1  0  0  0  0
 21 19  2  0  0  0  0
 21 16  1  0  0  0  0
 24 12  1  0  0  0  0
 25 10  2  0  0  0  0
 26  1  2  0  0  0  0
 27  1  1  0  0  0  0
 27 17  2  0  0  0  0
M  END
>  <MODEL>
6

>  <REMARK>
 VINA RESULT:      -7.8      2.839      6.554
  Name = 
  0 active torsions:
  status: ('A' for Active; 'I' for Inactive)
                            x       y       z     vdW  Elec       q    Type
                         _______ _______ _______ _____ _____    ______ ____

>  <TORSDO>
F 0

$$$$
=
 OpenBabel10272401503D

 28 33  0  0  1  0  0  0  0  0999 V2000
  186.4400  178.6610  141.0970 C   0  0  0  0  0  0  0  0  0  0  0  0
  187.6450  178.6830  140.2110 C   0  0  1  0  0  3  0  0  0  0  0  0
  188.9620  178.5610  142.3920 C   0  0  1  0  0  3  0  0  0  0  0  0
  189.0890  177.3780  146.5490 C   0  0  0  0  0  3  0  0  0  0  0  0
  182.8450  178.3290  143.3840 C   0  0  0  0  0  1  0  0  0  0  0  0
  189.3920  177.1500  139.4780 C   0  0  2  0  0  3  0  0  0  0  0  0
  188.9270  179.0400  140.9530 C   0  0  1  0  0  3  0  0  0  0  0  0
  187.2850  177.3020  138.1730 C   0  0  0  0  0  1  0  0  0  0  0  0
  191.5130  177.2730  144.5890 C   0  0  0  0  0  3  0  0  0  0  0  0
  187.9000  177.9310  144.4800 C   0  0  0  0  0  0  0  0  0  0  0  0
  187.8870  177.3280  139.5650 C   0  0  2  0  0  3  0  0  0  0  0  0
  191.2710  176.1480  146.8380 C   0  0  0  0  0  0  0  0  0  0  0  0
  189.0870  177.6820  145.1010 C   0  0  0  0  0  0  0  0  0  0  0  0
  190.2840  178.6810  143.0970 C   0  0  0  0  0  2  0  0  0  0  0  0
  191.9060  176.4000  145.6990 C   0  0  0  0  0  3  0  0  0  0  0  0
  185.3740  178.2730  143.2420 C   0  0  0  0  0  0  0  0  0  0  0  0
  187.8300  178.2930  143.0970 C   0  0  0  0  0  0  0  0  0  0  0  0
  190.3350  177.8320  144.3180 C   0  0  0  0  0  0  0  0  0  0  0  0
  184.0600  178.7050  141.2880 N   0  0  0  0  0  0  0  0  0  0  0  0
  185.4620  177.9740  144.6010 C   0  0  0  0  0  3  0  0  0  0  0  0
  184.1220  178.4400  142.6180 C   0  0  0  0  0  0  0  0  0  0  0  0
  189.7950  175.8940  140.2250 C   0  0  0  0  0  1  0  0  0  0  0  0
  191.9460  175.2400  147.8030 C   0  0  0  0  0  1  0  0  0  0  0  0
  190.0050  176.7450  147.2730 C   0  0  0  0  0  2  0  0  0  0  0  0
  186.7000  177.7940  145.2010 C   0  0  0  0  0  3  0  0  0  0  0  0
  185.1760  178.8090  140.5240 C   0  0  0  0  0  3  0  0  0  0  0  0
  186.5560  178.4040  142.4750 C   0  0  0  0  0  0  0  0  0  0  0  0
  190.0200  178.3630  140.1420 C   0  0  0  0  0  2  0  0  0  0  0  0
  1 27  1  0  0  0  0
  2  7  1  0  0  0  0
  2  1  1  1  0  0  0
  3 14  1  1  0  0  0
  3 17  1  0  0  0  0
  4 24  1  0  0  0  0
  6 11  1  0  0  0  0
  6 28  1  0  0  0  0
  6 22  1  1  0  0  0
  7 28  1  6  0  0  0
  7  3  1  0  0  0  0
  9 15  1  0  0  0  0
 10 13  1  0  0  0  0
 10 25  1  0  0  0  0
 11  8  1  6  0  0  0
 11  2  1  0  0  0  0
 12 24  1  0  0  0  0
 12 23  1  0  0  0  0
 13  4  2  0  0  0  0
 14 18  1  0  0  0  0
 15 12  2  0  0  0  0
 16 20  1  0  0  0  0
 17 10  2  0  0  0  0
 18  9  2  0  0  0  0
 18 13  1  0  0  0  0
 19 21  2  0  0  0  0
 20 25  2  0  0  0  0
 21 16  1  0  0  0  0
 21  5  1  0  0  0  0
 26  1  2  0  0  0  0
 26 19  1  0  0  0  0
 27 17  1  0  0  0  0
 27 16  2  0  0  0  0
M  END
>  <MODEL>
7

>  <REMARK>
 VINA RESULT:      -7.8      1.783      5.754
  Name = 
  0 active torsions:
  status: ('A' for Active; 'I' for Inactive)
                            x       y       z     vdW  Elec       q    Type
                         _______ _______ _______ _____ _____    ______ ____

>  <TORSDO>
F 0

$$$$
=
 OpenBabel10272401503D

 28 33  0  0  1  0  0  0  0  0999 V2000
  181.9980  178.9380  140.3320 C   0  0  0  0  0  0  0  0  0  0  0  0
  182.6170  178.8680  138.9730 C   0  0  1  0  0  3  0  0  0  0  0  0
  184.8320  178.8960  140.2360 C   0  0  1  0  0  3  0  0  0  0  0  0
  186.9970  178.0470  143.8820 C   0  0  0  0  0  3  0  0  0  0  0  0
  179.9820  178.8560  144.1010 C   0  0  0  0  0  1  0  0  0  0  0  0
  183.8200  177.2500  137.6050 C   0  0  2  0  0  3  0  0  0  0  0  0
  184.0890  179.2600  138.9650 C   0  0  1  0  0  3  0  0  0  0  0  0
  181.3410  177.3350  137.4850 C   0  0  0  0  0  1  0  0  0  0  0  0
  188.1590  177.7420  141.0040 C   0  0  0  0  0  3  0  0  0  0  0  0
  184.9370  178.4550  142.6190 C   0  0  0  0  0  0  0  0  0  0  0  0
  182.5450  177.4610  138.4000 C   0  0  2  0  0  3  0  0  0  0  0  0
  189.0710  176.8050  143.1660 C   0  0  0  0  0  0  0  0  0  0  0  0
  186.2820  178.2350  142.6000 C   0  0  0  0  0  0  0  0  0  0  0  0
  186.3260  179.0490  140.1950 C   0  0  0  0  0  2  0  0  0  0  0  0
  189.0640  176.9530  141.8460 C   0  0  0  0  0  3  0  0  0  0  0  0
  182.1210  178.7420  142.7480 C   0  0  0  0  0  0  0  0  0  0  0  0
  184.1940  178.7070  141.4230 C   0  0  0  0  0  0  0  0  0  0  0  0
  186.9860  178.2990  141.2990 C   0  0  0  0  0  0  0  0  0  0  0  0
  180.0120  179.0410  141.6560 N   0  0  0  0  0  0  0  0  0  0  0  0
  182.8670  178.5510  143.9100 C   0  0  0  0  0  3  0  0  0  0  0  0
  180.7210  178.8820  142.8030 C   0  0  0  0  0  0  0  0  0  0  0  0
  184.5650  176.0500  138.1550 C   0  0  0  0  0  1  0  0  0  0  0  0
  190.1510  175.9650  143.7470 C   0  0  0  0  0  1  0  0  0  0  0  0
  188.1640  177.4580  144.1150 C   0  0  0  0  0  2  0  0  0  0  0  0
  184.2450  178.3980  143.8420 C   0  0  0  0  0  3  0  0  0  0  0  0
  180.6120  179.0630  140.4390 C   0  0  0  0  0  3  0  0  0  0  0  0
  182.7770  178.7910  141.4940 C   0  0  0  0  0  0  0  0  0  0  0  0
  184.6640  178.5000  137.7800 C   0  0  0  0  0  2  0  0  0  0  0  0
  1 26  2  0  0  0  0
  1 27  1  0  0  0  0
  2  1  1  1  0  0  0
  3 14  1  1  0  0  0
  3 17  1  0  0  0  0
  4 24  1  0  0  0  0
  6 28  1  0  0  0  0
  6 22  1  1  0  0  0
  6 11  1  0  0  0  0
  7 28  1  6  0  0  0
  7  2  1  0  0  0  0
  7  3  1  0  0  0  0
  9 18  2  0  0  0  0
  9 15  1  0  0  0  0
 10 25  1  0  0  0  0
 11  8  1  6  0  0  0
 11  2  1  0  0  0  0
 12 23  1  0  0  0  0
 12 24  1  0  0  0  0
 13 10  1  0  0  0  0
 13  4  2  0  0  0  0
 14 18  1  0  0  0  0
 15 12  2  0  0  0  0
 16 21  1  0  0  0  0
 16 20  1  0  0  0  0
 17 27  1  0  0  0  0
 17 10  2  0  0  0  0
 18 13  1  0  0  0  0
 19 21  2  0  0  0  0
 21  5  1  0  0  0  0
 25 20  2  0  0  0  0
 26 19  1  0  0  0  0
 27 16  2  0  0  0  0
M  END
>  <MODEL>
8

>  <REMARK>
 VINA RESULT:      -7.7      2.973      6.506
  Name = 
  0 active torsions:
  status: ('A' for Active; 'I' for Inactive)
                            x       y       z     vdW  Elec       q    Type
                         _______ _______ _______ _____ _____    ______ ____

>  <TORSDO>
F 0

$$$$
=
 OpenBabel10272401503D

 28 33  0  0  1  0  0  0  0  0999 V2000
  186.9350  178.3390  139.3810 C   0  0  0  0  0  0  0  0  0  0  0  0
  186.3200  178.4330  138.0210 C   0  0  1  0  0  3  0  0  0  0  0  0
  188.6280  177.7440  137.1850 C   0  0  1  0  0  3  0  0  0  0  0  0
  192.3710  175.7240  137.9670 C   0  0  0  0  0  3  0  0  0  0  0  0
  188.3730  177.8760  143.3800 C   0  0  0  0  0  1  0  0  0  0  0  0
  185.6110  176.9300  136.2400 C   0  0  2  0  0  3  0  0  0  0  0  0
  187.3500  178.5110  136.9020 C   0  0  1  0  0  3  0  0  0  0  0  0
  183.9980  177.5400  138.0260 C   0  0  0  0  0  1  0  0  0  0  0  0
  190.9290  175.8030  135.2030 C   0  0  0  0  0  3  0  0  0  0  0  0
  190.2880  176.7980  138.6810 C   0  0  0  0  0  0  0  0  0  0  0  0
  185.4490  177.2230  137.7200 C   0  0  2  0  0  3  0  0  0  0  0  0
  192.7890  174.2650  135.9540 C   0  0  0  0  0  0  0  0  0  0  0  0
  191.0510  176.3190  137.6590 C   0  0  1  0  0  3  0  0  0  0  0  0
  189.5790  177.5950  136.0310 C   0  0  0  0  0  2  0  0  0  0  0  0
  191.8730  174.6870  135.0870 C   0  0  0  0  0  3  0  0  0  0  0  0
  188.7010  177.6180  140.8810 C   0  0  0  0  0  0  0  0  0  0  0  0
  189.0310  177.4420  138.4490 C   0  0  0  0  0  0  0  0  0  0  0  0
  190.5700  176.5110  136.2710 C   0  0  0  0  0  0  0  0  0  0  0  0
  186.6790  178.5630  141.7460 N   0  0  0  0  0  0  0  0  0  0  0  0
  189.9530  177.0390  141.0870 C   0  0  0  0  0  3  0  0  0  0  0  0
  187.9050  178.0240  141.9690 C   0  0  0  0  0  0  0  0  0  0  0  0
  186.1250  175.5150  136.0590 C   0  0  0  0  0  1  0  0  0  0  0  0
  193.6390  173.1210  135.5350 C   0  0  0  0  0  1  0  0  0  0  0  0
  193.0970  174.8740  137.2500 C   0  0  0  0  0  3  0  0  0  0  0  0
  190.7220  176.6270  140.0070 C   0  0  0  0  0  3  0  0  0  0  0  0
  186.1810  178.7180  140.4930 C   0  0  0  0  0  3  0  0  0  0  0  0
  188.2200  177.7950  139.5620 C   0  0  0  0  0  0  0  0  0  0  0  0
  186.6310  177.9170  135.7010 C   0  0  0  0  0  2  0  0  0  0  0  0
  1 27  2  0  0  0  0
  1 26  1  0  0  0  0
  2  1  1  1  0  0  0
  3 14  1  1  0  0  0
  3 17  1  0  0  0  0
  6 22  1  1  0  0  0
  6 11  1  0  0  0  0
  7 28  1  6  0  0  0
  7  3  1  0  0  0  0
  7  2  1  0  0  0  0
  9 18  2  0  0  0  0
 10 25  1  0  0  0  0
 11  2  1  0  0  0  0
 11  8  1  6  0  0  0
 12 24  1  0  0  0  0
 13  4  1  6  0  0  0
 13 10  1  0  0  0  0
 14 18  1  0  0  0  0
 15  9  1  0  0  0  0
 15 12  2  0  0  0  0
 16 20  1  0  0  0  0
 16 21  2  0  0  0  0
 17 10  2  0  0  0  0
 17 27  1  0  0  0  0
 18 13  1  0  0  0  0
 19 21  1  0  0  0  0
 21  5  1  0  0  0  0
 23 12  1  0  0  0  0
 24  4  2  0  0  0  0
 25 20  2  0  0  0  0
 26 19  2  0  0  0  0
 27 16  1  0  0  0  0
 28  6  1  0  0  0  0
M  END
>  <MODEL>
9

>  <REMARK>
 VINA RESULT:      -7.3      3.082      6.908
  Name = 
  0 active torsions:
  status: ('A' for Active; 'I' for Inactive)
                            x       y       z     vdW  Elec       q    Type
                         _______ _______ _______ _____ _____    ______ ____

>  <TORSDO>
F 0

$$$$
