=
 OpenBabel10272400483D

 25 28  0  0  0  0  0  0  0  0999 V2000
  187.5250  177.8850  145.9700 C   0  0  0  0  0  0  0  0  0  0  0  0
  188.8430  177.4720  145.7600 C   0  0  0  0  0  0  0  0  0  0  0  0
  187.8580  178.0940  148.3600 C   0  0  0  0  0  3  0  0  0  0  0  0
  186.4600  178.0890  145.1220 C   0  0  0  0  0  0  0  0  0  0  0  0
  183.9950  178.6690  144.0050 C   0  0  0  0  0  3  0  0  0  0  0  0
  189.1910  177.6790  148.1830 C   0  0  0  0  0  3  0  0  0  0  0  0
  185.4150  178.4980  145.9260 C   0  0  0  0  0  0  0  0  0  0  0  0
  184.1630  178.7980  145.3950 C   0  0  0  0  0  3  0  0  0  0  0  0
  191.0180  176.9500  146.7080 C   0  0  0  0  0  0  0  0  0  0  0  0
  191.8040  176.8400  147.6870 O   0  0  0  0  0  0  0  0  0  0  0  0
  189.3370  177.1630  144.4920 C   0  0  0  0  0  2  0  0  0  0  0  0
  185.0660  178.2490  143.1850 C   0  0  0  0  0  3  0  0  0  0  0  0
  187.0480  178.1870  147.2310 C   0  0  0  0  0  0  0  0  0  0  0  0
  185.7820  178.5530  147.1900 O   0  0  0  0  0  0  0  0  0  0  0  0
  191.4650  176.6570  145.4560 N   0  0  0  0  0  0  0  0  0  0  0  0
  186.3230  177.9520  143.7430 C   0  0  0  0  0  3  0  0  0  0  0  0
  190.6670  176.7610  144.3580 C   0  0  0  0  0  0  0  0  0  0  0  0
  189.6900  177.3670  146.8950 C   0  0  0  0  0  0  0  0  0  0  0  0
  191.2000  176.4040  143.0170 C   0  0  0  0  0  2  0  0  0  0  0  0
  190.1050  176.0300  142.1390 N   0  0  0  0  0  2  0  0  0  0  0  0
  190.1430  176.9410  141.0090 C   0  0  0  0  0  2  0  0  0  0  0  0
  188.9320  177.8590  141.0390 C   0  0  0  0  0  2  0  0  0  0  0  0
  188.4710  178.1850  139.6550 C   0  0  0  0  0  0  0  0  0  0  0  0
  189.4280  178.1060  138.5170 C   0  0  0  0  0  1  0  0  0  0  0  0
  187.3090  178.4970  139.4500 O   0  0  0  0  0  0  0  0  0  0  0  0
  1 13  1  0  0  0  0
  2  1  2  0  0  0  0
  2 18  1  0  0  0  0
  4  7  1  0  0  0  0
  4  1  1  0  0  0  0
  5  8  1  0  0  0  0
  6  3  1  0  0  0  0
  7 14  1  0  0  0  0
  8  7  2  0  0  0  0
  9 18  1  0  0  0  0
  9 10  2  0  0  0  0
 11  2  1  0  0  0  0
 12 16  1  0  0  0  0
 12  5  2  0  0  0  0
 13  3  2  0  0  0  0
 14 13  1  0  0  0  0
 15  9  1  0  0  0  0
 16  4  2  0  0  0  0
 17 11  1  0  0  0  0
 17 15  2  0  0  0  0
 18  6  2  0  0  0  0
 19 17  1  0  0  0  0
 20 19  1  0  0  0  0
 21 22  1  0  0  0  0
 21 20  1  0  0  0  0
 23 22  1  0  0  0  0
 24 23  1  0  0  0  0
 25 23  2  0  0  0  0
M  END
>  <MODEL>
1

>  <REMARK>
 VINA RESULT:     -10.5      0.000      0.000
  Name = 
  5 active torsions:
  status: ('A' for Active; 'I' for Inactive)
    1  A    between atoms: C_2  and  C_25
    2  A    between atoms: C_6  and  N_15
    3  A    between atoms: C_6  and  C_23
    4  A    between atoms: N_15  and  C_21
    5  A    between atoms: C_21  and  C_25
                            x       y       z     vdW  Elec       q    Type
                         _______ _______ _______ _____ _____    ______ ____

>  <TORSDO>
F 5

$$$$
=
 OpenBabel10272400483D

 25 28  0  0  0  0  0  0  0  0999 V2000
  187.1730  177.9490  145.5300 C   0  0  0  0  0  0  0  0  0  0  0  0
  188.4690  177.5880  145.1520 C   0  0  0  0  0  0  0  0  0  0  0  0
  187.7420  177.9320  147.8850 C   0  0  0  0  0  3  0  0  0  0  0  0
  186.0260  178.2090  144.8160 C   0  0  0  0  0  0  0  0  0  0  0  0
  183.4540  178.8360  144.0100 C   0  0  0  0  0  3  0  0  0  0  0  0
  189.0560  177.5680  147.5360 C   0  0  0  0  0  3  0  0  0  0  0  0
  185.0620  178.5140  145.7550 C   0  0  0  0  0  0  0  0  0  0  0  0
  183.7590  178.8340  145.3830 C   0  0  0  0  0  3  0  0  0  0  0  0
  190.7350  177.0280  145.8240 C   0  0  0  0  0  0  0  0  0  0  0  0
  191.6170  176.8420  146.7050 O   0  0  0  0  0  0  0  0  0  0  0  0
  188.8370  177.4160  143.8170 C   0  0  0  0  0  2  0  0  0  0  0  0
  184.4420  178.5240  143.0510 C   0  0  0  0  0  3  0  0  0  0  0  0
  186.8220  178.1150  146.8560 C   0  0  0  0  0  0  0  0  0  0  0  0
  185.5530  178.4540  146.9760 O   0  0  0  0  0  0  0  0  0  0  0  0
  191.0580  176.8680  144.5110 N   0  0  0  0  0  0  0  0  0  0  0  0
  185.7530  178.2030  143.4500 C   0  0  0  0  0  3  0  0  0  0  0  0
  190.1530  177.0590  143.5130 C   0  0  0  0  0  0  0  0  0  0  0  0
  189.4270  177.3940  146.1820 C   0  0  0  0  0  0  0  0  0  0  0  0
  190.5530  176.8460  142.0970 C   0  0  0  0  0  2  0  0  0  0  0  0
  191.8800  177.3930  141.8760 N   0  0  0  0  0  2  0  0  0  0  0  0
  192.0680  177.4680  140.4380 C   0  0  0  0  0  2  0  0  0  0  0  0
  190.8310  176.9520  139.7220 C   0  0  0  0  0  2  0  0  0  0  0  0
  191.2030  176.0590  138.5820 C   0  0  0  0  0  0  0  0  0  0  0  0
  192.2930  176.4610  137.6510 C   0  0  0  0  0  1  0  0  0  0  0  0
  190.6310  174.9930  138.4230 O   0  0  0  0  0  0  0  0  0  0  0  0
  1 13  1  0  0  0  0
  2  1  2  0  0  0  0
  2 18  1  0  0  0  0
  4  1  1  0  0  0  0
  4  7  1  0  0  0  0
  5  8  1  0  0  0  0
  6  3  1  0  0  0  0
  7 14  1  0  0  0  0
  8  7  2  0  0  0  0
  9 18  1  0  0  0  0
  9 10  2  0  0  0  0
 11  2  1  0  0  0  0
 12 16  1  0  0  0  0
 12  5  2  0  0  0  0
 13 14  1  0  0  0  0
 13  3  2  0  0  0  0
 15  9  1  0  0  0  0
 16  4  2  0  0  0  0
 17 11  1  0  0  0  0
 17 15  2  0  0  0  0
 18  6  2  0  0  0  0
 19 17  1  0  0  0  0
 20 19  1  0  0  0  0
 21 20  1  0  0  0  0
 22 21  1  0  0  0  0
 23 22  1  0  0  0  0
 24 23  1  0  0  0  0
 25 23  2  0  0  0  0
M  END
>  <MODEL>
2

>  <REMARK>
 VINA RESULT:      -9.8      1.617      1.736
  Name = 
  5 active torsions:
  status: ('A' for Active; 'I' for Inactive)
    1  A    between atoms: C_2  and  C_25
    2  A    between atoms: C_6  and  N_15
    3  A    between atoms: C_6  and  C_23
    4  A    between atoms: N_15  and  C_21
    5  A    between atoms: C_21  and  C_25
                            x       y       z     vdW  Elec       q    Type
                         _______ _______ _______ _____ _____    ______ ____

>  <TORSDO>
F 5

$$$$
=
 OpenBabel10272400483D

 25 28  0  0  0  0  0  0  0  0999 V2000
  187.8500  177.6740  145.2810 C   0  0  0  0  0  0  0  0  0  0  0  0
  186.6200  178.0100  144.7090 C   0  0  0  0  0  0  0  0  0  0  0  0
  187.0600  178.1500  147.5210 C   0  0  0  0  0  3  0  0  0  0  0  0
  189.0440  177.2400  144.7500 C   0  0  0  0  0  0  0  0  0  0  0  0
  191.6400  176.3710  144.3460 C   0  0  0  0  0  3  0  0  0  0  0  0
  185.8090  178.4960  146.9760 C   0  0  0  0  0  3  0  0  0  0  0  0
  189.8930  177.0760  145.8260 C   0  0  0  0  0  0  0  0  0  0  0  0
  191.2050  176.6400  145.6570 C   0  0  0  0  0  3  0  0  0  0  0  0
  184.3370  178.7760  145.0270 C   0  0  0  0  0  0  0  0  0  0  0  0
  183.3870  179.1570  145.7620 O   0  0  0  0  0  0  0  0  0  0  0  0
  186.3930  177.9470  143.3340 C   0  0  0  0  0  2  0  0  0  0  0  0
  190.7680  176.5400  143.2480 C   0  0  0  0  0  3  0  0  0  0  0  0
  188.0620  177.7430  146.6440 C   0  0  0  0  0  0  0  0  0  0  0  0
  189.2910  177.3810  146.9570 O   0  0  0  0  0  0  0  0  0  0  0  0
  184.1520  178.7020  143.6800 N   0  0  0  0  0  0  0  0  0  0  0  0
  189.4460  176.9820  143.4420 C   0  0  0  0  0  3  0  0  0  0  0  0
  185.1360  178.2930  142.8340 C   0  0  0  0  0  0  0  0  0  0  0  0
  185.5810  178.4300  145.5810 C   0  0  0  0  0  0  0  0  0  0  0  0
  184.8870  178.2560  141.3690 C   0  0  0  0  0  2  0  0  0  0  0  0
  185.7860  179.1770  140.6960 N   0  0  0  0  0  2  0  0  0  0  0  0
  186.6020  178.3840  139.7950 C   0  0  0  0  0  2  0  0  0  0  0  0
  188.0430  178.3620  140.2780 C   0  0  0  0  0  2  0  0  0  0  0  0
  188.9970  178.4130  139.1270 C   0  0  0  0  0  0  0  0  0  0  0  0
  189.9640  177.3000  138.9180 C   0  0  0  0  0  1  0  0  0  0  0  0
  188.9730  179.3510  138.3480 O   0  0  0  0  0  0  0  0  0  0  0  0
  1 13  1  0  0  0  0
  2  1  2  0  0  0  0
  2 18  1  0  0  0  0
  4  1  1  0  0  0  0
  4  7  1  0  0  0  0
  5  8  1  0  0  0  0
  6  3  1  0  0  0  0
  7 14  1  0  0  0  0
  8  7  2  0  0  0  0
  9 18  1  0  0  0  0
  9 10  2  0  0  0  0
 11  2  1  0  0  0  0
 12 16  1  0  0  0  0
 12  5  2  0  0  0  0
 13 14  1  0  0  0  0
 13  3  2  0  0  0  0
 15  9  1  0  0  0  0
 16  4  2  0  0  0  0
 17 11  1  0  0  0  0
 17 15  2  0  0  0  0
 18  6  2  0  0  0  0
 19 17  1  0  0  0  0
 20 19  1  0  0  0  0
 21 22  1  0  0  0  0
 21 20  1  0  0  0  0
 23 22  1  0  0  0  0
 24 23  1  0  0  0  0
 25 23  2  0  0  0  0
M  END
>  <MODEL>
3

>  <REMARK>
 VINA RESULT:      -9.5      2.295      4.854
  Name = 
  5 active torsions:
  status: ('A' for Active; 'I' for Inactive)
    1  A    between atoms: C_2  and  C_25
    2  A    between atoms: C_6  and  N_15
    3  A    between atoms: C_6  and  C_23
    4  A    between atoms: N_15  and  C_21
    5  A    between atoms: C_21  and  C_25
                            x       y       z     vdW  Elec       q    Type
                         _______ _______ _______ _____ _____    ______ ____

>  <TORSDO>
F 5

$$$$
=
 OpenBabel10272400483D

 25 28  0  0  0  0  0  0  0  0999 V2000
  186.1460  178.3400  144.6340 C   0  0  0  0  0  0  0  0  0  0  0  0
  186.1330  178.4810  143.2430 C   0  0  0  0  0  0  0  0  0  0  0  0
  183.7730  178.7990  144.8080 C   0  0  0  0  0  3  0  0  0  0  0  0
  187.1420  178.0500  145.5380 C   0  0  0  0  0  0  0  0  0  0  0  0
  188.6290  177.5260  147.8120 C   0  0  0  0  0  3  0  0  0  0  0  0
  183.7270  178.9480  143.4100 C   0  0  0  0  0  3  0  0  0  0  0  0
  186.5330  178.0490  146.7770 C   0  0  0  0  0  0  0  0  0  0  0  0
  187.2530  177.7880  147.9400 C   0  0  0  0  0  3  0  0  0  0  0  0
  184.8590  178.9420  141.2270 C   0  0  0  0  0  0  0  0  0  0  0  0
  183.7830  179.2210  140.6350 O   0  0  0  0  0  0  0  0  0  0  0  0
  187.2820  178.3290  142.4660 C   0  0  0  0  0  2  0  0  0  0  0  0
  189.2480  177.5280  146.5430 C   0  0  0  0  0  3  0  0  0  0  0  0
  185.0000  178.4940  145.3910 C   0  0  0  0  0  0  0  0  0  0  0  0
  185.2480  178.3160  146.6750 O   0  0  0  0  0  0  0  0  0  0  0  0
  186.0010  178.7870  140.5020 N   0  0  0  0  0  0  0  0  0  0  0  0
  188.5020  177.7930  145.3810 C   0  0  0  0  0  3  0  0  0  0  0  0
  187.1930  178.4800  141.0810 C   0  0  0  0  0  0  0  0  0  0  0  0
  184.8940  178.7920  142.6240 C   0  0  0  0  0  0  0  0  0  0  0  0
  188.4130  178.3470  140.2430 C   0  0  0  0  0  2  0  0  0  0  0  0
  188.9840  177.0230  140.4150 N   0  0  0  0  0  2  0  0  0  0  0  0
  190.2700  177.2010  141.0660 C   0  0  0  0  0  2  0  0  0  0  0  0
  190.4080  176.2280  142.2250 C   0  0  0  0  0  2  0  0  0  0  0  0
  191.2630  176.8010  143.3100 C   0  0  0  0  0  0  0  0  0  0  0  0
  191.5250  178.2670  143.3490 C   0  0  0  0  0  1  0  0  0  0  0  0
  191.7290  176.0770  144.1740 O   0  0  0  0  0  0  0  0  0  0  0  0
  1 13  2  0  0  0  0
  1  4  1  0  0  0  0
  2  1  1  0  0  0  0
  3 13  1  0  0  0  0
  4  7  1  0  0  0  0
  5  8  1  0  0  0  0
  6  3  2  0  0  0  0
  7  8  2  0  0  0  0
  9 18  1  0  0  0  0
 10  9  2  0  0  0  0
 11  2  1  0  0  0  0
 12  5  2  0  0  0  0
 13 14  1  0  0  0  0
 14  7  1  0  0  0  0
 15 17  2  0  0  0  0
 15  9  1  0  0  0  0
 16  4  2  0  0  0  0
 16 12  1  0  0  0  0
 17 11  1  0  0  0  0
 18  2  2  0  0  0  0
 18  6  1  0  0  0  0
 19 20  1  0  0  0  0
 19 17  1  0  0  0  0
 20 21  1  0  0  0  0
 21 22  1  0  0  0  0
 22 23  1  0  0  0  0
 23 24  1  0  0  0  0
 23 25  2  0  0  0  0
M  END
>  <MODEL>
4

>  <REMARK>
 VINA RESULT:      -9.4      1.825      5.151
  Name = 
  5 active torsions:
  status: ('A' for Active; 'I' for Inactive)
    1  A    between atoms: C_2  and  C_25
    2  A    between atoms: C_6  and  N_15
    3  A    between atoms: C_6  and  C_23
    4  A    between atoms: N_15  and  C_21
    5  A    between atoms: C_21  and  C_25
                            x       y       z     vdW  Elec       q    Type
                         _______ _______ _______ _____ _____    ______ ____

>  <TORSDO>
F 5

$$$$
=
 OpenBabel10272400483D

 25 28  0  0  0  0  0  0  0  0999 V2000
  187.0470  177.9990  145.3300 C   0  0  0  0  0  0  0  0  0  0  0  0
  186.2140  178.2790  144.2430 C   0  0  0  0  0  0  0  0  0  0  0  0
  185.2720  178.3980  146.9290 C   0  0  0  0  0  3  0  0  0  0  0  0
  188.3720  177.6380  145.4270 C   0  0  0  0  0  0  0  0  0  0  0  0
  190.8950  176.9130  146.3010 C   0  0  0  0  0  3  0  0  0  0  0  0
  184.4080  178.6860  145.8570 C   0  0  0  0  0  3  0  0  0  0  0  0
  188.6230  177.5020  146.7780 C   0  0  0  0  0  0  0  0  0  0  0  0
  189.8820  177.1390  147.2500 C   0  0  0  0  0  3  0  0  0  0  0  0
  184.0120  178.9170  143.4410 C   0  0  0  0  0  0  0  0  0  0  0  0
  182.8090  179.2360  143.6390 O   0  0  0  0  0  0  0  0  0  0  0  0
  186.6630  178.2240  142.9230 C   0  0  0  0  0  2  0  0  0  0  0  0
  190.6350  177.0530  144.9200 C   0  0  0  0  0  3  0  0  0  0  0  0
  186.5890  178.0570  146.6320 C   0  0  0  0  0  0  0  0  0  0  0  0
  187.5450  177.7570  147.4900 O   0  0  0  0  0  0  0  0  0  0  0  0
  184.4860  178.8540  142.1670 N   0  0  0  0  0  0  0  0  0  0  0  0
  189.3550  177.4210  144.4650 C   0  0  0  0  0  3  0  0  0  0  0  0
  185.7730  178.5110  141.8870 C   0  0  0  0  0  0  0  0  0  0  0  0
  184.8660  178.6290  144.5190 C   0  0  0  0  0  0  0  0  0  0  0  0
  186.2440  178.4830  140.4780 C   0  0  0  0  0  2  0  0  0  0  0  0
  187.6790  178.7030  140.4370 N   0  0  0  0  0  2  0  0  0  0  0  0
  188.2320  177.6990  139.5460 C   0  0  0  0  0  2  0  0  0  0  0  0
  189.6840  178.0220  139.2330 C   0  0  0  0  0  2  0  0  0  0  0  0
  190.6030  177.0150  139.8450 C   0  0  0  0  0  0  0  0  0  0  0  0
  191.2240  177.2880  141.1720 C   0  0  0  0  0  1  0  0  0  0  0  0
  190.8320  175.9620  139.2730 O   0  0  0  0  0  0  0  0  0  0  0  0
  1  4  1  0  0  0  0
  1 13  2  0  0  0  0
  2 18  2  0  0  0  0
  2  1  1  0  0  0  0
  4  7  1  0  0  0  0
  5  8  1  0  0  0  0
  6  3  2  0  0  0  0
  7  8  2  0  0  0  0
  7 14  1  0  0  0  0
  9 10  2  0  0  0  0
  9 18  1  0  0  0  0
 11  2  1  0  0  0  0
 12  5  2  0  0  0  0
 13  3  1  0  0  0  0
 13 14  1  0  0  0  0
 15  9  1  0  0  0  0
 16 12  1  0  0  0  0
 16  4  2  0  0  0  0
 17 15  2  0  0  0  0
 17 11  1  0  0  0  0
 18  6  1  0  0  0  0
 19 17  1  0  0  0  0
 20 19  1  0  0  0  0
 21 20  1  0  0  0  0
 22 21  1  0  0  0  0
 22 23  1  0  0  0  0
 23 24  1  0  0  0  0
 25 23  2  0  0  0  0
M  END
>  <MODEL>
5

>  <REMARK>
 VINA RESULT:      -9.3      2.210      4.948
  Name = 
  5 active torsions:
  status: ('A' for Active; 'I' for Inactive)
    1  A    between atoms: C_2  and  C_25
    2  A    between atoms: C_6  and  N_15
    3  A    between atoms: C_6  and  C_23
    4  A    between atoms: N_15  and  C_21
    5  A    between atoms: C_21  and  C_25
                            x       y       z     vdW  Elec       q    Type
                         _______ _______ _______ _____ _____    ______ ____

>  <TORSDO>
F 5

$$$$
=
 OpenBabel10272400483D

 25 28  0  0  0  0  0  0  0  0999 V2000
  185.5180  178.2860  144.7260 C   0  0  0  0  0  0  0  0  0  0  0  0
  186.8480  177.8570  144.7660 C   0  0  0  0  0  0  0  0  0  0  0  0
  185.4720  178.7100  147.1110 C   0  0  0  0  0  3  0  0  0  0  0  0
  184.6030  178.4110  143.7050 C   0  0  0  0  0  0  0  0  0  0  0  0
  182.3540  178.8850  142.1640 C   0  0  0  0  0  3  0  0  0  0  0  0
  186.8100  178.2830  147.1850 C   0  0  0  0  0  3  0  0  0  0  0  0
  183.4500  178.8910  144.2940 C   0  0  0  0  0  0  0  0  0  0  0  0
  182.3020  179.1400  143.5470 C   0  0  0  0  0  3  0  0  0  0  0  0
  188.8380  177.4260  146.0890 C   0  0  0  0  0  0  0  0  0  0  0  0
  189.4580  177.4060  147.1860 O   0  0  0  0  0  0  0  0  0  0  0  0
  187.5310  177.4360  143.6250 C   0  0  0  0  0  2  0  0  0  0  0  0
  183.5350  178.3950  141.5650 C   0  0  0  0  0  3  0  0  0  0  0  0
  184.8520  178.7000  145.8640 C   0  0  0  0  0  0  0  0  0  0  0  0
  183.6130  179.0600  145.5900 O   0  0  0  0  0  0  0  0  0  0  0  0
  189.4730  177.0220  144.9550 N   0  0  0  0  0  0  0  0  0  0  0  0
  184.6840  178.1500  142.3400 C   0  0  0  0  0  3  0  0  0  0  0  0
  188.8610  177.0250  143.7400 C   0  0  0  0  0  0  0  0  0  0  0  0
  187.5030  177.8570  146.0260 C   0  0  0  0  0  0  0  0  0  0  0  0
  189.5940  176.5480  142.5380 C   0  0  0  0  0  2  0  0  0  0  0  0
  190.6610  177.4790  142.2140 N   0  0  0  0  0  2  0  0  0  0  0  0
  191.1470  177.1180  140.8950 C   0  0  0  0  0  2  0  0  0  0  0  0
  190.1000  177.4490  139.8440 C   0  0  0  0  0  2  0  0  0  0  0  0
  190.2730  176.5980  138.6260 C   0  0  0  0  0  0  0  0  0  0  0  0
  189.7480  177.0690  137.3140 C   0  0  0  0  0  1  0  0  0  0  0  0
  190.8580  175.5310  138.6990 O   0  0  0  0  0  0  0  0  0  0  0  0
  1  2  2  0  0  0  0
  1 13  1  0  0  0  0
  2 18  1  0  0  0  0
  3  6  1  0  0  0  0
  4  7  1  0  0  0  0
  4  1  1  0  0  0  0
  5  8  1  0  0  0  0
  7 14  1  0  0  0  0
  8  7  2  0  0  0  0
  9 10  2  0  0  0  0
 11 17  1  0  0  0  0
 11  2  1  0  0  0  0
 12  5  2  0  0  0  0
 12 16  1  0  0  0  0
 13  3  2  0  0  0  0
 14 13  1  0  0  0  0
 15  9  1  0  0  0  0
 16  4  2  0  0  0  0
 17 15  2  0  0  0  0
 18  9  1  0  0  0  0
 18  6  2  0  0  0  0
 19 17  1  0  0  0  0
 20 19  1  0  0  0  0
 21 20  1  0  0  0  0
 22 21  1  0  0  0  0
 23 25  2  0  0  0  0
 23 22  1  0  0  0  0
 24 23  1  0  0  0  0
M  END
>  <MODEL>
6

>  <REMARK>
 VINA RESULT:      -9.3      1.758      2.409
  Name = 
  5 active torsions:
  status: ('A' for Active; 'I' for Inactive)
    1  A    between atoms: C_2  and  C_25
    2  A    between atoms: C_6  and  N_15
    3  A    between atoms: C_6  and  C_23
    4  A    between atoms: N_15  and  C_21
    5  A    between atoms: C_21  and  C_25
                            x       y       z     vdW  Elec       q    Type
                         _______ _______ _______ _____ _____    ______ ____

>  <TORSDO>
F 5

$$$$
=
 OpenBabel10272400483D

 25 28  0  0  0  0  0  0  0  0999 V2000
  187.0700  178.2150  142.4950 C   0  0  0  0  0  0  0  0  0  0  0  0
  186.5830  178.1990  143.8050 C   0  0  0  0  0  0  0  0  0  0  0  0
  185.0070  179.1410  141.6260 C   0  0  0  0  0  3  0  0  0  0  0  0
  188.2710  177.8410  141.9370 C   0  0  0  0  0  0  0  0  0  0  0  0
  190.3800  177.2960  140.2300 C   0  0  0  0  0  3  0  0  0  0  0  0
  184.4870  179.1380  142.9330 C   0  0  0  0  0  3  0  0  0  0  0  0
  188.1510  178.0960  140.5860 C   0  0  0  0  0  0  0  0  0  0  0  0
  189.1930  177.8340  139.7010 C   0  0  0  0  0  3  0  0  0  0  0  0
  184.7500  178.6610  145.3310 C   0  0  0  0  0  0  0  0  0  0  0  0
  183.5820  179.0680  145.5700 O   0  0  0  0  0  0  0  0  0  0  0  0
  187.3440  177.7400  144.8800 C   0  0  0  0  0  2  0  0  0  0  0  0
  190.5000  177.0350  141.6130 C   0  0  0  0  0  3  0  0  0  0  0  0
  186.3050  178.6720  141.4400 C   0  0  0  0  0  0  0  0  0  0  0  0
  186.9660  178.5950  140.3010 O   0  0  0  0  0  0  0  0  0  0  0  0
  185.5220  178.2050  146.3550 N   0  0  0  0  0  0  0  0  0  0  0  0
  189.4340  177.3090  142.4890 C   0  0  0  0  0  3  0  0  0  0  0  0
  186.7930  177.7580  146.1630 C   0  0  0  0  0  0  0  0  0  0  0  0
  185.2620  178.6720  144.0230 C   0  0  0  0  0  0  0  0  0  0  0  0
  187.5830  177.2460  147.3140 C   0  0  0  0  0  2  0  0  0  0  0  0
  188.2960  178.3430  147.9440 N   0  0  0  0  0  2  0  0  0  0  0  0
  189.6660  177.8990  148.1330 C   0  0  0  0  0  2  0  0  0  0  0  0
  189.9400  176.6740  147.2760 C   0  0  0  0  0  2  0  0  0  0  0  0
  191.3760  176.6180  146.8620 C   0  0  0  0  0  0  0  0  0  0  0  0
  192.3160  175.7080  147.5730 C   0  0  0  0  0  1  0  0  0  0  0  0
  191.7760  177.2990  145.9330 O   0  0  0  0  0  0  0  0  0  0  0  0
  1  2  2  0  0  0  0
  2 18  1  0  0  0  0
  2 11  1  0  0  0  0
  3  6  1  0  0  0  0
  4 16  1  0  0  0  0
  4  1  1  0  0  0  0
  5 12  1  0  0  0  0
  6 18  2  0  0  0  0
  7  4  2  0  0  0  0
  8  5  2  0  0  0  0
  8  7  1  0  0  0  0
  9 10  2  0  0  0  0
  9 15  1  0  0  0  0
 11 17  1  0  0  0  0
 12 16  2  0  0  0  0
 13  3  2  0  0  0  0
 13  1  1  0  0  0  0
 14  7  1  0  0  0  0
 14 13  1  0  0  0  0
 17 15  2  0  0  0  0
 17 19  1  0  0  0  0
 18  9  1  0  0  0  0
 19 20  1  0  0  0  0
 20 21  1  0  0  0  0
 22 21  1  0  0  0  0
 23 22  1  0  0  0  0
 23 24  1  0  0  0  0
 25 23  2  0  0  0  0
M  END
>  <MODEL>
7

>  <REMARK>
 VINA RESULT:      -9.2      2.018      6.403
  Name = 
  5 active torsions:
  status: ('A' for Active; 'I' for Inactive)
    1  A    between atoms: C_2  and  C_25
    2  A    between atoms: C_6  and  N_15
    3  A    between atoms: C_6  and  C_23
    4  A    between atoms: N_15  and  C_21
    5  A    between atoms: C_21  and  C_25
                            x       y       z     vdW  Elec       q    Type
                         _______ _______ _______ _____ _____    ______ ____

>  <TORSDO>
F 5

$$$$
=
 OpenBabel10272400483D

 25 28  0  0  0  0  0  0  0  0999 V2000
  187.7650  177.6280  144.9360 C   0  0  0  0  0  0  0  0  0  0  0  0
  186.5050  177.9860  144.4480 C   0  0  0  0  0  0  0  0  0  0  0  0
  187.1260  178.0930  147.2260 C   0  0  0  0  0  3  0  0  0  0  0  0
  188.9160  177.1830  144.3260 C   0  0  0  0  0  0  0  0  0  0  0  0
  191.4680  176.2820  143.7500 C   0  0  0  0  0  3  0  0  0  0  0  0
  185.8480  178.4610  146.7660 C   0  0  0  0  0  3  0  0  0  0  0  0
  189.8290  176.9970  145.3440 C   0  0  0  0  0  0  0  0  0  0  0  0
  191.1210  176.5450  145.0880 C   0  0  0  0  0  3  0  0  0  0  0  0
  184.2580  178.7800  144.9170 C   0  0  0  0  0  0  0  0  0  0  0  0
  183.3630  179.1660  145.7150 O   0  0  0  0  0  0  0  0  0  0  0  0
  186.1900  177.9380  143.0890 C   0  0  0  0  0  2  0  0  0  0  0  0
  190.5300  176.4730  142.7110 C   0  0  0  0  0  3  0  0  0  0  0  0
  188.0640  177.6800  146.2840 C   0  0  0  0  0  0  0  0  0  0  0  0
  189.3050  177.2980  146.5140 O   0  0  0  0  0  0  0  0  0  0  0  0
  183.9870  178.7210  143.5850 N   0  0  0  0  0  0  0  0  0  0  0  0
  189.2300  176.9310  142.9930 C   0  0  0  0  0  3  0  0  0  0  0  0
  184.9090  178.3070  142.6740 C   0  0  0  0  0  0  0  0  0  0  0  0
  185.5300  178.4110  145.3870 C   0  0  0  0  0  0  0  0  0  0  0  0
  184.5660  178.2870  141.2270 C   0  0  0  0  0  2  0  0  0  0  0  0
  184.9700  179.5390  140.6120 N   0  0  0  0  0  2  0  0  0  0  0  0
  184.4780  179.5130  139.2460 C   0  0  0  0  0  2  0  0  0  0  0  0
  184.6710  178.1290  138.6480 C   0  0  0  0  0  2  0  0  0  0  0  0
  185.8390  178.1040  137.7150 C   0  0  0  0  0  0  0  0  0  0  0  0
  185.7880  177.2640  136.4860 C   0  0  0  0  0  1  0  0  0  0  0  0
  186.8250  178.7850  137.9440 O   0  0  0  0  0  0  0  0  0  0  0  0
  1 13  1  0  0  0  0
  2  1  2  0  0  0  0
  2 18  1  0  0  0  0
  4  1  1  0  0  0  0
  4  7  1  0  0  0  0
  5  8  1  0  0  0  0
  6  3  1  0  0  0  0
  7 14  1  0  0  0  0
  8  7  2  0  0  0  0
  9 18  1  0  0  0  0
  9 10  2  0  0  0  0
 11  2  1  0  0  0  0
 12 16  1  0  0  0  0
 12  5  2  0  0  0  0
 13 14  1  0  0  0  0
 13  3  2  0  0  0  0
 15  9  1  0  0  0  0
 16  4  2  0  0  0  0
 17 11  1  0  0  0  0
 17 15  2  0  0  0  0
 18  6  2  0  0  0  0
 19 17  1  0  0  0  0
 20 19  1  0  0  0  0
 21 20  1  0  0  0  0
 22 21  1  0  0  0  0
 23 25  2  0  0  0  0
 23 22  1  0  0  0  0
 24 23  1  0  0  0  0
M  END
>  <MODEL>
8

>  <REMARK>
 VINA RESULT:      -9.1      2.699      5.238
  Name = 
  5 active torsions:
  status: ('A' for Active; 'I' for Inactive)
    1  A    between atoms: C_2  and  C_25
    2  A    between atoms: C_6  and  N_15
    3  A    between atoms: C_6  and  C_23
    4  A    between atoms: N_15  and  C_21
    5  A    between atoms: C_21  and  C_25
                            x       y       z     vdW  Elec       q    Type
                         _______ _______ _______ _____ _____    ______ ____

>  <TORSDO>
F 5

$$$$
=
 OpenBabel10272400483D

 25 28  0  0  0  0  0  0  0  0999 V2000
  187.5500  177.7230  144.6190 C   0  0  0  0  0  0  0  0  0  0  0  0
  188.4780  177.4830  143.6010 C   0  0  0  0  0  0  0  0  0  0  0  0
  189.1620  177.2130  146.3540 C   0  0  0  0  0  3  0  0  0  0  0  0
  186.2280  178.1040  144.6110 C   0  0  0  0  0  0  0  0  0  0  0  0
  183.6440  178.8310  145.2830 C   0  0  0  0  0  3  0  0  0  0  0  0
  190.1190  176.9630  145.3530 C   0  0  0  0  0  3  0  0  0  0  0  0
  185.8530  178.1770  145.9380 C   0  0  0  0  0  0  0  0  0  0  0  0
  184.5610  178.5400  146.3090 C   0  0  0  0  0  3  0  0  0  0  0  0
  190.7360  176.8430  142.9750 C   0  0  0  0  0  0  0  0  0  0  0  0
  191.9110  176.4930  143.2680 O   0  0  0  0  0  0  0  0  0  0  0  0
  188.1550  177.6110  142.2500 C   0  0  0  0  0  2  0  0  0  0  0  0
  184.0310  178.7560  143.9270 C   0  0  0  0  0  3  0  0  0  0  0  0
  187.8840  177.5920  145.9530 C   0  0  0  0  0  0  0  0  0  0  0  0
  186.8560  177.8680  146.7330 O   0  0  0  0  0  0  0  0  0  0  0  0
  190.3840  176.9780  141.6670 N   0  0  0  0  0  0  0  0  0  0  0  0
  185.3420  178.3870  143.5750 C   0  0  0  0  0  3  0  0  0  0  0  0
  189.1340  177.3590  141.2880 C   0  0  0  0  0  0  0  0  0  0  0  0
  189.7890  177.0940  143.9820 C   0  0  0  0  0  0  0  0  0  0  0  0
  188.7970  177.4650  139.8440 C   0  0  0  0  0  2  0  0  0  0  0  0
  190.0180  177.5540  139.0620 N   0  0  0  0  0  2  0  0  0  0  0  0
  189.6300  177.4470  137.6660 C   0  0  0  0  0  2  0  0  0  0  0  0
  189.0390  178.7620  137.1870 C   0  0  0  0  0  2  0  0  0  0  0  0
  187.6190  178.5860  136.7500 C   0  0  0  0  0  0  0  0  0  0  0  0
  187.3230  178.0930  135.3760 C   0  0  0  0  0  1  0  0  0  0  0  0
  186.7040  178.8250  137.5200 O   0  0  0  0  0  0  0  0  0  0  0  0
  1 13  2  0  0  0  0
  2 18  2  0  0  0  0
  2  1  1  0  0  0  0
  4  1  1  0  0  0  0
  4  7  1  0  0  0  0
  5  8  1  0  0  0  0
  6  3  2  0  0  0  0
  7  8  2  0  0  0  0
  7 14  1  0  0  0  0
  9 10  2  0  0  0  0
  9 18  1  0  0  0  0
 11  2  1  0  0  0  0
 12  5  2  0  0  0  0
 13  3  1  0  0  0  0
 13 14  1  0  0  0  0
 15  9  1  0  0  0  0
 16 12  1  0  0  0  0
 16  4  2  0  0  0  0
 17 15  2  0  0  0  0
 17 11  1  0  0  0  0
 18  6  1  0  0  0  0
 19 17  1  0  0  0  0
 20 19  1  0  0  0  0
 21 20  1  0  0  0  0
 22 21  1  0  0  0  0
 23 22  1  0  0  0  0
 23 25  2  0  0  0  0
 24 23  1  0  0  0  0
M  END
>  <MODEL>
9

>  <REMARK>
 VINA RESULT:      -9.0      1.726      2.787
  Name = 
  5 active torsions:
  status: ('A' for Active; 'I' for Inactive)
    1  A    between atoms: C_2  and  C_25
    2  A    between atoms: C_6  and  N_15
    3  A    between atoms: C_6  and  C_23
    4  A    between atoms: N_15  and  C_21
    5  A    between atoms: C_21  and  C_25
                            x       y       z     vdW  Elec       q    Type
                         _______ _______ _______ _____ _____    ______ ____

>  <TORSDO>
F 5

$$$$
