=
 OpenBabel10272402043D

 32 36  0  0  1  0  0  0  0  0999 V2000
  185.3050  177.0660  137.2840 C   0  0  2  0  0  3  0  0  0  0  0  0
  187.7130  176.9470  137.6000 C   0  0  2  0  0  3  0  0  0  0  0  0
  184.0900  176.3910  136.6870 C   0  0  0  0  0  2  0  0  0  0  0  0
  186.4580  176.4510  137.1180 C   0  0  1  0  0  3  0  0  0  0  0  0
  188.4460  175.6390  137.6510 C   0  0  1  0  0  3  0  0  0  0  0  0
  187.4980  177.6090  138.9420 C   0  0  2  0  0  3  0  0  0  0  0  0
  189.8800  177.2000  139.8530 C   0  0  0  0  0  0  0  0  0  0  0  0
  186.6010  175.0980  136.5810 C   0  0  2  0  0  3  0  0  0  0  0  0
  190.3330  176.2290  139.1000 N   0  0  0  0  0  0  0  0  0  0  0  0
  187.9970  174.8720  136.5440 O   0  0  0  0  0  0  0  0  0  0  0  0
  185.8900  175.0840  135.2350 C   0  0  0  0  0  2  0  0  0  0  0  0
  186.5340  178.6440  138.7830 O   0  0  0  0  0  0  0  0  0  0  0  0
  185.2650  178.1050  138.4030 C   0  0  1  0  0  3  0  0  0  0  0  0
  188.8350  178.2080  139.3990 C   0  0  1  0  0  3  0  0  0  0  0  0
  189.9500  175.8510  137.7320 C   0  0  2  0  0  3  0  0  0  0  0  0
  184.4230  175.5940  135.3840 C   0  0  0  0  0  2  0  0  0  0  0  0
  189.3670  179.0880  138.4530 O   0  0  0  0  0  1  0  0  0  0  0  0
  184.1700  179.1830  138.2930 C   0  0  2  0  0  3  0  0  0  0  0  0
  184.1650  180.0570  139.4090 O   0  0  0  0  0  0  0  0  0  0  0  0
  183.0410  179.2160  139.2890 C   0  0  2  0  0  0  0  0  0  0  0  0
  182.8680  178.2810  140.5250 C   0  0  0  0  0  0  0  0  0  0  0  0
  182.6110  176.8600  140.0590 C   0  0  0  0  0  1  0  0  0  0  0  0
  181.6620  178.7230  141.3380 C   0  0  0  0  0  1  0  0  0  0  0  0
  184.0470  178.2790  141.4850 C   0  0  0  0  0  1  0  0  0  0  0  0
  181.3130  179.3420  137.6150 O   0  0  0  0  0  1  0  0  0  0  0  0
  181.7790  179.9470  138.7820 C   0  0  2  0  0  3  0  0  0  0  0  0
  181.9580  181.4420  138.5490 C   0  0  0  0  0  1  0  0  0  0  0  0
  190.4240  176.8340  136.7640 N   0  0  0  0  0  2  0  0  0  0  0  0
  191.1860  176.1130  135.7580 C   0  0  0  0  0  1  0  0  0  0  0  0
  190.4130  177.3130  141.1420 O   0  0  0  0  0  0  0  0  0  0  0  0
  188.8310  176.5250  142.7820 C   0  0  0  0  0  1  0  0  0  0  0  0
  190.2040  176.3440  142.1620 C   0  0  0  0  0  2  0  0  0  0  0  0
  1  3  1  1  0  0  0
  1 13  1  0  0  0  0
  2  5  1  0  0  0  0
  2  6  1  0  0  0  0
  4  1  1  0  0  0  0
  4  2  1  0  0  0  0
  5 15  1  0  0  0  0
  6 14  1  0  0  0  0
  7 30  1  0  0  0  0
  8  4  1  0  0  0  0
  9  7  2  0  0  0  0
 10  8  1  0  0  0  0
 10  5  1  0  0  0  0
 11 16  1  0  0  0  0
 11  8  1  0  0  0  0
 12  6  1  0  0  0  0
 13 12  1  0  0  0  0
 14  7  1  0  0  0  0
 15  9  1  0  0  0  0
 16  3  1  0  0  0  0
 17 14  1  0  0  0  0
 18 13  1  0  0  0  0
 18 20  1  0  0  0  0
 18 19  1  0  0  0  0
 20 19  1  0  0  0  0
 20 21  1  0  0  0  0
 21 23  1  0  0  0  0
 21 24  1  0  0  0  0
 22 21  1  0  0  0  0
 25 26  1  0  0  0  0
 26 20  1  0  0  0  0
 27 26  1  0  0  0  0
 28 15  1  0  0  0  0
 29 28  1  0  0  0  0
 30 32  1  0  0  0  0
 32 31  1  0  0  0  0
M  END
>  <MODEL>
1

>  <REMARK>
 VINA RESULT:      -6.5      0.000      0.000
  Name = 
  6 active torsions:
  status: ('A' for Active; 'I' for Inactive)
    1  A    between atoms: C_3  and  C_22
    2  A    between atoms: O_11  and  C_12
    3  A    between atoms: O_11  and  C_31
    4  A    between atoms: N_13  and  C_29
    5  A    between atoms: C_15  and  C_22
    6  A    between atoms: C_16  and  C_27
                            x       y       z     vdW  Elec       q    Type
                         _______ _______ _______ _____ _____    ______ ____

>  <TORSDO>
F 6

$$$$
=
 OpenBabel10272402043D

 32 36  0  0  1  0  0  0  0  0999 V2000
  189.0720  176.5700  137.7800 C   0  0  2  0  0  3  0  0  0  0  0  0
  188.8410  177.0530  140.1520 C   0  0  2  0  0  3  0  0  0  0  0  0
  188.5640  176.8770  136.3900 C   0  0  0  0  0  2  0  0  0  0  0  0
  188.5010  177.2240  138.7710 C   0  0  1  0  0  3  0  0  0  0  0  0
  188.3550  178.3810  140.6510 C   0  0  1  0  0  3  0  0  0  0  0  0
  190.3340  176.8360  140.2690 C   0  0  2  0  0  3  0  0  0  0  0  0
  190.5770  177.7800  142.6600 C   0  0  0  0  0  0  0  0  0  0  0  0
  187.5730  178.3400  138.5950 C   0  0  2  0  0  3  0  0  0  0  0  0
  189.4960  178.5030  142.8160 N   0  0  0  0  0  0  0  0  0  0  0  0
  187.1870  178.6970  139.9080 O   0  0  0  0  0  0  0  0  0  0  0  0
  186.4570  177.8420  137.6870 C   0  0  0  0  0  2  0  0  0  0  0  0
  190.6860  175.7050  139.4820 O   0  0  0  0  0  0  0  0  0  0  0  0
  190.4320  175.9480  138.0950 C   0  0  1  0  0  3  0  0  0  0  0  0
  190.6640  176.5700  141.7430 C   0  0  1  0  0  3  0  0  0  0  0  0
  188.1860  178.3770  142.1630 C   0  0  2  0  0  3  0  0  0  0  0  0
  187.0450  177.2460  136.3710 C   0  0  0  0  0  2  0  0  0  0  0  0
  189.9300  175.4980  142.2590 O   0  0  0  0  0  1  0  0  0  0  0  0
  190.8690  174.7760  137.1960 C   0  0  2  0  0  3  0  0  0  0  0  0
  191.8270  173.9450  137.8290 O   0  0  0  0  0  0  0  0  0  0  0  0
  192.2950  174.6810  136.7220 C   0  0  2  0  0  0  0  0  0  0  0  0
  193.4640  175.6400  137.1030 C   0  0  0  0  0  0  0  0  0  0  0  0
  194.1690  176.1100  135.8440 C   0  0  0  0  0  1  0  0  0  0  0  0
  194.4840  174.8970  137.9490 C   0  0  0  0  0  1  0  0  0  0  0  0
  193.0450  176.8550  137.9150 C   0  0  0  0  0  1  0  0  0  0  0  0
  191.4060  174.0320  134.5790 O   0  0  0  0  0  1  0  0  0  0  0  0
  192.4770  173.8260  135.4490 C   0  0  2  0  0  3  0  0  0  0  0  0
  192.6540  172.3340  135.7020 C   0  0  0  0  0  1  0  0  0  0  0  0
  187.4750  177.1950  142.6370 N   0  0  0  0  0  2  0  0  0  0  0  0
  187.2220  177.3860  144.0550 C   0  0  0  0  0  1  0  0  0  0  0  0
  191.7060  178.1470  143.4030 O   0  0  0  0  0  0  0  0  0  0  0  0
  191.5060  176.7710  145.3730 C   0  0  0  0  0  1  0  0  0  0  0  0
  191.7330  178.1680  144.8250 C   0  0  0  0  0  2  0  0  0  0  0  0
  1  3  1  6  0  0  0
  1 13  1  0  0  0  0
  1  4  1  0  0  0  0
  2  6  1  0  0  0  0
  2  5  1  0  0  0  0
  4  2  1  0  0  0  0
  5 15  1  0  0  0  0
  6 14  1  0  0  0  0
  7  9  2  0  0  0  0
  7 30  1  0  0  0  0
  8  4  1  0  0  0  0
  8 10  1  0  0  0  0
 10  5  1  0  0  0  0
 11  8  1  0  0  0  0
 12  6  1  0  0  0  0
 13 12  1  0  0  0  0
 14 17  1  0  0  0  0
 14  7  1  0  0  0  0
 15 28  1  0  0  0  0
 15  9  1  0  0  0  0
 16  3  1  0  0  0  0
 16 11  1  0  0  0  0
 18 19  1  0  0  0  0
 18 13  1  0  0  0  0
 20 21  1  0  0  0  0
 20 18  1  0  0  0  0
 20 19  1  0  0  0  0
 21 24  1  0  0  0  0
 21 23  1  0  0  0  0
 22 21  1  0  0  0  0
 25 26  1  0  0  0  0
 26 27  1  0  0  0  0
 26 20  1  0  0  0  0
 28 29  1  0  0  0  0
 30 32  1  0  0  0  0
 32 31  1  0  0  0  0
M  END
>  <MODEL>
2

>  <REMARK>
 VINA RESULT:      -6.0      3.424      7.533
  Name = 
  6 active torsions:
  status: ('A' for Active; 'I' for Inactive)
    1  A    between atoms: C_3  and  C_22
    2  A    between atoms: O_11  and  C_12
    3  A    between atoms: O_11  and  C_31
    4  A    between atoms: N_13  and  C_29
    5  A    between atoms: C_15  and  C_22
    6  A    between atoms: C_16  and  C_27
                            x       y       z     vdW  Elec       q    Type
                         _______ _______ _______ _____ _____    ______ ____

>  <TORSDO>
F 6

$$$$
=
 OpenBabel10272402043D

 32 36  0  0  1  0  0  0  0  0999 V2000
  186.4120  177.8460  137.6310 C   0  0  2  0  0  3  0  0  0  0  0  0
  188.3540  177.5770  139.0700 C   0  0  2  0  0  3  0  0  0  0  0  0
  185.7890  177.4970  136.2980 C   0  0  0  0  0  2  0  0  0  0  0  0
  187.6060  177.3430  137.8710 C   0  0  1  0  0  3  0  0  0  0  0  0
  189.2270  176.3590  139.0100 C   0  0  1  0  0  3  0  0  0  0  0  0
  187.4010  177.6200  140.2440 C   0  0  2  0  0  3  0  0  0  0  0  0
  189.1010  176.8390  142.0250 C   0  0  0  0  0  0  0  0  0  0  0  0
  188.2590  176.3370  137.0340 C   0  0  2  0  0  3  0  0  0  0  0  0
  190.0430  176.2660  141.3190 N   0  0  0  0  0  0  0  0  0  0  0  0
  189.5200  176.1300  137.6400 O   0  0  0  0  0  0  0  0  0  0  0  0
  188.2850  176.8950  135.6180 C   0  0  0  0  0  2  0  0  0  0  0  0
  186.4370  178.6380  140.0020 O   0  0  0  0  0  0  0  0  0  0  0  0
  185.6370  178.3220  138.8590 C   0  0  1  0  0  3  0  0  0  0  0  0
  188.2100  177.9570  141.5030 C   0  0  1  0  0  3  0  0  0  0  0  0
  190.4360  176.4990  139.9220 C   0  0  2  0  0  3  0  0  0  0  0  0
  186.8520  177.3140  135.1660 C   0  0  0  0  0  2  0  0  0  0  0  0
  188.9320  179.1450  141.3620 O   0  0  0  0  0  1  0  0  0  0  0  0
  184.5290  179.3610  138.6040 C   0  0  2  0  0  3  0  0  0  0  0  0
  184.2060  180.0980  139.7710 O   0  0  0  0  0  0  0  0  0  0  0  0
  183.2000  179.2320  139.3000 C   0  0  2  0  0  0  0  0  0  0  0  0
  182.8070  178.1530  140.3560 C   0  0  0  0  0  0  0  0  0  0  0  0
  181.3800  178.3820  140.8150 C   0  0  0  0  0  1  0  0  0  0  0  0
  183.7070  178.2750  141.5750 C   0  0  0  0  0  1  0  0  0  0  0  0
  182.9440  176.7180  139.8720 C   0  0  0  0  0  1  0  0  0  0  0  0
  181.8590  179.4360  137.3090 O   0  0  0  0  0  1  0  0  0  0  0  0
  182.0440  179.9650  138.5860 C   0  0  2  0  0  3  0  0  0  0  0  0
  182.2060  181.4780  138.4980 C   0  0  0  0  0  1  0  0  0  0  0  0
  191.0970  177.7900  139.7720 N   0  0  0  0  0  2  0  0  0  0  0  0
  192.4590  177.6350  140.2530 C   0  0  0  0  0  1  0  0  0  0  0  0
  188.9270  176.3970  143.3410 O   0  0  0  0  0  0  0  0  0  0  0  0
  187.4540  177.3240  145.0090 C   0  0  0  0  0  1  0  0  0  0  0  0
  188.8680  177.2740  144.4600 C   0  0  0  0  0  2  0  0  0  0  0  0
  1  3  1  1  0  0  0
  1  4  1  0  0  0  0
  1 13  1  0  0  0  0
  2  6  1  0  0  0  0
  4  2  1  0  0  0  0
  5  2  1  0  0  0  0
  5 15  1  0  0  0  0
  6 14  1  0  0  0  0
  7 30  1  0  0  0  0
  8 10  1  0  0  0  0
  8  4  1  0  0  0  0
  9  7  2  0  0  0  0
 10  5  1  0  0  0  0
 11  8  1  0  0  0  0
 12  6  1  0  0  0  0
 13 12  1  0  0  0  0
 14  7  1  0  0  0  0
 15  9  1  0  0  0  0
 16 11  1  0  0  0  0
 16  3  1  0  0  0  0
 17 14  1  0  0  0  0
 18 13  1  0  0  0  0
 18 20  1  0  0  0  0
 18 19  1  0  0  0  0
 20 19  1  0  0  0  0
 20 21  1  0  0  0  0
 21 22  1  0  0  0  0
 21 23  1  0  0  0  0
 24 21  1  0  0  0  0
 25 26  1  0  0  0  0
 26 20  1  0  0  0  0
 27 26  1  0  0  0  0
 28 15  1  0  0  0  0
 28 29  1  0  0  0  0
 30 32  1  0  0  0  0
 32 31  1  0  0  0  0
M  END
>  <MODEL>
3

>  <REMARK>
 VINA RESULT:      -5.8      1.568      2.162
  Name = 
  6 active torsions:
  status: ('A' for Active; 'I' for Inactive)
    1  A    between atoms: C_3  and  C_22
    2  A    between atoms: O_11  and  C_12
    3  A    between atoms: O_11  and  C_31
    4  A    between atoms: N_13  and  C_29
    5  A    between atoms: C_15  and  C_22
    6  A    between atoms: C_16  and  C_27
                            x       y       z     vdW  Elec       q    Type
                         _______ _______ _______ _____ _____    ______ ____

>  <TORSDO>
F 6

$$$$
=
 OpenBabel10272402043D

 32 36  0  0  1  0  0  0  0  0999 V2000
  185.5080  178.7340  143.0970 C   0  0  2  0  0  3  0  0  0  0  0  0
  184.0850  178.9770  141.1400 C   0  0  2  0  0  3  0  0  0  0  0  0
  185.5510  178.4340  144.5780 C   0  0  0  0  0  2  0  0  0  0  0  0
  184.3210  178.7060  142.5270 C   0  0  1  0  0  3  0  0  0  0  0  0
  182.7860  178.2390  141.0020 C   0  0  1  0  0  3  0  0  0  0  0  0
  185.2280  178.4120  140.3260 C   0  0  2  0  0  3  0  0  0  0  0  0
  183.8800  178.0340  138.1560 C   0  0  0  0  0  0  0  0  0  0  0  0
  183.1050  178.2220  143.1800 C   0  0  2  0  0  3  0  0  0  0  0  0
  182.6360  178.0280  138.5660 N   0  0  0  0  0  0  0  0  0  0  0  0
  182.0820  178.4150  142.2220 O   0  0  0  0  0  0  0  0  0  0  0  0
  182.9600  179.0090  144.4740 C   0  0  0  0  0  2  0  0  0  0  0  0
  186.4400  178.9940  140.7920 O   0  0  0  0  0  0  0  0  0  0  0  0
  186.7000  178.6170  142.1470 C   0  0  1  0  0  3  0  0  0  0  0  0
  185.0000  178.7880  138.8570 C   0  0  1  0  0  3  0  0  0  0  0  0
  182.0390  178.6630  139.7480 C   0  0  2  0  0  3  0  0  0  0  0  0
  184.2630  178.9090  145.3270 C   0  0  0  0  0  2  0  0  0  0  0  0
  184.8570  180.1680  138.6840 O   0  0  0  0  0  1  0  0  0  0  0  0
  188.0420  179.1630  142.6690 C   0  0  2  0  0  3  0  0  0  0  0  0
  189.0870  179.0080  141.7240 O   0  0  0  0  0  0  0  0  0  0  0  0
  189.2010  178.2280  142.8920 C   0  0  2  0  0  0  0  0  0  0  0  0
  189.2320  176.7000  142.5810 C   0  0  0  0  0  0  0  0  0  0  0  0
  188.9820  176.4740  141.1010 C   0  0  0  0  0  1  0  0  0  0  0  0
  188.1220  175.9980  143.3460 C   0  0  0  0  0  1  0  0  0  0  0  0
  190.5240  176.0020  142.9740 C   0  0  0  0  0  1  0  0  0  0  0  0
  191.5320  178.6410  143.3380 O   0  0  0  0  0  1  0  0  0  0  0  0
  190.2550  178.7610  143.8860 C   0  0  2  0  0  3  0  0  0  0  0  0
  190.2220  178.1090  145.2620 C   0  0  0  0  0  1  0  0  0  0  0  0
  181.9900  180.1130  139.5960 N   0  0  0  0  0  2  0  0  0  0  0  0
  180.5890  180.4910  139.5240 C   0  0  0  0  0  1  0  0  0  0  0  0
  184.1760  177.3120  136.9940 O   0  0  0  0  0  0  0  0  0  0  0  0
  186.1480  175.9260  136.9660 C   0  0  0  0  0  1  0  0  0  0  0  0
  185.4890  177.1960  136.4600 C   0  0  0  0  0  2  0  0  0  0  0  0
  1  3  1  1  0  0  0
  2  4  1  0  0  0  0
  3 16  1  0  0  0  0
  4  1  1  0  0  0  0
  4  8  1  0  0  0  0
  5  2  1  0  0  0  0
  5 10  1  0  0  0  0
  6 12  1  0  0  0  0
  6  2  1  0  0  0  0
  7  9  2  0  0  0  0
  7 14  1  0  0  0  0
  8 11  1  0  0  0  0
  9 15  1  0  0  0  0
 10  8  1  0  0  0  0
 11 16  1  0  0  0  0
 12 13  1  0  0  0  0
 13 18  1  0  0  0  0
 13  1  1  0  0  0  0
 14  6  1  0  0  0  0
 15  5  1  0  0  0  0
 17 14  1  0  0  0  0
 18 20  1  0  0  0  0
 19 18  1  0  0  0  0
 19 20  1  0  0  0  0
 20 26  1  0  0  0  0
 21 20  1  0  0  0  0
 21 24  1  0  0  0  0
 21 23  1  0  0  0  0
 22 21  1  0  0  0  0
 25 26  1  0  0  0  0
 26 27  1  0  0  0  0
 28 15  1  0  0  0  0
 29 28  1  0  0  0  0
 30  7  1  0  0  0  0
 32 31  1  0  0  0  0
 32 30  1  0  0  0  0
M  END
>  <MODEL>
4

>  <REMARK>
 VINA RESULT:      -5.6      3.018      7.683
  Name = 
  6 active torsions:
  status: ('A' for Active; 'I' for Inactive)
    1  A    between atoms: C_3  and  C_22
    2  A    between atoms: O_11  and  C_12
    3  A    between atoms: O_11  and  C_31
    4  A    between atoms: N_13  and  C_29
    5  A    between atoms: C_15  and  C_22
    6  A    between atoms: C_16  and  C_27
                            x       y       z     vdW  Elec       q    Type
                         _______ _______ _______ _____ _____    ______ ____

>  <TORSDO>
F 6

$$$$
=
 OpenBabel10272402043D

 32 36  0  0  1  0  0  0  0  0999 V2000
  188.9760  177.3350  141.4560 C   0  0  2  0  0  3  0  0  0  0  0  0
  187.1460  178.1030  142.8620 C   0  0  2  0  0  3  0  0  0  0  0  0
  190.2200  176.4790  141.3860 C   0  0  0  0  0  2  0  0  0  0  0  0
  188.3330  177.3420  142.6060 C   0  0  1  0  0  3  0  0  0  0  0  0
  186.6120  177.2790  143.9950 C   0  0  1  0  0  3  0  0  0  0  0  0
  186.2870  178.1090  141.6170 C   0  0  2  0  0  3  0  0  0  0  0  0
  184.0260  178.4150  142.8270 C   0  0  0  0  0  0  0  0  0  0  0  0
  188.6290  176.4440  143.7210 C   0  0  2  0  0  3  0  0  0  0  0  0
  184.2830  178.0400  144.0560 N   0  0  0  0  0  0  0  0  0  0  0  0
  187.7320  176.8330  144.7430 O   0  0  0  0  0  0  0  0  0  0  0  0
  190.1090  176.6110  144.0360 C   0  0  0  0  0  2  0  0  0  0  0  0
  187.0520  178.6460  140.5450 O   0  0  0  0  0  0  0  0  0  0  0  0
  188.1710  177.8070  140.2460 C   0  0  1  0  0  3  0  0  0  0  0  0
  185.0660  178.9990  141.8830 C   0  0  1  0  0  3  0  0  0  0  0  0
  185.5590  178.0410  144.7850 C   0  0  2  0  0  3  0  0  0  0  0  0
  190.9710  176.3940  142.7540 C   0  0  0  0  0  2  0  0  0  0  0  0
  185.4330  180.2880  142.2800 O   0  0  0  0  0  1  0  0  0  0  0  0
  188.9870  178.3110  139.0400 C   0  0  2  0  0  3  0  0  0  0  0  0
  188.2290  179.1640  138.1990 O   0  0  0  0  0  0  0  0  0  0  0  0
  188.5870  177.9200  137.6420 C   0  0  2  0  0  0  0  0  0  0  0  0
  187.3420  177.0730  137.2370 C   0  0  0  0  0  0  0  0  0  0  0  0
  187.5210  175.6420  137.7090 C   0  0  0  0  0  1  0  0  0  0  0  0
  187.2110  177.0440  135.7240 C   0  0  0  0  0  1  0  0  0  0  0  0
  186.0180  177.6030  137.7660 C   0  0  0  0  0  1  0  0  0  0  0  0
  189.2190  178.3290  135.3540 O   0  0  0  0  0  1  0  0  0  0  0  0
  189.7330  178.0170  136.6120 C   0  0  2  0  0  3  0  0  0  0  0  0
  190.6100  176.7750  136.5160 C   0  0  0  0  0  1  0  0  0  0  0  0
  185.9810  179.4010  145.1020 N   0  0  0  0  0  2  0  0  0  0  0  0
  185.9820  179.5230  146.5500 C   0  0  0  0  0  1  0  0  0  0  0  0
  182.7070  178.2790  142.3780 O   0  0  0  0  0  0  0  0  0  0  0  0
  180.9230  178.0370  140.7750 C   0  0  0  0  0  1  0  0  0  0  0  0
  182.2880  178.6350  141.0660 C   0  0  0  0  0  2  0  0  0  0  0  0
  1  3  1  6  0  0  0
  1  4  1  0  0  0  0
  2  5  1  0  0  0  0
  3 16  1  0  0  0  0
  4  2  1  0  0  0  0
  4  8  1  0  0  0  0
  5 10  1  0  0  0  0
  5 15  1  0  0  0  0
  6 14  1  0  0  0  0
  6  2  1  0  0  0  0
  7  9  2  0  0  0  0
  8 11  1  0  0  0  0
  8 10  1  0  0  0  0
  9 15  1  0  0  0  0
 12  6  1  0  0  0  0
 13 12  1  0  0  0  0
 13  1  1  0  0  0  0
 14 17  1  0  0  0  0
 14  7  1  0  0  0  0
 15 28  1  0  0  0  0
 16 11  1  0  0  0  0
 18 13  1  0  0  0  0
 19 18  1  0  0  0  0
 20 19  1  0  0  0  0
 20 18  1  0  0  0  0
 21 20  1  0  0  0  0
 21 22  1  0  0  0  0
 21 24  1  0  0  0  0
 23 21  1  0  0  0  0
 25 26  1  0  0  0  0
 26 20  1  0  0  0  0
 27 26  1  0  0  0  0
 28 29  1  0  0  0  0
 30  7  1  0  0  0  0
 31 32  1  0  0  0  0
 32 30  1  0  0  0  0
M  END
>  <MODEL>
5

>  <REMARK>
 VINA RESULT:      -5.0      3.084      7.290
  Name = 
  6 active torsions:
  status: ('A' for Active; 'I' for Inactive)
    1  A    between atoms: C_3  and  C_22
    2  A    between atoms: O_11  and  C_12
    3  A    between atoms: O_11  and  C_31
    4  A    between atoms: N_13  and  C_29
    5  A    between atoms: C_15  and  C_22
    6  A    between atoms: C_16  and  C_27
                            x       y       z     vdW  Elec       q    Type
                         _______ _______ _______ _____ _____    ______ ____

>  <TORSDO>
F 6

$$$$
=
 OpenBabel10272402043D

 32 36  0  0  1  0  0  0  0  0999 V2000
  187.4930  177.6640  143.0510 C   0  0  2  0  0  3  0  0  0  0  0  0
  188.1990  177.8710  140.7330 C   0  0  2  0  0  3  0  0  0  0  0  0
  186.3720  177.8940  144.0390 C   0  0  0  0  0  2  0  0  0  0  0  0
  187.2530  178.0030  141.8010 C   0  0  1  0  0  3  0  0  0  0  0  0
  187.2220  177.8260  139.5960 C   0  0  1  0  0  3  0  0  0  0  0  0
  188.9980  176.6030  140.9380 C   0  0  2  0  0  3  0  0  0  0  0  0
  189.5360  176.1950  138.4450 C   0  0  0  0  0  0  0  0  0  0  0  0
  185.9380  178.3920  141.2910 C   0  0  2  0  0  3  0  0  0  0  0  0
  188.6340  176.9070  137.8160 N   0  0  0  0  0  0  0  0  0  0  0  0
  186.1600  178.7060  139.9300 O   0  0  0  0  0  0  0  0  0  0  0  0
  185.4510  179.5380  142.1670 C   0  0  0  0  0  2  0  0  0  0  0  0
  189.6280  176.6700  142.2120 O   0  0  0  0  0  0  0  0  0  0  0  0
  188.6560  176.6950  143.2610 C   0  0  1  0  0  3  0  0  0  0  0  0
  190.0610  176.5260  139.8340 C   0  0  1  0  0  3  0  0  0  0  0  0
  187.9070  178.1020  138.2660 C   0  0  2  0  0  3  0  0  0  0  0  0
  185.4910  179.1340  143.6730 C   0  0  0  0  0  2  0  0  0  0  0  0
  190.8710  177.6640  139.8040 O   0  0  0  0  0  1  0  0  0  0  0  0
  189.2940  176.6910  144.6630 C   0  0  2  0  0  3  0  0  0  0  0  0
  189.2380  177.9660  145.2800 O   0  0  0  0  0  0  0  0  0  0  0  0
  190.5260  177.5140  144.9320 C   0  0  2  0  0  0  0  0  0  0  0  0
  191.2390  178.4730  143.9290 C   0  0  0  0  0  0  0  0  0  0  0  0
  191.9810  177.6600  142.8850 C   0  0  0  0  0  1  0  0  0  0  0  0
  192.2640  179.3180  144.6660 C   0  0  0  0  0  1  0  0  0  0  0  0
  190.3120  179.4500  143.2240 C   0  0  0  0  0  1  0  0  0  0  0  0
  191.9810  175.8200  145.8370 O   0  0  0  0  0  1  0  0  0  0  0  0
  191.3530  177.0270  146.1420 C   0  0  2  0  0  3  0  0  0  0  0  0
  190.5640  176.8830  147.4370 C   0  0  0  0  0  1  0  0  0  0  0  0
  188.7910  179.2610  138.3290 N   0  0  0  0  0  2  0  0  0  0  0  0
  189.2320  179.5390  136.9730 C   0  0  0  0  0  1  0  0  0  0  0  0
  190.0500  175.0770  137.7780 O   0  0  0  0  0  0  0  0  0  0  0  0
  192.0380  175.9990  136.7720 C   0  0  0  0  0  1  0  0  0  0  0  0
  191.4410  174.8580  137.5750 C   0  0  0  0  0  2  0  0  0  0  0  0
  1 13  1  0  0  0  0
  1  3  1  6  0  0  0
  2  6  1  0  0  0  0
  2  4  1  0  0  0  0
  4  1  1  0  0  0  0
  5 10  1  0  0  0  0
  5  2  1  0  0  0  0
  6 12  1  0  0  0  0
  7 14  1  0  0  0  0
  8  4  1  0  0  0  0
  8 11  1  0  0  0  0
  9 15  1  0  0  0  0
  9  7  2  0  0  0  0
 10  8  1  0  0  0  0
 11 16  1  0  0  0  0
 12 13  1  0  0  0  0
 13 18  1  0  0  0  0
 14  6  1  0  0  0  0
 15 28  1  0  0  0  0
 15  5  1  0  0  0  0
 16  3  1  0  0  0  0
 17 14  1  0  0  0  0
 18 20  1  0  0  0  0
 18 19  1  0  0  0  0
 20 19  1  0  0  0  0
 20 26  1  0  0  0  0
 21 23  1  0  0  0  0
 21 20  1  0  0  0  0
 22 21  1  0  0  0  0
 24 21  1  0  0  0  0
 25 26  1  0  0  0  0
 26 27  1  0  0  0  0
 29 28  1  0  0  0  0
 30  7  1  0  0  0  0
 31 32  1  0  0  0  0
 32 30  1  0  0  0  0
M  END
>  <MODEL>
6

>  <REMARK>
 VINA RESULT:      -4.9      3.061      7.222
  Name = 
  6 active torsions:
  status: ('A' for Active; 'I' for Inactive)
    1  A    between atoms: C_3  and  C_22
    2  A    between atoms: O_11  and  C_12
    3  A    between atoms: O_11  and  C_31
    4  A    between atoms: N_13  and  C_29
    5  A    between atoms: C_15  and  C_22
    6  A    between atoms: C_16  and  C_27
                            x       y       z     vdW  Elec       q    Type
                         _______ _______ _______ _____ _____    ______ ____

>  <TORSDO>
F 6

$$$$
=
 OpenBabel10272402043D

 32 36  0  0  1  0  0  0  0  0999 V2000
  188.9600  177.7460  140.4860 C   0  0  2  0  0  3  0  0  0  0  0  0
  186.8510  178.4130  141.4960 C   0  0  2  0  0  3  0  0  0  0  0  0
  190.3390  177.1800  140.7370 C   0  0  0  0  0  2  0  0  0  0  0  0
  188.1810  177.8830  141.5390 C   0  0  1  0  0  3  0  0  0  0  0  0
  186.3340  177.7790  142.7530 C   0  0  1  0  0  3  0  0  0  0  0  0
  186.1770  177.9490  140.2240 C   0  0  2  0  0  3  0  0  0  0  0  0
  183.7590  178.0400  141.1270 C   0  0  0  0  0  0  0  0  0  0  0  0
  188.4890  177.3500  142.8660 C   0  0  2  0  0  3  0  0  0  0  0  0
  183.9170  178.0230  142.4280 N   0  0  0  0  0  0  0  0  0  0  0  0
  187.4090  177.7660  143.6790 O   0  0  0  0  0  0  0  0  0  0  0  0
  189.8570  177.8950  143.2490 C   0  0  0  0  0  2  0  0  0  0  0  0
  186.9640  178.3730  139.1170 O   0  0  0  0  0  0  0  0  0  0  0  0
  188.2480  177.7440  139.1330 C   0  0  1  0  0  3  0  0  0  0  0  0
  184.7880  178.5970  140.1550 C   0  0  1  0  0  3  0  0  0  0  0  0
  185.0630  178.4620  143.2350 C   0  0  2  0  0  3  0  0  0  0  0  0
  190.9060  177.5750  142.1390 C   0  0  0  0  0  2  0  0  0  0  0  0
  184.8540  179.9900  140.2410 O   0  0  0  0  0  1  0  0  0  0  0  0
  189.1080  178.1170  137.9110 C   0  0  2  0  0  3  0  0  0  0  0  0
  188.3430  178.7210  136.8820 O   0  0  0  0  0  0  0  0  0  0  0  0
  188.8640  177.4470  136.5850 C   0  0  2  0  0  0  0  0  0  0  0  0
  187.7440  176.4110  136.2620 C   0  0  0  0  0  0  0  0  0  0  0  0
  186.3930  177.1020  136.2610 C   0  0  0  0  0  1  0  0  0  0  0  0
  187.7110  175.3380  137.3380 C   0  0  0  0  0  1  0  0  0  0  0  0
  187.9230  175.6780  134.9410 C   0  0  0  0  0  1  0  0  0  0  0  0
  189.6610  177.8430  134.3460 O   0  0  0  0  0  1  0  0  0  0  0  0
  190.0760  177.4870  135.6290 C   0  0  2  0  0  3  0  0  0  0  0  0
  190.8850  176.1980  135.5700 C   0  0  0  0  0  1  0  0  0  0  0  0
  185.1800  179.9160  143.2310 N   0  0  0  0  0  2  0  0  0  0  0  0
  184.5940  180.3980  144.4700 C   0  0  0  0  0  1  0  0  0  0  0  0
  182.5590  177.5280  140.6210 O   0  0  0  0  0  0  0  0  0  0  0  0
  182.5480  175.7270  139.0180 C   0  0  0  0  0  1  0  0  0  0  0  0
  182.3610  177.2160  139.2470 C   0  0  0  0  0  2  0  0  0  0  0  0
  1  3  1  1  0  0  0
  1  4  1  0  0  0  0
  2  4  1  0  0  0  0
  2  5  1  0  0  0  0
  3 16  1  0  0  0  0
  4  8  1  0  0  0  0
  5 15  1  0  0  0  0
  5 10  1  0  0  0  0
  6  2  1  0  0  0  0
  7  9  2  0  0  0  0
  8 11  1  0  0  0  0
  8 10  1  0  0  0  0
  9 15  1  0  0  0  0
 12 13  1  0  0  0  0
 12  6  1  0  0  0  0
 13  1  1  0  0  0  0
 14  6  1  0  0  0  0
 14 17  1  0  0  0  0
 14  7  1  0  0  0  0
 16 11  1  0  0  0  0
 18 13  1  0  0  0  0
 19 18  1  0  0  0  0
 20 19  1  0  0  0  0
 20 18  1  0  0  0  0
 21 20  1  0  0  0  0
 21 23  1  0  0  0  0
 22 21  1  0  0  0  0
 24 21  1  0  0  0  0
 25 26  1  0  0  0  0
 26 20  1  0  0  0  0
 27 26  1  0  0  0  0
 28 15  1  0  0  0  0
 28 29  1  0  0  0  0
 30  7  1  0  0  0  0
 31 32  1  0  0  0  0
 32 30  1  0  0  0  0
M  END
>  <MODEL>
7

>  <REMARK>
 VINA RESULT:      -4.9      2.864      7.163
  Name = 
  6 active torsions:
  status: ('A' for Active; 'I' for Inactive)
    1  A    between atoms: C_3  and  C_22
    2  A    between atoms: O_11  and  C_12
    3  A    between atoms: O_11  and  C_31
    4  A    between atoms: N_13  and  C_29
    5  A    between atoms: C_15  and  C_22
    6  A    between atoms: C_16  and  C_27
                            x       y       z     vdW  Elec       q    Type
                         _______ _______ _______ _____ _____    ______ ____

>  <TORSDO>
F 6

$$$$
=
 OpenBabel10272402043D

 32 36  0  0  1  0  0  0  0  0999 V2000
  186.3320  178.3550  138.7170 C   0  0  2  0  0  3  0  0  0  0  0  0
  187.5220  178.3450  140.8380 C   0  0  2  0  0  3  0  0  0  0  0  0
  186.4030  178.0150  137.2460 C   0  0  0  0  0  2  0  0  0  0  0  0
  187.4020  178.0800  139.4350 C   0  0  1  0  0  3  0  0  0  0  0  0
  188.5880  177.3360  141.1490 C   0  0  1  0  0  3  0  0  0  0  0  0
  186.1880  178.0880  141.5040 C   0  0  2  0  0  3  0  0  0  0  0  0
  187.1350  177.4990  143.8330 C   0  0  0  0  0  0  0  0  0  0  0  0
  188.5440  177.3060  138.9490 C   0  0  2  0  0  3  0  0  0  0  0  0
  188.3850  177.1930  143.5870 N   0  0  0  0  0  0  0  0  0  0  0  0
  189.4580  177.2990  140.0280 O   0  0  0  0  0  0  0  0  0  0  0  0
  189.0240  177.9870  137.6760 C   0  0  0  0  0  2  0  0  0  0  0  0
  185.2100  178.9120  140.8800 O   0  0  0  0  0  0  0  0  0  0  0  0
  185.0390  178.5510  139.5070 C   0  0  1  0  0  3  0  0  0  0  0  0
  186.3150  178.4610  142.9870 C   0  0  1  0  0  3  0  0  0  0  0  0
  189.2540  177.6290  142.4850 C   0  0  2  0  0  3  0  0  0  0  0  0
  187.8480  178.1530  136.6640 C   0  0  0  0  0  2  0  0  0  0  0  0
  186.7510  179.7770  143.1620 O   0  0  0  0  0  1  0  0  0  0  0  0
  183.9330  179.3670  138.8110 C   0  0  2  0  0  3  0  0  0  0  0  0
  183.1320  180.0820  139.7360 O   0  0  0  0  0  0  0  0  0  0  0  0
  182.4850  179.0350  139.0530 C   0  0  2  0  0  0  0  0  0  0  0  0
  181.9330  177.9460  140.0250 C   0  0  0  0  0  0  0  0  0  0  0  0
  180.4600  177.7130  139.7480 C   0  0  0  0  0  1  0  0  0  0  0  0
  182.0600  178.4280  141.4600 C   0  0  0  0  0  1  0  0  0  0  0  0
  182.6630  176.6140  139.9600 C   0  0  0  0  0  1  0  0  0  0  0  0
  181.8830  178.9370  136.7220 O   0  0  0  0  0  1  0  0  0  0  0  0
  181.5350  179.5240  137.9380 C   0  0  2  0  0  3  0  0  0  0  0  0
  181.4660  181.0370  137.7780 C   0  0  0  0  0  1  0  0  0  0  0  0
  189.6170  179.0340  142.6270 N   0  0  0  0  0  2  0  0  0  0  0  0
  190.5640  179.1250  143.7240 C   0  0  0  0  0  1  0  0  0  0  0  0
  186.5410  176.9110  144.9550 O   0  0  0  0  0  0  0  0  0  0  0  0
  185.4250  178.4100  146.4780 C   0  0  0  0  0  1  0  0  0  0  0  0
  186.6020  177.4760  146.2590 C   0  0  0  0  0  2  0  0  0  0  0  0
  1  3  1  6  0  0  0
  1  4  1  0  0  0  0
  1 13  1  0  0  0  0
  2  5  1  0  0  0  0
  2  6  1  0  0  0  0
  4  2  1  0  0  0  0
  5 15  1  0  0  0  0
  6 14  1  0  0  0  0
  7 30  1  0  0  0  0
  8  4  1  0  0  0  0
  8 10  1  0  0  0  0
  9  7  2  0  0  0  0
 10  5  1  0  0  0  0
 11  8  1  0  0  0  0
 12  6  1  0  0  0  0
 13 12  1  0  0  0  0
 14 17  1  0  0  0  0
 14  7  1  0  0  0  0
 15 28  1  0  0  0  0
 15  9  1  0  0  0  0
 16  3  1  0  0  0  0
 16 11  1  0  0  0  0
 18 20  1  0  0  0  0
 18 13  1  0  0  0  0
 18 19  1  0  0  0  0
 20 19  1  0  0  0  0
 20 21  1  0  0  0  0
 21 23  1  0  0  0  0
 22 21  1  0  0  0  0
 24 21  1  0  0  0  0
 25 26  1  0  0  0  0
 26 20  1  0  0  0  0
 27 26  1  0  0  0  0
 28 29  1  0  0  0  0
 30 32  1  0  0  0  0
 32 31  1  0  0  0  0
M  END
>  <MODEL>
8

>  <REMARK>
 VINA RESULT:      -4.5      2.542      3.910
  Name = 
  6 active torsions:
  status: ('A' for Active; 'I' for Inactive)
    1  A    between atoms: C_3  and  C_22
    2  A    between atoms: O_11  and  C_12
    3  A    between atoms: O_11  and  C_31
    4  A    between atoms: N_13  and  C_29
    5  A    between atoms: C_15  and  C_22
    6  A    between atoms: C_16  and  C_27
                            x       y       z     vdW  Elec       q    Type
                         _______ _______ _______ _____ _____    ______ ____

>  <TORSDO>
F 6

$$$$
=
 OpenBabel10272402043D

 32 36  0  0  1  0  0  0  0  0999 V2000
  189.5250  176.5420  138.7200 C   0  0  2  0  0  3  0  0  0  0  0  0
  191.8240  175.8810  138.2810 C   0  0  2  0  0  3  0  0  0  0  0  0
  188.6080  177.3560  139.6040 C   0  0  0  0  0  2  0  0  0  0  0  0
  190.8110  176.5960  139.0000 C   0  0  1  0  0  3  0  0  0  0  0  0
  192.9860  176.7620  138.6310 C   0  0  1  0  0  3  0  0  0  0  0  0
  191.4620  175.8570  136.8130 C   0  0  2  0  0  3  0  0  0  0  0  0
  193.8780  175.6650  135.9210 C   0  0  0  0  0  0  0  0  0  0  0  0
  191.4060  177.5240  139.9600 C   0  0  2  0  0  3  0  0  0  0  0  0
  194.6090  176.0760  136.9280 N   0  0  0  0  0  0  0  0  0  0  0  0
  192.7830  177.2010  139.9660 O   0  0  0  0  0  0  0  0  0  0  0  0
  190.6710  177.3230  141.2770 C   0  0  0  0  0  2  0  0  0  0  0  0
  190.1780  175.2580  136.6760 O   0  0  0  0  0  0  0  0  0  0  0  0
  189.1740  176.0510  137.3150 C   0  0  1  0  0  3  0  0  0  0  0  0
  192.5110  175.0160  136.0760 C   0  0  1  0  0  3  0  0  0  0  0  0
  194.3100  176.0630  138.3660 C   0  0  2  0  0  3  0  0  0  0  0  0
  189.1310  177.4670  141.0740 C   0  0  0  0  0  2  0  0  0  0  0  0
  192.6270  173.7310  136.6140 O   0  0  0  0  0  1  0  0  0  0  0  0
  187.7560  175.4790  137.1290 C   0  0  2  0  0  3  0  0  0  0  0  0
  187.5330  175.0220  135.8050 O   0  0  0  0  0  0  0  0  0  0  0  0
  186.7880  176.1530  136.1930 C   0  0  2  0  0  0  0  0  0  0  0  0
  187.0810  177.3910  135.2910 C   0  0  0  0  0  0  0  0  0  0  0  0
  187.2660  178.6230  136.1580 C   0  0  0  0  0  1  0  0  0  0  0  0
  185.8970  177.6500  134.3740 C   0  0  0  0  0  1  0  0  0  0  0  0
  188.2920  177.2400  134.3850 C   0  0  0  0  0  1  0  0  0  0  0  0
  184.8540  176.6270  137.5490 O   0  0  0  0  0  1  0  0  0  0  0  0
  185.3060  175.8390  136.4910 C   0  0  2  0  0  3  0  0  0  0  0  0
  185.0100  174.3720  136.7790 C   0  0  0  0  0  1  0  0  0  0  0  0
  194.3330  174.7030  138.8940 N   0  0  0  0  0  2  0  0  0  0  0  0
  195.7230  174.2830  138.9390 C   0  0  0  0  0  1  0  0  0  0  0  0
  194.4080  175.8260  134.6360 O   0  0  0  0  0  0  0  0  0  0  0  0
  196.3050  174.3380  134.6890 C   0  0  0  0  0  1  0  0  0  0  0  0
  195.7970  175.7270  134.3460 C   0  0  0  0  0  2  0  0  0  0  0  0
  1  4  1  0  0  0  0
  1  3  1  6  0  0  0
  2  5  1  0  0  0  0
  2  4  1  0  0  0  0
  3 16  1  0  0  0  0
  4  8  1  0  0  0  0
  5 10  1  0  0  0  0
  6  2  1  0  0  0  0
  7 14  1  0  0  0  0
  7  9  2  0  0  0  0
  8 10  1  0  0  0  0
  8 11  1  0  0  0  0
  9 15  1  0  0  0  0
 12  6  1  0  0  0  0
 12 13  1  0  0  0  0
 13  1  1  0  0  0  0
 14 17  1  0  0  0  0
 14  6  1  0  0  0  0
 15  5  1  0  0  0  0
 15 28  1  0  0  0  0
 16 11  1  0  0  0  0
 18 13  1  0  0  0  0
 19 20  1  0  0  0  0
 19 18  1  0  0  0  0
 20 26  1  0  0  0  0
 20 18  1  0  0  0  0
 21 22  1  0  0  0  0
 21 20  1  0  0  0  0
 23 21  1  0  0  0  0
 24 21  1  0  0  0  0
 26 27  1  0  0  0  0
 26 25  1  0  0  0  0
 28 29  1  0  0  0  0
 30  7  1  0  0  0  0
 32 30  1  0  0  0  0
 32 31  1  0  0  0  0
M  END
>  <MODEL>
9

>  <REMARK>
 VINA RESULT:      -4.4      3.426      6.452
  Name = 
  6 active torsions:
  status: ('A' for Active; 'I' for Inactive)
    1  A    between atoms: C_3  and  C_22
    2  A    between atoms: O_11  and  C_12
    3  A    between atoms: O_11  and  C_31
    4  A    between atoms: N_13  and  C_29
    5  A    between atoms: C_15  and  C_22
    6  A    between atoms: C_16  and  C_27
                            x       y       z     vdW  Elec       q    Type
                         _______ _______ _______ _____ _____    ______ ____

>  <TORSDO>
F 6

$$$$
